data_Molecule from HDF5

_cell_length_a		16.345869
_cell_length_b		16.299960
_cell_length_c		16.330354
_cell_angle_alpha	89.950070
_cell_angle_beta	89.721592
_cell_angle_gamma	89.766345
_symmetry_space_group_name_H-M	'P 1'
_symmetry_Int_Tables_number		1

loop_
	_symmetry_equiv_pos_as_xyz
	x,y,z

loop_
	_atom_site_label
	_atom_site_type_symbol
	_atom_site_fract_x
	_atom_site_fract_y
	_atom_site_fract_z
	H0	H	0.384666	0.843077	0.719464
	H1	H	0.586938	0.167277	0.720109
	H2	H	0.588042	0.844754	0.285091
	H3	H	0.381649	0.166192	0.284258
	H4	H	0.704491	0.406127	0.842645
	H5	H	0.704106	0.610582	0.164668
	H6	H	0.270258	0.606954	0.841590
	H7	H	0.265861	0.404709	0.165079
	H8	H	0.823742	0.725526	0.402890
	H9	H	0.146672	0.723884	0.604985
	H10	H	0.822939	0.289205	0.606739
	H11	H	0.145952	0.286756	0.399389
	H12	H	0.823309	0.407922	0.722203
	H13	H	0.146404	0.608524	0.720685
	H14	H	0.823997	0.612043	0.285181
	H15	H	0.144704	0.402339	0.282792
	H16	H	0.385754	0.722366	0.841455
	H17	H	0.587129	0.724876	0.164853
	H18	H	0.588625	0.289435	0.842257
	H19	H	0.384221	0.290192	0.166615
	H20	H	0.704705	0.844983	0.398818
	H21	H	0.701352	0.168076	0.602545
	H22	H	0.266759	0.844819	0.605962
	H23	H	0.266115	0.166897	0.398959
	H24	H	0.883457	0.345533	0.222535
	H25	H	0.084723	0.669127	0.220206
	H26	H	0.086530	0.344562	0.787214
	H27	H	0.884677	0.670563	0.789164
	H28	H	0.203273	0.905214	0.340575
	H29	H	0.201601	0.106581	0.664834
	H30	H	0.770587	0.106062	0.339178
	H31	H	0.766850	0.905583	0.663664
	H32	H	0.322625	0.223987	0.903775
	H33	H	0.647911	0.221900	0.103402
	H34	H	0.322595	0.791848	0.103749
	H35	H	0.647408	0.789669	0.903793
	H36	H	0.323868	0.906341	0.221160
	H37	H	0.647753	0.105659	0.218770
	H38	H	0.323467	0.108166	0.785565
	H39	H	0.647509	0.904043	0.785553
	H40	H	0.884427	0.224790	0.340619
	H41	H	0.083686	0.221304	0.665843
	H42	H	0.086303	0.789515	0.341064
	H43	H	0.885914	0.793124	0.666459
	H44	H	0.203073	0.344570	0.901896
	H45	H	0.199179	0.669938	0.102554
	H46	H	0.768996	0.344815	0.105891
	H47	H	0.769012	0.669164	0.905122
	H48	H	0.401636	0.116682	0.588811
	H49	H	0.577251	0.891950	0.588264
	H50	H	0.583431	0.122259	0.417565
	H51	H	0.391933	0.891576	0.420164
	H52	H	0.571839	0.409466	0.119646
	H53	H	0.572357	0.596988	0.890042
	H54	H	0.389664	0.594385	0.119242
	H55	H	0.394681	0.414343	0.889650
	H56	H	0.100762	0.602949	0.413690
	H57	H	0.871462	0.595924	0.592353
	H58	H	0.101372	0.407380	0.595793
	H59	H	0.871428	0.415162	0.417230
	H60	H	0.097900	0.415515	0.590923
	H61	H	0.868334	0.597725	0.602335
	H62	H	0.096659	0.592677	0.417520
	H63	H	0.871572	0.420430	0.416137
	H64	H	0.397330	0.598924	0.118036
	H65	H	0.579647	0.600053	0.887640
	H66	H	0.582686	0.413227	0.121254
	H67	H	0.394132	0.415034	0.888604
	H68	H	0.579190	0.125005	0.402284
	H69	H	0.581243	0.888533	0.596407
	H70	H	0.384027	0.122281	0.589962
	H71	H	0.392887	0.887532	0.406398
	H72	H	0.896082	0.621517	0.093993
	H73	H	0.072101	0.392345	0.097313
	H74	H	0.074995	0.620860	0.915071
	H75	H	0.888494	0.388746	0.907811
	H76	H	0.069838	0.921345	0.613641
	H77	H	0.071633	0.098740	0.388774
	H78	H	0.885537	0.097141	0.619897
	H79	H	0.897654	0.922636	0.390297
	H80	H	0.597983	0.098741	0.918607
	H81	H	0.371840	0.087526	0.101017
	H82	H	0.605242	0.907061	0.100079
	H83	H	0.369887	0.916002	0.909147
	H84	H	0.598157	0.911780	0.085077
	H85	H	0.365339	0.108004	0.100748
	H86	H	0.597965	0.089766	0.908316
	H87	H	0.369401	0.912033	0.911078
	H88	H	0.894796	0.092755	0.615045
	H89	H	0.080106	0.098988	0.387043
	H90	H	0.074569	0.904970	0.620548
	H91	H	0.899942	0.907527	0.386999
	H92	H	0.083646	0.624153	0.911513
	H93	H	0.075241	0.393496	0.089080
	H94	H	0.891343	0.622173	0.092163
	H95	H	0.902662	0.392870	0.908696
	H96	H	0.395211	0.124176	0.604908
	H97	H	0.572059	0.890937	0.596131
	H98	H	0.568349	0.119390	0.413015
	H99	H	0.403343	0.894349	0.413190
	H100	H	0.574573	0.420421	0.116685
	H101	H	0.579034	0.592191	0.890354
	H102	H	0.390011	0.603171	0.121278
	H103	H	0.394943	0.415637	0.888745
	H104	H	0.100468	0.593707	0.406007
	H105	H	0.869352	0.605338	0.595384
	H106	H	0.100972	0.416678	0.600206
	H107	H	0.869913	0.417213	0.412389
	H108	H	0.893023	0.623512	0.097347
	H109	H	0.081113	0.390164	0.095591
	H110	H	0.075525	0.623918	0.905701
	H111	H	0.893174	0.393087	0.921054
	H112	H	0.086754	0.918431	0.620266
	H113	H	0.076629	0.091958	0.389637
	H114	H	0.894703	0.103335	0.618385
	H115	H	0.885554	0.913881	0.385004
	H116	H	0.603044	0.102333	0.906290
	H117	H	0.375013	0.099508	0.083568
	H118	H	0.598834	0.923128	0.098245
	H119	H	0.371130	0.915702	0.913014
	C120	C	0.363646	0.014077	0.624809
	C121	C	0.606838	0.997500	0.623650
	C122	C	0.607152	0.014954	0.380743
	C123	C	0.364839	0.997464	0.382365
	C124	C	0.607395	0.384629	0.012636
	C125	C	0.606699	0.627639	0.995724
	C126	C	0.363883	0.628139	0.012296
	C127	C	0.363680	0.384915	0.995687
	C128	C	-0.006950	0.627910	0.382520
	C129	C	0.976872	0.628758	0.625703
	C130	C	-0.006839	0.384375	0.626078
	C131	C	0.976841	0.385687	0.382844
	C132	C	0.863191	0.515722	0.125771
	C133	C	0.105439	0.498994	0.124277
	C134	C	0.107963	0.515684	0.881010
	C135	C	0.864713	0.498984	0.883387
	C136	C	0.107330	0.884643	0.511341
	C137	C	0.105792	0.126770	0.495062
	C138	C	0.862814	0.128148	0.510336
	C139	C	0.863863	0.884943	0.494373
	C140	C	0.493041	0.127533	0.881777
	C141	C	0.477480	0.127507	0.124863
	C142	C	0.493638	0.884774	0.124751
	C143	C	0.476858	0.884259	0.881154
	C144	C	0.364719	0.892054	0.681548
	C145	C	0.606027	0.119115	0.680890
	C146	C	0.607313	0.893148	0.323735
	C147	C	0.363128	0.118515	0.323686
	C148	C	0.665418	0.385815	0.890894
	C149	C	0.664791	0.628824	0.116513
	C150	C	0.308140	0.627058	0.890205
	C151	C	0.305226	0.385044	0.116974
	C152	C	0.871926	0.686859	0.383113
	C153	C	0.098312	0.685528	0.624666
	C154	C	0.871519	0.327855	0.626297
	C155	C	0.097557	0.326241	0.380843
	C156	C	0.871600	0.386651	0.683679
	C157	C	0.098176	0.628049	0.682288
	C158	C	0.872112	0.630144	0.324590
	C159	C	0.097148	0.383906	0.322885
	C160	C	0.365587	0.684468	0.890122
	C161	C	0.606452	0.685721	0.116866
	C162	C	0.607744	0.328058	0.890701
	C163	C	0.364141	0.328285	0.117812
	C164	C	0.665203	0.893288	0.380442
	C165	C	0.663220	0.119387	0.622778
	C166	C	0.306305	0.892675	0.624723
	C167	C	0.305604	0.118606	0.380799
	C168	C	0.864082	0.393849	0.183643
	C169	C	0.104284	0.620734	0.181324
	C170	C	0.106340	0.393322	0.825368
	C171	C	0.865341	0.621627	0.827370
	C172	C	0.164841	0.885151	0.389445
	C173	C	0.162427	0.125851	0.616795
	C174	C	0.808033	0.126688	0.388155
	C175	C	0.806029	0.886068	0.615706
	C176	C	0.371270	0.185366	0.883121
	C177	C	0.599229	0.183814	0.123405
	C178	C	0.371513	0.829279	0.123751
	C179	C	0.598842	0.827648	0.883042
	C180	C	0.372146	0.886170	0.182265
	C181	C	0.599386	0.125851	0.180664
	C182	C	0.371550	0.127598	0.824743
	C183	C	0.598935	0.884650	0.824369
	C184	C	0.864518	0.185713	0.388822
	C185	C	0.103711	0.182863	0.617327
	C186	C	0.106592	0.827707	0.389484
	C187	C	0.865527	0.830314	0.617201
	C188	C	0.164565	0.393408	0.882344
	C189	C	0.161411	0.621102	0.122853
	C190	C	0.806908	0.393545	0.125872
	C191	C	0.807615	0.620983	0.885014
	C192	C	0.386913	0.099044	0.601428
	C193	C	0.583625	0.912691	0.600319
	C194	C	0.583600	0.100055	0.404042
	C195	C	0.389284	0.913102	0.406391
	C196	C	0.583298	0.407670	0.097249
	C197	C	0.583426	0.603456	0.911199
	C198	C	0.385964	0.605277	0.097376
	C199	C	0.387693	0.408296	0.910978
	C200	C	0.077478	0.603344	0.405796
	C201	C	0.891857	0.606250	0.603182
	C202	C	0.077948	0.406764	0.602481
	C203	C	0.893087	0.410426	0.407904
	C204	C	0.886632	0.600445	0.101634
	C205	C	0.082695	0.413813	0.100821
	C206	C	0.084853	0.601132	0.903939
	C207	C	0.888041	0.413650	0.905891
	C208	C	0.083880	0.907983	0.596080
	C209	C	0.082821	0.103548	0.410289
	C210	C	0.885295	0.104665	0.595740
	C211	C	0.887588	0.907854	0.409376
	C212	C	0.577519	0.103966	0.904584
	C213	C	0.392731	0.104882	0.102025
	C214	C	0.578751	0.907445	0.101260
	C215	C	0.392097	0.907795	0.904208
	Zn216	Zn	0.485394	0.005820	0.752370
	Zn217	Zn	0.485766	0.006561	0.253628
	Zn218	Zn	0.735457	0.506434	0.004398
	Zn219	Zn	0.235247	0.507288	0.003756
	Zn220	Zn	-0.014585	0.756536	0.503759
	Zn221	Zn	-0.015612	0.256104	0.503350
	Zn222	Zn	-0.014622	0.507779	0.754067
	Zn223	Zn	-0.015535	0.507371	0.253481
	Zn224	Zn	0.484977	0.755999	0.003776
	Zn225	Zn	0.485728	0.256526	0.003985
	Zn226	Zn	0.734947	0.006273	0.501681
	Zn227	Zn	0.236190	0.006136	0.502627
	N228	N	0.399822	0.968622	0.681443
	N229	N	0.571926	0.042223	0.681758
	N230	N	0.571784	0.969716	0.323856
	N231	N	0.399368	0.042311	0.324654
	N232	N	0.665272	0.420302	0.967648
	N233	N	0.664852	0.593211	0.040110
	N234	N	0.306655	0.592915	0.967089
	N235	N	0.304851	0.419609	0.040115
	N236	N	0.948121	0.685707	0.418457
	N237	N	0.021798	0.686061	0.590119
	N238	N	0.948180	0.326260	0.591269
	N239	N	0.021829	0.327436	0.417747
	N240	N	0.948404	0.420981	0.683750
	N241	N	0.021654	0.593549	0.682926
	N242	N	0.948309	0.593924	0.324286
	N243	N	0.021207	0.420292	0.324036
	N244	N	0.399467	0.685267	0.967034
	N245	N	0.570899	0.684887	0.040838
	N246	N	0.572378	0.327142	0.967244
	N247	N	0.399957	0.328188	0.041465
	N248	N	0.665137	0.969990	0.415227
	N249	N	0.663687	0.042669	0.587722
	N250	N	0.305722	0.969520	0.590087
	N251	N	0.306711	0.042520	0.416896
	N252	N	0.898196	0.470800	0.183563
	N253	N	0.070549	0.543652	0.182424
	N254	N	0.072098	0.470525	0.824241
	N255	N	0.899991	0.544484	0.826141
	N256	N	0.165642	0.919525	0.466252
	N257	N	0.163865	0.091792	0.539776
	N258	N	0.807047	0.091727	0.464843
	N259	N	0.804886	0.919185	0.538322
	N260	N	0.447809	0.185700	0.917738
	N261	N	0.522464	0.184709	0.089232
	N262	N	0.448241	0.828308	0.088889
	N263	N	0.522208	0.827653	0.917894
	N264	N	0.449135	0.919783	0.183194
	N265	N	0.522663	0.091632	0.181738
	N266	N	0.448215	0.092558	0.823598
	N267	N	0.522052	0.919177	0.823108
	N268	N	0.897734	0.186634	0.466180
	N269	N	0.069524	0.183717	0.540563
	N270	N	0.071770	0.827334	0.466309
	N271	N	0.900610	0.829377	0.540633
	N272	N	0.165885	0.470693	0.915990
	N273	N	0.162165	0.544165	0.088200
	N274	N	0.806009	0.470330	0.090855
	N275	N	0.807271	0.543875	0.919188
	O276	O	1.080045	-0.064277	0.941640
	H277	H	1.079806	-0.059848	0.949283
	H278	H	1.072284	-0.049633	0.941437
	O279	O	0.588804	0.381375	0.459915
	H280	H	0.594930	0.394704	0.441426
	H281	H	0.607623	0.375606	0.460815
	O282	O	0.460950	0.547080	0.411716
	H283	H	0.477502	0.542260	0.406262
	H284	H	0.456087	0.557337	0.417743
	O285	O	0.421551	0.525650	0.489765
	H286	H	0.427617	0.522307	0.501461
	H287	H	0.409364	0.538515	0.494803
	O288	O	0.979633	0.116492	-0.070878
	H289	H	0.991366	0.117369	-0.082048
	H290	H	0.984608	0.109445	-0.057382
	O291	O	0.089639	-0.059880	0.882415
	H292	H	0.090893	-0.061291	0.879584
	H293	H	0.082610	-0.059388	0.887939
	O294	O	1.007036	1.021502	0.017151
	H295	H	1.006929	1.023257	0.019395
	H296	H	1.007365	1.017786	0.015904
	O297	O	1.066050	1.050764	-0.029660
	H298	H	1.073207	1.051087	-0.038123
	H299	H	1.054764	1.047748	-0.027809
	O300	O	0.521093	0.408888	0.475224
	H301	H	0.520836	0.422206	0.480384
	H302	H	0.506928	0.410256	0.479384
	O303	O	0.501982	0.481821	0.412701
	H304	H	0.502162	0.476545	0.408535
	H305	H	0.491720	0.482386	0.413810
	O306	O	0.378101	0.638872	0.354533
	H307	H	0.384178	0.651180	0.351990
	H308	H	0.381335	0.656464	0.352161
	O309	O	0.467827	0.336133	0.680726
	H310	H	0.458778	0.321628	0.690095
	H311	H	0.436115	0.331956	0.681167
	O312	O	1.315683	1.375685	0.547483
	H313	H	1.295065	1.358606	0.542799
	H314	H	1.334323	1.372400	0.549246
	O315	O	0.936282	1.053767	-0.007018
	H316	H	0.931763	1.051974	-0.013593
	H317	H	0.938739	1.061199	-0.009299
	O318	O	0.491565	0.402277	0.654482
	H319	H	0.485598	0.400732	0.652247
	H320	H	0.485141	0.403727	0.648689
	O321	O	0.482064	0.609627	0.534913
	H322	H	0.494621	0.617391	0.532611
	H323	H	0.480494	0.630522	0.543848
	O324	O	-0.017565	0.931529	0.960123
	H325	H	-0.014487	0.926277	0.956854
	H326	H	-0.018252	0.934504	0.962111
	O327	O	-0.661085	0.478094	1.463323
	H328	H	-0.669300	0.483198	1.461684
	H329	H	-0.666464	0.493731	1.465115
	O330	O	-0.472394	0.693291	0.599103
	H331	H	-0.474583	0.700106	0.586915
	H332	H	-0.476889	0.683106	0.600278
	O333	O	0.561056	0.449784	0.359864
	H334	H	0.565877	0.440898	0.360510
	H335	H	0.558147	0.458469	0.372690
	O336	O	-0.039275	0.063690	0.002547
	H337	H	-0.036236	0.055867	-0.001945
	H338	H	-0.048849	0.075498	-0.001961
	O339	O	0.403005	0.544111	-0.426211
	H340	H	0.409714	0.543776	-0.433390
	H341	H	0.406949	0.554048	-0.443883
	O342	O	0.545957	0.574282	0.527506
	H343	H	0.535403	0.582269	0.530489
	H344	H	0.546715	0.577147	0.532245
	O345	O	0.414106	0.494755	0.541115
	H346	H	0.415484	0.501492	0.544059
	H347	H	0.416387	0.486628	0.521287
	O348	O	0.522627	0.482314	0.487355
	H349	H	0.530594	0.485250	0.484790
	H350	H	0.503120	0.473350	0.496248
	O351	O	0.544432	0.642713	0.588256
	H352	H	0.541417	0.640505	0.606066
	H353	H	0.534030	0.657877	0.583882
	O354	O	-0.056397	1.045729	-0.040355
	H355	H	-0.059631	1.051791	-0.048992
	H356	H	-0.054862	1.044511	-0.036499
	O357	O	0.312903	0.419241	0.547404
	H358	H	0.311744	0.426659	0.553337
	H359	H	0.314646	0.417085	0.533704
	O360	O	0.960046	0.044467	0.964718
	H361	H	0.965437	0.044106	0.965798
	H362	H	0.955195	0.040403	0.965536
	O363	O	0.292015	0.428466	0.622337
	H364	H	0.294570	0.439818	0.619869
	H365	H	0.286955	0.425526	0.613706
	O366	O	0.634283	0.352100	0.482471
	H367	H	0.635107	0.341429	0.482883
	H368	H	0.629454	0.364345	0.482447
	O369	O	0.996508	-0.005109	-0.034315
	H370	H	0.996466	0.005563	-0.033420
	H371	H	0.989906	0.003371	-0.034136
	O372	O	0.641992	0.477510	0.644564
	H373	H	0.644878	0.485198	0.641882
	H374	H	0.640113	0.474347	0.656483
	O375	O	0.897519	0.083211	0.931972
	H376	H	0.897947	0.090955	0.929018
	H377	H	0.890280	0.088333	0.925798
	O378	O	0.515638	0.612951	0.493871
	H379	H	0.518546	0.621359	0.500834
	H380	H	0.533035	0.605502	0.495320
	O381	O	0.514276	0.492009	0.325807
	H382	H	0.514010	0.493766	0.315231
	H383	H	0.526686	0.479958	0.324990
	O384	O	1.523171	0.651447	0.507759
	H385	H	1.516006	0.638437	0.519446
	H386	H	1.507920	0.650245	0.495674
	O387	O	1.017945	0.012239	0.964656
	H388	H	1.024742	0.020046	0.966555
	H389	H	1.010053	0.011430	0.959864
	O390	O	0.917339	1.058283	-0.097125
	H391	H	0.918286	1.078142	-0.105630
	H392	H	0.913607	1.066131	-0.096243
	O393	O	0.642165	0.545738	0.359171
	H394	H	0.636214	0.530826	0.379662
	H395	H	0.654726	0.549217	0.336304
