data_Molecule from HDF5

_cell_length_a		16.466960
_cell_length_b		16.510583
_cell_length_c		16.531723
_cell_angle_alpha	89.954331
_cell_angle_beta	89.912126
_cell_angle_gamma	89.972124
_symmetry_space_group_name_H-M	'P 1'
_symmetry_Int_Tables_number		1

loop_
	_symmetry_equiv_pos_as_xyz
	x,y,z

loop_
	_atom_site_label
	_atom_site_type_symbol
	_atom_site_fract_x
	_atom_site_fract_y
	_atom_site_fract_z
	H0	H	0.392329	0.850725	0.725356
	H1	H	0.606376	0.162587	0.719546
	H2	H	0.612051	0.851480	0.272666
	H3	H	0.392794	0.161440	0.274810
	H4	H	0.727943	0.398039	0.845132
	H5	H	0.725967	0.614365	0.156599
	H6	H	0.279566	0.612754	0.842981
	H7	H	0.279319	0.399996	0.155909
	H8	H	0.847907	0.732858	0.389774
	H9	H	0.158829	0.731044	0.607355
	H10	H	0.846141	0.283553	0.605691
	H11	H	0.159508	0.284506	0.394220
	H12	H	0.845219	0.400753	0.721776
	H13	H	0.158993	0.613950	0.722461
	H14	H	0.846710	0.615431	0.276297
	H15	H	0.158492	0.398768	0.275996
	H16	H	0.395204	0.729258	0.842997
	H17	H	0.610777	0.731525	0.155304
	H18	H	0.609837	0.283328	0.844190
	H19	H	0.393550	0.281295	0.154805
	H20	H	0.727849	0.851440	0.389356
	H21	H	0.721614	0.163452	0.602024
	H22	H	0.276326	0.850180	0.609036
	H23	H	0.280934	0.163638	0.394194
	H24	H	0.897012	0.348607	0.221447
	H25	H	0.109897	0.663235	0.223646
	H26	H	0.106810	0.349771	0.778452
	H27	H	0.894073	0.664235	0.776421
	H28	H	0.227349	0.898747	0.343552
	H29	H	0.221174	0.109477	0.658076
	H30	H	0.779123	0.114432	0.342865
	H31	H	0.780766	0.901753	0.656125
	H32	H	0.344080	0.226443	0.895431
	H33	H	0.659930	0.227273	0.104024
	H34	H	0.344636	0.783782	0.105951
	H35	H	0.659707	0.782665	0.892484
	H36	H	0.345096	0.897820	0.223110
	H37	H	0.658007	0.114667	0.223410
	H38	H	0.343275	0.108857	0.780133
	H39	H	0.660322	0.899609	0.776860
	H40	H	0.896374	0.229742	0.342917
	H41	H	0.106668	0.226995	0.656776
	H42	H	0.111680	0.782109	0.343568
	H43	H	0.895198	0.784296	0.656256
	H44	H	0.221847	0.349036	0.896098
	H45	H	0.224924	0.663910	0.106735
	H46	H	0.784032	0.346932	0.102263
	H47	H	0.779138	0.663525	0.894215
	H48	H	0.415577	0.119442	0.596055
	H49	H	0.593006	0.892511	0.587265
	H50	H	0.598191	0.120287	0.412463
	H51	H	0.419968	0.893684	0.406573
	H52	H	0.586219	0.423236	0.108811
	H53	H	0.590603	0.598645	0.887134
	H54	H	0.415662	0.591404	0.109472
	H55	H	0.418601	0.416754	0.888857
	H56	H	0.111296	0.586376	0.414621
	H57	H	0.888190	0.590987	0.596571
	H58	H	0.113935	0.416989	0.585049
	H59	H	0.887261	0.415806	0.406471
	H60	H	0.114699	0.421317	0.589875
	H61	H	0.888360	0.604015	0.584745
	H62	H	0.116438	0.594209	0.405978
	H63	H	0.889331	0.414256	0.416152
	H64	H	0.416281	0.598115	0.112087
	H65	H	0.593879	0.589375	0.889053
	H66	H	0.587370	0.409973	0.113046
	H67	H	0.410311	0.412340	0.884789
	H68	H	0.585809	0.119629	0.402486
	H69	H	0.590693	0.892175	0.589340
	H70	H	0.418676	0.114666	0.584066
	H71	H	0.417721	0.898311	0.418636
	H72	H	0.918019	0.617283	0.088119
	H73	H	0.088418	0.396718	0.085391
	H74	H	0.090346	0.619382	0.911820
	H75	H	0.907995	0.392962	0.911990
	H76	H	0.091755	0.917451	0.612395
	H77	H	0.088900	0.097816	0.388135
	H78	H	0.910218	0.083591	0.608325
	H79	H	0.916254	0.922993	0.389620
	H80	H	0.615808	0.094124	0.908465
	H81	H	0.386798	0.094487	0.095316
	H82	H	0.616256	0.913815	0.087209
	H83	H	0.390292	0.914970	0.912171
	H84	H	0.610122	0.920755	0.078104
	H85	H	0.390031	0.099966	0.080229
	H86	H	0.616417	0.097142	0.907079
	H87	H	0.391746	0.920304	0.912725
	H88	H	0.924401	0.100064	0.608472
	H89	H	0.094502	0.097811	0.385135
	H90	H	0.088960	0.922636	0.608945
	H91	H	0.919660	0.918263	0.388862
	H92	H	0.091522	0.619717	0.910451
	H93	H	0.094469	0.393878	0.088289
	H94	H	0.912382	0.618390	0.085948
	H95	H	0.917786	0.394254	0.903863
	H96	H	0.406544	0.119049	0.586505
	H97	H	0.590201	0.893615	0.586793
	H98	H	0.584115	0.114091	0.417333
	H99	H	0.408336	0.892102	0.411557
	H100	H	0.598146	0.418242	0.114206
	H101	H	0.584542	0.591899	0.891008
	H102	H	0.409654	0.594730	0.112936
	H103	H	0.409504	0.421970	0.887255
	H104	H	0.114486	0.598613	0.418070
	H105	H	0.894909	0.588141	0.580418
	H106	H	0.116957	0.415077	0.590414
	H107	H	0.891711	0.423454	0.411610
	H108	H	0.913390	0.619363	0.092030
	H109	H	0.088276	0.394429	0.092572
	H110	H	0.089673	0.619172	0.910451
	H111	H	0.919040	0.398338	0.915943
	H112	H	0.086466	0.917583	0.610006
	H113	H	0.092558	0.092317	0.387453
	H114	H	0.904174	0.102439	0.616740
	H115	H	0.914301	0.918293	0.386869
	H116	H	0.614994	0.096544	0.910471
	H117	H	0.394075	0.084747	0.084593
	H118	H	0.612706	0.925654	0.090423
	H119	H	0.388694	0.918256	0.907677
	C120	C	0.379994	0.014132	0.621838
	C121	C	0.622969	0.996866	0.619714
	C122	C	0.623545	0.015026	0.376841
	C123	C	0.381259	0.997686	0.378815
	C124	C	0.623994	0.384717	0.008614
	C125	C	0.623501	0.627339	0.991837
	C126	C	0.380859	0.627488	0.007931
	C127	C	0.380015	0.384410	0.990587
	C128	C	0.011233	0.627637	0.378711
	C129	C	0.994073	0.627739	0.620418
	C130	C	0.010879	0.385427	0.620811
	C131	C	0.993575	0.385163	0.378729
	C132	C	0.881672	0.514311	0.121266
	C133	C	0.123966	0.498472	0.121732
	C134	C	0.123080	0.515405	0.878613
	C135	C	0.880514	0.498441	0.877419
	C136	C	0.124182	0.884870	0.507937
	C137	C	0.123745	0.127630	0.491008
	C138	C	0.880543	0.128447	0.507724
	C139	C	0.882169	0.885915	0.491129
	C140	C	0.510954	0.127454	0.877243
	C141	C	0.493756	0.126839	0.120095
	C142	C	0.510119	0.885688	0.119919
	C143	C	0.494124	0.884408	0.877784
	C144	C	0.375472	0.896904	0.683946
	C145	C	0.624884	0.115473	0.679589
	C146	C	0.629041	0.898281	0.313637
	C147	C	0.376199	0.114930	0.316382
	C148	C	0.686527	0.380752	0.891827
	C149	C	0.685378	0.631552	0.109217
	C150	C	0.319752	0.630590	0.890193
	C151	C	0.319437	0.381740	0.108775
	C152	C	0.894564	0.691352	0.373239
	C153	C	0.112094	0.689656	0.624348
	C154	C	0.892919	0.324244	0.623992
	C155	C	0.112160	0.324500	0.375686
	C156	C	0.892435	0.382630	0.681438
	C157	C	0.112098	0.631692	0.681955
	C158	C	0.893963	0.632694	0.316623
	C159	C	0.111814	0.381652	0.317280
	C160	C	0.377537	0.688553	0.890019
	C161	C	0.627901	0.689968	0.108818
	C162	C	0.627900	0.323654	0.891144
	C163	C	0.376327	0.322902	0.108169
	C164	C	0.686609	0.898131	0.371852
	C165	C	0.681950	0.115895	0.621003
	C166	C	0.317750	0.897051	0.625909
	C167	C	0.320424	0.115999	0.375919
	C168	C	0.878692	0.395880	0.181602
	C169	C	0.127587	0.616127	0.183135
	C170	C	0.125337	0.396846	0.818775
	C171	C	0.876748	0.616703	0.816824
	C172	C	0.186459	0.881053	0.390463
	C173	C	0.182016	0.128480	0.610265
	C174	C	0.819814	0.132041	0.389800
	C175	C	0.820700	0.883334	0.608993
	C176	C	0.391569	0.186610	0.876273
	C177	C	0.612307	0.187691	0.122615
	C178	C	0.391908	0.823940	0.123902
	C179	C	0.612606	0.823445	0.874905
	C180	C	0.392285	0.880836	0.182321
	C181	C	0.611753	0.130979	0.181514
	C182	C	0.391378	0.128071	0.819057
	C183	C	0.612860	0.881262	0.817041
	C184	C	0.878301	0.189349	0.389706
	C185	C	0.125035	0.187024	0.609639
	C186	C	0.129090	0.822686	0.390618
	C187	C	0.877930	0.824858	0.608983
	C188	C	0.182284	0.396297	0.877388
	C189	C	0.184813	0.616465	0.124644
	C190	C	0.822763	0.394924	0.122068
	C191	C	0.819305	0.616562	0.875411
	C192	C	0.406211	0.096346	0.596098
	C193	C	0.598299	0.914382	0.594796
	C194	C	0.596769	0.096584	0.403266
	C195	C	0.407863	0.915880	0.404647
	C196	C	0.597866	0.410111	0.090831
	C197	C	0.597107	0.601005	0.910187
	C198	C	0.406617	0.602061	0.089941
	C199	C	0.405623	0.409826	0.908302
	C200	C	0.092945	0.600583	0.405433
	C201	C	0.911967	0.601944	0.594416
	C202	C	0.093658	0.410509	0.595648
	C203	C	0.910991	0.410575	0.404100
	C204	C	0.907177	0.596797	0.095959
	C205	C	0.098027	0.416390	0.096055
	C206	C	0.097853	0.597813	0.903662
	C207	C	0.907216	0.416485	0.903127
	C208	C	0.096972	0.911412	0.589217
	C209	C	0.099057	0.103077	0.408430
	C210	C	0.905731	0.102672	0.589676
	C211	C	0.908924	0.912246	0.409681
	C212	C	0.594092	0.103139	0.901782
	C213	C	0.411549	0.100783	0.094029
	C214	C	0.591584	0.912360	0.093068
	C215	C	0.411791	0.910353	0.903473
	Zn216	Zn	0.502326	0.005267	0.749332
	Zn217	Zn	0.501689	0.006243	0.248851
	Zn218	Zn	0.752951	0.506286	0.000524
	Zn219	Zn	0.251724	0.506687	-0.000331
	Zn220	Zn	0.002599	0.756521	0.499829
	Zn221	Zn	0.002641	0.256442	0.499584
	Zn222	Zn	0.002446	0.507051	0.749348
	Zn223	Zn	0.002343	0.506160	0.250213
	Zn224	Zn	0.502129	0.756774	-0.000406
	Zn225	Zn	0.501954	0.255812	-0.000737
	Zn226	Zn	0.752323	0.006094	0.498298
	Zn227	Zn	0.252098	0.006829	0.499777
	N228	N	0.413766	0.970722	0.681249
	N229	N	0.589049	0.040350	0.679009
	N230	N	0.590625	0.971996	0.316773
	N231	N	0.413482	0.040475	0.318110
	N232	N	0.683957	0.418144	0.965904
	N233	N	0.682843	0.593236	0.035383
	N234	N	0.321737	0.593276	0.964419
	N235	N	0.321516	0.419243	0.034625
	N236	N	0.968749	0.688452	0.411060
	N237	N	0.037652	0.687473	0.586999
	N238	N	0.967620	0.325957	0.587043
	N239	N	0.037757	0.326699	0.413243
	N240	N	0.966886	0.420034	0.679588
	N241	N	0.037731	0.594046	0.679658
	N242	N	0.967529	0.593607	0.320006
	N243	N	0.037014	0.418565	0.318982
	N244	N	0.414892	0.686787	0.964220
	N245	N	0.590248	0.687570	0.034780
	N246	N	0.589508	0.326002	0.964903
	N247	N	0.413507	0.324570	0.033730
	N248	N	0.683378	0.971703	0.410457
	N249	N	0.681050	0.041201	0.584461
	N250	N	0.320622	0.970942	0.587818
	N251	N	0.323258	0.041980	0.413950
	N252	N	0.914405	0.471217	0.181351
	N253	N	0.090368	0.541701	0.181441
	N254	N	0.089566	0.471919	0.819093
	N255	N	0.913680	0.542099	0.817830
	N256	N	0.183690	0.918763	0.464423
	N257	N	0.181431	0.092400	0.535430
	N258	N	0.821140	0.094686	0.463982
	N259	N	0.823016	0.920428	0.534556
	N260	N	0.467193	0.186814	0.911377
	N261	N	0.537828	0.185251	0.085169
	N262	N	0.466221	0.826412	0.086086
	N263	N	0.537657	0.825184	0.911729
	N264	N	0.466713	0.918556	0.179952
	N265	N	0.536908	0.094163	0.180185
	N266	N	0.466749	0.092243	0.819527
	N267	N	0.538074	0.918193	0.818450
	N268	N	0.915392	0.187253	0.464057
	N269	N	0.089669	0.186734	0.534409
	N270	N	0.090994	0.825017	0.464660
	N271	N	0.915228	0.826062	0.534635
	N272	N	0.181164	0.471226	0.913745
	N273	N	0.182781	0.542206	0.087379
	N274	N	0.824147	0.469835	0.085588
	N275	N	0.821388	0.541947	0.912276
	O276	O	0.477602	0.611908	0.450654
	H277	H	0.483179	0.611356	0.437616
	H278	H	0.479646	0.594234	0.438247
	O279	O	0.427152	0.497315	0.553225
	H280	H	0.429403	0.485450	0.549677
	H281	H	0.433664	0.495159	0.549446
	O282	O	1.097262	0.958843	0.215284
	H283	H	1.069368	0.989637	0.211212
	H284	H	1.127893	0.971279	0.220861
	O285	O	0.290022	0.294977	0.532664
	H286	H	0.288595	0.305943	0.522230
	H287	H	0.273926	0.279152	0.527461
	O288	O	-0.310870	0.315765	-0.312513
	H289	H	-0.327014	0.338339	-0.319086
	H290	H	-0.333648	0.323898	-0.335990
	O291	O	1.450274	0.589127	0.542185
	H292	H	1.458060	0.588480	0.534414
	H293	H	1.427786	0.580807	0.542366
	O294	O	0.151201	1.201489	0.197968
	H295	H	0.145790	1.204703	0.174165
	H296	H	0.153946	1.210585	0.211875
	O297	O	0.286545	0.523368	0.290615
	H298	H	0.270516	0.527356	0.272665
	H299	H	0.294623	0.538894	0.294773
	O300	O	0.527206	0.722058	0.713158
	H301	H	0.510302	0.728023	0.713790
	H302	H	0.516003	0.732416	0.722144
	O303	O	0.709080	0.670808	0.482168
	H304	H	0.721238	0.687499	0.488692
	H305	H	0.705074	0.654965	0.501779
	O306	O	0.103720	1.071887	0.844542
	H307	H	0.091926	1.090908	0.842043
	H308	H	0.097061	1.070228	0.864158
	O309	O	0.526525	0.474490	0.716476
	H310	H	0.512539	0.485716	0.709472
	H311	H	0.535313	0.485797	0.716544
	O312	O	0.353268	0.373497	0.442721
	H313	H	0.354499	0.383146	0.427797
	H314	H	0.364323	0.377885	0.442379
	O315	O	0.019260	0.209676	1.114976
	H316	H	0.027350	0.207331	1.119105
	H317	H	0.016257	0.224640	1.112992
	O318	O	-0.162491	1.057146	0.101460
	H319	H	-0.159015	1.052016	0.082984
	H320	H	-0.163484	1.069027	0.091354
	O321	O	0.711417	0.549959	0.301813
	H322	H	0.727384	0.570200	0.317282
	H323	H	0.728240	0.553211	0.286973
	O324	O	0.832605	0.104835	0.827071
	H325	H	0.827647	0.096503	0.821317
	H326	H	0.844149	0.076646	0.826704
	O327	O	0.958916	-0.205440	0.965200
	H328	H	0.958196	-0.208448	0.950515
	H329	H	0.955194	-0.199124	0.969646
	O330	O	1.089697	-0.134691	0.046595
	H331	H	1.071604	-0.135273	0.034459
	H332	H	1.077517	-0.132308	0.064295
	O333	O	0.717590	0.462144	0.552120
	H334	H	0.713625	0.466173	0.558272
	H335	H	0.719935	0.457891	0.576359
	O336	O	0.816857	0.209674	0.797900
	H337	H	0.826678	0.187956	0.797496
	H338	H	0.790959	0.235218	0.766048
	O339	O	0.308467	0.307883	0.699311
	H340	H	0.312309	0.318123	0.674276
	H341	H	0.305810	0.308695	0.703054
	O342	O	0.555685	0.321258	0.584247
	H343	H	0.538847	0.334382	0.561557
	H344	H	0.532439	0.313776	0.616459
	O345	O	0.060731	0.144071	-0.200966
	H346	H	0.049829	0.156655	-0.205544
	H347	H	0.047206	0.131626	-0.188526
	O348	O	0.982032	-0.206004	1.202337
	H349	H	0.979813	-0.223268	1.226077
	H350	H	1.006008	-0.187011	1.202299
	O351	O	0.890374	1.129776	-0.052127
	H352	H	0.889149	1.126949	-0.059545
	H353	H	0.876183	1.138056	-0.071662
	O354	O	0.411232	0.403291	0.323278
	H355	H	0.415709	0.417346	0.316576
	H356	H	0.413994	0.403939	0.315936
	O357	O	1.211100	0.797524	0.972992
	H358	H	1.227543	0.787150	0.984922
	H359	H	1.189450	0.785600	0.976206
	O360	O	0.372025	0.664252	0.314153
	H361	H	0.402657	0.675644	0.303914
	H362	H	0.360889	0.657914	0.329938
	O363	O	0.406130	0.410057	0.385056
	H364	H	0.414488	0.398908	0.383940
	H365	H	0.412336	0.417731	0.388147
	O366	O	1.158565	0.219914	1.026739
	H367	H	1.140051	0.214048	1.028250
	H368	H	1.170086	0.244428	1.024871
	O369	O	0.288097	0.720237	0.454161
	H370	H	0.253550	0.748840	0.446993
	H371	H	0.302348	0.712584	0.458459
	O372	O	0.385550	0.658838	0.593196
	H373	H	0.376155	0.664374	0.578602
	H374	H	0.385168	0.652589	0.596256
	O375	O	-0.147214	0.968324	0.832409
	H376	H	-0.137399	0.960592	0.809713
	H377	H	-0.139778	0.974311	0.838940
	O378	O	0.521286	0.294871	0.283086
	H379	H	0.532429	0.285740	0.273773
	H380	H	0.558345	0.289778	0.279320
	O381	O	1.192829	-0.183931	-0.194450
	H382	H	1.190870	-0.190857	-0.153418
	H383	H	1.201722	-0.150497	-0.203379
	O384	O	0.028404	-0.209314	0.784901
	H385	H	0.023536	-0.221358	0.771727
	H386	H	0.058637	-0.210782	0.778041
	O387	O	-0.112740	0.844041	1.159548
	H388	H	-0.115062	0.887558	1.167534
	H389	H	-0.085885	0.840141	1.159244
	O390	O	0.067245	0.217504	0.921200
	H391	H	0.058693	0.215702	0.922865
	H392	H	0.067234	0.211740	0.919132
	O393	O	0.791244	0.985640	0.212653
	H394	H	0.763522	0.981812	0.229048
	H395	H	0.782208	0.999930	0.190971
	O396	O	0.474038	0.288523	0.721425
	H397	H	0.458455	0.279715	0.741344
	H398	H	0.474050	0.292215	0.734961
	O399	O	0.571795	0.366995	0.394390
	H400	H	0.570081	0.370883	0.371237
	H401	H	0.557365	0.368770	0.397267
	O402	O	0.108844	0.087327	1.015577
	H403	H	0.109809	0.089521	1.024807
	H404	H	0.117793	0.076865	1.021900
	O405	O	0.202688	0.005798	0.049135
	H406	H	0.201156	0.002960	0.042758
	H407	H	0.197165	-0.001335	0.066550
	O408	O	0.939360	0.986795	0.982194
	H409	H	0.931443	0.984590	0.987486
	H410	H	0.948807	0.980429	0.985635
	O411	O	0.633301	0.634571	0.634316
	H412	H	0.635549	0.647105	0.600505
	H413	H	0.601899	0.644319	0.640807
	O414	O	0.723731	0.530702	0.723692
	H415	H	0.761374	0.535255	0.763280
	H416	H	0.701083	0.552876	0.715029
	O417	O	0.437465	0.667805	0.611082
	H418	H	0.433922	0.681195	0.624952
	H419	H	0.427298	0.649457	0.614591
	O420	O	0.709369	0.302794	0.480387
	H421	H	0.705982	0.300994	0.487039
	H422	H	0.705167	0.293546	0.492423
	O423	O	-0.319868	0.744712	0.323382
	H424	H	-0.318876	0.751384	0.339396
	H425	H	-0.311137	0.751308	0.307972
	O426	O	0.970319	1.057250	1.188569
	H427	H	0.956906	1.070705	1.186993
	H428	H	0.955733	1.067160	1.186832
	O429	O	0.213376	0.070600	0.211645
	H430	H	0.211502	0.077013	0.206152
	H431	H	0.234161	0.089662	0.226647
	O432	O	0.650333	0.710555	0.553601
	H433	H	0.632081	0.709594	0.547145
	H434	H	0.655814	0.698501	0.553438
	O435	O	-0.127097	0.194869	-0.055257
	H436	H	-0.136728	0.191832	-0.063374
	H437	H	-0.140792	0.206274	-0.058780
	O438	O	1.055194	-0.039251	-0.136716
	H439	H	1.060894	-0.017787	-0.131596
	H440	H	1.071666	-0.060568	-0.142526
	O441	O	0.288204	0.471952	0.711600
	H442	H	0.265495	0.471079	0.724301
	H443	H	0.286581	0.462967	0.701707
	O444	O	0.115683	0.985014	0.881886
	H445	H	0.103576	0.990443	0.893536
	H446	H	0.114260	0.986610	0.877373
	O447	O	0.480928	0.664101	0.286017
	H448	H	0.489438	0.673342	0.268476
	H449	H	0.490928	0.654368	0.277648
	O450	O	0.594774	0.529326	0.507604
	H451	H	0.609404	0.523493	0.517876
	H452	H	0.595285	0.534234	0.518898
	O453	O	0.683392	0.317630	0.313159
	H454	H	0.695687	0.341226	0.322336
	H455	H	0.694441	0.335003	0.336541
	O456	O	0.793265	-0.199693	0.027855
	H457	H	0.783532	-0.210592	0.034097
	H458	H	0.793485	-0.206816	0.036122
	O459	O	0.600921	0.563333	0.319311
	H460	H	0.608530	0.553879	0.318660
	H461	H	0.619117	0.558283	0.324198
	O462	O	0.293331	0.547150	0.521488
	H463	H	0.295395	0.563534	0.522574
	H464	H	0.289811	0.539742	0.519206
	O465	O	0.839631	-0.036669	-0.038295
	H466	H	0.845226	-0.042647	-0.050790
	H467	H	0.846033	-0.046493	-0.030697
