data_Molecule from HDF5

_cell_length_a		16.494135
_cell_length_b		16.548642
_cell_length_c		16.446698
_cell_angle_alpha	90.028067
_cell_angle_beta	90.051407
_cell_angle_gamma	90.007858
_symmetry_space_group_name_H-M	'P 1'
_symmetry_Int_Tables_number		1

loop_
	_symmetry_equiv_pos_as_xyz
	x,y,z

loop_
	_atom_site_label
	_atom_site_type_symbol
	_atom_site_fract_x
	_atom_site_fract_y
	_atom_site_fract_z
	H0	H	0.394072	0.858646	0.715428
	H1	H	0.608198	0.170691	0.721873
	H2	H	0.605399	0.858483	0.271277
	H3	H	0.388877	0.170289	0.269668
	H4	H	0.719706	0.408356	0.838580
	H5	H	0.724831	0.625411	0.152218
	H6	H	0.281343	0.616576	0.837554
	H7	H	0.275274	0.407355	0.153509
	H8	H	0.840903	0.740480	0.384408
	H9	H	0.154640	0.735187	0.599575
	H10	H	0.840049	0.291183	0.602180
	H11	H	0.152297	0.290396	0.384765
	H12	H	0.839458	0.408457	0.717665
	H13	H	0.155352	0.617226	0.713482
	H14	H	0.840936	0.624007	0.269479
	H15	H	0.153643	0.409755	0.273292
	H16	H	0.393631	0.735885	0.839216
	H17	H	0.610255	0.742098	0.152003
	H18	H	0.607353	0.290229	0.840161
	H19	H	0.389524	0.290043	0.152565
	H20	H	0.723874	0.859806	0.384037
	H21	H	0.724425	0.170036	0.605682
	H22	H	0.276637	0.858506	0.599022
	H23	H	0.271590	0.170121	0.384072
	H24	H	0.887367	0.359852	0.220919
	H25	H	0.106137	0.670830	0.219903
	H26	H	0.100284	0.357760	0.775578
	H27	H	0.891210	0.672727	0.772786
	H28	H	0.219589	0.906815	0.336622
	H29	H	0.216818	0.118728	0.651106
	H30	H	0.771538	0.123616	0.337185
	H31	H	0.777174	0.911696	0.652560
	H32	H	0.342737	0.236793	0.889838
	H33	H	0.653799	0.241245	0.108535
	H34	H	0.341957	0.792189	0.103290
	H35	H	0.655616	0.791843	0.888255
	H36	H	0.340915	0.908851	0.217265
	H37	H	0.653681	0.124901	0.223515
	H38	H	0.341431	0.117740	0.776964
	H39	H	0.656057	0.910366	0.774293
	H40	H	0.885802	0.240991	0.337449
	H41	H	0.101850	0.236018	0.650360
	H42	H	0.104171	0.790694	0.338215
	H43	H	0.891825	0.795230	0.652626
	H44	H	0.219088	0.357971	0.891388
	H45	H	0.222156	0.670569	0.103650
	H46	H	0.769979	0.360895	0.106611
	H47	H	0.772111	0.670907	0.886636
	H48	H	0.409753	0.128146	0.584901
	H49	H	0.589822	0.904578	0.578886
	H50	H	0.587477	0.127979	0.406097
	H51	H	0.410544	0.905497	0.410113
	H52	H	0.585511	0.426159	0.108895
	H53	H	0.595838	0.599075	0.882443
	H54	H	0.410135	0.604306	0.110459
	H55	H	0.398136	0.422645	0.878947
	H56	H	0.108600	0.605125	0.407086
	H57	H	0.880779	0.604711	0.589576
	H58	H	0.108859	0.425279	0.584000
	H59	H	0.887073	0.427599	0.415217
	H60	H	0.108697	0.425269	0.584222
	H61	H	0.882628	0.610906	0.581714
	H62	H	0.107228	0.602673	0.410459
	H63	H	0.887217	0.434547	0.406122
	H64	H	0.410306	0.602627	0.109825
	H65	H	0.576706	0.596619	0.890489
	H66	H	0.586044	0.432061	0.107485
	H67	H	0.411829	0.435195	0.887446
	H68	H	0.578043	0.123859	0.407453
	H69	H	0.586505	0.903021	0.587531
	H70	H	0.406141	0.128628	0.582200
	H71	H	0.405620	0.902956	0.408330
	H72	H	0.917296	0.622634	0.079704
	H73	H	0.083935	0.403430	0.085772
	H74	H	0.089609	0.628529	0.906399
	H75	H	0.906243	0.405042	0.910535
	H76	H	0.085402	0.925711	0.607191
	H77	H	0.081673	0.101321	0.381360
	H78	H	0.897314	0.096449	0.606605
	H79	H	0.914660	0.930269	0.384574
	H80	H	0.615020	0.106249	0.904889
	H81	H	0.385278	0.104453	0.086386
	H82	H	0.608280	0.932236	0.081503
	H83	H	0.384887	0.920798	0.907476
	H84	H	0.610836	0.928357	0.084652
	H85	H	0.388273	0.105450	0.076897
	H86	H	0.610312	0.104751	0.914317
	H87	H	0.387600	0.927000	0.908782
	H88	H	0.922246	0.095886	0.598408
	H89	H	0.083309	0.104854	0.379844
	H90	H	0.087685	0.923978	0.607886
	H91	H	0.911739	0.923533	0.380981
	H92	H	0.091707	0.629695	0.904678
	H93	H	0.085964	0.404247	0.080341
	H94	H	0.909997	0.623914	0.075528
	H95	H	0.906812	0.401976	0.903269
	H96	H	0.405484	0.129369	0.586987
	H97	H	0.580705	0.906139	0.581175
	H98	H	0.584983	0.123194	0.415090
	H99	H	0.410491	0.903342	0.403959
	H100	H	0.580767	0.428993	0.105988
	H101	H	0.582405	0.614501	0.881895
	H102	H	0.411554	0.604083	0.109515
	H103	H	0.417008	0.416034	0.883255
	H104	H	0.108155	0.600932	0.406761
	H105	H	0.885417	0.601333	0.581097
	H106	H	0.109180	0.425101	0.583763
	H107	H	0.882241	0.424489	0.405184
	H108	H	0.910552	0.626987	0.083611
	H109	H	0.089778	0.401631	0.083934
	H110	H	0.089378	0.629201	0.903751
	H111	H	0.912677	0.405417	0.906762
	H112	H	0.088075	0.926588	0.607123
	H113	H	0.085733	0.101249	0.380491
	H114	H	0.912506	0.117552	0.610018
	H115	H	0.906670	0.929790	0.381530
	H116	H	0.611031	0.096757	0.907422
	H117	H	0.390369	0.097733	0.081247
	H118	H	0.609062	0.926712	0.079699
	H119	H	0.385189	0.925338	0.902632
	C120	C	0.375731	0.024545	0.616329
	C121	C	0.619365	1.007428	0.616545
	C122	C	0.618780	0.022887	0.374257
	C123	C	0.375182	1.006469	0.372781
	C124	C	0.618689	0.394587	0.004272
	C125	C	0.620109	0.637798	0.987993
	C126	C	0.378614	0.635465	0.005404
	C127	C	0.376080	0.392108	0.987349
	C128	C	0.005157	0.637137	0.373440
	C129	C	0.987772	0.636585	0.616127
	C130	C	0.005421	0.392355	0.617120
	C131	C	0.988272	0.394256	0.374119
	C132	C	0.876715	0.522880	0.115668
	C133	C	0.119576	0.506446	0.116979
	C134	C	0.120036	0.524135	0.873981
	C135	C	0.875515	0.507319	0.873396
	C136	C	0.119432	0.892610	0.503161
	C137	C	0.116844	0.135273	0.484662
	C138	C	0.875501	0.137051	0.501936
	C139	C	0.877580	0.894943	0.486146
	C140	C	0.508275	0.135482	0.875528
	C141	C	0.490370	0.136887	0.117735
	C142	C	0.506586	0.894561	0.116091
	C143	C	0.490056	0.892675	0.873761
	C144	C	0.374785	0.906038	0.675868
	C145	C	0.624939	0.123938	0.680255
	C146	C	0.623312	0.905792	0.311478
	C147	C	0.371413	0.123664	0.310347
	C148	C	0.679944	0.390495	0.886109
	C149	C	0.683858	0.642579	0.105228
	C150	C	0.319982	0.636200	0.885673
	C151	C	0.315368	0.389445	0.105834
	C152	C	0.887853	0.699464	0.368064
	C153	C	0.106984	0.695456	0.617908
	C154	C	0.887170	0.331736	0.619968
	C155	C	0.105483	0.331928	0.368789
	C156	C	0.886830	0.390240	0.677347
	C157	C	0.107423	0.636646	0.674537
	C158	C	0.887970	0.641742	0.310332
	C159	C	0.106353	0.391230	0.312986
	C160	C	0.376157	0.695341	0.886345
	C161	C	0.626503	0.700589	0.105299
	C162	C	0.623779	0.331691	0.886987
	C163	C	0.372663	0.331285	0.105635
	C164	C	0.682315	0.906297	0.368060
	C165	C	0.682666	0.123881	0.622086
	C166	C	0.316526	0.905877	0.617781
	C167	C	0.312449	0.123175	0.366964
	C168	C	0.871219	0.406486	0.179339
	C169	C	0.123355	0.623863	0.178718
	C170	C	0.120002	0.405155	0.814991
	C171	C	0.872776	0.625427	0.812776
	C172	C	0.179414	0.889596	0.384315
	C173	C	0.177110	0.137649	0.603458
	C174	C	0.812444	0.141298	0.384471
	C175	C	0.817032	0.893012	0.605038
	C176	C	0.390063	0.196134	0.872215
	C177	C	0.607076	0.199959	0.124500
	C178	C	0.388989	0.832556	0.120380
	C179	C	0.608391	0.832482	0.870964
	C180	C	0.388630	0.890812	0.177388
	C181	C	0.606853	0.141996	0.182124
	C182	C	0.389223	0.136874	0.816046
	C183	C	0.608753	0.891373	0.814067
	C184	C	0.869643	0.199576	0.384222
	C185	C	0.119897	0.195845	0.603099
	C186	C	0.122093	0.831405	0.385100
	C187	C	0.873959	0.834861	0.604982
	C188	C	0.178834	0.405120	0.872670
	C189	C	0.181377	0.623715	0.120980
	C190	C	0.812147	0.407164	0.122597
	C191	C	0.813594	0.624474	0.869663
	C192	C	0.400136	0.107053	0.591623
	C193	C	0.592981	0.926003	0.589973
	C194	C	0.591582	0.103719	0.401629
	C195	C	0.401349	0.925381	0.399568
	C196	C	0.591867	0.421451	0.085986
	C197	C	0.592923	0.610931	0.906427
	C198	C	0.403346	0.610769	0.088351
	C199	C	0.401729	0.417341	0.904804
	C200	C	0.086823	0.610514	0.400475
	C201	C	0.904649	0.612374	0.591293
	C202	C	0.087324	0.417832	0.591354
	C203	C	0.906817	0.421009	0.401164
	C204	C	0.904766	0.603518	0.087725
	C205	C	0.093754	0.424426	0.090908
	C206	C	0.096743	0.607364	0.897987
	C207	C	0.901314	0.425445	0.899449
	C208	C	0.094271	0.918127	0.585961
	C209	C	0.091049	0.109758	0.402002
	C210	C	0.902744	0.110756	0.583818
	C211	C	0.903301	0.920506	0.403813
	C212	C	0.590706	0.110010	0.901555
	C213	C	0.409252	0.109953	0.089795
	C214	C	0.588370	0.921306	0.089525
	C215	C	0.407491	0.917212	0.899160
	Zn216	Zn	0.498900	0.015229	0.745317
	Zn217	Zn	0.497704	0.015233	0.245232
	Zn218	Zn	0.746992	0.515178	-0.004275
	Zn219	Zn	0.249035	0.515019	-0.003867
	Zn220	Zn	-0.003690	0.765252	0.494677
	Zn221	Zn	-0.003712	0.265048	0.493466
	Zn222	Zn	-0.002968	0.515483	0.744860
	Zn223	Zn	-0.002909	0.515409	0.245439
	Zn224	Zn	0.498576	0.765130	-0.003367
	Zn225	Zn	0.499296	0.265130	-0.003545
	Zn226	Zn	0.747951	0.014897	0.494353
	Zn227	Zn	0.246531	0.015214	0.493653
	N228	N	0.410819	0.980860	0.675236
	N229	N	0.586125	0.050534	0.676761
	N230	N	0.584486	0.979292	0.315077
	N231	N	0.409642	0.050032	0.313629
	N232	N	0.677022	0.428805	0.960211
	N233	N	0.680199	0.604371	0.031069
	N234	N	0.321172	0.599710	0.960695
	N235	N	0.317210	0.426498	0.031175
	N236	N	0.961873	0.696708	0.406491
	N237	N	0.031330	0.695780	0.582603
	N238	N	0.961935	0.332719	0.583291
	N239	N	0.030780	0.333430	0.405663
	N240	N	0.961342	0.427233	0.675905
	N241	N	0.032055	0.601077	0.673900
	N242	N	0.961952	0.603672	0.313457
	N243	N	0.032358	0.429127	0.315969
	N244	N	0.411639	0.695271	0.961944
	N245	N	0.587717	0.697743	0.031409
	N246	N	0.586509	0.333877	0.961724
	N247	N	0.409756	0.332716	0.030856
	N248	N	0.679789	0.980261	0.406077
	N249	N	0.679305	0.050510	0.583027
	N250	N	0.316624	0.980763	0.581632
	N251	N	0.314526	0.049324	0.404979
	N252	N	0.910970	0.479544	0.175017
	N253	N	0.085519	0.549940	0.176361
	N254	N	0.084170	0.480214	0.815638
	N255	N	0.910394	0.551518	0.814769
	N256	N	0.177962	0.926873	0.458974
	N257	N	0.175486	0.100931	0.528649
	N258	N	0.815823	0.103395	0.458707
	N259	N	0.819161	0.929800	0.530098
	N260	N	0.465156	0.195389	0.908550
	N261	N	0.533573	0.196804	0.085089
	N262	N	0.463658	0.834622	0.083213
	N263	N	0.533479	0.833099	0.907452
	N264	N	0.462713	0.928672	0.174899
	N265	N	0.533071	0.103694	0.178183
	N266	N	0.463730	0.099813	0.818005
	N267	N	0.534049	0.927842	0.815421
	N268	N	0.907972	0.197214	0.458496
	N269	N	0.083531	0.194804	0.528001
	N270	N	0.085369	0.833219	0.460018
	N271	N	0.910726	0.835813	0.529989
	N272	N	0.179121	0.480174	0.908365
	N273	N	0.179217	0.549528	0.083321
	N274	N	0.815628	0.480413	0.083786
	N275	N	0.815264	0.550035	0.906653
	O276	O	0.175416	0.197427	0.182662
	H277	H	0.188483	0.208137	0.130053
	H278	H	0.194769	0.163251	0.194811
	O279	O	0.474276	0.732038	0.275504
	H280	H	0.467789	0.763812	0.250544
	H281	H	0.435342	0.726300	0.283106
	O282	O	1.029830	0.796118	-0.217625
	H283	H	1.028560	0.767338	-0.246871
	H284	H	1.043107	0.810485	-0.212384
	O285	O	0.470849	0.687852	0.534546
	H286	H	0.481737	0.687980	0.566722
	H287	H	0.461603	0.685561	0.539593
	O288	O	-0.209961	0.072633	0.010565
	H289	H	-0.216457	0.050991	0.025409
	H290	H	-0.189099	0.061172	0.021206
	O291	O	1.573766	0.536792	0.588121
	H292	H	1.588267	0.550121	0.595070
	H293	H	1.576588	0.537532	0.590048
	O294	O	0.208615	1.222845	0.023269
	H295	H	0.222321	1.245275	0.015865
	H296	H	0.191828	1.220057	-0.002116
	O297	O	0.141510	0.169031	0.844614
	H298	H	0.132775	0.163274	0.857581
	H299	H	0.139302	0.182337	0.856155
	O300	O	0.713809	0.292142	0.474386
	H301	H	0.709172	0.298970	0.432848
	H302	H	0.737455	0.260773	0.468380
	O303	O	0.451860	0.455627	0.629667
	H304	H	0.465607	0.464881	0.626870
	H305	H	0.457031	0.466211	0.625197
	O306	O	0.015452	1.235047	1.216341
	H307	H	0.028154	1.266010	1.248097
	H308	H	0.060570	1.228721	1.208810
	O309	O	0.478952	0.598291	0.440844
	H310	H	0.478815	0.597148	0.446216
	H311	H	0.468364	0.601932	0.443719
	O312	O	0.640888	0.547648	0.708978
	H313	H	0.654709	0.540145	0.702375
	H314	H	0.649230	0.554227	0.724324
	O315	O	-0.196877	-0.092589	0.890930
	H316	H	-0.175921	-0.095145	0.917075
	H317	H	-0.197109	-0.090635	0.898799
	O318	O	-0.013574	0.807624	0.205051
	H319	H	-0.040041	0.790482	0.218886
	H320	H	-0.006039	0.795346	0.188755
	O321	O	0.680717	0.336193	0.316879
	H322	H	0.692083	0.386725	0.309674
	H323	H	0.633996	0.327078	0.308210
	O324	O	1.168822	0.032700	0.903596
	H325	H	1.167309	0.031042	0.893033
	H326	H	1.168717	0.019301	0.915779
	O327	O	0.826439	-0.161761	1.172045
	H328	H	0.839761	-0.145363	1.176400
	H329	H	0.811317	-0.137915	1.157884
	O330	O	0.932946	0.082893	0.203499
	H331	H	0.948496	0.121799	0.215262
	H332	H	0.940000	0.072834	0.191381
	O333	O	0.519265	0.728276	0.710400
	H334	H	0.531875	0.728885	0.725154
	H335	H	0.537904	0.735375	0.724509
	O336	O	0.999701	0.034965	0.775176
	H337	H	0.993620	0.047347	0.776696
	H338	H	0.976901	0.045831	0.777696
	O339	O	0.695160	0.503072	0.485523
	H340	H	0.696963	0.486124	0.476845
	H341	H	0.696498	0.511962	0.498484
	O342	O	0.541405	0.488247	0.315848
	H343	H	0.556407	0.483160	0.299710
	H344	H	0.543952	0.490521	0.326758
	O345	O	-0.215225	0.226737	-0.057391
	H346	H	-0.231035	0.212849	-0.052759
	H347	H	-0.228325	0.231422	-0.067454
	O348	O	0.844752	0.202365	0.812300
	H349	H	0.839180	0.171217	0.796692
	H350	H	0.847274	0.205355	0.822352
	O351	O	1.214092	0.982398	-0.210443
	H352	H	1.216596	0.981644	-0.212789
	H353	H	1.217240	0.992982	-0.223803
	O354	O	0.344441	0.590695	0.501909
	H355	H	0.354551	0.576943	0.517129
	H356	H	0.353586	0.588442	0.515912
	O357	O	1.047160	0.818814	1.037606
	H358	H	1.056824	0.815830	1.038444
	H359	H	1.056391	0.826546	1.028820
	O360	O	0.328721	0.687493	0.685141
	H361	H	0.339207	0.680015	0.693098
	H362	H	0.332229	0.671380	0.666599
	O363	O	0.710367	0.731179	0.524646
	H364	H	0.733179	0.726787	0.508886
	H365	H	0.695919	0.747508	0.501009
	O366	O	0.934700	-0.201198	0.937635
	H367	H	0.944100	-0.193423	0.922718
	H368	H	0.940547	-0.203216	0.938453
	O369	O	0.564036	0.719497	0.429908
	H370	H	0.548255	0.714791	0.414289
	H371	H	0.536913	0.720141	0.446840
	O372	O	0.467281	0.296106	0.707579
	H373	H	0.458555	0.290466	0.709997
	H374	H	0.477729	0.301286	0.729779
	O375	O	-0.111462	1.072893	1.052477
	H376	H	-0.109377	1.082719	1.041662
	H377	H	-0.115757	1.072915	1.043793
	O378	O	0.282511	0.481319	0.708629
	H379	H	0.296509	0.463554	0.706098
	H380	H	0.260543	0.475008	0.734764
	O381	O	1.685763	-0.288500	-0.310566
	H382	H	1.695365	-0.278593	-0.363066
	H383	H	1.688293	-0.294842	-0.294706
	O384	O	0.208629	0.037166	1.204491
	H385	H	0.188533	0.018695	1.214242
	H386	H	0.228490	0.044886	1.228676
	O387	O	-0.216150	0.798531	1.016631
	H388	H	-0.204833	0.788854	1.028495
	H389	H	-0.232664	0.772716	1.011196
	O390	O	0.199480	-0.187108	0.801214
	H391	H	0.209690	-0.202798	0.807212
	H392	H	0.186134	-0.156331	0.796033
	O393	O	1.101318	0.911841	0.198191
	H394	H	1.071818	0.908735	0.195266
	H395	H	1.093032	0.892838	0.211513
	O396	O	0.518271	0.474761	0.455197
	H397	H	0.521557	0.451322	0.448582
	H398	H	0.519458	0.475230	0.465887
	O399	O	0.946801	0.969776	0.878004
	H400	H	0.959119	0.958704	0.884437
	H401	H	0.971898	0.973911	0.881631
	O402	O	0.058775	0.226293	0.936788
	H403	H	0.035003	0.228634	0.968109
	H404	H	0.039157	0.226701	0.923877
	O405	O	-0.219012	-0.006115	0.209735
	H406	H	-0.243187	-0.001205	0.238720
	H407	H	-0.205717	0.019130	0.205873
	O408	O	1.307845	0.705548	1.301211
	H409	H	1.299520	0.673337	1.315344
	H410	H	1.305156	0.694453	1.327217
	O411	O	0.422846	0.301996	0.426992
	H412	H	0.406220	0.294985	0.458122
	H413	H	0.431241	0.298970	0.453437
	O414	O	0.278933	0.293050	0.517087
	H415	H	0.244717	0.265032	0.532290
	H416	H	0.276514	0.315364	0.529433
	O417	O	0.710341	0.523670	0.337751
	H418	H	0.728036	0.517965	0.335372
	H419	H	0.680857	0.537102	0.321628
	O420	O	0.479889	0.526108	0.602622
	H421	H	0.494901	0.528051	0.597067
	H422	H	0.481031	0.513604	0.615261
	O423	O	-0.690565	0.433919	0.418764
	H424	H	-0.682412	0.438241	0.417569
	H425	H	-0.683096	0.447355	0.413980
	O426	O	0.984958	1.190060	0.778593
	H427	H	0.983435	1.188564	0.792011
	H428	H	0.982424	1.220618	0.759172
	O429	O	0.192559	0.179932	-0.172383
	H430	H	0.183230	0.167406	-0.149830
	H431	H	0.165895	0.168070	-0.155929
	O432	O	0.527599	0.551113	0.277138
	H433	H	0.507071	0.550797	0.291729
	H434	H	0.528664	0.573691	0.280969
	O435	O	0.209448	-0.197046	-0.026479
	H436	H	0.219319	-0.204883	-0.034643
	H437	H	0.218649	-0.198905	-0.028604
	O438	O	0.943884	0.242936	0.047396
	H439	H	0.944930	0.246658	0.085392
	H440	H	0.908993	0.243420	0.049056
	O441	O	0.293337	0.691538	0.477527
	H442	H	0.304662	0.679239	0.494824
	H443	H	0.274963	0.706731	0.483525
	O444	O	-0.196746	1.030168	0.802610
	H445	H	-0.181323	1.013511	0.814133
	H446	H	-0.213132	1.018723	0.813820
	O447	O	0.518947	0.306257	0.278423
	H448	H	0.524790	0.269497	0.250868
	H449	H	0.493109	0.301414	0.312993
	O450	O	0.307535	0.380462	0.652315
	H451	H	0.335342	0.384487	0.650951
	H452	H	0.288189	0.357401	0.646929
	O453	O	0.665438	0.416589	0.636858
	H454	H	0.675216	0.392318	0.626571
	H455	H	0.659888	0.425585	0.618216
	O456	O	1.019553	-0.020533	0.075632
	H457	H	1.024475	-0.029850	0.086874
	H458	H	1.043378	-0.019514	0.076348
	O459	O	0.559666	0.286432	0.554883
	H460	H	0.582487	0.280792	0.560595
	H461	H	0.559829	0.295026	0.565774
	O462	O	0.293580	0.544124	0.290041
	H463	H	0.324883	0.528701	0.281193
	H464	H	0.278122	0.533347	0.280779
	O465	O	1.215258	-0.038473	0.049674
	H466	H	1.216198	-0.043016	0.057837
	H467	H	1.217256	-0.037995	0.061598
