data_Molecule from HDF5

_cell_length_a		16.253553
_cell_length_b		16.410421
_cell_length_c		16.250558
_cell_angle_alpha	90.468616
_cell_angle_beta	90.299012
_cell_angle_gamma	90.125433
_symmetry_space_group_name_H-M	'P 1'
_symmetry_Int_Tables_number		1

loop_
	_symmetry_equiv_pos_as_xyz
	x,y,z

loop_
	_atom_site_label
	_atom_site_type_symbol
	_atom_site_fract_x
	_atom_site_fract_y
	_atom_site_fract_z
	H0	H	0.375924	0.831835	0.709089
	H1	H	0.580232	0.153932	0.711516
	H2	H	0.580670	0.833543	0.270316
	H3	H	0.378057	0.155976	0.277987
	H4	H	0.694185	0.388964	0.827720
	H5	H	0.696293	0.591719	0.153655
	H6	H	0.259224	0.593656	0.830024
	H7	H	0.264962	0.394867	0.155421
	H8	H	0.816656	0.706933	0.386429
	H9	H	0.140031	0.712716	0.596500
	H10	H	0.817040	0.273131	0.591382
	H11	H	0.140750	0.271790	0.387957
	H12	H	0.817882	0.387449	0.708305
	H13	H	0.142051	0.593066	0.708531
	H14	H	0.815988	0.586684	0.276383
	H15	H	0.143137	0.390926	0.276586
	H16	H	0.374878	0.710133	0.829813
	H17	H	0.583171	0.710746	0.153178
	H18	H	0.581151	0.271474	0.830582
	H19	H	0.378186	0.277606	0.155048
	H20	H	0.694609	0.831622	0.389234
	H21	H	0.699013	0.151869	0.598218
	H22	H	0.261502	0.830168	0.590627
	H23	H	0.261892	0.154416	0.394054
	H24	H	0.879615	0.328854	0.204573
	H25	H	0.082645	0.652101	0.212359
	H26	H	0.085027	0.331223	0.770193
	H27	H	0.876953	0.651640	0.772123
	H28	H	0.192559	0.891021	0.327856
	H29	H	0.194060	0.092617	0.654848
	H30	H	0.759734	0.090746	0.330088
	H31	H	0.761813	0.890147	0.654723
	H32	H	0.316599	0.210851	0.890527
	H33	H	0.640435	0.214102	0.098180
	H34	H	0.317859	0.774775	0.093543
	H35	H	0.639787	0.773412	0.885983
	H36	H	0.314800	0.897353	0.202686
	H37	H	0.640616	0.097026	0.212314
	H38	H	0.315691	0.093468	0.776501
	H39	H	0.640707	0.891628	0.774714
	H40	H	0.875757	0.204947	0.328488
	H41	H	0.082682	0.211622	0.652440
	H42	H	0.078351	0.773723	0.328708
	H43	H	0.874303	0.771465	0.652723
	H44	H	0.197759	0.330665	0.889392
	H45	H	0.197135	0.652644	0.095454
	H46	H	0.761946	0.330379	0.089167
	H47	H	0.760458	0.651818	0.886541
	H48	H	0.384112	0.106501	0.580160
	H49	H	0.560861	0.880464	0.585288
	H50	H	0.573476	0.105084	0.414586
	H51	H	0.381594	0.876758	0.398572
	H52	H	0.563141	0.406574	0.103288
	H53	H	0.568141	0.585678	0.874216
	H54	H	0.381134	0.584683	0.109618
	H55	H	0.383052	0.397929	0.874013
	H56	H	0.093492	0.575383	0.399794
	H57	H	0.864027	0.582960	0.579552
	H58	H	0.090277	0.409902	0.578219
	H59	H	0.865636	0.402216	0.401169
	H60	H	0.098072	0.398561	0.587760
	H61	H	0.865320	0.580323	0.577558
	H62	H	0.098300	0.588471	0.395863
	H63	H	0.860804	0.398352	0.388892
	H64	H	0.394295	0.579151	0.103620
	H65	H	0.571175	0.582078	0.873901
	H66	H	0.572506	0.394032	0.110290
	H67	H	0.389214	0.408828	0.880158
	H68	H	0.575434	0.111509	0.396900
	H69	H	0.571095	0.880244	0.575930
	H70	H	0.383535	0.109492	0.588625
	H71	H	0.386458	0.877083	0.392815
	H72	H	0.882147	0.606965	0.080815
	H73	H	0.073263	0.375622	0.084037
	H74	H	0.064316	0.604452	0.899063
	H75	H	0.893887	0.379437	0.900901
	H76	H	0.062710	0.903772	0.604203
	H77	H	0.065009	0.080014	0.376610
	H78	H	0.891593	0.091750	0.609777
	H79	H	0.876915	0.902349	0.375327
	H80	H	0.591185	0.081776	0.911098
	H81	H	0.365683	0.077798	0.081739
	H82	H	0.597446	0.899609	0.084815
	H83	H	0.364207	0.905731	0.900619
	H84	H	0.593560	0.901859	0.076415
	H85	H	0.359157	0.089552	0.093774
	H86	H	0.592781	0.078257	0.898825
	H87	H	0.361814	0.897658	0.898043
	H88	H	0.882827	0.079523	0.608585
	H89	H	0.070839	0.087787	0.372836
	H90	H	0.069502	0.893891	0.609497
	H91	H	0.893615	0.904118	0.379950
	H92	H	0.070210	0.603329	0.907058
	H93	H	0.070515	0.377318	0.082982
	H94	H	0.890525	0.608157	0.091619
	H95	H	0.884291	0.377358	0.902751
	H96	H	0.391629	0.105417	0.586314
	H97	H	0.573148	0.874650	0.588308
	H98	H	0.559245	0.104292	0.401805
	H99	H	0.388865	0.879420	0.399271
	H100	H	0.579501	0.409735	0.107958
	H101	H	0.567054	0.582083	0.876283
	H102	H	0.393700	0.593765	0.108442
	H103	H	0.396507	0.396811	0.877077
	H104	H	0.094394	0.587005	0.408779
	H105	H	0.863727	0.579584	0.581611
	H106	H	0.093559	0.395026	0.572148
	H107	H	0.861272	0.389706	0.399408
	H108	H	0.895423	0.602848	0.079551
	H109	H	0.073279	0.376981	0.080681
	H110	H	0.073116	0.607164	0.898887
	H111	H	0.888165	0.375414	0.893809
	H112	H	0.075642	0.905789	0.607553
	H113	H	0.075157	0.077889	0.374564
	H114	H	0.896978	0.078802	0.603392
	H115	H	0.887804	0.889447	0.373503
	H116	H	0.596209	0.090135	0.903071
	H117	H	0.362472	0.095138	0.076330
	H118	H	0.594126	0.908003	0.084119
	H119	H	0.363622	0.899237	0.906241
	C120	C	0.356059	0.000645	0.614256
	C121	C	0.600086	0.984186	0.614916
	C122	C	0.599622	0.001448	0.371366
	C123	C	0.356246	0.984931	0.369511
	C124	C	0.601082	0.371576	-0.000021
	C125	C	0.600639	0.613503	0.982420
	C126	C	0.357801	0.615287	0.000164
	C127	C	0.359129	0.372013	0.984107
	C128	C	-0.012086	0.611994	0.370250
	C129	C	0.971092	0.612612	0.611619
	C130	C	-0.012388	0.369980	0.610905
	C131	C	0.970310	0.367695	0.367884
	C132	C	0.859128	0.499362	0.112056
	C133	C	0.102509	0.482902	0.114493
	C134	C	0.101234	0.499268	0.870105
	C135	C	0.857815	0.483140	0.867826
	C136	C	0.099087	0.870303	0.499673
	C137	C	0.100565	0.113379	0.482098
	C138	C	0.858444	0.111967	0.499880
	C139	C	0.855829	0.868575	0.483101
	C140	C	0.486797	0.113955	0.872845
	C141	C	0.469909	0.117289	0.115080
	C142	C	0.487653	0.873170	0.111971
	C143	C	0.469889	0.870795	0.870026
	C144	C	0.356624	0.879558	0.670287
	C145	C	0.600006	0.105446	0.672883
	C146	C	0.599545	0.881174	0.310792
	C147	C	0.357832	0.107067	0.315383
	C148	C	0.656685	0.370214	0.876926
	C149	C	0.658165	0.612252	0.104728
	C150	C	0.298541	0.613700	0.878616
	C151	C	0.302814	0.374273	0.106789
	C152	C	0.865308	0.668002	0.368676
	C153	C	0.092272	0.672182	0.613921
	C154	C	0.865714	0.311888	0.611018
	C155	C	0.092545	0.310867	0.368729
	C156	C	0.866115	0.368929	0.669268
	C157	C	0.093195	0.613005	0.670113
	C158	C	0.864974	0.608166	0.313760
	C159	C	0.093717	0.369857	0.313152
	C160	C	0.355988	0.671878	0.878429
	C161	C	0.602027	0.671476	0.104604
	C162	C	0.600685	0.311380	0.878623
	C163	C	0.359382	0.316253	0.106638
	C164	C	0.656478	0.880263	0.369925
	C165	C	0.659018	0.104513	0.616316
	C166	C	0.299600	0.878941	0.611319
	C167	C	0.299806	0.106202	0.372920
	C168	C	0.859702	0.377468	0.166920
	C169	C	0.102177	0.603914	0.173074
	C170	C	0.102882	0.379177	0.810489
	C171	C	0.857342	0.603485	0.810308
	C172	C	0.154695	0.871070	0.376700
	C173	C	0.156837	0.113153	0.605376
	C174	C	0.798987	0.110385	0.378407
	C175	C	0.799606	0.869768	0.605539
	C176	C	0.364974	0.171929	0.871520
	C177	C	0.592137	0.174825	0.116431
	C178	C	0.365889	0.814877	0.111989
	C179	C	0.591388	0.812639	0.867938
	C180	C	0.364222	0.875914	0.166115
	C181	C	0.592064	0.116857	0.173405
	C182	C	0.364507	0.113257	0.814867
	C183	C	0.591737	0.871608	0.812556
	C184	C	0.856909	0.167194	0.377511
	C185	C	0.101322	0.172407	0.604118
	C186	C	0.098160	0.812661	0.377222
	C187	C	0.855706	0.810708	0.604444
	C188	C	0.159370	0.378998	0.869747
	C189	C	0.158933	0.604270	0.114636
	C190	C	0.801487	0.378086	0.109166
	C191	C	0.799508	0.603488	0.867459
	C192	C	0.379664	0.085171	0.591768
	C193	C	0.575486	0.900179	0.590305
	C194	C	0.576195	0.085270	0.397018
	C195	C	0.378897	0.899876	0.390805
	C196	C	0.578474	0.396256	0.085087
	C197	C	0.576037	0.590238	0.896976
	C198	C	0.382491	0.592561	0.085195
	C199	C	0.382699	0.394568	0.899131
	C200	C	0.073324	0.589936	0.394263
	C201	C	0.886342	0.587865	0.586868
	C202	C	0.072130	0.394166	0.586502
	C203	C	0.884807	0.390085	0.389982
	C204	C	0.882482	0.584012	0.090277
	C205	C	0.079170	0.398431	0.089765
	C206	C	0.076496	0.583446	0.894709
	C207	C	0.881716	0.399192	0.891971
	C208	C	0.076082	0.893992	0.584847
	C209	C	0.077052	0.089054	0.396872
	C210	C	0.883268	0.089762	0.585128
	C211	C	0.879170	0.891942	0.398156
	C212	C	0.571526	0.090302	0.897221
	C213	C	0.384561	0.094353	0.090997
	C214	C	0.572941	0.896532	0.088682
	C215	C	0.385151	0.893922	0.894604
	Zn216	Zn	0.478224	-0.007244	0.743721
	Zn217	Zn	0.478208	-0.005539	0.241147
	Zn218	Zn	0.729808	0.492409	-0.010217
	Zn219	Zn	0.229959	0.492086	-0.007871
	Zn220	Zn	-0.022057	0.741108	0.491026
	Zn221	Zn	-0.021152	0.240778	0.489861
	Zn222	Zn	-0.020681	0.491309	0.740324
	Zn223	Zn	-0.019755	0.490621	0.241865
	Zn224	Zn	0.480168	0.743657	-0.008722
	Zn225	Zn	0.479176	0.243794	-0.007031
	Zn226	Zn	0.729385	-0.008160	0.493170
	Zn227	Zn	0.227480	-0.008367	0.491670
	N228	N	0.390914	0.956262	0.672214
	N229	N	0.564134	0.029519	0.672350
	N230	N	0.565186	0.957513	0.311337
	N231	N	0.392189	0.030601	0.312928
	N232	N	0.657118	0.406804	0.953449
	N233	N	0.657515	0.577235	0.027593
	N234	N	0.299575	0.579286	0.955446
	N235	N	0.302530	0.408177	0.029727
	N236	N	0.942732	0.670577	0.403124
	N237	N	0.015282	0.672096	0.578412
	N238	N	0.942355	0.312228	0.575481
	N239	N	0.014843	0.309294	0.401815
	N240	N	0.942837	0.404380	0.669336
	N241	N	0.016797	0.576767	0.668927
	N242	N	0.942142	0.573826	0.314684
	N243	N	0.016760	0.404412	0.312210
	N244	N	0.392357	0.672736	0.955002
	N245	N	0.566990	0.672551	0.027307
	N246	N	0.566739	0.312237	0.956021
	N247	N	0.393600	0.314756	0.029464
	N248	N	0.656440	0.955913	0.407183
	N249	N	0.659314	0.028154	0.581144
	N250	N	0.299079	0.955340	0.577352
	N251	N	0.298807	0.029227	0.405962
	N252	N	0.895021	0.453750	0.168726
	N253	N	0.067654	0.527417	0.172968
	N254	N	0.067323	0.455177	0.810672
	N255	N	0.892689	0.527467	0.810336
	N256	N	0.155645	0.906200	0.453885
	N257	N	0.156570	0.077269	0.528729
	N258	N	0.800070	0.076645	0.455714
	N259	N	0.799417	0.904915	0.529046
	N260	N	0.441958	0.172311	0.906973
	N261	N	0.515206	0.175065	0.080872
	N262	N	0.443646	0.813333	0.078885
	N263	N	0.514547	0.811945	0.902901
	N264	N	0.441031	0.911500	0.166219
	N265	N	0.515128	0.081766	0.172582
	N266	N	0.441199	0.078013	0.815506
	N267	N	0.515151	0.907052	0.813787
	N268	N	0.893069	0.168444	0.454063
	N269	N	0.067054	0.172664	0.526457
	N270	N	0.064408	0.811978	0.454606
	N271	N	0.889813	0.809987	0.527069
	N272	N	0.158234	0.454890	0.906155
	N273	N	0.159353	0.527900	0.078964
	N274	N	0.800925	0.454906	0.075983
	N275	N	0.799717	0.527570	0.902581
	O276	O	-0.097834	-0.085188	0.082901
	H277	H	-0.102345	-0.088450	0.090684
	H278	H	-0.088065	-0.076346	0.084623
	O279	O	-0.063143	0.937449	0.114829
	H280	H	-0.054874	0.947069	0.116652
	H281	H	-0.075258	0.938401	0.124402
	O282	O	1.022202	-0.092510	-0.174924
	H283	H	1.018535	-0.100736	-0.167515
	H284	H	1.021971	-0.083910	-0.176343
	O285	O	-0.080957	0.980726	0.086825
	H286	H	-0.075835	0.980614	0.078509
	H287	H	-0.084359	0.994036	0.094399
	O288	O	0.455040	0.456030	0.591257
	H289	H	0.449771	0.461270	0.584544
	H290	H	0.466278	0.469782	0.598231
	O291	O	0.948811	0.008668	0.922437
	H292	H	0.936231	0.021298	0.930587
	H293	H	0.967318	0.008428	0.916686
	O294	O	1.602744	0.631865	0.587392
	H295	H	1.594359	0.625154	0.581025
	H296	H	1.597851	0.645377	0.586188
	O297	O	0.047857	-0.027831	-0.143811
	H298	H	0.058542	-0.022621	-0.141567
	H299	H	0.040383	-0.022904	-0.150843
	O300	O	1.092074	0.974788	0.990136
	H301	H	1.100293	0.985916	0.973109
	H302	H	1.096584	0.973529	0.993950
	O303	O	-0.129264	1.071669	0.869491
	H304	H	-0.123275	1.077572	0.866894
	H305	H	-0.136269	1.073345	0.869404
	O306	O	0.542786	0.358093	0.515808
	H307	H	0.543051	0.353027	0.515851
	H308	H	0.552513	0.365818	0.522964
	O309	O	0.984718	0.028555	0.080647
	H310	H	0.991877	0.024370	0.077672
	H311	H	0.980918	0.026661	0.088139
	O312	O	0.124719	-0.000241	0.982588
	H313	H	0.119795	-0.018253	0.976727
	H314	H	0.140102	0.004248	0.973305
	O315	O	0.510155	0.566525	0.572970
	H316	H	0.503007	0.569032	0.557036
	H317	H	0.508325	0.572363	0.576279
	O318	O	0.477471	0.618723	0.327239
	H319	H	0.461950	0.607312	0.326500
	H320	H	0.478732	0.637606	0.322390
	O321	O	0.384861	0.643280	0.466815
	H322	H	0.383997	0.652450	0.480677
	H323	H	0.373765	0.627073	0.458645
	O324	O	0.549651	0.417951	0.417476
	H325	H	0.553500	0.425647	0.417894
	H326	H	0.553070	0.424816	0.416044
	O327	O	-0.140076	1.056899	0.921757
	H328	H	-0.138765	1.054449	0.914227
	H329	H	-0.143164	1.062526	0.931575
	O330	O	0.362633	0.344197	0.509609
	H331	H	0.365068	0.341181	0.507983
	H332	H	0.369690	0.330430	0.506597
	O333	O	0.113269	1.126764	1.039194
	H334	H	0.122185	1.125896	1.050565
	H335	H	0.117139	1.126826	1.045003
	O336	O	1.468776	0.454330	0.604782
	H337	H	1.464597	0.452475	0.623997
	H338	H	1.473624	0.442987	0.592595
	O339	O	0.560407	0.472362	0.389175
	H340	H	0.538921	0.469872	0.380129
	H341	H	0.571772	0.478432	0.375655
	O342	O	0.924309	-0.067564	0.122180
	H343	H	0.924585	-0.079703	0.112196
	H344	H	0.924143	-0.076639	0.108768
	O345	O	0.571480	0.529728	0.524290
	H346	H	0.569936	0.533566	0.514832
	H347	H	0.563916	0.540660	0.532252
	O348	O	1.018272	0.872392	0.912360
	H349	H	1.015377	0.868300	0.904056
	H350	H	1.005254	0.872710	0.914056
	O351	O	1.463579	1.522584	0.431874
	H352	H	1.463409	1.529912	0.434944
	H353	H	1.456135	1.522697	0.440526
	O354	O	0.998039	-0.043161	1.048606
	H355	H	0.998854	-0.038741	1.054894
	H356	H	0.993760	-0.055187	1.050518
	O357	O	0.467380	0.598125	0.434414
	H358	H	0.463752	0.596334	0.428214
	H359	H	0.459629	0.603786	0.444100
	O360	O	-0.037395	0.037851	-0.153901
	H361	H	-0.040847	0.040525	-0.162446
	H362	H	-0.035497	0.039049	-0.166775
	O363	O	0.328004	0.465418	0.488011
	H364	H	0.338381	0.455075	0.486052
	H365	H	0.331216	0.457890	0.477160
	O366	O	0.401589	0.542486	0.605049
	H367	H	0.404696	0.552730	0.623399
	H368	H	0.389892	0.520378	0.616527
	O369	O	0.415454	0.408350	0.499066
	H370	H	0.419807	0.399707	0.492447
	H371	H	0.417050	0.412402	0.503876
	O372	O	-0.078840	0.974041	1.041285
	H373	H	-0.084601	0.977821	1.056991
	H374	H	-0.075600	0.977981	1.034839
	O375	O	1.613717	0.483296	0.589883
	H376	H	1.617851	0.503310	0.573650
	H377	H	1.637627	0.476469	0.599342
	O378	O	0.391700	0.547202	0.549541
	H379	H	0.397152	0.550670	0.549767
	H380	H	0.400999	0.542814	0.559614
	O381	O	0.915005	0.165142	0.002688
	H382	H	0.928906	0.170615	0.009467
	H383	H	0.914870	0.172648	0.000586
	O384	O	0.392515	1.443306	0.318463
	H385	H	0.396551	1.438288	0.311691
	H386	H	0.404337	1.444168	0.335083
	O387	O	0.974521	0.028370	0.916924
	H388	H	0.977035	0.041781	0.916670
	H389	H	0.983053	0.018532	0.920918
	O390	O	0.037381	0.873103	-0.000352
	H391	H	0.043041	0.863906	-0.005679
	H392	H	0.023123	0.874559	-0.009057
	O393	O	1.614125	1.681223	0.592571
	H394	H	1.607303	1.690465	0.603666
	H395	H	1.616916	1.684267	0.577746
	O396	O	0.435858	0.410192	0.573546
	H397	H	0.431516	0.413617	0.582598
	H398	H	0.442023	0.411278	0.572498
	O399	O	-0.180874	0.828928	1.120897
	H400	H	-0.183524	0.817845	1.127198
	H401	H	-0.181619	0.836576	1.102241
	O402	O	1.077192	1.028564	1.111912
	H403	H	1.078701	1.026814	1.113232
	H404	H	1.072979	1.035283	1.116353
	O405	O	-0.044292	0.988105	-0.101430
	H406	H	-0.034985	0.990625	-0.106591
	H407	H	-0.050413	0.994027	-0.098601
