data_Molecule from HDF5

_cell_length_a		16.272702
_cell_length_b		16.175384
_cell_length_c		16.399656
_cell_angle_alpha	89.954481
_cell_angle_beta	89.847299
_cell_angle_gamma	89.975701
_symmetry_space_group_name_H-M	'P 1'
_symmetry_Int_Tables_number		1

loop_
	_symmetry_equiv_pos_as_xyz
	x,y,z

loop_
	_atom_site_label
	_atom_site_type_symbol
	_atom_site_fract_x
	_atom_site_fract_y
	_atom_site_fract_z
	H0	H	0.402301	0.833849	0.715900
	H1	H	0.601347	0.162472	0.714247
	H2	H	0.601990	0.834476	0.284357
	H3	H	0.399532	0.161608	0.284476
	H4	H	0.717694	0.399083	0.837506
	H5	H	0.717010	0.597213	0.162590
	H6	H	0.286703	0.598283	0.837138
	H7	H	0.282852	0.397526	0.162203
	H8	H	0.836751	0.711470	0.403444
	H9	H	0.165449	0.711128	0.595853
	H10	H	0.836702	0.285183	0.597574
	H11	H	0.165271	0.283046	0.401289
	H12	H	0.838169	0.397178	0.716412
	H13	H	0.164047	0.598119	0.715376
	H14	H	0.838112	0.598592	0.284889
	H15	H	0.164073	0.395693	0.282214
	H16	H	0.405094	0.713219	0.837028
	H17	H	0.598039	0.712041	0.163458
	H18	H	0.599612	0.283897	0.837211
	H19	H	0.401819	0.283019	0.162856
	H20	H	0.714320	0.832838	0.402184
	H21	H	0.713996	0.162538	0.596628
	H22	H	0.287605	0.833345	0.600239
	H23	H	0.287552	0.162073	0.403062
	H24	H	0.902009	0.333886	0.214632
	H25	H	0.101252	0.662055	0.214522
	H26	H	0.101757	0.333620	0.785709
	H27	H	0.902280	0.661772	0.785627
	H28	H	0.220333	0.895670	0.339083
	H29	H	0.215697	0.096525	0.663623
	H30	H	0.785768	0.097315	0.337762
	H31	H	0.785608	0.898385	0.662275
	H32	H	0.337131	0.211382	0.904185
	H33	H	0.665900	0.211482	0.096531
	H34	H	0.337302	0.785376	0.098376
	H35	H	0.666239	0.785696	0.903815
	H36	H	0.339084	0.897390	0.217233
	H37	H	0.664833	0.099354	0.216118
	H38	H	0.338742	0.100146	0.784826
	H39	H	0.664857	0.897604	0.783037
	H40	H	0.903925	0.212174	0.336842
	H41	H	0.098477	0.213362	0.663236
	H42	H	0.100312	0.782713	0.337264
	H43	H	0.902840	0.783618	0.662575
	H44	H	0.214517	0.333616	0.902138
	H45	H	0.214545	0.663284	0.097362
	H46	H	0.788302	0.332968	0.097807
	H47	H	0.788748	0.662500	0.903013
	H48	H	0.415492	0.111597	0.588547
	H49	H	0.593887	0.878054	0.600337
	H50	H	0.589872	0.113223	0.408330
	H51	H	0.416671	0.878354	0.394126
	H52	H	0.595458	0.410150	0.114506
	H53	H	0.601430	0.587876	0.883982
	H54	H	0.407259	0.597557	0.117512
	H55	H	0.406404	0.401196	0.882857
	H56	H	0.116589	0.590192	0.410018
	H57	H	0.884980	0.587750	0.594728
	H58	H	0.115734	0.407270	0.588505
	H59	H	0.881270	0.401922	0.398118
	H60	H	0.117636	0.408631	0.596084
	H61	H	0.883580	0.591739	0.595879
	H62	H	0.117433	0.586090	0.404859
	H63	H	0.885704	0.400330	0.413546
	H64	H	0.401209	0.587017	0.116165
	H65	H	0.590985	0.590530	0.886678
	H66	H	0.589714	0.404459	0.114748
	H67	H	0.405577	0.409257	0.885046
	H68	H	0.596547	0.115142	0.409410
	H69	H	0.586725	0.883682	0.592187
	H70	H	0.400984	0.116262	0.589955
	H71	H	0.420194	0.886993	0.418181
	H72	H	0.921621	0.610661	0.090579
	H73	H	0.093802	0.379908	0.095336
	H74	H	0.084925	0.610705	0.912489
	H75	H	0.907496	0.380826	0.910709
	H76	H	0.097199	0.904088	0.617029
	H77	H	0.091756	0.088700	0.386489
	H78	H	0.905695	0.081805	0.612585
	H79	H	0.908249	0.896947	0.381809
	H80	H	0.623855	0.101570	0.899329
	H81	H	0.386161	0.086647	0.094952
	H82	H	0.619142	0.905333	0.091745
	H83	H	0.385300	0.904486	0.909555
	H84	H	0.617517	0.908466	0.094800
	H85	H	0.383933	0.091001	0.096551
	H86	H	0.614465	0.090968	0.918827
	H87	H	0.386810	0.909296	0.907574
	H88	H	0.915472	0.094405	0.614576
	H89	H	0.095409	0.093128	0.384617
	H90	H	0.092441	0.906863	0.614742
	H91	H	0.899751	0.907785	0.383012
	H92	H	0.103749	0.617392	0.910136
	H93	H	0.087477	0.383045	0.091432
	H94	H	0.898703	0.614836	0.083243
	H95	H	0.905565	0.378275	0.903631
	H96	H	0.410137	0.117180	0.601927
	H97	H	0.597980	0.879866	0.589150
	H98	H	0.593388	0.116664	0.403447
	H99	H	0.396911	0.877674	0.411845
	H100	H	0.597472	0.402403	0.116851
	H101	H	0.596881	0.598392	0.882054
	H102	H	0.412524	0.588009	0.111924
	H103	H	0.412409	0.404936	0.886016
	H104	H	0.118892	0.591984	0.403970
	H105	H	0.884846	0.590222	0.592060
	H106	H	0.118694	0.402582	0.592682
	H107	H	0.887844	0.414334	0.406132
	H108	H	0.905049	0.620825	0.106627
	H109	H	0.094891	0.382355	0.087944
	H110	H	0.090966	0.618120	0.895114
	H111	H	0.912753	0.380773	0.905215
	H112	H	0.092976	0.900877	0.615563
	H113	H	0.097618	0.087113	0.385375
	H114	H	0.900079	0.095735	0.619530
	H115	H	0.913238	0.908808	0.386917
	H116	H	0.616512	0.078501	0.898249
	H117	H	0.386025	0.091137	0.091252
	H118	H	0.619142	0.904650	0.095638
	H119	H	0.384361	0.905689	0.905085
	C120	C	0.380334	0.006579	0.622487
	C121	C	0.621904	0.989339	0.621512
	C122	C	0.622531	0.006406	0.378351
	C123	C	0.381170	0.989274	0.379474
	C124	C	0.623455	0.376268	0.008203
	C125	C	0.624207	0.620648	0.991881
	C126	C	0.379139	0.620230	0.008022
	C127	C	0.378696	0.376312	0.991888
	C128	C	0.009503	0.618577	0.378595
	C129	C	0.992498	0.619062	0.621762
	C130	C	0.009286	0.376950	0.621318
	C131	C	0.992949	0.375916	0.377372
	C132	C	0.879699	0.506558	0.121798
	C133	C	0.121577	0.490102	0.120300
	C134	C	0.122722	0.506756	0.878018
	C135	C	0.880320	0.489002	0.878753
	C136	C	0.123735	0.874937	0.508539
	C137	C	0.123163	0.119111	0.492605
	C138	C	0.878564	0.119806	0.508274
	C139	C	0.879133	0.876140	0.491701
	C140	C	0.510091	0.119724	0.878051
	C141	C	0.493391	0.119322	0.122161
	C142	C	0.510217	0.877188	0.122430
	C143	C	0.493603	0.877213	0.878524
	C144	C	0.382073	0.882746	0.678029
	C145	C	0.620823	0.113181	0.676386
	C146	C	0.621645	0.883087	0.322751
	C147	C	0.381146	0.112682	0.323376
	C148	C	0.678950	0.378824	0.885857
	C149	C	0.679044	0.617918	0.114149
	C150	C	0.324644	0.618406	0.885627
	C151	C	0.321750	0.377717	0.113702
	C152	C	0.885959	0.673928	0.382019
	C153	C	0.116268	0.673689	0.617100
	C154	C	0.886039	0.322035	0.618640
	C155	C	0.116198	0.320605	0.380211
	C156	C	0.886673	0.377919	0.677633
	C157	C	0.115697	0.617783	0.676625
	C158	C	0.886573	0.617897	0.323248
	C159	C	0.115483	0.376637	0.320963
	C160	C	0.383313	0.675744	0.885640
	C161	C	0.619675	0.674496	0.114758
	C162	C	0.620280	0.321725	0.885737
	C163	C	0.380972	0.320954	0.114287
	C164	C	0.677018	0.882273	0.381713
	C165	C	0.676909	0.113305	0.618089
	C166	C	0.325377	0.882402	0.620423
	C167	C	0.325164	0.113022	0.382078
	C168	C	0.881972	0.382996	0.176750
	C169	C	0.120955	0.613258	0.176184
	C170	C	0.121391	0.382803	0.823336
	C171	C	0.882392	0.612767	0.823794
	C172	C	0.180752	0.876559	0.387012
	C173	C	0.177524	0.116609	0.615155
	C174	C	0.823810	0.117563	0.386125
	C175	C	0.823860	0.878629	0.613833
	C176	C	0.386602	0.174459	0.882538
	C177	C	0.616844	0.174387	0.118341
	C178	C	0.386684	0.822617	0.118983
	C179	C	0.617133	0.822651	0.882074
	C180	C	0.387575	0.877911	0.178481
	C181	C	0.616202	0.118403	0.177342
	C182	C	0.387315	0.119089	0.823161
	C183	C	0.616428	0.878489	0.822458
	C184	C	0.882796	0.174477	0.385486
	C185	C	0.119393	0.174740	0.614907
	C186	C	0.121055	0.820288	0.386038
	C187	C	0.882306	0.821597	0.614148
	C188	C	0.177684	0.382866	0.880981
	C189	C	0.176922	0.613945	0.117741
	C190	C	0.825545	0.382277	0.118591
	C191	C	0.826411	0.613215	0.882210
	C192	C	0.402224	0.092652	0.599963
	C193	C	0.599532	0.902831	0.600124
	C194	C	0.599824	0.092765	0.400516
	C195	C	0.404354	0.903193	0.401691
	C196	C	0.600746	0.398931	0.093430
	C197	C	0.602655	0.598807	0.906317
	C198	C	0.400765	0.597667	0.093154
	C199	C	0.401429	0.398630	0.906770
	C200	C	0.095367	0.596046	0.400035
	C201	C	0.906825	0.596400	0.600491
	C202	C	0.095075	0.399486	0.599083
	C203	C	0.907160	0.398756	0.399653
	C204	C	0.901890	0.593145	0.099800
	C205	C	0.098865	0.403972	0.098050
	C206	C	0.099955	0.592927	0.899653
	C207	C	0.902182	0.402258	0.900205
	C208	C	0.100964	0.897354	0.593826
	C209	C	0.101360	0.096388	0.407582
	C210	C	0.900498	0.097387	0.593527
	C211	C	0.900907	0.898078	0.405865
	C212	C	0.596110	0.096988	0.899269
	C213	C	0.407707	0.096371	0.100537
	C214	C	0.596412	0.899552	0.100392
	C215	C	0.407669	0.899862	0.900740
	Zn216	Zn	0.501438	-0.001672	0.749768
	Zn217	Zn	0.501506	-0.001572	0.250827
	Zn218	Zn	0.752561	0.497875	-0.000162
	Zn219	Zn	0.249426	0.498389	-0.000741
	Zn220	Zn	0.000580	0.747333	0.499794
	Zn221	Zn	0.001090	0.248503	0.499923
	Zn222	Zn	0.001361	0.497416	0.750686
	Zn223	Zn	0.001335	0.498236	0.249487
	Zn224	Zn	0.501629	0.749351	0.000745
	Zn225	Zn	0.501571	0.247481	0.000462
	Zn226	Zn	0.749717	-0.002493	0.499735
	Zn227	Zn	0.252936	-0.002938	0.500793
	N228	N	0.415260	0.960901	0.679685
	N229	N	0.587387	0.035080	0.678633
	N230	N	0.588486	0.961256	0.320651
	N231	N	0.415019	0.034659	0.321548
	N232	N	0.680939	0.411931	0.963158
	N233	N	0.681917	0.585059	0.036694
	N234	N	0.321872	0.584602	0.962637
	N235	N	0.320442	0.411523	0.036615
	N236	N	0.963142	0.674292	0.415858
	N237	N	0.038711	0.674677	0.583871
	N238	N	0.963173	0.321418	0.584308
	N239	N	0.038996	0.319945	0.414631
	N240	N	0.964490	0.411278	0.679644
	N241	N	0.037908	0.584375	0.679611
	N242	N	0.964328	0.584319	0.320902
	N243	N	0.037745	0.410162	0.318986
	N244	N	0.416553	0.676927	0.962683
	N245	N	0.586424	0.676311	0.037794
	N246	N	0.586379	0.320207	0.962809
	N247	N	0.415609	0.319688	0.037586
	N248	N	0.677768	0.960115	0.415445
	N249	N	0.677384	0.035494	0.584408
	N250	N	0.324094	0.960216	0.586621
	N251	N	0.324947	0.035411	0.416270
	N252	N	0.914998	0.461294	0.178786
	N253	N	0.087035	0.535377	0.177818
	N254	N	0.087897	0.461024	0.820901
	N255	N	0.915447	0.534506	0.821610
	N256	N	0.182401	0.909797	0.464329
	N257	N	0.180111	0.082829	0.538106
	N258	N	0.821068	0.084415	0.463330
	N259	N	0.821788	0.911895	0.536568
	N260	N	0.464043	0.175058	0.915989
	N261	N	0.539550	0.175217	0.084677
	N262	N	0.464141	0.821965	0.084946
	N263	N	0.539767	0.821714	0.916230
	N264	N	0.465349	0.911182	0.180641
	N265	N	0.538393	0.085131	0.179940
	N266	N	0.465163	0.085856	0.820189
	N267	N	0.538478	0.911537	0.820235
	N268	N	0.916121	0.176121	0.462575
	N269	N	0.086411	0.176368	0.537785
	N270	N	0.086361	0.819144	0.462570
	N271	N	0.915938	0.820141	0.537104
	N272	N	0.178537	0.460818	0.914101
	N273	N	0.177438	0.536243	0.083609
	N274	N	0.824076	0.460321	0.085076
	N275	N	0.825074	0.535249	0.915711
	O276	O	1.061128	0.956962	0.039547
	H277	H	1.057872	0.959259	0.045278
	H278	H	1.062363	0.964460	0.035583
	O279	O	0.002131	0.066628	-0.006689
	H280	H	0.002547	0.064942	0.005061
	H281	H	0.009419	0.059665	-0.016760
	O282	O	0.073023	0.026143	1.012817
	H283	H	0.070929	0.032583	1.012811
	H284	H	0.078941	0.031498	1.020054
	O285	O	0.496877	0.485780	0.480520
	H286	H	0.502694	0.489137	0.485777
	H287	H	0.498540	0.488802	0.483005
	O288	O	0.444763	0.491527	0.453604
	H289	H	0.448672	0.479918	0.455181
	H290	H	0.444276	0.499675	0.455883
	O291	O	0.405483	0.424721	0.480943
	H292	H	0.402500	0.421632	0.479358
	H293	H	0.404762	0.419747	0.477142
	O294	O	0.024723	0.079611	0.059830
	H295	H	0.020729	0.082165	0.056022
	H296	H	0.010319	0.075332	0.066012
	O297	O	0.422071	0.528676	0.435612
	H298	H	0.411817	0.533875	0.424896
	H299	H	0.417668	0.538298	0.425543
	O300	O	0.016172	1.040181	0.996785
	H301	H	0.021369	1.051335	1.004104
	H302	H	0.014893	1.043872	0.997626
	O303	O	0.490773	0.427164	0.430031
	H304	H	0.499879	0.430841	0.434810
	H305	H	0.492985	0.415256	0.419361
	O306	O	0.050470	-0.073866	0.967406
	H307	H	0.056511	-0.072629	0.963892
	H308	H	0.053367	-0.076387	0.970958
	O309	O	1.072614	1.047324	1.052031
	H310	H	1.072049	1.044515	1.052142
	H311	H	1.067704	1.056137	1.049333
	O312	O	0.478222	0.482555	0.521392
	H313	H	0.475479	0.484882	0.520482
	H314	H	0.467351	0.491548	0.515959
	O315	O	0.406857	0.437115	0.509422
	H316	H	0.400399	0.436556	0.515171
	H317	H	0.407063	0.421855	0.515137
	O318	O	0.052447	0.979520	0.030832
	H319	H	0.042373	0.969026	0.023374
	H320	H	0.059536	0.969347	0.032895
	O321	O	0.964358	1.051815	-0.025896
	H322	H	0.964222	1.050541	-0.034085
	H323	H	0.972952	1.055238	-0.030002
