data_Molecule from HDF5

_cell_length_a		16.280718
_cell_length_b		16.328871
_cell_length_c		16.305039
_cell_angle_alpha	89.935269
_cell_angle_beta	89.879725
_cell_angle_gamma	89.996364
_symmetry_space_group_name_H-M	'P 1'
_symmetry_Int_Tables_number		1

loop_
	_symmetry_equiv_pos_as_xyz
	x,y,z

loop_
	_atom_site_label
	_atom_site_type_symbol
	_atom_site_fract_x
	_atom_site_fract_y
	_atom_site_fract_z
	H0	H	0.400356	0.837891	0.721509
	H1	H	0.596824	0.164306	0.721144
	H2	H	0.596911	0.837164	0.293708
	H3	H	0.400805	0.163875	0.292271
	H4	H	0.712041	0.404346	0.843797
	H5	H	0.711078	0.597160	0.172687
	H6	H	0.285608	0.598322	0.843458
	H7	H	0.283813	0.402362	0.171171
	H8	H	0.835173	0.715875	0.408937
	H9	H	0.162256	0.715617	0.605139
	H10	H	0.834863	0.286248	0.607150
	H11	H	0.162160	0.287390	0.409085
	H12	H	0.834205	0.402512	0.722794
	H13	H	0.162277	0.599045	0.721215
	H14	H	0.834716	0.600265	0.293558
	H15	H	0.161387	0.403386	0.292665
	H16	H	0.401396	0.714843	0.843709
	H17	H	0.596581	0.715696	0.171752
	H18	H	0.596864	0.287310	0.843852
	H19	H	0.398691	0.285395	0.170674
	H20	H	0.714314	0.838313	0.407869
	H21	H	0.712542	0.164491	0.604096
	H22	H	0.284006	0.837342	0.605700
	H23	H	0.284856	0.164456	0.409466
	H24	H	0.899538	0.338328	0.222608
	H25	H	0.096267	0.664821	0.221518
	H26	H	0.096054	0.338007	0.792742
	H27	H	0.900601	0.664691	0.793752
	H28	H	0.212277	0.904829	0.343820
	H29	H	0.212091	0.098499	0.671403
	H30	H	0.785295	0.098984	0.343937
	H31	H	0.784481	0.902756	0.670785
	H32	H	0.334104	0.215032	0.909036
	H33	H	0.662053	0.215360	0.104794
	H34	H	0.334375	0.788358	0.105164
	H35	H	0.662501	0.787844	0.910071
	H36	H	0.334879	0.903404	0.221838
	H37	H	0.662376	0.098019	0.220078
	H38	H	0.334121	0.099061	0.793081
	H39	H	0.662717	0.904464	0.793295
	H40	H	0.900870	0.215634	0.344382
	H41	H	0.096857	0.215828	0.671112
	H42	H	0.097582	0.787319	0.344024
	H43	H	0.900308	0.786597	0.669929
	H44	H	0.212320	0.336997	0.909807
	H45	H	0.212350	0.664660	0.104388
	H46	H	0.783947	0.337622	0.106075
	H47	H	0.783606	0.664456	0.909475
	H48	H	0.400631	0.120152	0.605168
	H49	H	0.584009	0.887852	0.597906
	H50	H	0.590096	0.119197	0.406508
	H51	H	0.405210	0.884873	0.415344
	H52	H	0.587879	0.404501	0.123636
	H53	H	0.588921	0.590788	0.894007
	H54	H	0.401386	0.601565	0.126705
	H55	H	0.406270	0.403599	0.889680
	H56	H	0.116057	0.594612	0.410938
	H57	H	0.883158	0.597043	0.594256
	H58	H	0.110995	0.415075	0.597522
	H59	H	0.880638	0.405159	0.413890
	H60	H	0.117197	0.408049	0.608499
	H61	H	0.884298	0.587761	0.602461
	H62	H	0.114841	0.596184	0.416625
	H63	H	0.882257	0.408408	0.418320
	H64	H	0.400203	0.588166	0.123353
	H65	H	0.589699	0.600201	0.891616
	H66	H	0.594016	0.406720	0.124991
	H67	H	0.401725	0.410279	0.891630
	H68	H	0.586485	0.114146	0.417689
	H69	H	0.597906	0.884349	0.595324
	H70	H	0.411665	0.115457	0.601762
	H71	H	0.403102	0.884298	0.413064
	H72	H	0.908659	0.615575	0.098067
	H73	H	0.098078	0.384607	0.097752
	H74	H	0.100129	0.619160	0.915435
	H75	H	0.902262	0.382907	0.910165
	H76	H	0.081224	0.910898	0.620051
	H77	H	0.100025	0.097406	0.387968
	H78	H	0.908570	0.103812	0.625926
	H79	H	0.897593	0.918991	0.390562
	H80	H	0.613598	0.094473	0.916470
	H81	H	0.378858	0.106053	0.099050
	H82	H	0.617305	0.904929	0.104271
	H83	H	0.377171	0.903966	0.900812
	H84	H	0.615479	0.905094	0.096536
	H85	H	0.386149	0.087181	0.092409
	H86	H	0.614215	0.092200	0.912341
	H87	H	0.382849	0.898021	0.925899
	H88	H	0.894850	0.091472	0.626136
	H89	H	0.090573	0.087600	0.394021
	H90	H	0.093233	0.896626	0.627992
	H91	H	0.917411	0.909126	0.394341
	H92	H	0.089704	0.618690	0.906607
	H93	H	0.089846	0.383265	0.107942
	H94	H	0.900229	0.617427	0.098545
	H95	H	0.909812	0.386108	0.914744
	H96	H	0.402488	0.115776	0.593508
	H97	H	0.592159	0.882466	0.608260
	H98	H	0.598211	0.118455	0.415896
	H99	H	0.406106	0.884152	0.412145
	H100	H	0.589677	0.410684	0.122440
	H101	H	0.597517	0.594249	0.890270
	H102	H	0.412437	0.594616	0.121782
	H103	H	0.409952	0.410554	0.892713
	H104	H	0.113671	0.590643	0.414558
	H105	H	0.879560	0.598681	0.606166
	H106	H	0.114659	0.401150	0.595724
	H107	H	0.882170	0.410759	0.413453
	H108	H	0.905403	0.618814	0.105840
	H109	H	0.085856	0.388428	0.096488
	H110	H	0.087726	0.614016	0.918939
	H111	H	0.902133	0.385314	0.919524
	H112	H	0.100541	0.914585	0.624860
	H113	H	0.086139	0.101291	0.391663
	H114	H	0.911503	0.087326	0.620350
	H115	H	0.900392	0.896989	0.386400
	H116	H	0.615192	0.096608	0.912987
	H117	H	0.379767	0.089598	0.112365
	H118	H	0.614219	0.911307	0.101562
	H119	H	0.387004	0.922593	0.916456
	C120	C	0.376787	0.009276	0.628840
	C121	C	0.619796	0.992829	0.628297
	C122	C	0.620349	0.009292	0.385036
	C123	C	0.376727	0.992415	0.385475
	C124	C	0.619247	0.379431	0.015560
	C125	C	0.620062	0.622757	1.000025
	C126	C	0.376855	0.622577	0.015596
	C127	C	0.376740	0.379150	0.999442
	C128	C	0.006749	0.622768	0.385922
	C129	C	0.990122	0.623014	0.629318
	C130	C	0.006544	0.379678	0.629659
	C131	C	0.989896	0.379823	0.386238
	C132	C	0.876420	0.509457	0.129266
	C133	C	0.119789	0.493093	0.128912
	C134	C	0.120605	0.509292	0.885281
	C135	C	0.876509	0.492901	0.886152
	C136	C	0.119915	0.879868	0.515810
	C137	C	0.120230	0.123325	0.499353
	C138	C	0.877047	0.122600	0.515918
	C139	C	0.876727	0.879759	0.498538
	C140	C	0.506228	0.122731	0.885610
	C141	C	0.490190	0.122132	0.128551
	C142	C	0.507034	0.879350	0.128913
	C143	C	0.490322	0.879964	0.885857
	C144	C	0.379511	0.886424	0.683619
	C145	C	0.617151	0.115761	0.682856
	C146	C	0.617520	0.886178	0.330946
	C147	C	0.380007	0.115238	0.330405
	C148	C	0.674345	0.383001	0.892658
	C149	C	0.674143	0.618939	0.123633
	C150	C	0.322796	0.619551	0.892454
	C151	C	0.321683	0.382061	0.122293
	C152	C	0.883899	0.678171	0.388320
	C153	C	0.113392	0.677865	0.626038
	C154	C	0.883388	0.324331	0.627545
	C155	C	0.113088	0.325299	0.388969
	C156	C	0.883238	0.382073	0.684897
	C157	C	0.113404	0.619950	0.683684
	C158	C	0.883691	0.620526	0.331121
	C159	C	0.112959	0.382877	0.331030
	C160	C	0.380400	0.677406	0.892602
	C161	C	0.617051	0.677467	0.123212
	C162	C	0.617302	0.324601	0.892785
	C163	C	0.378566	0.323620	0.121991
	C164	C	0.675875	0.886749	0.388037
	C165	C	0.674764	0.115719	0.625071
	C166	C	0.322088	0.886130	0.625815
	C167	C	0.322497	0.115552	0.388562
	C168	C	0.878942	0.386718	0.184522
	C169	C	0.117032	0.616003	0.183992
	C170	C	0.117430	0.386496	0.830461
	C171	C	0.879847	0.615962	0.831573
	C172	C	0.174832	0.883278	0.392627
	C173	C	0.174646	0.119549	0.622522
	C174	C	0.822813	0.119849	0.392763
	C175	C	0.822044	0.882234	0.621822
	C176	C	0.383024	0.177513	0.888075
	C177	C	0.613281	0.177319	0.125394
	C178	C	0.383407	0.825385	0.126111
	C179	C	0.613725	0.825466	0.888868
	C180	C	0.383548	0.882715	0.183773
	C181	C	0.613631	0.119115	0.182616
	C182	C	0.383086	0.119878	0.830628
	C183	C	0.613881	0.883559	0.831342
	C184	C	0.880278	0.177897	0.393222
	C185	C	0.117534	0.177877	0.622360
	C186	C	0.118309	0.824880	0.392864
	C187	C	0.879831	0.824783	0.621499
	C188	C	0.175221	0.386130	0.888385
	C189	C	0.174611	0.615987	0.125797
	C190	C	0.821563	0.386490	0.126540
	C191	C	0.821279	0.615631	0.888661
	C192	C	0.398649	0.094873	0.606747
	C193	C	0.597766	0.907016	0.606767
	C194	C	0.598168	0.095190	0.406918
	C195	C	0.398376	0.906571	0.407157
	C196	C	0.596911	0.400935	0.101497
	C197	C	0.598386	0.601311	0.914273
	C198	C	0.398271	0.601108	0.101782
	C199	C	0.399362	0.401671	0.913468
	C200	C	0.092736	0.600329	0.407822
	C201	C	0.904359	0.601016	0.607464
	C202	C	0.092050	0.401630	0.607240
	C203	C	0.903730	0.401713	0.408456
	C204	C	0.898353	0.595228	0.107329
	C205	C	0.097558	0.407409	0.107149
	C206	C	0.098966	0.595093	0.907373
	C207	C	0.898262	0.406978	0.908363
	C208	C	0.098099	0.901057	0.601778
	C209	C	0.098607	0.101831	0.413480
	C210	C	0.898567	0.100600	0.602043
	C211	C	0.898812	0.901912	0.412729
	C212	C	0.592203	0.100925	0.907386
	C213	C	0.403873	0.100492	0.107560
	C214	C	0.593342	0.900738	0.107184
	C215	C	0.404584	0.901822	0.907840
	Zn216	Zn	0.498393	0.001365	0.756998
	Zn217	Zn	0.498979	0.000424	0.256925
	Zn218	Zn	0.748043	0.500821	0.008017
	Zn219	Zn	0.248596	0.501055	0.007471
	Zn220	Zn	-0.001416	0.751319	0.506668
	Zn221	Zn	-0.001780	0.251434	0.508485
	Zn222	Zn	-0.001755	0.501422	0.757693
	Zn223	Zn	-0.002072	0.501442	0.257964
	Zn224	Zn	0.498222	0.751303	0.007800
	Zn225	Zn	0.497970	0.250399	0.007467
	Zn226	Zn	0.748562	0.001048	0.507085
	Zn227	Zn	0.248091	0.000778	0.507306
	N228	N	0.412528	0.963905	0.685765
	N229	N	0.583548	0.038453	0.684833
	N230	N	0.584064	0.963558	0.328741
	N231	N	0.413249	0.037774	0.328538
	N232	N	0.675792	0.416304	0.970067
	N233	N	0.676002	0.585532	0.046214
	N234	N	0.320708	0.586012	0.969803
	N235	N	0.320467	0.415634	0.044861
	N236	N	0.961440	0.679567	0.421817
	N237	N	0.035845	0.679969	0.592842
	N238	N	0.960827	0.322845	0.593719
	N239	N	0.035523	0.323462	0.422612
	N240	N	0.960663	0.415993	0.686275
	N241	N	0.035859	0.586577	0.685694
	N242	N	0.961064	0.586770	0.329584
	N243	N	0.035291	0.416012	0.329199
	N244	N	0.413393	0.679305	0.970323
	N245	N	0.584314	0.680093	0.045433
	N246	N	0.583670	0.322471	0.970312
	N247	N	0.412074	0.321730	0.044485
	N248	N	0.677265	0.964256	0.421251
	N249	N	0.676423	0.038299	0.591877
	N250	N	0.320249	0.963542	0.592310
	N251	N	0.320287	0.038254	0.422131
	N252	N	0.912717	0.464066	0.186115
	N253	N	0.083468	0.538526	0.186018
	N254	N	0.084187	0.463914	0.828544
	N255	N	0.913425	0.538646	0.830049
	N256	N	0.175800	0.916737	0.469993
	N257	N	0.176666	0.086498	0.544897
	N258	N	0.820743	0.086257	0.470167
	N259	N	0.819944	0.915588	0.544314
	N260	N	0.460424	0.179165	0.921689
	N261	N	0.535454	0.179228	0.092630
	N262	N	0.461138	0.823427	0.092573
	N263	N	0.535919	0.823102	0.922025
	N264	N	0.461423	0.915355	0.185719
	N265	N	0.536296	0.085531	0.184599
	N266	N	0.460770	0.086557	0.828862
	N267	N	0.536089	0.916505	0.829212
	N268	N	0.913337	0.179571	0.470793
	N269	N	0.084489	0.180272	0.544900
	N270	N	0.084671	0.822749	0.470271
	N271	N	0.913010	0.822970	0.543881
	N272	N	0.177390	0.463618	0.921621
	N273	N	0.176260	0.538839	0.092357
	N274	N	0.820093	0.463878	0.093054
	N275	N	0.819652	0.538317	0.922385
	O276	O	0.456518	0.420636	0.520332
	H277	H	0.453555	0.415022	0.528202
	H278	H	0.450383	0.418042	0.513213
	O279	O	0.441800	0.461815	0.504903
	H280	H	0.447308	0.456764	0.504278
	H281	H	0.444438	0.451840	0.509676
	O282	O	1.437906	0.464590	-0.504834
	H283	H	1.437977	0.474122	-0.504924
	H284	H	1.441892	0.458125	-0.500483
	O285	O	0.420355	0.431624	0.498251
	H286	H	0.409855	0.433788	0.494658
	H287	H	0.418191	0.440742	0.495010
