data_Molecule from HDF5

_cell_length_a		16.335011
_cell_length_b		16.361070
_cell_length_c		16.410396
_cell_angle_alpha	89.939146
_cell_angle_beta	90.138675
_cell_angle_gamma	90.244750
_symmetry_space_group_name_H-M	'P 1'
_symmetry_Int_Tables_number		1

loop_
	_symmetry_equiv_pos_as_xyz
	x,y,z

loop_
	_atom_site_label
	_atom_site_type_symbol
	_atom_site_fract_x
	_atom_site_fract_y
	_atom_site_fract_z
	H0	H	0.389442	0.837992	0.719923
	H1	H	0.599258	0.158461	0.716798
	H2	H	0.597476	0.838103	0.279321
	H3	H	0.390482	0.157352	0.278120
	H4	H	0.715145	0.396524	0.837719
	H5	H	0.716547	0.600980	0.158340
	H6	H	0.277790	0.598468	0.839088
	H7	H	0.279432	0.391838	0.159686
	H8	H	0.836416	0.713002	0.394921
	H9	H	0.158092	0.715493	0.602415
	H10	H	0.835392	0.276106	0.603749
	H11	H	0.158095	0.278589	0.400239
	H12	H	0.836176	0.391622	0.719983
	H13	H	0.158589	0.598642	0.718215
	H14	H	0.837375	0.597165	0.279529
	H15	H	0.157306	0.390357	0.280696
	H16	H	0.393470	0.715519	0.838426
	H17	H	0.603058	0.720087	0.157049
	H18	H	0.601614	0.277034	0.838875
	H19	H	0.393456	0.275392	0.158258
	H20	H	0.709989	0.835400	0.396829
	H21	H	0.716020	0.156620	0.601544
	H22	H	0.276148	0.836982	0.601185
	H23	H	0.275682	0.157201	0.394856
	H24	H	0.893152	0.336083	0.217423
	H25	H	0.103807	0.654192	0.221743
	H26	H	0.103121	0.335774	0.780113
	H27	H	0.892698	0.655068	0.777722
	H28	H	0.215044	0.892832	0.339551
	H29	H	0.220656	0.104560	0.656713
	H30	H	0.776267	0.099641	0.338811
	H31	H	0.774330	0.891139	0.658185
	H32	H	0.336504	0.216356	0.895285
	H33	H	0.656962	0.217848	0.102941
	H34	H	0.337491	0.774703	0.104154
	H35	H	0.657069	0.780981	0.894874
	H36	H	0.337134	0.891379	0.220056
	H37	H	0.655749	0.104402	0.220859
	H38	H	0.337040	0.105716	0.776265
	H39	H	0.655475	0.896793	0.779024
	H40	H	0.890318	0.218051	0.340718
	H41	H	0.102293	0.217001	0.658650
	H42	H	0.099259	0.776137	0.340676
	H43	H	0.891528	0.774885	0.658814
	H44	H	0.215171	0.335116	0.899514
	H45	H	0.219560	0.655671	0.105405
	H46	H	0.775173	0.337760	0.103844
	H47	H	0.779683	0.656488	0.895116
	H48	H	0.410414	0.111444	0.591606
	H49	H	0.589629	0.880794	0.590181
	H50	H	0.585597	0.111861	0.409876
	H51	H	0.409921	0.883249	0.404261
	H52	H	0.580707	0.409743	0.109359
	H53	H	0.580109	0.584724	0.887932
	H54	H	0.407989	0.587165	0.112533
	H55	H	0.407925	0.405444	0.885932
	H56	H	0.113778	0.589706	0.411243
	H57	H	0.882891	0.584291	0.591796
	H58	H	0.111642	0.399242	0.584990
	H59	H	0.880694	0.406030	0.403303
	H60	H	0.107228	0.413173	0.588788
	H61	H	0.882929	0.586284	0.589006
	H62	H	0.109484	0.584247	0.414234
	H63	H	0.882570	0.400916	0.412837
	H64	H	0.409816	0.585420	0.112402
	H65	H	0.588524	0.599058	0.881158
	H66	H	0.586722	0.402808	0.113247
	H67	H	0.405074	0.406370	0.884480
	H68	H	0.586006	0.111379	0.409504
	H69	H	0.580872	0.882237	0.594583
	H70	H	0.409341	0.108412	0.582744
	H71	H	0.407015	0.886425	0.414339
	H72	H	0.911488	0.608125	0.085801
	H73	H	0.090831	0.380772	0.091172
	H74	H	0.083892	0.607489	0.913845
	H75	H	0.905894	0.382516	0.910989
	H76	H	0.091209	0.914128	0.612687
	H77	H	0.078968	0.086179	0.388195
	H78	H	0.908023	0.085075	0.612301
	H79	H	0.904307	0.909607	0.386757
	H80	H	0.615016	0.090501	0.899942
	H81	H	0.385059	0.081217	0.087777
	H82	H	0.609690	0.908373	0.086841
	H83	H	0.381076	0.904604	0.913314
	H84	H	0.609574	0.911018	0.087288
	H85	H	0.380645	0.087800	0.091962
	H86	H	0.609948	0.093071	0.916560
	H87	H	0.383409	0.912589	0.908565
	H88	H	0.905543	0.085585	0.613154
	H89	H	0.086998	0.091337	0.384445
	H90	H	0.076074	0.909265	0.608799
	H91	H	0.908397	0.899804	0.385179
	H92	H	0.092780	0.611023	0.911055
	H93	H	0.084999	0.381062	0.091499
	H94	H	0.902754	0.613455	0.089373
	H95	H	0.906361	0.381480	0.909676
	H96	H	0.402062	0.112911	0.586902
	H97	H	0.581669	0.884842	0.585417
	H98	H	0.586090	0.112055	0.409299
	H99	H	0.399798	0.881821	0.407518
	H100	H	0.590278	0.412099	0.111747
	H101	H	0.597000	0.583766	0.882965
	H102	H	0.410254	0.588108	0.112117
	H103	H	0.407091	0.408627	0.885413
	H104	H	0.111635	0.584228	0.407344
	H105	H	0.884207	0.582659	0.589030
	H106	H	0.114252	0.404066	0.599206
	H107	H	0.885783	0.411838	0.412093
	H108	H	0.911578	0.612159	0.096207
	H109	H	0.088071	0.382274	0.086695
	H110	H	0.085089	0.610577	0.904354
	H111	H	0.907273	0.381902	0.910354
	H112	H	0.086272	0.899022	0.615905
	H113	H	0.087548	0.081234	0.386515
	H114	H	0.906273	0.083557	0.611657
	H115	H	0.897848	0.902228	0.383041
	H116	H	0.606394	0.077277	0.908714
	H117	H	0.383142	0.088976	0.083596
	H118	H	0.609879	0.909384	0.089475
	H119	H	0.379007	0.905015	0.903821
	C120	C	0.374247	0.005737	0.619711
	C121	C	0.616473	0.988683	0.620558
	C122	C	0.616253	0.005841	0.378039
	C123	C	0.374225	0.989216	0.376922
	C124	C	0.618505	0.375797	0.006768
	C125	C	0.619782	0.620600	0.989774
	C126	C	0.376801	0.617989	0.006933
	C127	C	0.376076	0.375037	0.990812
	C128	C	0.005789	0.616716	0.378533
	C129	C	0.989207	0.616652	0.621378
	C130	C	0.005045	0.373827	0.622268
	C131	C	0.988732	0.374243	0.378764
	C132	C	0.876439	0.505248	0.120751
	C133	C	0.120316	0.486873	0.122041
	C134	C	0.118605	0.503785	0.878905
	C135	C	0.876423	0.487729	0.878396
	C136	C	0.116490	0.875617	0.507413
	C137	C	0.117525	0.118542	0.490929
	C138	C	0.874725	0.116838	0.507209
	C139	C	0.872389	0.872358	0.490322
	C140	C	0.504817	0.119205	0.876722
	C141	C	0.488387	0.118522	0.120088
	C142	C	0.504625	0.876744	0.119950
	C143	C	0.487288	0.876948	0.877292
	C144	C	0.371413	0.885927	0.679969
	C145	C	0.618131	0.109811	0.678108
	C146	C	0.616588	0.885664	0.318979
	C147	C	0.372200	0.109494	0.317836
	C148	C	0.676422	0.376346	0.886038
	C149	C	0.678226	0.620952	0.110009
	C150	C	0.317364	0.617883	0.886816
	C151	C	0.318205	0.373552	0.111308
	C152	C	0.884970	0.674320	0.376443
	C153	C	0.109970	0.676165	0.621462
	C154	C	0.883836	0.315256	0.622854
	C155	C	0.109628	0.316708	0.379940
	C156	C	0.884072	0.373005	0.680267
	C157	C	0.110224	0.618012	0.679075
	C158	C	0.885204	0.616706	0.319117
	C159	C	0.109384	0.372647	0.320639
	C160	C	0.375013	0.676164	0.886442
	C161	C	0.621221	0.679838	0.109438
	C162	C	0.620008	0.316799	0.886713
	C163	C	0.375064	0.315351	0.110650
	C164	C	0.672576	0.884380	0.377553
	C165	C	0.676297	0.108942	0.621011
	C166	C	0.314759	0.885225	0.621133
	C167	C	0.315481	0.109489	0.376035
	C168	C	0.874324	0.384379	0.178587
	C169	C	0.122171	0.606742	0.181954
	C170	C	0.120543	0.383711	0.820177
	C171	C	0.874938	0.607642	0.818013
	C172	C	0.175526	0.874005	0.387425
	C173	C	0.179353	0.121544	0.609621
	C174	C	0.815499	0.118271	0.387099
	C175	C	0.813724	0.871773	0.610379
	C176	C	0.384673	0.178025	0.875589
	C177	C	0.608743	0.178489	0.122051
	C178	C	0.384860	0.815363	0.122226
	C179	C	0.608376	0.819659	0.876320
	C180	C	0.384785	0.873331	0.180021
	C181	C	0.608198	0.121834	0.180631
	C182	C	0.385020	0.122703	0.816503
	C183	C	0.607697	0.876966	0.818273
	C184	C	0.872543	0.177203	0.387932
	C185	C	0.120645	0.177985	0.610636
	C186	C	0.118049	0.815904	0.387896
	C187	C	0.872172	0.814142	0.610801
	C188	C	0.176629	0.383204	0.879373
	C189	C	0.179349	0.607551	0.123676
	C190	C	0.815867	0.385376	0.121799
	C191	C	0.818649	0.608538	0.876551
	C192	C	0.399821	0.089114	0.594610
	C193	C	0.591389	0.904563	0.597031
	C194	C	0.592749	0.089961	0.402381
	C195	C	0.398749	0.905632	0.401416
	C196	C	0.593324	0.400788	0.089847
	C197	C	0.595609	0.596389	0.905845
	C198	C	0.402002	0.593976	0.090556
	C199	C	0.399872	0.399656	0.906894
	C200	C	0.089729	0.592819	0.403529
	C201	C	0.905316	0.591718	0.597037
	C202	C	0.089169	0.398282	0.598242
	C203	C	0.904735	0.399075	0.402567
	C204	C	0.901551	0.589273	0.097333
	C205	C	0.095379	0.403295	0.097221
	C206	C	0.094153	0.587874	0.902701
	C207	C	0.899795	0.403802	0.903215
	C208	C	0.091739	0.900426	0.590774
	C209	C	0.091721	0.093385	0.407964
	C210	C	0.899498	0.091882	0.590582
	C211	C	0.896486	0.896713	0.406824
	C212	C	0.588778	0.094377	0.901458
	C213	C	0.404640	0.093205	0.095020
	C214	C	0.587885	0.902395	0.095099
	C215	C	0.403113	0.900555	0.901480
	Zn216	Zn	0.494962	-0.001327	0.748653
	Zn217	Zn	0.495956	-0.001831	0.249088
	Zn218	Zn	0.748024	0.497587	-0.000899
	Zn219	Zn	0.247786	0.496360	-0.000276
	Zn220	Zn	-0.003653	0.745188	0.499446
	Zn221	Zn	-0.004007	0.246268	0.500252
	Zn222	Zn	-0.002515	0.494989	0.750440
	Zn223	Zn	-0.002186	0.495123	0.249853
	Zn224	Zn	0.496671	0.748159	-0.001656
	Zn225	Zn	0.496932	0.246509	-0.001445
	Zn226	Zn	0.744686	-0.004097	0.498928
	Zn227	Zn	0.245728	-0.003067	0.498213
	N228	N	0.407533	0.961959	0.679403
	N229	N	0.581546	0.033881	0.677848
	N230	N	0.582558	0.962357	0.318891
	N231	N	0.407923	0.033585	0.318112
	N232	N	0.675746	0.412358	0.961646
	N233	N	0.677532	0.584869	0.034426
	N234	N	0.318340	0.582549	0.962796
	N235	N	0.318581	0.409896	0.035779
	N236	N	0.960936	0.674399	0.412674
	N237	N	0.033478	0.675443	0.586297
	N238	N	0.960133	0.315442	0.587653
	N239	N	0.033514	0.317753	0.415333
	N240	N	0.960440	0.408658	0.679973
	N241	N	0.034218	0.581946	0.679330
	N242	N	0.961462	0.581741	0.319948
	N243	N	0.033152	0.407860	0.319826
	N244	N	0.411255	0.676442	0.962137
	N245	N	0.586014	0.679986	0.033429
	N246	N	0.584708	0.316341	0.962781
	N247	N	0.410318	0.316072	0.034643
	N248	N	0.672492	0.960195	0.413522
	N249	N	0.675489	0.032735	0.585940
	N250	N	0.316390	0.960751	0.584626
	N251	N	0.316458	0.033656	0.412003
	N252	N	0.911365	0.459918	0.178136
	N253	N	0.086221	0.530684	0.181091
	N254	N	0.085077	0.459781	0.820049
	N255	N	0.910100	0.531526	0.819048
	N256	N	0.174742	0.910416	0.462726
	N257	N	0.177479	0.085145	0.534295
	N258	N	0.817124	0.080985	0.462135
	N259	N	0.813416	0.906937	0.534470
	N260	N	0.460292	0.175967	0.912389
	N261	N	0.533193	0.176418	0.085089
	N262	N	0.460353	0.817185	0.085681
	N263	N	0.532346	0.819515	0.912211
	N264	N	0.460084	0.910897	0.178535
	N265	N	0.532305	0.085290	0.179373
	N266	N	0.460845	0.086686	0.817116
	N267	N	0.531392	0.911928	0.818642
	N268	N	0.908590	0.176596	0.463616
	N269	N	0.082577	0.175988	0.535865
	N270	N	0.082012	0.816941	0.463455
	N271	N	0.907855	0.814134	0.535108
	N272	N	0.175575	0.458926	0.915367
	N273	N	0.178470	0.531962	0.087373
	N274	N	0.817016	0.461522	0.086590
	N275	N	0.819220	0.533078	0.913367
	O276	O	0.892616	0.769503	0.218697
	H277	H	0.885711	0.772563	0.218362
	H278	H	0.893582	0.765274	0.229299
	O279	O	0.562367	0.549386	0.331759
	H280	H	0.565917	0.545212	0.327588
	H281	H	0.570185	0.552265	0.312523
	O282	O	0.417815	0.555197	0.647684
	H283	H	0.416280	0.548798	0.644597
	H284	H	0.438873	0.548269	0.643237
	O285	O	1.052423	0.154490	0.186213
	H286	H	1.069159	0.150418	0.183089
	H287	H	1.059057	0.182838	0.195261
	O288	O	-0.105197	0.179197	0.912464
	H289	H	-0.110577	0.192230	0.914676
	H290	H	-0.094901	0.179799	0.901409
	O291	O	0.691558	0.664038	0.612549
	H292	H	0.707057	0.674570	0.627637
	H293	H	0.668564	0.676130	0.612570
	O294	O	0.483229	0.633062	0.564968
	H295	H	0.483094	0.616264	0.555316
	H296	H	0.492554	0.644600	0.589121
	O297	O	1.049939	0.798357	0.820018
	H298	H	1.047716	0.781951	0.815602
	H299	H	1.032655	0.790466	0.828596
	O300	O	-0.169403	0.165627	-0.058350
	H301	H	-0.173886	0.170823	-0.043112
	H302	H	-0.173112	0.164244	-0.062836
	O303	O	0.502230	0.328515	0.474607
	H304	H	0.497512	0.340559	0.475730
	H305	H	0.512024	0.326269	0.472263
	O306	O	0.988689	-0.103150	-0.152556
	H307	H	0.971390	-0.093667	-0.153449
	H308	H	0.967133	-0.111823	-0.145917
	O309	O	0.356843	0.560575	0.479249
	H310	H	0.389874	0.568187	0.483383
	H311	H	0.345356	0.549502	0.469138
	O312	O	1.094493	0.858250	-0.063327
	H313	H	1.112049	0.865490	-0.059690
	H314	H	1.079940	0.860450	-0.061362
	O315	O	0.322208	0.617857	0.317484
	H316	H	0.307963	0.624917	0.328280
	H317	H	0.303220	0.634125	0.322716
	O318	O	0.436554	0.381961	0.592807
	H319	H	0.443174	0.384802	0.603506
	H320	H	0.435297	0.383586	0.593919
	O321	O	0.839522	-0.130059	0.841417
	H322	H	0.855947	-0.119076	0.853343
	H323	H	0.845701	-0.116854	0.850749
	O324	O	-0.042297	0.186644	0.879963
	H325	H	-0.043039	0.186022	0.879525
	H326	H	-0.053022	0.207088	0.875926
	O327	O	0.382691	0.502379	0.416736
	H328	H	0.392064	0.506068	0.425501
	H329	H	0.381142	0.506710	0.398819
	O330	O	0.437639	0.411786	0.409663
	H331	H	0.454188	0.405074	0.397859
	H332	H	0.432397	0.412268	0.403393
	O333	O	0.893565	1.084697	1.138211
	H334	H	0.895002	1.081012	1.148164
	H335	H	0.895929	1.072795	1.137635
	O336	O	0.371254	0.516205	0.644448
	H337	H	0.377415	0.497412	0.636337
	H338	H	0.372008	0.504830	0.653076
	O339	O	1.059796	-0.076268	1.185377
	H340	H	1.063252	-0.062365	1.179435
	H341	H	1.061144	-0.070726	1.185079
	O342	O	-0.132287	1.123870	1.073083
	H343	H	-0.124122	1.114595	1.076000
	H344	H	-0.144509	1.129624	1.082900
	O345	O	-0.187022	0.995874	0.834847
	H346	H	-0.181374	1.014767	0.854366
	H347	H	-0.200308	0.993950	0.826202
	O348	O	0.546731	0.416744	0.495276
	H349	H	0.554105	0.411469	0.503499
	H350	H	0.551210	0.430785	0.518194
	O351	O	0.570105	-0.567889	-0.338244
	H352	H	0.564882	-0.564709	-0.327428
	H353	H	0.576392	-0.573117	-0.335666
	O354	O	0.806539	0.915977	0.195513
	H355	H	0.805433	0.931160	0.208924
	H356	H	0.822672	0.916789	0.211991
	O357	O	0.180543	1.109623	0.173317
	H358	H	0.177985	1.118877	0.146099
	H359	H	0.200690	1.092086	0.181042
	O360	O	0.207088	0.996820	0.871651
	H361	H	0.219120	0.987233	0.842066
	H362	H	0.202373	0.973289	0.871142
	O363	O	0.509285	0.539849	0.626104
	H364	H	0.505768	0.544602	0.609374
	H365	H	0.507173	0.519742	0.617747
	O366	O	0.491570	0.569112	0.601807
	H367	H	0.486204	0.564775	0.610274
	H368	H	0.494622	0.574604	0.593899
	O369	O	0.652010	0.547667	0.487360
	H370	H	0.647321	0.552506	0.500453
	H371	H	0.628614	0.550281	0.496132
	O372	O	0.419759	0.601607	0.465516
	H373	H	0.411339	0.615536	0.466212
	H374	H	0.399140	0.605596	0.454021
	O375	O	0.554728	0.290829	0.390662
	H376	H	0.550791	0.268753	0.370346
	H377	H	0.570541	0.297457	0.399333
	O378	O	0.579057	0.308642	0.402546
	H379	H	0.583453	0.331377	0.385201
	H380	H	0.580815	0.298195	0.422130
	O381	O	0.574986	0.380513	0.473888
	H382	H	0.574569	0.379862	0.453207
	H383	H	0.580790	0.374487	0.478217
	O384	O	-0.008787	1.099730	1.094989
	H385	H	0.002625	1.095621	1.095143
	H386	H	-0.011588	1.109041	1.098261
	O387	O	1.069977	1.010686	-0.200186
	H388	H	1.050318	1.017523	-0.201976
	H389	H	1.087929	1.010080	-0.218305
	O390	O	0.487537	0.603604	0.420693
	H391	H	0.481260	0.606386	0.434837
	H392	H	0.494397	0.607834	0.425188
	O393	O	1.076738	-0.038965	1.083041
	H394	H	1.097982	-0.045638	1.094777
	H395	H	1.081594	-0.040462	1.075150
	O396	O	0.087632	1.053787	0.963379
	H397	H	0.090960	1.054943	0.941031
	H398	H	0.098720	1.044274	0.949109
	O399	O	0.496538	0.574372	0.309451
	H400	H	0.482349	0.570472	0.300950
	H401	H	0.470544	0.575690	0.303251
	O402	O	1.014834	-0.026518	1.051817
	H403	H	1.020326	-0.027553	1.058219
	H404	H	1.019639	-0.037940	1.043086
	O405	O	0.080917	-0.111530	0.008327
	H406	H	0.089517	-0.111954	0.023885
	H407	H	0.067603	-0.134105	0.009825
	O408	O	0.836873	0.893118	1.000167
	H409	H	0.824064	0.885138	1.004549
	H410	H	0.828770	0.904000	0.999361
	O411	O	1.139260	0.825127	-0.100920
	H412	H	1.153956	0.805512	-0.100774
	H413	H	1.121246	0.822998	-0.124775
	O414	O	0.174356	0.167675	1.044275
	H415	H	0.170760	0.160228	1.035319
	H416	H	0.183182	0.171064	1.033615
	O417	O	0.615273	0.689495	0.526933
	H418	H	0.621370	0.700139	0.521374
	H419	H	0.611022	0.695447	0.529204
	O420	O	-0.203693	0.840970	0.062540
	H421	H	-0.215554	0.836962	0.066323
	H422	H	-0.207389	0.843382	0.089074
	O423	O	0.991481	-0.126557	0.069728
	H424	H	0.991048	-0.115782	0.075347
	H425	H	0.983291	-0.122568	0.072025
	O426	O	0.114968	0.118167	0.906788
	H427	H	0.106504	0.121835	0.917535
	H428	H	0.105276	0.100710	0.892504
	O429	O	0.611196	0.489300	0.477169
	H430	H	0.624383	0.481061	0.484899
	H431	H	0.612387	0.502016	0.471670
