data_Molecule from HDF5

_cell_length_a		16.032509
_cell_length_b		16.317720
_cell_length_c		16.391072
_cell_angle_alpha	90.250681
_cell_angle_beta	89.957113
_cell_angle_gamma	90.280187
_symmetry_space_group_name_H-M	'P 1'
_symmetry_Int_Tables_number		1

loop_
	_symmetry_equiv_pos_as_xyz
	x,y,z

loop_
	_atom_site_label
	_atom_site_type_symbol
	_atom_site_fract_x
	_atom_site_fract_y
	_atom_site_fract_z
	H0	H	0.401880	0.842464	0.710942
	H1	H	0.607335	0.167762	0.715671
	H2	H	0.606296	0.844025	0.278650
	H3	H	0.404642	0.168537	0.281582
	H4	H	0.717631	0.409433	0.834131
	H5	H	0.715993	0.602974	0.161885
	H6	H	0.290549	0.599601	0.833739
	H7	H	0.289721	0.409869	0.162239
	H8	H	0.838172	0.717637	0.401787
	H9	H	0.170759	0.720103	0.596942
	H10	H	0.838594	0.291837	0.597213
	H11	H	0.170367	0.294376	0.399308
	H12	H	0.838408	0.407004	0.712117
	H13	H	0.168899	0.607771	0.713993
	H14	H	0.838078	0.604353	0.285215
	H15	H	0.168894	0.406202	0.282528
	H16	H	0.402104	0.720446	0.834879
	H17	H	0.603681	0.723028	0.159540
	H18	H	0.603545	0.288524	0.835104
	H19	H	0.399416	0.286307	0.159084
	H20	H	0.716796	0.841460	0.400061
	H21	H	0.716955	0.170856	0.592169
	H22	H	0.290489	0.842390	0.591504
	H23	H	0.294105	0.170844	0.402507
	H24	H	0.900180	0.343229	0.215056
	H25	H	0.104744	0.667589	0.215356
	H26	H	0.105671	0.344588	0.778663
	H27	H	0.901250	0.668172	0.782346
	H28	H	0.215850	0.911579	0.332856
	H29	H	0.220019	0.104779	0.660674
	H30	H	0.793180	0.101503	0.333747
	H31	H	0.790912	0.910664	0.660839
	H32	H	0.338080	0.217801	0.897348
	H33	H	0.668786	0.221455	0.096102
	H34	H	0.337916	0.791555	0.096109
	H35	H	0.670173	0.792965	0.899193
	H36	H	0.338404	0.907561	0.210901
	H37	H	0.669556	0.107775	0.211543
	H38	H	0.338828	0.102626	0.783063
	H39	H	0.669355	0.905529	0.783028
	H40	H	0.905192	0.222050	0.335907
	H41	H	0.106739	0.224047	0.660334
	H42	H	0.106525	0.788182	0.336144
	H43	H	0.903758	0.791431	0.660790
	H44	H	0.213463	0.340684	0.902578
	H45	H	0.215857	0.669758	0.094633
	H46	H	0.789608	0.341432	0.094050
	H47	H	0.793176	0.670238	0.905103
	H48	H	0.418737	0.119669	0.588103
	H49	H	0.591951	0.890308	0.593384
	H50	H	0.600274	0.124403	0.398623
	H51	H	0.408759	0.888453	0.401277
	H52	H	0.590556	0.414878	0.110846
	H53	H	0.592340	0.591096	0.885792
	H54	H	0.403026	0.599953	0.114920
	H55	H	0.397834	0.409284	0.879075
	H56	H	0.127569	0.603485	0.396918
	H57	H	0.887244	0.604854	0.579017
	H58	H	0.123024	0.410823	0.585782
	H59	H	0.884535	0.414054	0.402336
	H60	H	0.120136	0.422758	0.588286
	H61	H	0.888840	0.585661	0.593311
	H62	H	0.121205	0.604174	0.414432
	H63	H	0.885442	0.409971	0.408173
	H64	H	0.415395	0.594537	0.110107
	H65	H	0.592335	0.609597	0.879626
	H66	H	0.594086	0.407117	0.114341
	H67	H	0.415260	0.420324	0.886566
	H68	H	0.592307	0.120835	0.402668
	H69	H	0.596493	0.890832	0.585515
	H70	H	0.406468	0.124262	0.590808
	H71	H	0.415162	0.889681	0.400158
	H72	H	0.917326	0.620868	0.095823
	H73	H	0.100363	0.387408	0.091198
	H74	H	0.095447	0.617893	0.918114
	H75	H	0.905299	0.388257	0.904005
	H76	H	0.100629	0.907009	0.615744
	H77	H	0.092317	0.108374	0.381729
	H78	H	0.918897	0.097788	0.610565
	H79	H	0.916626	0.905525	0.380928
	H80	H	0.623410	0.098081	0.902597
	H81	H	0.388734	0.093072	0.083138
	H82	H	0.622593	0.911268	0.087109
	H83	H	0.384929	0.912371	0.901011
	H84	H	0.621362	0.916477	0.087322
	H85	H	0.385470	0.091109	0.097291
	H86	H	0.621839	0.098830	0.909094
	H87	H	0.384035	0.909562	0.903933
	H88	H	0.911990	0.107789	0.615614
	H89	H	0.106470	0.103315	0.379269
	H90	H	0.100671	0.919896	0.613578
	H91	H	0.906877	0.907754	0.379488
	H92	H	0.108116	0.627144	0.899693
	H93	H	0.092867	0.386837	0.097918
	H94	H	0.909010	0.621358	0.089188
	H95	H	0.914602	0.388424	0.897100
	H96	H	0.416524	0.123793	0.599895
	H97	H	0.600780	0.887105	0.592861
	H98	H	0.600680	0.121545	0.407961
	H99	H	0.412782	0.890981	0.405658
	H100	H	0.599331	0.414175	0.113131
	H101	H	0.608906	0.599523	0.879187
	H102	H	0.414403	0.607295	0.114446
	H103	H	0.417676	0.399610	0.881679
	H104	H	0.119450	0.588079	0.404904
	H105	H	0.880255	0.606213	0.602305
	H106	H	0.124635	0.415458	0.597175
	H107	H	0.887069	0.416864	0.407890
	H108	H	0.908406	0.624438	0.098756
	H109	H	0.090984	0.390605	0.089008
	H110	H	0.085629	0.621292	0.897247
	H111	H	0.916483	0.392472	0.908424
	H112	H	0.089984	0.912620	0.610587
	H113	H	0.094844	0.093937	0.384254
	H114	H	0.906122	0.096104	0.614110
	H115	H	0.912460	0.914974	0.383371
	H116	H	0.620795	0.094287	0.906058
	H117	H	0.382284	0.103126	0.090098
	H118	H	0.622666	0.914082	0.090784
	H119	H	0.386140	0.913208	0.904664
	C120	C	0.383592	0.014493	0.619276
	C121	C	0.626216	0.997317	0.619296
	C122	C	0.626882	0.014614	0.374337
	C123	C	0.383731	0.997777	0.375008
	C124	C	0.624382	0.383675	0.005506
	C125	C	0.625779	0.628315	0.989483
	C126	C	0.381457	0.627544	0.005571
	C127	C	0.380764	0.382392	0.989911
	C128	C	0.012924	0.626622	0.377659
	C129	C	0.995257	0.627998	0.620062
	C130	C	0.012642	0.386449	0.618973
	C131	C	0.995424	0.385061	0.377126
	C132	C	0.881683	0.514290	0.121771
	C133	C	0.124188	0.496675	0.120398
	C134	C	0.125264	0.514357	0.876096
	C135	C	0.882692	0.497504	0.876298
	C136	C	0.126144	0.884595	0.505884
	C137	C	0.127392	0.130105	0.489350
	C138	C	0.883494	0.128465	0.505763
	C139	C	0.882648	0.882808	0.489291
	C140	C	0.512578	0.125473	0.876675
	C141	C	0.494799	0.126355	0.118730
	C142	C	0.512781	0.884892	0.117615
	C143	C	0.495125	0.883533	0.875347
	C144	C	0.383041	0.891462	0.673312
	C145	C	0.626137	0.119765	0.676080
	C146	C	0.625753	0.892236	0.317549
	C147	C	0.385554	0.120467	0.320283
	C148	C	0.679972	0.387584	0.882977
	C149	C	0.679508	0.624744	0.112554
	C150	C	0.327114	0.621982	0.882702
	C151	C	0.325982	0.387182	0.112822
	C152	C	0.887747	0.680397	0.380946
	C153	C	0.120563	0.683212	0.617502
	C154	C	0.888202	0.329927	0.617298
	C155	C	0.120575	0.331349	0.379324
	C156	C	0.887950	0.387474	0.674280
	C157	C	0.119754	0.627299	0.675566
	C158	C	0.887866	0.624105	0.322917
	C159	C	0.119676	0.386774	0.320996
	C160	C	0.383186	0.681743	0.883149
	C161	C	0.623200	0.684082	0.111471
	C162	C	0.623393	0.327505	0.883464
	C163	C	0.380617	0.325868	0.111361
	C164	C	0.680630	0.890963	0.378026
	C165	C	0.680578	0.121171	0.614756
	C166	C	0.327760	0.891309	0.613740
	C167	C	0.330370	0.121401	0.380116
	C168	C	0.881409	0.391512	0.176382
	C169	C	0.124053	0.619292	0.176321
	C170	C	0.124549	0.392577	0.818336
	C171	C	0.882960	0.619923	0.821169
	C172	C	0.179897	0.889359	0.382416
	C173	C	0.182319	0.126149	0.612070
	C174	C	0.829604	0.123537	0.383003
	C175	C	0.827815	0.888283	0.611934
	C176	C	0.387664	0.179895	0.878150
	C177	C	0.619565	0.183050	0.116062
	C178	C	0.387680	0.829619	0.115970
	C179	C	0.620420	0.829771	0.878677
	C180	C	0.387898	0.886952	0.173163
	C181	C	0.619879	0.126803	0.173596
	C182	C	0.388165	0.122833	0.821096
	C183	C	0.619914	0.885330	0.820600
	C184	C	0.885251	0.183558	0.384093
	C185	C	0.126292	0.185829	0.611620
	C186	C	0.125304	0.828111	0.383982
	C187	C	0.884197	0.829076	0.611949
	C188	C	0.178414	0.390503	0.879701
	C189	C	0.179095	0.620480	0.116343
	C190	C	0.826525	0.390560	0.116211
	C191	C	0.829064	0.621025	0.882062
	C192	C	0.407025	0.100271	0.599089
	C193	C	0.603175	0.911740	0.597269
	C194	C	0.604542	0.100180	0.396545
	C195	C	0.405693	0.911893	0.396082
	C196	C	0.601392	0.405540	0.090820
	C197	C	0.604151	0.606451	0.903846
	C198	C	0.404238	0.606677	0.091014
	C199	C	0.403544	0.403615	0.904605
	C200	C	0.100322	0.605170	0.399106
	C201	C	0.908033	0.605402	0.598079
	C202	C	0.099973	0.409308	0.596764
	C203	C	0.908144	0.407043	0.399702
	C204	C	0.904687	0.599993	0.100866
	C205	C	0.101323	0.410636	0.098889
	C206	C	0.102900	0.599996	0.898397
	C207	C	0.905487	0.411695	0.897180
	C208	C	0.103664	0.906681	0.591238
	C209	C	0.104629	0.108253	0.403869
	C210	C	0.905810	0.106976	0.591371
	C211	C	0.905173	0.903222	0.403670
	C212	C	0.599504	0.103556	0.899318
	C213	C	0.407975	0.102735	0.096777
	C214	C	0.599629	0.907428	0.095064
	C215	C	0.407649	0.905299	0.896805
	Zn216	Zn	0.504255	0.004976	0.748484
	Zn217	Zn	0.504590	0.006152	0.245848
	Zn218	Zn	0.754919	0.506061	-0.001396
	Zn219	Zn	0.252433	0.505487	-0.001881
	Zn220	Zn	0.004780	0.754155	0.498542
	Zn221	Zn	0.005192	0.258706	0.498010
	Zn222	Zn	0.003546	0.506770	0.747077
	Zn223	Zn	0.003428	0.505366	0.249857
	Zn224	Zn	0.503625	0.757048	-0.003569
	Zn225	Zn	0.502825	0.252848	-0.002293
	Zn226	Zn	0.754483	0.005804	0.496959
	Zn227	Zn	0.255384	0.006795	0.497318
	N228	N	0.416921	0.969250	0.677073
	N229	N	0.593091	0.041786	0.679238
	N230	N	0.592780	0.969953	0.315275
	N231	N	0.417741	0.042431	0.316963
	N232	N	0.680781	0.421738	0.960050
	N233	N	0.681194	0.590704	0.035807
	N234	N	0.325878	0.589137	0.959936
	N235	N	0.325927	0.421563	0.036304
	N236	N	0.966460	0.682070	0.414139
	N237	N	0.042003	0.683793	0.583752
	N238	N	0.966879	0.329278	0.583738
	N239	N	0.042178	0.330176	0.413454
	N240	N	0.966497	0.421827	0.675371
	N241	N	0.040956	0.593664	0.677264
	N242	N	0.966786	0.591120	0.320903
	N243	N	0.040814	0.419597	0.319915
	N244	N	0.415987	0.685592	0.960620
	N245	N	0.590519	0.686374	0.033770
	N246	N	0.589530	0.324980	0.960561
	N247	N	0.413799	0.322559	0.033947
	N248	N	0.681482	0.968049	0.412506
	N249	N	0.680500	0.044240	0.579952
	N250	N	0.327887	0.968550	0.580867
	N251	N	0.329008	0.044284	0.413461
	N252	N	0.914866	0.469283	0.179928
	N253	N	0.090645	0.541502	0.178939
	N254	N	0.092389	0.470668	0.815900
	N255	N	0.915805	0.542074	0.817701
	N256	N	0.180544	0.923845	0.459261
	N257	N	0.183293	0.092374	0.535089
	N258	N	0.828539	0.089806	0.459831
	N259	N	0.826735	0.921004	0.534799
	N260	N	0.466001	0.181416	0.912088
	N261	N	0.540870	0.182634	0.082394
	N262	N	0.466333	0.828120	0.082171
	N263	N	0.541638	0.828281	0.911882
	N264	N	0.466727	0.920678	0.174308
	N265	N	0.541469	0.092230	0.175344
	N266	N	0.466940	0.089627	0.820024
	N267	N	0.541055	0.918200	0.818540
	N268	N	0.917968	0.186870	0.461644
	N269	N	0.092735	0.188296	0.534254
	N270	N	0.092689	0.825004	0.461669
	N271	N	0.917657	0.825562	0.534639
	N272	N	0.178969	0.467137	0.914844
	N273	N	0.179536	0.543167	0.082242
	N274	N	0.826530	0.467900	0.082921
	N275	N	0.828843	0.543910	0.915636
	O276	O	-0.015621	-0.002932	-0.053817
	H277	H	-0.012863	0.000719	-0.054860
	H278	H	-0.013852	-0.006539	-0.056072
	O279	O	0.520393	0.461517	0.603848
	H280	H	0.525235	0.465558	0.600134
	H281	H	0.526798	0.455989	0.603435
	O282	O	0.535648	0.490198	0.392291
	H283	H	0.532421	0.489273	0.398367
	H284	H	0.539744	0.498308	0.387638
	O285	O	1.033725	-0.066420	0.904063
	H286	H	1.038892	-0.079717	0.896996
	H287	H	1.026713	-0.074792	0.899648
	O288	O	0.985465	-0.035118	-0.050193
	H289	H	0.977861	-0.039757	-0.050103
	H290	H	0.978648	-0.037826	-0.039701
	O291	O	0.462825	0.491770	0.507932
	H292	H	0.468289	0.495542	0.515135
	H293	H	0.458611	0.498933	0.504839
	O294	O	1.009897	-0.064206	1.009971
	H295	H	1.015852	-0.066160	1.008952
	H296	H	1.003671	-0.056060	1.004676
	O297	O	0.033445	0.108561	-0.053572
	H298	H	0.033197	0.117794	-0.052120
	H299	H	0.028623	0.114959	-0.055017
	O300	O	0.456801	0.557550	0.562534
	H301	H	0.451594	0.560652	0.558587
	H302	H	0.468215	0.567066	0.561496
	O303	O	0.494122	0.492972	0.497368
	H304	H	0.489971	0.487697	0.508345
	H305	H	0.488821	0.488057	0.487770
	O306	O	0.984269	0.052380	-0.049716
	H307	H	0.978682	0.064230	-0.048253
	H308	H	0.982660	0.058923	-0.050412
	O309	O	-0.074844	-0.010574	1.009272
	H310	H	-0.066732	-0.017355	0.991360
	H311	H	-0.083761	-0.005589	1.008460
	O312	O	1.069511	0.970771	0.998344
	H313	H	1.067128	0.964408	0.997019
	H314	H	1.075759	0.957228	1.001556
	O315	O	0.553798	0.469847	0.496881
	H316	H	0.543157	0.462025	0.489576
	H317	H	0.554233	0.472024	0.497445
	O318	O	0.493866	0.522042	0.487014
	H319	H	0.488038	0.523812	0.487607
	H320	H	0.495836	0.526480	0.483864
	O321	O	-0.078648	0.966107	1.068836
	H322	H	-0.076913	0.957246	1.068011
	H323	H	-0.083126	0.962732	1.072861
	O324	O	0.449410	0.483476	0.490494
	H325	H	0.449473	0.488149	0.498672
	H326	H	0.447999	0.476623	0.487130
	O327	O	0.457523	0.510450	0.503061
	H328	H	0.460392	0.508246	0.495040
	H329	H	0.448918	0.514320	0.510542
	O330	O	0.468754	0.532426	0.515203
	H331	H	0.462471	0.522451	0.523264
	H332	H	0.468255	0.523629	0.514247
	O333	O	0.558091	0.395425	0.460260
	H334	H	0.560162	0.399408	0.469162
	H335	H	0.555911	0.390768	0.461928
	O336	O	0.553302	0.548255	0.518968
	H337	H	0.557980	0.541505	0.511379
	H338	H	0.553258	0.554548	0.517475
	O339	O	1.113612	0.979503	-0.033282
	H340	H	1.119752	0.978792	-0.038182
	H341	H	1.122229	0.986502	-0.031592
	O342	O	0.515213	0.534608	0.601341
	H343	H	0.516804	0.534527	0.609613
	H344	H	0.521146	0.532033	0.605466
	O345	O	0.590185	0.514077	0.457565
	H346	H	0.595489	0.504428	0.451262
	H347	H	0.593687	0.502519	0.452319
	O348	O	0.005235	0.043454	0.052388
	H349	H	0.004321	0.041125	0.060938
	H350	H	0.007200	0.045224	0.053322
	O351	O	-0.020830	0.966611	0.919504
	H352	H	-0.009306	0.972516	0.907848
	H353	H	-0.018472	0.963766	0.918943
	O354	O	0.520089	0.467765	0.439761
	H355	H	0.519553	0.467427	0.439952
	H356	H	0.516726	0.466191	0.441588
	O357	O	0.063400	1.051886	1.042856
	H358	H	0.065725	1.054727	1.049875
	H359	H	0.057526	1.047190	1.056540
