data_Molecule from HDF5

_cell_length_a		16.257285
_cell_length_b		16.309401
_cell_length_c		16.203316
_cell_angle_alpha	90.082856
_cell_angle_beta	89.832311
_cell_angle_gamma	89.821006
_symmetry_space_group_name_H-M	'P 1'
_symmetry_Int_Tables_number		1

loop_
	_symmetry_equiv_pos_as_xyz
	x,y,z

loop_
	_atom_site_label
	_atom_site_type_symbol
	_atom_site_fract_x
	_atom_site_fract_y
	_atom_site_fract_z
	H0	H	0.406373	0.828706	0.709518
	H1	H	0.600477	0.156610	0.711197
	H2	H	0.601143	0.828885	0.282323
	H3	H	0.404863	0.156804	0.281775
	H4	H	0.720231	0.393683	0.832302
	H5	H	0.718047	0.591183	0.160854
	H6	H	0.292094	0.590886	0.830883
	H7	H	0.288536	0.393885	0.159173
	H8	H	0.841064	0.709069	0.396009
	H9	H	0.167557	0.708521	0.595186
	H10	H	0.840030	0.280654	0.595865
	H11	H	0.167510	0.275920	0.395380
	H12	H	0.840656	0.396843	0.709820
	H13	H	0.168927	0.591314	0.709175
	H14	H	0.840867	0.591592	0.282084
	H15	H	0.168209	0.393708	0.280719
	H16	H	0.405746	0.708298	0.831994
	H17	H	0.604006	0.707201	0.160621
	H18	H	0.606013	0.277205	0.832572
	H19	H	0.404752	0.278272	0.160355
	H20	H	0.719892	0.830801	0.396107
	H21	H	0.716735	0.157462	0.594804
	H22	H	0.287932	0.829826	0.596781
	H23	H	0.289176	0.157106	0.398906
	H24	H	0.905755	0.330363	0.212125
	H25	H	0.103621	0.657036	0.210819
	H26	H	0.103627	0.329692	0.780051
	H27	H	0.907069	0.658320	0.783386
	H28	H	0.219007	0.894083	0.332507
	H29	H	0.216544	0.092098	0.661483
	H30	H	0.789669	0.092652	0.331325
	H31	H	0.788771	0.897319	0.660782
	H32	H	0.342554	0.210367	0.894853
	H33	H	0.668510	0.207570	0.096053
	H34	H	0.341095	0.778680	0.095975
	H35	H	0.668516	0.777937	0.896709
	H36	H	0.340344	0.894658	0.210362
	H37	H	0.668974	0.089840	0.209426
	H38	H	0.339499	0.089393	0.785168
	H39	H	0.668621	0.893606	0.781508
	H40	H	0.903075	0.209139	0.332223
	H41	H	0.100647	0.207902	0.660982
	H42	H	0.103749	0.779424	0.332142
	H43	H	0.904482	0.779772	0.660621
	H44	H	0.222457	0.330175	0.893126
	H45	H	0.218460	0.656606	0.093261
	H46	H	0.790476	0.329438	0.096040
	H47	H	0.788724	0.656050	0.897869
	H48	H	0.403658	0.110617	0.588511
	H49	H	0.595142	0.876597	0.592148
	H50	H	0.596700	0.110930	0.398891
	H51	H	0.413184	0.877447	0.401566
	H52	H	0.596955	0.397757	0.113600
	H53	H	0.593304	0.572147	0.885089
	H54	H	0.419697	0.579122	0.108679
	H55	H	0.414706	0.394102	0.877693
	H56	H	0.123697	0.594839	0.404193
	H57	H	0.886583	0.583488	0.595056
	H58	H	0.120353	0.394523	0.579514
	H59	H	0.886611	0.391812	0.408584
	H60	H	0.118533	0.408451	0.587324
	H61	H	0.885786	0.594012	0.589642
	H62	H	0.119169	0.582452	0.409135
	H63	H	0.891920	0.408320	0.408875
	H64	H	0.413763	0.597860	0.116135
	H65	H	0.587770	0.596544	0.878679
	H66	H	0.599455	0.399378	0.114844
	H67	H	0.409261	0.404895	0.878485
	H68	H	0.594013	0.108994	0.403542
	H69	H	0.593660	0.879089	0.583970
	H70	H	0.410623	0.110365	0.596325
	H71	H	0.411042	0.877736	0.406293
	H72	H	0.917201	0.608128	0.091164
	H73	H	0.095462	0.375200	0.097698
	H74	H	0.095537	0.609150	0.898890
	H75	H	0.921838	0.383059	0.911207
	H76	H	0.098349	0.903777	0.613961
	H77	H	0.095522	0.088590	0.378804
	H78	H	0.916206	0.097501	0.614686
	H79	H	0.906511	0.905473	0.379046
	H80	H	0.622004	0.084110	0.900495
	H81	H	0.390046	0.088030	0.078389
	H82	H	0.622278	0.900319	0.091188
	H83	H	0.386642	0.897586	0.900134
	H84	H	0.622105	0.896296	0.088246
	H85	H	0.390512	0.076998	0.090243
	H86	H	0.621434	0.086293	0.904034
	H87	H	0.387512	0.897043	0.905587
	H88	H	0.897692	0.088355	0.616913
	H89	H	0.099060	0.084123	0.379268
	H90	H	0.090915	0.901731	0.611436
	H91	H	0.917328	0.901424	0.381550
	H92	H	0.097510	0.607623	0.906369
	H93	H	0.088942	0.381488	0.082205
	H94	H	0.908436	0.608101	0.082444
	H95	H	0.898775	0.374226	0.906196
	H96	H	0.413348	0.107148	0.586707
	H97	H	0.601255	0.876786	0.586114
	H98	H	0.599245	0.110341	0.403075
	H99	H	0.407673	0.875757	0.401793
	H100	H	0.597476	0.400949	0.112826
	H101	H	0.611313	0.587357	0.875057
	H102	H	0.399839	0.581230	0.114792
	H103	H	0.421649	0.403096	0.882299
	H104	H	0.122586	0.583561	0.395157
	H105	H	0.889909	0.584262	0.583688
	H106	H	0.124527	0.395124	0.595347
	H107	H	0.885036	0.401802	0.394555
	H108	H	0.905594	0.612373	0.094535
	H109	H	0.105778	0.376252	0.082968
	H110	H	0.102565	0.611079	0.901767
	H111	H	0.917086	0.374660	0.888316
	H112	H	0.095891	0.896631	0.614852
	H113	H	0.093988	0.082926	0.381216
	H114	H	0.913725	0.077262	0.608600
	H115	H	0.909503	0.894387	0.376530
	H116	H	0.619980	0.082550	0.904170
	H117	H	0.385015	0.091833	0.092867
	H118	H	0.620301	0.900761	0.086648
	H119	H	0.388196	0.901372	0.902719
	C120	C	0.381290	0.001177	0.618581
	C121	C	0.624757	0.985316	0.616765
	C122	C	0.625309	0.001995	0.373609
	C123	C	0.381925	0.985064	0.374724
	C124	C	0.627140	0.370475	0.005234
	C125	C	0.626087	0.614259	0.988121
	C126	C	0.383242	0.614685	0.004320
	C127	C	0.384261	0.371389	0.987497
	C128	C	0.013145	0.615074	0.374314
	C129	C	0.995713	0.615588	0.618010
	C130	C	0.012633	0.371938	0.616711
	C131	C	0.995916	0.370809	0.374136
	C132	C	0.882459	0.501251	0.118259
	C133	C	0.125724	0.485257	0.117011
	C134	C	0.127331	0.501624	0.872971
	C135	C	0.883678	0.485405	0.874281
	C136	C	0.124503	0.872097	0.504841
	C137	C	0.124079	0.114392	0.488376
	C138	C	0.881093	0.116059	0.504754
	C139	C	0.881956	0.872488	0.487758
	C140	C	0.512933	0.113761	0.874426
	C141	C	0.496637	0.114068	0.116911
	C142	C	0.513293	0.870824	0.117755
	C143	C	0.495904	0.870199	0.873939
	C144	C	0.384992	0.877821	0.672470
	C145	C	0.621220	0.108027	0.672751
	C146	C	0.622280	0.878063	0.319625
	C147	C	0.384394	0.108100	0.319762
	C148	C	0.682387	0.373261	0.881330
	C149	C	0.680586	0.611434	0.111743
	C150	C	0.328961	0.611730	0.880397
	C151	C	0.327207	0.373446	0.110487
	C152	C	0.889775	0.670526	0.376202
	C153	C	0.118977	0.670340	0.615514
	C154	C	0.889000	0.318112	0.615416
	C155	C	0.118704	0.314442	0.375460
	C156	C	0.889546	0.375581	0.672294
	C157	C	0.119635	0.612220	0.672131
	C158	C	0.889511	0.612252	0.319909
	C159	C	0.119161	0.373110	0.318789
	C160	C	0.385601	0.669925	0.880823
	C161	C	0.624012	0.669320	0.111629
	C162	C	0.626105	0.315016	0.881578
	C163	C	0.384763	0.315891	0.110989
	C164	C	0.681258	0.879113	0.376028
	C165	C	0.678832	0.108625	0.614837
	C166	C	0.326140	0.878289	0.616195
	C167	C	0.326827	0.108295	0.378070
	C168	C	0.885483	0.378959	0.173971
	C169	C	0.123609	0.607985	0.172698
	C170	C	0.125031	0.378653	0.817353
	C171	C	0.886563	0.608852	0.820503
	C172	C	0.180980	0.873866	0.381588
	C173	C	0.178931	0.112517	0.612275
	C174	C	0.826942	0.113347	0.380625
	C175	C	0.826733	0.876006	0.611592
	C176	C	0.390780	0.171009	0.875672
	C177	C	0.619754	0.169010	0.115618
	C178	C	0.389889	0.816488	0.115678
	C179	C	0.619539	0.815472	0.876188
	C180	C	0.389426	0.874078	0.172552
	C181	C	0.619758	0.110584	0.172211
	C182	C	0.389282	0.110753	0.820913
	C183	C	0.619466	0.873054	0.818864
	C184	C	0.883529	0.171032	0.381044
	C185	C	0.121220	0.169855	0.612017
	C186	C	0.123742	0.816759	0.381325
	C187	C	0.884083	0.817516	0.611514
	C188	C	0.184029	0.379011	0.873502
	C189	C	0.180816	0.607856	0.114221
	C190	C	0.828060	0.378453	0.116189
	C191	C	0.827426	0.607915	0.877226
	C192	C	0.402722	0.087153	0.596795
	C193	C	0.602873	0.899652	0.594073
	C194	C	0.603149	0.087963	0.395332
	C195	C	0.404123	0.899259	0.396734
	C196	C	0.604538	0.392613	0.091357
	C197	C	0.604035	0.591851	0.901825
	C198	C	0.404795	0.592555	0.090748
	C199	C	0.408213	0.394118	0.901624
	C200	C	0.099364	0.593203	0.396242
	C201	C	0.909771	0.593539	0.596113
	C202	C	0.098903	0.393048	0.593905
	C203	C	0.910144	0.393838	0.397118
	C204	C	0.904036	0.587261	0.095832
	C205	C	0.103341	0.399781	0.094360
	C206	C	0.104991	0.587022	0.895772
	C207	C	0.905957	0.399599	0.895572
	C208	C	0.101800	0.894269	0.591116
	C209	C	0.102417	0.091848	0.402152
	C210	C	0.902904	0.094248	0.591009
	C211	C	0.904394	0.894150	0.401249
	C212	C	0.598989	0.091004	0.896656
	C213	C	0.410695	0.091975	0.093998
	C214	C	0.599259	0.892624	0.095203
	C215	C	0.409881	0.891941	0.896279
	Zn216	Zn	0.503703	-0.007764	0.746241
	Zn217	Zn	0.503802	-0.007286	0.245388
	Zn218	Zn	0.754068	0.492933	-0.003637
	Zn219	Zn	0.255396	0.493002	-0.004695
	Zn220	Zn	0.003964	0.743239	0.496030
	Zn221	Zn	0.002883	0.242891	0.496175
	Zn222	Zn	0.005173	0.493274	0.745146
	Zn223	Zn	0.004525	0.493830	0.246569
	Zn224	Zn	0.504736	0.742717	-0.003476
	Zn225	Zn	0.505538	0.242901	-0.003810
	Zn226	Zn	0.754043	-0.005324	0.495643
	Zn227	Zn	0.252823	-0.006823	0.497004
	N228	N	0.418263	0.955185	0.674343
	N229	N	0.588352	0.030265	0.674187
	N230	N	0.588192	0.955336	0.318092
	N231	N	0.417990	0.030605	0.317637
	N232	N	0.683435	0.406818	0.959299
	N233	N	0.682026	0.577868	0.033894
	N234	N	0.327035	0.578365	0.958302
	N235	N	0.326765	0.407165	0.032721
	N236	N	0.967632	0.672205	0.409567
	N237	N	0.040956	0.672781	0.582921
	N238	N	0.966616	0.315761	0.581675
	N239	N	0.040976	0.312932	0.408935
	N240	N	0.967345	0.408541	0.673281
	N241	N	0.041958	0.578773	0.673704
	N242	N	0.967178	0.578789	0.318493
	N243	N	0.041697	0.407479	0.317782
	N244	N	0.418724	0.671612	0.958848
	N245	N	0.590870	0.671234	0.033588
	N246	N	0.592332	0.313275	0.959530
	N247	N	0.419481	0.314505	0.033307
	N248	N	0.683180	0.956957	0.409001
	N249	N	0.681134	0.031359	0.580841
	N250	N	0.323775	0.956098	0.583469
	N251	N	0.325223	0.030774	0.411568
	N252	N	0.918437	0.456531	0.175442
	N253	N	0.090003	0.530690	0.174391
	N254	N	0.090565	0.455819	0.816726
	N255	N	0.920873	0.531637	0.818715
	N256	N	0.181819	0.907510	0.459457
	N257	N	0.180767	0.078551	0.534464
	N258	N	0.825206	0.079847	0.458388
	N259	N	0.825397	0.909207	0.533620
	N260	N	0.468806	0.172983	0.908287
	N261	N	0.542125	0.171289	0.081816
	N262	N	0.467807	0.814424	0.082278
	N263	N	0.541831	0.813599	0.909721
	N264	N	0.467062	0.907191	0.174088
	N265	N	0.542029	0.077216	0.173036
	N266	N	0.466518	0.076017	0.819848
	N267	N	0.541497	0.906249	0.817174
	N268	N	0.916532	0.172665	0.459134
	N269	N	0.088024	0.171219	0.534066
	N270	N	0.089413	0.815530	0.459083
	N271	N	0.917665	0.815145	0.533388
	N272	N	0.185418	0.456291	0.907685
	N273	N	0.182069	0.530685	0.080033
	N274	N	0.826226	0.455706	0.082049
	N275	N	0.825449	0.530209	0.909967
	O276	O	0.927225	0.974023	-0.104117
	H277	H	0.931414	0.980293	-0.112335
	H278	H	0.926109	0.967629	-0.108448
	O279	O	-0.002822	-0.006463	1.057765
	H280	H	-0.016608	-0.007495	1.051453
	H281	H	-0.001460	-0.017762	1.063565
	O282	O	0.015240	0.035038	-0.019928
	H283	H	0.027902	0.020567	-0.021998
	H284	H	0.019072	0.037324	-0.013466
	O285	O	0.464120	0.497946	0.520349
	H286	H	0.463338	0.495036	0.510833
	H287	H	0.468867	0.500732	0.515987
	O288	O	0.033655	0.001386	0.003168
	H289	H	0.035293	-0.001203	0.008591
	H290	H	0.036898	0.006347	0.012164
	O291	O	0.057847	0.913341	-0.013756
	H292	H	0.055607	0.899939	-0.014935
	H293	H	0.068403	0.911161	-0.002249
	O294	O	-0.034689	1.027601	0.029280
	H295	H	-0.039601	1.027950	0.028391
	H296	H	-0.041915	1.029539	0.033286
	O297	O	0.555284	0.492860	0.492891
	H298	H	0.566251	0.498320	0.493153
	H299	H	0.558165	0.501631	0.484146
	O300	O	0.560989	0.578150	0.530684
	H301	H	0.561401	0.585042	0.534323
	H302	H	0.555306	0.566814	0.533268
	O303	O	1.001435	0.064036	0.994384
	H304	H	1.011885	0.073737	0.990987
	H305	H	0.999840	0.062206	0.989779
	O306	O	0.048264	1.038951	0.939760
	H307	H	0.042932	1.030271	0.936892
	H308	H	0.049319	1.040141	0.936091
	O309	O	0.092103	1.067626	1.035373
	H310	H	0.103317	1.074532	1.056030
	H311	H	0.088875	1.073594	1.035122
	O312	O	0.083598	0.004207	1.058542
	H313	H	0.088520	0.004893	1.037130
	H314	H	0.072842	0.005453	1.054190
	O315	O	0.495157	0.500070	0.542747
	H316	H	0.497214	0.508587	0.546456
	H317	H	0.497895	0.493764	0.542951
	O318	O	0.013946	-0.048959	1.019201
	H319	H	0.016405	-0.046036	1.019545
	H320	H	0.004366	-0.044181	1.024191
	O321	O	0.469178	0.496624	0.559136
	H322	H	0.465124	0.496920	0.567562
	H323	H	0.459331	0.500933	0.558514
	O324	O	1.097841	0.011159	1.003533
	H325	H	1.106762	0.009416	1.004127
	H326	H	1.089721	0.012478	1.000135
	O327	O	0.944186	1.028291	0.999501
	H328	H	0.942688	1.014795	1.006788
	H329	H	0.944540	1.034168	0.999563
	O330	O	0.507043	0.497691	0.557085
	H331	H	0.508430	0.492306	0.567282
	H332	H	0.514318	0.491105	0.556083
	O333	O	0.572730	0.507433	0.475350
	H334	H	0.576106	0.503626	0.473831
	H335	H	0.570485	0.511508	0.478469
	O336	O	0.495613	0.502607	0.536615
	H337	H	0.489030	0.519241	0.538273
	H338	H	0.494678	0.502166	0.542840
	O339	O	-0.054070	1.041206	-0.099679
	H340	H	-0.057737	1.048379	-0.102573
	H341	H	-0.060888	1.054014	-0.110043
	O342	O	0.511755	0.472036	0.542088
	H343	H	0.505982	0.470614	0.553479
	H344	H	0.515853	0.467843	0.540001
	O345	O	0.528601	0.505529	0.540138
	H346	H	0.524942	0.504987	0.535829
	H347	H	0.530836	0.499445	0.538025
