data_Molecule from HDF5

_cell_length_a		16.207354
_cell_length_b		16.192963
_cell_length_c		16.402913
_cell_angle_alpha	89.827924
_cell_angle_beta	89.913572
_cell_angle_gamma	89.887391
_symmetry_space_group_name_H-M	'P 1'
_symmetry_Int_Tables_number		1

loop_
	_symmetry_equiv_pos_as_xyz
	x,y,z

loop_
	_atom_site_label
	_atom_site_type_symbol
	_atom_site_fract_x
	_atom_site_fract_y
	_atom_site_fract_z
	H0	H	0.397841	0.841960	0.716484
	H1	H	0.597459	0.169713	0.715978
	H2	H	0.599918	0.842433	0.285622
	H3	H	0.397239	0.169670	0.285404
	H4	H	0.712620	0.409415	0.838206
	H5	H	0.711864	0.605702	0.164042
	H6	H	0.281942	0.605834	0.837927
	H7	H	0.282545	0.408412	0.163379
	H8	H	0.833259	0.721393	0.403893
	H9	H	0.163246	0.717588	0.596282
	H10	H	0.833786	0.292331	0.599876
	H11	H	0.162698	0.294679	0.404801
	H12	H	0.833672	0.407086	0.717238
	H13	H	0.161603	0.607229	0.716485
	H14	H	0.833702	0.608359	0.285831
	H15	H	0.160453	0.405442	0.284516
	H16	H	0.398400	0.721740	0.837977
	H17	H	0.595429	0.722045	0.163270
	H18	H	0.596264	0.291765	0.837179
	H19	H	0.396590	0.290032	0.162603
	H20	H	0.712068	0.841696	0.404302
	H21	H	0.709539	0.171921	0.596644
	H22	H	0.286147	0.841314	0.597583
	H23	H	0.285112	0.171184	0.403668
	H24	H	0.896405	0.342817	0.217399
	H25	H	0.096325	0.671125	0.215693
	H26	H	0.098802	0.343090	0.786070
	H27	H	0.896675	0.671078	0.784824
	H28	H	0.212702	0.910080	0.338117
	H29	H	0.211708	0.103376	0.664422
	H30	H	0.782850	0.106709	0.338426
	H31	H	0.783427	0.908621	0.663480
	H32	H	0.331775	0.218330	0.904973
	H33	H	0.661249	0.219297	0.096865
	H34	H	0.331710	0.794009	0.098175
	H35	H	0.661670	0.793801	0.904479
	H36	H	0.333084	0.905540	0.217541
	H37	H	0.660359	0.107643	0.216576
	H38	H	0.332828	0.107704	0.784963
	H39	H	0.660670	0.905582	0.785512
	H40	H	0.899340	0.223042	0.338553
	H41	H	0.096142	0.220854	0.663783
	H42	H	0.097455	0.791779	0.338294
	H43	H	0.900625	0.792852	0.663945
	H44	H	0.209604	0.341710	0.905418
	H45	H	0.209447	0.672226	0.096898
	H46	H	0.784151	0.341693	0.098502
	H47	H	0.784673	0.672522	0.904305
	H48	H	0.401758	0.124974	0.597510
	H49	H	0.587927	0.887210	0.602490
	H50	H	0.590100	0.125364	0.401467
	H51	H	0.397662	0.888472	0.414866
	H52	H	0.593505	0.407554	0.118313
	H53	H	0.578535	0.605239	0.888457
	H54	H	0.394386	0.603082	0.119690
	H55	H	0.413049	0.418377	0.888877
	H56	H	0.114086	0.597016	0.406103
	H57	H	0.882890	0.595277	0.592035
	H58	H	0.115699	0.409464	0.591415
	H59	H	0.881314	0.414011	0.411757
	H60	H	0.112670	0.419555	0.592877
	H61	H	0.879248	0.598449	0.600082
	H62	H	0.114956	0.599121	0.406466
	H63	H	0.881443	0.419447	0.409085
	H64	H	0.403519	0.590327	0.113476
	H65	H	0.599507	0.606316	0.880714
	H66	H	0.592206	0.418812	0.115352
	H67	H	0.403699	0.401160	0.881830
	H68	H	0.583433	0.121778	0.409449
	H69	H	0.584053	0.892203	0.588854
	H70	H	0.409549	0.123406	0.596508
	H71	H	0.404522	0.885187	0.398419
	H72	H	0.900972	0.626189	0.100054
	H73	H	0.095431	0.389156	0.089844
	H74	H	0.093959	0.625709	0.906501
	H75	H	0.912231	0.391642	0.906274
	H76	H	0.092372	0.915385	0.616326
	H77	H	0.092345	0.097657	0.386471
	H78	H	0.902844	0.095848	0.615129
	H79	H	0.916157	0.913622	0.388557
	H80	H	0.615574	0.098198	0.901738
	H81	H	0.381347	0.091105	0.096308
	H82	H	0.615670	0.908056	0.097170
	H83	H	0.380171	0.914711	0.908857
	H84	H	0.611396	0.913785	0.088330
	H85	H	0.376541	0.101575	0.099695
	H86	H	0.614174	0.102795	0.909853
	H87	H	0.379528	0.915773	0.906208
	H88	H	0.908003	0.099420	0.615826
	H89	H	0.089403	0.102070	0.385693
	H90	H	0.089719	0.907786	0.617316
	H91	H	0.900657	0.905553	0.381015
	H92	H	0.086653	0.624592	0.902887
	H93	H	0.090751	0.387156	0.102857
	H94	H	0.911460	0.622358	0.095327
	H95	H	0.902599	0.391053	0.914726
	H96	H	0.404280	0.123172	0.590011
	H97	H	0.598652	0.887506	0.591162
	H98	H	0.593954	0.123323	0.410973
	H99	H	0.415118	0.892475	0.411585
	H100	H	0.583145	0.410935	0.113845
	H101	H	0.591912	0.587611	0.889034
	H102	H	0.410949	0.605804	0.116127
	H103	H	0.392979	0.418661	0.883187
	H104	H	0.114361	0.598503	0.407392
	H105	H	0.879770	0.603902	0.592627
	H106	H	0.116804	0.413350	0.600983
	H107	H	0.878928	0.413783	0.405955
	H108	H	0.901883	0.622870	0.088661
	H109	H	0.081917	0.392647	0.093053
	H110	H	0.087319	0.622870	0.910789
	H111	H	0.900763	0.387211	0.902589
	H112	H	0.096962	0.909394	0.619157
	H113	H	0.094507	0.102135	0.383996
	H114	H	0.902289	0.101818	0.617911
	H115	H	0.900376	0.923560	0.386786
	H116	H	0.612166	0.093988	0.908378
	H117	H	0.381100	0.099232	0.089022
	H118	H	0.612742	0.919356	0.097703
	H119	H	0.378339	0.912723	0.907084
	C120	C	0.376485	0.014731	0.622858
	C121	C	0.618848	0.997761	0.622563
	C122	C	0.618866	0.014778	0.379153
	C123	C	0.377036	0.997464	0.380105
	C124	C	0.619050	0.384003	0.008539
	C125	C	0.618976	0.628674	0.992849
	C126	C	0.374305	0.628719	0.009145
	C127	C	0.374913	0.384235	0.992110
	C128	C	0.005864	0.628299	0.378926
	C129	C	0.989493	0.627456	0.622457
	C130	C	0.006114	0.385436	0.623321
	C131	C	0.989073	0.386195	0.380365
	C132	C	0.875168	0.515337	0.123425
	C133	C	0.117852	0.498465	0.122539
	C134	C	0.118516	0.515685	0.879067
	C135	C	0.876020	0.498791	0.879396
	C136	C	0.121058	0.883566	0.509671
	C137	C	0.120200	0.128451	0.493046
	C138	C	0.875563	0.128950	0.509343
	C139	C	0.877000	0.885492	0.492685
	C140	C	0.505108	0.127452	0.878717
	C141	C	0.488352	0.126918	0.122594
	C142	C	0.504891	0.885145	0.123028
	C143	C	0.488395	0.885386	0.879656
	C144	C	0.378430	0.891105	0.678067
	C145	C	0.617024	0.121080	0.677422
	C146	C	0.618401	0.891299	0.324047
	C147	C	0.377842	0.121000	0.324128
	C148	C	0.674683	0.387572	0.886494
	C149	C	0.674067	0.626060	0.115225
	C150	C	0.319694	0.626234	0.886370
	C151	C	0.320020	0.387109	0.114767
	C152	C	0.882248	0.683948	0.382581
	C153	C	0.113831	0.680926	0.617981
	C154	C	0.882436	0.330359	0.620628
	C155	C	0.113083	0.331503	0.383534
	C156	C	0.882760	0.386910	0.679199
	C157	C	0.112774	0.626052	0.677754
	C158	C	0.882420	0.627472	0.324098
	C159	C	0.112109	0.386990	0.324138
	C160	C	0.377419	0.683996	0.886623
	C161	C	0.616044	0.683800	0.115045
	C162	C	0.616707	0.329353	0.886205
	C163	C	0.376930	0.328359	0.114237
	C164	C	0.674266	0.890825	0.382966
	C165	C	0.673065	0.122081	0.618346
	C166	C	0.322988	0.890481	0.618974
	C167	C	0.322294	0.121644	0.382994
	C168	C	0.876974	0.391735	0.178897
	C169	C	0.115938	0.622242	0.177244
	C170	C	0.117715	0.391897	0.824449
	C171	C	0.877522	0.622477	0.823898
	C172	C	0.175600	0.888024	0.386912
	C173	C	0.174507	0.124945	0.615666
	C174	C	0.820363	0.127534	0.386968
	C175	C	0.821189	0.887648	0.615129
	C176	C	0.380936	0.181546	0.883061
	C177	C	0.611959	0.181983	0.118267
	C178	C	0.380998	0.830817	0.119561
	C179	C	0.612307	0.830800	0.883160
	C180	C	0.381776	0.886150	0.179091
	C181	C	0.611619	0.126470	0.177818
	C182	C	0.381717	0.126507	0.823518
	C183	C	0.611824	0.886353	0.824069
	C184	C	0.878265	0.185173	0.387220
	C185	C	0.116751	0.182863	0.615374
	C186	C	0.118303	0.829417	0.386866
	C187	C	0.879537	0.830065	0.615214
	C188	C	0.173227	0.391207	0.883337
	C189	C	0.172479	0.622677	0.118535
	C190	C	0.821157	0.391063	0.119761
	C191	C	0.821369	0.622970	0.882771
	C192	C	0.398630	0.101479	0.601163
	C193	C	0.596785	0.911130	0.600592
	C194	C	0.595940	0.101132	0.400873
	C195	C	0.399240	0.911150	0.401885
	C196	C	0.596375	0.405978	0.093949
	C197	C	0.596578	0.606360	0.907976
	C198	C	0.396348	0.606303	0.094267
	C199	C	0.396832	0.406225	0.906756
	C200	C	0.092202	0.605087	0.400379
	C201	C	0.903025	0.605745	0.601200
	C202	C	0.092556	0.407509	0.601493
	C203	C	0.902887	0.409059	0.402464
	C204	C	0.897926	0.601507	0.101161
	C205	C	0.095920	0.412172	0.101459
	C206	C	0.095866	0.601881	0.900343
	C207	C	0.898520	0.412470	0.901378
	C208	C	0.099470	0.904649	0.595426
	C209	C	0.098404	0.107138	0.407519
	C210	C	0.897795	0.105760	0.594219
	C211	C	0.899127	0.907823	0.407631
	C212	C	0.591562	0.105002	0.900340
	C213	C	0.402038	0.104028	0.101246
	C214	C	0.590893	0.907338	0.100970
	C215	C	0.401627	0.907712	0.901225
	Zn216	Zn	0.496967	0.006215	0.750877
	Zn217	Zn	0.497242	0.005960	0.251458
	Zn218	Zn	0.748203	0.506796	0.001068
	Zn219	Zn	0.246178	0.506701	0.000723
	Zn220	Zn	-0.001714	0.755475	0.501192
	Zn221	Zn	-0.002004	0.257724	0.501526
	Zn222	Zn	-0.002358	0.506949	0.751291
	Zn223	Zn	-0.003157	0.507029	0.251683
	Zn224	Zn	0.496472	0.757266	0.000901
	Zn225	Zn	0.496281	0.254813	0.000333
	Zn226	Zn	0.746912	0.006892	0.500380
	Zn227	Zn	0.248935	0.006704	0.501539
	N228	N	0.411197	0.969463	0.680281
	N229	N	0.584253	0.042841	0.680128
	N230	N	0.584939	0.969543	0.321337
	N231	N	0.411357	0.042984	0.322393
	N232	N	0.676350	0.420773	0.963517
	N233	N	0.675837	0.592319	0.038352
	N234	N	0.317525	0.592698	0.963528
	N235	N	0.318525	0.421214	0.037872
	N236	N	0.960077	0.684433	0.415886
	N237	N	0.036180	0.681757	0.584167
	N238	N	0.960132	0.329244	0.586809
	N239	N	0.035667	0.331346	0.418205
	N240	N	0.960650	0.420496	0.680659
	N241	N	0.034482	0.593433	0.680527
	N242	N	0.960327	0.593703	0.321757
	N243	N	0.033928	0.420236	0.321944
	N244	N	0.410998	0.685310	0.963679
	N245	N	0.582379	0.685592	0.038135
	N246	N	0.582672	0.327162	0.963331
	N247	N	0.410215	0.326436	0.036985
	N248	N	0.674673	0.968558	0.416518
	N249	N	0.674279	0.044059	0.584938
	N250	N	0.321735	0.968382	0.585226
	N251	N	0.321384	0.043794	0.417041
	N252	N	0.909715	0.470091	0.181345
	N253	N	0.082990	0.543980	0.180100
	N254	N	0.084371	0.469938	0.821730
	N255	N	0.910496	0.544228	0.821537
	N256	N	0.177433	0.920969	0.464176
	N257	N	0.176968	0.091984	0.538556
	N258	N	0.818558	0.093354	0.463827
	N259	N	0.819246	0.921331	0.538065
	N260	N	0.458588	0.182319	0.916526
	N261	N	0.534195	0.182175	0.084637
	N262	N	0.458559	0.829831	0.085392
	N263	N	0.534489	0.830074	0.916876
	N264	N	0.459856	0.919205	0.181157
	N265	N	0.533716	0.092863	0.180502
	N266	N	0.460013	0.093404	0.820823
	N267	N	0.533578	0.919619	0.821870
	N268	N	0.911909	0.186285	0.464250
	N269	N	0.083742	0.185090	0.538222
	N270	N	0.085068	0.826569	0.464060
	N271	N	0.913584	0.828795	0.538283
	N272	N	0.173847	0.469151	0.916857
	N273	N	0.173833	0.544717	0.085157
	N274	N	0.819995	0.468851	0.085910
	N275	N	0.820625	0.545199	0.916985
	O276	O	0.522347	0.565559	0.555878
	H277	H	0.518203	0.559943	0.549656
	H278	H	0.526246	0.567173	0.558838
	O279	O	0.535712	0.463207	0.548766
	H280	H	0.536455	0.461794	0.553257
	H281	H	0.534172	0.461872	0.557658
	O282	O	0.554029	0.464906	0.529248
	H283	H	0.547199	0.477239	0.528555
	H284	H	0.562353	0.470988	0.529306
	O285	O	0.565442	0.450893	1.449745
	H286	H	0.575268	0.452138	1.441067
	H287	H	0.557242	0.448085	1.453662
	O288	O	-0.223360	-0.176893	1.178587
	H289	H	-0.221336	-0.185039	1.186827
	H290	H	-0.226901	-0.174974	1.169578
	O291	O	-0.554646	0.484702	0.481137
	H292	H	-0.553316	0.483473	0.470069
	H293	H	-0.564759	0.482431	0.478070
	O294	O	0.422291	0.464479	0.418594
	H295	H	0.430840	0.463521	0.420660
	H296	H	0.415089	0.451593	0.420348
	O297	O	0.512614	0.538476	0.481999
	H298	H	0.515468	0.550129	0.480053
	H299	H	0.514814	0.532349	0.496324
	O300	O	0.486454	0.504782	0.484527
	H301	H	0.488336	0.513345	0.486374
	H302	H	0.480577	0.507409	0.478108
	O303	O	0.478196	0.525030	0.410158
	H304	H	0.480056	0.516879	0.416918
	H305	H	0.476156	0.513686	0.416424
	O306	O	0.881176	0.013043	0.956341
	H307	H	0.879508	0.020538	0.956889
	H308	H	0.881091	0.013914	0.961473
	O309	O	0.517893	0.506376	0.512630
	H310	H	0.517821	0.489259	0.517412
	H311	H	0.516887	0.503897	0.517853
	O312	O	0.556725	0.536290	0.440332
	H313	H	0.551439	0.534691	0.431381
	H314	H	0.560739	0.539958	0.440110
	O315	O	0.891976	-0.010031	1.020333
	H316	H	0.888944	-0.012486	1.018743
	H317	H	0.891018	-0.003216	1.011563
	O318	O	0.517087	-0.399753	-0.454803
	H319	H	0.519448	-0.394963	-0.454803
	H320	H	0.508947	-0.392458	-0.461355
	O321	O	0.928227	0.996973	0.015715
	H322	H	0.928711	0.990770	0.010595
	H323	H	0.924473	0.983327	0.019969
	O324	O	0.920323	0.013744	-0.036765
	H325	H	0.914742	0.019346	-0.032612
	H326	H	0.918969	0.018025	-0.046063
	O327	O	0.921404	0.993900	0.024607
	H328	H	0.920285	0.988617	0.036510
	H329	H	0.907019	0.999057	0.026968
	O330	O	0.531975	0.476189	0.471806
	H331	H	0.539759	0.470017	0.460326
	H332	H	0.519431	0.493526	0.459653
	O333	O	0.495344	0.467423	0.605223
	H334	H	0.501957	0.466534	0.614343
	H335	H	0.500951	0.460684	0.606589
