data_Molecule from HDF5

_cell_length_a		16.283165
_cell_length_b		16.206193
_cell_length_c		16.264087
_cell_angle_alpha	89.703076
_cell_angle_beta	89.900599
_cell_angle_gamma	90.628280
_symmetry_space_group_name_H-M	'P 1'
_symmetry_Int_Tables_number		1

loop_
	_symmetry_equiv_pos_as_xyz
	x,y,z

loop_
	_atom_site_label
	_atom_site_type_symbol
	_atom_site_fract_x
	_atom_site_fract_y
	_atom_site_fract_z
	H0	H	0.396054	0.837621	0.710038
	H1	H	0.596395	0.166790	0.707990
	H2	H	0.594615	0.838201	0.280901
	H3	H	0.397242	0.165099	0.276858
	H4	H	0.712250	0.404784	0.831580
	H5	H	0.715735	0.603044	0.158032
	H6	H	0.286865	0.599468	0.830774
	H7	H	0.280771	0.399765	0.158235
	H8	H	0.833876	0.715350	0.395439
	H9	H	0.161454	0.717228	0.591084
	H10	H	0.834902	0.284567	0.596297
	H11	H	0.162021	0.290481	0.397769
	H12	H	0.834371	0.401040	0.711358
	H13	H	0.161955	0.603225	0.709045
	H14	H	0.834896	0.600090	0.278750
	H15	H	0.161454	0.404124	0.279989
	H16	H	0.403572	0.715148	0.832070
	H17	H	0.598960	0.717138	0.159331
	H18	H	0.594666	0.291255	0.830561
	H19	H	0.396481	0.284439	0.158502
	H20	H	0.710247	0.837943	0.396905
	H21	H	0.715359	0.164894	0.594772
	H22	H	0.280120	0.838005	0.595580
	H23	H	0.283667	0.166535	0.395527
	H24	H	0.896399	0.337848	0.211464
	H25	H	0.098181	0.666598	0.207169
	H26	H	0.095006	0.337234	0.780740
	H27	H	0.903356	0.666805	0.780537
	H28	H	0.211530	0.905168	0.332865
	H29	H	0.212292	0.102263	0.659182
	H30	H	0.782746	0.103016	0.332581
	H31	H	0.779668	0.898151	0.658413
	H32	H	0.333311	0.215393	0.896106
	H33	H	0.661047	0.219167	0.093437
	H34	H	0.335589	0.784034	0.095351
	H35	H	0.662191	0.792564	0.898482
	H36	H	0.334220	0.898922	0.211616
	H37	H	0.659647	0.106028	0.212432
	H38	H	0.332912	0.099004	0.781021
	H39	H	0.660110	0.905258	0.779103
	H40	H	0.899617	0.217326	0.332459
	H41	H	0.097855	0.217296	0.659487
	H42	H	0.095239	0.791941	0.331115
	H43	H	0.897060	0.784691	0.658462
	H44	H	0.210598	0.336618	0.896894
	H45	H	0.214486	0.665910	0.091622
	H46	H	0.779929	0.338681	0.096542
	H47	H	0.786407	0.666921	0.894170
	H48	H	0.402695	0.121477	0.592481
	H49	H	0.589377	0.880695	0.600331
	H50	H	0.579018	0.114605	0.403605
	H51	H	0.401539	0.885012	0.401712
	H52	H	0.583289	0.408774	0.110219
	H53	H	0.589864	0.602120	0.878276
	H54	H	0.398172	0.591794	0.114678
	H55	H	0.415214	0.405482	0.880348
	H56	H	0.114669	0.608310	0.409100
	H57	H	0.883844	0.589425	0.585815
	H58	H	0.112442	0.419499	0.589875
	H59	H	0.883427	0.412444	0.401614
	H60	H	0.117751	0.406152	0.595627
	H61	H	0.880267	0.591203	0.594330
	H62	H	0.110236	0.584864	0.405732
	H63	H	0.880307	0.405942	0.400034
	H64	H	0.408636	0.586340	0.109350
	H65	H	0.597916	0.599094	0.876093
	H66	H	0.592246	0.405707	0.113757
	H67	H	0.396151	0.400671	0.873528
	H68	H	0.595828	0.117411	0.413902
	H69	H	0.576611	0.888961	0.585549
	H70	H	0.408605	0.118222	0.587819
	H71	H	0.404797	0.885943	0.403440
	H72	H	0.906114	0.618112	0.084021
	H73	H	0.087138	0.384362	0.089753
	H74	H	0.101541	0.624848	0.890362
	H75	H	0.905595	0.384421	0.900868
	H76	H	0.098436	0.912469	0.614094
	H77	H	0.090782	0.097347	0.378992
	H78	H	0.914728	0.091072	0.608858
	H79	H	0.908098	0.899288	0.376684
	H80	H	0.610550	0.096028	0.908874
	H81	H	0.379169	0.092781	0.092337
	H82	H	0.616103	0.913228	0.096922
	H83	H	0.381986	0.907905	0.906389
	H84	H	0.615387	0.904775	0.084854
	H85	H	0.382262	0.096335	0.081907
	H86	H	0.613252	0.090493	0.894010
	H87	H	0.380386	0.909475	0.899259
	H88	H	0.903427	0.100061	0.614483
	H89	H	0.091393	0.095319	0.378661
	H90	H	0.081740	0.914837	0.609888
	H91	H	0.892763	0.912387	0.377394
	H92	H	0.080442	0.615886	0.899790
	H93	H	0.088501	0.385858	0.084810
	H94	H	0.906335	0.620364	0.088435
	H95	H	0.905874	0.386961	0.906919
	H96	H	0.401741	0.119179	0.584890
	H97	H	0.597008	0.883933	0.580441
	H98	H	0.595556	0.123070	0.393904
	H99	H	0.401919	0.884910	0.405544
	H100	H	0.591549	0.415363	0.110766
	H101	H	0.591868	0.593508	0.880244
	H102	H	0.409253	0.598150	0.113012
	H103	H	0.400179	0.419521	0.880980
	H104	H	0.118891	0.599195	0.387106
	H105	H	0.879978	0.597407	0.586922
	H106	H	0.113361	0.405797	0.581192
	H107	H	0.882319	0.407208	0.407052
	H108	H	0.910404	0.617810	0.087073
	H109	H	0.091355	0.384255	0.088771
	H110	H	0.100439	0.616859	0.913836
	H111	H	0.900011	0.384366	0.904748
	H112	H	0.087298	0.899579	0.614967
	H113	H	0.089869	0.095316	0.380021
	H114	H	0.900556	0.085417	0.611708
	H115	H	0.910023	0.918429	0.382999
	H116	H	0.617149	0.105747	0.897359
	H117	H	0.384308	0.086000	0.085393
	H118	H	0.610731	0.918355	0.084624
	H119	H	0.378659	0.903042	0.902174
	C120	C	0.374995	0.010661	0.617287
	C121	C	0.617833	0.993450	0.616635
	C122	C	0.618151	0.010512	0.374644
	C123	C	0.374631	0.993569	0.373749
	C124	C	0.618024	0.381904	0.003496
	C125	C	0.621439	0.625822	0.986840
	C126	C	0.378147	0.621583	0.004060
	C127	C	0.374394	0.378469	0.986230
	C128	C	0.006335	0.624860	0.372358
	C129	C	0.989698	0.622963	0.616563
	C130	C	0.006612	0.380354	0.617610
	C131	C	0.990059	0.380709	0.374501
	C132	C	0.876892	0.510570	0.116511
	C133	C	0.119250	0.493146	0.116001
	C134	C	0.120769	0.510241	0.873103
	C135	C	0.877006	0.493868	0.874284
	C136	C	0.117985	0.881622	0.504613
	C137	C	0.119569	0.124577	0.487374
	C138	C	0.876748	0.122635	0.504314
	C139	C	0.874508	0.879691	0.486856
	C140	C	0.505316	0.124452	0.872431
	C141	C	0.489185	0.123155	0.116325
	C142	C	0.506420	0.880697	0.117683
	C143	C	0.488766	0.880708	0.874065
	C144	C	0.376201	0.886860	0.672348
	C145	C	0.616698	0.117409	0.670711
	C146	C	0.615287	0.887075	0.318998
	C147	C	0.376937	0.116593	0.316244
	C148	C	0.674073	0.384547	0.880319
	C149	C	0.677249	0.623004	0.109526
	C150	C	0.324426	0.619359	0.880091
	C151	C	0.318688	0.379618	0.109539
	C152	C	0.883106	0.678491	0.375026
	C153	C	0.112701	0.679512	0.612833
	C154	C	0.883550	0.323188	0.616394
	C155	C	0.112973	0.327158	0.376831
	C156	C	0.883349	0.381106	0.673489
	C157	C	0.112929	0.622553	0.671153
	C158	C	0.883444	0.621013	0.316963
	C159	C	0.112654	0.383819	0.318352
	C160	C	0.382403	0.676828	0.880516
	C161	C	0.619488	0.680006	0.110197
	C162	C	0.615273	0.328186	0.879765
	C163	C	0.376325	0.322606	0.109538
	C164	C	0.672836	0.887129	0.376489
	C165	C	0.676175	0.116214	0.614921
	C166	C	0.318612	0.886994	0.615449
	C167	C	0.320653	0.117055	0.375138
	C168	C	0.877035	0.387253	0.173255
	C169	C	0.118334	0.617274	0.169925
	C170	C	0.116028	0.386168	0.818538
	C171	C	0.881709	0.617714	0.818527
	C172	C	0.173533	0.884772	0.381420
	C173	C	0.174812	0.122385	0.610317
	C174	C	0.820617	0.122514	0.381621
	C175	C	0.818266	0.879643	0.609762
	C176	C	0.382202	0.177880	0.875745
	C177	C	0.611810	0.181106	0.114471
	C178	C	0.384110	0.822262	0.116246
	C179	C	0.612837	0.828792	0.877268
	C180	C	0.383323	0.879826	0.173481
	C181	C	0.611347	0.124380	0.173160
	C182	C	0.382034	0.120566	0.817899
	C183	C	0.611825	0.884764	0.818108
	C184	C	0.878774	0.179589	0.381560
	C185	C	0.117760	0.179692	0.610487
	C186	C	0.115810	0.828133	0.380824
	C187	C	0.876308	0.822896	0.609681
	C188	C	0.173922	0.386103	0.875934
	C189	C	0.175911	0.617120	0.112573
	C190	C	0.819010	0.387590	0.116024
	C191	C	0.823534	0.617567	0.875009
	C192	C	0.397696	0.097198	0.595024
	C193	C	0.594289	0.907062	0.595189
	C194	C	0.596458	0.096115	0.397089
	C195	C	0.396296	0.907580	0.396933
	C196	C	0.595603	0.403671	0.089387
	C197	C	0.599472	0.604636	0.900453
	C198	C	0.399404	0.598868	0.090275
	C199	C	0.397153	0.401830	0.900474
	C200	C	0.092535	0.603827	0.394177
	C201	C	0.903724	0.599610	0.595153
	C202	C	0.092271	0.403595	0.595191
	C203	C	0.904075	0.402067	0.396677
	C204	C	0.900813	0.596614	0.093292
	C205	C	0.095954	0.407063	0.094162
	C206	C	0.100026	0.596768	0.894817
	C207	C	0.897667	0.407607	0.897421
	C208	C	0.095631	0.902789	0.590824
	C209	C	0.097253	0.102479	0.401605
	C210	C	0.899674	0.099141	0.589763
	C211	C	0.897010	0.903148	0.401155
	C212	C	0.591402	0.103612	0.893729
	C213	C	0.403855	0.098889	0.093265
	C214	C	0.591867	0.905090	0.095264
	C215	C	0.402828	0.900821	0.896220
	Zn216	Zn	0.496230	0.001834	0.744929
	Zn217	Zn	0.497219	0.001863	0.245669
	Zn218	Zn	0.748085	0.503033	-0.005005
	Zn219	Zn	0.247995	0.500886	-0.004783
	Zn220	Zn	-0.002702	0.752596	0.494905
	Zn221	Zn	-0.001641	0.252073	0.495926
	Zn222	Zn	-0.001863	0.501812	0.745834
	Zn223	Zn	-0.001650	0.502290	0.244879
	Zn224	Zn	0.499008	0.752263	-0.003661
	Zn225	Zn	0.497157	0.251922	-0.004919
	Zn226	Zn	0.746842	0.001348	0.495507
	Zn227	Zn	0.246777	0.002382	0.495917
	N228	N	0.410643	0.964746	0.673577
	N229	N	0.581321	0.039780	0.672249
	N230	N	0.581903	0.964769	0.317729
	N231	N	0.409829	0.038949	0.315203
	N232	N	0.675813	0.417419	0.958157
	N233	N	0.678563	0.590280	0.031747
	N234	N	0.321622	0.585639	0.957917
	N235	N	0.317256	0.413589	0.031906
	N236	N	0.960723	0.680933	0.408699
	N237	N	0.035089	0.680062	0.579492
	N238	N	0.961089	0.322294	0.582434
	N239	N	0.035673	0.325182	0.411099
	N240	N	0.960821	0.415722	0.674587
	N241	N	0.035499	0.588188	0.673540
	N242	N	0.961023	0.588561	0.315288
	N243	N	0.035103	0.416450	0.316856
	N244	N	0.414907	0.678570	0.958593
	N245	N	0.585350	0.681786	0.032790
	N246	N	0.580999	0.326495	0.957189
	N247	N	0.409918	0.321496	0.031855
	N248	N	0.674849	0.964803	0.410166
	N249	N	0.676571	0.038382	0.581876
	N250	N	0.317656	0.965053	0.581776
	N251	N	0.318952	0.039491	0.410060
	N252	N	0.912249	0.464978	0.173897
	N253	N	0.083894	0.539391	0.172275
	N254	N	0.083963	0.464525	0.816567
	N255	N	0.914287	0.539774	0.817828
	N256	N	0.175060	0.917068	0.459457
	N257	N	0.176175	0.088874	0.532764
	N258	N	0.819176	0.087790	0.458919
	N259	N	0.817073	0.914409	0.532280
	N260	N	0.459882	0.180669	0.908604
	N261	N	0.534789	0.180167	0.079582
	N262	N	0.461577	0.822584	0.082405
	N263	N	0.535270	0.825967	0.911334
	N264	N	0.460403	0.915371	0.174582
	N265	N	0.534176	0.089083	0.174393
	N266	N	0.459691	0.087825	0.815727
	N267	N	0.533787	0.916116	0.815855
	N268	N	0.913021	0.179884	0.458892
	N269	N	0.084280	0.181340	0.533004
	N270	N	0.081771	0.826130	0.458331
	N271	N	0.910596	0.822751	0.532412
	N272	N	0.176977	0.464001	0.909061
	N273	N	0.176837	0.538819	0.079921
	N274	N	0.818654	0.465178	0.081621
	N275	N	0.820457	0.539541	0.908919
	O276	O	-0.008911	0.034074	0.001225
	H277	H	0.001297	0.040187	0.003321
	H278	H	-0.013302	0.036424	0.001098
	O279	O	0.480252	0.498556	0.462002
	H280	H	0.480227	0.498428	0.455152
	H281	H	0.480705	0.491947	0.470057
	O282	O	0.488033	0.419762	0.472811
	H283	H	0.487023	0.407733	0.484821
	H284	H	0.485537	0.430200	0.470823
	O285	O	-0.025889	-0.047076	1.013779
	H286	H	-0.024029	-0.048465	1.010431
	H287	H	-0.018958	-0.041153	1.021597
	O288	O	1.035325	0.062041	0.034859
	H289	H	1.033180	0.051246	0.036229
	H290	H	1.028578	0.062208	0.040784
	O291	O	0.960329	1.048536	0.998065
	H292	H	0.966831	1.047139	0.999912
	H293	H	0.960392	1.040294	1.003837
	O294	O	0.968679	1.004773	0.953681
	H295	H	0.976153	0.997650	0.952211
	H296	H	0.973890	1.014226	0.959590
	O297	O	1.066855	0.075273	1.045955
	H298	H	1.066667	0.078931	1.046646
	H299	H	1.071160	0.069561	1.045428
	O300	O	0.517157	0.572851	0.458085
	H301	H	0.528762	0.577914	0.460290
	H302	H	0.512950	0.571241	0.462758
	O303	O	1.566244	0.482257	-0.472619
	H304	H	1.570268	0.495508	-0.474953
	H305	H	1.572590	0.482350	-0.482096
	O306	O	-0.129605	0.994854	0.993788
	H307	H	-0.121326	0.995554	0.990092
	H308	H	-0.125232	0.995372	0.994702
	O309	O	0.492566	0.425098	0.462524
	H310	H	0.495196	0.420290	0.458999
	H311	H	0.491234	0.436300	0.471850
	O312	O	0.933608	0.071866	1.010570
	H313	H	0.926260	0.070047	1.016745
	H314	H	0.945861	0.074760	1.001431
	O315	O	0.465987	0.431134	0.561928
	H316	H	0.461962	0.428079	0.562985
	H317	H	0.464789	0.428170	0.558436
	O318	O	0.075838	0.956882	1.000603
	H319	H	0.066103	0.953375	0.997441
	H320	H	0.074963	0.958414	0.999441
	O321	O	1.064218	0.976437	0.966695
	H322	H	1.073625	0.977003	0.971912
	H323	H	1.042571	0.962803	0.967339
	O324	O	0.549390	0.469493	0.513548
	H325	H	0.552287	0.469638	0.510072
	H326	H	0.541954	0.482094	0.508617
	O327	O	0.597719	0.499827	0.439841
	H328	H	0.603793	0.497816	0.453691
	H329	H	0.606432	0.506289	0.441528
	O330	O	0.888458	-0.014236	1.090858
	H331	H	0.882361	-0.013067	1.095807
	H332	H	0.886501	-0.008859	1.079665
	O333	O	0.994031	1.053515	0.031465
	H334	H	0.991392	1.063384	0.026631
	H335	H	0.986164	1.064571	0.027932
	O336	O	0.421659	0.547916	0.438986
	H337	H	0.418511	0.537951	0.432822
	H338	H	0.420458	0.554078	0.442643
	O339	O	0.568916	0.562828	0.551484
	H340	H	0.569504	0.564586	0.554694
	H341	H	0.557960	0.559563	0.552614
	O342	O	-0.071966	0.908890	0.070954
	H343	H	-0.071077	0.918899	0.074421
	H344	H	-0.077470	0.915224	0.056940
	O345	O	0.118116	0.043668	-0.006301
	H346	H	0.130104	0.049373	-0.005376
	H347	H	0.117576	0.048591	0.008027
	O348	O	0.499649	0.520722	0.539920
	H349	H	0.498015	0.514279	0.536649
	H350	H	0.504339	0.527698	0.543236
	O351	O	0.505991	0.453384	0.375135
	H352	H	0.501736	0.444137	0.383320
	H353	H	0.515097	0.457864	0.378652
	O354	O	0.501930	0.479242	0.426038
	H355	H	0.500847	0.474720	0.431559
	H356	H	0.507206	0.472346	0.435777
	O357	O	0.476676	0.539019	0.583990
	H358	H	0.474601	0.532982	0.577917
	H359	H	0.474193	0.533479	0.584845
	O360	O	-0.112748	-0.032987	0.013047
	H361	H	-0.111162	-0.028987	0.006486
	H362	H	-0.114517	-0.034983	0.028516
	O363	O	-0.027619	0.917348	1.009253
	H364	H	-0.022990	0.914002	1.012297
	H365	H	-0.036558	0.913129	1.006044
	O366	O	0.072346	0.030859	0.984416
	H367	H	0.082818	0.021445	0.991108
	H368	H	0.068247	0.033532	0.986901
	O369	O	0.401915	0.529864	0.550760
	H370	H	0.394949	0.529914	0.549225
	H371	H	0.400565	0.526486	0.550901
