data_Molecule from HDF5

_cell_length_a		16.291510
_cell_length_b		16.294531
_cell_length_c		16.300094
_cell_angle_alpha	90.020543
_cell_angle_beta	89.972573
_cell_angle_gamma	90.144505
_symmetry_space_group_name_H-M	'P 1'
_symmetry_Int_Tables_number		1

loop_
	_symmetry_equiv_pos_as_xyz
	x,y,z

loop_
	_atom_site_label
	_atom_site_type_symbol
	_atom_site_fract_x
	_atom_site_fract_y
	_atom_site_fract_z
	H0	H	0.403855	0.841204	0.703647
	H1	H	0.603664	0.167700	0.703138
	H2	H	0.601903	0.840385	0.273364
	H3	H	0.406570	0.168139	0.275210
	H4	H	0.718117	0.406280	0.825142
	H5	H	0.717651	0.603180	0.151989
	H6	H	0.289095	0.601389	0.825078
	H7	H	0.288006	0.405611	0.152315
	H8	H	0.840020	0.717430	0.392049
	H9	H	0.168095	0.718702	0.586963
	H10	H	0.840423	0.288824	0.587460
	H11	H	0.167708	0.290466	0.390087
	H12	H	0.839513	0.406171	0.702633
	H13	H	0.167110	0.603029	0.703340
	H14	H	0.839950	0.602072	0.274976
	H15	H	0.167281	0.406664	0.273268
	H16	H	0.404357	0.718470	0.824747
	H17	H	0.601356	0.719710	0.152012
	H18	H	0.600965	0.290467	0.824954
	H19	H	0.404641	0.290296	0.151837
	H20	H	0.717893	0.840450	0.389804
	H21	H	0.718210	0.168297	0.586173
	H22	H	0.287767	0.841307	0.587173
	H23	H	0.288926	0.167111	0.388800
	H24	H	0.904503	0.341638	0.204148
	H25	H	0.101988	0.668038	0.202000
	H26	H	0.100346	0.340697	0.774628
	H27	H	0.904458	0.668120	0.773688
	H28	H	0.219186	0.905176	0.325251
	H29	H	0.218529	0.102394	0.651721
	H30	H	0.790363	0.101865	0.324741
	H31	H	0.788545	0.904653	0.651758
	H32	H	0.338663	0.217807	0.890291
	H33	H	0.666567	0.219599	0.086432
	H34	H	0.339344	0.789332	0.087473
	H35	H	0.666216	0.790010	0.889762
	H36	H	0.339444	0.906410	0.203166
	H37	H	0.666816	0.103589	0.202774
	H38	H	0.339452	0.102210	0.773117
	H39	H	0.666621	0.905779	0.773271
	H40	H	0.904663	0.219270	0.325233
	H41	H	0.101660	0.217961	0.651920
	H42	H	0.102686	0.789373	0.325029
	H43	H	0.905490	0.790092	0.652130
	H44	H	0.216221	0.340524	0.890669
	H45	H	0.217972	0.667918	0.086306
	H46	H	0.789234	0.340946	0.086307
	H47	H	0.789132	0.668132	0.890478
	H48	H	0.417111	0.119950	0.584980
	H49	H	0.590716	0.887709	0.586160
	H50	H	0.605402	0.122912	0.393897
	H51	H	0.412894	0.887924	0.395637
	H52	H	0.594900	0.401515	0.107568
	H53	H	0.588840	0.603176	0.873582
	H54	H	0.403445	0.595841	0.106742
	H55	H	0.401238	0.414127	0.870672
	H56	H	0.120833	0.599134	0.395860
	H57	H	0.890301	0.588504	0.580300
	H58	H	0.122867	0.403749	0.584721
	H59	H	0.886588	0.406253	0.396600
	H60	H	0.117665	0.411403	0.573876
	H61	H	0.884766	0.601045	0.589456
	H62	H	0.119150	0.596834	0.396707
	H63	H	0.889924	0.413840	0.399469
	H64	H	0.415064	0.592885	0.102174
	H65	H	0.603312	0.599995	0.869770
	H66	H	0.605313	0.415360	0.106137
	H67	H	0.414633	0.415732	0.874634
	H68	H	0.593232	0.120913	0.388763
	H69	H	0.594520	0.891417	0.574646
	H70	H	0.412201	0.118124	0.573972
	H71	H	0.409549	0.888447	0.396959
	H72	H	0.916965	0.618000	0.077299
	H73	H	0.093442	0.387967	0.083110
	H74	H	0.095953	0.620675	0.895554
	H75	H	0.911286	0.389273	0.895800
	H76	H	0.101432	0.919730	0.603771
	H77	H	0.099993	0.103458	0.369263
	H78	H	0.916897	0.091633	0.601528
	H79	H	0.907911	0.908963	0.370699
	H80	H	0.619600	0.104038	0.897275
	H81	H	0.387974	0.094747	0.079292
	H82	H	0.614915	0.916016	0.073417
	H83	H	0.387332	0.909675	0.897612
	H84	H	0.620194	0.917189	0.088972
	H85	H	0.385893	0.096305	0.086856
	H86	H	0.616267	0.093417	0.900167
	H87	H	0.387742	0.914547	0.895036
	H88	H	0.913249	0.104407	0.606241
	H89	H	0.100944	0.092129	0.372330
	H90	H	0.087638	0.912231	0.601678
	H91	H	0.910200	0.911755	0.372967
	H92	H	0.096707	0.621079	0.895610
	H93	H	0.096006	0.388473	0.078548
	H94	H	0.903539	0.622170	0.077447
	H95	H	0.908197	0.388154	0.895941
	H96	H	0.405254	0.122562	0.582540
	H97	H	0.602853	0.885522	0.582480
	H98	H	0.595395	0.117754	0.401518
	H99	H	0.409868	0.887439	0.394055
	H100	H	0.588063	0.416889	0.101186
	H101	H	0.594164	0.589207	0.875546
	H102	H	0.412702	0.604612	0.106734
	H103	H	0.410226	0.403042	0.870348
	H104	H	0.120577	0.596992	0.394378
	H105	H	0.888325	0.603531	0.573814
	H106	H	0.119274	0.418018	0.586579
	H107	H	0.886604	0.412961	0.390716
	H108	H	0.911183	0.623090	0.089579
	H109	H	0.098514	0.386730	0.082828
	H110	H	0.096228	0.620431	0.894606
	H111	H	0.909897	0.387950	0.892943
	H112	H	0.100265	0.904943	0.607446
	H113	H	0.090131	0.097679	0.373538
	H114	H	0.904012	0.093731	0.606316
	H115	H	0.912128	0.908640	0.372117
	H116	H	0.620145	0.095625	0.889321
	H117	H	0.385419	0.101845	0.081646
	H118	H	0.621611	0.903353	0.080644
	H119	H	0.385639	0.910286	0.892720
	C120	C	0.382601	0.012416	0.609429
	C121	C	0.625138	0.996287	0.609393
	C122	C	0.626025	0.012565	0.366018
	C123	C	0.382854	0.996085	0.367105
	C124	C	0.624347	0.383117	-0.003090
	C125	C	0.624494	0.626436	0.980360
	C126	C	0.381829	0.625630	-0.003088
	C127	C	0.380748	0.382616	0.980322
	C128	C	0.012275	0.625783	0.367249
	C129	C	0.995490	0.626423	0.610264
	C130	C	0.011950	0.382854	0.610210
	C131	C	0.995692	0.382831	0.366815
	C132	C	0.881908	0.512970	0.110159
	C133	C	0.124801	0.495970	0.109971
	C134	C	0.124608	0.512671	0.866743
	C135	C	0.881569	0.496362	0.866648
	C136	C	0.125249	0.883155	0.496642
	C137	C	0.125398	0.126178	0.479947
	C138	C	0.882827	0.125305	0.496482
	C139	C	0.881526	0.881572	0.480079
	C140	C	0.510881	0.126255	0.866329
	C141	C	0.494960	0.126321	0.110173
	C142	C	0.511132	0.883218	0.109835
	C143	C	0.494602	0.882573	0.866426
	C144	C	0.384305	0.889701	0.664865
	C145	C	0.623561	0.119151	0.664874
	C146	C	0.622505	0.889287	0.311272
	C147	C	0.385621	0.119023	0.312456
	C148	C	0.679815	0.385705	0.873834
	C149	C	0.679824	0.623905	0.103325
	C150	C	0.326947	0.622644	0.873833
	C151	C	0.326102	0.385562	0.103506
	C152	C	0.888860	0.680018	0.370624
	C153	C	0.118723	0.681700	0.608115
	C154	C	0.888781	0.327550	0.607586
	C155	C	0.118834	0.328094	0.369631
	C156	C	0.888371	0.385893	0.664543
	C157	C	0.118452	0.623811	0.665664
	C158	C	0.888917	0.622642	0.312689
	C159	C	0.118810	0.385646	0.311479
	C160	C	0.384066	0.680832	0.873878
	C161	C	0.622246	0.681869	0.103315
	C162	C	0.621497	0.328527	0.873647
	C163	C	0.383914	0.328084	0.103380
	C164	C	0.679998	0.889166	0.369068
	C165	C	0.680588	0.119248	0.606744
	C166	C	0.326439	0.889812	0.607334
	C167	C	0.327380	0.118740	0.369104
	C168	C	0.884060	0.390218	0.165720
	C169	C	0.122868	0.619082	0.164828
	C170	C	0.121382	0.389445	0.812116
	C171	C	0.884038	0.619266	0.811778
	C172	C	0.180714	0.885025	0.373755
	C173	C	0.180802	0.123328	0.602890
	C174	C	0.827778	0.122752	0.373709
	C175	C	0.826444	0.884645	0.603019
	C176	C	0.387514	0.180073	0.869492
	C177	C	0.617965	0.181402	0.106837
	C178	C	0.388121	0.827634	0.107683
	C179	C	0.617592	0.827610	0.868904
	C180	C	0.388089	0.885693	0.165216
	C181	C	0.618030	0.123929	0.164832
	C182	C	0.388085	0.122994	0.810920
	C183	C	0.617820	0.885251	0.811133
	C184	C	0.885011	0.180863	0.373978
	C185	C	0.122929	0.180800	0.602981
	C186	C	0.122730	0.827712	0.373663
	C187	C	0.884571	0.827593	0.603349
	C188	C	0.178829	0.389343	0.869904
	C189	C	0.180175	0.619069	0.106861
	C190	C	0.826538	0.390044	0.107914
	C191	C	0.826996	0.619425	0.870058
	C192	C	0.405097	0.098218	0.587074
	C193	C	0.602583	0.910374	0.587615
	C194	C	0.604423	0.098314	0.388091
	C195	C	0.404549	0.910126	0.389158
	C196	C	0.602553	0.404808	0.082833
	C197	C	0.602189	0.603890	0.894952
	C198	C	0.403740	0.604015	0.083041
	C199	C	0.402337	0.404480	0.894143
	C200	C	0.098121	0.604072	0.389122
	C201	C	0.909878	0.604252	0.587901
	C202	C	0.097814	0.404635	0.588364
	C203	C	0.909877	0.404673	0.389029
	C204	C	0.903949	0.598780	0.088030
	C205	C	0.102486	0.409865	0.088052
	C206	C	0.102935	0.598701	0.888874
	C207	C	0.903275	0.410403	0.888550
	C208	C	0.103125	0.905692	0.582112
	C209	C	0.103615	0.104127	0.394064
	C210	C	0.904919	0.102969	0.582576
	C211	C	0.903519	0.903398	0.394018
	C212	C	0.596481	0.104080	0.888921
	C213	C	0.408854	0.104105	0.088900
	C214	C	0.596807	0.905658	0.087455
	C215	C	0.409078	0.904884	0.888547
	Zn216	Zn	0.503890	0.004270	0.738185
	Zn217	Zn	0.503501	0.004432	0.238522
	Zn218	Zn	0.753168	0.504628	-0.011159
	Zn219	Zn	0.253028	0.504448	-0.011519
	Zn220	Zn	0.004122	0.754662	0.488865
	Zn221	Zn	0.003834	0.254243	0.488835
	Zn222	Zn	0.003304	0.504808	0.738602
	Zn223	Zn	0.003771	0.504852	0.238372
	Zn224	Zn	0.502968	0.754674	-0.011905
	Zn225	Zn	0.502479	0.254565	-0.011680
	Zn226	Zn	0.753947	0.004008	0.488306
	Zn227	Zn	0.254061	0.004261	0.487640
	N228	N	0.418355	0.966956	0.666213
	N229	N	0.589694	0.041679	0.666595
	N230	N	0.589671	0.967032	0.309267
	N231	N	0.419224	0.041756	0.311239
	N232	N	0.681656	0.419113	0.951379
	N233	N	0.681416	0.590212	0.025859
	N234	N	0.325557	0.589203	0.951261
	N235	N	0.324023	0.418695	0.025841
	N236	N	0.966491	0.682217	0.403980
	N237	N	0.041281	0.683340	0.574244
	N238	N	0.966417	0.325439	0.574544
	N239	N	0.041333	0.326416	0.403401
	N240	N	0.965937	0.419670	0.666328
	N241	N	0.040934	0.590250	0.667037
	N242	N	0.966475	0.589671	0.310659
	N243	N	0.041437	0.419058	0.309691
	N244	N	0.417476	0.682815	0.951502
	N245	N	0.588705	0.683434	0.025980
	N246	N	0.587696	0.326944	0.951035
	N247	N	0.417028	0.326209	0.025769
	N248	N	0.682408	0.966640	0.402460
	N249	N	0.681610	0.041841	0.572974
	N250	N	0.325310	0.967144	0.573406
	N251	N	0.325519	0.041102	0.402425
	N252	N	0.917688	0.467722	0.167216
	N253	N	0.089133	0.541596	0.166547
	N254	N	0.088505	0.467233	0.810096
	N255	N	0.917292	0.541823	0.809864
	N256	N	0.182347	0.918883	0.451016
	N257	N	0.182386	0.089890	0.525277
	N258	N	0.826495	0.088744	0.450929
	N259	N	0.824524	0.917643	0.525263
	N260	N	0.464895	0.182429	0.903130
	N261	N	0.540224	0.183210	0.073835
	N262	N	0.465421	0.826192	0.073888
	N263	N	0.540066	0.825911	0.902356
	N264	N	0.465738	0.919402	0.166776
	N265	N	0.540680	0.090124	0.166745
	N266	N	0.465820	0.090238	0.809050
	N267	N	0.540547	0.918827	0.809549
	N268	N	0.918387	0.182485	0.451503
	N269	N	0.089427	0.182771	0.525660
	N270	N	0.088749	0.826767	0.450996
	N271	N	0.917917	0.825535	0.525895
	N272	N	0.180641	0.466891	0.903398
	N273	N	0.181636	0.541514	0.073577
	N274	N	0.825271	0.467180	0.073831
	N275	N	0.825077	0.541752	0.903249
	O276	O	0.528276	-0.499331	1.516870
	H277	H	0.524116	-0.514200	1.512886
	H278	H	0.528077	-0.495245	1.515823
	O279	O	0.499047	0.512223	0.565820
	H280	H	0.492449	0.507485	0.563475
	H281	H	0.502778	0.524231	0.572661
	O282	O	-0.397814	0.621363	1.470070
	H283	H	-0.392161	0.620903	1.467149
	H284	H	-0.397916	0.622930	1.465725
	O285	O	0.507339	0.534281	0.549324
	H286	H	0.507090	0.542608	0.549256
	H287	H	0.509822	0.531626	0.562386
	O288	O	0.536395	0.551412	0.545331
	H289	H	0.536736	0.557510	0.544016
	H290	H	0.547315	0.552263	0.543948
	O291	O	-0.027668	0.953379	0.939113
	H292	H	-0.030328	0.953230	0.934884
	H293	H	-0.026757	0.950572	0.942141
	O294	O	0.515360	0.498462	0.515063
	H295	H	0.514522	0.495097	0.518729
	H296	H	0.514518	0.494797	0.526300
	O297	O	0.980613	-0.029175	-0.050273
	H298	H	0.975346	-0.024892	-0.046498
	H299	H	0.979239	-0.033823	-0.046314
