data_Molecule from HDF5

_cell_length_a		16.289196
_cell_length_b		16.348234
_cell_length_c		16.121331
_cell_angle_alpha	89.887940
_cell_angle_beta	89.539498
_cell_angle_gamma	90.156161
_symmetry_space_group_name_H-M	'P 1'
_symmetry_Int_Tables_number		1

loop_
	_symmetry_equiv_pos_as_xyz
	x,y,z

loop_
	_atom_site_label
	_atom_site_type_symbol
	_atom_site_fract_x
	_atom_site_fract_y
	_atom_site_fract_z
	H0	H	0.403342	0.837096	0.708156
	H1	H	0.601157	0.164373	0.705714
	H2	H	0.601216	0.837508	0.277323
	H3	H	0.407633	0.164122	0.280567
	H4	H	0.719748	0.401522	0.828453
	H5	H	0.716674	0.598993	0.157461
	H6	H	0.292563	0.599746	0.827030
	H7	H	0.288075	0.401829	0.157074
	H8	H	0.841413	0.717576	0.389888
	H9	H	0.165857	0.716816	0.591258
	H10	H	0.840922	0.282549	0.596163
	H11	H	0.165431	0.284225	0.390209
	H12	H	0.840434	0.400693	0.709195
	H13	H	0.167720	0.596177	0.702600
	H14	H	0.839057	0.596181	0.280654
	H15	H	0.167331	0.403428	0.278013
	H16	H	0.406607	0.715538	0.827675
	H17	H	0.603588	0.716389	0.156724
	H18	H	0.604502	0.286949	0.828208
	H19	H	0.401492	0.285479	0.156786
	H20	H	0.719862	0.838327	0.391187
	H21	H	0.721317	0.162379	0.593542
	H22	H	0.284203	0.838649	0.595603
	H23	H	0.289488	0.163485	0.394230
	H24	H	0.904519	0.337051	0.206938
	H25	H	0.101637	0.664108	0.205430
	H26	H	0.102862	0.337018	0.776813
	H27	H	0.907273	0.664013	0.778344
	H28	H	0.218283	0.902986	0.327418
	H29	H	0.214056	0.096832	0.658261
	H30	H	0.790936	0.098951	0.327636
	H31	H	0.787349	0.900227	0.656731
	H32	H	0.340723	0.218323	0.892386
	H33	H	0.666099	0.217764	0.092205
	H34	H	0.340235	0.783508	0.095101
	H35	H	0.667155	0.786890	0.891585
	H36	H	0.338604	0.903184	0.208020
	H37	H	0.666819	0.098837	0.205109
	H38	H	0.338667	0.098287	0.780787
	H39	H	0.667012	0.905455	0.777600
	H40	H	0.904756	0.215719	0.328509
	H41	H	0.101832	0.214716	0.656815
	H42	H	0.102905	0.787307	0.326948
	H43	H	0.900573	0.783624	0.656449
	H44	H	0.221545	0.338723	0.890760
	H45	H	0.219075	0.663145	0.090511
	H46	H	0.785085	0.338921	0.095284
	H47	H	0.789056	0.662874	0.891974
	H48	H	0.414530	0.115106	0.587491
	H49	H	0.599867	0.885474	0.577452
	H50	H	0.600852	0.115271	0.405493
	H51	H	0.411711	0.884541	0.401139
	H52	H	0.591627	0.405229	0.110129
	H53	H	0.601931	0.599477	0.872426
	H54	H	0.404630	0.596307	0.112811
	H55	H	0.413540	0.409770	0.875028
	H56	H	0.120611	0.599141	0.403189
	H57	H	0.886672	0.592700	0.586600
	H58	H	0.123453	0.393742	0.582773
	H59	H	0.886938	0.406626	0.401707
	H60	H	0.115214	0.410995	0.569948
	H61	H	0.886604	0.594243	0.583259
	H62	H	0.117868	0.589038	0.400039
	H63	H	0.886042	0.406900	0.400092
	H64	H	0.410093	0.585286	0.108029
	H65	H	0.598547	0.586787	0.877144
	H66	H	0.597139	0.409002	0.112029
	H67	H	0.413513	0.407770	0.874625
	H68	H	0.602166	0.119825	0.394565
	H69	H	0.598362	0.882291	0.592075
	H70	H	0.406020	0.116039	0.579605
	H71	H	0.407770	0.884309	0.402844
	H72	H	0.918053	0.612994	0.079722
	H73	H	0.100854	0.384084	0.082117
	H74	H	0.087333	0.612159	0.903208
	H75	H	0.913901	0.385874	0.901429
	H76	H	0.097155	0.902471	0.612028
	H77	H	0.092713	0.097012	0.374429
	H78	H	0.914677	0.086952	0.608042
	H79	H	0.913197	0.900823	0.372712
	H80	H	0.618885	0.095199	0.900443
	H81	H	0.386664	0.098935	0.081064
	H82	H	0.623122	0.900042	0.088191
	H83	H	0.386836	0.911694	0.894691
	H84	H	0.616536	0.906657	0.073586
	H85	H	0.388821	0.087409	0.084031
	H86	H	0.619614	0.094020	0.898371
	H87	H	0.383560	0.898562	0.900542
	H88	H	0.912771	0.096016	0.610728
	H89	H	0.102183	0.095523	0.371976
	H90	H	0.095623	0.912852	0.609588
	H91	H	0.905507	0.911586	0.374988
	H92	H	0.108545	0.617188	0.905327
	H93	H	0.097446	0.382137	0.090130
	H94	H	0.900319	0.618161	0.081054
	H95	H	0.910060	0.384958	0.903955
	H96	H	0.404110	0.119434	0.590672
	H97	H	0.587102	0.887577	0.584137
	H98	H	0.591714	0.115075	0.398464
	H99	H	0.407824	0.883187	0.398805
	H100	H	0.592096	0.412234	0.108740
	H101	H	0.589033	0.597375	0.875969
	H102	H	0.417722	0.596457	0.109216
	H103	H	0.412032	0.408935	0.875298
	H104	H	0.122013	0.596213	0.392524
	H105	H	0.887042	0.590638	0.583385
	H106	H	0.120370	0.413739	0.593691
	H107	H	0.885918	0.405352	0.401023
	H108	H	0.911325	0.619231	0.096229
	H109	H	0.092650	0.386447	0.083506
	H110	H	0.099362	0.620207	0.885713
	H111	H	0.910685	0.384573	0.899688
	H112	H	0.087957	0.905319	0.609034
	H113	H	0.096871	0.088041	0.375792
	H114	H	0.906005	0.089756	0.611512
	H115	H	0.919247	0.912308	0.377589
	H116	H	0.619633	0.095600	0.899119
	H117	H	0.384387	0.095251	0.091962
	H118	H	0.617539	0.916133	0.088722
	H119	H	0.389337	0.908894	0.909202
	C120	C	0.379530	0.009323	0.615293
	C121	C	0.624076	0.992442	0.613575
	C122	C	0.626427	0.009032	0.370107
	C123	C	0.381719	0.991900	0.372428
	C124	C	0.624065	0.379756	0.001364
	C125	C	0.625389	0.622729	0.983904
	C126	C	0.382866	0.621857	0.000927
	C127	C	0.382780	0.379838	0.983757
	C128	C	0.012214	0.622707	0.369932
	C129	C	0.994937	0.621335	0.612504
	C130	C	0.011907	0.377332	0.613539
	C131	C	0.994263	0.378362	0.370969
	C132	C	0.880775	0.509279	0.115157
	C133	C	0.124965	0.492156	0.113283
	C134	C	0.126799	0.508988	0.869086
	C135	C	0.882472	0.492325	0.871244
	C136	C	0.123724	0.879168	0.500879
	C137	C	0.124773	0.121593	0.483552
	C138	C	0.882658	0.120542	0.501346
	C139	C	0.881878	0.878426	0.483561
	C140	C	0.511533	0.123389	0.870978
	C141	C	0.494449	0.122940	0.114396
	C142	C	0.511189	0.878524	0.114347
	C143	C	0.494863	0.878814	0.871231
	C144	C	0.382583	0.886192	0.670640
	C145	C	0.621319	0.115492	0.668025
	C146	C	0.622643	0.886391	0.314906
	C147	C	0.385958	0.115304	0.317842
	C148	C	0.681489	0.381521	0.877576
	C149	C	0.679828	0.620293	0.108065
	C150	C	0.328945	0.620139	0.876697
	C151	C	0.325780	0.381398	0.107541
	C152	C	0.889689	0.678522	0.370864
	C153	C	0.117366	0.677658	0.610613
	C154	C	0.889420	0.321083	0.614581
	C155	C	0.116966	0.322815	0.371005
	C156	C	0.889309	0.379724	0.671151
	C157	C	0.118399	0.617914	0.666017
	C158	C	0.888470	0.618035	0.316730
	C159	C	0.117867	0.382204	0.315455
	C160	C	0.385970	0.677508	0.876911
	C161	C	0.623407	0.678437	0.107680
	C162	C	0.624096	0.324697	0.877375
	C163	C	0.382407	0.323868	0.107556
	C164	C	0.681808	0.886754	0.371377
	C165	C	0.681594	0.114327	0.612835
	C166	C	0.323440	0.886809	0.614456
	C167	C	0.327268	0.114888	0.374280
	C168	C	0.883153	0.386279	0.170125
	C169	C	0.122147	0.614959	0.168272
	C170	C	0.123986	0.386194	0.813966
	C171	C	0.886030	0.615027	0.815474
	C172	C	0.180123	0.882586	0.376576
	C173	C	0.177808	0.118335	0.608469
	C174	C	0.828230	0.118930	0.377094
	C175	C	0.825259	0.879816	0.607468
	C176	C	0.389180	0.179686	0.872473
	C177	C	0.617180	0.179426	0.112043
	C178	C	0.388738	0.822177	0.114714
	C179	C	0.618067	0.824508	0.871735
	C180	C	0.387950	0.881695	0.170623
	C181	C	0.617797	0.120202	0.168176
	C182	C	0.388057	0.120031	0.816960
	C183	C	0.618015	0.883442	0.815348
	C184	C	0.884903	0.176666	0.377271
	C185	C	0.122035	0.176803	0.607674
	C186	C	0.122950	0.824945	0.376306
	C187	C	0.881795	0.822118	0.607253
	C188	C	0.182744	0.386779	0.870874
	C189	C	0.180733	0.614772	0.111310
	C190	C	0.823919	0.387086	0.114474
	C191	C	0.827204	0.614586	0.872106
	C192	C	0.401712	0.094595	0.592716
	C193	C	0.601643	0.907237	0.591131
	C194	C	0.604611	0.094668	0.392783
	C195	C	0.402792	0.906278	0.394279
	C196	C	0.600372	0.402280	0.087819
	C197	C	0.603327	0.600620	0.897660
	C198	C	0.404329	0.599278	0.087654
	C199	C	0.406169	0.402377	0.897203
	C200	C	0.098085	0.601140	0.391993
	C201	C	0.909062	0.599152	0.590782
	C202	C	0.097395	0.399580	0.589192
	C203	C	0.908520	0.399820	0.394195
	C204	C	0.903207	0.594620	0.092335
	C205	C	0.103555	0.406403	0.091477
	C206	C	0.104903	0.594366	0.891453
	C207	C	0.904804	0.407291	0.894864
	C208	C	0.100384	0.900660	0.587699
	C209	C	0.103634	0.099904	0.396687
	C210	C	0.904833	0.097738	0.587665
	C211	C	0.905652	0.901493	0.397381
	C212	C	0.597079	0.101602	0.892738
	C213	C	0.408764	0.100322	0.092200
	C214	C	0.597001	0.901054	0.090404
	C215	C	0.408914	0.899956	0.894818
	Zn216	Zn	0.502462	0.000845	0.742932
	Zn217	Zn	0.503411	0.000613	0.242444
	Zn218	Zn	0.752363	0.500850	-0.006999
	Zn219	Zn	0.254505	0.500811	-0.007982
	Zn220	Zn	0.002903	0.750934	0.491743
	Zn221	Zn	0.002878	0.249071	0.492089
	Zn222	Zn	0.003617	0.500108	0.741617
	Zn223	Zn	0.003010	0.500218	0.242777
	Zn224	Zn	0.503699	0.750017	-0.007287
	Zn225	Zn	0.503268	0.252343	-0.007492
	Zn226	Zn	0.754303	0.000065	0.492429
	Zn227	Zn	0.251762	0.000426	0.492655
	N228	N	0.416870	0.963256	0.671295
	N229	N	0.586517	0.038741	0.668872
	N230	N	0.588924	0.963486	0.313976
	N231	N	0.419320	0.038095	0.316346
	N232	N	0.681754	0.415046	0.955812
	N233	N	0.680929	0.586222	0.030162
	N234	N	0.327019	0.586179	0.954909
	N235	N	0.325886	0.415709	0.029429
	N236	N	0.967459	0.681658	0.403366
	N237	N	0.039548	0.679774	0.577992
	N238	N	0.966659	0.319638	0.579403
	N239	N	0.039275	0.320309	0.405032
	N240	N	0.966524	0.414008	0.670703
	N241	N	0.041352	0.583420	0.667224
	N242	N	0.965643	0.584106	0.315849
	N243	N	0.040500	0.415855	0.315161
	N244	N	0.418771	0.678771	0.955194
	N245	N	0.590112	0.680082	0.029560
	N246	N	0.589282	0.323425	0.955378
	N247	N	0.416944	0.322747	0.029515
	N248	N	0.684162	0.964057	0.404927
	N249	N	0.683409	0.036918	0.579439
	N250	N	0.321113	0.964219	0.581020
	N251	N	0.324713	0.037395	0.407649
	N252	N	0.917854	0.463018	0.170618
	N253	N	0.087999	0.537777	0.169466
	N254	N	0.089803	0.463006	0.812819
	N255	N	0.919720	0.537988	0.814905
	N256	N	0.180930	0.915336	0.455229
	N257	N	0.179627	0.084672	0.530337
	N258	N	0.826620	0.084864	0.455168
	N259	N	0.825304	0.914244	0.529538
	N260	N	0.466949	0.181889	0.905351
	N261	N	0.539399	0.181093	0.079137
	N262	N	0.466386	0.820179	0.080555
	N263	N	0.540298	0.821480	0.905626
	N264	N	0.465383	0.915934	0.170462
	N265	N	0.540734	0.085636	0.169819
	N266	N	0.465001	0.085671	0.815726
	N267	N	0.540450	0.916281	0.814908
	N268	N	0.918058	0.177691	0.455447
	N269	N	0.089682	0.178972	0.529084
	N270	N	0.088709	0.822739	0.454498
	N271	N	0.916124	0.820851	0.528957
	N272	N	0.184978	0.464129	0.904099
	N273	N	0.182684	0.537540	0.077794
	N274	N	0.822141	0.464586	0.080855
	N275	N	0.824627	0.537297	0.905965
	O276	O	-0.025876	0.018702	-0.075281
	H277	H	-0.019817	0.013196	-0.071845
	H278	H	-0.026525	0.021082	-0.071012
	O279	O	0.514145	0.591928	0.535134
	H280	H	0.504472	0.580103	0.535115
	H281	H	0.503842	0.580059	0.541591
	O282	O	0.547346	0.565583	0.567163
	H283	H	0.555349	0.568611	0.567331
	H284	H	0.555299	0.561694	0.582498
	O285	O	1.013816	-0.040003	0.952136
	H286	H	1.007613	-0.039256	0.953138
	H287	H	1.018091	-0.040019	0.953627
	O288	O	0.956701	0.072025	-0.019594
	H289	H	0.972944	0.078894	-0.022092
	H290	H	0.957480	0.057699	-0.014878
	O291	O	0.480583	0.493334	0.397358
	H292	H	0.476045	0.507224	0.394189
	H293	H	0.476497	0.484417	0.404270
	O294	O	0.983586	-0.041340	0.957888
	H295	H	0.981216	-0.044922	0.948118
	H296	H	0.988799	-0.037745	0.962722
	O297	O	-0.052472	0.039506	0.039710
	H298	H	-0.051263	0.046949	0.039139
	H299	H	-0.058195	0.037378	0.050885
	O300	O	0.442981	0.499563	0.543806
	H301	H	0.431720	0.504725	0.551105
	H302	H	0.443764	0.497573	0.537193
	O303	O	1.012967	-0.020350	-0.005269
	H304	H	1.006915	-0.017168	0.002628
	H305	H	1.007578	-0.018215	0.000834
	O306	O	0.985062	0.034367	0.081332
	H307	H	0.977805	0.033721	0.082844
	H308	H	0.982107	0.035179	0.082950
	O309	O	0.003170	0.047899	0.999553
	H310	H	-0.000794	0.040519	0.994277
	H311	H	0.000187	0.053484	0.995683
	O312	O	0.968240	1.062352	1.018526
	H313	H	0.967566	1.059294	1.020819
	H314	H	0.963468	1.069533	1.026893
	O315	O	0.582519	0.572196	0.480601
	H316	H	0.575118	0.578367	0.474170
	H317	H	0.580355	0.576593	0.480783
	O318	O	0.490704	0.461454	0.423287
	H319	H	0.500486	0.460907	0.413504
	H320	H	0.489686	0.459922	0.420116
	O321	O	0.003779	1.017330	1.032000
	H322	H	0.005664	1.015777	1.030348
	H323	H	-0.005808	1.016077	1.038452
	O324	O	0.554830	0.458220	0.489676
	H325	H	0.549600	0.456645	0.485502
	H326	H	0.560437	0.466238	0.497585
	O327	O	0.500017	0.506493	0.482273
	H328	H	0.497947	0.512211	0.469308
	H329	H	0.501636	0.513807	0.487274
	O330	O	0.386643	0.585609	0.701303
	H331	H	0.384636	0.591367	0.701801
	H332	H	0.384312	0.580516	0.699257
	O333	O	0.601022	0.585190	0.489699
	H334	H	0.600567	0.584487	0.502327
	H335	H	0.596193	0.586133	0.501669
	O336	O	0.466279	0.472665	0.420354
	H337	H	0.467097	0.455627	0.419528
	H338	H	0.467634	0.480557	0.425276
	O339	O	0.948303	0.938658	0.025726
	H340	H	0.952478	0.941819	0.025588
	H341	H	0.954011	0.937003	0.024543
	O342	O	0.534913	0.592083	0.454804
	H343	H	0.543695	0.595999	0.462445
	H344	H	0.519494	0.598214	0.468371
	O345	O	0.464222	0.401654	0.465490
	H346	H	0.457007	0.389480	0.459441
	H347	H	0.480783	0.402554	0.462665
	O348	O	0.440150	0.405596	0.503370
	H349	H	0.439256	0.400624	0.502745
	H350	H	0.440306	0.413726	0.506108
	O351	O	-0.022733	0.940987	1.034426
	H352	H	-0.031544	0.930127	1.037548
	H353	H	-0.021894	0.936811	1.031354
	O354	O	0.512991	0.464974	0.620355
	H355	H	0.510140	0.468469	0.627501
	H356	H	0.513827	0.464475	0.616563
	O357	O	-0.438499	1.511831	1.484341
	H358	H	-0.437719	1.500607	1.483108
	H359	H	-0.443376	1.510503	1.483410
