data_Molecule from HDF5

_cell_length_a		16.233641
_cell_length_b		16.203662
_cell_length_c		16.377670
_cell_angle_alpha	89.812610
_cell_angle_beta	90.115512
_cell_angle_gamma	90.036229
_symmetry_space_group_name_H-M	'P 1'
_symmetry_Int_Tables_number		1

loop_
	_symmetry_equiv_pos_as_xyz
	x,y,z

loop_
	_atom_site_label
	_atom_site_type_symbol
	_atom_site_fract_x
	_atom_site_fract_y
	_atom_site_fract_z
	H0	H	0.396797	0.844770	0.712812
	H1	H	0.598651	0.171569	0.710523
	H2	H	0.598797	0.843840	0.280904
	H3	H	0.398867	0.171731	0.280030
	H4	H	0.711297	0.408680	0.832307
	H5	H	0.713435	0.606394	0.157821
	H6	H	0.282014	0.608043	0.832654
	H7	H	0.280871	0.407288	0.157708
	H8	H	0.833510	0.724598	0.395995
	H9	H	0.161980	0.721137	0.591960
	H10	H	0.832367	0.295599	0.590754
	H11	H	0.162845	0.295998	0.398082
	H12	H	0.834420	0.406273	0.710763
	H13	H	0.160482	0.609361	0.711269
	H14	H	0.833209	0.609403	0.278011
	H15	H	0.161532	0.409831	0.279532
	H16	H	0.397624	0.724651	0.833417
	H17	H	0.595833	0.721847	0.158677
	H18	H	0.594182	0.294201	0.832320
	H19	H	0.397757	0.291726	0.158675
	H20	H	0.711404	0.842999	0.399983
	H21	H	0.710443	0.173007	0.592600
	H22	H	0.282736	0.844983	0.595437
	H23	H	0.286547	0.173512	0.398985
	H24	H	0.895575	0.344807	0.211263
	H25	H	0.097316	0.672770	0.208968
	H26	H	0.096474	0.344032	0.780305
	H27	H	0.897003	0.671739	0.777390
	H28	H	0.214148	0.909030	0.333616
	H29	H	0.211862	0.106099	0.659188
	H30	H	0.781748	0.107442	0.333314
	H31	H	0.783859	0.908601	0.659727
	H32	H	0.332724	0.220093	0.898691
	H33	H	0.662514	0.221628	0.092654
	H34	H	0.332632	0.793424	0.094254
	H35	H	0.661698	0.794979	0.899519
	H36	H	0.334312	0.906375	0.212945
	H37	H	0.660971	0.109400	0.212712
	H38	H	0.335019	0.109086	0.778892
	H39	H	0.661257	0.909140	0.781071
	H40	H	0.899772	0.222432	0.332003
	H41	H	0.095102	0.222537	0.658655
	H42	H	0.096917	0.795039	0.332600
	H43	H	0.899734	0.791732	0.657967
	H44	H	0.209504	0.343188	0.898565
	H45	H	0.210818	0.672563	0.091558
	H46	H	0.783593	0.343106	0.092491
	H47	H	0.781687	0.672008	0.894275
	H48	H	0.400052	0.125699	0.584648
	H49	H	0.594274	0.890882	0.585616
	H50	H	0.580501	0.121394	0.402492
	H51	H	0.417965	0.894122	0.399830
	H52	H	0.593150	0.408109	0.113875
	H53	H	0.582411	0.599452	0.882134
	H54	H	0.402709	0.597161	0.110849
	H55	H	0.405359	0.420550	0.882250
	H56	H	0.112534	0.600575	0.404600
	H57	H	0.881923	0.595632	0.587676
	H58	H	0.113817	0.418800	0.589895
	H59	H	0.879562	0.416151	0.395484
	H60	H	0.115707	0.413786	0.590679
	H61	H	0.879760	0.602402	0.587190
	H62	H	0.114133	0.598208	0.397351
	H63	H	0.880419	0.411893	0.404390
	H64	H	0.407171	0.600271	0.110277
	H65	H	0.590571	0.608506	0.877199
	H66	H	0.595436	0.421281	0.110359
	H67	H	0.406994	0.409062	0.879095
	H68	H	0.593712	0.123185	0.411184
	H69	H	0.592056	0.889268	0.594197
	H70	H	0.406141	0.127641	0.595329
	H71	H	0.403214	0.894318	0.416059
	H72	H	0.900830	0.626712	0.088741
	H73	H	0.089855	0.392645	0.083426
	H74	H	0.088503	0.625777	0.899334
	H75	H	0.903077	0.392701	0.907825
	H76	H	0.096733	0.925273	0.610033
	H77	H	0.095912	0.102636	0.378318
	H78	H	0.910090	0.102077	0.610126
	H79	H	0.894254	0.913818	0.376840
	H80	H	0.617098	0.106348	0.902047
	H81	H	0.385231	0.094775	0.080130
	H82	H	0.615570	0.910031	0.086991
	H83	H	0.379890	0.915816	0.901783
	H84	H	0.610411	0.920839	0.084651
	H85	H	0.380405	0.092811	0.098606
	H86	H	0.612586	0.099796	0.906065
	H87	H	0.381353	0.916269	0.903095
	H88	H	0.901877	0.108768	0.614411
	H89	H	0.090564	0.099444	0.380886
	H90	H	0.079851	0.912624	0.608446
	H91	H	0.905869	0.927122	0.384399
	H92	H	0.088278	0.625319	0.901553
	H93	H	0.092145	0.389422	0.091520
	H94	H	0.909253	0.624660	0.089281
	H95	H	0.898524	0.387876	0.896178
	H96	H	0.411983	0.123085	0.585798
	H97	H	0.585364	0.892106	0.589089
	H98	H	0.593436	0.128152	0.395431
	H99	H	0.397441	0.885898	0.396275
	H100	H	0.583124	0.415744	0.108345
	H101	H	0.594682	0.596543	0.880003
	H102	H	0.402861	0.601998	0.112214
	H103	H	0.396579	0.414677	0.877732
	H104	H	0.115393	0.605343	0.399036
	H105	H	0.882751	0.598938	0.582339
	H106	H	0.113916	0.414680	0.585382
	H107	H	0.883509	0.421782	0.403650
	H108	H	0.905312	0.623666	0.080828
	H109	H	0.083917	0.392465	0.089299
	H110	H	0.090400	0.625419	0.900413
	H111	H	0.910862	0.391789	0.897630
	H112	H	0.097697	0.905639	0.616317
	H113	H	0.090315	0.106059	0.379329
	H114	H	0.899598	0.097821	0.611671
	H115	H	0.912651	0.909841	0.380822
	H116	H	0.615331	0.098751	0.897983
	H117	H	0.377797	0.109777	0.089224
	H118	H	0.614673	0.917995	0.095495
	H119	H	0.381213	0.918256	0.902165
	C120	C	0.376936	0.016897	0.617651
	C121	C	0.619198	0.999533	0.617355
	C122	C	0.619252	0.016051	0.374854
	C123	C	0.377089	0.999848	0.374516
	C124	C	0.618602	0.386574	0.003480
	C125	C	0.619313	0.630034	0.987124
	C126	C	0.375204	0.629759	0.003805
	C127	C	0.374384	0.385104	0.987076
	C128	C	0.005704	0.630832	0.371712
	C129	C	0.989514	0.628361	0.614781
	C130	C	0.005983	0.386556	0.616432
	C131	C	0.989540	0.387614	0.372969
	C132	C	0.876156	0.516363	0.115353
	C133	C	0.117937	0.500241	0.116070
	C134	C	0.118064	0.516524	0.873119
	C135	C	0.875065	0.499205	0.871920
	C136	C	0.120516	0.886021	0.504077
	C137	C	0.120173	0.130966	0.487471
	C138	C	0.875648	0.130981	0.504026
	C139	C	0.875795	0.886695	0.488025
	C140	C	0.506433	0.129671	0.873839
	C141	C	0.489460	0.128933	0.117315
	C142	C	0.505636	0.886354	0.117931
	C143	C	0.488993	0.887723	0.874523
	C144	C	0.377892	0.893780	0.673927
	C145	C	0.617864	0.122988	0.672152
	C146	C	0.618596	0.892731	0.318993
	C147	C	0.378955	0.123118	0.318608
	C148	C	0.673261	0.388846	0.881013
	C149	C	0.675344	0.627127	0.109307
	C150	C	0.320108	0.627956	0.881275
	C151	C	0.318840	0.386995	0.109257
	C152	C	0.882438	0.686449	0.374896
	C153	C	0.113055	0.683510	0.612543
	C154	C	0.881868	0.332263	0.612186
	C155	C	0.113352	0.333258	0.376733
	C156	C	0.882794	0.387276	0.671835
	C157	C	0.112168	0.627986	0.671785
	C158	C	0.882165	0.629307	0.316446
	C159	C	0.112650	0.389745	0.317726
	C160	C	0.377675	0.685811	0.881583
	C161	C	0.616694	0.684418	0.109853
	C162	C	0.615281	0.331651	0.880891
	C163	C	0.376967	0.329521	0.109705
	C164	C	0.674315	0.892235	0.378402
	C165	C	0.673722	0.123498	0.613821
	C166	C	0.321216	0.893566	0.615579
	C167	C	0.323157	0.124058	0.377674
	C168	C	0.876779	0.393297	0.172169
	C169	C	0.116894	0.623594	0.171051
	C170	C	0.115768	0.392800	0.818792
	C171	C	0.876666	0.622815	0.815726
	C172	C	0.175812	0.888902	0.382062
	C173	C	0.174228	0.127230	0.610269
	C174	C	0.820044	0.128012	0.381674
	C175	C	0.821156	0.888382	0.610633
	C176	C	0.382283	0.183544	0.877192
	C177	C	0.613159	0.184371	0.114292
	C178	C	0.382005	0.830761	0.115425
	C179	C	0.612721	0.832644	0.878356
	C180	C	0.382719	0.886910	0.174234
	C181	C	0.612690	0.128147	0.173379
	C182	C	0.383453	0.128115	0.817754
	C183	C	0.612428	0.889158	0.819337
	C184	C	0.878761	0.185027	0.380908
	C185	C	0.116114	0.184879	0.610131
	C186	C	0.117237	0.832221	0.381461
	C187	C	0.878461	0.829883	0.609926
	C188	C	0.172630	0.392638	0.877070
	C189	C	0.173454	0.623581	0.113042
	C190	C	0.820933	0.392441	0.113184
	C191	C	0.819717	0.622969	0.873981
	C192	C	0.399471	0.103234	0.595151
	C193	C	0.596955	0.913055	0.595872
	C194	C	0.596173	0.101884	0.396572
	C195	C	0.399671	0.913895	0.397244
	C196	C	0.597071	0.408578	0.088681
	C197	C	0.596148	0.607897	0.901927
	C198	C	0.397604	0.606447	0.089084
	C199	C	0.396602	0.407881	0.901757
	C200	C	0.091698	0.608141	0.393959
	C201	C	0.903788	0.605654	0.592287
	C202	C	0.092166	0.409081	0.595023
	C203	C	0.903446	0.410010	0.394621
	C204	C	0.898603	0.602659	0.092729
	C205	C	0.095283	0.413871	0.094476
	C206	C	0.095699	0.603056	0.894238
	C207	C	0.897321	0.413033	0.894183
	C208	C	0.098135	0.908016	0.589623
	C209	C	0.098573	0.109138	0.401747
	C210	C	0.897488	0.109235	0.589774
	C211	C	0.897927	0.909916	0.402792
	C212	C	0.592800	0.108095	0.895736
	C213	C	0.403434	0.105920	0.095539
	C214	C	0.591104	0.909492	0.095683
	C215	C	0.402950	0.910075	0.896102
	Zn216	Zn	0.498524	0.008763	0.745208
	Zn217	Zn	0.498177	0.007250	0.246195
	Zn218	Zn	0.748022	0.507603	-0.005573
	Zn219	Zn	0.246370	0.508427	-0.004970
	Zn220	Zn	-0.002296	0.758126	0.495095
	Zn221	Zn	-0.002226	0.259285	0.494708
	Zn222	Zn	-0.003019	0.508230	0.743972
	Zn223	Zn	-0.003293	0.508752	0.244052
	Zn224	Zn	0.497058	0.758861	-0.004155
	Zn225	Zn	0.497579	0.257314	-0.004342
	Zn226	Zn	0.747045	0.008226	0.496649
	Zn227	Zn	0.248787	0.008800	0.496034
	N228	N	0.411890	0.971560	0.675002
	N229	N	0.584418	0.045043	0.674015
	N230	N	0.584979	0.970701	0.316822
	N231	N	0.411900	0.044982	0.316684
	N232	N	0.675426	0.422342	0.958050
	N233	N	0.677229	0.594282	0.031895
	N234	N	0.318598	0.593627	0.958214
	N235	N	0.317138	0.421024	0.032080
	N236	N	0.960232	0.687658	0.408331
	N237	N	0.036006	0.683735	0.577585
	N238	N	0.959598	0.331527	0.578453
	N239	N	0.035755	0.331702	0.410264
	N240	N	0.960644	0.420578	0.674403
	N241	N	0.034369	0.594351	0.673247
	N242	N	0.959882	0.595617	0.314297
	N243	N	0.034567	0.422688	0.315289
	N244	N	0.411332	0.686801	0.958769
	N245	N	0.582319	0.686067	0.033003
	N246	N	0.581759	0.330212	0.957915
	N247	N	0.410816	0.328267	0.032736
	N248	N	0.675009	0.969831	0.412362
	N249	N	0.674595	0.045736	0.580335
	N250	N	0.320631	0.971093	0.581277
	N251	N	0.321819	0.046299	0.411770
	N252	N	0.910146	0.471449	0.173686
	N253	N	0.083069	0.545705	0.173035
	N254	N	0.082757	0.470889	0.816075
	N255	N	0.910549	0.544960	0.814291
	N256	N	0.178046	0.921663	0.459450
	N257	N	0.176865	0.094325	0.532780
	N258	N	0.818156	0.095060	0.459089
	N259	N	0.819530	0.922970	0.533766
	N260	N	0.459675	0.184549	0.911493
	N261	N	0.535562	0.185119	0.080437
	N262	N	0.459319	0.830130	0.081123
	N263	N	0.535061	0.831533	0.911856
	N264	N	0.460464	0.920755	0.175870
	N265	N	0.534744	0.094494	0.175669
	N266	N	0.461638	0.095547	0.815450
	N267	N	0.534699	0.922771	0.816984
	N268	N	0.912558	0.186879	0.457993
	N269	N	0.083416	0.187278	0.532788
	N270	N	0.083644	0.830299	0.458475
	N271	N	0.911830	0.829045	0.532882
	N272	N	0.174059	0.470583	0.910179
	N273	N	0.174075	0.545970	0.079497
	N274	N	0.820589	0.469941	0.078508
	N275	N	0.818619	0.545225	0.907959
	O276	O	0.490911	0.544596	0.489251
	H277	H	0.488966	0.534543	0.490240
	H278	H	0.485931	0.547008	0.490609
	O279	O	0.524771	0.510451	0.394025
	H280	H	0.525078	0.514033	0.386701
	H281	H	0.532439	0.506998	0.395385
	O282	O	0.550372	0.561651	0.462870
	H283	H	0.543996	0.558456	0.455583
	H284	H	0.549507	0.552809	0.451961
	O285	O	0.552127	0.550976	1.554433
	H286	H	0.545966	0.548191	1.546950
	H287	H	0.547221	0.565087	1.559397
	O288	O	-0.019293	0.022301	1.123143
	H289	H	-0.019948	0.020597	1.127896
	H290	H	-0.015514	0.018180	1.130741
	O291	O	-0.477712	0.487679	0.543441
	H292	H	-0.481322	0.482935	0.541038
	H293	H	-0.478954	0.485600	0.546046
	O294	O	0.533535	0.542244	0.507991
	H295	H	0.526664	0.543001	0.506584
	H296	H	0.539345	0.532878	0.508817
	O297	O	0.553636	0.505056	0.448785
	H298	H	0.568396	0.497518	0.442988
	H299	H	0.546075	0.508782	0.442140
	O300	O	0.458001	0.556635	0.532913
	H301	H	0.464197	0.560031	0.536788
	H302	H	0.449852	0.550253	0.540158
	O303	O	0.436832	0.419411	0.501051
	H304	H	0.434345	0.416448	0.504827
	H305	H	0.448075	0.426577	0.500953
	O306	O	1.002332	-0.029167	1.121314
	H307	H	1.005311	-0.032105	1.117484
	H308	H	0.991769	-0.028635	1.133261
	O309	O	0.438378	0.512902	0.500899
	H310	H	0.437227	0.512224	0.503879
	H311	H	0.431709	0.525834	0.508746
	O312	O	0.522316	0.466927	0.565956
	H313	H	0.521543	0.473249	0.563572
	H314	H	0.520111	0.468388	0.580140
	O315	O	0.968870	-0.060305	1.108245
	H316	H	0.959555	-0.056749	1.111194
	H317	H	0.977397	-0.056899	1.106500
	O318	O	0.570009	-0.501817	-0.500783
	H319	H	0.565291	-0.500721	-0.501274
	H320	H	0.576420	-0.500273	-0.500055
	O321	O	0.487430	0.559906	0.467984
	H322	H	0.490634	0.559487	0.473284
	H323	H	0.481770	0.552618	0.467405
	O324	O	0.938010	0.014999	0.070783
	H325	H	0.948932	0.019919	0.077760
	H326	H	0.943489	0.013152	0.071209
	O327	O	0.967646	0.954016	0.097475
	H328	H	0.956202	0.941679	0.095883
	H329	H	0.963339	0.955425	0.092412
	O330	O	0.506680	0.486557	0.511576
	H331	H	0.513366	0.494366	0.517519
	H332	H	0.515476	0.492898	0.503194
	O333	O	0.435465	0.522032	0.468253
	H334	H	0.432428	0.515662	0.460740
	H335	H	0.437649	0.535580	0.470816
