data_Molecule from HDF5

_cell_length_a		16.215683
_cell_length_b		16.301787
_cell_length_c		16.222273
_cell_angle_alpha	90.503454
_cell_angle_beta	90.151033
_cell_angle_gamma	90.500846
_symmetry_space_group_name_H-M	'P 1'
_symmetry_Int_Tables_number		1

loop_
	_symmetry_equiv_pos_as_xyz
	x,y,z

loop_
	_atom_site_label
	_atom_site_type_symbol
	_atom_site_fract_x
	_atom_site_fract_y
	_atom_site_fract_z
	H0	H	0.397099	0.843567	0.706713
	H1	H	0.598345	0.170414	0.712290
	H2	H	0.595284	0.844196	0.276786
	H3	H	0.399184	0.171127	0.280564
	H4	H	0.708138	0.408846	0.830622
	H5	H	0.710637	0.607701	0.161134
	H6	H	0.280610	0.604789	0.833785
	H7	H	0.282131	0.410321	0.160844
	H8	H	0.831783	0.719641	0.398112
	H9	H	0.160025	0.726572	0.598179
	H10	H	0.832593	0.292738	0.594074
	H11	H	0.159901	0.293109	0.394607
	H12	H	0.831942	0.409443	0.708085
	H13	H	0.160472	0.609632	0.711805
	H14	H	0.832575	0.606698	0.280939
	H15	H	0.160581	0.411020	0.281234
	H16	H	0.397650	0.718769	0.831502
	H17	H	0.599665	0.727602	0.158095
	H18	H	0.593377	0.293807	0.831048
	H19	H	0.396053	0.292994	0.159884
	H20	H	0.709874	0.843938	0.394686
	H21	H	0.711802	0.170965	0.595864
	H22	H	0.279456	0.844219	0.592005
	H23	H	0.281884	0.171518	0.395913
	H24	H	0.896526	0.344507	0.208712
	H25	H	0.098317	0.670537	0.213497
	H26	H	0.094665	0.345352	0.779132
	H27	H	0.898240	0.672116	0.783233
	H28	H	0.207057	0.907501	0.330403
	H29	H	0.212316	0.108692	0.659330
	H30	H	0.782011	0.103855	0.331711
	H31	H	0.781384	0.910426	0.660580
	H32	H	0.331685	0.217953	0.896680
	H33	H	0.659943	0.226313	0.096162
	H34	H	0.334520	0.791311	0.094659
	H35	H	0.661355	0.792520	0.893353
	H36	H	0.332667	0.907470	0.206454
	H37	H	0.660910	0.108818	0.210357
	H38	H	0.332005	0.100917	0.783102
	H39	H	0.660997	0.910156	0.779193
	H40	H	0.896943	0.220484	0.331615
	H41	H	0.098260	0.226307	0.659184
	H42	H	0.094287	0.790818	0.332677
	H43	H	0.895528	0.793917	0.659790
	H44	H	0.208427	0.343355	0.897232
	H45	H	0.215078	0.669936	0.099240
	H46	H	0.780852	0.344190	0.091261
	H47	H	0.782589	0.671650	0.898606
	H48	H	0.414847	0.122353	0.592376
	H49	H	0.587850	0.891835	0.585387
	H50	H	0.578561	0.119647	0.403738
	H51	H	0.398838	0.888771	0.393864
	H52	H	0.595035	0.415915	0.114875
	H53	H	0.595957	0.608892	0.874382
	H54	H	0.400693	0.600797	0.114933
	H55	H	0.401627	0.404123	0.876507
	H56	H	0.118847	0.606974	0.393680
	H57	H	0.879663	0.600610	0.587100
	H58	H	0.113063	0.421742	0.591702
	H59	H	0.881855	0.415293	0.410920
	H60	H	0.115356	0.413116	0.590568
	H61	H	0.879053	0.599480	0.591280
	H62	H	0.111270	0.609121	0.416860
	H63	H	0.879718	0.420659	0.395938
	H64	H	0.408684	0.596813	0.111091
	H65	H	0.594715	0.588476	0.880020
	H66	H	0.586128	0.421381	0.110030
	H67	H	0.394673	0.418286	0.878416
	H68	H	0.595653	0.122894	0.411939
	H69	H	0.590526	0.890412	0.587523
	H70	H	0.401662	0.121640	0.579545
	H71	H	0.407213	0.894080	0.400207
	H72	H	0.897553	0.625374	0.084819
	H73	H	0.092044	0.392016	0.083696
	H74	H	0.095754	0.625703	0.906861
	H75	H	0.892246	0.387365	0.896621
	H76	H	0.087875	0.915487	0.612702
	H77	H	0.083246	0.103937	0.378889
	H78	H	0.905442	0.096927	0.611733
	H79	H	0.906509	0.907783	0.379163
	H80	H	0.617603	0.103559	0.893877
	H81	H	0.376749	0.104587	0.091795
	H82	H	0.616468	0.914291	0.088361
	H83	H	0.381239	0.910643	0.906193
	H84	H	0.612138	0.918088	0.079618
	H85	H	0.380975	0.102491	0.082745
	H86	H	0.614967	0.110283	0.908867
	H87	H	0.380753	0.916313	0.899472
	H88	H	0.907674	0.104684	0.612850
	H89	H	0.092704	0.104669	0.375835
	H90	H	0.089376	0.918754	0.612978
	H91	H	0.896919	0.911667	0.376423
	H92	H	0.087013	0.624786	0.900250
	H93	H	0.089678	0.389325	0.093709
	H94	H	0.903550	0.627063	0.098430
	H95	H	0.909256	0.392373	0.894226
	H96	H	0.397394	0.127633	0.596865
	H97	H	0.587023	0.890656	0.588475
	H98	H	0.593538	0.127236	0.393740
	H99	H	0.396103	0.891928	0.405305
	H100	H	0.584734	0.410989	0.113268
	H101	H	0.577414	0.600620	0.882035
	H102	H	0.409698	0.605908	0.113525
	H103	H	0.410477	0.415834	0.882786
	H104	H	0.109382	0.587819	0.405625
	H105	H	0.878288	0.603959	0.589970
	H106	H	0.112155	0.417088	0.583347
	H107	H	0.875593	0.405647	0.399506
	H108	H	0.912631	0.621482	0.086084
	H109	H	0.082008	0.392593	0.087681
	H110	H	0.086299	0.621082	0.910191
	H111	H	0.901636	0.394682	0.910469
	H112	H	0.086185	0.919363	0.611204
	H113	H	0.089350	0.096417	0.379381
	H114	H	0.900361	0.103003	0.614368
	H115	H	0.904097	0.918408	0.381425
	H116	H	0.610540	0.093579	0.906544
	H117	H	0.380458	0.094462	0.089247
	H118	H	0.612937	0.923598	0.088126
	H119	H	0.377695	0.908038	0.897340
	C120	C	0.375064	0.015640	0.616342
	C121	C	0.618382	0.998927	0.617273
	C122	C	0.618100	0.015672	0.372839
	C123	C	0.373279	0.999255	0.371762
	C124	C	0.616790	0.387068	0.003826
	C125	C	0.619261	0.630158	0.987215
	C126	C	0.376721	0.628402	0.004626
	C127	C	0.373564	0.384969	0.987600
	C128	C	0.004708	0.629310	0.375796
	C129	C	0.987679	0.630732	0.618636
	C130	C	0.004856	0.387490	0.616797
	C131	C	0.987858	0.386395	0.373940
	C132	C	0.874929	0.516777	0.117302
	C133	C	0.118713	0.498882	0.118705
	C134	C	0.118162	0.516070	0.875298
	C135	C	0.873648	0.499589	0.873458
	C136	C	0.116135	0.887503	0.503941
	C137	C	0.118721	0.131339	0.486555
	C138	C	0.875429	0.128869	0.504429
	C139	C	0.873659	0.885346	0.487529
	C140	C	0.505559	0.128738	0.874139
	C141	C	0.487859	0.130339	0.117313
	C142	C	0.505754	0.887715	0.114746
	C143	C	0.488569	0.884268	0.872160
	C144	C	0.377193	0.892328	0.669202
	C145	C	0.617588	0.121638	0.673749
	C146	C	0.615431	0.892886	0.315820
	C147	C	0.377756	0.122321	0.317935
	C148	C	0.670882	0.389224	0.879989
	C149	C	0.674246	0.628681	0.111118
	C150	C	0.319443	0.625075	0.881912
	C151	C	0.318694	0.388602	0.111317
	C152	C	0.880975	0.682830	0.377914
	C153	C	0.110889	0.687702	0.617458
	C154	C	0.881424	0.331117	0.614293
	C155	C	0.111085	0.331356	0.375201
	C156	C	0.881226	0.389256	0.670948
	C157	C	0.111265	0.629606	0.674188
	C158	C	0.881446	0.626356	0.319637
	C159	C	0.111503	0.389782	0.318615
	C160	C	0.377553	0.682037	0.880982
	C161	C	0.618985	0.688268	0.109757
	C162	C	0.614127	0.331455	0.880217
	C163	C	0.375344	0.330340	0.110901
	C164	C	0.672650	0.892865	0.374451
	C165	C	0.674039	0.122148	0.615840
	C166	C	0.318550	0.892766	0.612093
	C167	C	0.319598	0.122555	0.375458
	C168	C	0.876555	0.393231	0.171197
	C169	C	0.118070	0.621669	0.175234
	C170	C	0.114550	0.393522	0.818460
	C171	C	0.877306	0.622964	0.820078
	C172	C	0.170217	0.888084	0.380060
	C173	C	0.174501	0.129361	0.610018
	C174	C	0.820157	0.124930	0.380582
	C175	C	0.818776	0.889622	0.611372
	C176	C	0.381124	0.181396	0.876406
	C177	C	0.611169	0.187511	0.116070
	C178	C	0.383121	0.829998	0.113779
	C179	C	0.612090	0.829956	0.873268
	C180	C	0.382112	0.887937	0.169559
	C181	C	0.611789	0.129054	0.172695
	C182	C	0.381254	0.123221	0.819802
	C183	C	0.612118	0.888606	0.816941
	C184	C	0.877181	0.182851	0.380579
	C185	C	0.117784	0.187868	0.610022
	C186	C	0.113912	0.829888	0.381144
	C187	C	0.875401	0.831581	0.611111
	C188	C	0.171798	0.392886	0.876655
	C189	C	0.175960	0.621580	0.118333
	C190	C	0.818781	0.393113	0.113135
	C191	C	0.819752	0.622831	0.877616
	C192	C	0.397916	0.101586	0.595503
	C193	C	0.595319	0.913127	0.593784
	C194	C	0.595689	0.101073	0.396175
	C195	C	0.394574	0.913694	0.393402
	C196	C	0.594977	0.409558	0.090487
	C197	C	0.596062	0.606332	0.901002
	C198	C	0.399701	0.607411	0.090710
	C199	C	0.395749	0.406360	0.901469
	C200	C	0.090866	0.607604	0.398531
	C201	C	0.901280	0.607861	0.596263
	C202	C	0.091093	0.410535	0.594999
	C203	C	0.901583	0.407587	0.395636
	C204	C	0.897800	0.602345	0.096036
	C205	C	0.094947	0.413320	0.095225
	C206	C	0.096149	0.601711	0.898866
	C207	C	0.894779	0.413825	0.894174
	C208	C	0.094416	0.911142	0.590156
	C209	C	0.095331	0.108526	0.400355
	C210	C	0.897976	0.107850	0.590557
	C211	C	0.895834	0.906492	0.401373
	C212	C	0.591931	0.108469	0.896397
	C213	C	0.401828	0.107262	0.094568
	C214	C	0.591698	0.911703	0.092013
	C215	C	0.402311	0.905258	0.894494
	Zn216	Zn	0.497152	0.007295	0.745300
	Zn217	Zn	0.496658	0.007333	0.243419
	Zn218	Zn	0.745590	0.508039	-0.004488
	Zn219	Zn	0.246486	0.507569	-0.002726
	Zn220	Zn	-0.004319	0.758146	0.496921
	Zn221	Zn	-0.004123	0.258611	0.495542
	Zn222	Zn	-0.003812	0.508484	0.745775
	Zn223	Zn	-0.003633	0.508355	0.246433
	Zn224	Zn	0.497731	0.758057	-0.004946
	Zn225	Zn	0.495979	0.257831	-0.004837
	Zn226	Zn	0.746523	0.007476	0.496120
	Zn227	Zn	0.245400	0.007772	0.494316
	N228	N	0.411544	0.969714	0.672032
	N229	N	0.583659	0.043943	0.674746
	N230	N	0.582391	0.970274	0.314668
	N231	N	0.410383	0.044622	0.315402
	N232	N	0.672872	0.422974	0.958012
	N233	N	0.674663	0.593351	0.033595
	N234	N	0.318543	0.592661	0.959867
	N235	N	0.317566	0.421960	0.033720
	N236	N	0.958722	0.684801	0.412059
	N237	N	0.032924	0.688611	0.583709
	N238	N	0.959371	0.329942	0.581389
	N239	N	0.033219	0.329110	0.408746
	N240	N	0.958963	0.423856	0.672428
	N241	N	0.033660	0.594843	0.675139
	N242	N	0.959461	0.593797	0.318251
	N243	N	0.033940	0.423373	0.317646
	N244	N	0.412604	0.684236	0.958290
	N245	N	0.585625	0.689155	0.031758
	N246	N	0.581240	0.330070	0.958413
	N247	N	0.408906	0.328013	0.033012
	N248	N	0.674317	0.970036	0.409463
	N249	N	0.674697	0.044780	0.581332
	N250	N	0.316958	0.970671	0.580014
	N251	N	0.316565	0.045010	0.408127
	N252	N	0.910792	0.470888	0.174015
	N253	N	0.082792	0.544559	0.175307
	N254	N	0.081964	0.471225	0.817421
	N255	N	0.910157	0.545516	0.817268
	N256	N	0.171503	0.923559	0.457403
	N257	N	0.175235	0.094788	0.532211
	N258	N	0.818710	0.092300	0.458466
	N259	N	0.817432	0.922170	0.533242
	N260	N	0.459312	0.185049	0.909553
	N261	N	0.533265	0.188369	0.082320
	N262	N	0.461078	0.829891	0.080281
	N263	N	0.534249	0.827126	0.906878
	N264	N	0.459527	0.923088	0.170343
	N265	N	0.534181	0.094230	0.173526
	N266	N	0.459482	0.091352	0.818105
	N267	N	0.534389	0.921693	0.816098
	N268	N	0.911027	0.185392	0.458566
	N269	N	0.084030	0.189371	0.532145
	N270	N	0.081152	0.829280	0.459237
	N271	N	0.908592	0.828542	0.533295
	N272	N	0.174114	0.470190	0.911321
	N273	N	0.176263	0.544251	0.083805
	N274	N	0.817618	0.470608	0.080524
	N275	N	0.817384	0.545213	0.910120
	O276	O	0.057364	-0.026763	-0.077832
	H277	H	0.066072	-0.033337	-0.080417
	H278	H	0.057936	-0.024081	-0.076878
	O279	O	0.497292	0.441271	0.435973
	H280	H	0.494375	0.442450	0.430772
	H281	H	0.510282	0.448146	0.435318
	O282	O	0.397096	0.460768	0.581620
	H283	H	0.391288	0.461088	0.582102
	H284	H	0.411841	0.459355	0.576717
	O285	O	0.043713	-0.033760	0.983623
	H286	H	0.047487	-0.035438	0.983809
	H287	H	0.048806	-0.024836	0.994847
	O288	O	0.510940	0.512286	0.491215
	H289	H	0.522556	0.518429	0.498572
	H290	H	0.516425	0.514065	0.486532
	O291	O	1.062934	1.070226	1.025656
	H292	H	1.064965	1.065571	1.021356
	H293	H	1.061925	1.077960	1.023173
	O294	O	0.933393	0.980568	1.010493
	H295	H	0.937280	0.980223	1.019686
	H296	H	0.934990	0.980319	1.015327
	O297	O	1.074303	0.037862	1.052628
	H298	H	1.078079	0.049569	1.043509
	H299	H	1.075884	0.032955	1.049186
	O300	O	0.530872	0.572745	0.481064
	H301	H	0.531721	0.576315	0.476258
	H302	H	0.529360	0.562693	0.490572
	O303	O	0.973737	0.023141	-0.000268
	H304	H	0.969378	0.025890	0.000588
	H305	H	0.975099	0.018808	-0.001690
	O306	O	0.087430	1.031885	1.029100
	H307	H	0.082302	1.018763	1.027834
	H308	H	0.071114	1.031714	1.017921
	O309	O	0.496616	0.466817	0.506980
	H310	H	0.485877	0.467033	0.510489
	H311	H	0.480458	0.469608	0.508549
	O312	O	0.924742	0.074043	0.951256
	H313	H	0.913924	0.069192	0.947755
	H314	H	0.922545	0.080395	0.955447
	O315	O	0.477277	0.614806	0.508596
	H316	H	0.474337	0.626610	0.506399
	H317	H	0.482052	0.617815	0.504345
	O318	O	0.355738	0.552660	0.433690
	H319	H	0.350107	0.552946	0.451363
	H320	H	0.352277	0.551460	0.432601
	O321	O	1.011589	0.915331	1.012343
	H322	H	1.017988	0.910740	1.014546
	H323	H	1.022589	0.922278	1.016130
	O324	O	0.611246	0.605144	0.577546
	H325	H	0.609333	0.611781	0.572832
	H326	H	0.624446	0.612553	0.585110
	O327	O	0.516739	0.496825	0.590471
	H328	H	0.522714	0.493843	0.584602
	H329	H	0.523659	0.490716	0.598603
	O330	O	1.045794	0.046660	1.040879
	H331	H	1.050975	0.042961	1.032395
	H332	H	1.045833	0.049030	1.040046
	O333	O	0.958969	0.993464	-0.096754
	H334	H	0.958036	0.992970	-0.091966
	H335	H	0.954319	0.974202	-0.096301
	O336	O	0.454797	0.470325	0.535436
	H337	H	0.446616	0.479303	0.533708
	H338	H	0.449831	0.462576	0.534381
	O339	O	0.485731	0.515549	0.470538
	H340	H	0.493153	0.519109	0.477099
	H341	H	0.485627	0.516178	0.473966
	O342	O	0.079823	0.941872	-0.018461
	H343	H	0.084882	0.956431	-0.034911
	H344	H	0.077122	0.942118	0.000850
	O345	O	-0.062778	-0.050432	0.079570
	H346	H	-0.061140	-0.056985	0.079826
	H347	H	-0.056088	-0.055312	0.088143
	O348	O	0.583986	0.611507	0.553933
	H349	H	0.586575	0.602260	0.546745
	H350	H	0.586568	0.618517	0.563181
	O351	O	0.603408	0.508694	0.475575
	H352	H	0.597630	0.513975	0.472279
	H353	H	0.607720	0.506811	0.470575
	O354	O	0.465103	0.474904	0.541565
	H355	H	0.471823	0.476037	0.552625
	H356	H	0.470010	0.464185	0.536633
	O357	O	0.406518	0.450401	0.580002
	H358	H	0.411928	0.448588	0.577842
	H359	H	0.410863	0.459303	0.585068
	O360	O	-0.024652	-0.076013	-0.008151
	H361	H	-0.024749	-0.075644	-0.005577
	H362	H	-0.022097	-0.072649	-0.008793
	O363	O	0.422919	0.464645	0.446445
	H364	H	0.422175	0.459579	0.454019
	H365	H	0.411903	0.454198	0.450023
	O366	O	-0.052390	0.104555	0.960257
	H367	H	-0.061706	0.097609	0.954001
	H368	H	-0.048747	0.107202	0.980198
	O369	O	0.596826	0.386408	0.394600
	H370	H	0.586639	0.378452	0.388184
	H371	H	0.598876	0.381840	0.393283
