data_Molecule from HDF5

_cell_length_a		16.267134
_cell_length_b		16.333517
_cell_length_c		16.299176
_cell_angle_alpha	89.830181
_cell_angle_beta	89.992021
_cell_angle_gamma	90.015029
_symmetry_space_group_name_H-M	'P 1'
_symmetry_Int_Tables_number		1

loop_
	_symmetry_equiv_pos_as_xyz
	x,y,z

loop_
	_atom_site_label
	_atom_site_type_symbol
	_atom_site_fract_x
	_atom_site_fract_y
	_atom_site_fract_z
	H0	H	0.403767	0.839977	0.707136
	H1	H	0.600209	0.167163	0.706173
	H2	H	0.600155	0.840781	0.279512
	H3	H	0.404089	0.167283	0.277708
	H4	H	0.716487	0.407971	0.828421
	H5	H	0.715499	0.599743	0.156401
	H6	H	0.288186	0.603129	0.829482
	H7	H	0.289903	0.406866	0.157452
	H8	H	0.838612	0.719814	0.393943
	H9	H	0.165120	0.719751	0.591110
	H10	H	0.837665	0.290923	0.591117
	H11	H	0.166003	0.291015	0.394428
	H12	H	0.837950	0.407440	0.707238
	H13	H	0.165469	0.604607	0.707212
	H14	H	0.838045	0.602574	0.278991
	H15	H	0.166428	0.408221	0.280079
	H16	H	0.404352	0.719372	0.829884
	H17	H	0.601075	0.717365	0.156510
	H18	H	0.602503	0.290077	0.828461
	H19	H	0.405756	0.290123	0.157083
	H20	H	0.715762	0.841243	0.396525
	H21	H	0.715132	0.168154	0.589046
	H22	H	0.288321	0.840017	0.589881
	H23	H	0.288301	0.167849	0.393163
	H24	H	0.904427	0.341916	0.207908
	H25	H	0.100405	0.667885	0.206113
	H26	H	0.101780	0.342108	0.777921
	H27	H	0.903353	0.668437	0.777787
	H28	H	0.214703	0.907702	0.328826
	H29	H	0.216121	0.101250	0.656535
	H30	H	0.788021	0.103008	0.328776
	H31	H	0.789186	0.907080	0.656908
	H32	H	0.338430	0.219062	0.894298
	H33	H	0.666428	0.217893	0.089928
	H34	H	0.338685	0.788806	0.092448
	H35	H	0.666044	0.790852	0.894759
	H36	H	0.337970	0.906985	0.206621
	H37	H	0.666540	0.100776	0.205486
	H38	H	0.337995	0.101879	0.778402
	H39	H	0.666250	0.907513	0.779417
	H40	H	0.902941	0.220613	0.329203
	H41	H	0.101051	0.219160	0.656842
	H42	H	0.100031	0.790915	0.329018
	H43	H	0.903357	0.788982	0.656059
	H44	H	0.216587	0.341280	0.896296
	H45	H	0.216347	0.667917	0.090250
	H46	H	0.788858	0.340989	0.091643
	H47	H	0.788092	0.668053	0.894360
	H48	H	0.408337	0.119134	0.585454
	H49	H	0.591766	0.888875	0.588271
	H50	H	0.607332	0.123649	0.399868
	H51	H	0.404091	0.886122	0.398168
	H52	H	0.601943	0.403714	0.112467
	H53	H	0.594498	0.605491	0.874315
	H54	H	0.412624	0.603426	0.110647
	H55	H	0.415469	0.416886	0.880288
	H56	H	0.120285	0.598577	0.394551
	H57	H	0.889621	0.590526	0.579945
	H58	H	0.117973	0.413182	0.585127
	H59	H	0.886694	0.419233	0.397526
	H60	H	0.118529	0.410986	0.587187
	H61	H	0.882827	0.594732	0.594518
	H62	H	0.119247	0.602625	0.403022
	H63	H	0.882196	0.406113	0.394894
	H64	H	0.402732	0.597136	0.111519
	H65	H	0.601580	0.595974	0.874608
	H66	H	0.598883	0.418997	0.106686
	H67	H	0.410960	0.403585	0.875098
	H68	H	0.590179	0.122228	0.386748
	H69	H	0.597604	0.888100	0.582603
	H70	H	0.410390	0.119504	0.586693
	H71	H	0.411929	0.888623	0.396714
	H72	H	0.907450	0.620684	0.082511
	H73	H	0.092894	0.387764	0.090685
	H74	H	0.097991	0.619252	0.907316
	H75	H	0.907720	0.389955	0.905091
	H76	H	0.098899	0.916450	0.608379
	H77	H	0.088131	0.091425	0.381105
	H78	H	0.899625	0.099652	0.611806
	H79	H	0.904728	0.909613	0.374553
	H80	H	0.619190	0.097721	0.897424
	H81	H	0.382098	0.110390	0.086302
	H82	H	0.621816	0.907530	0.093082
	H83	H	0.384579	0.909858	0.897976
	H84	H	0.618312	0.905710	0.080961
	H85	H	0.389952	0.092310	0.074877
	H86	H	0.619344	0.099331	0.899003
	H87	H	0.386841	0.910778	0.903473
	H88	H	0.910906	0.089966	0.605477
	H89	H	0.091270	0.108889	0.374793
	H90	H	0.087484	0.912144	0.606948
	H91	H	0.909132	0.914808	0.376948
	H92	H	0.100759	0.624273	0.894268
	H93	H	0.094125	0.389930	0.082750
	H94	H	0.906177	0.622562	0.088711
	H95	H	0.905887	0.387572	0.895835
	H96	H	0.410356	0.118797	0.584392
	H97	H	0.599211	0.886284	0.590145
	H98	H	0.588315	0.116046	0.407708
	H99	H	0.408461	0.889440	0.404320
	H100	H	0.586836	0.407492	0.106895
	H101	H	0.590152	0.594473	0.878317
	H102	H	0.412484	0.592335	0.107178
	H103	H	0.401511	0.415056	0.875300
	H104	H	0.116868	0.593226	0.401870
	H105	H	0.883873	0.605821	0.581925
	H106	H	0.118132	0.409686	0.585349
	H107	H	0.887783	0.409684	0.407495
	H108	H	0.912323	0.620805	0.087020
	H109	H	0.100265	0.386786	0.087499
	H110	H	0.087819	0.618995	0.896706
	H111	H	0.915359	0.389920	0.898333
	H112	H	0.095907	0.905275	0.611501
	H113	H	0.104973	0.096002	0.374843
	H114	H	0.914909	0.105711	0.609200
	H115	H	0.911787	0.908505	0.376469
	H116	H	0.618143	0.097556	0.899359
	H117	H	0.384369	0.090974	0.097264
	H118	H	0.616822	0.917882	0.086609
	H119	H	0.386117	0.915416	0.899527
	C120	C	0.380332	0.011815	0.614121
	C121	C	0.624059	0.995959	0.614525
	C122	C	0.623402	0.012863	0.371164
	C123	C	0.380169	0.995880	0.370984
	C124	C	0.624319	0.382542	0.000265
	C125	C	0.624194	0.626141	0.984180
	C126	C	0.380753	0.626067	0.001556
	C127	C	0.381319	0.383052	0.985320
	C128	C	0.010434	0.626553	0.370995
	C129	C	0.993245	0.626428	0.613943
	C130	C	0.010110	0.382988	0.614463
	C131	C	0.993925	0.383256	0.371557
	C132	C	0.880807	0.513150	0.114305
	C133	C	0.124161	0.496171	0.114945
	C134	C	0.124075	0.512909	0.871279
	C135	C	0.881157	0.496917	0.871227
	C136	C	0.122600	0.883101	0.500924
	C137	C	0.123503	0.126688	0.484815
	C138	C	0.880292	0.126678	0.500610
	C139	C	0.880470	0.882620	0.484369
	C140	C	0.510344	0.126081	0.870602
	C141	C	0.494031	0.125388	0.113790
	C142	C	0.510589	0.882390	0.114751
	C143	C	0.493943	0.883538	0.871806
	C144	C	0.383188	0.888780	0.669118
	C145	C	0.620659	0.118858	0.668200
	C146	C	0.620819	0.889573	0.317107
	C147	C	0.383344	0.118734	0.315557
	C148	C	0.679166	0.386579	0.877371
	C149	C	0.678115	0.621345	0.107594
	C150	C	0.325894	0.623537	0.878587
	C151	C	0.327329	0.385961	0.108486
	C152	C	0.887244	0.681409	0.373653
	C153	C	0.116305	0.681990	0.611786
	C154	C	0.886756	0.328315	0.612047
	C155	C	0.117095	0.328691	0.374139
	C156	C	0.886674	0.386350	0.669458
	C157	C	0.116707	0.624748	0.669302
	C158	C	0.887139	0.623437	0.316306
	C159	C	0.117278	0.386783	0.317167
	C160	C	0.383763	0.681136	0.878620
	C161	C	0.621735	0.680125	0.107309
	C162	C	0.622158	0.328215	0.877301
	C163	C	0.384727	0.327842	0.108152
	C164	C	0.678106	0.889714	0.375140
	C165	C	0.678285	0.119122	0.610324
	C166	C	0.325389	0.888977	0.611230
	C167	C	0.325659	0.118871	0.373253
	C168	C	0.883590	0.390430	0.169897
	C169	C	0.121005	0.619316	0.168611
	C170	C	0.122059	0.390649	0.815897
	C171	C	0.883233	0.619639	0.815827
	C172	C	0.177472	0.886464	0.377680
	C173	C	0.178556	0.122769	0.607845
	C174	C	0.825807	0.123624	0.377504
	C175	C	0.826406	0.886056	0.607841
	C176	C	0.387065	0.181022	0.873359
	C177	C	0.617571	0.179612	0.110515
	C178	C	0.387428	0.827077	0.112353
	C179	C	0.617177	0.828595	0.874328
	C180	C	0.386970	0.885482	0.169145
	C181	C	0.617527	0.121729	0.168047
	C182	C	0.386824	0.122727	0.816089
	C183	C	0.617374	0.886740	0.817378
	C184	C	0.882739	0.182213	0.377960
	C185	C	0.121162	0.181085	0.608024
	C186	C	0.120294	0.828636	0.377830
	C187	C	0.883288	0.827530	0.607537
	C188	C	0.179110	0.390167	0.874743
	C189	C	0.178819	0.619197	0.111344
	C190	C	0.826122	0.390198	0.111949
	C191	C	0.825921	0.619420	0.873882
	C192	C	0.403090	0.097274	0.592001
	C193	C	0.602623	0.909832	0.593403
	C194	C	0.601768	0.098562	0.392064
	C195	C	0.401752	0.910309	0.393193
	C196	C	0.602355	0.403589	0.086590
	C197	C	0.602044	0.604900	0.897952
	C198	C	0.402761	0.603940	0.087601
	C199	C	0.403037	0.405351	0.899180
	C200	C	0.096638	0.604503	0.393207
	C201	C	0.907609	0.603765	0.591943
	C202	C	0.095980	0.404997	0.592538
	C203	C	0.907679	0.405137	0.393554
	C204	C	0.902292	0.599174	0.092419
	C205	C	0.102301	0.410436	0.093594
	C206	C	0.101982	0.598649	0.892915
	C207	C	0.903308	0.411157	0.893155
	C208	C	0.100446	0.904884	0.586719
	C209	C	0.101243	0.105156	0.399067
	C210	C	0.901898	0.104689	0.586646
	C211	C	0.902080	0.904517	0.398245
	C212	C	0.596717	0.104505	0.892215
	C213	C	0.407617	0.104137	0.092432
	C214	C	0.596639	0.904018	0.093229
	C215	C	0.407926	0.905421	0.893897
	Zn216	Zn	0.502124	0.003809	0.742814
	Zn217	Zn	0.501791	0.003850	0.242912
	Zn218	Zn	0.752377	0.504517	-0.007785
	Zn219	Zn	0.252567	0.504318	-0.006160
	Zn220	Zn	0.002039	0.754265	0.492649
	Zn221	Zn	0.002092	0.254924	0.493062
	Zn222	Zn	0.002437	0.505614	0.741981
	Zn223	Zn	0.002150	0.505123	0.243361
	Zn224	Zn	0.502339	0.754540	-0.007185
	Zn225	Zn	0.502349	0.253855	-0.007778
	Zn226	Zn	0.752247	0.004580	0.492743
	Zn227	Zn	0.251554	0.004248	0.492558
	N228	N	0.416517	0.966238	0.671102
	N229	N	0.587801	0.041352	0.670837
	N230	N	0.587412	0.966980	0.314587
	N231	N	0.416609	0.041410	0.314209
	N232	N	0.680535	0.419771	0.954779
	N233	N	0.679611	0.588535	0.029994
	N234	N	0.324080	0.589813	0.956098
	N235	N	0.325284	0.419543	0.031086
	N236	N	0.964965	0.683546	0.406697
	N237	N	0.038860	0.682961	0.577945
	N238	N	0.964276	0.326311	0.578556
	N239	N	0.039353	0.326649	0.407311
	N240	N	0.964451	0.419590	0.671171
	N241	N	0.039326	0.590817	0.670788
	N242	N	0.964769	0.590064	0.314735
	N243	N	0.039531	0.420010	0.315289
	N244	N	0.417164	0.682564	0.955996
	N245	N	0.588545	0.682908	0.029516
	N246	N	0.588838	0.325547	0.954882
	N247	N	0.417492	0.325969	0.030237
	N248	N	0.679779	0.967143	0.408051
	N249	N	0.680449	0.041549	0.577572
	N250	N	0.323496	0.966427	0.577876
	N251	N	0.323407	0.041560	0.406899
	N252	N	0.916998	0.467705	0.171317
	N253	N	0.087786	0.541921	0.171026
	N254	N	0.088345	0.467962	0.813858
	N255	N	0.916913	0.542374	0.814108
	N256	N	0.178823	0.919830	0.455044
	N257	N	0.180155	0.089525	0.530361
	N258	N	0.824057	0.089862	0.454839
	N259	N	0.824645	0.919857	0.530440
	N260	N	0.464872	0.183261	0.906062
	N261	N	0.540017	0.181716	0.077356
	N262	N	0.465211	0.825202	0.079059
	N263	N	0.539452	0.826728	0.907746
	N264	N	0.464380	0.919126	0.170846
	N265	N	0.539619	0.088579	0.170065
	N266	N	0.464519	0.089268	0.814268
	N267	N	0.539814	0.920126	0.815749
	N268	N	0.916013	0.183876	0.455495
	N269	N	0.088034	0.183665	0.530502
	N270	N	0.086956	0.826388	0.455326
	N271	N	0.915824	0.825142	0.529739
	N272	N	0.180736	0.467238	0.908215
	N273	N	0.180791	0.541703	0.078678
	N274	N	0.824411	0.467476	0.077935
	N275	N	0.824785	0.542270	0.907769
	O276	O	0.445136	-0.541082	1.522857
	H277	H	0.443835	-0.539715	1.524443
	H278	H	0.445353	-0.540353	1.528519
	O279	O	0.427534	0.461996	0.569044
	H280	H	0.431395	0.453871	0.572233
	H281	H	0.424004	0.466951	0.578870
	O282	O	0.180303	0.871335	0.743479
	H283	H	0.178676	0.875291	0.747090
	H284	H	0.172886	0.877375	0.745292
	O285	O	0.437651	0.424461	0.604016
	H286	H	0.445024	0.415019	0.607874
	H287	H	0.433325	0.417533	0.595007
	O288	O	0.431672	0.408768	0.569638
	H289	H	0.433829	0.408798	0.574207
	H290	H	0.439093	0.402763	0.567510
	O291	O	-0.003421	1.033365	0.930810
	H292	H	-0.008594	1.035140	0.929008
	H293	H	-0.006079	1.035744	0.928117
	O294	O	0.432689	0.418186	0.529954
	H295	H	0.418620	0.415698	0.530542
	H296	H	0.428191	0.420514	0.519848
	O297	O	0.981586	0.047872	-0.077984
	H298	H	0.984658	0.052087	-0.080229
	H299	H	0.977867	0.052929	-0.077978
