data_Molecule from HDF5

_cell_length_a		16.341247
_cell_length_b		16.257098
_cell_length_c		16.320841
_cell_angle_alpha	89.984104
_cell_angle_beta	89.858329
_cell_angle_gamma	90.066779
_symmetry_space_group_name_H-M	'P 1'
_symmetry_Int_Tables_number		1

loop_
	_symmetry_equiv_pos_as_xyz
	x,y,z

loop_
	_atom_site_label
	_atom_site_type_symbol
	_atom_site_fract_x
	_atom_site_fract_y
	_atom_site_fract_z
	H0	H	0.397599	0.835469	0.720754
	H1	H	0.593805	0.163458	0.721156
	H2	H	0.593362	0.835334	0.293768
	H3	H	0.397701	0.163134	0.293442
	H4	H	0.711141	0.401797	0.844127
	H5	H	0.710666	0.599641	0.170818
	H6	H	0.281108	0.599412	0.844018
	H7	H	0.280791	0.401430	0.170762
	H8	H	0.832980	0.713125	0.410900
	H9	H	0.158952	0.713599	0.605299
	H10	H	0.833128	0.284281	0.605960
	H11	H	0.159620	0.285717	0.409075
	H12	H	0.832678	0.400438	0.722217
	H13	H	0.158647	0.597671	0.721202
	H14	H	0.832800	0.598265	0.293204
	H15	H	0.157619	0.399477	0.289513
	H16	H	0.398320	0.714619	0.844454
	H17	H	0.592860	0.714162	0.171084
	H18	H	0.593883	0.286211	0.843354
	H19	H	0.397914	0.286552	0.171155
	H20	H	0.710605	0.835789	0.408059
	H21	H	0.710178	0.163395	0.605277
	H22	H	0.281095	0.835854	0.605378
	H23	H	0.282091	0.163696	0.409819
	H24	H	0.896621	0.336550	0.221443
	H25	H	0.093434	0.663547	0.221336
	H26	H	0.093428	0.335745	0.793474
	H27	H	0.898204	0.663706	0.792509
	H28	H	0.210688	0.901112	0.343998
	H29	H	0.210381	0.098094	0.670693
	H30	H	0.781373	0.098529	0.344085
	H31	H	0.780012	0.900643	0.670362
	H32	H	0.332519	0.214334	0.909983
	H33	H	0.660108	0.212636	0.103341
	H34	H	0.332075	0.785948	0.104652
	H35	H	0.659227	0.785824	0.908738
	H36	H	0.332780	0.901189	0.222083
	H37	H	0.658694	0.098674	0.222577
	H38	H	0.331966	0.097993	0.793366
	H39	H	0.658208	0.901431	0.790952
	H40	H	0.898576	0.213774	0.343687
	H41	H	0.093515	0.213454	0.670514
	H42	H	0.092620	0.786034	0.343643
	H43	H	0.897589	0.785561	0.671340
	H44	H	0.210085	0.336156	0.908301
	H45	H	0.210016	0.663745	0.105737
	H46	H	0.781187	0.336502	0.105325
	H47	H	0.782291	0.664381	0.908938
	H48	H	0.407475	0.115303	0.600687
	H49	H	0.592989	0.884199	0.593370
	H50	H	0.587555	0.112839	0.423294
	H51	H	0.405852	0.882611	0.410561
	H52	H	0.589253	0.402490	0.124541
	H53	H	0.586499	0.592411	0.893473
	H54	H	0.393575	0.596311	0.126579
	H55	H	0.400651	0.403047	0.889741
	H56	H	0.111528	0.593877	0.416682
	H57	H	0.885474	0.581180	0.592140
	H58	H	0.113247	0.405668	0.603812
	H59	H	0.882936	0.407515	0.421966
	H60	H	0.111218	0.405495	0.597681
	H61	H	0.876066	0.589084	0.614538
	H62	H	0.111050	0.588482	0.413258
	H63	H	0.880413	0.412369	0.408156
	H64	H	0.402580	0.583807	0.120507
	H65	H	0.589674	0.595793	0.890742
	H66	H	0.592513	0.408412	0.123983
	H67	H	0.399930	0.410564	0.891022
	H68	H	0.597387	0.119391	0.412061
	H69	H	0.590506	0.880326	0.605429
	H70	H	0.400582	0.115827	0.596054
	H71	H	0.403429	0.884436	0.419489
	H72	H	0.906973	0.618502	0.107896
	H73	H	0.091846	0.380682	0.104565
	H74	H	0.088744	0.617081	0.910571
	H75	H	0.911290	0.384101	0.909308
	H76	H	0.083448	0.906914	0.622137
	H77	H	0.082202	0.101744	0.390517
	H78	H	0.903489	0.091003	0.622378
	H79	H	0.893510	0.907022	0.389094
	H80	H	0.613907	0.098476	0.908204
	H81	H	0.379527	0.094635	0.102125
	H82	H	0.612535	0.905189	0.100046
	H83	H	0.383733	0.918644	0.914211
	H84	H	0.610546	0.907884	0.098565
	H85	H	0.379935	0.093027	0.100851
	H86	H	0.610179	0.095198	0.920016
	H87	H	0.374820	0.901613	0.903600
	H88	H	0.903003	0.093976	0.623887
	H89	H	0.101367	0.095158	0.387000
	H90	H	0.091036	0.901146	0.625726
	H91	H	0.906953	0.913302	0.394946
	H92	H	0.085887	0.614964	0.915255
	H93	H	0.081725	0.385229	0.100248
	H94	H	0.906277	0.614045	0.093590
	H95	H	0.901268	0.385997	0.924244
	H96	H	0.400648	0.117611	0.603777
	H97	H	0.580710	0.885751	0.598658
	H98	H	0.581779	0.115245	0.408319
	H99	H	0.397160	0.881400	0.413607
	H100	H	0.586436	0.407938	0.122086
	H101	H	0.591767	0.590549	0.891489
	H102	H	0.409469	0.598146	0.123356
	H103	H	0.406617	0.407014	0.892775
	H104	H	0.113208	0.594144	0.410301
	H105	H	0.877743	0.605564	0.595300
	H106	H	0.110485	0.410769	0.600450
	H107	H	0.876808	0.397979	0.412097
	H108	H	0.894148	0.618994	0.100336
	H109	H	0.091399	0.383972	0.093149
	H110	H	0.091695	0.617404	0.915763
	H111	H	0.893721	0.379681	0.908670
	H112	H	0.092506	0.910632	0.623143
	H113	H	0.087374	0.082314	0.394914
	H114	H	0.900611	0.091931	0.624338
	H115	H	0.906772	0.898019	0.389646
	H116	H	0.610267	0.086452	0.910356
	H117	H	0.379565	0.092514	0.102770
	H118	H	0.612202	0.908480	0.102358
	H119	H	0.380500	0.899202	0.924393
	C120	C	0.374187	0.008041	0.628711
	C121	C	0.617054	0.991402	0.628172
	C122	C	0.617367	0.007703	0.385979
	C123	C	0.374155	0.991141	0.385914
	C124	C	0.617503	0.378073	0.015342
	C125	C	0.617453	0.621511	0.999683
	C126	C	0.373696	0.621326	0.015757
	C127	C	0.373897	0.378337	0.999236
	C128	C	0.004275	0.621151	0.385310
	C129	C	0.987375	0.621035	0.629146
	C130	C	0.004173	0.377915	0.629217
	C131	C	0.987548	0.377634	0.385444
	C132	C	0.873907	0.508831	0.128551
	C133	C	0.116663	0.491387	0.128187
	C134	C	0.117330	0.508085	0.885323
	C135	C	0.874399	0.491934	0.885639
	C136	C	0.117350	0.877891	0.515612
	C137	C	0.117982	0.121098	0.498929
	C138	C	0.874434	0.121013	0.515526
	C139	C	0.873954	0.877697	0.499187
	C140	C	0.503876	0.121941	0.884908
	C141	C	0.487817	0.121788	0.129541
	C142	C	0.503980	0.878419	0.128656
	C143	C	0.487513	0.878095	0.885281
	C144	C	0.376509	0.884506	0.683650
	C145	C	0.614505	0.114555	0.683453
	C146	C	0.614468	0.884465	0.331016
	C147	C	0.377106	0.114301	0.331016
	C148	C	0.672834	0.381161	0.892628
	C149	C	0.672563	0.619501	0.122206
	C150	C	0.318849	0.619474	0.892848
	C151	C	0.318723	0.381034	0.121904
	C152	C	0.881780	0.675991	0.389051
	C153	C	0.110287	0.675941	0.625989
	C154	C	0.881504	0.322583	0.626456
	C155	C	0.110765	0.323139	0.388269
	C156	C	0.881446	0.379693	0.684598
	C157	C	0.110020	0.618496	0.683642
	C158	C	0.881674	0.618807	0.330746
	C159	C	0.109936	0.379618	0.328955
	C160	C	0.377175	0.676519	0.893019
	C161	C	0.614387	0.676725	0.122335
	C162	C	0.614459	0.323812	0.892329
	C163	C	0.376975	0.323845	0.122184
	C164	C	0.672453	0.884458	0.388161
	C165	C	0.672630	0.114393	0.626354
	C166	C	0.319013	0.884631	0.626077
	C167	C	0.319872	0.114674	0.388921
	C168	C	0.876371	0.385249	0.183446
	C169	C	0.114076	0.614732	0.183541
	C170	C	0.114182	0.384884	0.830773
	C171	C	0.877456	0.615045	0.830530
	C172	C	0.172238	0.880721	0.392542
	C173	C	0.172684	0.118486	0.621848
	C174	C	0.819417	0.118903	0.392701
	C175	C	0.817945	0.879865	0.621684
	C176	C	0.381016	0.176283	0.889086
	C177	C	0.610825	0.176072	0.125374
	C178	C	0.381161	0.823413	0.125723
	C179	C	0.610312	0.823373	0.887939
	C180	C	0.381472	0.880488	0.184114
	C181	C	0.610482	0.118956	0.184114
	C182	C	0.380987	0.118820	0.830791
	C183	C	0.609877	0.880456	0.829301
	C184	C	0.877783	0.176036	0.392593
	C185	C	0.114523	0.175665	0.622000
	C186	C	0.113885	0.823363	0.392541
	C187	C	0.876358	0.822773	0.622174
	C188	C	0.172307	0.385103	0.887804
	C189	C	0.171873	0.614898	0.126051
	C190	C	0.819175	0.385253	0.125565
	C191	C	0.819611	0.615135	0.888119
	C192	C	0.396503	0.093985	0.606770
	C193	C	0.594632	0.905591	0.605805
	C194	C	0.595433	0.093647	0.408115
	C195	C	0.395743	0.905049	0.407932
	C196	C	0.595772	0.399890	0.101310
	C197	C	0.595650	0.599332	0.913869
	C198	C	0.395217	0.599193	0.101411
	C199	C	0.395864	0.400404	0.913450
	C200	C	0.089847	0.598770	0.407059
	C201	C	0.901854	0.598630	0.607026
	C202	C	0.089562	0.400550	0.607265
	C203	C	0.902162	0.399432	0.407478
	C204	C	0.895978	0.594857	0.106943
	C205	C	0.094874	0.405452	0.105907
	C206	C	0.095344	0.594387	0.907320
	C207	C	0.895864	0.405459	0.907577
	C208	C	0.095610	0.899862	0.601520
	C209	C	0.096761	0.099490	0.413020
	C210	C	0.896079	0.098779	0.601314
	C211	C	0.896028	0.899639	0.413394
	C212	C	0.589431	0.099920	0.906459
	C213	C	0.401839	0.099788	0.108200
	C214	C	0.589754	0.900752	0.106730
	C215	C	0.401795	0.900034	0.907510
	Zn216	Zn	0.495414	-0.000303	0.756441
	Zn217	Zn	0.495837	-0.000490	0.257747
	Zn218	Zn	0.746244	0.500397	0.007206
	Zn219	Zn	0.245097	0.500228	0.006840
	Zn220	Zn	-0.004286	0.748949	0.508056
	Zn221	Zn	-0.003664	0.249205	0.507366
	Zn222	Zn	-0.004401	0.499634	0.757427
	Zn223	Zn	-0.004390	0.499759	0.256784
	Zn224	Zn	0.495824	0.749722	0.007733
	Zn225	Zn	0.495699	0.249779	0.007531
	Zn226	Zn	0.745619	-0.000568	0.507316
	Zn227	Zn	0.246108	-0.000499	0.507370
	N228	N	0.410050	0.962275	0.685366
	N229	N	0.580662	0.036990	0.684743
	N230	N	0.580614	0.961957	0.329694
	N231	N	0.410185	0.036448	0.329090
	N232	N	0.674897	0.414277	0.970136
	N233	N	0.674551	0.586002	0.044796
	N234	N	0.316766	0.585662	0.970158
	N235	N	0.316836	0.414533	0.044536
	N236	N	0.958960	0.677526	0.422259
	N237	N	0.032884	0.677539	0.592906
	N238	N	0.958669	0.321395	0.592618
	N239	N	0.033725	0.321627	0.422438
	N240	N	0.958670	0.413230	0.686698
	N241	N	0.032661	0.585227	0.685831
	N242	N	0.958987	0.585544	0.328335
	N243	N	0.032612	0.412762	0.327003
	N244	N	0.410572	0.677787	0.970087
	N245	N	0.580963	0.678094	0.045073
	N246	N	0.580886	0.321849	0.969717
	N247	N	0.410579	0.322044	0.044925
	N248	N	0.674276	0.962026	0.421631
	N249	N	0.674117	0.036895	0.592685
	N250	N	0.317392	0.962279	0.592737
	N251	N	0.317821	0.037108	0.422274
	N252	N	0.909833	0.462950	0.185454
	N253	N	0.080391	0.537127	0.184779
	N254	N	0.080835	0.462423	0.829209
	N255	N	0.910824	0.537325	0.828887
	N256	N	0.174545	0.913873	0.470142
	N257	N	0.174553	0.084833	0.544420
	N258	N	0.817151	0.085545	0.470144
	N259	N	0.816589	0.913412	0.544359
	N260	N	0.458472	0.178399	0.921719
	N261	N	0.533606	0.177513	0.092079
	N262	N	0.458381	0.822279	0.091857
	N263	N	0.533199	0.821841	0.922019
	N264	N	0.458846	0.913855	0.186167
	N265	N	0.532859	0.085988	0.186768
	N266	N	0.458309	0.085484	0.828179
	N267	N	0.532558	0.913831	0.827762
	N268	N	0.911445	0.177193	0.469765
	N269	N	0.081509	0.177619	0.544630
	N270	N	0.080451	0.821561	0.469951
	N271	N	0.910588	0.821389	0.545116
	N272	N	0.174339	0.462939	0.921028
	N273	N	0.173648	0.537409	0.092296
	N274	N	0.817471	0.463006	0.092434
	N275	N	0.817933	0.537535	0.921696
	O276	O	0.540053	0.506834	0.523932
	H277	H	0.545458	0.508211	0.517171
	H278	H	0.544041	0.504595	0.526171
	O279	O	0.518611	0.492923	0.511558
	H280	H	0.522172	0.494096	0.505403
	H281	H	0.521246	0.488578	0.517466
	O282	O	1.559968	0.494036	-0.494312
	H283	H	1.568040	0.498615	-0.495582
	H284	H	1.552466	0.492066	-0.489301
	O285	O	0.536129	0.501775	0.505770
	H286	H	0.529470	0.500063	0.512753
	H287	H	0.533990	0.506037	0.511894
