data_Molecule from HDF5

_cell_length_a		16.534105
_cell_length_b		16.522348
_cell_length_c		16.594806
_cell_angle_alpha	89.943216
_cell_angle_beta	90.048866
_cell_angle_gamma	90.127283
_symmetry_space_group_name_H-M	'P 1'
_symmetry_Int_Tables_number		1

loop_
	_symmetry_equiv_pos_as_xyz
	x,y,z

loop_
	_atom_site_label
	_atom_site_type_symbol
	_atom_site_fract_x
	_atom_site_fract_y
	_atom_site_fract_z
	H0	H	0.379603	0.847068	0.718114
	H1	H	0.600602	0.156195	0.718786
	H2	H	0.592106	0.845557	0.272085
	H3	H	0.383560	0.159137	0.271383
	H4	H	0.710073	0.398265	0.836356
	H5	H	0.706196	0.606600	0.149579
	H6	H	0.265193	0.608626	0.835709
	H7	H	0.264943	0.396157	0.147410
	H8	H	0.832826	0.724572	0.387248
	H9	H	0.145979	0.725498	0.599575
	H10	H	0.832818	0.279464	0.598551
	H11	H	0.147500	0.283296	0.388292
	H12	H	0.833091	0.395327	0.715231
	H13	H	0.144931	0.611020	0.717023
	H14	H	0.832248	0.607728	0.271846
	H15	H	0.147213	0.400640	0.273514
	H16	H	0.381108	0.725741	0.834597
	H17	H	0.588835	0.721782	0.149381
	H18	H	0.593475	0.280495	0.836704
	H19	H	0.379789	0.279085	0.147331
	H20	H	0.709522	0.845459	0.387701
	H21	H	0.713104	0.157436	0.600507
	H22	H	0.264406	0.847289	0.602253
	H23	H	0.268882	0.159404	0.389059
	H24	H	0.885158	0.345204	0.211344
	H25	H	0.092501	0.661098	0.212302
	H26	H	0.093513	0.347318	0.770684
	H27	H	0.880716	0.658876	0.767801
	H28	H	0.210970	0.897830	0.337640
	H29	H	0.208861	0.105836	0.649771
	H30	H	0.766744	0.108245	0.337329
	H31	H	0.763550	0.893216	0.647602
	H32	H	0.334396	0.226718	0.883605
	H33	H	0.645772	0.223044	0.096307
	H34	H	0.330168	0.784359	0.093929
	H35	H	0.645686	0.780691	0.885672
	H36	H	0.331600	0.898899	0.212124
	H37	H	0.646100	0.106739	0.212572
	H38	H	0.335632	0.111712	0.766377
	H39	H	0.645479	0.896421	0.769566
	H40	H	0.883533	0.223345	0.336648
	H41	H	0.091230	0.221631	0.650184
	H42	H	0.093358	0.782365	0.336375
	H43	H	0.879375	0.777463	0.647687
	H44	H	0.208634	0.346122	0.888407
	H45	H	0.209218	0.660593	0.096581
	H46	H	0.769006	0.346000	0.094623
	H47	H	0.768547	0.661678	0.887449
	H48	H	0.411136	0.111045	0.580575
	H49	H	0.575914	0.892583	0.576661
	H50	H	0.578837	0.116745	0.398520
	H51	H	0.402788	0.890579	0.400528
	H52	H	0.576647	0.411711	0.105166
	H53	H	0.575836	0.595354	0.878812
	H54	H	0.403315	0.596785	0.102709
	H55	H	0.402684	0.413088	0.881432
	H56	H	0.104690	0.596457	0.396637
	H57	H	0.877717	0.591014	0.578947
	H58	H	0.099944	0.418052	0.582883
	H59	H	0.878209	0.413605	0.405007
	H60	H	0.101932	0.411588	0.583304
	H61	H	0.879793	0.588038	0.577172
	H62	H	0.100782	0.596715	0.410292
	H63	H	0.876750	0.414823	0.399054
	H64	H	0.394703	0.595205	0.105448
	H65	H	0.581433	0.595796	0.877245
	H66	H	0.580188	0.414144	0.104552
	H67	H	0.397961	0.415291	0.880859
	H68	H	0.575350	0.113102	0.403899
	H69	H	0.576647	0.890147	0.581244
	H70	H	0.397055	0.112332	0.572367
	H71	H	0.399759	0.890532	0.406953
	H72	H	0.899353	0.617911	0.087341
	H73	H	0.080171	0.389899	0.082772
	H74	H	0.079887	0.616526	0.905898
	H75	H	0.899392	0.393987	0.911077
	H76	H	0.077299	0.912014	0.604804
	H77	H	0.082782	0.087050	0.380382
	H78	H	0.903787	0.094136	0.604304
	H79	H	0.901512	0.915047	0.382469
	H80	H	0.598658	0.088627	0.906861
	H81	H	0.373527	0.098969	0.082381
	H82	H	0.603585	0.908131	0.082778
	H83	H	0.377448	0.918789	0.898608
	H84	H	0.599878	0.914501	0.078670
	H85	H	0.378503	0.089235	0.076792
	H86	H	0.600336	0.089858	0.905256
	H87	H	0.376118	0.910944	0.904019
	H88	H	0.897372	0.089944	0.605184
	H89	H	0.073990	0.093736	0.381757
	H90	H	0.078422	0.917580	0.604616
	H91	H	0.900180	0.913047	0.380784
	H92	H	0.072989	0.614395	0.900795
	H93	H	0.075859	0.390223	0.085005
	H94	H	0.900509	0.615294	0.080941
	H95	H	0.892795	0.388169	0.901164
	H96	H	0.398011	0.117604	0.587823
	H97	H	0.572579	0.892379	0.579833
	H98	H	0.581994	0.115944	0.404751
	H99	H	0.396132	0.887717	0.401553
	H100	H	0.576498	0.415550	0.103103
	H101	H	0.579293	0.590690	0.879881
	H102	H	0.399416	0.588491	0.100879
	H103	H	0.402366	0.418144	0.882444
	H104	H	0.098416	0.585309	0.402445
	H105	H	0.878425	0.587889	0.580998
	H106	H	0.099829	0.413671	0.577807
	H107	H	0.875561	0.409046	0.401505
	H108	H	0.894372	0.618124	0.082440
	H109	H	0.076933	0.392350	0.080887
	H110	H	0.072844	0.612397	0.909005
	H111	H	0.905328	0.392783	0.899097
	H112	H	0.073781	0.915792	0.603130
	H113	H	0.083082	0.097857	0.377404
	H114	H	0.903800	0.086997	0.602352
	H115	H	0.898679	0.915453	0.381788
	H116	H	0.600544	0.091146	0.907627
	H117	H	0.374652	0.088571	0.088456
	H118	H	0.601830	0.915096	0.086595
	H119	H	0.379964	0.918877	0.907845
	C120	C	0.368180	0.010768	0.614415
	C121	C	0.609791	0.994017	0.613469
	C122	C	0.610358	0.011003	0.370771
	C123	C	0.367814	0.993796	0.371490
	C124	C	0.609852	0.381937	0.000730
	C125	C	0.609454	0.625222	0.982971
	C126	C	0.366624	0.625353	-0.000438
	C127	C	0.367129	0.381744	0.983855
	C128	C	-0.002456	0.624859	0.371107
	C129	C	0.981396	0.623389	0.613276
	C130	C	-0.002793	0.381053	0.613972
	C131	C	0.981035	0.381269	0.371098
	C132	C	0.867280	0.512373	0.113853
	C133	C	0.109829	0.494879	0.114073
	C134	C	0.108424	0.511306	0.872389
	C135	C	0.866511	0.495102	0.870629
	C136	C	0.109813	0.881911	0.501556
	C137	C	0.111181	0.124376	0.483915
	C138	C	0.868202	0.123270	0.501120
	C139	C	0.866601	0.880585	0.484425
	C140	C	0.497784	0.123808	0.871636
	C141	C	0.479550	0.124374	0.114340
	C142	C	0.497107	0.881372	0.113220
	C143	C	0.480739	0.882169	0.870197
	C144	C	0.363467	0.893798	0.676560
	C145	C	0.616013	0.110195	0.676567
	C146	C	0.611429	0.892771	0.311605
	C147	C	0.365777	0.112020	0.311759
	C148	C	0.669713	0.379824	0.883185
	C149	C	0.666757	0.625249	0.102105
	C150	C	0.305662	0.627094	0.882308
	C151	C	0.305477	0.378353	0.100609
	C152	C	0.879820	0.684533	0.369105
	C153	C	0.098726	0.685202	0.617379
	C154	C	0.879755	0.320020	0.616755
	C155	C	0.099686	0.322686	0.369889
	C156	C	0.879822	0.377759	0.674798
	C157	C	0.098239	0.628072	0.675800
	C158	C	0.879484	0.626447	0.311514
	C159	C	0.099840	0.381252	0.312737
	C160	C	0.363608	0.685221	0.881747
	C161	C	0.608485	0.682711	0.101919
	C162	C	0.611836	0.321513	0.883239
	C163	C	0.362830	0.319967	0.100538
	C164	C	0.669842	0.892888	0.368986
	C165	C	0.672347	0.110614	0.617830
	C166	C	0.305696	0.893769	0.618827
	C167	C	0.308510	0.112154	0.370087
	C168	C	0.866232	0.392917	0.172006
	C169	C	0.111328	0.613533	0.172954
	C170	C	0.111501	0.393793	0.811550
	C171	C	0.863150	0.612347	0.808708
	C172	C	0.170793	0.879115	0.384250
	C173	C	0.169533	0.125262	0.602523
	C174	C	0.806942	0.126394	0.384258
	C175	C	0.804284	0.875933	0.600890
	C176	C	0.381203	0.186108	0.866224
	C177	C	0.598533	0.183431	0.115110
	C178	C	0.377923	0.823321	0.113475
	C179	C	0.598395	0.820698	0.867373
	C180	C	0.378473	0.880283	0.172052
	C181	C	0.598536	0.125742	0.173027
	C182	C	0.381815	0.128717	0.808043
	C183	C	0.598641	0.878497	0.809796
	C184	C	0.865159	0.183774	0.383687
	C185	C	0.110950	0.182483	0.602774
	C186	C	0.112169	0.822026	0.383781
	C187	C	0.862313	0.818474	0.601129
	C188	C	0.168879	0.393335	0.869678
	C189	C	0.169378	0.613304	0.115353
	C190	C	0.808622	0.393242	0.113807
	C191	C	0.807250	0.613683	0.868351
	C192	C	0.394569	0.092461	0.587948
	C193	C	0.582566	0.912796	0.586836
	C194	C	0.585696	0.093714	0.395381
	C195	C	0.392381	0.911317	0.396036
	C196	C	0.584931	0.406699	0.082813
	C197	C	0.585720	0.600942	0.900180
	C198	C	0.391903	0.600679	0.081686
	C199	C	0.393505	0.408128	0.902595
	C200	C	0.080006	0.599821	0.396032
	C201	C	0.899871	0.596673	0.586792
	C202	C	0.079130	0.407121	0.588334
	C203	C	0.898273	0.405524	0.395042
	C204	C	0.891219	0.595383	0.090419
	C205	C	0.084765	0.412216	0.089698
	C206	C	0.082672	0.593087	0.897913
	C207	C	0.891903	0.413011	0.896480
	C208	C	0.084025	0.907772	0.582841
	C209	C	0.087028	0.100138	0.401427
	C210	C	0.894170	0.097386	0.582781
	C211	C	0.892940	0.907021	0.402926
	C212	C	0.578875	0.097259	0.898866
	C213	C	0.397114	0.099596	0.089769
	C214	C	0.579995	0.905699	0.089450
	C215	C	0.399109	0.908634	0.895957
	Zn216	Zn	0.490093	0.002736	0.742276
	Zn217	Zn	0.488583	0.002295	0.242396
	Zn218	Zn	0.738575	0.504358	-0.008089
	Zn219	Zn	0.238071	0.503566	-0.008006
	Zn220	Zn	-0.011065	0.752843	0.493674
	Zn221	Zn	-0.010604	0.252429	0.492327
	Zn222	Zn	-0.011618	0.502915	0.742930
	Zn223	Zn	-0.011151	0.503077	0.242442
	Zn224	Zn	0.487923	0.754177	-0.008696
	Zn225	Zn	0.488379	0.252461	-0.007335
	Zn226	Zn	0.738944	0.002267	0.493115
	Zn227	Zn	0.239933	0.002520	0.493184
	N228	N	0.401579	0.967680	0.674027
	N229	N	0.577670	0.036642	0.673621
	N230	N	0.575523	0.967466	0.312407
	N231	N	0.401991	0.037472	0.312502
	N232	N	0.668697	0.416565	0.957366
	N233	N	0.667659	0.590418	0.026909
	N234	N	0.307371	0.590679	0.956641
	N235	N	0.308097	0.416093	0.026976
	N236	N	0.954262	0.683322	0.405689
	N237	N	0.025053	0.682319	0.579149
	N238	N	0.953829	0.322167	0.579477
	N239	N	0.024628	0.322557	0.405364
	N240	N	0.953962	0.415183	0.673207
	N241	N	0.024105	0.590284	0.673435
	N242	N	0.953950	0.589906	0.312669
	N243	N	0.024877	0.416874	0.313064
	N244	N	0.400743	0.684174	0.955821
	N245	N	0.573868	0.682971	0.026702
	N246	N	0.575411	0.322566	0.957576
	N247	N	0.400431	0.321675	0.026747
	N248	N	0.669415	0.967724	0.405033
	N249	N	0.668464	0.037466	0.578956
	N250	N	0.308642	0.967578	0.580607
	N251	N	0.309656	0.037608	0.406600
	N252	N	0.901831	0.468157	0.172551
	N253	N	0.075254	0.538605	0.172401
	N254	N	0.074506	0.468069	0.813322
	N255	N	0.899180	0.537448	0.809907
	N256	N	0.169645	0.915524	0.458584
	N257	N	0.169876	0.089804	0.527609
	N258	N	0.808638	0.089661	0.458360
	N259	N	0.806970	0.913913	0.527242
	N260	N	0.454283	0.183037	0.905167
	N261	N	0.523368	0.183031	0.079663
	N262	N	0.452780	0.823816	0.077762
	N263	N	0.523827	0.822594	0.903951
	N264	N	0.453746	0.915547	0.172291
	N265	N	0.523458	0.090076	0.173054
	N266	N	0.455506	0.090692	0.811191
	N267	N	0.524366	0.915533	0.811177
	N268	N	0.902348	0.182232	0.457562
	N269	N	0.075844	0.182386	0.527806
	N270	N	0.075245	0.823356	0.457841
	N271	N	0.900257	0.820957	0.527505
	N272	N	0.167028	0.467399	0.906899
	N273	N	0.168905	0.538301	0.079743
	N274	N	0.808763	0.468547	0.078759
	N275	N	0.809170	0.539721	0.906029
	O276	O	0.817578	1.208486	-0.214937
	H277	H	0.830317	1.207381	-0.190888
	H278	H	0.833526	1.216770	-0.202079
	O279	O	-0.035305	0.147906	0.838774
	H280	H	-0.032462	0.134201	0.834700
	H281	H	-0.010492	0.150381	0.837208
	O282	O	0.273347	0.523246	0.577948
	H283	H	0.270978	0.542195	0.565335
	H284	H	0.282910	0.523194	0.567741
	O285	O	0.281600	0.298473	0.704234
	H286	H	0.311056	0.304610	0.704699
	H287	H	0.284617	0.335173	0.698761
	O288	O	1.290463	-0.525947	1.671725
	H289	H	1.287093	-0.511714	1.647370
	H290	H	1.270524	-0.518612	1.684187
	O291	O	0.693417	0.304218	0.286780
	H292	H	0.704006	0.285188	0.269728
	H293	H	0.675840	0.295086	0.318855
	O294	O	0.188318	0.199263	0.193948
	H295	H	0.186338	0.203040	0.154543
	H296	H	0.183129	0.206640	0.210391
	O297	O	1.086608	0.208963	-0.100938
	H298	H	1.089950	0.206846	-0.103265
	H299	H	1.106455	0.209365	-0.106707
	O300	O	0.198547	-0.014349	-0.214299
	H301	H	0.196544	-0.009661	-0.227774
	H302	H	0.187640	-0.006772	-0.214599
	O303	O	0.130273	-0.212462	0.133080
	H304	H	0.138847	-0.209577	0.136122
	H305	H	0.138901	-0.200522	0.125806
	O306	O	0.812585	-0.082202	-0.115874
	H307	H	0.799388	-0.075743	-0.109629
	H308	H	0.817529	-0.072853	-0.096964
	O309	O	0.330907	0.701991	0.297379
	H310	H	0.348976	0.698693	0.298426
	H311	H	0.321241	0.687382	0.316670
	O312	O	0.706505	0.528253	0.711977
	H313	H	0.734766	0.519337	0.718217
	H314	H	0.705829	0.557034	0.712446
	O315	O	0.359212	0.410388	0.429935
	H316	H	0.377620	0.408485	0.430358
	H317	H	0.349918	0.391907	0.432343
	O318	O	1.108657	1.065355	-0.188009
	H319	H	1.087505	1.047507	-0.187727
	H320	H	1.105433	1.079006	-0.172923
	O321	O	0.006092	0.837982	1.172762
	H322	H	0.014766	0.838647	1.172993
	H323	H	0.029717	0.844435	1.175640
	O324	O	0.845650	-0.009146	1.103061
	H325	H	0.851147	-0.021771	1.090199
	H326	H	0.842485	-0.026449	1.116279
	O327	O	0.202462	0.845878	0.971792
	H328	H	0.228063	0.808105	0.964771
	H329	H	0.193435	0.859949	0.942126
	O330	O	0.484293	0.338658	0.646178
	H331	H	0.483539	0.340049	0.662789
	H332	H	0.485105	0.338368	0.647101
	O333	O	0.963408	1.059990	1.092891
	H334	H	0.941563	1.043312	1.096276
	H335	H	0.964947	1.076114	1.094389
	O336	O	0.559883	0.520844	0.320383
	H337	H	0.564942	0.513542	0.319330
	H338	H	0.571788	0.497355	0.332438
	O339	O	0.601452	0.320864	0.470593
	H340	H	0.603033	0.322113	0.490452
	H341	H	0.614255	0.318661	0.490838
	O342	O	-0.169276	0.947694	-0.210883
	H343	H	-0.163998	0.953852	-0.198256
	H344	H	-0.183883	0.958460	-0.216699
	O345	O	0.270963	0.721333	0.465587
	H346	H	0.258375	0.732820	0.457236
	H347	H	0.271959	0.732421	0.469141
	O348	O	0.363401	0.405645	0.462027
	H349	H	0.375611	0.420821	0.477664
	H350	H	0.374436	0.402078	0.463415
	O351	O	0.409658	-0.470136	1.669451
	H352	H	0.407214	-0.474462	1.670495
	H353	H	0.409420	-0.459579	1.673723
	O354	O	0.894237	-0.175291	0.934714
	H355	H	0.902717	-0.189178	0.948177
	H356	H	0.878213	-0.176284	0.932096
	O357	O	0.433242	0.447463	0.265060
	H358	H	0.442774	0.443152	0.276826
	H359	H	0.441087	0.429795	0.260630
	O360	O	1.003855	0.954011	1.107398
	H361	H	1.006425	0.954253	1.118004
	H362	H	0.992577	0.969223	1.110789
	O363	O	0.681107	0.694029	0.297075
	H364	H	0.664545	0.669675	0.309026
	H365	H	0.656302	0.679546	0.313651
	O366	O	0.572232	0.493071	0.525005
	H367	H	0.558706	0.495960	0.524390
	H368	H	0.570390	0.499939	0.534356
	O369	O	0.189851	-0.193919	0.852519
	H370	H	0.184309	-0.158320	0.832207
	H371	H	0.169172	-0.210146	0.846305
	O372	O	0.197729	1.035155	1.198930
	H373	H	0.215798	1.043789	1.210005
	H374	H	0.202462	1.049903	1.187673
	O375	O	1.171986	-0.038060	0.056250
	H376	H	1.168326	-0.031094	0.057323
	H377	H	1.174254	-0.042317	0.064422
	O378	O	0.516989	0.286407	0.272851
	H379	H	0.528287	0.283589	0.288556
	H380	H	0.514150	0.260836	0.252247
	O381	O	0.626784	0.675936	0.557612
	H382	H	0.654502	0.692905	0.568685
	H383	H	0.622852	0.662268	0.551042
	O384	O	0.322430	0.397228	0.480002
	H385	H	0.300923	0.394470	0.465680
	H386	H	0.330591	0.391347	0.500436
	O387	O	-0.004891	1.000811	0.933060
	H388	H	-0.012931	1.012824	0.941520
	H389	H	-0.008669	0.998950	0.936334
	O390	O	0.070548	0.884020	1.139195
	H391	H	0.091140	0.888095	1.124043
	H392	H	0.083382	0.887134	1.145744
	O393	O	1.023495	0.220877	0.211920
	H394	H	1.027169	0.214245	0.225968
	H395	H	1.027732	0.226973	0.232271
	O396	O	0.539373	0.311072	0.629539
	H397	H	0.528765	0.302874	0.634574
	H398	H	0.553500	0.332460	0.632868
	O399	O	0.412595	0.354965	0.442493
	H400	H	0.408890	0.349798	0.445540
	H401	H	0.422261	0.347677	0.454999
	O402	O	0.794587	0.211215	0.900786
	H403	H	0.813412	0.211996	0.916101
	H404	H	0.773240	0.226540	0.905377
	O405	O	0.450396	0.649865	0.499452
	H406	H	0.450651	0.655430	0.503808
	H407	H	0.448130	0.654649	0.506005
	O408	O	0.928600	1.218675	1.012383
	H409	H	0.937720	1.214232	1.029359
	H410	H	0.941651	1.219617	1.013784
	O411	O	0.771268	0.977862	0.213984
	H412	H	0.759313	0.953295	0.217436
	H413	H	0.758883	0.950478	0.224912
	O414	O	-0.113121	0.076869	0.026204
	H415	H	-0.126978	0.071888	0.016965
	H416	H	-0.106354	0.059281	0.035177
	O417	O	0.804608	0.182437	0.167278
	H418	H	0.819066	0.172420	0.145580
	H419	H	0.806924	0.160059	0.168594
	O420	O	0.964365	0.017165	0.860019
	H421	H	0.967266	0.024534	0.866310
	H422	H	0.967688	0.009050	0.869270
	O423	O	0.763302	0.782264	0.028304
	H424	H	0.745462	0.761669	0.046653
	H425	H	0.757237	0.776516	0.059226
	O426	O	0.720968	0.484168	0.511217
	H427	H	0.721343	0.484437	0.498496
	H428	H	0.721867	0.476995	0.501263
	O429	O	0.334790	0.583229	0.331397
	H430	H	0.329335	0.577134	0.314766
	H431	H	0.343320	0.571571	0.324775
	O432	O	0.807087	0.034757	0.886020
	H433	H	0.814576	0.054307	0.884699
	H434	H	0.798823	0.045490	0.891967
	O435	O	0.539498	0.656308	0.504081
	H436	H	0.516484	0.667015	0.493823
	H437	H	0.565640	0.649311	0.515047
	O438	O	0.784266	0.801035	0.198593
	H439	H	0.755474	0.768316	0.231901
	H440	H	0.836623	0.795012	0.207666
	O441	O	0.517451	0.722266	0.710957
	H442	H	0.507103	0.719190	0.708762
	H443	H	0.510792	0.743980	0.734407
	O444	O	0.650855	0.299181	0.495724
	H445	H	0.662220	0.296167	0.509060
	H446	H	0.659116	0.289844	0.493442
	O447	O	0.705845	0.611641	0.464187
	H448	H	0.712280	0.598225	0.447560
	H449	H	0.714870	0.630614	0.465407
	O450	O	1.063985	-0.205068	-0.216184
	H451	H	1.033443	-0.193111	-0.213160
	H452	H	1.061525	-0.214621	-0.233739
	O453	O	0.631878	0.637108	0.678397
	H454	H	0.604362	0.652465	0.679275
	H455	H	0.631439	0.630246	0.671129
	O456	O	-0.001704	0.826102	0.996701
	H457	H	0.003469	0.821057	0.993190
	H458	H	-0.005694	0.828014	1.019050
	O459	O	0.710671	0.469062	0.272242
	H460	H	0.726467	0.451866	0.257476
	H461	H	0.714988	0.442355	0.260866
	O462	O	0.435755	0.510182	0.581256
	H463	H	0.460248	0.509656	0.564387
	H464	H	0.424400	0.506474	0.578659
	O465	O	0.498538	0.678145	0.314635
	H466	H	0.502435	0.660877	0.314078
	H467	H	0.491176	0.679938	0.308237
	O468	O	0.195641	1.179287	0.023898
	H469	H	0.203065	1.190921	0.017443
	H470	H	0.204607	1.167217	0.010036
	O471	O	0.279242	0.452895	0.331254
	H472	H	0.273493	0.455259	0.318215
	H473	H	0.279324	0.453161	0.333238
	O474	O	1.165115	1.117706	-0.058035
	H475	H	1.169954	1.099685	-0.059601
	H476	H	1.166990	1.112671	-0.062068
	O477	O	0.533378	0.481208	0.648103
	H478	H	0.542460	0.468979	0.670193
	H479	H	0.524199	0.490057	0.650431
