data_Molecule from HDF5

_cell_length_a		16.378712
_cell_length_b		16.455882
_cell_length_c		16.359898
_cell_angle_alpha	89.916325
_cell_angle_beta	89.820056
_cell_angle_gamma	90.089262
_symmetry_space_group_name_H-M	'P 1'
_symmetry_Int_Tables_number		1

loop_
	_symmetry_equiv_pos_as_xyz
	x,y,z

loop_
	_atom_site_label
	_atom_site_type_symbol
	_atom_site_fract_x
	_atom_site_fract_y
	_atom_site_fract_z
	H0	H	0.387329	0.840161	0.727276
	H1	H	0.607203	0.152694	0.726036
	H2	H	0.605616	0.839342	0.277035
	H3	H	0.390113	0.153944	0.278477
	H4	H	0.716064	0.390771	0.840737
	H5	H	0.721931	0.604387	0.157116
	H6	H	0.279391	0.598931	0.839236
	H7	H	0.272115	0.389729	0.158798
	H8	H	0.839926	0.722003	0.391033
	H9	H	0.154749	0.718649	0.607334
	H10	H	0.838561	0.271487	0.609384
	H11	H	0.153510	0.272332	0.389267
	H12	H	0.836689	0.391049	0.722153
	H13	H	0.156419	0.598132	0.717133
	H14	H	0.838915	0.605218	0.275842
	H15	H	0.154248	0.389515	0.275571
	H16	H	0.390573	0.719993	0.842842
	H17	H	0.606177	0.719322	0.158707
	H18	H	0.602041	0.275025	0.842132
	H19	H	0.387600	0.274382	0.160472
	H20	H	0.719979	0.838762	0.393622
	H21	H	0.723789	0.151864	0.611908
	H22	H	0.270993	0.840289	0.611289
	H23	H	0.275680	0.154666	0.394141
	H24	H	0.887534	0.339846	0.224410
	H25	H	0.103698	0.654167	0.221180
	H26	H	0.100375	0.337852	0.779727
	H27	H	0.893142	0.655549	0.779981
	H28	H	0.216860	0.893607	0.340367
	H29	H	0.218081	0.102177	0.658838
	H30	H	0.777695	0.098934	0.340023
	H31	H	0.774599	0.890023	0.659278
	H32	H	0.337958	0.215185	0.899376
	H33	H	0.655352	0.219908	0.109700
	H34	H	0.338563	0.774518	0.108681
	H35	H	0.656574	0.776722	0.896766
	H36	H	0.336431	0.893653	0.220404
	H37	H	0.657504	0.099226	0.220563
	H38	H	0.339347	0.102323	0.780617
	H39	H	0.656056	0.890881	0.779549
	H40	H	0.890523	0.217543	0.340658
	H41	H	0.103278	0.218945	0.657978
	H42	H	0.102796	0.775914	0.341131
	H43	H	0.889079	0.773882	0.659243
	H44	H	0.216056	0.337489	0.896325
	H45	H	0.217990	0.654535	0.103724
	H46	H	0.774512	0.337893	0.106144
	H47	H	0.776241	0.655693	0.895164
	H48	H	0.404806	0.110289	0.588411
	H49	H	0.583006	0.882155	0.597048
	H50	H	0.582789	0.107339	0.414282
	H51	H	0.407888	0.884550	0.414101
	H52	H	0.589653	0.411679	0.114724
	H53	H	0.587820	0.589277	0.884784
	H54	H	0.399722	0.590593	0.118926
	H55	H	0.403918	0.396727	0.882588
	H56	H	0.112614	0.591866	0.409618
	H57	H	0.883571	0.581115	0.587905
	H58	H	0.108839	0.414572	0.592765
	H59	H	0.884203	0.407865	0.414560
	H60	H	0.113314	0.400208	0.592506
	H61	H	0.880036	0.587019	0.594891
	H62	H	0.106673	0.584940	0.417062
	H63	H	0.885076	0.409496	0.415553
	H64	H	0.404851	0.573386	0.110182
	H65	H	0.586181	0.580978	0.887963
	H66	H	0.579304	0.410973	0.111227
	H67	H	0.402128	0.414538	0.888303
	H68	H	0.590850	0.109675	0.414494
	H69	H	0.576357	0.888470	0.584600
	H70	H	0.410843	0.108922	0.593196
	H71	H	0.406499	0.882449	0.412234
	H72	H	0.909585	0.609306	0.089307
	H73	H	0.086626	0.380292	0.095321
	H74	H	0.083531	0.608823	0.909993
	H75	H	0.901226	0.381116	0.910832
	H76	H	0.087527	0.906458	0.615380
	H77	H	0.084606	0.089958	0.385150
	H78	H	0.906837	0.083341	0.614659
	H79	H	0.902706	0.912856	0.385948
	H80	H	0.608394	0.086187	0.921828
	H81	H	0.386901	0.076744	0.090868
	H82	H	0.609071	0.907651	0.086845
	H83	H	0.385093	0.909899	0.915202
	H84	H	0.611110	0.909508	0.092470
	H85	H	0.381080	0.088314	0.097361
	H86	H	0.610084	0.078858	0.910141
	H87	H	0.382573	0.907903	0.912521
	H88	H	0.911653	0.081658	0.611555
	H89	H	0.089906	0.082720	0.385610
	H90	H	0.083487	0.910496	0.612713
	H91	H	0.915302	0.910488	0.390264
	H92	H	0.092339	0.611500	0.911528
	H93	H	0.073842	0.387504	0.086435
	H94	H	0.910279	0.607782	0.085274
	H95	H	0.908930	0.382119	0.906718
	H96	H	0.411080	0.106480	0.585722
	H97	H	0.591140	0.883213	0.584053
	H98	H	0.587123	0.110276	0.407141
	H99	H	0.409145	0.883216	0.411644
	H100	H	0.584013	0.402545	0.115938
	H101	H	0.579681	0.587479	0.888363
	H102	H	0.418300	0.588281	0.111647
	H103	H	0.418214	0.405520	0.891131
	H104	H	0.109715	0.581098	0.406933
	H105	H	0.881703	0.590880	0.585285
	H106	H	0.106614	0.406131	0.580596
	H107	H	0.885086	0.409631	0.413220
	H108	H	0.906474	0.609019	0.086069
	H109	H	0.089857	0.384677	0.079047
	H110	H	0.088385	0.612499	0.903607
	H111	H	0.908440	0.385435	0.914909
	H112	H	0.081936	0.904645	0.614354
	H113	H	0.081014	0.082291	0.388491
	H114	H	0.911209	0.087750	0.613449
	H115	H	0.908262	0.900713	0.384874
	H116	H	0.614775	0.091811	0.910796
	H117	H	0.385110	0.088835	0.083747
	H118	H	0.612439	0.903980	0.090660
	H119	H	0.384152	0.906169	0.915971
	C120	C	0.374518	0.005089	0.623804
	C121	C	0.618594	0.987813	0.622772
	C122	C	0.618827	0.004430	0.379745
	C123	C	0.376140	0.988335	0.380222
	C124	C	0.617046	0.375233	0.009161
	C125	C	0.617982	0.618068	0.991837
	C126	C	0.375737	0.616951	0.008720
	C127	C	0.374666	0.373598	0.992503
	C128	C	0.005113	0.618565	0.378363
	C129	C	0.987470	0.617837	0.621322
	C130	C	0.004485	0.374292	0.621716
	C131	C	0.988424	0.375567	0.379116
	C132	C	0.874563	0.505059	0.121241
	C133	C	0.117071	0.488144	0.120126
	C134	C	0.119084	0.505773	0.877111
	C135	C	0.874713	0.487862	0.878394
	C136	C	0.117688	0.875406	0.508893
	C137	C	0.117873	0.117779	0.491212
	C138	C	0.876334	0.116826	0.508467
	C139	C	0.875328	0.874537	0.491764
	C140	C	0.506404	0.117813	0.881230
	C141	C	0.488840	0.117941	0.123762
	C142	C	0.505893	0.874635	0.123356
	C143	C	0.488748	0.875384	0.881085
	C144	C	0.370024	0.887488	0.686471
	C145	C	0.624099	0.105335	0.685449
	C146	C	0.622151	0.886146	0.318323
	C147	C	0.373130	0.106730	0.319271
	C148	C	0.676923	0.372548	0.889088
	C149	C	0.680767	0.621627	0.110076
	C150	C	0.317595	0.618400	0.888014
	C151	C	0.313227	0.371702	0.111727
	C152	C	0.886668	0.680577	0.374112
	C153	C	0.107252	0.677865	0.624000
	C154	C	0.885708	0.312762	0.625930
	C155	C	0.106393	0.313376	0.373107
	C156	C	0.884905	0.372467	0.682126
	C157	C	0.108126	0.617887	0.679120
	C158	C	0.886561	0.622545	0.316550
	C159	C	0.106578	0.371845	0.316158
	C160	C	0.372855	0.678758	0.889888
	C161	C	0.622959	0.679112	0.110851
	C162	C	0.619765	0.314716	0.889745
	C163	C	0.370706	0.313840	0.112312
	C164	C	0.679576	0.885917	0.376316
	C165	C	0.682383	0.105013	0.628381
	C166	C	0.311872	0.887525	0.628608
	C167	C	0.315853	0.107045	0.377022
	C168	C	0.870170	0.386982	0.183811
	C169	C	0.120932	0.606888	0.180657
	C170	C	0.119336	0.385630	0.818955
	C171	C	0.873821	0.607866	0.819268
	C172	C	0.177742	0.874321	0.388812
	C173	C	0.178149	0.120521	0.610914
	C174	C	0.816359	0.118585	0.388394
	C175	C	0.814146	0.871230	0.611243
	C176	C	0.386205	0.176619	0.879809
	C177	C	0.607967	0.178973	0.127006
	C178	C	0.386094	0.814638	0.126359
	C179	C	0.608755	0.815926	0.878405
	C180	C	0.385135	0.874059	0.182112
	C181	C	0.609214	0.118996	0.182264
	C182	C	0.387037	0.120236	0.820797
	C183	C	0.608385	0.872921	0.820115
	C184	C	0.872908	0.177238	0.388519
	C185	C	0.120795	0.178483	0.610561
	C186	C	0.120449	0.816034	0.388829
	C187	C	0.871529	0.813625	0.611305
	C188	C	0.176876	0.385359	0.876926
	C189	C	0.178100	0.606967	0.122382
	C190	C	0.813723	0.386141	0.124888
	C191	C	0.815773	0.607773	0.876828
	C192	C	0.401307	0.087292	0.596896
	C193	C	0.591439	0.906009	0.596109
	C194	C	0.593791	0.087529	0.404936
	C195	C	0.400970	0.905021	0.405515
	C196	C	0.591570	0.400892	0.092427
	C197	C	0.591854	0.592981	0.908709
	C198	C	0.400559	0.591383	0.092143
	C199	C	0.400629	0.398462	0.909130
	C200	C	0.087974	0.593187	0.403946
	C201	C	0.903612	0.593454	0.596543
	C202	C	0.088095	0.399668	0.595895
	C203	C	0.905999	0.401643	0.406644
	C204	C	0.900887	0.587223	0.094561
	C205	C	0.090978	0.405677	0.094364
	C206	C	0.095134	0.589345	0.901463
	C207	C	0.899198	0.404781	0.903484
	C208	C	0.091900	0.899923	0.592470
	C209	C	0.092464	0.092404	0.408101
	C210	C	0.902192	0.091435	0.591397
	C211	C	0.901297	0.900412	0.408667
	C212	C	0.589530	0.092872	0.906777
	C213	C	0.405968	0.092146	0.098023
	C214	C	0.589034	0.899651	0.097659
	C215	C	0.405703	0.900575	0.907102
	Zn216	Zn	0.497401	-0.003473	0.752140
	Zn217	Zn	0.497180	-0.003393	0.251534
	Zn218	Zn	0.745707	0.495880	-0.000504
	Zn219	Zn	0.246740	0.495752	-0.000449
	Zn220	Zn	-0.003344	0.746490	0.500559
	Zn221	Zn	-0.003594	0.246322	0.499396
	Zn222	Zn	-0.003499	0.496578	0.749964
	Zn223	Zn	-0.003564	0.496769	0.249671
	Zn224	Zn	0.496855	0.746286	0.001626
	Zn225	Zn	0.497290	0.246374	0.002775
	Zn226	Zn	0.747411	-0.003878	0.500884
	Zn227	Zn	0.246588	-0.003584	0.500640
	N228	N	0.408444	0.961718	0.683345
	N229	N	0.584895	0.031633	0.681856
	N230	N	0.584787	0.960872	0.320676
	N231	N	0.410024	0.031861	0.321166
	N232	N	0.675330	0.409532	0.964481
	N233	N	0.677798	0.584412	0.035119
	N234	N	0.319327	0.580799	0.962962
	N235	N	0.315307	0.407958	0.036137
	N236	N	0.961439	0.678263	0.411905
	N237	N	0.031163	0.678028	0.588786
	N238	N	0.961224	0.313887	0.589071
	N239	N	0.031664	0.315619	0.411521
	N240	N	0.959970	0.409874	0.679594
	N241	N	0.032584	0.581388	0.677445
	N242	N	0.961142	0.584593	0.319191
	N243	N	0.032055	0.409839	0.319749
	N244	N	0.408274	0.678175	0.966007
	N245	N	0.584504	0.677014	0.036213
	N246	N	0.583437	0.316277	0.965553
	N247	N	0.408461	0.315163	0.037122
	N248	N	0.677661	0.960449	0.413861
	N249	N	0.679010	0.030915	0.589773
	N250	N	0.314542	0.961823	0.590327
	N251	N	0.317633	0.032208	0.414356
	N252	N	0.906788	0.462229	0.182118
	N253	N	0.083677	0.532131	0.179425
	N254	N	0.084050	0.461397	0.819190
	N255	N	0.909524	0.532388	0.819929
	N256	N	0.176003	0.910302	0.464564
	N257	N	0.176520	0.083601	0.535683
	N258	N	0.818047	0.082052	0.464033
	N259	N	0.816445	0.908449	0.536044
	N260	N	0.461552	0.175502	0.916410
	N261	N	0.532004	0.178477	0.091547
	N262	N	0.462233	0.814617	0.090647
	N263	N	0.533238	0.817154	0.915429
	N264	N	0.460722	0.910417	0.180630
	N265	N	0.534032	0.081939	0.180464
	N266	N	0.462777	0.084454	0.821542
	N267	N	0.532826	0.909130	0.821602
	N268	N	0.909073	0.176600	0.464269
	N269	N	0.084340	0.177254	0.534990
	N270	N	0.083973	0.816368	0.464741
	N271	N	0.908661	0.815385	0.535829
	N272	N	0.176988	0.461050	0.912277
	N273	N	0.175871	0.532036	0.085464
	N274	N	0.816158	0.460643	0.086863
	N275	N	0.816379	0.532252	0.912985
	O276	O	0.302967	0.305277	0.689558
	H277	H	0.346468	0.299078	0.690380
	H278	H	0.302414	0.338269	0.704170
	O279	O	0.698307	0.538499	0.444707
	H280	H	0.683156	0.524485	0.448503
	H281	H	0.708430	0.565328	0.467021
	O282	O	0.702769	0.699534	0.518552
	H283	H	0.734123	0.725790	0.526592
	H284	H	0.692495	0.688548	0.561119
	O285	O	0.888021	1.188255	-0.161209
	H286	H	0.882119	1.188912	-0.137445
	H287	H	0.874222	1.175571	-0.165635
	O288	O	0.480371	0.282224	0.688828
	H289	H	0.504847	0.276080	0.656175
	H290	H	0.489966	0.255301	0.710540
	O291	O	0.549516	0.702005	0.436954
	H292	H	0.586499	0.698910	0.447323
	H293	H	0.544791	0.699524	0.421033
	O294	O	1.023969	0.795322	0.806192
	H295	H	1.023943	0.774863	0.780544
	H296	H	1.027175	0.807145	0.813375
	O297	O	0.470651	0.712455	0.284629
	H298	H	0.478806	0.728511	0.258916
	H299	H	0.492953	0.708613	0.286145
	O300	O	0.583496	0.300181	0.579555
	H301	H	0.564904	0.313706	0.553553
	H302	H	0.619284	0.289910	0.557293
	O303	O	0.528567	0.702310	0.704098
	H304	H	0.527060	0.717692	0.723168
	H305	H	0.510044	0.706616	0.674718
	O306	O	-0.134335	-0.157298	1.177261
	H307	H	-0.132961	-0.167019	1.166731
	H308	H	-0.137625	-0.139758	1.168522
	O309	O	1.043443	0.007254	0.057557
	H310	H	1.056987	-0.005405	0.059047
	H311	H	1.048497	0.019675	0.071054
	O312	O	0.280399	0.278734	0.525496
	H313	H	0.286963	0.298324	0.561652
	H314	H	0.242716	0.242906	0.529384
	O315	O	0.673864	0.320960	0.330432
	H316	H	0.667672	0.354446	0.318767
	H317	H	0.639036	0.327109	0.321146
	O318	O	0.161137	0.172100	0.086249
	H319	H	0.143416	0.176230	0.096877
	H320	H	0.160502	0.167825	0.066293
	O321	O	0.335831	0.446794	0.701706
	H322	H	0.346599	0.462540	0.707808
	H323	H	0.343233	0.441413	0.707889
	O324	O	1.135634	-0.174823	0.845674
	H325	H	1.115688	-0.161988	0.837659
	H326	H	1.156251	-0.186104	0.853496
	O327	O	0.678919	0.665656	0.675630
	H328	H	0.687885	0.621634	0.685296
	H329	H	0.638191	0.673887	0.693584
	O330	O	-0.023577	1.113656	0.904202
	H331	H	-0.053514	1.104241	0.906711
	H332	H	-0.021340	1.130692	0.888597
	O333	O	-0.135305	0.998165	0.146884
	H334	H	-0.131657	1.001885	0.149694
	H335	H	-0.120504	0.986767	0.160892
	O336	O	0.983611	1.041821	0.111281
	H337	H	0.969495	1.042447	0.119189
	H338	H	0.991872	1.033376	0.111982
	O339	O	0.009270	0.934240	0.852294
	H340	H	0.030844	0.962972	0.853153
	H341	H	0.011604	0.926599	0.859409
	O342	O	0.520050	0.283481	0.290300
	H343	H	0.510500	0.266107	0.289046
	H344	H	0.500974	0.279165	0.286162
	O345	O	0.162335	0.061885	1.063721
	H346	H	0.169602	0.064609	1.043873
	H347	H	0.172238	0.056736	1.076624
	O348	O	0.291737	0.485885	0.331706
	H349	H	0.287885	0.490019	0.354121
	H350	H	0.270153	0.492912	0.325337
	O351	O	0.889096	1.021860	0.142920
	H352	H	0.905497	1.006356	0.151995
	H353	H	0.892897	1.023886	0.145506
	O354	O	0.840738	0.937880	0.918707
	H355	H	0.848623	0.947254	0.920735
	H356	H	0.838266	0.920869	0.914634
	O357	O	-0.479605	0.504056	0.705807
	H358	H	-0.475956	0.478843	0.698946
	H359	H	-0.484822	0.527498	0.715242
	O360	O	0.438925	0.287539	0.445063
	H361	H	0.424089	0.280342	0.464081
	H362	H	0.424401	0.296035	0.445253
	O363	O	1.148593	0.095123	-0.045072
	H364	H	1.132053	0.102267	-0.059889
	H365	H	1.145238	0.095402	-0.051616
	O366	O	-0.530527	-0.500049	1.288953
	H367	H	-0.542765	-0.513776	1.288648
	H368	H	-0.539099	-0.489686	1.285095
	O369	O	0.594056	-0.427558	0.307401
	H370	H	0.584545	-0.447704	0.309007
	H371	H	0.592619	-0.426212	0.305529
	O372	O	0.696041	0.513881	0.693762
	H373	H	0.716375	0.500111	0.703321
	H374	H	0.686647	0.487344	0.686733
	O375	O	0.055349	-0.003555	1.101852
	H376	H	0.040339	-0.015516	1.092626
	H377	H	0.066125	-0.007964	1.083380
	O378	O	0.291727	0.705096	0.442473
	H379	H	0.290783	0.709123	0.440925
	H380	H	0.284301	0.708919	0.435533
	O381	O	0.162464	0.980626	-0.205800
	H382	H	0.139520	0.973581	-0.207687
	H383	H	0.185073	0.978091	-0.232842
	O384	O	0.296434	0.645881	0.302323
	H385	H	0.299753	0.634898	0.311144
	H386	H	0.322123	0.654334	0.288886
	O387	O	0.901878	-0.062471	1.020248
	H388	H	0.900296	-0.066994	1.021033
	H389	H	0.911695	-0.067818	1.003958
	O390	O	1.438682	0.710916	-0.443003
	H391	H	1.432478	0.705102	-0.467085
	H392	H	1.443226	0.708324	-0.454870
	O393	O	0.797761	0.010831	0.825133
	H394	H	0.814668	-0.007267	0.820283
	H395	H	0.778414	0.008878	0.818555
	O396	O	0.919691	0.817755	-0.007028
	H397	H	0.930590	0.821569	-0.015647
	H398	H	0.929040	0.801307	0.003111
	O399	O	0.200835	0.842344	1.026828
	H400	H	0.218126	0.836917	1.012692
	H401	H	0.202635	0.852195	1.028984
	O402	O	1.077446	1.097135	-0.198297
	H403	H	1.067448	1.106175	-0.197781
	H404	H	1.074661	1.119441	-0.197470
	O405	O	0.411200	0.569202	0.496247
	H406	H	0.411372	0.575968	0.489351
	H407	H	0.432613	0.562565	0.489739
	O408	O	0.295904	0.536021	0.575988
	H409	H	0.299070	0.527207	0.591579
	H410	H	0.307082	0.531252	0.560514
	O411	O	1.074659	1.054223	1.195252
	H412	H	1.078841	1.056539	1.177016
	H413	H	1.071536	1.048801	1.198568
	O414	O	0.713321	0.477131	0.286329
	H415	H	0.732348	0.479792	0.267362
	H416	H	0.726997	0.487312	0.303134
	O417	O	-0.103616	1.030202	1.042549
	H418	H	-0.112580	1.017456	1.039341
	H419	H	-0.097413	1.028243	1.053524
	O420	O	0.319485	1.444764	0.410113
	H421	H	0.308467	1.420734	0.433314
	H422	H	0.324367	1.449550	0.414681
	O423	O	0.051875	1.111313	0.054643
	H424	H	0.065230	1.104271	0.043639
	H425	H	0.059557	1.128900	0.056417
	O426	O	0.523739	0.450346	0.510181
	H427	H	0.532977	0.446031	0.509624
	H428	H	0.513137	0.451928	0.490406
	O429	O	0.659779	0.440773	0.591112
	H430	H	0.638333	0.433061	0.593564
	H431	H	0.673183	0.428721	0.570546
	O432	O	0.714310	0.276156	0.485867
	H433	H	0.734083	0.257399	0.469598
	H434	H	0.715554	0.275675	0.444981
	O435	O	-0.163666	0.152690	-0.066097
	H436	H	-0.161345	0.144030	-0.051308
	H437	H	-0.176560	0.153032	-0.056419
	O438	O	0.019574	0.798375	1.150523
	H439	H	0.026084	0.779579	1.170154
	H440	H	0.002139	0.799887	1.144348
	O441	O	0.395602	0.596136	0.639914
	H442	H	0.403718	0.595210	0.638761
	H443	H	0.401164	0.610611	0.628541
