data_Molecule from HDF5

_cell_length_a		16.436892
_cell_length_b		16.448955
_cell_length_c		16.426791
_cell_angle_alpha	90.020701
_cell_angle_beta	90.132667
_cell_angle_gamma	90.031318
_symmetry_space_group_name_H-M	'P 1'
_symmetry_Int_Tables_number		1

loop_
	_symmetry_equiv_pos_as_xyz
	x,y,z

loop_
	_atom_site_label
	_atom_site_type_symbol
	_atom_site_fract_x
	_atom_site_fract_y
	_atom_site_fract_z
	H0	H	0.386947	0.849721	0.732761
	H1	H	0.603583	0.163463	0.732101
	H2	H	0.601799	0.847443	0.286960
	H3	H	0.385082	0.160277	0.282360
	H4	H	0.722975	0.393746	0.854670
	H5	H	0.720607	0.615463	0.165083
	H6	H	0.270329	0.613405	0.852114
	H7	H	0.272672	0.398252	0.167061
	H8	H	0.839814	0.730141	0.401448
	H9	H	0.150640	0.732316	0.622524
	H10	H	0.836655	0.282907	0.616279
	H11	H	0.150565	0.280288	0.400573
	H12	H	0.838958	0.395561	0.734868
	H13	H	0.152214	0.612632	0.734729
	H14	H	0.840845	0.615811	0.284471
	H15	H	0.152070	0.395979	0.285552
	H16	H	0.387946	0.727144	0.850470
	H17	H	0.605625	0.731883	0.164243
	H18	H	0.606539	0.278187	0.854233
	H19	H	0.386028	0.279691	0.165569
	H20	H	0.720582	0.849943	0.400499
	H21	H	0.717999	0.163127	0.615878
	H22	H	0.269036	0.850243	0.618863
	H23	H	0.270131	0.161952	0.398983
	H24	H	0.887421	0.349590	0.234123
	H25	H	0.108460	0.659814	0.237749
	H26	H	0.104895	0.348927	0.784663
	H27	H	0.887380	0.661460	0.784614
	H28	H	0.218679	0.897373	0.352980
	H29	H	0.219023	0.115246	0.665844
	H30	H	0.769713	0.114400	0.352078
	H31	H	0.770195	0.896223	0.665768
	H32	H	0.341166	0.232036	0.899073
	H33	H	0.651820	0.230366	0.120523
	H34	H	0.338885	0.781496	0.113872
	H35	H	0.652685	0.780834	0.898250
	H36	H	0.338140	0.894486	0.231905
	H37	H	0.651101	0.114427	0.235663
	H38	H	0.339507	0.114261	0.784707
	H39	H	0.652445	0.896885	0.783167
	H40	H	0.882628	0.231562	0.353070
	H41	H	0.100630	0.229481	0.666638
	H42	H	0.104898	0.779465	0.354460
	H43	H	0.885536	0.780286	0.665594
	H44	H	0.219887	0.348970	0.901649
	H45	H	0.220793	0.661463	0.119676
	H46	H	0.769125	0.350511	0.120956
	H47	H	0.772859	0.662508	0.901161
	H48	H	0.407372	0.117656	0.592786
	H49	H	0.583319	0.893882	0.595683
	H50	H	0.575397	0.117924	0.416577
	H51	H	0.414828	0.895478	0.419567
	H52	H	0.580475	0.417755	0.121195
	H53	H	0.585914	0.587829	0.897124
	H54	H	0.409667	0.591125	0.120411
	H55	H	0.405465	0.423977	0.898395
	H56	H	0.105848	0.589639	0.428075
	H57	H	0.885751	0.585180	0.597938
	H58	H	0.108487	0.415389	0.595976
	H59	H	0.882236	0.416633	0.422101
	H60	H	0.105953	0.419060	0.595202
	H61	H	0.880004	0.596092	0.602470
	H62	H	0.108586	0.589084	0.421619
	H63	H	0.883230	0.420547	0.422864
	H64	H	0.410237	0.593931	0.120626
	H65	H	0.578896	0.593474	0.897216
	H66	H	0.584026	0.419926	0.121026
	H67	H	0.415096	0.418147	0.899544
	H68	H	0.581480	0.115233	0.428671
	H69	H	0.583636	0.893311	0.596440
	H70	H	0.405092	0.120050	0.597805
	H71	H	0.403127	0.894304	0.429186
	H72	H	0.906001	0.619675	0.099412
	H73	H	0.081297	0.394896	0.093169
	H74	H	0.086704	0.620819	0.917819
	H75	H	0.908731	0.393820	0.925386
	H76	H	0.081298	0.918452	0.622940
	H77	H	0.081293	0.093287	0.396422
	H78	H	0.910133	0.097113	0.621358
	H79	H	0.902234	0.920567	0.395653
	H80	H	0.609914	0.094990	0.923323
	H81	H	0.386645	0.090900	0.089596
	H82	H	0.608642	0.917286	0.098325
	H83	H	0.384811	0.920188	0.920539
	H84	H	0.608103	0.916968	0.094321
	H85	H	0.384803	0.087044	0.097841
	H86	H	0.605554	0.088661	0.925188
	H87	H	0.382164	0.916196	0.916721
	H88	H	0.903594	0.093147	0.622058
	H89	H	0.081875	0.092936	0.396976
	H90	H	0.083634	0.920418	0.621976
	H91	H	0.912542	0.922464	0.400460
	H92	H	0.075402	0.616205	0.920351
	H93	H	0.087958	0.391234	0.096861
	H94	H	0.913586	0.617018	0.098561
	H95	H	0.907845	0.392564	0.922510
	H96	H	0.410696	0.118176	0.597638
	H97	H	0.582713	0.893184	0.596374
	H98	H	0.588372	0.120987	0.418685
	H99	H	0.402160	0.888288	0.415347
	H100	H	0.580247	0.421803	0.119678
	H101	H	0.586284	0.596217	0.893049
	H102	H	0.408001	0.593201	0.121288
	H103	H	0.405467	0.413196	0.894734
	H104	H	0.108800	0.595034	0.425287
	H105	H	0.884609	0.595979	0.590123
	H106	H	0.107098	0.418576	0.598965
	H107	H	0.882163	0.419462	0.418906
	H108	H	0.908449	0.616733	0.091951
	H109	H	0.080999	0.392410	0.101591
	H110	H	0.084768	0.614902	0.929290
	H111	H	0.911241	0.393801	0.922872
	H112	H	0.080845	0.920761	0.620673
	H113	H	0.081079	0.092775	0.397133
	H114	H	0.910135	0.089795	0.619319
	H115	H	0.909798	0.911941	0.395881
	H116	H	0.608768	0.089638	0.917724
	H117	H	0.381589	0.095960	0.096023
	H118	H	0.607174	0.920046	0.096196
	H119	H	0.382941	0.914347	0.922619
	C120	C	0.373609	0.014989	0.630385
	C121	C	0.617168	0.997215	0.630516
	C122	C	0.616253	0.014447	0.387702
	C123	C	0.372686	0.996032	0.386719
	C124	C	0.617010	0.384298	0.017986
	C125	C	0.617726	0.627587	0.999322
	C126	C	0.374658	0.626732	0.016947
	C127	C	0.374806	0.384143	1.001182
	C128	C	0.004955	0.626337	0.389754
	C129	C	0.986464	0.626906	0.631837
	C130	C	0.003206	0.383597	0.630620
	C131	C	0.986000	0.383942	0.387454
	C132	C	0.874237	0.514808	0.131455
	C133	C	0.118169	0.496134	0.131752
	C134	C	0.117200	0.514260	0.888111
	C135	C	0.874541	0.496545	0.888778
	C136	C	0.116574	0.884566	0.518953
	C137	C	0.115473	0.127457	0.500433
	C138	C	0.873313	0.127138	0.517296
	C139	C	0.873730	0.884143	0.500966
	C140	C	0.505129	0.126704	0.887749
	C141	C	0.487406	0.125906	0.130256
	C142	C	0.504164	0.883694	0.129307
	C143	C	0.487151	0.883580	0.885856
	C144	C	0.369214	0.897092	0.692699
	C145	C	0.621158	0.115589	0.692118
	C146	C	0.620044	0.895381	0.326724
	C147	C	0.367854	0.113347	0.323352
	C148	C	0.681139	0.377820	0.901259
	C149	C	0.680108	0.632925	0.117480
	C150	C	0.311722	0.630710	0.899176
	C151	C	0.312800	0.379999	0.119262
	C152	C	0.887332	0.689579	0.384096
	C153	C	0.103911	0.690515	0.638614
	C154	C	0.884391	0.322831	0.633966
	C155	C	0.103614	0.320925	0.383046
	C156	C	0.885636	0.378948	0.693148
	C157	C	0.104650	0.630833	0.694614
	C158	C	0.887781	0.632462	0.325701
	C159	C	0.104271	0.378800	0.325758
	C160	C	0.370748	0.687166	0.898112
	C161	C	0.622764	0.690996	0.116897
	C162	C	0.623140	0.319906	0.901240
	C163	C	0.369383	0.320920	0.118791
	C164	C	0.679043	0.896635	0.383308
	C165	C	0.678724	0.115617	0.634470
	C166	C	0.310588	0.897290	0.635616
	C167	C	0.310630	0.114185	0.381764
	C168	C	0.870108	0.396807	0.193678
	C169	C	0.124584	0.613145	0.195955
	C170	C	0.121932	0.396190	0.825545
	C171	C	0.869976	0.614286	0.825788
	C172	C	0.178379	0.879855	0.400494
	C173	C	0.178020	0.132339	0.618544
	C174	C	0.810554	0.131412	0.399479
	C175	C	0.810836	0.879262	0.618374
	C176	C	0.387790	0.190552	0.882187
	C177	C	0.604629	0.189070	0.136540
	C178	C	0.386076	0.821532	0.132430
	C179	C	0.605242	0.821279	0.881206
	C180	C	0.385839	0.878306	0.191128
	C181	C	0.604198	0.131400	0.194370
	C182	C	0.386920	0.131843	0.825355
	C183	C	0.604869	0.879125	0.823534
	C184	C	0.867075	0.189968	0.399836
	C185	C	0.119037	0.189156	0.619110
	C186	C	0.121588	0.821065	0.401303
	C187	C	0.868413	0.821218	0.618396
	C188	C	0.179271	0.396151	0.883909
	C189	C	0.180595	0.613921	0.136884
	C190	C	0.810858	0.397481	0.137326
	C191	C	0.812943	0.615014	0.884128
	C192	C	0.400071	0.097230	0.603619
	C193	C	0.590676	0.914895	0.603882
	C194	C	0.589681	0.096435	0.413813
	C195	C	0.399096	0.914029	0.413729
	C196	C	0.589408	0.411966	0.099328
	C197	C	0.591358	0.600215	0.917344
	C198	C	0.401653	0.600336	0.099240
	C199	C	0.401335	0.410713	0.919036
	C200	C	0.086329	0.599060	0.417219
	C201	C	0.904780	0.600091	0.604562
	C202	C	0.085571	0.410012	0.604314
	C203	C	0.903927	0.411124	0.413707
	C204	C	0.901345	0.596544	0.104443
	C205	C	0.091106	0.414399	0.104946
	C206	C	0.090114	0.595901	0.914869
	C207	C	0.901470	0.414748	0.915894
	C208	C	0.089507	0.911885	0.600704
	C209	C	0.088942	0.100659	0.418362
	C210	C	0.900236	0.100734	0.599499
	C211	C	0.900688	0.910608	0.418771
	C212	C	0.586732	0.099177	0.914644
	C213	C	0.405587	0.098908	0.102352
	C214	C	0.586355	0.910480	0.103608
	C215	C	0.404838	0.909464	0.912371
	Zn216	Zn	0.495682	0.006471	0.758596
	Zn217	Zn	0.495007	0.004295	0.258628
	Zn218	Zn	0.745841	0.505732	0.009630
	Zn219	Zn	0.246006	0.505421	0.009689
	Zn220	Zn	-0.004273	0.755559	0.510893
	Zn221	Zn	-0.006435	0.256079	0.508935
	Zn222	Zn	-0.004703	0.504369	0.759964
	Zn223	Zn	-0.003242	0.506099	0.259453
	Zn224	Zn	0.495675	0.755319	0.007372
	Zn225	Zn	0.495906	0.255263	0.009963
	Zn226	Zn	0.745026	0.006289	0.508921
	Zn227	Zn	0.244788	0.006181	0.509301
	N228	N	0.407614	0.971360	0.689518
	N229	N	0.583874	0.040767	0.689876
	N230	N	0.581551	0.969553	0.329174
	N231	N	0.405367	0.038805	0.326129
	N232	N	0.677616	0.416878	0.975111
	N233	N	0.677227	0.594320	0.043394
	N234	N	0.313873	0.593928	0.974272
	N235	N	0.316035	0.418584	0.045082
	N236	N	0.961259	0.685956	0.423174
	N237	N	0.029570	0.688119	0.600286
	N238	N	0.958753	0.325742	0.595831
	N239	N	0.028990	0.324028	0.420439
	N240	N	0.960437	0.416117	0.691144
	N241	N	0.030687	0.592019	0.690626
	N242	N	0.961831	0.593804	0.328920
	N243	N	0.030088	0.417260	0.328151
	N244	N	0.409141	0.684681	0.972434
	N245	N	0.584736	0.687987	0.042226
	N246	N	0.584354	0.323625	0.975031
	N247	N	0.406894	0.323198	0.044070
	N248	N	0.676769	0.971510	0.420225
	N249	N	0.676612	0.040824	0.597129
	N250	N	0.312875	0.971814	0.597863
	N251	N	0.313264	0.040032	0.420291
	N252	N	0.908748	0.470904	0.190322
	N253	N	0.086430	0.538835	0.193097
	N254	N	0.084073	0.470691	0.827841
	N255	N	0.907200	0.539485	0.828249
	N256	N	0.175676	0.918341	0.474744
	N257	N	0.176073	0.094820	0.543648
	N258	N	0.814659	0.092731	0.473505
	N259	N	0.813940	0.917643	0.544081
	N260	N	0.462280	0.187763	0.920117
	N261	N	0.530730	0.185754	0.097389
	N262	N	0.460509	0.824513	0.094890
	N263	N	0.530843	0.824038	0.919311
	N264	N	0.460530	0.916256	0.189358
	N265	N	0.530074	0.092906	0.190601
	N266	N	0.460851	0.092981	0.828720
	N267	N	0.530549	0.917010	0.826214
	N268	N	0.905611	0.187430	0.474098
	N269	N	0.081119	0.186420	0.544563
	N270	N	0.084132	0.823767	0.476021
	N271	N	0.907074	0.824328	0.544405
	N272	N	0.176422	0.470492	0.921996
	N273	N	0.176964	0.540160	0.097889
	N274	N	0.813389	0.471884	0.099405
	N275	N	0.815606	0.540769	0.922389
	O276	O	0.710012	0.522385	0.727054
	H277	H	0.695256	0.564866	0.718367
	H278	H	0.741669	0.528853	0.760679
	O279	O	0.933442	0.062567	1.229217
	H280	H	0.942469	0.073862	1.230321
	H281	H	0.959257	0.040463	1.233061
	O282	O	0.447077	0.460894	0.303405
	H283	H	0.427220	0.457095	0.318499
	H284	H	0.438204	0.436738	0.301965
	O285	O	0.447832	0.703222	0.585654
	H286	H	0.409522	0.707818	0.564075
	H287	H	0.473134	0.696646	0.549751
	O288	O	0.943573	1.213033	0.077591
	H289	H	0.943593	1.207405	0.071590
	H290	H	0.926189	1.206671	0.062013
	O291	O	0.520548	0.465057	0.568692
	H292	H	0.515543	0.477943	0.599919
	H293	H	0.518225	0.480395	0.547513
	O294	O	-0.218577	0.026399	0.794321
	H295	H	-0.255232	0.031963	0.757734
	H296	H	-0.202287	0.002058	0.815107
	O297	O	0.552446	0.299651	0.300489
	H298	H	0.540803	0.279762	0.324692
	H299	H	0.531054	0.277744	0.296812
	O300	O	0.639082	0.306820	0.487449
	H301	H	0.628300	0.309940	0.499016
	H302	H	0.641230	0.318517	0.503584
	O303	O	-0.222575	1.223828	-0.006176
	H304	H	-0.242899	1.245262	-0.026874
	H305	H	-0.225039	1.225044	-0.044208
	O306	O	0.528696	0.714325	0.468865
	H307	H	0.536206	0.714399	0.439182
	H308	H	0.548664	0.712873	0.461771
	O309	O	1.274405	-0.276705	0.491743
	H310	H	1.239975	-0.241784	0.483042
	H311	H	1.287841	-0.285778	0.445048
	O312	O	-0.178828	0.823464	1.191782
	H313	H	-0.191925	0.877095	1.202002
	H314	H	-0.180958	0.813235	1.148996
	O315	O	0.685049	0.368490	0.320215
	H316	H	0.699113	0.363997	0.347543
	H317	H	0.641185	0.345757	0.313375
	O318	O	1.209110	-0.207310	-0.012699
	H319	H	1.235658	-0.237131	-0.009602
	H320	H	1.165875	-0.216804	0.016545
	O321	O	-0.216969	-0.203628	0.027888
	H322	H	-0.228958	-0.202739	0.013162
	H323	H	-0.221183	-0.216643	0.024651
	O324	O	0.534288	0.459445	0.735853
	H325	H	0.506360	0.494900	0.730334
	H326	H	0.571023	0.477163	0.735500
	O327	O	0.275436	0.288816	0.530853
	H328	H	0.288048	0.297510	0.573964
	H329	H	0.243394	0.253148	0.538742
	O330	O	-0.052393	0.970405	-0.217210
	H331	H	-0.045109	0.968918	-0.211785
	H332	H	-0.054554	0.981975	-0.217651
	O333	O	0.980129	-0.212641	1.224468
	H334	H	0.952443	-0.204632	1.227308
	H335	H	0.966654	-0.233281	1.250769
	O336	O	0.179634	0.054691	-0.063940
	H337	H	0.184463	0.026291	-0.050349
	H338	H	0.180387	0.046496	-0.077010
	O339	O	-0.019055	0.793121	0.997603
	H340	H	-0.023602	0.805176	0.977671
	H341	H	-0.025789	0.790057	0.997722
	O342	O	-0.005913	1.205719	0.838411
	H343	H	0.011432	1.212411	0.832151
	H344	H	0.008425	1.206191	0.851132
	O345	O	1.202366	0.949154	-0.200998
	H346	H	1.202269	0.923393	-0.188247
	H347	H	1.218658	0.945856	-0.217490
	O348	O	0.525444	0.716490	0.721277
	H349	H	0.498196	0.724608	0.681286
	H350	H	0.529798	0.756597	0.753545
	O351	O	-0.216704	0.983617	1.220203
	H352	H	-0.211285	0.999253	1.240913
	H353	H	-0.226252	1.000870	1.221368
	O354	O	0.205199	1.101186	-0.050034
	H355	H	0.216561	1.098469	-0.051687
	H356	H	0.209342	1.085277	-0.058848
	O357	O	-0.226005	-0.050167	0.948653
	H358	H	-0.217278	-0.037841	0.976137
	H359	H	-0.225840	-0.043003	0.940981
	O360	O	0.524301	0.313979	0.508116
	H361	H	0.515522	0.300229	0.549953
	H362	H	0.530917	0.355234	0.506533
	O363	O	0.480690	-0.707943	0.708709
	H364	H	0.503982	-0.667156	0.720854
	H365	H	0.476007	-0.735730	0.740299
	O366	O	0.466237	0.539220	0.685705
	H367	H	0.457203	0.569103	0.692400
	H368	H	0.448962	0.545344	0.681814
	O369	O	0.284892	0.524674	0.301515
	H370	H	0.282361	0.501405	0.322361
	H371	H	0.252711	0.515552	0.293425
	O372	O	1.110620	-0.160624	1.066792
	H373	H	1.093353	-0.160222	1.084422
	H374	H	1.091536	-0.171405	1.076256
	O375	O	0.693404	0.709205	0.515213
	H376	H	0.695706	0.693498	0.498946
	H377	H	0.724814	0.714690	0.498601
	O378	O	0.402265	0.296659	0.414282
	H379	H	0.396433	0.299355	0.440645
	H380	H	0.396399	0.292249	0.436358
	O381	O	0.279068	0.447810	0.455222
	H382	H	0.293005	0.442370	0.478066
	H383	H	0.288033	0.424902	0.475430
	O384	O	0.313352	0.320049	0.689931
	H385	H	0.301693	0.362452	0.705950
	H386	H	0.358932	0.310275	0.700128
	O387	O	0.009402	0.090251	0.989810
	H388	H	0.002896	0.095686	0.998236
	H389	H	0.031903	0.074582	0.994434
	O390	O	-0.076573	-0.059455	0.020254
	H391	H	-0.083867	-0.056821	-0.001059
	H392	H	-0.082786	-0.048616	0.032248
	O393	O	0.817287	1.186749	0.837282
	H394	H	0.817140	1.146287	0.821991
	H395	H	0.858041	1.184773	0.824689
	O396	O	1.074225	0.117519	-0.184395
	H397	H	1.099846	0.112633	-0.185882
	H398	H	1.075815	0.132771	-0.167183
	O399	O	1.135589	0.220070	0.994465
	H400	H	1.144268	0.216877	1.001583
	H401	H	1.145841	0.213457	1.010838
	O402	O	1.475167	0.712607	0.299460
	H403	H	1.494126	0.696648	0.279755
	H404	H	1.485002	0.716063	0.283697
	O405	O	1.110449	0.975251	0.019409
	H406	H	1.082012	0.956843	0.026151
	H407	H	1.118463	0.980051	0.043428
	O408	O	1.051176	-0.045404	0.214954
	H409	H	1.056160	-0.076962	0.210314
	H410	H	1.090684	-0.039582	0.223584
	O411	O	1.121678	0.827198	-0.172425
	H412	H	1.121688	0.842479	-0.150700
	H413	H	1.122989	0.802916	-0.162909
	O414	O	-0.004393	0.841614	0.840033
	H415	H	0.010328	0.848515	0.821712
	H416	H	-0.019847	0.856069	0.834023
	O417	O	0.506098	0.528573	0.480763
	H418	H	0.517904	0.546135	0.481632
	H419	H	0.525655	0.523336	0.461527
	O420	O	0.719349	0.561790	0.451336
	H421	H	0.723709	0.546744	0.416691
	H422	H	0.720718	0.531362	0.463622
	O423	O	0.176230	1.182263	0.190559
	H424	H	0.183071	1.181806	0.149920
	H425	H	0.123373	1.194810	0.202735
	O426	O	0.599860	0.609956	0.291420
	H427	H	0.626284	0.590674	0.286381
	H428	H	0.580913	0.587019	0.281134
	O429	O	0.678788	0.508609	0.300927
	H430	H	0.676036	0.467090	0.307328
	H431	H	0.698029	0.498087	0.275474
	O432	O	0.705057	0.419494	0.552627
	H433	H	0.729857	0.421781	0.582979
	H434	H	0.671833	0.428571	0.572338
	O435	O	0.677171	0.682233	0.675467
	H436	H	0.689652	0.698389	0.627505
	H437	H	0.633429	0.687013	0.689811
	O438	O	0.016770	0.218731	0.227240
	H439	H	-0.000956	0.233300	0.217933
	H440	H	0.005673	0.235990	0.243951
	O441	O	0.837199	0.055700	0.064252
	H442	H	0.830438	0.053691	0.083334
	H443	H	0.837234	0.089837	0.050291
	O444	O	0.289968	1.485008	0.718947
	H445	H	0.264321	1.492640	0.729448
	H446	H	0.277796	1.501440	0.692316
	O447	O	0.211608	0.021867	0.228367
	H448	H	0.229423	0.038648	0.233902
	H449	H	0.224651	0.050242	0.235914
	O450	O	0.315234	0.686379	0.334218
	H451	H	0.364820	0.696355	0.325491
	H452	H	0.304997	0.633018	0.320530
	O453	O	0.279005	0.566658	0.573410
	H454	H	0.278715	0.578598	0.545346
	H455	H	0.296248	0.582364	0.553131
