data_Molecule from HDF5

_cell_length_a		16.277953
_cell_length_b		16.224071
_cell_length_c		16.261019
_cell_angle_alpha	90.132592
_cell_angle_beta	90.011208
_cell_angle_gamma	89.780220
_symmetry_space_group_name_H-M	'P 1'
_symmetry_Int_Tables_number		1

loop_
	_symmetry_equiv_pos_as_xyz
	x,y,z

loop_
	_atom_site_label
	_atom_site_type_symbol
	_atom_site_fract_x
	_atom_site_fract_y
	_atom_site_fract_z
	H0	H	0.401618	0.837290	0.710668
	H1	H	0.597082	0.165904	0.710701
	H2	H	0.598808	0.837687	0.280861
	H3	H	0.400127	0.165313	0.282846
	H4	H	0.717452	0.401296	0.834094
	H5	H	0.716333	0.602849	0.160650
	H6	H	0.283077	0.606550	0.833495
	H7	H	0.285257	0.404870	0.159262
	H8	H	0.835480	0.716663	0.396866
	H9	H	0.162921	0.714695	0.593919
	H10	H	0.834731	0.287562	0.594442
	H11	H	0.162348	0.284343	0.395813
	H12	H	0.834682	0.404222	0.709663
	H13	H	0.163042	0.600172	0.709809
	H14	H	0.835773	0.600688	0.280452
	H15	H	0.163003	0.400333	0.279607
	H16	H	0.403097	0.715590	0.831828
	H17	H	0.599384	0.718348	0.160515
	H18	H	0.601259	0.286052	0.833058
	H19	H	0.401068	0.288964	0.160011
	H20	H	0.715526	0.837815	0.396515
	H21	H	0.713589	0.165529	0.597408
	H22	H	0.286878	0.836356	0.594804
	H23	H	0.282436	0.164008	0.395661
	H24	H	0.902462	0.338080	0.208286
	H25	H	0.101260	0.665107	0.213489
	H26	H	0.098320	0.337382	0.781839
	H27	H	0.899791	0.666338	0.781201
	H28	H	0.214388	0.900176	0.332518
	H29	H	0.212381	0.098127	0.659883
	H30	H	0.782665	0.102120	0.333377
	H31	H	0.784073	0.901404	0.659786
	H32	H	0.336883	0.218883	0.897585
	H33	H	0.662896	0.216995	0.097568
	H34	H	0.335398	0.788043	0.095402
	H35	H	0.663915	0.787397	0.898435
	H36	H	0.336178	0.902239	0.211886
	H37	H	0.662199	0.102902	0.213611
	H38	H	0.335976	0.101789	0.781067
	H39	H	0.662998	0.900459	0.779240
	H40	H	0.898684	0.215096	0.332206
	H41	H	0.095690	0.215070	0.659478
	H42	H	0.098017	0.785890	0.332230
	H43	H	0.902236	0.788798	0.660768
	H44	H	0.215863	0.338623	0.897048
	H45	H	0.211986	0.667499	0.093241
	H46	H	0.784991	0.340337	0.098398
	H47	H	0.784929	0.666476	0.897671
	H48	H	0.403761	0.119220	0.591682
	H49	H	0.599595	0.879387	0.596678
	H50	H	0.588783	0.117280	0.405365
	H51	H	0.402620	0.880801	0.400549
	H52	H	0.587441	0.411957	0.111155
	H53	H	0.600292	0.596920	0.878123
	H54	H	0.412807	0.599956	0.112342
	H55	H	0.412201	0.413663	0.882190
	H56	H	0.115754	0.597883	0.407601
	H57	H	0.881835	0.593817	0.589204
	H58	H	0.117249	0.403323	0.590329
	H59	H	0.883430	0.413952	0.394970
	H60	H	0.113759	0.407673	0.584065
	H61	H	0.881640	0.596769	0.591668
	H62	H	0.112511	0.587091	0.406340
	H63	H	0.879991	0.400992	0.401273
	H64	H	0.400979	0.599771	0.115547
	H65	H	0.593039	0.588459	0.882809
	H66	H	0.595360	0.404596	0.115302
	H67	H	0.410354	0.407516	0.879194
	H68	H	0.593299	0.118082	0.406153
	H69	H	0.580861	0.887990	0.590442
	H70	H	0.408785	0.117337	0.587836
	H71	H	0.411609	0.884082	0.400013
	H72	H	0.912856	0.618146	0.086688
	H73	H	0.101351	0.383413	0.089757
	H74	H	0.097987	0.619841	0.906354
	H75	H	0.919758	0.387909	0.899121
	H76	H	0.082495	0.902820	0.611227
	H77	H	0.090223	0.089726	0.380476
	H78	H	0.908354	0.094582	0.612645
	H79	H	0.908147	0.906190	0.378989
	H80	H	0.617418	0.093332	0.899251
	H81	H	0.383541	0.096470	0.086750
	H82	H	0.614930	0.906505	0.083593
	H83	H	0.381258	0.910471	0.892871
	H84	H	0.614229	0.915285	0.090350
	H85	H	0.384211	0.093007	0.088828
	H86	H	0.616975	0.097686	0.905895
	H87	H	0.382035	0.900590	0.907685
	H88	H	0.905040	0.096598	0.613833
	H89	H	0.090985	0.095862	0.378357
	H90	H	0.103202	0.900376	0.618002
	H91	H	0.903267	0.909476	0.379794
	H92	H	0.093840	0.621294	0.894769
	H93	H	0.087988	0.386267	0.091989
	H94	H	0.903715	0.619838	0.084622
	H95	H	0.905517	0.388110	0.914368
	H96	H	0.403026	0.117556	0.585695
	H97	H	0.597096	0.886911	0.576894
	H98	H	0.590954	0.119378	0.401919
	H99	H	0.407537	0.884825	0.408001
	H100	H	0.598582	0.414976	0.112799
	H101	H	0.588485	0.599457	0.880360
	H102	H	0.406457	0.588316	0.110804
	H103	H	0.405548	0.412735	0.879306
	H104	H	0.117501	0.592755	0.397954
	H105	H	0.881372	0.597139	0.587702
	H106	H	0.114852	0.411102	0.591179
	H107	H	0.886137	0.411563	0.408745
	H108	H	0.906920	0.621806	0.093594
	H109	H	0.093694	0.387237	0.079468
	H110	H	0.086284	0.617472	0.904350
	H111	H	0.899969	0.380891	0.895487
	H112	H	0.096239	0.919661	0.609665
	H113	H	0.095391	0.091161	0.377741
	H114	H	0.904918	0.092861	0.612767
	H115	H	0.908690	0.911940	0.381043
	H116	H	0.614168	0.090363	0.905474
	H117	H	0.382689	0.096175	0.091347
	H118	H	0.618154	0.906053	0.093851
	H119	H	0.387086	0.918255	0.908426
	C120	C	0.377944	0.009504	0.617200
	C121	C	0.620899	0.993213	0.617610
	C122	C	0.620721	0.010057	0.374809
	C123	C	0.377853	0.992180	0.374391
	C124	C	0.623262	0.380440	0.005405
	C125	C	0.622536	0.624020	0.988771
	C126	C	0.378342	0.624959	0.004712
	C127	C	0.379388	0.382197	0.987936
	C128	C	0.007465	0.622641	0.374391
	C129	C	0.990319	0.623590	0.617511
	C130	C	0.007206	0.379510	0.617233
	C131	C	0.990996	0.379233	0.372998
	C132	C	0.879511	0.511330	0.117040
	C133	C	0.122365	0.494052	0.116927
	C134	C	0.121887	0.511033	0.873306
	C135	C	0.878930	0.493931	0.874588
	C136	C	0.121937	0.878514	0.504674
	C137	C	0.120798	0.121734	0.486949
	C138	C	0.877126	0.123120	0.504694
	C139	C	0.878058	0.880407	0.487961
	C140	C	0.508330	0.123644	0.874524
	C141	C	0.491174	0.124519	0.118852
	C142	C	0.507486	0.880506	0.117789
	C143	C	0.491490	0.880389	0.874454
	C144	C	0.381399	0.885948	0.672335
	C145	C	0.618019	0.116646	0.673317
	C146	C	0.619207	0.886846	0.318812
	C147	C	0.379792	0.115999	0.319951
	C148	C	0.679345	0.381631	0.882653
	C149	C	0.677688	0.622118	0.111958
	C150	C	0.322294	0.624421	0.881858
	C151	C	0.323467	0.384463	0.110665
	C152	C	0.884504	0.678654	0.376308
	C153	C	0.113782	0.677530	0.614680
	C154	C	0.883802	0.325168	0.614882
	C155	C	0.113580	0.322717	0.375473
	C156	C	0.883852	0.383229	0.672238
	C157	C	0.113662	0.620778	0.672440
	C158	C	0.884618	0.621054	0.318379
	C159	C	0.114116	0.380945	0.317972
	C160	C	0.381711	0.679088	0.881126
	C161	C	0.619763	0.679944	0.111904
	C162	C	0.621510	0.324251	0.882277
	C163	C	0.380957	0.326830	0.111036
	C164	C	0.676909	0.886821	0.376526
	C165	C	0.675921	0.116554	0.616746
	C166	C	0.324251	0.885561	0.614914
	C167	C	0.321183	0.115185	0.375981
	C168	C	0.882245	0.387411	0.171444
	C169	C	0.120478	0.616637	0.174264
	C170	C	0.119337	0.386821	0.818909
	C171	C	0.880416	0.617562	0.819563
	C172	C	0.176595	0.880116	0.381246
	C173	C	0.175036	0.118989	0.610804
	C174	C	0.821147	0.121592	0.382025
	C175	C	0.822383	0.882036	0.610941
	C176	C	0.385573	0.180319	0.876897
	C177	C	0.614221	0.179113	0.117114
	C178	C	0.384400	0.825503	0.115668
	C179	C	0.614806	0.824522	0.877028
	C180	C	0.384825	0.882390	0.173520
	C181	C	0.613736	0.122131	0.175013
	C182	C	0.385090	0.122136	0.819052
	C183	C	0.614331	0.880776	0.817906
	C184	C	0.878877	0.177926	0.381382
	C185	C	0.117191	0.177092	0.610634
	C186	C	0.118396	0.823780	0.381032
	C187	C	0.880930	0.825584	0.611451
	C188	C	0.177919	0.387597	0.875996
	C189	C	0.175877	0.617808	0.114759
	C190	C	0.823868	0.388550	0.116441
	C191	C	0.823005	0.617410	0.877091
	C192	C	0.398927	0.095663	0.595048
	C193	C	0.599080	0.907094	0.594625
	C194	C	0.597848	0.096069	0.397798
	C195	C	0.400525	0.905682	0.396453
	C196	C	0.600450	0.403712	0.090905
	C197	C	0.600550	0.601441	0.902808
	C198	C	0.400246	0.602527	0.090640
	C199	C	0.402437	0.404842	0.902234
	C200	C	0.093196	0.599500	0.397226
	C201	C	0.903934	0.602072	0.595837
	C202	C	0.093171	0.401072	0.595071
	C203	C	0.905301	0.402076	0.395162
	C204	C	0.901313	0.597598	0.094976
	C205	C	0.100685	0.407894	0.093807
	C206	C	0.099279	0.597216	0.895331
	C207	C	0.901719	0.407966	0.896462
	C208	C	0.100483	0.901036	0.590696
	C209	C	0.098685	0.098988	0.401129
	C210	C	0.899653	0.101212	0.590814
	C211	C	0.900343	0.902613	0.402114
	C212	C	0.593959	0.100637	0.897041
	C213	C	0.405542	0.101945	0.095806
	C214	C	0.593482	0.902895	0.095828
	C215	C	0.405639	0.903237	0.896504
	Zn216	Zn	0.499299	0.001635	0.745423
	Zn217	Zn	0.498868	0.001911	0.246110
	Zn218	Zn	0.751405	0.502215	-0.002843
	Zn219	Zn	0.250790	0.503817	-0.004610
	Zn220	Zn	-0.000601	0.751588	0.496224
	Zn221	Zn	-0.001776	0.250392	0.495475
	Zn222	Zn	-0.000796	0.501961	0.745326
	Zn223	Zn	-0.000260	0.501951	0.244392
	Zn224	Zn	0.499535	0.752519	-0.003532
	Zn225	Zn	0.500723	0.252854	-0.002900
	Zn226	Zn	0.749380	0.001931	0.496743
	Zn227	Zn	0.249675	-0.000059	0.495964
	N228	N	0.414024	0.963915	0.673784
	N229	N	0.584877	0.038969	0.674066
	N230	N	0.584990	0.964536	0.317640
	N231	N	0.414272	0.038464	0.318881
	N232	N	0.680436	0.415965	0.960155
	N233	N	0.679496	0.588336	0.034299
	N234	N	0.319998	0.591610	0.959702
	N235	N	0.322445	0.418049	0.032882
	N236	N	0.961985	0.679777	0.410300
	N237	N	0.036041	0.679414	0.581193
	N238	N	0.961448	0.322564	0.581388
	N239	N	0.035956	0.321468	0.408923
	N240	N	0.961769	0.416103	0.673945
	N241	N	0.035913	0.587807	0.674195
	N242	N	0.962173	0.586899	0.317125
	N243	N	0.036789	0.415327	0.316304
	N244	N	0.416031	0.679527	0.958573
	N245	N	0.585908	0.680895	0.034356
	N246	N	0.587721	0.323024	0.959634
	N247	N	0.415108	0.325239	0.033678
	N248	N	0.677980	0.964470	0.410544
	N249	N	0.678061	0.038618	0.582838
	N250	N	0.321959	0.963306	0.581263
	N251	N	0.319778	0.037089	0.409073
	N252	N	0.916308	0.464828	0.171788
	N253	N	0.087815	0.538606	0.175700
	N254	N	0.085403	0.464595	0.816966
	N255	N	0.914496	0.539873	0.817862
	N256	N	0.178983	0.913507	0.459043
	N257	N	0.177351	0.085442	0.533035
	N258	N	0.819689	0.088420	0.459810
	N259	N	0.820349	0.915437	0.533049
	N260	N	0.463216	0.181587	0.910528
	N261	N	0.537018	0.180673	0.082895
	N262	N	0.461764	0.824469	0.081467
	N263	N	0.537511	0.824194	0.911562
	N264	N	0.462464	0.915740	0.175044
	N265	N	0.536188	0.088630	0.176016
	N266	N	0.462372	0.087515	0.817625
	N267	N	0.536855	0.914746	0.816186
	N268	N	0.913108	0.178799	0.458731
	N269	N	0.084371	0.179080	0.532657
	N270	N	0.085277	0.822552	0.458762
	N271	N	0.914879	0.824653	0.534041
	N272	N	0.179753	0.465890	0.908813
	N273	N	0.177161	0.540451	0.079890
	N274	N	0.822234	0.466377	0.083122
	N275	N	0.822105	0.539702	0.910896
	O276	O	0.002874	0.079730	-0.018386
	H277	H	0.003133	0.083489	-0.015330
	H278	H	0.001171	0.085747	-0.019012
	O279	O	0.468869	0.495003	0.520732
	H280	H	0.461238	0.496823	0.511646
	H281	H	0.472214	0.496777	0.521789
	O282	O	0.527077	0.552792	0.490540
	H283	H	0.525903	0.551002	0.487616
	H284	H	0.518730	0.557182	0.485209
	O285	O	0.035149	0.926047	1.064766
	H286	H	0.040468	0.922479	1.053890
	H287	H	0.043049	0.931311	1.060748
	O288	O	0.385285	0.342994	0.568857
	H289	H	0.392794	0.330641	0.570906
	H290	H	0.385580	0.334989	0.569470
	O291	O	0.998415	0.995436	1.049326
	H292	H	1.002290	0.976391	1.047616
	H293	H	0.999546	0.995548	1.064903
	O294	O	1.013188	0.971736	0.943030
	H295	H	1.006887	0.979558	0.935971
	H296	H	1.010514	0.979150	0.956005
	O297	O	0.884207	-0.029783	0.941892
	H298	H	0.893964	-0.011557	0.944393
	H299	H	0.874464	-0.038028	0.935945
	O300	O	0.421341	0.481914	0.480421
	H301	H	0.422244	0.489749	0.477272
	H302	H	0.422901	0.474912	0.482178
	O303	O	0.944652	0.076330	0.047813
	H304	H	0.945920	0.069536	0.041794
	H305	H	0.946014	0.075003	0.038625
	O306	O	-0.088087	1.108522	1.010181
	H307	H	-0.089349	1.093185	1.016419
	H308	H	-0.091002	1.117038	1.003885
	O309	O	0.513208	0.505491	0.462487
	H310	H	0.516724	0.512103	0.473504
	H311	H	0.519582	0.505446	0.455317
	O312	O	0.959304	0.053783	0.925074
	H313	H	0.956945	0.061018	0.932281
	H314	H	0.972146	0.066428	0.928686
	O315	O	0.504230	0.507569	0.513643
	H316	H	0.508141	0.521931	0.522250
	H317	H	0.501898	0.499821	0.504585
	O318	O	0.497001	0.467271	0.469280
	H319	H	0.493789	0.467527	0.474620
	H320	H	0.496032	0.463333	0.464830
	O321	O	1.070380	1.024128	0.985962
	H322	H	1.073173	1.017214	0.994297
	H323	H	1.058317	1.022028	0.980328
	O324	O	0.454404	0.557756	0.431657
	H325	H	0.459167	0.562377	0.433038
	H326	H	0.451826	0.560353	0.429261
	O327	O	0.454828	0.521431	0.419731
	H328	H	0.446823	0.515039	0.413403
	H329	H	0.445628	0.514094	0.428102
	O330	O	1.048278	0.003087	0.918854
	H331	H	1.048225	0.005370	0.925470
	H332	H	1.040244	0.008467	0.913866
	O333	O	1.023297	1.012286	-0.052676
	H334	H	1.022513	1.007105	-0.061855
	H335	H	1.022299	1.023140	-0.052834
	O336	O	0.590380	0.426573	0.508448
	H337	H	0.590179	0.427697	0.511531
	H338	H	0.607076	0.427826	0.516222
	O339	O	0.447671	0.452983	0.469107
	H340	H	0.444583	0.457608	0.474324
	H341	H	0.463824	0.442453	0.478360
	O342	O	-0.007902	0.986601	0.014086
	H343	H	-0.021894	0.982347	0.025649
	H344	H	-0.006677	0.997199	0.011219
	O345	O	-0.091735	0.006171	0.115220
	H346	H	-0.099988	-0.014906	0.114951
	H347	H	-0.090681	0.002497	0.124751
	O348	O	0.461965	0.573343	0.534927
	H349	H	0.461918	0.566532	0.547934
	H350	H	0.465050	0.569770	0.522983
	O351	O	0.477655	0.501904	0.505263
	H352	H	0.476196	0.496533	0.499376
	H353	H	0.469227	0.512545	0.505516
	O354	O	0.570827	0.401808	0.608008
	H355	H	0.569124	0.396042	0.620504
	H356	H	0.560303	0.414903	0.615733
	O357	O	0.577855	0.440365	0.568768
	H358	H	0.569773	0.447562	0.572906
	H359	H	0.564635	0.441995	0.574024
	O360	O	-0.047214	0.042833	-0.019997
	H361	H	-0.056061	0.033777	-0.012404
	H362	H	-0.048202	0.057267	-0.013404
	O363	O	0.409942	0.477094	0.518218
	H364	H	0.412522	0.460646	0.509000
	H365	H	0.402613	0.479182	0.530643
	O366	O	0.051538	0.077168	0.988916
	H367	H	0.050474	0.067831	0.986331
	H368	H	0.055508	0.076672	0.997413
	O369	O	0.456487	0.513432	0.483864
	H370	H	0.456391	0.512614	0.487041
	H371	H	0.452626	0.517593	0.483885
