data_Molecule from HDF5

_cell_length_a		16.493699
_cell_length_b		16.425871
_cell_length_c		16.426606
_cell_angle_alpha	89.753393
_cell_angle_beta	90.084612
_cell_angle_gamma	89.829856
_symmetry_space_group_name_H-M	'P 1'
_symmetry_Int_Tables_number		1

loop_
	_symmetry_equiv_pos_as_xyz
	x,y,z

loop_
	_atom_site_label
	_atom_site_type_symbol
	_atom_site_fract_x
	_atom_site_fract_y
	_atom_site_fract_z
	H0	H	0.384745	0.840586	0.733473
	H1	H	0.593761	0.156377	0.731350
	H2	H	0.594828	0.841045	0.290219
	H3	H	0.381717	0.157452	0.288234
	H4	H	0.711064	0.392156	0.854423
	H5	H	0.712963	0.605028	0.168360
	H6	H	0.271335	0.601425	0.850092
	H7	H	0.266246	0.390978	0.168902
	H8	H	0.831657	0.721644	0.404765
	H9	H	0.146952	0.719279	0.616546
	H10	H	0.830867	0.277651	0.615927
	H11	H	0.146737	0.274656	0.404436
	H12	H	0.830796	0.394667	0.730576
	H13	H	0.147059	0.601152	0.730847
	H14	H	0.832454	0.605712	0.287193
	H15	H	0.147199	0.390990	0.288028
	H16	H	0.386770	0.718408	0.851209
	H17	H	0.593892	0.716991	0.170089
	H18	H	0.593191	0.278400	0.854059
	H19	H	0.383627	0.276856	0.170184
	H20	H	0.713045	0.842588	0.403406
	H21	H	0.709473	0.156274	0.615846
	H22	H	0.267008	0.841226	0.618901
	H23	H	0.267329	0.158268	0.405943
	H24	H	0.880499	0.342855	0.237407
	H25	H	0.094714	0.655878	0.231471
	H26	H	0.089464	0.338618	0.794046
	H27	H	0.882930	0.657688	0.788844
	H28	H	0.212494	0.892483	0.354360
	H29	H	0.209347	0.103150	0.668827
	H30	H	0.763620	0.108440	0.353552
	H31	H	0.764930	0.890419	0.668174
	H32	H	0.331553	0.219615	0.907532
	H33	H	0.646120	0.222316	0.121780
	H34	H	0.332126	0.776852	0.116958
	H35	H	0.647178	0.775588	0.905756
	H36	H	0.331607	0.895283	0.231764
	H37	H	0.645680	0.105527	0.236480
	H38	H	0.332515	0.104997	0.789368
	H39	H	0.648175	0.892942	0.790278
	H40	H	0.880320	0.224026	0.353432
	H41	H	0.090059	0.216466	0.669597
	H42	H	0.093709	0.779006	0.353289
	H43	H	0.882755	0.776482	0.669509
	H44	H	0.208078	0.339397	0.908130
	H45	H	0.209649	0.655966	0.114448
	H46	H	0.765427	0.342026	0.120592
	H47	H	0.765967	0.656497	0.903437
	H48	H	0.402893	0.111077	0.600531
	H49	H	0.575127	0.884745	0.603248
	H50	H	0.575637	0.110961	0.426184
	H51	H	0.403068	0.886942	0.420943
	H52	H	0.579608	0.420630	0.122260
	H53	H	0.580114	0.581813	0.899703
	H54	H	0.393175	0.580615	0.122990
	H55	H	0.408174	0.409629	0.900470
	H56	H	0.103715	0.589257	0.418080
	H57	H	0.875197	0.590489	0.600162
	H58	H	0.100891	0.408535	0.594705
	H59	H	0.879307	0.416120	0.422901
	H60	H	0.101776	0.412745	0.605572
	H61	H	0.875955	0.588787	0.597693
	H62	H	0.102001	0.591374	0.424496
	H63	H	0.876703	0.410112	0.421318
	H64	H	0.406109	0.587499	0.121730
	H65	H	0.572550	0.588012	0.899238
	H66	H	0.569711	0.407429	0.123475
	H67	H	0.396145	0.402590	0.894972
	H68	H	0.576709	0.111660	0.422581
	H69	H	0.575377	0.886775	0.597632
	H70	H	0.397338	0.111228	0.596214
	H71	H	0.400147	0.887890	0.427262
	H72	H	0.903092	0.609808	0.097311
	H73	H	0.084251	0.381100	0.102902
	H74	H	0.075199	0.612186	0.918398
	H75	H	0.898126	0.386265	0.924355
	H76	H	0.078197	0.901703	0.626829
	H77	H	0.076963	0.085079	0.398040
	H78	H	0.895034	0.088061	0.624474
	H79	H	0.894921	0.912311	0.397470
	H80	H	0.602657	0.087864	0.921803
	H81	H	0.378971	0.098989	0.085622
	H82	H	0.601066	0.910897	0.099703
	H83	H	0.377782	0.911295	0.921890
	H84	H	0.602779	0.908770	0.103661
	H85	H	0.383710	0.070945	0.096803
	H86	H	0.602334	0.088190	0.922284
	H87	H	0.376494	0.909209	0.921156
	H88	H	0.900560	0.083316	0.621049
	H89	H	0.075992	0.087477	0.397897
	H90	H	0.086153	0.912462	0.626244
	H91	H	0.902437	0.917956	0.401536
	H92	H	0.082602	0.611853	0.924204
	H93	H	0.070538	0.386551	0.102379
	H94	H	0.902484	0.609147	0.095291
	H95	H	0.897508	0.383853	0.918526
	H96	H	0.396877	0.113854	0.603248
	H97	H	0.580308	0.884050	0.599681
	H98	H	0.573007	0.111356	0.423452
	H99	H	0.396269	0.884449	0.421907
	H100	H	0.585249	0.406676	0.128795
	H101	H	0.581229	0.590478	0.895939
	H102	H	0.394216	0.594629	0.128148
	H103	H	0.395013	0.416962	0.899639
	H104	H	0.100335	0.584531	0.422609
	H105	H	0.875474	0.587822	0.600901
	H106	H	0.104567	0.401331	0.603236
	H107	H	0.879606	0.411085	0.427082
	H108	H	0.901487	0.610689	0.096518
	H109	H	0.078493	0.387446	0.090651
	H110	H	0.083328	0.615275	0.915360
	H111	H	0.902738	0.385888	0.920331
	H112	H	0.073474	0.913397	0.622169
	H113	H	0.078332	0.086841	0.396486
	H114	H	0.902287	0.091286	0.623123
	H115	H	0.904621	0.907961	0.398499
	H116	H	0.602581	0.087553	0.921769
	H117	H	0.370225	0.092273	0.113768
	H118	H	0.603037	0.906403	0.099864
	H119	H	0.378449	0.908967	0.923308
	C120	C	0.367175	0.007603	0.633133
	C121	C	0.609624	0.989816	0.632087
	C122	C	0.609315	0.007334	0.390515
	C123	C	0.367024	0.991009	0.390110
	C124	C	0.610721	0.377815	0.020904
	C125	C	0.610293	0.619115	1.002701
	C126	C	0.367327	0.619512	0.018796
	C127	C	0.367513	0.376936	1.003016
	C128	C	-0.002317	0.620757	0.388904
	C129	C	0.980174	0.620254	0.631956
	C130	C	-0.002533	0.376629	0.632396
	C131	C	0.981796	0.377873	0.389838
	C132	C	0.868813	0.506480	0.131179
	C133	C	0.110273	0.489353	0.131094
	C134	C	0.110757	0.507494	0.888539
	C135	C	0.866950	0.490500	0.888894
	C136	C	0.111424	0.876990	0.520486
	C137	C	0.108846	0.118782	0.502290
	C138	C	0.866332	0.121259	0.518916
	C139	C	0.867488	0.878360	0.502917
	C140	C	0.498373	0.120532	0.889487
	C141	C	0.481110	0.120138	0.133083
	C142	C	0.498151	0.876838	0.133268
	C143	C	0.481846	0.877134	0.890028
	C144	C	0.365888	0.888335	0.693544
	C145	C	0.612147	0.108911	0.691678
	C146	C	0.612837	0.888734	0.329765
	C147	C	0.364107	0.110068	0.328950
	C148	C	0.670936	0.374476	0.901890
	C149	C	0.671924	0.622314	0.121412
	C150	C	0.309786	0.620627	0.898486
	C151	C	0.306612	0.373918	0.121709
	C152	C	0.879091	0.681372	0.386114
	C153	C	0.099493	0.679152	0.634093
	C154	C	0.878501	0.317217	0.634098
	C155	C	0.099757	0.315514	0.386496
	C156	C	0.878448	0.375667	0.691181
	C157	C	0.099519	0.620563	0.691310
	C158	C	0.879628	0.623760	0.327640
	C159	C	0.099892	0.373257	0.328457
	C160	C	0.367404	0.678740	0.898956
	C161	C	0.612270	0.678013	0.122287
	C162	C	0.612416	0.317855	0.901682
	C163	C	0.365202	0.316903	0.122408
	C164	C	0.671716	0.889410	0.386225
	C165	C	0.669381	0.108945	0.634085
	C166	C	0.307408	0.888472	0.636134
	C167	C	0.306825	0.110521	0.387201
	C168	C	0.863860	0.389358	0.195336
	C169	C	0.112810	0.608425	0.191269
	C170	C	0.109698	0.386784	0.831981
	C171	C	0.864978	0.609910	0.828766
	C172	C	0.172115	0.874258	0.401640
	C173	C	0.168544	0.120866	0.621676
	C174	C	0.804682	0.125312	0.400734
	C175	C	0.805989	0.873602	0.621248
	C176	C	0.379412	0.180279	0.888189
	C177	C	0.599012	0.181670	0.138093
	C178	C	0.379441	0.816715	0.135496
	C179	C	0.600301	0.816268	0.887947
	C180	C	0.378919	0.875757	0.192380
	C181	C	0.598808	0.123312	0.195440
	C182	C	0.379729	0.122981	0.829631
	C183	C	0.600535	0.874652	0.830212
	C184	C	0.862634	0.183061	0.400572
	C185	C	0.109805	0.177502	0.622004
	C186	C	0.113060	0.817934	0.400915
	C187	C	0.864595	0.816640	0.621681
	C188	C	0.168733	0.387188	0.888549
	C189	C	0.170045	0.608545	0.133282
	C190	C	0.806586	0.388864	0.136909
	C191	C	0.806476	0.609264	0.885790
	C192	C	0.391856	0.090504	0.607445
	C193	C	0.584333	0.906773	0.607191
	C194	C	0.582747	0.089762	0.416699
	C195	C	0.392403	0.908286	0.415844
	C196	C	0.585486	0.403860	0.103278
	C197	C	0.585285	0.593896	0.919947
	C198	C	0.391156	0.594705	0.102520
	C199	C	0.392645	0.402537	0.919914
	C200	C	0.080391	0.595511	0.414534
	C201	C	0.897240	0.595928	0.606826
	C202	C	0.080683	0.400651	0.608192
	C203	C	0.900067	0.404749	0.416078
	C204	C	0.895006	0.588620	0.104069
	C205	C	0.085103	0.406494	0.105897
	C206	C	0.087175	0.591243	0.912321
	C207	C	0.892175	0.407202	0.913993
	C208	C	0.086493	0.901946	0.603345
	C209	C	0.084005	0.093680	0.419135
	C210	C	0.892005	0.094899	0.601720
	C211	C	0.893326	0.905210	0.420591
	C212	C	0.581136	0.095111	0.914650
	C213	C	0.399148	0.094688	0.106397
	C214	C	0.580561	0.901599	0.108294
	C215	C	0.398897	0.902571	0.914996
	Zn216	Zn	0.489867	-0.001420	0.761029
	Zn217	Zn	0.488572	-0.000871	0.261879
	Zn218	Zn	0.739114	0.498874	0.011075
	Zn219	Zn	0.238990	0.498170	0.010091
	Zn220	Zn	-0.011182	0.749602	0.510819
	Zn221	Zn	-0.011086	0.248658	0.510503
	Zn222	Zn	-0.011632	0.498362	0.760913
	Zn223	Zn	-0.010065	0.498248	0.260319
	Zn224	Zn	0.489356	0.747793	0.011123
	Zn225	Zn	0.489603	0.249281	0.012102
	Zn226	Zn	0.737993	-0.001285	0.511077
	Zn227	Zn	0.238800	-0.000797	0.511024
	N228	N	0.402347	0.963326	0.691810
	N229	N	0.575847	0.033762	0.690560
	N230	N	0.574827	0.963237	0.332158
	N231	N	0.400858	0.034790	0.330556
	N232	N	0.670228	0.410804	0.977098
	N233	N	0.670789	0.586344	0.046028
	N234	N	0.309465	0.584778	0.974215
	N235	N	0.307986	0.410377	0.046159
	N236	N	0.953675	0.679803	0.423400
	N237	N	0.024257	0.679219	0.597962
	N238	N	0.953675	0.317584	0.598187
	N239	N	0.025185	0.318095	0.423653
	N240	N	0.953398	0.411828	0.690186
	N241	N	0.024339	0.584703	0.690144
	N242	N	0.954372	0.586752	0.329496
	N243	N	0.025635	0.411396	0.330525
	N244	N	0.402257	0.678371	0.975045
	N245	N	0.574728	0.676220	0.047735
	N246	N	0.576198	0.319265	0.976858
	N247	N	0.402490	0.318711	0.047744
	N248	N	0.669298	0.964162	0.423224
	N249	N	0.668118	0.033731	0.597906
	N250	N	0.308262	0.963684	0.599121
	N251	N	0.308474	0.035502	0.424442
	N252	N	0.902047	0.463427	0.191810
	N253	N	0.076741	0.533138	0.190344
	N254	N	0.074646	0.462670	0.831623
	N255	N	0.901746	0.534711	0.830484
	N256	N	0.171487	0.909936	0.477005
	N257	N	0.168064	0.085208	0.546131
	N258	N	0.806786	0.087420	0.475594
	N259	N	0.807683	0.911342	0.546474
	N260	N	0.454322	0.179001	0.924714
	N261	N	0.524909	0.179511	0.099664
	N262	N	0.454534	0.817092	0.099544
	N263	N	0.525428	0.818074	0.924590
	N264	N	0.453589	0.912198	0.191349
	N265	N	0.524777	0.085766	0.192226
	N266	N	0.454733	0.086473	0.830377
	N267	N	0.525905	0.911963	0.831700
	N268	N	0.900071	0.180596	0.475143
	N269	N	0.073321	0.176325	0.546724
	N270	N	0.076190	0.819237	0.475825
	N271	N	0.902227	0.819626	0.547153
	N272	N	0.169582	0.463254	0.922783
	N273	N	0.168769	0.533610	0.096713
	N274	N	0.809656	0.462867	0.097619
	N275	N	0.807566	0.533930	0.922323
	O276	O	0.780039	0.881309	0.980016
	H277	H	0.767334	0.873150	0.966031
	H278	H	0.790314	0.884115	0.982504
	O279	O	0.842337	0.112967	1.092893
	H280	H	0.846599	0.122778	1.099799
	H281	H	0.838618	0.104648	1.077608
	O282	O	0.664362	0.496712	0.712145
	H283	H	0.657842	0.498936	0.720362
	H284	H	0.668085	0.499752	0.717048
	O285	O	0.409360	0.453729	0.660300
	H286	H	0.411543	0.445300	0.645110
	H287	H	0.398593	0.490757	0.656895
	O288	O	1.066043	1.212392	0.145205
	H289	H	1.058495	1.219413	0.140087
	H290	H	1.091563	1.226911	0.148534
	O291	O	0.456314	0.716081	0.295559
	H292	H	0.450632	0.695811	0.295281
	H293	H	0.463988	0.738487	0.268222
	O294	O	0.180413	-0.033177	1.017057
	H295	H	0.184865	-0.053609	1.024519
	H296	H	0.185627	-0.031582	1.010917
	O297	O	0.338445	0.343602	0.450134
	H298	H	0.344219	0.321665	0.448861
	H299	H	0.338879	0.359564	0.443263
	O300	O	0.323042	0.579729	0.547353
	H301	H	0.310785	0.569718	0.528338
	H302	H	0.317506	0.594088	0.544394
	O303	O	0.047490	0.950118	0.214888
	H304	H	0.060997	0.959254	0.210784
	H305	H	0.031243	0.929996	0.211106
	O306	O	0.575360	0.513257	0.450300
	H307	H	0.584550	0.514710	0.459824
	H308	H	0.574219	0.516582	0.457497
	O309	O	1.376729	-0.606445	0.533408
	H310	H	1.358153	-0.614374	0.547616
	H311	H	1.379687	-0.618084	0.528574
	O312	O	-0.006558	1.196995	0.860794
	H313	H	-0.015269	1.197685	0.848631
	H314	H	-0.014281	1.198045	0.868876
	O315	O	0.273668	0.526452	0.299026
	H316	H	0.266335	0.541582	0.281916
	H317	H	0.259767	0.541239	0.290487
	O318	O	1.187006	-0.194034	-0.142835
	H319	H	1.197055	-0.159683	-0.148839
	H320	H	1.153346	-0.204615	-0.150568
	O321	O	0.032513	-0.060477	0.072883
	H322	H	0.021913	-0.067779	0.058911
	H323	H	0.032228	-0.059051	0.079628
	O324	O	0.354406	0.338099	0.616879
	H325	H	0.357321	0.360750	0.612144
	H326	H	0.363984	0.339210	0.606141
	O327	O	0.676106	0.570208	0.404456
	H328	H	0.684426	0.571697	0.427386
	H329	H	0.672586	0.576319	0.410482
	O330	O	0.212752	0.812492	0.005152
	H331	H	0.213839	0.814200	-0.020060
	H332	H	0.226512	0.800662	-0.004115
	O333	O	1.027173	-0.077399	0.968710
	H334	H	1.008233	-0.061870	0.970330
	H335	H	1.020598	-0.086561	0.958010
	O336	O	0.146154	-0.194184	0.166743
	H337	H	0.137939	-0.184195	0.146453
	H338	H	0.128973	-0.177165	0.155829
	O339	O	0.292671	0.694029	1.315015
	H340	H	0.327485	0.687854	1.314419
	H341	H	0.266387	0.723146	1.303969
	O342	O	0.107414	1.189555	1.198979
	H343	H	0.113176	1.194910	1.188188
	H344	H	0.110614	1.177346	1.197793
	O345	O	0.780228	1.024965	-0.197875
	H346	H	0.753965	1.036782	-0.213030
	H347	H	0.781462	1.064857	-0.192346
	O348	O	-0.145425	1.048253	0.171085
	H349	H	-0.162361	1.039135	0.177052
	H350	H	-0.140882	1.038335	0.172280
	O351	O	-0.083447	0.828671	0.899583
	H352	H	-0.077066	0.855484	0.896359
	H353	H	-0.072336	0.828180	0.924252
	O354	O	0.051823	0.793433	-0.194880
	H355	H	0.035987	0.775470	-0.197246
	H356	H	0.035503	0.794327	-0.195259
	O357	O	0.022397	0.093293	1.139529
	H358	H	0.032928	0.083820	1.135968
	H359	H	0.017456	0.091962	1.139253
	O360	O	0.509189	0.560671	0.469092
	H361	H	0.503486	0.553229	0.473130
	H362	H	0.501318	0.556106	0.453866
	O363	O	0.310071	-0.552477	0.590554
	H364	H	0.298942	-0.552778	0.588113
	H365	H	0.318356	-0.551541	0.592038
	O366	O	0.422372	0.627903	0.655810
	H367	H	0.419323	0.632975	0.641228
	H368	H	0.418239	0.624717	0.644000
	O369	O	0.694605	0.407203	0.540345
	H370	H	0.698923	0.423909	0.561716
	H371	H	0.698856	0.388910	0.549116
	O372	O	0.800050	0.187308	0.821340
	H373	H	0.787611	0.199657	0.873519
	H374	H	0.815362	0.208466	0.804570
	O375	O	0.602048	0.309562	0.609897
	H376	H	0.594261	0.316887	0.599418
	H377	H	0.604145	0.321891	0.600117
	O378	O	0.477064	0.316400	0.321285
	H379	H	0.495853	0.320577	0.325384
	H380	H	0.464855	0.310910	0.303212
	O381	O	0.692874	0.355619	0.435987
	H382	H	0.682061	0.375135	0.426480
	H383	H	0.701451	0.351515	0.435397
	O384	O	0.474853	0.613743	0.715502
	H385	H	0.467325	0.630969	0.708655
	H386	H	0.475204	0.608726	0.714039
	O387	O	-0.652581	0.712752	0.468506
	H388	H	-0.646954	0.733597	0.473455
	H389	H	-0.659993	0.717451	0.456187
	O390	O	0.024720	0.053971	-0.132082
	H391	H	0.002365	0.056506	-0.135137
	H392	H	0.016145	0.069443	-0.133875
	O393	O	0.979431	0.838379	1.171892
	H394	H	0.959811	0.843631	1.168797
	H395	H	0.968658	0.831965	1.179042
	O396	O	0.969543	0.034371	-0.179713
	H397	H	0.978687	0.022047	-0.186139
	H398	H	0.959255	0.047435	-0.196589
	O399	O	1.194293	0.024552	1.213052
	H400	H	1.197860	0.027637	1.220759
	H401	H	1.197321	0.030607	1.212938
	O402	O	1.657733	0.676386	0.623909
	H403	H	1.626724	0.674072	0.617873
	H404	H	1.666620	0.679594	0.610075
	O405	O	0.791517	0.970719	-0.036909
	H406	H	0.777388	0.982619	-0.041415
	H407	H	0.791542	0.959235	-0.026340
	O408	O	0.771124	0.217278	-0.016046
	H409	H	0.748918	0.248134	-0.009938
	H410	H	0.784956	0.216790	0.011229
	O411	O	0.794489	0.801790	0.135726
	H412	H	0.795631	0.814221	0.133040
	H413	H	0.794218	0.816219	0.101412
	O414	O	-0.205598	0.911666	1.213366
	H415	H	-0.194847	0.927806	1.204113
	H416	H	-0.220916	0.910538	1.208047
	O417	O	0.527042	0.555839	0.434600
	H418	H	0.519056	0.555540	0.411540
	H419	H	0.531375	0.543928	0.447802
	O420	O	0.656596	0.424394	0.320001
	H421	H	0.639223	0.429636	0.309845
	H422	H	0.665571	0.452255	0.324827
	O423	O	0.376341	1.533813	0.404758
	H424	H	0.366814	1.536799	0.388294
	H425	H	0.373028	1.544185	0.398428
	O426	O	1.182285	1.068732	-0.178107
	H427	H	1.191845	1.065501	-0.169046
	H428	H	1.192195	1.073979	-0.180004
	O429	O	0.577759	0.587054	0.618150
	H430	H	0.580777	0.575157	0.611262
	H431	H	0.578765	0.608848	0.611339
	O432	O	1.144078	0.081435	-0.139432
	H433	H	1.131621	0.070453	-0.148244
	H434	H	1.151249	0.075607	-0.153812
	O435	O	0.584672	0.703998	0.554855
	H436	H	0.574191	0.701919	0.563205
	H437	H	0.603483	0.717949	0.556464
	O438	O	-0.049467	-0.200550	0.020011
	H439	H	-0.036863	-0.197497	0.040668
	H440	H	-0.038100	-0.197324	0.010845
	O441	O	1.027884	0.134564	-0.033521
	H442	H	1.049261	0.127318	-0.033695
	H443	H	1.034034	0.129721	-0.033465
	O444	O	0.399405	1.439155	0.531274
	H445	H	0.395930	1.427173	0.538967
	H446	H	0.416101	1.445476	0.533679
	O447	O	-0.039633	0.220433	0.158333
	H448	H	-0.041515	0.217687	0.162872
	H449	H	-0.022157	0.232553	0.150342
	O450	O	0.556618	0.314303	0.574084
	H451	H	0.565827	0.314483	0.573259
	H452	H	0.554581	0.303891	0.575442
	O453	O	0.467092	0.310811	0.710353
	H454	H	0.446687	0.311333	0.708515
	H455	H	0.466966	0.300870	0.720073
