data_Molecule from HDF5

_cell_length_a		16.275556
_cell_length_b		16.442214
_cell_length_c		16.297561
_cell_angle_alpha	89.975462
_cell_angle_beta	89.767929
_cell_angle_gamma	90.125749
_symmetry_space_group_name_H-M	'P 1'
_symmetry_Int_Tables_number		1

loop_
	_symmetry_equiv_pos_as_xyz
	x,y,z

loop_
	_atom_site_label
	_atom_site_type_symbol
	_atom_site_fract_x
	_atom_site_fract_y
	_atom_site_fract_z
	H0	H	0.411389	0.825981	0.699242
	H1	H	0.616054	0.147314	0.697826
	H2	H	0.613924	0.825574	0.262129
	H3	H	0.411200	0.146752	0.262004
	H4	H	0.731252	0.386967	0.819595
	H5	H	0.726675	0.586958	0.143584
	H6	H	0.297362	0.586233	0.817246
	H7	H	0.296025	0.386525	0.142873
	H8	H	0.849295	0.702833	0.383254
	H9	H	0.173112	0.705827	0.585304
	H10	H	0.850886	0.265869	0.588893
	H11	H	0.172284	0.268407	0.378084
	H12	H	0.848567	0.387178	0.699924
	H13	H	0.174959	0.586155	0.695489
	H14	H	0.848692	0.587265	0.267076
	H15	H	0.172880	0.384674	0.263547
	H16	H	0.409910	0.705688	0.817905
	H17	H	0.616839	0.707862	0.139422
	H18	H	0.616183	0.270508	0.818254
	H19	H	0.407638	0.266620	0.140189
	H20	H	0.730277	0.825954	0.378683
	H21	H	0.729757	0.148249	0.579552
	H22	H	0.294804	0.825623	0.582628
	H23	H	0.292739	0.146170	0.376266
	H24	H	0.906780	0.326852	0.203321
	H25	H	0.115337	0.647256	0.201216
	H26	H	0.114270	0.327211	0.762155
	H27	H	0.908321	0.647437	0.763970
	H28	H	0.230904	0.882701	0.319523
	H29	H	0.231376	0.088377	0.642208
	H30	H	0.798182	0.087925	0.317980
	H31	H	0.794298	0.887718	0.642450
	H32	H	0.353208	0.207052	0.872531
	H33	H	0.673209	0.206592	0.082676
	H34	H	0.352442	0.767240	0.083491
	H35	H	0.673983	0.766250	0.872549
	H36	H	0.351536	0.883150	0.198126
	H37	H	0.674991	0.088695	0.195736
	H38	H	0.352398	0.088066	0.760912
	H39	H	0.675881	0.885281	0.761023
	H40	H	0.905995	0.209437	0.322335
	H41	H	0.117951	0.207745	0.641916
	H42	H	0.115599	0.766485	0.321359
	H43	H	0.907176	0.769906	0.643484
	H44	H	0.230366	0.326797	0.878622
	H45	H	0.232262	0.647360	0.084423
	H46	H	0.789417	0.327926	0.088348
	H47	H	0.794086	0.647636	0.881462
	H48	H	0.427123	0.098160	0.567411
	H49	H	0.595611	0.877004	0.565429
	H50	H	0.607832	0.103081	0.384828
	H51	H	0.422192	0.871302	0.385112
	H52	H	0.603558	0.393442	0.097308
	H53	H	0.600341	0.584505	0.863497
	H54	H	0.414684	0.578864	0.097495
	H55	H	0.425425	0.401297	0.867814
	H56	H	0.124243	0.577472	0.400244
	H57	H	0.893781	0.589600	0.568023
	H58	H	0.130097	0.388226	0.575143
	H59	H	0.897702	0.402152	0.391552
	H60	H	0.124314	0.396073	0.563917
	H61	H	0.900292	0.569120	0.568099
	H62	H	0.125828	0.570770	0.387166
	H63	H	0.893830	0.392871	0.390480
	H64	H	0.427388	0.570830	0.090958
	H65	H	0.611496	0.575533	0.863008
	H66	H	0.600404	0.400350	0.094251
	H67	H	0.425898	0.388304	0.863259
	H68	H	0.602743	0.101151	0.385382
	H69	H	0.611337	0.871671	0.564964
	H70	H	0.418926	0.100414	0.567190
	H71	H	0.425853	0.874006	0.390356
	H72	H	0.920774	0.601798	0.076182
	H73	H	0.094770	0.375630	0.074876
	H74	H	0.094924	0.594583	0.903311
	H75	H	0.916315	0.368479	0.882502
	H76	H	0.102102	0.895263	0.596525
	H77	H	0.096210	0.073399	0.370135
	H78	H	0.924609	0.072618	0.594059
	H79	H	0.919316	0.900221	0.365604
	H80	H	0.629265	0.081709	0.891653
	H81	H	0.397343	0.079662	0.070173
	H82	H	0.627100	0.897486	0.066397
	H83	H	0.397541	0.890608	0.890316
	H84	H	0.627859	0.898469	0.070997
	H85	H	0.398727	0.076237	0.067616
	H86	H	0.626452	0.074195	0.891845
	H87	H	0.401674	0.898141	0.895727
	H88	H	0.924779	0.080997	0.596225
	H89	H	0.099252	0.083298	0.365750
	H90	H	0.104210	0.895952	0.597103
	H91	H	0.929752	0.892348	0.367687
	H92	H	0.122581	0.606144	0.892510
	H93	H	0.103117	0.375930	0.064375
	H94	H	0.922824	0.599516	0.072882
	H95	H	0.934550	0.377340	0.891424
	H96	H	0.423230	0.100590	0.574327
	H97	H	0.602645	0.870477	0.578975
	H98	H	0.606060	0.100479	0.389348
	H99	H	0.418832	0.872108	0.391591
	H100	H	0.595871	0.393016	0.094240
	H101	H	0.598724	0.571128	0.868471
	H102	H	0.428847	0.585994	0.095145
	H103	H	0.413748	0.395680	0.862294
	H104	H	0.129758	0.584422	0.389106
	H105	H	0.892076	0.577203	0.586767
	H106	H	0.125640	0.402576	0.577227
	H107	H	0.898189	0.395677	0.399735
	H108	H	0.918996	0.600894	0.072546
	H109	H	0.107976	0.371441	0.076441
	H110	H	0.097788	0.604229	0.873458
	H111	H	0.915803	0.374934	0.903649
	H112	H	0.102330	0.896999	0.595818
	H113	H	0.107324	0.075438	0.366340
	H114	H	0.917537	0.076618	0.597535
	H115	H	0.918297	0.887630	0.362523
	H116	H	0.629885	0.077501	0.885008
	H117	H	0.397340	0.075216	0.071736
	H118	H	0.629644	0.893833	0.069284
	H119	H	0.398462	0.899814	0.885597
	C120	C	0.391663	-0.005589	0.601404
	C121	C	0.634185	0.979061	0.600358
	C122	C	0.635689	-0.004625	0.356701
	C123	C	0.391339	0.978325	0.358095
	C124	C	0.632790	0.365720	-0.011223
	C125	C	0.634258	0.608343	0.971598
	C126	C	0.392553	0.608329	-0.012221
	C127	C	0.390487	0.364536	0.971287
	C128	C	0.019761	0.607979	0.361673
	C129	C	1.002775	0.609046	0.604238
	C130	C	0.019780	0.365657	0.603626
	C131	C	1.003054	0.365771	0.361790
	C132	C	0.889481	0.494955	0.104818
	C133	C	0.133547	0.479546	0.102948
	C134	C	0.134883	0.495817	0.859036
	C135	C	0.891123	0.479306	0.861736
	C136	C	0.133134	0.865271	0.489618
	C137	C	0.133344	0.108132	0.473399
	C138	C	0.891512	0.107905	0.489560
	C139	C	0.890602	0.864698	0.472379
	C140	C	0.521850	0.107828	0.858305
	C141	C	0.504037	0.108067	0.100672
	C142	C	0.521494	0.865078	0.100562
	C143	C	0.505448	0.865303	0.858155
	C144	C	0.391617	0.873903	0.659936
	C145	C	0.634613	0.099663	0.658111
	C146	C	0.634286	0.874140	0.300209
	C147	C	0.391369	0.098789	0.300321
	C148	C	0.692148	0.366870	0.867645
	C149	C	0.689425	0.607347	0.094268
	C150	C	0.335365	0.606795	0.865777
	C151	C	0.333885	0.365911	0.093713
	C152	C	0.897594	0.664416	0.363171
	C153	C	0.124695	0.666426	0.603871
	C154	C	0.898683	0.306390	0.606503
	C155	C	0.124174	0.307532	0.359778
	C156	C	0.897513	0.366804	0.661544
	C157	C	0.125790	0.607020	0.658900
	C158	C	0.897697	0.607108	0.305104
	C159	C	0.124425	0.365336	0.302646
	C160	C	0.391443	0.666096	0.866168
	C161	C	0.634783	0.667443	0.092216
	C162	C	0.635070	0.308919	0.867020
	C163	C	0.389263	0.306068	0.092264
	C164	C	0.692124	0.874255	0.358368
	C165	C	0.691602	0.100007	0.599571
	C166	C	0.333603	0.873801	0.601956
	C167	C	0.332795	0.098367	0.357548
	C168	C	0.888348	0.374737	0.163472
	C169	C	0.134434	0.599338	0.161778
	C170	C	0.134179	0.375356	0.801002
	C171	C	0.889977	0.599440	0.803433
	C172	C	0.191517	0.864074	0.368110
	C173	C	0.192444	0.108169	0.594056
	C174	C	0.835368	0.107772	0.367194
	C175	C	0.832299	0.866635	0.594161
	C176	C	0.401116	0.166790	0.855480
	C177	C	0.625091	0.167179	0.101738
	C178	C	0.400704	0.806505	0.102028
	C179	C	0.626404	0.806723	0.855429
	C180	C	0.400309	0.864189	0.159349
	C181	C	0.625943	0.108505	0.157947
	C182	C	0.400748	0.107633	0.799706
	C183	C	0.627114	0.865643	0.799718
	C184	C	0.889062	0.168312	0.369404
	C185	C	0.135426	0.167199	0.594022
	C186	C	0.134075	0.806128	0.369087
	C187	C	0.888734	0.808295	0.594637
	C188	C	0.191846	0.374885	0.859209
	C189	C	0.192815	0.599465	0.103649
	C190	C	0.829979	0.375040	0.106025
	C191	C	0.833158	0.599838	0.862200
	C192	C	0.416060	0.077902	0.576832
	C193	C	0.610177	0.895073	0.576594
	C194	C	0.612415	0.079649	0.379725
	C195	C	0.415320	0.894394	0.381944
	C196	C	0.607437	0.388718	0.073267
	C197	C	0.610409	0.584072	0.886839
	C198	C	0.416486	0.585252	0.072405
	C199	C	0.414500	0.388219	0.886572
	C200	C	0.104697	0.584553	0.385343
	C201	C	0.917606	0.585629	0.581200
	C202	C	0.104539	0.388932	0.579320
	C203	C	0.918696	0.389797	0.386803
	C204	C	0.913917	0.578828	0.080960
	C205	C	0.108914	0.395860	0.078779
	C206	C	0.111669	0.579811	0.882988
	C207	C	0.915156	0.395461	0.885801
	C208	C	0.109533	0.889243	0.574460
	C209	C	0.108120	0.084153	0.389148
	C210	C	0.915420	0.083551	0.573819
	C211	C	0.915195	0.887034	0.387392
	C212	C	0.606442	0.084653	0.882655
	C213	C	0.419652	0.083867	0.076656
	C214	C	0.606272	0.889512	0.075990
	C215	C	0.420969	0.889269	0.883345
	Zn216	Zn	0.513992	-0.013597	0.730303
	Zn217	Zn	0.512841	-0.013621	0.228348
	Zn218	Zn	0.761110	0.486954	-0.017661
	Zn219	Zn	0.263658	0.487138	-0.019149
	Zn220	Zn	0.011651	0.736758	0.482946
	Zn221	Zn	0.011358	0.236902	0.481963
	Zn222	Zn	0.011351	0.487929	0.731421
	Zn223	Zn	0.011478	0.486943	0.233159
	Zn224	Zn	0.513848	0.737248	-0.021410
	Zn225	Zn	0.512744	0.236302	-0.021016
	Zn226	Zn	0.763841	-0.013034	0.479587
	Zn227	Zn	0.262268	-0.013891	0.480300
	N228	N	0.427027	0.950004	0.659812
	N229	N	0.599570	0.023504	0.658605
	N230	N	0.600053	0.950477	0.298906
	N231	N	0.427039	0.023058	0.300662
	N232	N	0.690896	0.401348	0.944432
	N233	N	0.689166	0.571522	0.018150
	N234	N	0.335789	0.571596	0.942385
	N235	N	0.334332	0.401266	0.017402
	N236	N	0.974612	0.665050	0.397622
	N237	N	0.047137	0.667998	0.570880
	N238	N	0.975632	0.305484	0.571100
	N239	N	0.047624	0.307766	0.395826
	N240	N	0.973896	0.402399	0.660264
	N241	N	0.048839	0.572208	0.659340
	N242	N	0.974656	0.572744	0.304233
	N243	N	0.048090	0.400654	0.303679
	N244	N	0.426061	0.667333	0.942972
	N245	N	0.601396	0.668290	0.014698
	N246	N	0.598605	0.308343	0.943292
	N247	N	0.423689	0.305067	0.015068
	N248	N	0.693277	0.950624	0.392473
	N249	N	0.691262	0.024022	0.564265
	N250	N	0.333372	0.949670	0.566635
	N251	N	0.332588	0.022260	0.392525
	N252	N	0.924637	0.450287	0.162742
	N253	N	0.098185	0.523766	0.161434
	N254	N	0.099719	0.451641	0.800583
	N255	N	0.925511	0.523736	0.803289
	N256	N	0.191056	0.900093	0.444165
	N257	N	0.191225	0.072197	0.518012
	N258	N	0.836816	0.070746	0.442804
	N259	N	0.833022	0.900658	0.517176
	N260	N	0.477471	0.167057	0.891133
	N261	N	0.548492	0.166962	0.066509
	N262	N	0.477291	0.806904	0.066252
	N263	N	0.549735	0.806550	0.891159
	N264	N	0.476677	0.899931	0.158576
	N265	N	0.549659	0.072528	0.157614
	N266	N	0.476751	0.071554	0.801449
	N267	N	0.550933	0.901518	0.801391
	N268	N	0.923356	0.168593	0.446430
	N269	N	0.099577	0.167473	0.517805
	N270	N	0.098713	0.806720	0.445722
	N271	N	0.924536	0.807232	0.517996
	N272	N	0.192608	0.450854	0.894382
	N273	N	0.192217	0.523881	0.067660
	N274	N	0.830564	0.450750	0.070214
	N275	N	0.833684	0.523948	0.897732
	O276	O	0.516963	0.456497	0.422123
	H277	H	0.510230	0.455499	0.427125
	H278	H	0.511382	0.463010	0.426620
	O279	O	0.197476	0.998871	0.944111
	H280	H	0.199898	1.011970	0.954152
	H281	H	0.208878	1.009395	0.952671
	O282	O	0.832801	0.002822	0.898025
	H283	H	0.836499	-0.004458	0.902434
	H284	H	0.825573	0.009750	0.905118
	O285	O	0.415879	0.429342	0.544820
	H286	H	0.411077	0.420308	0.554884
	H287	H	0.407323	0.427954	0.558043
	O288	O	0.350210	1.428226	1.620274
	H289	H	0.354843	1.413172	1.617783
	H290	H	0.337870	1.427675	1.641066
	O291	O	0.110826	1.101843	-0.086640
	H292	H	0.122180	1.097980	-0.088480
	H293	H	0.110046	1.085527	-0.089728
	O294	O	0.407227	0.368539	0.532907
	H295	H	0.402604	0.364336	0.536590
	H296	H	0.418176	0.359637	0.542004
	O297	O	0.623866	0.527246	0.527219
	H298	H	0.618293	0.531517	0.524558
	H299	H	0.624383	0.531347	0.525064
	O300	O	0.487694	0.388866	0.329682
	H301	H	0.490503	0.384896	0.336073
	H302	H	0.479257	0.381887	0.317117
	O303	O	-0.065745	0.995986	1.027454
	H304	H	-0.062269	0.985609	1.015491
	H305	H	-0.068172	1.009566	1.034288
	O306	O	0.531639	0.582318	0.515906
	H307	H	0.525186	0.580179	0.507182
	H308	H	0.524088	0.577588	0.508946
	O309	O	0.927136	1.112973	0.050379
	H310	H	0.931059	1.109905	0.055734
	H311	H	0.920138	1.110521	0.038180
	O312	O	0.085618	-0.066643	0.032555
	H313	H	0.076373	-0.067647	0.040381
	H314	H	0.081667	-0.069412	0.022207
	O315	O	0.490037	0.575351	0.536683
	H316	H	0.485800	0.575974	0.534748
	H317	H	0.480433	0.577509	0.530435
	O318	O	0.165032	0.878984	0.827121
	H319	H	0.173674	0.885045	0.820585
	H320	H	0.171603	0.882361	0.814703
	O321	O	0.489483	0.436078	0.586634
	H322	H	0.485563	0.427963	0.589904
	H323	H	0.506609	0.437405	0.583003
	O324	O	0.192941	1.036431	-0.015171
	H325	H	0.174017	1.046377	-0.016815
	H326	H	0.193420	1.045446	-0.028507
	O327	O	0.624179	0.491233	0.463396
	H328	H	0.614503	0.489296	0.479858
	H329	H	0.642925	0.495858	0.466292
	O330	O	-0.062329	0.021276	1.091155
	H331	H	-0.060360	0.010362	1.082051
	H332	H	-0.049756	0.025157	1.086874
	O333	O	-0.472107	-0.589831	1.464153
	H334	H	-0.474300	-0.599497	1.452695
	H335	H	-0.477811	-0.579598	1.463042
	O336	O	0.066808	0.918595	1.009490
	H337	H	0.072965	0.919486	1.017181
	H338	H	0.080111	0.921607	1.012900
	O339	O	1.098641	-0.008975	-0.032853
	H340	H	1.090056	-0.011781	-0.038784
	H341	H	1.098347	0.001403	-0.032600
	O342	O	0.048894	0.090403	-0.096670
	H343	H	0.049010	0.081960	-0.098461
	H344	H	0.040364	0.089672	-0.103031
	O345	O	1.203560	0.075777	1.107722
	H346	H	1.192509	0.055469	1.103914
	H347	H	1.193808	0.089253	1.113992
	O348	O	0.456163	1.290052	0.456023
	H349	H	0.458014	1.280424	0.451021
	H350	H	0.453377	1.298363	0.467637
	O351	O	0.620017	0.538697	0.514467
	H352	H	0.610295	0.549943	0.518172
	H353	H	0.624582	0.536111	0.513262
	O354	O	1.032351	0.115429	1.062756
	H355	H	1.031601	0.110227	1.069056
	H356	H	1.026271	0.113442	1.073243
	O357	O	0.346582	0.530073	0.359675
	H358	H	0.346692	0.521345	0.353704
	H359	H	0.339197	0.536853	0.375010
	O360	O	-0.131046	-0.006131	0.884013
	H361	H	-0.126244	-0.013447	0.892654
	H362	H	-0.131719	-0.019585	0.894254
	O363	O	0.472799	1.467200	0.555857
	H364	H	0.462632	1.464075	0.571428
	H365	H	0.474278	1.481321	0.564655
	O366	O	0.605158	0.323807	0.506898
	H367	H	0.615551	0.314677	0.484404
	H368	H	0.618007	0.337271	0.508322
	O369	O	-0.302911	0.669458	0.394070
	H370	H	-0.306957	0.672176	0.399257
	H371	H	-0.325995	0.676058	0.372894
	O372	O	0.330953	-0.306836	0.203133
	H373	H	0.341736	-0.298073	0.204930
	H374	H	0.334113	-0.320498	0.197173
	O375	O	0.345554	0.640546	0.435753
	H376	H	0.335328	0.644398	0.422964
	H377	H	0.344134	0.641467	0.408715
	O378	O	0.828124	0.988629	0.091471
	H379	H	0.815567	0.975829	0.093518
	H380	H	0.832001	0.981096	0.097772
	O381	O	0.891899	-0.068820	-0.154639
	H382	H	0.909585	-0.079713	-0.160170
	H383	H	0.882601	-0.080135	-0.150344
	O384	O	0.958335	0.862005	0.164148
	H385	H	0.970243	0.851528	0.168548
	H386	H	0.968270	0.852534	0.161587
	O387	O	0.025940	-0.139501	0.072858
	H388	H	0.006605	-0.146453	0.071041
	H389	H	0.030237	-0.140958	0.076757
	O390	O	0.030141	1.019804	-0.157597
	H391	H	0.035191	1.018596	-0.151451
	H392	H	0.023939	1.028059	-0.160647
	O393	O	1.059470	0.810799	0.824549
	H394	H	1.069959	0.792960	0.811501
	H395	H	1.088292	0.811086	0.829429
	O396	O	0.492691	0.616167	1.343794
	H397	H	0.506430	0.599779	1.334798
	H398	H	0.496985	0.615304	1.348739
	O399	O	-0.051284	1.143298	0.783014
	H400	H	-0.055692	1.153137	0.763848
	H401	H	-0.069803	1.139088	0.785605
	O402	O	0.599781	0.497593	0.456682
	H403	H	0.614910	0.503086	0.459185
	H404	H	0.598985	0.498669	0.454223
	O405	O	1.056219	0.117057	-0.026651
	H406	H	1.041714	0.118223	-0.030242
	H407	H	1.056187	0.115613	-0.030159
	O408	O	0.678508	0.649903	0.328164
	H409	H	0.681718	0.658877	0.330414
	H410	H	0.663872	0.650422	0.338834
	O411	O	1.116878	0.116487	1.192542
	H412	H	1.108460	0.143093	1.195923
	H413	H	1.129072	0.128611	1.203603
	O414	O	0.562911	0.568441	0.479188
	H415	H	0.568451	0.559264	0.487987
	H416	H	0.554898	0.561597	0.485726
	O417	O	0.985426	0.853307	0.972482
	H418	H	0.982551	0.855627	0.963586
	H419	H	0.978694	0.849286	0.979827
