data_Molecule from HDF5

_cell_length_a		16.300454
_cell_length_b		16.360686
_cell_length_c		16.213398
_cell_angle_alpha	89.942498
_cell_angle_beta	90.135723
_cell_angle_gamma	90.081428
_symmetry_space_group_name_H-M	'P 1'
_symmetry_Int_Tables_number		1

loop_
	_symmetry_equiv_pos_as_xyz
	x,y,z

loop_
	_atom_site_label
	_atom_site_type_symbol
	_atom_site_fract_x
	_atom_site_fract_y
	_atom_site_fract_z
	H0	H	0.407390	0.847731	0.704785
	H1	H	0.603992	0.173518	0.704097
	H2	H	0.602997	0.846568	0.276409
	H3	H	0.407340	0.173088	0.274908
	H4	H	0.719110	0.412837	0.825021
	H5	H	0.720527	0.608226	0.153988
	H6	H	0.291884	0.607511	0.825950
	H7	H	0.292624	0.410295	0.153829
	H8	H	0.842598	0.726480	0.389453
	H9	H	0.168324	0.726580	0.591952
	H10	H	0.842692	0.293510	0.589436
	H11	H	0.168361	0.294138	0.390400
	H12	H	0.841745	0.413103	0.702445
	H13	H	0.169241	0.606938	0.703695
	H14	H	0.840605	0.605795	0.276963
	H15	H	0.169059	0.412622	0.276648
	H16	H	0.406831	0.724073	0.825491
	H17	H	0.604899	0.723592	0.153807
	H18	H	0.602952	0.297014	0.824650
	H19	H	0.406478	0.294103	0.152721
	H20	H	0.720936	0.847436	0.390879
	H21	H	0.721937	0.172605	0.590012
	H22	H	0.288838	0.848566	0.590970
	H23	H	0.290999	0.173223	0.390799
	H24	H	0.908705	0.345808	0.203160
	H25	H	0.103284	0.672547	0.205344
	H26	H	0.102014	0.346074	0.777214
	H27	H	0.907438	0.673110	0.774593
	H28	H	0.218773	0.913352	0.325916
	H29	H	0.220953	0.109603	0.654201
	H30	H	0.791812	0.108466	0.326172
	H31	H	0.792581	0.912281	0.654580
	H32	H	0.343218	0.225753	0.889543
	H33	H	0.668597	0.226905	0.090735
	H34	H	0.343108	0.793320	0.089257
	H35	H	0.669124	0.794232	0.890700
	H36	H	0.340932	0.913067	0.202017
	H37	H	0.669556	0.106250	0.203739
	H38	H	0.342149	0.105956	0.776833
	H39	H	0.669899	0.913762	0.777290
	H40	H	0.906894	0.224115	0.326436
	H41	H	0.104548	0.223932	0.654470
	H42	H	0.103550	0.795580	0.326353
	H43	H	0.906479	0.794973	0.654013
	H44	H	0.220833	0.347377	0.891766
	H45	H	0.220632	0.672748	0.089711
	H46	H	0.790790	0.346603	0.088284
	H47	H	0.791932	0.673464	0.891797
	H48	H	0.420684	0.122882	0.580059
	H49	H	0.605137	0.892974	0.580499
	H50	H	0.587860	0.120559	0.401993
	H51	H	0.413680	0.896631	0.402840
	H52	H	0.597706	0.397344	0.112274
	H53	H	0.606831	0.606555	0.868709
	H54	H	0.414208	0.602889	0.106398
	H55	H	0.408424	0.423994	0.873161
	H56	H	0.123119	0.613883	0.403478
	H57	H	0.891196	0.591953	0.585598
	H58	H	0.124949	0.411085	0.588342
	H59	H	0.888966	0.422521	0.390994
	H60	H	0.120719	0.413425	0.576770
	H61	H	0.884798	0.611044	0.588696
	H62	H	0.117032	0.594604	0.403775
	H63	H	0.885146	0.406407	0.394517
	H64	H	0.412370	0.604042	0.107576
	H65	H	0.597781	0.593483	0.875008
	H66	H	0.617100	0.427736	0.108877
	H67	H	0.420487	0.419063	0.875079
	H68	H	0.609027	0.126975	0.404267
	H69	H	0.596845	0.893312	0.590758
	H70	H	0.405774	0.127070	0.577015
	H71	H	0.404902	0.892424	0.396449
	H72	H	0.903990	0.626614	0.079044
	H73	H	0.100420	0.389276	0.096038
	H74	H	0.095897	0.624928	0.896180
	H75	H	0.908070	0.392199	0.891455
	H76	H	0.101698	0.914059	0.609056
	H77	H	0.099611	0.097900	0.373967
	H78	H	0.911958	0.104213	0.607978
	H79	H	0.909347	0.905482	0.368477
	H80	H	0.625334	0.112149	0.896615
	H81	H	0.390222	0.101559	0.082517
	H82	H	0.627512	0.914289	0.098222
	H83	H	0.392828	0.924877	0.899077
	H84	H	0.622580	0.904145	0.074382
	H85	H	0.389244	0.105416	0.082029
	H86	H	0.620587	0.102728	0.903985
	H87	H	0.385579	0.913689	0.889432
	H88	H	0.912558	0.102543	0.607402
	H89	H	0.092896	0.104403	0.374567
	H90	H	0.100265	0.921402	0.606765
	H91	H	0.904282	0.927431	0.373750
	H92	H	0.100997	0.625020	0.899830
	H93	H	0.089714	0.397962	0.078594
	H94	H	0.913422	0.628025	0.092183
	H95	H	0.917181	0.395429	0.895097
	H96	H	0.411929	0.129478	0.591566
	H97	H	0.592606	0.897766	0.578410
	H98	H	0.599093	0.129706	0.384385
	H99	H	0.415026	0.893669	0.392413
	H100	H	0.581854	0.427798	0.098492
	H101	H	0.590412	0.608848	0.873640
	H102	H	0.412630	0.601553	0.107070
	H103	H	0.410617	0.411169	0.869640
	H104	H	0.124299	0.602817	0.386762
	H105	H	0.891990	0.606078	0.569881
	H106	H	0.120693	0.422602	0.585553
	H107	H	0.891832	0.416241	0.406565
	H108	H	0.919363	0.622153	0.078633
	H109	H	0.110785	0.392737	0.076863
	H110	H	0.101164	0.627220	0.894377
	H111	H	0.908841	0.394501	0.901534
	H112	H	0.094132	0.915588	0.606777
	H113	H	0.101755	0.106935	0.371261
	H114	H	0.914469	0.102957	0.607538
	H115	H	0.925194	0.919213	0.377803
	H116	H	0.623535	0.100122	0.891008
	H117	H	0.389753	0.103236	0.079533
	H118	H	0.616913	0.929024	0.078734
	H119	H	0.390009	0.910146	0.904587
	C120	C	0.383940	0.019054	0.611821
	C121	C	0.627529	1.001951	0.612082
	C122	C	0.627091	0.018276	0.368367
	C123	C	0.383756	1.002207	0.368662
	C124	C	0.626898	0.389209	-0.002111
	C125	C	0.626993	0.631021	0.981499
	C126	C	0.384478	0.631518	-0.001422
	C127	C	0.384698	0.389134	0.981048
	C128	C	0.013458	0.631674	0.368673
	C129	C	0.997040	0.631552	0.611103
	C130	C	0.013949	0.387734	0.611274
	C131	C	0.997024	0.387472	0.368870
	C132	C	0.884295	0.517649	0.111363
	C133	C	0.127816	0.501315	0.112417
	C134	C	0.127748	0.518159	0.868370
	C135	C	0.883413	0.501823	0.867697
	C136	C	0.126986	0.888841	0.498860
	C137	C	0.127108	0.131698	0.481861
	C138	C	0.884521	0.131281	0.498943
	C139	C	0.883929	0.888557	0.481680
	C140	C	0.514987	0.132543	0.868459
	C141	C	0.497573	0.131868	0.111039
	C142	C	0.513927	0.887651	0.111968
	C143	C	0.497600	0.888182	0.868815
	C144	C	0.386426	0.896466	0.667139
	C145	C	0.624968	0.124635	0.667026
	C146	C	0.624312	0.895536	0.313505
	C147	C	0.386566	0.124549	0.312728
	C148	C	0.681386	0.392033	0.873926
	C149	C	0.682417	0.628342	0.105130
	C150	C	0.329219	0.628840	0.875042
	C151	C	0.330176	0.390839	0.104675
	C152	C	0.890833	0.687570	0.369816
	C153	C	0.119943	0.687357	0.610517
	C154	C	0.891236	0.332204	0.609171
	C155	C	0.119827	0.332648	0.370767
	C156	C	0.890636	0.391570	0.665251
	C157	C	0.120222	0.628359	0.666687
	C158	C	0.889886	0.627477	0.314224
	C159	C	0.120178	0.391462	0.314224
	C160	C	0.386011	0.686965	0.875061
	C161	C	0.625229	0.685987	0.104847
	C162	C	0.623902	0.334639	0.873778
	C163	C	0.386815	0.333039	0.104203
	C164	C	0.682689	0.895930	0.370663
	C165	C	0.683283	0.124263	0.609957
	C166	C	0.327723	0.896952	0.610371
	C167	C	0.328687	0.124625	0.370401
	C168	C	0.887621	0.394693	0.165814
	C169	C	0.124012	0.624081	0.167320
	C170	C	0.123574	0.394923	0.814521
	C171	C	0.886746	0.624523	0.812720
	C172	C	0.181456	0.891809	0.375051
	C173	C	0.182591	0.129221	0.605385
	C174	C	0.829443	0.128656	0.375321
	C175	C	0.829904	0.891504	0.605528
	C176	C	0.391548	0.186991	0.870049
	C177	C	0.620140	0.187737	0.110174
	C178	C	0.391606	0.832108	0.109461
	C179	C	0.620592	0.832906	0.870718
	C180	C	0.390455	0.891637	0.165445
	C181	C	0.620675	0.127731	0.165941
	C182	C	0.391185	0.127953	0.813912
	C183	C	0.620918	0.892016	0.814383
	C184	C	0.886766	0.185915	0.375247
	C185	C	0.125296	0.186590	0.605435
	C186	C	0.124074	0.833758	0.375206
	C187	C	0.886417	0.833294	0.605209
	C188	C	0.182665	0.395653	0.871093
	C189	C	0.182266	0.624209	0.109665
	C190	C	0.829262	0.395007	0.108564
	C191	C	0.829026	0.624577	0.870699
	C192	C	0.406073	0.104448	0.589571
	C193	C	0.604915	0.916639	0.589620
	C194	C	0.605173	0.103650	0.390413
	C195	C	0.405087	0.916372	0.390777
	C196	C	0.605172	0.411051	0.084248
	C197	C	0.604835	0.609281	0.894870
	C198	C	0.406719	0.609423	0.084750
	C199	C	0.406514	0.411455	0.894939
	C200	C	0.099352	0.610085	0.391279
	C201	C	0.911503	0.609476	0.588087
	C202	C	0.100034	0.409281	0.589712
	C203	C	0.910817	0.408860	0.390968
	C204	C	0.905816	0.603370	0.089612
	C205	C	0.106617	0.415445	0.090449
	C206	C	0.105735	0.603609	0.890319
	C207	C	0.905078	0.416167	0.889572
	C208	C	0.105230	0.910633	0.585128
	C209	C	0.104585	0.109603	0.395563
	C210	C	0.906466	0.109675	0.585316
	C211	C	0.906317	0.910710	0.395466
	C212	C	0.600783	0.111498	0.890577
	C213	C	0.411891	0.109849	0.088064
	C214	C	0.600103	0.909498	0.090191
	C215	C	0.411716	0.909779	0.891169
	Zn216	Zn	0.505980	0.010256	0.740751
	Zn217	Zn	0.505030	0.009844	0.239880
	Zn218	Zn	0.755134	0.509895	-0.010450
	Zn219	Zn	0.256579	0.510140	-0.009594
	Zn220	Zn	0.005529	0.760305	0.490641
	Zn221	Zn	0.005693	0.258961	0.490192
	Zn222	Zn	0.005893	0.509679	0.739554
	Zn223	Zn	0.005102	0.509451	0.240773
	Zn224	Zn	0.506171	0.759205	-0.010334
	Zn225	Zn	0.506225	0.261462	-0.010555
	Zn226	Zn	0.756374	0.010197	0.490255
	Zn227	Zn	0.254972	0.011110	0.490073
	N228	N	0.420835	0.973218	0.668166
	N229	N	0.591104	0.047468	0.668473
	N230	N	0.590418	0.972457	0.311891
	N231	N	0.420038	0.047307	0.311717
	N232	N	0.683084	0.425531	0.951826
	N233	N	0.683645	0.594825	0.027297
	N234	N	0.328074	0.595032	0.952773
	N235	N	0.328771	0.425193	0.027046
	N236	N	0.968673	0.690287	0.402931
	N237	N	0.042421	0.689517	0.576699
	N238	N	0.968958	0.329981	0.576243
	N239	N	0.042292	0.330255	0.404028
	N240	N	0.967989	0.425176	0.666884
	N241	N	0.042901	0.594477	0.667201
	N242	N	0.967123	0.593482	0.313518
	N243	N	0.042815	0.424927	0.313115
	N244	N	0.420012	0.688309	0.952785
	N245	N	0.591613	0.687541	0.027035
	N246	N	0.590943	0.332829	0.951842
	N247	N	0.419978	0.331765	0.026466
	N248	N	0.684627	0.973265	0.404035
	N249	N	0.684971	0.047049	0.576475
	N250	N	0.326014	0.974141	0.576649
	N251	N	0.326864	0.047573	0.404472
	N252	N	0.921053	0.471946	0.167534
	N253	N	0.091136	0.546613	0.169147
	N254	N	0.090181	0.472171	0.812594
	N255	N	0.919870	0.547220	0.810815
	N256	N	0.183311	0.925464	0.452786
	N257	N	0.183948	0.096063	0.527499
	N258	N	0.827830	0.095363	0.453231
	N259	N	0.828239	0.925166	0.527728
	N260	N	0.469330	0.190057	0.903045
	N261	N	0.542633	0.190129	0.076266
	N262	N	0.469437	0.829585	0.077281
	N263	N	0.542916	0.830547	0.903726
	N264	N	0.467870	0.925692	0.166919
	N265	N	0.543373	0.093959	0.166712
	N266	N	0.468666	0.094686	0.812864
	N267	N	0.543560	0.925647	0.813023
	N268	N	0.920379	0.187519	0.453122
	N269	N	0.091273	0.187985	0.527601
	N270	N	0.091094	0.831800	0.453183
	N271	N	0.919365	0.831383	0.527147
	N272	N	0.185123	0.473097	0.903983
	N273	N	0.184789	0.546867	0.076392
	N274	N	0.826726	0.472484	0.075601
	N275	N	0.826921	0.547392	0.904200
	O276	O	0.488568	-0.391272	1.439865
	H277	H	0.491281	-0.378680	1.433859
	H278	H	0.492058	-0.393401	1.450033
	O279	O	0.464500	0.522250	0.481339
	H280	H	0.459125	0.511982	0.481532
	H281	H	0.461252	0.519874	0.477454
	O282	O	-0.500375	0.481181	1.475806
	H283	H	-0.505084	0.477843	1.484152
	H284	H	-0.496264	0.483186	1.476105
	O285	O	0.479704	0.589789	0.500760
	H286	H	0.471166	0.587941	0.506837
	H287	H	0.484322	0.591459	0.512898
	O288	O	0.449790	0.528891	0.423431
	H289	H	0.453536	0.540374	0.420439
	H290	H	0.452446	0.537439	0.416572
	O291	O	0.505418	0.497978	0.476553
	H292	H	0.506114	0.502967	0.476707
	H293	H	0.507423	0.489436	0.478806
	O294	O	0.451738	0.532713	0.509770
	H295	H	0.445767	0.527826	0.499687
	H296	H	0.453383	0.532040	0.507358
	O297	O	0.462652	-0.468361	0.495964
	H298	H	0.462012	-0.464024	0.492465
	H299	H	0.457652	-0.473359	0.487485
