data_Molecule from HDF5

_cell_length_a		16.217939
_cell_length_b		16.252967
_cell_length_c		16.303090
_cell_angle_alpha	90.155751
_cell_angle_beta	90.252568
_cell_angle_gamma	90.506579
_symmetry_space_group_name_H-M	'P 1'
_symmetry_Int_Tables_number		1

loop_
	_symmetry_equiv_pos_as_xyz
	x,y,z

loop_
	_atom_site_label
	_atom_site_type_symbol
	_atom_site_fract_x
	_atom_site_fract_y
	_atom_site_fract_z
	H0	H	0.398680	0.837591	0.716121
	H1	H	0.604032	0.163055	0.716815
	H2	H	0.599408	0.837316	0.283281
	H3	H	0.403194	0.163650	0.285690
	H4	H	0.711685	0.401827	0.834915
	H5	H	0.717125	0.600722	0.161999
	H6	H	0.284464	0.598702	0.836341
	H7	H	0.286218	0.403486	0.163982
	H8	H	0.836606	0.713668	0.396575
	H9	H	0.162841	0.716384	0.599263
	H10	H	0.836190	0.283348	0.594004
	H11	H	0.164867	0.287506	0.399526
	H12	H	0.836692	0.397091	0.712628
	H13	H	0.163219	0.601112	0.713799
	H14	H	0.835437	0.596007	0.282180
	H15	H	0.162871	0.400147	0.282486
	H16	H	0.399549	0.716149	0.836691
	H17	H	0.601776	0.717408	0.162955
	H18	H	0.596011	0.285074	0.835686
	H19	H	0.398224	0.284086	0.162483
	H20	H	0.712794	0.835203	0.400224
	H21	H	0.718123	0.163209	0.598804
	H22	H	0.284431	0.836752	0.599025
	H23	H	0.289132	0.163717	0.401409
	H24	H	0.898250	0.334821	0.211323
	H25	H	0.099965	0.662016	0.214858
	H26	H	0.098327	0.336524	0.783517
	H27	H	0.900050	0.662966	0.781281
	H28	H	0.213996	0.901966	0.335489
	H29	H	0.217696	0.100016	0.661977
	H30	H	0.786366	0.095753	0.335273
	H31	H	0.784765	0.899093	0.661593
	H32	H	0.334773	0.212794	0.899182
	H33	H	0.662769	0.218136	0.099305
	H34	H	0.336705	0.785368	0.099344
	H35	H	0.663806	0.787890	0.901224
	H36	H	0.336869	0.900124	0.214078
	H37	H	0.664736	0.101272	0.214386
	H38	H	0.337136	0.099075	0.781997
	H39	H	0.663404	0.899709	0.784110
	H40	H	0.903521	0.210726	0.333822
	H41	H	0.103002	0.217307	0.661302
	H42	H	0.098049	0.784826	0.334876
	H43	H	0.899664	0.782143	0.661367
	H44	H	0.213695	0.336860	0.899156
	H45	H	0.214109	0.663203	0.098223
	H46	H	0.781952	0.336316	0.095735
	H47	H	0.787690	0.665572	0.900791
	H48	H	0.421152	0.113297	0.591846
	H49	H	0.586972	0.881757	0.601509
	H50	H	0.589326	0.114798	0.408666
	H51	H	0.410472	0.884778	0.409456
	H52	H	0.582861	0.412499	0.111104
	H53	H	0.584660	0.598952	0.883606
	H54	H	0.410480	0.587960	0.113317
	H55	H	0.402722	0.400558	0.880555
	H56	H	0.116269	0.593805	0.409702
	H57	H	0.882378	0.594563	0.585603
	H58	H	0.118642	0.408398	0.596480
	H59	H	0.882582	0.402612	0.403802
	H60	H	0.117830	0.403985	0.589376
	H61	H	0.885285	0.584611	0.586365
	H62	H	0.115079	0.588561	0.406732
	H63	H	0.882958	0.404947	0.405367
	H64	H	0.411836	0.600957	0.116748
	H65	H	0.598470	0.599624	0.880085
	H66	H	0.591577	0.402069	0.117669
	H67	H	0.400589	0.412058	0.884592
	H68	H	0.599802	0.116687	0.411757
	H69	H	0.585846	0.888524	0.583442
	H70	H	0.405886	0.115328	0.583116
	H71	H	0.401210	0.881189	0.406448
	H72	H	0.912770	0.614704	0.091487
	H73	H	0.086062	0.380547	0.100830
	H74	H	0.095823	0.616042	0.912822
	H75	H	0.913875	0.388509	0.912090
	H76	H	0.091540	0.905846	0.614233
	H77	H	0.104250	0.097269	0.378829
	H78	H	0.920648	0.097179	0.613467
	H79	H	0.904030	0.911829	0.383634
	H80	H	0.617635	0.090588	0.899794
	H81	H	0.379575	0.102786	0.089027
	H82	H	0.619821	0.906949	0.099053
	H83	H	0.380126	0.903812	0.900830
	H84	H	0.617945	0.905691	0.086910
	H85	H	0.387043	0.082958	0.087947
	H86	H	0.618247	0.102892	0.911316
	H87	H	0.385029	0.904337	0.915069
	H88	H	0.902231	0.097646	0.619239
	H89	H	0.095775	0.083858	0.384716
	H90	H	0.095075	0.906849	0.615618
	H91	H	0.914396	0.905296	0.384541
	H92	H	0.098211	0.620525	0.899397
	H93	H	0.084981	0.387078	0.082084
	H94	H	0.906782	0.616160	0.088673
	H95	H	0.892400	0.381975	0.909875
	H96	H	0.406823	0.119919	0.599350
	H97	H	0.602347	0.881364	0.589755
	H98	H	0.595925	0.119059	0.401092
	H99	H	0.408854	0.881368	0.399912
	H100	H	0.597382	0.415809	0.114644
	H101	H	0.593387	0.587104	0.884922
	H102	H	0.399223	0.594702	0.118476
	H103	H	0.411809	0.406840	0.885081
	H104	H	0.117240	0.593572	0.403154
	H105	H	0.880905	0.590159	0.594309
	H106	H	0.115371	0.412394	0.590138
	H107	H	0.882645	0.404622	0.403065
	H108	H	0.907806	0.617157	0.095365
	H109	H	0.101652	0.379665	0.088544
	H110	H	0.084842	0.614552	0.903511
	H111	H	0.906448	0.381145	0.891492
	H112	H	0.092771	0.909275	0.613886
	H113	H	0.088057	0.098530	0.381883
	H114	H	0.909728	0.081447	0.611576
	H115	H	0.904090	0.899847	0.379461
	H116	H	0.612540	0.088007	0.915849
	H117	H	0.379673	0.090683	0.105766
	H118	H	0.615510	0.916796	0.093025
	H119	H	0.385173	0.916485	0.906193
	C120	C	0.380202	0.008796	0.620980
	C121	C	0.622810	0.991530	0.621752
	C122	C	0.622789	0.008587	0.377780
	C123	C	0.379316	0.990893	0.377557
	C124	C	0.619452	0.379997	0.007017
	C125	C	0.622325	0.624252	0.990840
	C126	C	0.378202	0.622993	0.008151
	C127	C	0.376224	0.377776	0.991170
	C128	C	0.008070	0.620269	0.376266
	C129	C	0.990899	0.620488	0.618938
	C130	C	0.008966	0.377664	0.619746
	C131	C	0.991477	0.376849	0.375903
	C132	C	0.878502	0.507667	0.119599
	C133	C	0.120722	0.490277	0.120065
	C134	C	0.121162	0.508780	0.876917
	C135	C	0.876897	0.492049	0.875601
	C136	C	0.121966	0.877993	0.506919
	C137	C	0.124955	0.122915	0.489861
	C138	C	0.881118	0.119869	0.506629
	C139	C	0.878038	0.876449	0.490209
	C140	C	0.507966	0.121877	0.878655
	C141	C	0.490850	0.122569	0.122682
	C142	C	0.509430	0.879907	0.121281
	C143	C	0.491657	0.879451	0.878282
	C144	C	0.379696	0.886063	0.677233
	C145	C	0.623381	0.114260	0.678344
	C146	C	0.619778	0.885535	0.321848
	C147	C	0.382917	0.114509	0.323301
	C148	C	0.673720	0.381893	0.883878
	C149	C	0.678935	0.621658	0.113384
	C150	C	0.322347	0.619849	0.885236
	C151	C	0.322354	0.381600	0.114355
	C152	C	0.885305	0.675322	0.376869
	C153	C	0.114254	0.677532	0.618405
	C154	C	0.885262	0.321116	0.615833
	C155	C	0.115401	0.323936	0.378695
	C156	C	0.885349	0.377801	0.674449
	C157	C	0.114155	0.620603	0.675599
	C158	C	0.884886	0.617039	0.319723
	C159	C	0.114455	0.379988	0.320551
	C160	C	0.379840	0.678289	0.885538
	C161	C	0.621602	0.679802	0.113733
	C162	C	0.616492	0.323437	0.884412
	C163	C	0.378416	0.322387	0.113804
	C164	C	0.676053	0.884597	0.380272
	C165	C	0.680307	0.114289	0.619786
	C166	C	0.322927	0.885639	0.619056
	C167	C	0.325958	0.114584	0.380624
	C168	C	0.878649	0.384162	0.173796
	C169	C	0.120080	0.613245	0.176702
	C170	C	0.118444	0.385580	0.821437
	C171	C	0.879886	0.614652	0.819943
	C172	C	0.176629	0.880773	0.384200
	C173	C	0.179941	0.120460	0.613156
	C174	C	0.824465	0.116811	0.383906
	C175	C	0.822936	0.878821	0.612842
	C176	C	0.384236	0.175673	0.879437
	C177	C	0.614084	0.179637	0.120160
	C178	C	0.385697	0.823640	0.118909
	C179	C	0.614648	0.824688	0.880419
	C180	C	0.386026	0.880434	0.176230
	C181	C	0.614859	0.121699	0.177452
	C182	C	0.385399	0.119167	0.821128
	C183	C	0.614323	0.880409	0.822214
	C184	C	0.882772	0.173824	0.383131
	C185	C	0.123194	0.179099	0.612492
	C186	C	0.118940	0.822424	0.384109
	C187	C	0.879640	0.820280	0.612655
	C188	C	0.175773	0.385626	0.879253
	C189	C	0.176174	0.614242	0.118299
	C190	C	0.820547	0.384928	0.116469
	C191	C	0.823890	0.615859	0.879127
	C192	C	0.404149	0.093803	0.598207
	C193	C	0.598717	0.906103	0.598554
	C194	C	0.601460	0.094555	0.400449
	C195	C	0.400534	0.904893	0.398978
	C196	C	0.597203	0.403218	0.092439
	C197	C	0.599137	0.601755	0.905340
	C198	C	0.400648	0.600963	0.094014
	C199	C	0.398542	0.399964	0.905544
	C200	C	0.094006	0.598335	0.399704
	C201	C	0.905277	0.596707	0.595630
	C202	C	0.094941	0.401201	0.598421
	C203	C	0.905078	0.397865	0.397702
	C204	C	0.902138	0.593558	0.098041
	C205	C	0.097681	0.404573	0.096991
	C206	C	0.099376	0.594735	0.898899
	C207	C	0.898016	0.406103	0.897864
	C208	C	0.099622	0.900677	0.592450
	C209	C	0.102542	0.100184	0.404161
	C210	C	0.904075	0.098375	0.592455
	C211	C	0.900807	0.898878	0.404714
	C212	C	0.593964	0.100091	0.902066
	C213	C	0.404574	0.098990	0.100623
	C214	C	0.595616	0.902961	0.099398
	C215	C	0.405593	0.901663	0.900623
	Zn216	Zn	0.500946	0.000421	0.750207
	Zn217	Zn	0.500920	-0.000449	0.250027
	Zn218	Zn	0.749640	0.500842	-0.002237
	Zn219	Zn	0.249013	0.500730	-0.000662
	Zn220	Zn	-0.000435	0.748345	0.498573
	Zn221	Zn	0.001486	0.249729	0.497513
	Zn222	Zn	-0.000460	0.500031	0.747407
	Zn223	Zn	-0.000102	0.498023	0.248295
	Zn224	Zn	0.500067	0.752469	-0.000170
	Zn225	Zn	0.498331	0.249781	-0.000331
	Zn226	Zn	0.750742	-0.001005	0.499311
	Zn227	Zn	0.251958	-0.000058	0.499107
	N228	N	0.414544	0.963412	0.678672
	N229	N	0.588356	0.036909	0.679662
	N230	N	0.587652	0.963563	0.319902
	N231	N	0.415481	0.036660	0.321027
	N232	N	0.675643	0.416434	0.960995
	N233	N	0.679681	0.587934	0.036002
	N234	N	0.321111	0.586359	0.962533
	N235	N	0.320732	0.415314	0.037002
	N236	N	0.962708	0.677400	0.411392
	N237	N	0.036653	0.677674	0.583827
	N238	N	0.963177	0.320716	0.582689
	N239	N	0.037878	0.321843	0.412332
	N240	N	0.963193	0.412230	0.677009
	N241	N	0.036733	0.585529	0.675905
	N242	N	0.962574	0.583535	0.319250
	N243	N	0.036220	0.411972	0.318599
	N244	N	0.413964	0.680111	0.963027
	N245	N	0.587178	0.681536	0.036390
	N246	N	0.583456	0.322125	0.962055
	N247	N	0.410948	0.319669	0.035999
	N248	N	0.677785	0.962090	0.414533
	N249	N	0.680042	0.037001	0.585318
	N250	N	0.322938	0.962967	0.584806
	N251	N	0.323525	0.036815	0.413539
	N252	N	0.913615	0.461533	0.176093
	N253	N	0.086169	0.535357	0.177807
	N254	N	0.085081	0.463237	0.819783
	N255	N	0.911919	0.536760	0.817625
	N256	N	0.178590	0.914588	0.461616
	N257	N	0.181351	0.086317	0.535868
	N258	N	0.823293	0.084060	0.461629
	N259	N	0.821626	0.912660	0.535713
	N260	N	0.461598	0.177419	0.914424
	N261	N	0.536023	0.180198	0.086806
	N262	N	0.463463	0.822981	0.085450
	N263	N	0.537383	0.823944	0.914640
	N264	N	0.463793	0.914786	0.177738
	N265	N	0.537163	0.086982	0.179340
	N266	N	0.463302	0.086420	0.820664
	N267	N	0.536646	0.914076	0.821011
	N268	N	0.917242	0.175802	0.460500
	N269	N	0.089814	0.180721	0.534910
	N270	N	0.085734	0.820523	0.461492
	N271	N	0.913238	0.818747	0.535202
	N272	N	0.177794	0.463207	0.912862
	N273	N	0.176999	0.536755	0.084043
	N274	N	0.820428	0.462759	0.083348
	N275	N	0.821808	0.538391	0.913014
	O276	O	0.614510	0.565026	0.646309
	H277	H	0.615978	0.576467	0.654103
	H278	H	0.620794	0.581090	0.650562
	O279	O	0.524394	0.474349	0.604041
	H280	H	0.519745	0.474465	0.607086
	H281	H	0.527886	0.466163	0.616582
	O282	O	0.926736	0.986599	-0.074065
	H283	H	0.917763	0.984368	-0.085806
	H284	H	0.925111	0.991171	-0.071695
	O285	O	1.029678	-0.059768	1.031753
	H286	H	1.031925	-0.060958	1.027423
	H287	H	1.030398	-0.062543	1.033754
	O288	O	0.457935	0.535685	0.364911
	H289	H	0.447918	0.525984	0.361770
	H290	H	0.464304	0.527535	0.352528
	O291	O	0.484144	0.522971	0.522373
	H292	H	0.471943	0.515798	0.509639
	H293	H	0.492554	0.505603	0.521655
	O294	O	0.571100	0.366308	0.382551
	H295	H	0.572799	0.364813	0.384023
	H296	H	0.559916	0.350571	0.381257
	O297	O	0.018443	0.026806	0.906814
	H298	H	0.019322	0.032315	0.901126
	H299	H	0.020805	0.032402	0.910852
	O300	O	0.580479	0.621558	0.512846
	H301	H	0.589371	0.619409	0.498957
	H302	H	0.591219	0.632088	0.523553
	O303	O	1.029116	1.037188	-0.041585
	H304	H	1.034915	1.041719	-0.043388
	H305	H	1.031624	1.030735	-0.038356
	O306	O	0.015188	0.979622	0.994279
	H307	H	0.002374	0.980264	0.991413
	H308	H	0.012933	0.980220	0.993123
	O309	O	0.531197	0.500009	0.432667
	H310	H	0.538413	0.488792	0.420562
	H311	H	0.539404	0.495262	0.432345
	O312	O	-0.056087	0.050954	-0.018987
	H313	H	-0.051735	0.062598	-0.021343
	H314	H	-0.052267	0.059918	-0.026425
	O315	O	1.036403	-0.046743	0.052275
	H316	H	1.034914	-0.040970	0.042430
	H317	H	1.050411	-0.048045	0.053409
	O318	O	0.876072	0.895452	1.038539
	H319	H	0.859000	0.884847	1.033863
	H320	H	0.880080	0.894362	1.031146
	O321	O	-0.046966	-0.019265	1.060163
	H322	H	-0.051104	-0.026196	1.065456
	H323	H	-0.051120	-0.037529	1.047859
	O324	O	0.416973	0.451442	0.515487
	H325	H	0.413137	0.458601	0.508753
	H326	H	0.405952	0.442461	0.519545
	O327	O	-0.032126	0.007938	-0.011029
	H328	H	-0.041128	0.004002	-0.011726
	H329	H	-0.031744	0.000627	-0.007185
	O330	O	0.570108	0.542432	0.475909
	H331	H	0.576699	0.543926	0.479621
	H332	H	0.570249	0.532144	0.473271
	O333	O	-0.046499	1.052156	1.027227
	H334	H	-0.031854	1.051547	1.029653
	H335	H	-0.046007	1.054235	1.029459
	O336	O	0.036969	-0.017254	0.029038
	H337	H	0.031885	-0.014449	0.038343
	H338	H	0.035140	-0.010177	0.028581
	O339	O	0.398506	0.520656	0.519707
	H340	H	0.390112	0.513953	0.514492
	H341	H	0.404370	0.518679	0.512135
	O342	O	1.497272	1.448828	1.373149
	H343	H	1.487169	1.449775	1.372731
	H344	H	1.485210	1.449392	1.379156
	O345	O	1.088448	0.933914	-0.010428
	H346	H	1.087288	0.934405	-0.001134
	H347	H	1.086907	0.926548	-0.008187
	O348	O	0.462233	0.399685	0.528218
	H349	H	0.477676	0.392818	0.541032
	H350	H	0.473822	0.389221	0.521692
	O351	O	0.601496	0.563211	0.603964
	H352	H	0.606373	0.577534	0.593415
	H353	H	0.585801	0.566649	0.607073
	O354	O	0.410085	0.521340	0.479200
	H355	H	0.416117	0.519275	0.489058
	H356	H	0.410681	0.529609	0.488332
	O357	O	0.422008	-0.429046	0.523997
	H358	H	0.419631	-0.422530	0.521392
	H359	H	0.432977	-0.431661	0.526975
	O360	O	0.449723	0.433145	0.523823
	H361	H	0.453640	0.440933	0.513672
	H362	H	0.457416	0.435289	0.529436
	O363	O	0.550703	0.560079	0.491837
	H364	H	0.547019	0.566091	0.494862
	H365	H	0.542454	0.563074	0.490812
	O366	O	1.121405	1.039153	0.911159
	H367	H	1.121866	1.043746	0.896137
	H368	H	1.138623	1.038726	0.918363
	O369	O	1.085249	0.106191	1.083355
	H370	H	1.085281	0.104599	1.090339
	H371	H	1.072758	0.110206	1.080771
	O372	O	-0.007072	0.034842	-0.079643
	H373	H	0.007943	0.033967	-0.080145
	H374	H	-0.007264	0.040893	-0.076801
	O375	O	1.003918	0.055643	0.085246
	H376	H	0.992033	0.053145	0.081426
	H377	H	1.005997	0.060488	0.089085
	O378	O	0.390756	0.418079	0.531811
	H379	H	0.392795	0.423864	0.538259
	H380	H	0.396351	0.414218	0.535813
	O381	O	0.567848	0.552596	0.574165
	H382	H	0.567159	0.556980	0.577213
	H383	H	0.561250	0.559696	0.565728
