data_Molecule from HDF5

_cell_length_a		16.460335
_cell_length_b		16.521079
_cell_length_c		16.514076
_cell_angle_alpha	89.935519
_cell_angle_beta	90.071809
_cell_angle_gamma	89.984648
_symmetry_space_group_name_H-M	'P 1'
_symmetry_Int_Tables_number		1

loop_
	_symmetry_equiv_pos_as_xyz
	x,y,z

loop_
	_atom_site_label
	_atom_site_type_symbol
	_atom_site_fract_x
	_atom_site_fract_y
	_atom_site_fract_z
	H0	H	0.386767	0.858051	0.722837
	H1	H	0.605055	0.170110	0.722105
	H2	H	0.603546	0.857064	0.274299
	H3	H	0.390224	0.170097	0.274694
	H4	H	0.723337	0.406469	0.842251
	H5	H	0.719439	0.622713	0.153812
	H6	H	0.274384	0.622102	0.838764
	H7	H	0.277363	0.411894	0.152201
	H8	H	0.838966	0.739945	0.386560
	H9	H	0.151683	0.738571	0.604224
	H10	H	0.839283	0.289606	0.606166
	H11	H	0.151850	0.293100	0.391877
	H12	H	0.839607	0.404443	0.723027
	H13	H	0.151830	0.623309	0.720553
	H14	H	0.839340	0.623910	0.271234
	H15	H	0.154211	0.411551	0.278051
	H16	H	0.390446	0.737167	0.838979
	H17	H	0.604643	0.738254	0.152988
	H18	H	0.609800	0.287912	0.842599
	H19	H	0.391987	0.293651	0.152387
	H20	H	0.718713	0.857224	0.391575
	H21	H	0.719955	0.170874	0.605272
	H22	H	0.272562	0.857230	0.604874
	H23	H	0.275230	0.170543	0.392921
	H24	H	0.892377	0.357539	0.217536
	H25	H	0.102784	0.672274	0.218392
	H26	H	0.101241	0.358072	0.774319
	H27	H	0.885695	0.671113	0.771245
	H28	H	0.216129	0.909767	0.339968
	H29	H	0.219220	0.121514	0.654520
	H30	H	0.771746	0.121884	0.340747
	H31	H	0.771798	0.906960	0.653741
	H32	H	0.340887	0.238386	0.889083
	H33	H	0.653547	0.237100	0.104854
	H34	H	0.338022	0.793610	0.101219
	H35	H	0.653785	0.790537	0.889635
	H36	H	0.337961	0.908300	0.217852
	H37	H	0.652315	0.120770	0.221436
	H38	H	0.339373	0.121353	0.774831
	H39	H	0.653006	0.905516	0.772389
	H40	H	0.888689	0.237561	0.340368
	H41	H	0.102518	0.238303	0.654103
	H42	H	0.102151	0.791640	0.341594
	H43	H	0.884027	0.787885	0.651805
	H44	H	0.216868	0.357457	0.891399
	H45	H	0.217190	0.673154	0.099580
	H46	H	0.773860	0.358884	0.104044
	H47	H	0.773015	0.672985	0.890816
	H48	H	0.409014	0.125078	0.586028
	H49	H	0.572306	0.907077	0.584627
	H50	H	0.580668	0.127481	0.400576
	H51	H	0.399919	0.898130	0.406779
	H52	H	0.581173	0.430065	0.106231
	H53	H	0.575557	0.600814	0.888530
	H54	H	0.408856	0.601296	0.107312
	H55	H	0.408307	0.424878	0.882208
	H56	H	0.108954	0.603384	0.402889
	H57	H	0.884982	0.604285	0.577441
	H58	H	0.106554	0.422353	0.578641
	H59	H	0.881655	0.425240	0.408276
	H60	H	0.103043	0.435247	0.583744
	H61	H	0.885887	0.595102	0.583769
	H62	H	0.108414	0.608719	0.411730
	H63	H	0.883073	0.428702	0.407471
	H64	H	0.408672	0.607325	0.108962
	H65	H	0.586351	0.610343	0.882181
	H66	H	0.583824	0.422414	0.109594
	H67	H	0.408131	0.425991	0.882478
	H68	H	0.577424	0.122044	0.413861
	H69	H	0.587619	0.905015	0.574572
	H70	H	0.407944	0.125444	0.584685
	H71	H	0.409801	0.899885	0.402751
	H72	H	0.906085	0.628062	0.083305
	H73	H	0.091711	0.400588	0.086510
	H74	H	0.084177	0.628119	0.905657
	H75	H	0.912836	0.405486	0.909315
	H76	H	0.086329	0.923287	0.611691
	H77	H	0.085993	0.104278	0.384923
	H78	H	0.904006	0.101165	0.609617
	H79	H	0.905348	0.926681	0.383955
	H80	H	0.612228	0.105081	0.906909
	H81	H	0.383720	0.104834	0.084382
	H82	H	0.609462	0.921514	0.083081
	H83	H	0.383177	0.925785	0.903587
	H84	H	0.606665	0.929795	0.085181
	H85	H	0.384059	0.101939	0.083728
	H86	H	0.606911	0.101958	0.915310
	H87	H	0.384691	0.921811	0.914546
	H88	H	0.911682	0.100432	0.606184
	H89	H	0.084346	0.103219	0.386516
	H90	H	0.084171	0.932203	0.608248
	H91	H	0.909117	0.931015	0.387342
	H92	H	0.083378	0.626770	0.908804
	H93	H	0.084984	0.401300	0.092413
	H94	H	0.909942	0.628525	0.087293
	H95	H	0.909194	0.405953	0.913338
	H96	H	0.407530	0.125565	0.586411
	H97	H	0.587465	0.899340	0.592177
	H98	H	0.590786	0.126824	0.411334
	H99	H	0.408038	0.903153	0.412798
	H100	H	0.589495	0.428584	0.109280
	H101	H	0.589814	0.595341	0.885732
	H102	H	0.403813	0.603380	0.109720
	H103	H	0.409744	0.425292	0.882462
	H104	H	0.104604	0.598658	0.411498
	H105	H	0.880896	0.603613	0.587897
	H106	H	0.110326	0.425970	0.591797
	H107	H	0.881578	0.426888	0.404935
	H108	H	0.911028	0.625959	0.083551
	H109	H	0.084327	0.404380	0.084160
	H110	H	0.086432	0.627400	0.908543
	H111	H	0.908262	0.403465	0.909044
	H112	H	0.077415	0.925110	0.607856
	H113	H	0.084094	0.105310	0.385346
	H114	H	0.909707	0.107198	0.610215
	H115	H	0.911526	0.924489	0.386630
	H116	H	0.607396	0.095675	0.907826
	H117	H	0.384315	0.102482	0.086904
	H118	H	0.610577	0.924879	0.091290
	H119	H	0.387647	0.932724	0.911652
	C120	C	0.374368	0.022076	0.619431
	C121	C	0.616833	1.006516	0.618265
	C122	C	0.617187	0.022262	0.375545
	C123	C	0.374039	1.004609	0.375466
	C124	C	0.619417	0.392993	0.005797
	C125	C	0.617053	0.635679	0.988886
	C126	C	0.375137	0.636338	0.004475
	C127	C	0.376430	0.393685	0.986483
	C128	C	0.003802	0.637234	0.374758
	C129	C	0.986858	0.635649	0.617322
	C130	C	0.003587	0.393581	0.618691
	C131	C	0.986818	0.394809	0.375980
	C132	C	0.876139	0.523671	0.117938
	C133	C	0.118606	0.506465	0.118639
	C134	C	0.117086	0.523618	0.875019
	C135	C	0.874873	0.507690	0.875839
	C136	C	0.116027	0.893877	0.505883
	C137	C	0.117674	0.136911	0.489288
	C138	C	0.874254	0.136499	0.505473
	C139	C	0.874210	0.893402	0.488929
	C140	C	0.505520	0.135326	0.876006
	C141	C	0.488009	0.135769	0.118340
	C142	C	0.504600	0.892544	0.118905
	C143	C	0.488572	0.892902	0.876070
	C144	C	0.369931	0.904799	0.681603
	C145	C	0.621718	0.123575	0.680701
	C146	C	0.620848	0.904295	0.314788
	C147	C	0.372074	0.123078	0.315543
	C148	C	0.682341	0.388629	0.888877
	C149	C	0.678991	0.639851	0.106647
	C150	C	0.315001	0.639410	0.885829
	C151	C	0.316619	0.392597	0.104976
	C152	C	0.886050	0.698915	0.369920
	C153	C	0.104628	0.697901	0.621764
	C154	C	0.886300	0.330675	0.623331
	C155	C	0.105263	0.334039	0.374058
	C156	C	0.886362	0.388285	0.681419
	C157	C	0.104602	0.640485	0.679689
	C158	C	0.886422	0.641137	0.312217
	C159	C	0.106267	0.392584	0.317172
	C160	C	0.373191	0.696559	0.886060
	C161	C	0.621517	0.697282	0.106308
	C162	C	0.625619	0.329685	0.889167
	C163	C	0.373864	0.333998	0.104991
	C164	C	0.678756	0.904611	0.372879
	C165	C	0.679354	0.123797	0.622728
	C166	C	0.312835	0.904402	0.622831
	C167	C	0.314665	0.123348	0.373983
	C168	C	0.873434	0.405201	0.178306
	C169	C	0.121031	0.624988	0.178212
	C170	C	0.119094	0.405086	0.814815
	C171	C	0.869092	0.624537	0.812687
	C172	C	0.176475	0.891248	0.387631
	C173	C	0.178981	0.139921	0.607314
	C174	C	0.812342	0.140032	0.387807
	C175	C	0.812174	0.889204	0.606406
	C176	C	0.387897	0.197696	0.871569
	C177	C	0.606168	0.196609	0.122391
	C178	C	0.385734	0.833187	0.120015
	C179	C	0.606580	0.830884	0.872095
	C180	C	0.385703	0.889984	0.178422
	C181	C	0.605602	0.138759	0.180357
	C182	C	0.387171	0.139210	0.814766
	C183	C	0.606231	0.888234	0.813712
	C184	C	0.870493	0.197624	0.387436
	C185	C	0.120883	0.197928	0.607096
	C186	C	0.119360	0.832908	0.388077
	C187	C	0.868019	0.829876	0.605501
	C188	C	0.176758	0.404682	0.872851
	C189	C	0.177930	0.625469	0.118991
	C190	C	0.814694	0.405798	0.121567
	C191	C	0.812735	0.625331	0.871895
	C192	C	0.400621	0.104093	0.593146
	C193	C	0.590053	0.925182	0.591528
	C194	C	0.590558	0.104019	0.401239
	C195	C	0.398741	0.921877	0.400233
	C196	C	0.592528	0.419321	0.087156
	C197	C	0.591311	0.609706	0.906898
	C198	C	0.400047	0.611075	0.087059
	C199	C	0.401568	0.418222	0.903880
	C200	C	0.085872	0.611175	0.401412
	C201	C	0.905211	0.608754	0.590751
	C202	C	0.085387	0.420171	0.592250
	C203	C	0.903895	0.419753	0.400208
	C204	C	0.901776	0.605926	0.092128
	C205	C	0.094036	0.423587	0.094565
	C206	C	0.091706	0.605764	0.900267
	C207	C	0.902242	0.426259	0.902832
	C208	C	0.090025	0.919545	0.587842
	C209	C	0.092139	0.111493	0.407119
	C210	C	0.900816	0.110547	0.587312
	C211	C	0.900906	0.919852	0.407295
	C212	C	0.587418	0.108581	0.902506
	C213	C	0.405505	0.110371	0.092219
	C214	C	0.587468	0.918145	0.093752
	C215	C	0.406627	0.919187	0.902530
	Zn216	Zn	0.496436	0.014187	0.747550
	Zn217	Zn	0.495583	0.013748	0.246691
	Zn218	Zn	0.746655	0.516038	-0.002526
	Zn219	Zn	0.246591	0.515327	-0.004784
	Zn220	Zn	-0.005164	0.764943	0.496827
	Zn221	Zn	-0.004569	0.265445	0.497045
	Zn222	Zn	-0.004675	0.515530	0.746789
	Zn223	Zn	-0.003569	0.515452	0.246791
	Zn224	Zn	0.496595	0.764450	-0.002571
	Zn225	Zn	0.497850	0.264185	-0.003686
	Zn226	Zn	0.745980	0.014477	0.497257
	Zn227	Zn	0.245657	0.013858	0.498114
	N228	N	0.407502	0.979044	0.679373
	N229	N	0.583589	0.049637	0.677995
	N230	N	0.583194	0.978666	0.316222
	N231	N	0.407904	0.048063	0.316133
	N232	N	0.678783	0.427258	0.962375
	N233	N	0.676147	0.601772	0.032664
	N234	N	0.316063	0.602588	0.960500
	N235	N	0.318010	0.429230	0.030201
	N236	N	0.960218	0.696674	0.408066
	N237	N	0.030335	0.695037	0.583637
	N238	N	0.960259	0.333832	0.584873
	N239	N	0.029952	0.335126	0.409742
	N240	N	0.960231	0.426677	0.678540
	N241	N	0.030467	0.602537	0.677172
	N242	N	0.960729	0.603358	0.315181
	N243	N	0.031600	0.429530	0.318093
	N244	N	0.409789	0.694848	0.960954
	N245	N	0.583919	0.694995	0.032171
	N246	N	0.587143	0.332258	0.962948
	N247	N	0.410045	0.334292	0.030227
	N248	N	0.676508	0.979007	0.409793
	N249	N	0.676330	0.050105	0.584275
	N250	N	0.315471	0.978472	0.584854
	N251	N	0.315700	0.048694	0.410564
	N252	N	0.910798	0.479612	0.176218
	N253	N	0.085390	0.549826	0.178349
	N254	N	0.083045	0.480107	0.815736
	N255	N	0.906767	0.550192	0.814912
	N256	N	0.174810	0.928167	0.462026
	N257	N	0.177068	0.102632	0.532944
	N258	N	0.814448	0.102895	0.462272
	N259	N	0.815866	0.927962	0.532850
	N260	N	0.462706	0.195659	0.908666
	N261	N	0.531843	0.194894	0.084474
	N262	N	0.460878	0.834541	0.083843
	N263	N	0.532364	0.833597	0.909942
	N264	N	0.460958	0.926052	0.177828
	N265	N	0.530944	0.101637	0.177877
	N266	N	0.461419	0.101135	0.817410
	N267	N	0.531826	0.925911	0.815845
	N268	N	0.908045	0.195717	0.461759
	N269	N	0.083549	0.196254	0.532801
	N270	N	0.082610	0.834273	0.462741
	N271	N	0.905826	0.832335	0.531374
	N272	N	0.175728	0.479331	0.909439
	N273	N	0.176705	0.550662	0.082557
	N274	N	0.816055	0.480583	0.084843
	N275	N	0.816188	0.551602	0.910390
	O276	O	0.200669	0.219680	0.204898
	H277	H	0.233217	0.251587	0.225230
	H278	H	0.204164	0.228915	0.162722
	O279	O	0.470913	0.675377	0.282198
	H280	H	0.473938	0.701663	0.286119
	H281	H	0.473089	0.698056	0.294481
	O282	O	1.017596	0.801121	-0.219401
	H283	H	1.040416	0.788714	-0.229711
	H284	H	1.004700	0.806056	-0.235639
	O285	O	0.526228	0.534769	0.577142
	H286	H	0.529591	0.544305	0.583254
	H287	H	0.521438	0.522695	0.580096
	O288	O	-0.192219	0.183633	-0.041367
	H289	H	-0.179158	0.188962	-0.022640
	H290	H	-0.189678	0.189830	-0.040480
	O291	O	1.510635	0.494392	0.689049
	H292	H	1.508413	0.515723	0.701598
	H293	H	1.522395	0.497675	0.683988
	O294	O	0.210222	1.224456	0.034424
	H295	H	0.220713	1.237668	0.017609
	H296	H	0.209707	1.219368	0.013448
	O297	O	0.311014	0.330078	0.683298
	H298	H	0.298631	0.327695	0.656765
	H299	H	0.354874	0.328981	0.691533
	O300	O	0.705773	0.313191	0.428023
	H301	H	0.700512	0.308063	0.420368
	H302	H	0.700796	0.294396	0.418544
	O303	O	0.323407	0.478972	0.461479
	H304	H	0.331001	0.462665	0.467769
	H305	H	0.324332	0.485672	0.467545
	O306	O	0.026440	1.222537	1.211073
	H307	H	0.040837	1.228357	1.228705
	H308	H	0.053097	1.225916	1.214210
	O309	O	0.458506	0.512108	0.279916
	H310	H	0.459680	0.535496	0.282194
	H311	H	0.442135	0.533389	0.286457
	O312	O	0.713183	0.534184	0.714487
	H313	H	0.727215	0.522226	0.714856
	H314	H	0.730708	0.539081	0.719398
	O315	O	0.105487	0.053348	0.967859
	H316	H	0.096491	0.044740	0.974394
	H317	H	0.104771	0.045916	0.982225
	O318	O	-0.020054	0.805961	0.208819
	H319	H	-0.026263	0.810156	0.220765
	H320	H	-0.026302	0.806367	0.228263
	O321	O	0.714198	0.294545	0.274375
	H322	H	0.726678	0.319805	0.264801
	H323	H	0.709136	0.285463	0.289876
	O324	O	1.082235	-0.043617	0.979373
	H325	H	1.082943	-0.062282	0.970009
	H326	H	1.075568	-0.042045	0.984201
	O327	O	0.805631	-0.178469	1.186704
	H328	H	0.803746	-0.190302	1.159785
	H329	H	0.815549	-0.155080	1.195955
	O330	O	1.143983	-0.043413	0.118266
	H331	H	1.153306	-0.035571	0.123497
	H332	H	1.138552	-0.033416	0.128184
	O333	O	0.517175	0.728143	0.711155
	H334	H	0.522184	0.753753	0.740104
	H335	H	0.524036	0.727540	0.686153
	O336	O	0.909805	0.082611	0.777603
	H337	H	0.893674	0.097778	0.769552
	H338	H	0.902510	0.106187	0.777327
	O339	O	0.523330	0.346594	0.506163
	H340	H	0.497248	0.348521	0.516762
	H341	H	0.557601	0.337233	0.493668
	O342	O	0.711717	0.493740	0.282724
	H343	H	0.699657	0.498224	0.280556
	H344	H	0.730776	0.498605	0.267679
	O345	O	-0.030469	0.113754	-0.195839
	H346	H	-0.004624	0.126565	-0.193941
	H347	H	-0.027862	0.124939	-0.169150
	O348	O	0.988257	0.140562	0.880427
	H349	H	0.993720	0.147829	0.872205
	H350	H	1.007264	0.109959	0.880139
	O351	O	1.195955	0.858743	-0.141044
	H352	H	1.199620	0.831124	-0.116792
	H353	H	1.196712	0.858858	-0.163128
	O354	O	0.421189	0.734808	0.493221
	H355	H	0.429479	0.722406	0.509391
	H356	H	0.417208	0.733831	0.500585
	O357	O	0.980535	0.832628	0.944688
	H358	H	0.979146	0.830394	0.937178
	H359	H	0.969115	0.829284	0.946456
	O360	O	0.450192	0.584745	0.556757
	H361	H	0.448071	0.590886	0.554236
	H362	H	0.441142	0.600593	0.551148
	O363	O	0.704449	0.726277	0.516901
	H364	H	0.714943	0.698527	0.512010
	H365	H	0.732256	0.750214	0.532268
	O366	O	0.791866	-0.030752	0.891845
	H367	H	0.779609	-0.015934	0.884079
	H368	H	0.806493	-0.024665	0.884222
	O369	O	0.515212	0.700549	0.443342
	H370	H	0.508515	0.684133	0.449991
	H371	H	0.515750	0.699027	0.451272
	O372	O	0.471187	0.308187	0.712621
	H373	H	0.471455	0.287588	0.727810
	H374	H	0.487031	0.331572	0.728146
	O375	O	-0.204876	1.004825	1.199763
	H376	H	-0.217455	1.007591	1.205200
	H377	H	-0.195999	1.000124	1.206943
	O378	O	0.275844	0.488415	0.712084
	H379	H	0.246002	0.483964	0.744748
	H380	H	0.296552	0.461088	0.707287
	O381	O	1.673738	-0.309087	-0.324076
	H382	H	1.667727	-0.292860	-0.339184
	H383	H	1.671128	-0.347361	-0.312789
	O384	O	0.212113	0.045818	1.217294
	H385	H	0.239527	0.058029	1.239882
	H386	H	0.210651	0.087308	1.216346
	O387	O	-0.207241	0.807735	1.016199
	H388	H	-0.217052	0.795106	1.011935
	H389	H	-0.216929	0.829004	1.008736
	O390	O	0.160856	-0.164092	0.969898
	H391	H	0.158029	-0.184888	0.982439
	H392	H	0.141454	-0.163469	0.976820
	O393	O	0.933335	0.960743	0.009701
	H394	H	0.925448	0.963263	0.021804
	H395	H	0.918400	0.954488	-0.011521
	O396	O	0.332705	0.526233	0.577339
	H397	H	0.340361	0.513767	0.587356
	H398	H	0.344320	0.508446	0.576548
	O399	O	0.797079	1.012457	0.992556
	H400	H	0.811734	1.004273	1.006629
	H401	H	0.796333	1.040635	0.997719
	O402	O	-0.080815	0.148510	1.078206
	H403	H	-0.075063	0.144309	1.081580
	H404	H	-0.059117	0.143214	1.090854
	O405	O	0.018501	-0.009533	0.196595
	H406	H	0.048459	-0.006056	0.202529
	H407	H	0.012059	0.010705	0.194124
	O408	O	1.282800	0.728332	1.284514
	H409	H	1.274518	0.727660	1.306183
	H410	H	1.308340	0.744034	1.269167
	O411	O	0.433665	0.378389	0.446419
	H412	H	0.438306	0.371793	0.428915
	H413	H	0.438449	0.376927	0.445937
	O414	O	0.284354	0.303872	0.516226
	H415	H	0.280985	0.294868	0.512993
	H416	H	0.285911	0.295973	0.528457
	O417	O	0.710029	0.572961	0.439343
	H418	H	0.702314	0.570471	0.427907
	H419	H	0.714868	0.560391	0.458945
	O420	O	0.631154	0.439647	0.511550
	H421	H	0.626825	0.441140	0.509607
	H422	H	0.639451	0.413486	0.508346
	O423	O	-0.690494	0.324360	0.305700
	H424	H	-0.675689	0.345817	0.324771
	H425	H	-0.668341	0.341200	0.322076
	O426	O	1.152732	0.947997	0.797896
	H427	H	1.179168	0.930939	0.798941
	H428	H	1.155425	0.950235	0.804780
	O429	O	0.066023	0.213617	-0.044429
	H430	H	0.055775	0.208576	-0.033437
	H431	H	0.069270	0.207094	-0.059019
	O432	O	0.529297	0.556281	0.296017
	H433	H	0.522970	0.568629	0.292575
	H434	H	0.534064	0.565687	0.292996
	O435	O	0.132647	0.077504	-0.093724
	H436	H	0.129064	0.067075	-0.098652
	H437	H	0.123713	0.062872	-0.084157
	O438	O	0.916124	0.107715	0.175177
	H439	H	0.921185	0.126324	0.172886
	H440	H	0.911897	0.095943	0.174884
	O441	O	0.286400	0.663755	0.475560
	H442	H	0.274934	0.650880	0.484048
	H443	H	0.279686	0.671721	0.469376
	O444	O	-0.084753	0.968594	0.815251
	H445	H	-0.072073	0.987325	0.822055
	H446	H	-0.092032	0.983919	0.807286
	O447	O	0.520741	0.303170	0.291616
	H448	H	0.514327	0.309053	0.272509
	H449	H	0.527436	0.309728	0.281660
	O450	O	0.357956	0.675459	0.603768
	H451	H	0.365486	0.668111	0.596408
	H452	H	0.367821	0.680431	0.594993
	O453	O	0.693627	0.444237	0.575877
	H454	H	0.678567	0.426321	0.568161
	H455	H	0.699681	0.440371	0.565328
	O456	O	0.929899	0.095238	-0.100139
	H457	H	0.933581	0.084889	-0.087068
	H458	H	0.920948	0.087407	-0.101803
	O459	O	0.641626	0.288274	0.643752
	H460	H	0.627668	0.273060	0.640423
	H461	H	0.628541	0.285279	0.660436
	O462	O	0.279981	0.578620	0.283437
	H463	H	0.269560	0.590092	0.297987
	H464	H	0.258814	0.602677	0.263754
	O465	O	1.035846	0.017453	-0.014615
	H466	H	1.037709	-0.000136	-0.012196
	H467	H	1.027360	0.017832	-0.010440
