data_Molecule from HDF5

_cell_length_a		16.232880
_cell_length_b		16.374663
_cell_length_c		16.390942
_cell_angle_alpha	89.758360
_cell_angle_beta	90.077151
_cell_angle_gamma	89.911229
_symmetry_space_group_name_H-M	'P 1'
_symmetry_Int_Tables_number		1

loop_
	_symmetry_equiv_pos_as_xyz
	x,y,z

loop_
	_atom_site_label
	_atom_site_type_symbol
	_atom_site_fract_x
	_atom_site_fract_y
	_atom_site_fract_z
	H0	H	0.406795	0.830929	0.697687
	H1	H	0.619775	0.148649	0.697739
	H2	H	0.616741	0.828325	0.259155
	H3	H	0.411752	0.151411	0.256206
	H4	H	0.734430	0.384084	0.817119
	H5	H	0.731424	0.586330	0.138789
	H6	H	0.296014	0.589966	0.816516
	H7	H	0.298537	0.386788	0.138567
	H8	H	0.851965	0.710610	0.371059
	H9	H	0.176148	0.708558	0.576655
	H10	H	0.852225	0.274105	0.578145
	H11	H	0.175661	0.271666	0.372136
	H12	H	0.853274	0.387779	0.695064
	H13	H	0.175863	0.595376	0.694897
	H14	H	0.852972	0.593719	0.256086
	H15	H	0.178198	0.389756	0.260579
	H16	H	0.403986	0.712388	0.819558
	H17	H	0.616412	0.705236	0.138490
	H18	H	0.620060	0.268374	0.817617
	H19	H	0.412700	0.269913	0.137516
	H20	H	0.732779	0.829570	0.376124
	H21	H	0.729812	0.152249	0.576097
	H22	H	0.295802	0.830004	0.576609
	H23	H	0.297556	0.152692	0.373372
	H24	H	0.913500	0.329156	0.197993
	H25	H	0.119561	0.650089	0.194417
	H26	H	0.121076	0.331055	0.755656
	H27	H	0.909992	0.649987	0.757270
	H28	H	0.231945	0.890620	0.314271
	H29	H	0.234539	0.094597	0.635691
	H30	H	0.795520	0.093531	0.315525
	H31	H	0.797536	0.889956	0.637422
	H32	H	0.353333	0.206626	0.875664
	H33	H	0.676473	0.206217	0.080454
	H34	H	0.351854	0.769997	0.081116
	H35	H	0.675503	0.769832	0.876668
	H36	H	0.351444	0.887420	0.195017
	H37	H	0.676728	0.088490	0.192076
	H38	H	0.353255	0.093924	0.757669
	H39	H	0.675298	0.882917	0.757744
	H40	H	0.910307	0.211172	0.315216
	H41	H	0.119971	0.211823	0.635253
	H42	H	0.118321	0.771500	0.315621
	H43	H	0.907506	0.770115	0.634913
	H44	H	0.232044	0.327375	0.875825
	H45	H	0.234355	0.649698	0.078142
	H46	H	0.800468	0.325244	0.078739
	H47	H	0.794816	0.648729	0.875288
	H48	H	0.429658	0.104348	0.569271
	H49	H	0.605580	0.873883	0.570759
	H50	H	0.601429	0.103751	0.383158
	H51	H	0.426647	0.878497	0.389113
	H52	H	0.599859	0.393126	0.089576
	H53	H	0.605590	0.579099	0.862962
	H54	H	0.422997	0.569818	0.089390
	H55	H	0.421638	0.396247	0.861185
	H56	H	0.131425	0.585123	0.382185
	H57	H	0.898598	0.583642	0.563287
	H58	H	0.129648	0.397106	0.560700
	H59	H	0.900092	0.402841	0.387210
	H60	H	0.128601	0.407000	0.565110
	H61	H	0.900323	0.577191	0.565382
	H62	H	0.127552	0.583947	0.390134
	H63	H	0.900493	0.403394	0.386634
	H64	H	0.432776	0.580326	0.089179
	H65	H	0.603363	0.578305	0.863885
	H66	H	0.609927	0.391878	0.093956
	H67	H	0.424383	0.400592	0.864965
	H68	H	0.606228	0.105687	0.384647
	H69	H	0.601592	0.877090	0.566527
	H70	H	0.425856	0.102752	0.562070
	H71	H	0.417008	0.874459	0.385809
	H72	H	0.927009	0.602366	0.067434
	H73	H	0.104813	0.373517	0.071267
	H74	H	0.110547	0.604820	0.886979
	H75	H	0.925964	0.375402	0.888280
	H76	H	0.103198	0.907581	0.586900
	H77	H	0.100745	0.087816	0.361560
	H78	H	0.915551	0.077700	0.591402
	H79	H	0.931854	0.899559	0.363233
	H80	H	0.626928	0.079230	0.897412
	H81	H	0.398354	0.084422	0.064287
	H82	H	0.631790	0.889224	0.068273
	H83	H	0.400643	0.902397	0.889672
	H84	H	0.626047	0.899730	0.062114
	H85	H	0.401493	0.075672	0.062565
	H86	H	0.628389	0.067435	0.882308
	H87	H	0.398851	0.902285	0.885829
	H88	H	0.931999	0.080568	0.587193
	H89	H	0.109059	0.081380	0.360090
	H90	H	0.097866	0.895725	0.589244
	H91	H	0.918747	0.896419	0.358109
	H92	H	0.103561	0.604778	0.880019
	H93	H	0.104089	0.375336	0.069105
	H94	H	0.921985	0.601347	0.063016
	H95	H	0.923033	0.373757	0.884393
	H96	H	0.421994	0.105884	0.568552
	H97	H	0.607594	0.875521	0.564613
	H98	H	0.604729	0.105096	0.379934
	H99	H	0.425023	0.875486	0.379754
	H100	H	0.606914	0.402378	0.090745
	H101	H	0.603535	0.580637	0.863387
	H102	H	0.420055	0.583339	0.094767
	H103	H	0.427747	0.395731	0.862355
	H104	H	0.128713	0.577031	0.384634
	H105	H	0.898808	0.581616	0.570235
	H106	H	0.132222	0.398100	0.571184
	H107	H	0.899477	0.402574	0.386129
	H108	H	0.921380	0.604262	0.068994
	H109	H	0.106195	0.374550	0.069206
	H110	H	0.101229	0.601773	0.889549
	H111	H	0.928667	0.374408	0.882890
	H112	H	0.110644	0.898203	0.592310
	H113	H	0.100285	0.078172	0.364675
	H114	H	0.921861	0.092915	0.594166
	H115	H	0.921957	0.909315	0.363445
	H116	H	0.634648	0.085967	0.880164
	H117	H	0.397692	0.077411	0.071118
	H118	H	0.630620	0.900840	0.074985
	H119	H	0.398714	0.898423	0.888129
	C120	C	0.393046	-0.001246	0.597855
	C121	C	0.635627	0.981616	0.597991
	C122	C	0.635406	-0.001345	0.353374
	C123	C	0.392241	0.982352	0.353663
	C124	C	0.637016	0.365174	-0.014173
	C125	C	0.634962	0.608902	0.969616
	C126	C	0.392312	0.609936	-0.014154
	C127	C	0.393699	0.366670	0.968871
	C128	C	0.022656	0.613196	0.353811
	C129	C	1.005955	0.612354	0.597003
	C130	C	0.023184	0.369881	0.597004
	C131	C	1.006660	0.371006	0.355643
	C132	C	0.893598	0.496540	0.098109
	C133	C	0.136688	0.480773	0.099179
	C134	C	0.136562	0.497908	0.855064
	C135	C	0.893213	0.480417	0.854525
	C136	C	0.135062	0.870077	0.483494
	C137	C	0.135929	0.113793	0.467385
	C138	C	0.892188	0.114220	0.484541
	C139	C	0.892937	0.870642	0.467544
	C140	C	0.523475	0.109793	0.855552
	C141	C	0.505945	0.109618	0.097135
	C142	C	0.522384	0.866641	0.099232
	C143	C	0.505613	0.868082	0.856616
	C144	C	0.389654	0.878668	0.657051
	C145	C	0.637279	0.101610	0.657062
	C146	C	0.636106	0.877017	0.297378
	C147	C	0.391865	0.103187	0.294960
	C148	C	0.695921	0.364358	0.865348
	C149	C	0.692527	0.606659	0.090656
	C150	C	0.333855	0.610179	0.865143
	C151	C	0.336441	0.366930	0.089890
	C152	C	0.900669	0.671135	0.352602
	C153	C	0.127439	0.670550	0.596835
	C154	C	0.901216	0.312421	0.597354
	C155	C	0.127820	0.311413	0.353918
	C156	C	0.901762	0.369062	0.655487
	C157	C	0.127811	0.613316	0.654950
	C158	C	0.901078	0.613203	0.295215
	C159	C	0.129309	0.370618	0.298882
	C160	C	0.388242	0.670814	0.866562
	C161	C	0.635286	0.665797	0.090413
	C162	C	0.638666	0.306950	0.865575
	C163	C	0.393459	0.308555	0.089456
	C164	C	0.694003	0.877688	0.355383
	C165	C	0.692045	0.103393	0.596541
	C166	C	0.333999	0.878455	0.597127
	C167	C	0.335210	0.104002	0.353521
	C168	C	0.893898	0.376330	0.157764
	C169	C	0.137798	0.601968	0.155692
	C170	C	0.138751	0.378108	0.795723
	C171	C	0.891248	0.601487	0.796332
	C172	C	0.193525	0.870347	0.362810
	C173	C	0.195089	0.113820	0.587714
	C174	C	0.834527	0.113404	0.363378
	C175	C	0.835549	0.870255	0.588770
	C176	C	0.401913	0.168252	0.855558
	C177	C	0.627785	0.166981	0.098434
	C178	C	0.400291	0.808925	0.100011
	C179	C	0.627026	0.808723	0.856747
	C180	C	0.399878	0.867571	0.156478
	C181	C	0.628055	0.108497	0.154158
	C182	C	0.401870	0.112070	0.796868
	C183	C	0.626824	0.865003	0.797487
	C184	C	0.891525	0.172153	0.363639
	C185	C	0.137771	0.172012	0.587615
	C186	C	0.136780	0.811251	0.363337
	C187	C	0.890695	0.810908	0.587774
	C188	C	0.194286	0.376368	0.855534
	C189	C	0.194918	0.601686	0.097827
	C190	C	0.837654	0.374568	0.098482
	C191	C	0.833880	0.600841	0.855016
	C192	C	0.418516	0.082578	0.573645
	C193	C	0.611877	0.897436	0.574309
	C194	C	0.611184	0.082810	0.375862
	C195	C	0.416017	0.898032	0.377743
	C196	C	0.612623	0.388980	0.069571
	C197	C	0.611151	0.586072	0.885394
	C198	C	0.417831	0.585053	0.069503
	C199	C	0.417620	0.390452	0.884531
	C200	C	0.107204	0.589134	0.378552
	C201	C	0.921254	0.587873	0.573269
	C202	C	0.108035	0.393952	0.572745
	C203	C	0.922128	0.395784	0.379802
	C204	C	0.916769	0.580779	0.073504
	C205	C	0.112338	0.396421	0.076435
	C206	C	0.112133	0.581781	0.878718
	C207	C	0.918710	0.396514	0.878150
	C208	C	0.110896	0.893643	0.567556
	C209	C	0.110820	0.089672	0.383697
	C210	C	0.916118	0.090500	0.568967
	C211	C	0.917195	0.894888	0.383564
	C212	C	0.608050	0.084643	0.879500
	C213	C	0.420966	0.085815	0.072881
	C214	C	0.607304	0.889830	0.075444
	C215	C	0.421333	0.893740	0.880859
	Zn216	Zn	0.514672	-0.010866	0.726909
	Zn217	Zn	0.513792	-0.010445	0.225068
	Zn218	Zn	0.764757	0.486766	-0.023197
	Zn219	Zn	0.264184	0.488031	-0.022760
	Zn220	Zn	0.013335	0.741331	0.475316
	Zn221	Zn	0.014299	0.242503	0.475905
	Zn222	Zn	0.015299	0.490525	0.725874
	Zn223	Zn	0.015489	0.490373	0.227092
	Zn224	Zn	0.513028	0.738596	-0.022205
	Zn225	Zn	0.515505	0.237712	-0.023070
	Zn226	Zn	0.764300	-0.008818	0.476298
	Zn227	Zn	0.264266	-0.008054	0.475369
	N228	N	0.425754	0.954521	0.657603
	N229	N	0.602952	0.024887	0.658060
	N230	N	0.600454	0.953251	0.295968
	N231	N	0.426655	0.026513	0.294938
	N232	N	0.695006	0.399926	0.941079
	N233	N	0.692468	0.571952	0.014452
	N234	N	0.336276	0.572894	0.940402
	N235	N	0.336431	0.402522	0.013920
	N236	N	0.977257	0.671264	0.388190
	N237	N	0.050693	0.670016	0.561476
	N238	N	0.977908	0.312716	0.561931
	N239	N	0.050725	0.311665	0.388578
	N240	N	0.978794	0.404103	0.655462
	N241	N	0.050999	0.578082	0.655522
	N242	N	0.977966	0.578054	0.295677
	N243	N	0.052864	0.406804	0.299596
	N244	N	0.423746	0.670730	0.942792
	N245	N	0.600396	0.667366	0.014080
	N246	N	0.602812	0.307389	0.941345
	N247	N	0.428339	0.308363	0.013116
	N248	N	0.693848	0.954144	0.389468
	N249	N	0.691313	0.027686	0.560608
	N250	N	0.335901	0.954278	0.561113
	N251	N	0.335190	0.027933	0.389118
	N252	N	0.927783	0.453103	0.157970
	N253	N	0.102416	0.525737	0.156691
	N254	N	0.103478	0.454451	0.795363
	N255	N	0.927571	0.525604	0.795968
	N256	N	0.192648	0.906326	0.438501
	N257	N	0.193894	0.078169	0.511945
	N258	N	0.834542	0.078251	0.439540
	N259	N	0.836777	0.906811	0.513068
	N260	N	0.478500	0.167094	0.891235
	N261	N	0.550757	0.167838	0.063639
	N262	N	0.477226	0.808297	0.065040
	N263	N	0.550454	0.810247	0.892626
	N264	N	0.476804	0.902503	0.156316
	N265	N	0.551256	0.073304	0.153111
	N266	N	0.478617	0.076438	0.796629
	N267	N	0.550282	0.900989	0.797090
	N268	N	0.926655	0.172527	0.440018
	N269	N	0.101660	0.172093	0.511769
	N270	N	0.101215	0.811011	0.439381
	N271	N	0.925544	0.810741	0.511303
	N272	N	0.193180	0.451938	0.891788
	N273	N	0.194203	0.525365	0.063345
	N274	N	0.837398	0.450485	0.062036
	N275	N	0.834911	0.524578	0.890183
	O276	O	0.525497	0.324810	0.648983
	H277	H	0.502211	0.342455	0.640344
	H278	H	0.524411	0.302226	0.660990
	O279	O	0.111351	1.018840	1.070818
	H280	H	0.124714	1.018876	1.073970
	H281	H	0.110357	1.016653	1.069258
	O282	O	0.997857	0.144794	0.981128
	H283	H	1.004381	0.136457	0.972172
	H284	H	0.992491	0.151359	0.986752
	O285	O	0.707257	0.523068	0.667309
	H286	H	0.683164	0.498983	0.665241
	H287	H	0.723175	0.514987	0.682727
	O288	O	0.506548	1.325000	1.427673
	H289	H	0.513173	1.318947	1.417425
	H290	H	0.508457	1.335682	1.422238
	O291	O	-0.062807	0.965215	-0.016611
	H292	H	-0.060777	0.961199	-0.002191
	H293	H	-0.057123	0.960714	-0.010907
	O294	O	0.341388	0.364481	0.530959
	H295	H	0.336493	0.360073	0.542852
	H296	H	0.341020	0.358923	0.524907
	O297	O	0.683362	0.667736	0.480254
	H298	H	0.695864	0.679989	0.490569
	H299	H	0.668669	0.661435	0.493301
	O300	O	0.602145	0.359862	0.529018
	H301	H	0.596345	0.355276	0.514199
	H302	H	0.584593	0.355065	0.528702
	O303	O	0.016459	1.138374	0.900557
	H304	H	0.006559	1.132185	0.903803
	H305	H	0.023679	1.139189	0.904507
	O306	O	0.435681	0.633828	0.297863
	H307	H	0.428347	0.636338	0.288102
	H308	H	0.450301	0.637813	0.306221
	O309	O	0.969243	1.121708	-0.052039
	H310	H	0.979330	1.126518	-0.058735
	H311	H	0.972945	1.119218	-0.044514
	O312	O	-0.139183	-0.062398	0.074239
	H313	H	-0.143926	-0.062463	0.084714
	H314	H	-0.134341	-0.061527	0.083964
	O315	O	0.669608	0.666072	0.634234
	H316	H	0.669954	0.656010	0.615414
	H317	H	0.678523	0.629838	0.635736
	O318	O	-0.044124	0.813568	1.055354
	H319	H	-0.053070	0.808175	1.048869
	H320	H	-0.029363	0.793244	1.064366
	O321	O	0.463835	0.492585	0.477806
	H322	H	0.448856	0.490541	0.478778
	H323	H	0.478200	0.486250	0.472274
	O324	O	0.044002	1.014663	-0.177082
	H325	H	0.034575	1.003909	-0.166562
	H326	H	0.040146	1.030366	-0.202979
	O327	O	0.531873	0.409886	0.344075
	H328	H	0.517431	0.403020	0.342512
	H329	H	0.536059	0.410917	0.353293
	O330	O	-0.070279	-0.159458	0.893019
	H331	H	-0.080652	-0.144461	0.897115
	H332	H	-0.075003	-0.160345	0.879574
	O333	O	-0.645133	-0.428756	1.370823
	H334	H	-0.663680	-0.414055	1.369927
	H335	H	-0.653859	-0.443863	1.376454
	O336	O	0.126288	1.086465	0.960106
	H337	H	0.122816	1.083103	0.966813
	H338	H	0.130495	1.079123	0.953079
	O339	O	0.920722	0.024994	0.160731
	H340	H	0.923485	0.017035	0.149611
	H341	H	0.920679	0.038754	0.174859
	O342	O	0.157368	-0.181715	-0.032576
	H343	H	0.168633	-0.195718	-0.027627
	H344	H	0.165029	-0.175478	-0.055562
	O345	O	0.955125	0.156299	0.940171
	H346	H	0.955730	0.125885	0.944059
	H347	H	0.950038	0.160603	0.960029
	O348	O	0.379897	1.502552	0.628253
	H349	H	0.385277	1.507411	0.625773
	H350	H	0.382477	1.528202	0.643266
	O351	O	0.501982	0.569743	0.598526
	H352	H	0.518203	0.597107	0.603021
	H353	H	0.499291	0.569425	0.585222
	O354	O	1.038276	0.030339	1.091095
	H355	H	1.044093	0.039661	1.090261
	H356	H	1.044921	0.028391	1.100419
	O357	O	0.589549	0.518053	0.358264
	H358	H	0.592647	0.524721	0.355726
	H359	H	0.597608	0.518852	0.367911
	O360	O	-0.147900	-0.001648	0.812685
	H361	H	-0.155002	-0.011785	0.809055
	H362	H	-0.136451	-0.006472	0.821888
	O363	O	0.405930	1.556154	0.417136
	H364	H	0.396939	1.545978	0.413104
	H365	H	0.405472	1.558174	0.411300
	O366	O	0.664184	0.347318	0.480291
	H367	H	0.662201	0.355127	0.498066
	H368	H	0.673621	0.347755	0.481322
	O369	O	-0.469344	0.692293	0.680230
	H370	H	-0.459728	0.713579	0.696646
	H371	H	-0.428558	0.692703	0.667101
	O372	O	0.499272	-0.423063	0.364973
	H373	H	0.510099	-0.413886	0.372592
	H374	H	0.479169	-0.418478	0.369573
	O375	O	0.526794	0.466729	0.410913
	H376	H	0.542991	0.460206	0.411242
	H377	H	0.515742	0.466480	0.419142
	O378	O	0.865651	1.085428	0.221439
	H379	H	0.848371	1.095735	0.228301
	H380	H	0.868342	1.063151	0.232937
	O381	O	0.998802	-0.006630	0.048978
	H382	H	1.024574	-0.002241	0.055179
	H383	H	0.994593	0.006700	0.040707
	O384	O	1.075415	0.946733	0.055001
	H385	H	1.067384	0.938110	0.051358
	H386	H	1.069257	0.942731	0.057614
	O387	O	-0.175609	-0.128476	0.014192
	H388	H	-0.186677	-0.122667	0.026238
	H389	H	-0.188339	-0.132376	0.009736
	O390	O	0.164345	0.821749	-0.172938
	H391	H	0.155652	0.835210	-0.172479
	H392	H	0.158222	0.844035	-0.185749
	O393	O	1.170047	0.933407	0.800405
	H394	H	1.151070	0.959889	0.806204
	H395	H	1.194431	0.939050	0.774498
	O396	O	0.401047	0.354598	1.646828
	H397	H	0.386677	0.356079	1.628119
	H398	H	0.393817	0.369934	1.643878
	O399	O	0.003609	0.901008	0.915931
	H400	H	-0.000538	0.898260	0.913057
	H401	H	0.006862	0.884476	0.921790
	O402	O	0.631810	0.531392	0.336470
	H403	H	0.627242	0.527617	0.322587
	H404	H	0.639285	0.535962	0.349574
	O405	O	1.069974	0.065003	-0.171231
	H406	H	1.073992	0.073405	-0.159641
	H407	H	1.054354	0.058193	-0.174600
	O408	O	0.354539	0.468695	0.530111
	H409	H	0.349093	0.477564	0.545471
	H410	H	0.356864	0.469702	0.522553
	O411	O	1.053892	-0.054996	1.055425
	H412	H	1.068819	-0.055829	1.055791
	H413	H	1.053990	-0.060497	1.053136
	O414	O	0.538072	0.439805	0.349654
	H415	H	0.543228	0.426262	0.362448
	H416	H	0.533998	0.447911	0.334511
	O417	O	1.030032	1.058988	1.058044
	H418	H	1.044115	1.057825	1.066515
	H419	H	1.020900	1.056186	1.064354
