data_Molecule from HDF5

_cell_length_a		16.316518
_cell_length_b		16.415188
_cell_length_c		16.247661
_cell_angle_alpha	90.343021
_cell_angle_beta	90.005173
_cell_angle_gamma	89.985411
_symmetry_space_group_name_H-M	'P 1'
_symmetry_Int_Tables_number		1

loop_
	_symmetry_equiv_pos_as_xyz
	x,y,z

loop_
	_atom_site_label
	_atom_site_type_symbol
	_atom_site_fract_x
	_atom_site_fract_y
	_atom_site_fract_z
	H0	H	0.380520	0.849255	0.716642
	H1	H	0.586107	0.169967	0.720966
	H2	H	0.584274	0.848844	0.282006
	H3	H	0.381236	0.171347	0.281629
	H4	H	0.702105	0.406603	0.838013
	H5	H	0.701354	0.611807	0.162345
	H6	H	0.267481	0.609767	0.838094
	H7	H	0.268427	0.410241	0.162683
	H8	H	0.823123	0.728245	0.397907
	H9	H	0.145829	0.730983	0.603681
	H10	H	0.824125	0.291542	0.605289
	H11	H	0.144173	0.287852	0.392870
	H12	H	0.821940	0.412452	0.715007
	H13	H	0.146249	0.614849	0.719334
	H14	H	0.823246	0.611910	0.281755
	H15	H	0.146966	0.408441	0.282799
	H16	H	0.380643	0.727596	0.838820
	H17	H	0.587161	0.728350	0.162318
	H18	H	0.590522	0.287534	0.840142
	H19	H	0.381428	0.293340	0.163052
	H20	H	0.703182	0.850486	0.395928
	H21	H	0.703470	0.170417	0.606032
	H22	H	0.265089	0.850101	0.600080
	H23	H	0.264281	0.171482	0.396538
	H24	H	0.886445	0.348221	0.215484
	H25	H	0.086014	0.671815	0.217255
	H26	H	0.085755	0.348824	0.780332
	H27	H	0.886897	0.673023	0.786554
	H28	H	0.198865	0.911164	0.336848
	H29	H	0.199974	0.112357	0.662888
	H30	H	0.767817	0.109371	0.337276
	H31	H	0.768280	0.912617	0.664036
	H32	H	0.322834	0.227547	0.900146
	H33	H	0.647625	0.227474	0.102784
	H34	H	0.322361	0.793327	0.100890
	H35	H	0.646509	0.792325	0.896920
	H36	H	0.320213	0.913424	0.212346
	H37	H	0.647697	0.109321	0.216777
	H38	H	0.320698	0.108523	0.786604
	H39	H	0.645998	0.909828	0.782703
	H40	H	0.882717	0.226499	0.336938
	H41	H	0.085671	0.229508	0.662056
	H42	H	0.085007	0.794261	0.336977
	H43	H	0.881852	0.794252	0.662793
	H44	H	0.202670	0.347838	0.897086
	H45	H	0.201958	0.671601	0.100917
	H46	H	0.768872	0.348335	0.099589
	H47	H	0.766057	0.670614	0.897838
	H48	H	0.393895	0.124488	0.591893
	H49	H	0.575212	0.894360	0.593790
	H50	H	0.578164	0.125347	0.410314
	H51	H	0.385066	0.892920	0.399602
	H52	H	0.582932	0.423718	0.116327
	H53	H	0.581057	0.598490	0.882402
	H54	H	0.391176	0.605831	0.118073
	H55	H	0.400024	0.415779	0.885135
	H56	H	0.100212	0.598828	0.405236
	H57	H	0.871115	0.605340	0.587464
	H58	H	0.098352	0.418941	0.583624
	H59	H	0.870417	0.414733	0.414113
	H60	H	0.098013	0.425328	0.589793
	H61	H	0.870674	0.599447	0.592609
	H62	H	0.102340	0.608732	0.408881
	H63	H	0.872430	0.425856	0.411038
	H64	H	0.392771	0.597210	0.114969
	H65	H	0.571077	0.595375	0.887392
	H66	H	0.569177	0.422822	0.113014
	H67	H	0.392066	0.415227	0.883326
	H68	H	0.574637	0.124935	0.407444
	H69	H	0.570567	0.897942	0.588628
	H70	H	0.391800	0.125089	0.590594
	H71	H	0.402330	0.899070	0.404587
	H72	H	0.887343	0.623172	0.082382
	H73	H	0.079424	0.392634	0.095194
	H74	H	0.079347	0.628480	0.900384
	H75	H	0.893490	0.397551	0.913762
	H76	H	0.076817	0.922180	0.615843
	H77	H	0.073317	0.100934	0.384828
	H78	H	0.896544	0.104637	0.615485
	H79	H	0.881888	0.913777	0.379187
	H80	H	0.599502	0.097531	0.908612
	H81	H	0.367306	0.112235	0.090384
	H82	H	0.603433	0.905940	0.090317
	H83	H	0.368677	0.913277	0.913263
	H84	H	0.594452	0.923638	0.080575
	H85	H	0.373606	0.098398	0.083061
	H86	H	0.599478	0.102047	0.910708
	H87	H	0.370432	0.921337	0.909071
	H88	H	0.891240	0.104603	0.617283
	H89	H	0.073882	0.100573	0.383940
	H90	H	0.073370	0.921892	0.615074
	H91	H	0.892648	0.929956	0.388343
	H92	H	0.066579	0.619526	0.911537
	H93	H	0.073109	0.396539	0.091154
	H94	H	0.889735	0.628235	0.100580
	H95	H	0.887265	0.392915	0.903594
	H96	H	0.391680	0.125823	0.593598
	H97	H	0.577728	0.896345	0.586356
	H98	H	0.573914	0.124056	0.412209
	H99	H	0.387864	0.898095	0.417332
	H100	H	0.576174	0.411437	0.118181
	H101	H	0.572646	0.606184	0.883927
	H102	H	0.399297	0.603326	0.115433
	H103	H	0.394997	0.421775	0.886365
	H104	H	0.097796	0.601268	0.415123
	H105	H	0.867549	0.606332	0.594811
	H106	H	0.101275	0.417883	0.592245
	H107	H	0.867877	0.417985	0.403041
	H108	H	0.904219	0.621006	0.090840
	H109	H	0.079901	0.396373	0.087570
	H110	H	0.085080	0.623243	0.918438
	H111	H	0.899241	0.395806	0.902374
	H112	H	0.074848	0.918882	0.616916
	H113	H	0.073484	0.100494	0.385142
	H114	H	0.893082	0.100375	0.614996
	H115	H	0.902482	0.910961	0.386203
	H116	H	0.597889	0.098627	0.913064
	H117	H	0.368406	0.097724	0.098922
	H118	H	0.600887	0.924541	0.101756
	H119	H	0.365945	0.914335	0.904344
	C120	C	0.361755	0.018854	0.621520
	C121	C	0.605131	1.001994	0.621776
	C122	C	0.605704	0.018754	0.378585
	C123	C	0.361332	1.002668	0.377323
	C124	C	0.607000	0.387600	0.009086
	C125	C	0.606087	0.631324	0.991242
	C126	C	0.363575	0.631388	0.009075
	C127	C	0.364509	0.388520	0.992325
	C128	C	-0.006667	0.632325	0.378861
	C129	C	0.976312	0.634247	0.622543
	C130	C	-0.007361	0.390493	0.619977
	C131	C	0.976542	0.388377	0.378126
	C132	C	0.863752	0.518028	0.121432
	C133	C	0.107718	0.501767	0.121784
	C134	C	0.107188	0.517798	0.878430
	C135	C	0.863424	0.502141	0.877944
	C136	C	0.104906	0.890479	0.508195
	C137	C	0.105017	0.132608	0.491334
	C138	C	0.862783	0.132429	0.508528
	C139	C	0.862618	0.889231	0.492122
	C140	C	0.492060	0.129747	0.880701
	C141	C	0.476928	0.132237	0.122059
	C142	C	0.492443	0.888818	0.120811
	C143	C	0.475358	0.886651	0.877695
	C144	C	0.361275	0.897639	0.678067
	C145	C	0.605354	0.122212	0.681565
	C146	C	0.604296	0.897190	0.320984
	C147	C	0.361862	0.123406	0.320321
	C148	C	0.664081	0.386818	0.887151
	C149	C	0.663395	0.631446	0.113696
	C150	C	0.305947	0.630009	0.886727
	C151	C	0.306716	0.389924	0.114147
	C152	C	0.871431	0.689313	0.378617
	C153	C	0.097627	0.692062	0.623035
	C154	C	0.871793	0.331979	0.622444
	C155	C	0.096868	0.328655	0.375919
	C156	C	0.870733	0.392104	0.677276
	C157	C	0.097967	0.633839	0.680229
	C158	C	0.871481	0.631292	0.321044
	C159	C	0.098162	0.388538	0.320743
	C160	C	0.362396	0.688104	0.887066
	C161	C	0.606395	0.689435	0.113523
	C162	C	0.608411	0.327748	0.888171
	C163	C	0.363204	0.331919	0.114224
	C164	C	0.663735	0.898106	0.377311
	C165	C	0.663935	0.122187	0.624374
	C166	C	0.303872	0.898118	0.619956
	C167	C	0.303438	0.123335	0.377718
	C168	C	0.865782	0.396626	0.177585
	C169	C	0.106429	0.623337	0.178981
	C170	C	0.106161	0.396806	0.819564
	C171	C	0.865406	0.624067	0.823273
	C172	C	0.160989	0.891211	0.385572
	C173	C	0.161981	0.132438	0.613856
	C174	C	0.806009	0.130071	0.385946
	C175	C	0.805950	0.891482	0.614911
	C176	C	0.370613	0.187632	0.881069
	C177	C	0.598957	0.188947	0.122378
	C178	C	0.370650	0.832459	0.120085
	C179	C	0.597698	0.830659	0.877902
	C180	C	0.369575	0.892261	0.175587
	C181	C	0.599030	0.130237	0.178949
	C182	C	0.369680	0.128503	0.824499
	C183	C	0.597444	0.888832	0.820953
	C184	C	0.863357	0.187983	0.385739
	C185	C	0.105042	0.190537	0.613567
	C186	C	0.103950	0.833220	0.385773
	C187	C	0.862360	0.832809	0.614395
	C188	C	0.163929	0.396253	0.878124
	C189	C	0.164069	0.623144	0.120872
	C190	C	0.807650	0.396478	0.119548
	C191	C	0.805558	0.622746	0.879048
	C192	C	0.385702	0.103185	0.598835
	C193	C	0.581174	0.918045	0.596680
	C194	C	0.582338	0.102963	0.402722
	C195	C	0.384796	0.918474	0.400481
	C196	C	0.583080	0.412243	0.093941
	C197	C	0.581987	0.607099	0.906618
	C198	C	0.387371	0.608697	0.093824
	C199	C	0.388612	0.411167	0.907009
	C200	C	0.078031	0.609440	0.402733
	C201	C	0.891622	0.610460	0.598597
	C202	C	0.077156	0.413938	0.595672
	C203	C	0.892090	0.412577	0.402528
	C204	C	0.886806	0.602460	0.098166
	C205	C	0.084415	0.417162	0.098077
	C206	C	0.083741	0.601998	0.902867
	C207	C	0.886774	0.417402	0.899932
	C208	C	0.081697	0.913979	0.593657
	C209	C	0.080820	0.107972	0.406591
	C210	C	0.886628	0.109742	0.593670
	C211	C	0.885729	0.911631	0.406836
	C212	C	0.576844	0.106130	0.904023
	C213	C	0.391950	0.109420	0.098006
	C214	C	0.577759	0.911565	0.097605
	C215	C	0.390467	0.909546	0.901787
	Zn216	Zn	0.483270	0.008999	0.750469
	Zn217	Zn	0.484120	0.010328	0.249558
	Zn218	Zn	0.734112	0.509726	-0.000405
	Zn219	Zn	0.236542	0.509375	0.000107
	Zn220	Zn	-0.015485	0.761593	0.500388
	Zn221	Zn	-0.016025	0.260962	0.499725
	Zn222	Zn	-0.014884	0.510991	0.748967
	Zn223	Zn	-0.014376	0.510080	0.250354
	Zn224	Zn	0.484770	0.759304	-0.000243
	Zn225	Zn	0.485069	0.260362	0.000893
	Zn226	Zn	0.734621	0.010685	0.500611
	Zn227	Zn	0.233077	0.011421	0.499685
	N228	N	0.396543	0.973668	0.679203
	N229	N	0.569429	0.046422	0.679867
	N230	N	0.568701	0.973138	0.321729
	N231	N	0.397334	0.047546	0.320107
	N232	N	0.663142	0.423657	0.963308
	N233	N	0.663560	0.596028	0.036791
	N234	N	0.306546	0.595404	0.963512
	N235	N	0.307611	0.424536	0.037398
	N236	N	0.947983	0.690113	0.413746
	N237	N	0.020936	0.692395	0.587870
	N238	N	0.948491	0.330821	0.587456
	N239	N	0.020089	0.328526	0.410844
	N240	N	0.946996	0.427909	0.675797
	N241	N	0.021594	0.598684	0.679965
	N242	N	0.948285	0.596606	0.320885
	N243	N	0.022430	0.425188	0.322288
	N244	N	0.397433	0.689398	0.963997
	N245	N	0.571623	0.689724	0.036407
	N246	N	0.573590	0.328117	0.965259
	N247	N	0.398740	0.330996	0.037320
	N248	N	0.664679	0.974531	0.412463
	N249	N	0.663798	0.046478	0.587774
	N250	N	0.303940	0.974571	0.585607
	N251	N	0.303114	0.047275	0.412636
	N252	N	0.899796	0.473326	0.178777
	N253	N	0.072073	0.546863	0.179644
	N254	N	0.071796	0.473395	0.819500
	N255	N	0.900788	0.548093	0.822442
	N256	N	0.161506	0.926123	0.462707
	N257	N	0.162122	0.097331	0.536815
	N258	N	0.805434	0.096431	0.463288
	N259	N	0.805657	0.925473	0.537665
	N260	N	0.447701	0.188619	0.915297
	N261	N	0.521973	0.190312	0.087810
	N262	N	0.448248	0.830166	0.086807
	N263	N	0.520582	0.829062	0.912344
	N264	N	0.446605	0.926296	0.176317
	N265	N	0.522036	0.096035	0.179009
	N266	N	0.446175	0.093289	0.824137
	N267	N	0.520395	0.922498	0.820441
	N268	N	0.897845	0.189649	0.462992
	N269	N	0.070396	0.190680	0.536420
	N270	N	0.070043	0.832577	0.463272
	N271	N	0.896861	0.831309	0.537166
	N272	N	0.164845	0.472610	0.913592
	N273	N	0.165047	0.546580	0.086406
	N274	N	0.806145	0.473027	0.085568
	N275	N	0.804213	0.545907	0.912143
	O276	O	0.999554	-0.072728	0.886230
	H277	H	0.994997	-0.089957	0.890567
	H278	H	1.006757	-0.069939	0.885217
	O279	O	0.406721	0.674567	0.461427
	H280	H	0.414811	0.686103	0.466901
	H281	H	0.391718	0.670987	0.466344
	O282	O	0.310053	0.329820	0.577805
	H283	H	0.287914	0.316965	0.570587
	H284	H	0.320845	0.342731	0.567340
	O285	O	0.553367	0.599819	0.348580
	H286	H	0.554723	0.586334	0.351046
	H287	H	0.540864	0.580804	0.356150
	O288	O	0.930142	-0.054773	0.055898
	H289	H	0.929211	-0.059656	0.052539
	H290	H	0.922073	-0.059427	0.049650
	O291	O	0.008311	0.024702	1.014812
	H292	H	0.004145	0.014724	1.010235
	H293	H	-0.001933	0.019219	1.007305
	O294	O	1.082104	0.979074	0.041963
	H295	H	1.074629	0.978825	0.040967
	H296	H	1.085729	0.982152	0.042391
	O297	O	0.996918	0.917744	-0.027073
	H298	H	1.000768	0.914252	-0.017718
	H299	H	1.010658	0.916254	-0.024635
	O300	O	0.466061	0.657940	0.661189
	H301	H	0.475026	0.666130	0.672381
	H302	H	0.483980	0.655472	0.666139
	O303	O	0.521708	0.534823	0.498235
	H304	H	0.524398	0.552121	0.513045
	H305	H	0.531507	0.510194	0.479983
	O306	O	0.627963	0.400942	0.465737
	H307	H	0.613504	0.409855	0.456563
	H308	H	0.634670	0.400543	0.478399
	O309	O	0.643749	0.510892	0.683403
	H310	H	0.643739	0.503073	0.689148
	H311	H	0.633573	0.508677	0.680682
	O312	O	1.523328	1.403526	0.515556
	H313	H	1.515650	1.407476	0.511003
	H314	H	1.513227	1.404550	0.528233
	O315	O	0.975305	1.004438	-0.062994
	H316	H	0.979825	1.005490	-0.073789
	H317	H	0.974495	1.006758	-0.063313
	O318	O	0.427843	0.420436	0.699779
	H319	H	0.403723	0.419118	0.713615
	H320	H	0.417541	0.430510	0.685916
	O321	O	0.438748	0.429954	0.405403
	H322	H	0.427743	0.438555	0.405071
	H323	H	0.431387	0.425884	0.411394
	O324	O	0.059227	1.033634	0.902394
	H325	H	0.065009	1.032871	0.900985
	H326	H	0.054247	1.033138	0.911181
	O327	O	-0.454135	0.395112	1.457392
	H328	H	-0.455876	0.386109	1.449036
	H329	H	-0.450186	0.420521	1.453552
	O330	O	-0.411335	0.691822	0.695449
	H331	H	-0.401460	0.702257	0.690219
	H332	H	-0.392788	0.667042	0.683741
	O333	O	0.661600	0.603253	0.513120
	H334	H	0.657902	0.615500	0.514215
	H335	H	0.658021	0.589693	0.510034
	O336	O	0.019230	0.008429	0.069113
	H337	H	0.024769	0.014806	0.072499
	H338	H	0.018849	0.014587	0.064287
	O339	O	0.497913	0.583895	-0.440234
	H340	H	0.484509	0.580989	-0.437319
	H341	H	0.499772	0.576824	-0.447897
	O342	O	0.486314	0.394344	0.486291
	H343	H	0.489333	0.396644	0.495670
	H344	H	0.497592	0.407456	0.477788
	O345	O	0.308000	0.638484	0.340916
	H346	H	0.296846	0.629736	0.331646
	H347	H	0.323045	0.641824	0.369376
	O348	O	0.646534	0.676791	0.579712
	H349	H	0.653596	0.678466	0.566872
	H350	H	0.651686	0.684224	0.568238
	O351	O	0.319592	0.690733	0.495152
	H352	H	0.324404	0.697732	0.495158
	H353	H	0.324935	0.686762	0.508939
	O354	O	-0.087419	0.954480	-0.048078
	H355	H	-0.098071	0.947066	-0.052515
	H356	H	-0.078556	0.950891	-0.048122
	O357	O	0.587054	0.407184	0.519854
	H358	H	0.599687	0.396274	0.498487
	H359	H	0.577373	0.412847	0.535925
	O360	O	0.964312	-0.116912	1.037064
	H361	H	0.963658	-0.126462	1.043973
	H362	H	0.964666	-0.110668	1.038890
	O363	O	0.331550	0.386305	0.575010
	H364	H	0.333637	0.373330	0.571593
	H365	H	0.331302	0.389936	0.551107
	O366	O	0.374070	0.440978	0.658055
	H367	H	0.390356	0.428294	0.660852
	H368	H	0.361307	0.441642	0.655705
	O369	O	1.011172	-0.016022	0.008143
	H370	H	1.008971	-0.019915	0.011354
	H371	H	1.008331	-0.013822	0.009888
	O372	O	0.657646	0.407119	0.316261
	H373	H	0.666896	0.415493	0.321660
	H374	H	0.658982	0.402993	0.314998
	O375	O	1.033716	0.065003	1.060216
	H376	H	1.026246	0.067186	1.075459
	H377	H	1.032008	0.057783	1.050061
	O378	O	0.536774	0.629626	0.328550
	H379	H	0.525395	0.631350	0.335290
	H380	H	0.535022	0.634487	0.328868
	O381	O	0.285432	0.468189	0.380971
	H382	H	0.274749	0.470598	0.369116
	H383	H	0.291750	0.468074	0.375513
	O384	O	1.378516	0.501266	0.511412
	H385	H	1.380645	0.494138	0.521324
	H386	H	1.369315	0.506185	0.517380
	O387	O	1.034875	-0.101337	0.998195
	H388	H	1.036329	-0.094679	0.995801
	H389	H	1.028317	-0.112256	0.996195
	O390	O	0.901651	0.938038	0.021151
	H391	H	0.911359	0.936478	0.014829
	H392	H	0.906871	0.941519	0.016982
	O393	O	0.459461	0.390153	0.349671
	H394	H	0.477732	0.385429	0.335642
	H395	H	0.459213	0.396595	0.339804
