data_Molecule from HDF5

_cell_length_a		16.436944
_cell_length_b		16.446038
_cell_length_c		16.596480
_cell_angle_alpha	89.854794
_cell_angle_beta	89.970885
_cell_angle_gamma	90.073504
_symmetry_space_group_name_H-M	'P 1'
_symmetry_Int_Tables_number		1

loop_
	_symmetry_equiv_pos_as_xyz
	x,y,z

loop_
	_atom_site_label
	_atom_site_type_symbol
	_atom_site_fract_x
	_atom_site_fract_y
	_atom_site_fract_z
	H0	H	0.392409	0.853606	0.722638
	H1	H	0.612231	0.163107	0.722666
	H2	H	0.613658	0.853006	0.270848
	H3	H	0.392530	0.163713	0.270668
	H4	H	0.726455	0.400889	0.843631
	H5	H	0.724748	0.612273	0.155788
	H6	H	0.281993	0.612562	0.841482
	H7	H	0.275601	0.397636	0.153048
	H8	H	0.844650	0.731417	0.389580
	H9	H	0.158450	0.731793	0.602858
	H10	H	0.844974	0.286422	0.601986
	H11	H	0.159939	0.285359	0.390125
	H12	H	0.845817	0.399420	0.720709
	H13	H	0.157242	0.617116	0.720882
	H14	H	0.845951	0.616171	0.273312
	H15	H	0.159163	0.398979	0.272824
	H16	H	0.396802	0.730116	0.842884
	H17	H	0.609837	0.730597	0.155559
	H18	H	0.608798	0.285735	0.842705
	H19	H	0.391729	0.281363	0.152669
	H20	H	0.726550	0.851500	0.389700
	H21	H	0.724496	0.165678	0.603561
	H22	H	0.278177	0.852372	0.604520
	H23	H	0.281553	0.166966	0.391109
	H24	H	0.894316	0.352356	0.223163
	H25	H	0.111274	0.665906	0.220452
	H26	H	0.109714	0.351778	0.773776
	H27	H	0.896251	0.665780	0.775841
	H28	H	0.226663	0.901630	0.340375
	H29	H	0.224706	0.113523	0.652319
	H30	H	0.779987	0.114689	0.340787
	H31	H	0.781262	0.903351	0.654118
	H32	H	0.344450	0.230643	0.890580
	H33	H	0.658822	0.229752	0.102614
	H34	H	0.343205	0.787462	0.103754
	H35	H	0.661414	0.788624	0.894048
	H36	H	0.345492	0.899520	0.221984
	H37	H	0.658298	0.116241	0.220419
	H38	H	0.344874	0.114269	0.775125
	H39	H	0.659275	0.901597	0.774970
	H40	H	0.897446	0.230656	0.340515
	H41	H	0.108227	0.229199	0.653050
	H42	H	0.108833	0.786333	0.339486
	H43	H	0.898482	0.787716	0.654266
	H44	H	0.222285	0.349692	0.893635
	H45	H	0.223910	0.666615	0.101953
	H46	H	0.781187	0.350439	0.105319
	H47	H	0.782362	0.667164	0.893868
	H48	H	0.417956	0.121598	0.589451
	H49	H	0.592793	0.894558	0.585342
	H50	H	0.598017	0.123051	0.409076
	H51	H	0.414248	0.895917	0.407850
	H52	H	0.587779	0.416928	0.109184
	H53	H	0.588352	0.598331	0.888236
	H54	H	0.412283	0.594908	0.111043
	H55	H	0.421088	0.424435	0.891127
	H56	H	0.114965	0.598869	0.411160
	H57	H	0.887408	0.596386	0.590010
	H58	H	0.115437	0.418337	0.583823
	H59	H	0.896545	0.432796	0.413284
	H60	H	0.113669	0.423852	0.585518
	H61	H	0.888450	0.599934	0.582516
	H62	H	0.113415	0.593381	0.408839
	H63	H	0.886063	0.419782	0.398724
	H64	H	0.414265	0.596708	0.110104
	H65	H	0.594087	0.600679	0.886392
	H66	H	0.593197	0.417480	0.111817
	H67	H	0.413784	0.410122	0.883842
	H68	H	0.584094	0.119990	0.400898
	H69	H	0.587540	0.895738	0.588879
	H70	H	0.416416	0.118992	0.581915
	H71	H	0.418830	0.897862	0.409539
	H72	H	0.918372	0.619511	0.086396
	H73	H	0.078930	0.397118	0.093441
	H74	H	0.081993	0.617466	0.909883
	H75	H	0.912464	0.393832	0.905924
	H76	H	0.095599	0.918420	0.609301
	H77	H	0.092006	0.099331	0.384174
	H78	H	0.915038	0.101545	0.609381
	H79	H	0.912624	0.921026	0.384212
	H80	H	0.612328	0.093814	0.914629
	H81	H	0.391856	0.089825	0.081159
	H82	H	0.614089	0.920975	0.085859
	H83	H	0.392130	0.921149	0.913596
	H84	H	0.615302	0.919629	0.086445
	H85	H	0.388246	0.091266	0.089978
	H86	H	0.614006	0.092084	0.905682
	H87	H	0.388837	0.923082	0.905266
	H88	H	0.908613	0.098016	0.610795
	H89	H	0.093094	0.095373	0.384386
	H90	H	0.090287	0.925740	0.605804
	H91	H	0.914753	0.922692	0.386281
	H92	H	0.097039	0.620907	0.914764
	H93	H	0.088284	0.400939	0.075338
	H94	H	0.914511	0.619661	0.082863
	H95	H	0.916237	0.396477	0.908418
	H96	H	0.411152	0.123212	0.585639
	H97	H	0.587288	0.897423	0.582641
	H98	H	0.585288	0.115711	0.416294
	H99	H	0.414685	0.897416	0.412993
	H100	H	0.590355	0.422271	0.109789
	H101	H	0.593266	0.594401	0.887585
	H102	H	0.412256	0.597267	0.111753
	H103	H	0.404322	0.425104	0.885126
	H104	H	0.115742	0.597638	0.405313
	H105	H	0.890744	0.592175	0.583881
	H106	H	0.116786	0.419663	0.589491
	H107	H	0.891125	0.412060	0.418267
	H108	H	0.913654	0.622172	0.087275
	H109	H	0.098824	0.391088	0.090633
	H110	H	0.093046	0.624516	0.899623
	H111	H	0.911834	0.395858	0.910896
	H112	H	0.086062	0.916648	0.607301
	H113	H	0.089030	0.096031	0.385263
	H114	H	0.914320	0.094463	0.608006
	H115	H	0.914957	0.919455	0.385835
	H116	H	0.615967	0.100615	0.909320
	H117	H	0.388324	0.098571	0.083564
	H118	H	0.614220	0.919480	0.085374
	H119	H	0.387919	0.914671	0.908489
	C120	C	0.380897	0.017739	0.619056
	C121	C	0.623019	0.999569	0.618571
	C122	C	0.624159	0.016778	0.374769
	C123	C	0.382110	1.000496	0.376290
	C124	C	0.623412	0.386415	0.007355
	C125	C	0.624517	0.630086	0.990634
	C126	C	0.380910	0.628927	0.007616
	C127	C	0.378936	0.385311	0.989346
	C128	C	0.010854	0.630159	0.375139
	C129	C	0.992962	0.629309	0.617713
	C130	C	0.011435	0.386725	0.619099
	C131	C	0.994682	0.387661	0.376571
	C132	C	0.882549	0.516534	0.118531
	C133	C	0.123321	0.500037	0.119145
	C134	C	0.123034	0.516589	0.876051
	C135	C	0.881064	0.499952	0.876597
	C136	C	0.124760	0.886443	0.504764
	C137	C	0.124020	0.129592	0.487792
	C138	C	0.880442	0.130601	0.505885
	C139	C	0.881117	0.887538	0.488759
	C140	C	0.510348	0.129029	0.876335
	C141	C	0.493050	0.127916	0.118296
	C142	C	0.510799	0.886285	0.119748
	C143	C	0.494054	0.886813	0.876725
	C144	C	0.375782	0.900143	0.681196
	C145	C	0.628356	0.116880	0.680887
	C146	C	0.630008	0.899892	0.311834
	C147	C	0.376893	0.117688	0.313099
	C148	C	0.685337	0.383268	0.890235
	C149	C	0.685032	0.631767	0.108536
	C150	C	0.321363	0.631180	0.889108
	C151	C	0.316633	0.380431	0.106166
	C152	C	0.892311	0.691278	0.371528
	C153	C	0.111434	0.690733	0.620645
	C154	C	0.892628	0.325724	0.621113
	C155	C	0.112846	0.325921	0.372569
	C156	C	0.893043	0.382257	0.679990
	C157	C	0.110712	0.633914	0.679412
	C158	C	0.892845	0.634000	0.313555
	C159	C	0.112324	0.382714	0.314095
	C160	C	0.378517	0.689751	0.889664
	C161	C	0.627318	0.690232	0.108510
	C162	C	0.626814	0.325846	0.889693
	C163	C	0.374390	0.322210	0.105921
	C164	C	0.686211	0.898996	0.371276
	C165	C	0.684645	0.117873	0.621740
	C166	C	0.318481	0.899943	0.622909
	C167	C	0.321255	0.119066	0.372712
	C168	C	0.878100	0.398751	0.181064
	C169	C	0.128409	0.618336	0.180226
	C170	C	0.126767	0.398532	0.814941
	C171	C	0.878191	0.618496	0.816031
	C172	C	0.186238	0.883615	0.387425
	C173	C	0.184458	0.131939	0.605668
	C174	C	0.820021	0.133033	0.387958
	C175	C	0.821262	0.885044	0.606943
	C176	C	0.391932	0.190048	0.872771
	C177	C	0.611252	0.189668	0.121017
	C178	C	0.391380	0.826714	0.122096
	C179	C	0.613286	0.827634	0.875167
	C180	C	0.392839	0.882110	0.181586
	C181	C	0.610929	0.133096	0.179817
	C182	C	0.392039	0.132463	0.815062
	C183	C	0.612175	0.883750	0.815638
	C184	C	0.878634	0.190607	0.387562
	C185	C	0.126511	0.189494	0.605564
	C186	C	0.127518	0.825887	0.387225
	C187	C	0.879318	0.827265	0.606817
	C188	C	0.182650	0.397385	0.874758
	C189	C	0.184333	0.618975	0.120864
	C190	C	0.821591	0.397804	0.122284
	C191	C	0.821588	0.619040	0.875079
	C192	C	0.407614	0.099852	0.593055
	C193	C	0.596696	0.917310	0.592851
	C194	C	0.597007	0.098315	0.401128
	C195	C	0.408529	0.918468	0.402637
	C196	C	0.597595	0.411745	0.088863
	C197	C	0.599087	0.605148	0.908836
	C198	C	0.405901	0.603537	0.089493
	C199	C	0.405326	0.412132	0.907888
	C200	C	0.093242	0.604149	0.401000
	C201	C	0.910505	0.603532	0.592647
	C202	C	0.093759	0.413075	0.593705
	C203	C	0.912673	0.413952	0.402692
	C204	C	0.908449	0.599070	0.092775
	C205	C	0.096545	0.417892	0.093729
	C206	C	0.097797	0.599380	0.900964
	C207	C	0.906296	0.416912	0.901176
	C208	C	0.098280	0.912660	0.586201
	C209	C	0.098692	0.104226	0.405935
	C210	C	0.905497	0.105362	0.588082
	C211	C	0.906728	0.913590	0.406703
	C212	C	0.592677	0.102939	0.902479
	C213	C	0.411002	0.100869	0.092405
	C214	C	0.593014	0.912537	0.093499
	C215	C	0.411202	0.912299	0.901915
	Zn216	Zn	0.502289	0.008345	0.747701
	Zn217	Zn	0.501943	0.007920	0.247130
	Zn218	Zn	0.753040	0.507859	-0.000905
	Zn219	Zn	0.251520	0.507965	-0.002113
	Zn220	Zn	0.001413	0.758064	0.496306
	Zn221	Zn	0.003247	0.258917	0.496786
	Zn222	Zn	0.002105	0.508175	0.747223
	Zn223	Zn	0.002798	0.508759	0.247830
	Zn224	Zn	0.502220	0.758425	-0.000782
	Zn225	Zn	0.501348	0.257346	-0.002410
	Zn226	Zn	0.751685	0.007958	0.497703
	Zn227	Zn	0.253304	0.009102	0.496414
	N228	N	0.413850	0.974540	0.678854
	N229	N	0.590783	0.042303	0.679259
	N230	N	0.591918	0.974184	0.314147
	N231	N	0.414029	0.042945	0.315263
	N232	N	0.683630	0.420007	0.964401
	N233	N	0.683550	0.595314	0.034278
	N234	N	0.322545	0.594204	0.963411
	N235	N	0.319319	0.418785	0.032647
	N236	N	0.966775	0.689146	0.408902
	N237	N	0.037191	0.687931	0.582797
	N238	N	0.967293	0.328313	0.583853
	N239	N	0.038784	0.328927	0.410791
	N240	N	0.967980	0.419292	0.679007
	N241	N	0.036053	0.596429	0.677789
	N242	N	0.967640	0.596800	0.315706
	N243	N	0.037838	0.420526	0.316497
	N244	N	0.414733	0.688742	0.964231
	N245	N	0.590783	0.689715	0.034043
	N246	N	0.589066	0.327460	0.963510
	N247	N	0.412565	0.325315	0.032228
	N248	N	0.682722	0.972720	0.409830
	N249	N	0.681104	0.044067	0.583343
	N250	N	0.321619	0.974087	0.584768
	N251	N	0.324633	0.045253	0.411605
	N252	N	0.915410	0.473599	0.178761
	N253	N	0.091448	0.543303	0.179533
	N254	N	0.090568	0.473723	0.815691
	N255	N	0.914224	0.543033	0.816630
	N256	N	0.184907	0.920153	0.461848
	N257	N	0.183111	0.095462	0.531430
	N258	N	0.820660	0.096666	0.462611
	N259	N	0.822290	0.921694	0.532463
	N260	N	0.466665	0.188390	0.910037
	N261	N	0.536718	0.186942	0.083539
	N262	N	0.465895	0.828963	0.084597
	N263	N	0.538622	0.829336	0.912587
	N264	N	0.468339	0.918216	0.180419
	N265	N	0.536291	0.095664	0.178129
	N266	N	0.466846	0.095465	0.817223
	N267	N	0.536837	0.919592	0.816471
	N268	N	0.915162	0.189378	0.461948
	N269	N	0.089702	0.188142	0.531327
	N270	N	0.090300	0.827224	0.461339
	N271	N	0.915416	0.828498	0.532041
	N272	N	0.180533	0.471873	0.912111
	N273	N	0.181451	0.544325	0.083720
	N274	N	0.824181	0.472011	0.084019
	N275	N	0.823121	0.544216	0.912025
	O276	O	0.524058	0.524671	0.292403
	H277	H	0.528798	0.533064	0.300537
	H278	H	0.523297	0.528651	0.293154
	O279	O	0.328189	0.681618	0.691101
	H280	H	0.323665	0.654000	0.663740
	H281	H	0.341874	0.683666	0.697079
	O282	O	1.061604	0.934736	0.207107
	H283	H	1.064271	0.964837	0.208634
	H284	H	1.067234	0.934225	0.202780
	O285	O	0.292596	0.300900	0.530491
	H286	H	0.294342	0.294434	0.523012
	H287	H	0.282088	0.293249	0.526985
	O288	O	-0.222738	0.233825	-0.220122
	H289	H	-0.226811	0.193902	-0.220249
	H290	H	-0.230305	0.239641	-0.205925
	O291	O	1.490034	0.409642	0.381573
	H292	H	1.481247	0.420074	0.386313
	H293	H	1.499008	0.412891	0.381797
	O294	O	0.178606	1.185767	0.177166
	H295	H	0.173046	1.171102	0.177600
	H296	H	0.148065	1.198294	0.179856
	O297	O	0.525355	0.389141	0.520520
	H298	H	0.526272	0.391089	0.519099
	H299	H	0.513766	0.398410	0.528624
	O300	O	0.509643	0.574830	0.682068
	H301	H	0.510468	0.579178	0.685998
	H302	H	0.517462	0.575134	0.679553
	O303	O	0.699211	0.726922	0.506163
	H304	H	0.715499	0.757305	0.508282
	H305	H	0.684014	0.719132	0.547938
	O306	O	-0.000856	1.032384	0.799441
	H307	H	-0.011842	1.038407	0.813719
	H308	H	0.002010	1.033248	0.803746
	O309	O	0.423726	0.601894	0.480808
	H310	H	0.425220	0.605233	0.475502
	H311	H	0.419566	0.605515	0.471886
	O312	O	0.715302	0.498086	0.670416
	H313	H	0.739927	0.488852	0.698507
	H314	H	0.703233	0.488367	0.653092
	O315	O	0.011425	0.209281	1.194340
	H316	H	0.008012	0.214018	1.198187
	H317	H	-0.004238	0.199064	1.188209
	O318	O	-0.116054	1.211179	0.110539
	H319	H	-0.091664	1.214763	0.088200
	H320	H	-0.117530	1.221950	0.134245
	O321	O	0.704344	0.489300	0.297305
	H322	H	0.712976	0.482424	0.276550
	H323	H	0.701589	0.502632	0.322813
	O324	O	0.868180	-0.078972	0.799685
	H325	H	0.886910	-0.086931	0.812748
	H326	H	0.869866	-0.073015	0.810458
	O327	O	0.949938	-0.203382	0.964586
	H328	H	0.960418	-0.203826	0.990344
	H329	H	0.920734	-0.208062	0.990547
	O330	O	0.834223	0.077174	-0.147132
	H331	H	0.833324	0.058161	-0.145120
	H332	H	0.808305	0.072432	-0.152200
	O333	O	0.698892	0.649754	0.598957
	H334	H	0.711642	0.636499	0.612639
	H335	H	0.698067	0.644864	0.612828
	O336	O	0.980772	0.223567	0.784342
	H337	H	0.986082	0.245703	0.770935
	H338	H	0.966529	0.213708	0.781558
	O339	O	0.313781	0.317856	0.693628
	H340	H	0.323107	0.339071	0.680809
	H341	H	0.304159	0.316350	0.683392
	O342	O	0.640468	0.428647	0.599031
	H343	H	0.642147	0.421036	0.601376
	H344	H	0.637330	0.435119	0.588983
	O345	O	0.210970	0.214576	-0.027650
	H346	H	0.216927	0.221102	-0.008032
	H347	H	0.214637	0.211449	-0.012331
	O348	O	0.977644	-0.209531	1.212766
	H349	H	0.982301	-0.211122	1.223489
	H350	H	0.988612	-0.212622	1.234656
	O351	O	0.976107	1.213906	-0.088385
	H352	H	1.001050	1.222103	-0.102312
	H353	H	0.987446	1.197293	-0.096329
	O354	O	0.469189	0.374701	0.402249
	H355	H	0.488966	0.367219	0.395131
	H356	H	0.478499	0.389388	0.390503
	O357	O	1.199669	0.795831	0.956825
	H358	H	1.201407	0.797125	0.939973
	H359	H	1.213464	0.776714	0.937057
	O360	O	0.316796	0.690299	0.314399
	H361	H	0.349955	0.701296	0.320395
	H362	H	0.307341	0.638162	0.304087
	O363	O	0.484102	0.374338	0.709586
	H364	H	0.478139	0.378730	0.706932
	H365	H	0.464719	0.377828	0.719719
	O366	O	1.136481	0.159222	0.867880
	H367	H	1.138076	0.172930	0.852370
	H368	H	1.132726	0.153088	0.876502
	O369	O	0.282358	0.729033	0.469857
	H370	H	0.281612	0.725690	0.433350
	H371	H	0.256898	0.751902	0.475707
	O372	O	0.283327	0.525508	0.290113
	H373	H	0.296651	0.499432	0.295921
	H374	H	0.257850	0.522062	0.266262
	O375	O	-0.028710	0.961305	0.992161
	H376	H	-0.015343	0.958676	0.992960
	H377	H	-0.011008	0.951275	1.005653
	O378	O	0.527042	0.293294	0.275007
	H379	H	0.538051	0.305008	0.288356
	H380	H	0.534707	0.261247	0.248085
	O381	O	1.199055	-0.187290	-0.199636
	H382	H	1.157609	-0.191024	-0.196163
	H383	H	1.217775	-0.180231	-0.220879
	O384	O	0.022389	-0.189483	0.795438
	H385	H	0.004095	-0.189938	0.801434
	H386	H	0.019830	-0.191845	0.798000
	O387	O	-0.185616	0.825336	1.182738
	H388	H	-0.168180	0.830789	1.198143
	H389	H	-0.172316	0.856803	1.195797
	O390	O	-0.208657	0.220485	0.975277
	H391	H	-0.184779	0.220408	0.963658
	H392	H	-0.238570	0.257120	0.975955
	O393	O	0.794860	0.990243	0.199804
	H394	H	0.791111	1.010603	0.158801
	H395	H	0.761351	0.999949	0.225393
	O396	O	0.421360	0.358176	0.579201
	H397	H	0.412529	0.377396	0.581671
	H398	H	0.423838	0.349618	0.586605
	O399	O	0.571462	0.432828	0.530046
	H400	H	0.562148	0.427802	0.522531
	H401	H	0.562990	0.437803	0.514743
	O402	O	0.217094	0.058157	0.949549
	H403	H	0.214015	0.045726	0.931389
	H404	H	0.218748	0.075047	0.943819
	O405	O	0.206065	-0.065184	0.066860
	H406	H	0.213854	-0.080974	0.050331
	H407	H	0.200853	-0.062213	0.057016
	O408	O	0.787683	1.054835	1.038182
	H409	H	0.789456	1.062430	1.020288
	H410	H	0.791304	1.065769	1.019970
	O411	O	0.588353	0.562188	0.503210
	H412	H	0.584702	0.578266	0.511244
	H413	H	0.588950	0.552307	0.485188
	O414	O	0.553639	0.484278	0.679097
	H415	H	0.563332	0.480284	0.664844
	H416	H	0.535224	0.473472	0.699169
	O417	O	0.514016	0.709281	0.457076
	H418	H	0.516692	0.710174	0.471225
	H419	H	0.503331	0.712095	0.461895
	O420	O	0.720373	0.289661	0.462995
	H421	H	0.733653	0.264750	0.472529
	H422	H	0.706500	0.280987	0.485199
	O423	O	-0.399399	0.616090	0.363447
	H424	H	-0.410831	0.633906	0.367954
	H425	H	-0.377677	0.624222	0.381687
	O426	O	0.952045	1.051605	1.200138
	H427	H	0.931724	1.042455	1.199056
	H428	H	0.941171	1.051814	1.182718
	O429	O	0.205805	0.030565	0.210164
	H430	H	0.212871	0.046534	0.212815
	H431	H	0.222571	0.026747	0.199157
	O432	O	0.557202	0.724287	0.709680
	H433	H	0.568247	0.704819	0.709290
	H434	H	0.564394	0.744164	0.737373
	O435	O	0.040641	0.069568	-0.024046
	H436	H	0.038019	0.075505	-0.015856
	H437	H	0.064350	0.071628	-0.005361
	O438	O	1.059978	-0.153297	0.034955
	H439	H	1.059426	-0.170259	0.044939
	H440	H	1.089977	-0.149718	0.030247
	O441	O	0.286382	0.484044	0.710536
	H442	H	0.295289	0.481987	0.693383
	H443	H	0.255613	0.489913	0.725877
	O444	O	0.203529	0.982181	0.793646
	H445	H	0.206967	0.979462	0.775106
	H446	H	0.195336	0.975985	0.789462
	O447	O	0.476389	0.730355	0.279042
	H448	H	0.462697	0.755834	0.259975
	H449	H	0.493955	0.744864	0.297613
	O450	O	0.381043	0.504161	0.474680
	H451	H	0.389564	0.511035	0.465760
	H452	H	0.387514	0.495733	0.469685
	O453	O	0.696658	0.321273	0.301335
	H454	H	0.704780	0.331034	0.331251
	H455	H	0.679130	0.325567	0.314412
	O456	O	0.782226	-0.212253	0.025760
	H457	H	0.755020	-0.239847	0.042014
	H458	H	0.784994	-0.210705	0.066292
	O459	O	0.500755	0.692420	0.553450
	H460	H	0.482858	0.691832	0.563281
	H461	H	0.497324	0.689555	0.571668
	O462	O	0.359266	0.372248	0.429442
	H463	H	0.363117	0.382576	0.428241
	H464	H	0.359540	0.364890	0.446385
	O465	O	0.811853	-0.067547	-0.082460
	H466	H	0.835493	-0.066838	-0.065229
	H467	H	0.808112	-0.096181	-0.057554
