data_Molecule from HDF5

_cell_length_a		16.280259
_cell_length_b		16.611881
_cell_length_c		16.335363
_cell_angle_alpha	89.923932
_cell_angle_beta	89.965278
_cell_angle_gamma	90.023914
_symmetry_space_group_name_H-M	'P 1'
_symmetry_Int_Tables_number		1

loop_
	_symmetry_equiv_pos_as_xyz
	x,y,z

loop_
	_atom_site_label
	_atom_site_type_symbol
	_atom_site_fract_x
	_atom_site_fract_y
	_atom_site_fract_z
	H0	H	0.388908	0.836418	0.727336
	H1	H	0.598256	0.151746	0.725741
	H2	H	0.599200	0.835957	0.284403
	H3	H	0.388972	0.151688	0.283462
	H4	H	0.713918	0.393806	0.846990
	H5	H	0.709990	0.596072	0.168682
	H6	H	0.274871	0.595638	0.846213
	H7	H	0.274366	0.389245	0.166801
	H8	H	0.834430	0.716823	0.400888
	H9	H	0.153445	0.715482	0.614344
	H10	H	0.835845	0.270180	0.617981
	H11	H	0.152801	0.273068	0.400137
	H12	H	0.833732	0.391467	0.727214
	H13	H	0.155428	0.596152	0.725797
	H14	H	0.831966	0.597459	0.289053
	H15	H	0.154548	0.392669	0.289710
	H16	H	0.385693	0.716857	0.847280
	H17	H	0.602822	0.718249	0.163992
	H18	H	0.603418	0.273235	0.848190
	H19	H	0.387183	0.270102	0.164751
	H20	H	0.716418	0.836369	0.400483
	H21	H	0.717274	0.150362	0.611553
	H22	H	0.274722	0.834943	0.608317
	H23	H	0.272903	0.152329	0.401672
	H24	H	0.884941	0.338951	0.231988
	H25	H	0.097902	0.651446	0.227292
	H26	H	0.102163	0.337898	0.782996
	H27	H	0.886099	0.651192	0.782969
	H28	H	0.210129	0.893644	0.346495
	H29	H	0.211759	0.095909	0.667080
	H30	H	0.775522	0.095741	0.345392
	H31	H	0.771159	0.888687	0.666283
	H32	H	0.337149	0.217549	0.899040
	H33	H	0.654292	0.216730	0.114506
	H34	H	0.336978	0.771346	0.111898
	H35	H	0.654080	0.771735	0.895831
	H36	H	0.334333	0.890547	0.224234
	H37	H	0.654716	0.098799	0.227855
	H38	H	0.333573	0.095768	0.789040
	H39	H	0.656439	0.892687	0.786637
	H40	H	0.882331	0.220000	0.350289
	H41	H	0.101437	0.216672	0.665420
	H42	H	0.100907	0.771155	0.350657
	H43	H	0.881994	0.769067	0.665335
	H44	H	0.219377	0.338079	0.899040
	H45	H	0.215503	0.651369	0.109985
	H46	H	0.769644	0.339088	0.115141
	H47	H	0.773044	0.653492	0.903242
	H48	H	0.404236	0.104898	0.594316
	H49	H	0.576421	0.883929	0.595567
	H50	H	0.578138	0.105824	0.407703
	H51	H	0.401302	0.879481	0.411024
	H52	H	0.585717	0.401517	0.123245
	H53	H	0.577042	0.582753	0.894423
	H54	H	0.409542	0.584119	0.118928
	H55	H	0.405363	0.402829	0.891414
	H56	H	0.107167	0.585543	0.421850
	H57	H	0.878359	0.581281	0.601330
	H58	H	0.112596	0.397635	0.600469
	H59	H	0.879180	0.409073	0.415413
	H60	H	0.105906	0.402272	0.585133
	H61	H	0.878839	0.588889	0.592729
	H62	H	0.106894	0.581807	0.419362
	H63	H	0.877138	0.399500	0.421066
	H64	H	0.407934	0.586277	0.120066
	H65	H	0.583764	0.590841	0.889608
	H66	H	0.581292	0.409865	0.118858
	H67	H	0.406652	0.409462	0.894466
	H68	H	0.576992	0.100153	0.424669
	H69	H	0.585239	0.882662	0.589892
	H70	H	0.400875	0.107134	0.596278
	H71	H	0.406364	0.883374	0.415357
	H72	H	0.904737	0.607001	0.098280
	H73	H	0.084827	0.379213	0.103719
	H74	H	0.084013	0.606291	0.915013
	H75	H	0.901984	0.384091	0.919741
	H76	H	0.082722	0.905894	0.622190
	H77	H	0.086462	0.088992	0.389482
	H78	H	0.905871	0.087020	0.621912
	H79	H	0.906036	0.900576	0.393254
	H80	H	0.609857	0.086744	0.916793
	H81	H	0.381444	0.082463	0.094996
	H82	H	0.609135	0.905593	0.092584
	H83	H	0.379172	0.895842	0.919284
	H84	H	0.609098	0.904636	0.093335
	H85	H	0.381769	0.084266	0.090880
	H86	H	0.609142	0.083653	0.918732
	H87	H	0.384714	0.907929	0.923352
	H88	H	0.902624	0.079835	0.620107
	H89	H	0.082525	0.079521	0.393826
	H90	H	0.079423	0.903955	0.621675
	H91	H	0.905419	0.906020	0.394365
	H92	H	0.080148	0.604732	0.918404
	H93	H	0.078085	0.383515	0.097529
	H94	H	0.904739	0.606650	0.096877
	H95	H	0.907022	0.383287	0.916515
	H96	H	0.404191	0.106097	0.598514
	H97	H	0.585251	0.879893	0.599555
	H98	H	0.592418	0.107710	0.418533
	H99	H	0.399134	0.882348	0.418101
	H100	H	0.575168	0.401154	0.119962
	H101	H	0.588422	0.580528	0.892417
	H102	H	0.406311	0.583458	0.119629
	H103	H	0.412199	0.404571	0.894263
	H104	H	0.108084	0.585226	0.417241
	H105	H	0.883041	0.578572	0.591008
	H106	H	0.106297	0.413549	0.598196
	H107	H	0.882857	0.407695	0.426556
	H108	H	0.903796	0.607344	0.097592
	H109	H	0.087860	0.381986	0.093779
	H110	H	0.085022	0.605127	0.919828
	H111	H	0.907676	0.385799	0.921832
	H112	H	0.082718	0.902010	0.623573
	H113	H	0.076608	0.089174	0.393536
	H114	H	0.910438	0.081213	0.617869
	H115	H	0.910342	0.903624	0.395658
	H116	H	0.609751	0.083224	0.915382
	H117	H	0.384007	0.080309	0.091149
	H118	H	0.608958	0.905085	0.092031
	H119	H	0.379393	0.906082	0.910663
	C120	C	0.371325	0.002007	0.628528
	C121	C	0.615725	0.985627	0.627280
	C122	C	0.615577	0.001275	0.383967
	C123	C	0.370941	0.985753	0.383303
	C124	C	0.615270	0.372953	0.015698
	C125	C	0.615317	0.616349	0.997797
	C126	C	0.374375	0.615754	0.014370
	C127	C	0.374209	0.372563	0.998301
	C128	C	0.001807	0.615790	0.386820
	C129	C	0.985370	0.615199	0.628414
	C130	C	0.002774	0.372431	0.628556
	C131	C	0.984636	0.373490	0.387145
	C132	C	0.871272	0.503568	0.130420
	C133	C	0.115771	0.485631	0.129034
	C134	C	0.116425	0.502168	0.884951
	C135	C	0.872456	0.487585	0.886231
	C136	C	0.113501	0.873404	0.516505
	C137	C	0.114364	0.116334	0.498060
	C138	C	0.873009	0.114988	0.514712
	C139	C	0.872976	0.871668	0.499110
	C140	C	0.503561	0.115902	0.885050
	C141	C	0.487344	0.114851	0.126093
	C142	C	0.503763	0.873004	0.125644
	C143	C	0.486775	0.872407	0.884424
	C144	C	0.370435	0.883278	0.687306
	C145	C	0.617540	0.104030	0.686707
	C146	C	0.618158	0.883405	0.323699
	C147	C	0.369991	0.104244	0.323339
	C148	C	0.675432	0.373293	0.895486
	C149	C	0.672826	0.616394	0.119407
	C150	C	0.313971	0.615859	0.894213
	C151	C	0.313783	0.370504	0.118477
	C152	C	0.881840	0.676081	0.383693
	C153	C	0.105502	0.675300	0.631973
	C154	C	0.883270	0.311571	0.633733
	C155	C	0.104932	0.313555	0.383375
	C156	C	0.882337	0.371521	0.688790
	C157	C	0.106660	0.615988	0.687460
	C158	C	0.880608	0.617024	0.327737
	C159	C	0.105908	0.373067	0.328108
	C160	C	0.369541	0.675963	0.894765
	C161	C	0.619483	0.677405	0.116996
	C162	C	0.620167	0.313545	0.895868
	C163	C	0.369906	0.311023	0.117383
	C164	C	0.676465	0.883523	0.381560
	C165	C	0.676894	0.103342	0.629799
	C166	C	0.313465	0.882817	0.628006
	C167	C	0.312008	0.104597	0.382198
	C168	C	0.867597	0.386127	0.191671
	C169	C	0.117182	0.604238	0.187897
	C170	C	0.120376	0.384754	0.823336
	C171	C	0.869003	0.604787	0.824429
	C172	C	0.171646	0.873649	0.395190
	C173	C	0.173593	0.116211	0.618654
	C174	C	0.813732	0.115727	0.394224
	C175	C	0.811174	0.869912	0.618431
	C176	C	0.384120	0.176131	0.881972
	C177	C	0.606649	0.176261	0.131403
	C178	C	0.384066	0.812485	0.129060
	C179	C	0.606743	0.812596	0.880000
	C180	C	0.382764	0.871631	0.184965
	C181	C	0.607007	0.117313	0.187728
	C182	C	0.382302	0.115768	0.827063
	C183	C	0.607762	0.872670	0.825330
	C184	C	0.867251	0.177341	0.396619
	C185	C	0.118146	0.175947	0.617917
	C186	C	0.117378	0.812879	0.397187
	C187	C	0.866588	0.810146	0.617948
	C188	C	0.178372	0.384871	0.881601
	C189	C	0.175468	0.604078	0.129371
	C190	C	0.810043	0.386062	0.133125
	C191	C	0.812424	0.605748	0.884271
	C192	C	0.396069	0.084595	0.603638
	C193	C	0.589851	0.903567	0.602259
	C194	C	0.589944	0.083131	0.409595
	C195	C	0.395244	0.903218	0.407801
	C196	C	0.588536	0.397060	0.099074
	C197	C	0.590209	0.591810	0.914071
	C198	C	0.400349	0.591507	0.097659
	C199	C	0.400528	0.398151	0.915289
	C200	C	0.085500	0.591230	0.412153
	C201	C	0.901779	0.590013	0.602573
	C202	C	0.086429	0.397404	0.602122
	C203	C	0.901425	0.398225	0.413349
	C204	C	0.897201	0.585545	0.105070
	C205	C	0.090826	0.402969	0.105052
	C206	C	0.090501	0.583936	0.910408
	C207	C	0.898050	0.405660	0.912032
	C208	C	0.088722	0.897257	0.600517
	C209	C	0.089061	0.092680	0.414157
	C210	C	0.898787	0.089853	0.598121
	C211	C	0.899664	0.896242	0.416032
	C212	C	0.587746	0.091459	0.909961
	C213	C	0.404051	0.089661	0.099657
	C214	C	0.587411	0.898051	0.100126
	C215	C	0.402814	0.896410	0.910234
	Zn216	Zn	0.494356	-0.006297	0.757170
	Zn217	Zn	0.494676	-0.006315	0.254498
	Zn218	Zn	0.742295	0.495691	0.007747
	Zn219	Zn	0.246132	0.493784	0.007008
	Zn220	Zn	-0.006253	0.743354	0.508153
	Zn221	Zn	-0.006604	0.244884	0.507409
	Zn222	Zn	-0.006030	0.494342	0.756019
	Zn223	Zn	-0.006501	0.494913	0.259341
	Zn224	Zn	0.495743	0.744347	0.004745
	Zn225	Zn	0.495566	0.244190	0.006117
	Zn226	Zn	0.745199	-0.006962	0.505690
	Zn227	Zn	0.241835	-0.005793	0.506987
	N228	N	0.405494	0.958591	0.687965
	N229	N	0.580245	0.029716	0.685380
	N230	N	0.581177	0.957730	0.325061
	N231	N	0.405789	0.029233	0.323603
	N232	N	0.672809	0.409325	0.971188
	N233	N	0.670524	0.579261	0.044269
	N234	N	0.316929	0.579150	0.969443
	N235	N	0.316411	0.408025	0.043442
	N236	N	0.958156	0.675647	0.419482
	N237	N	0.029073	0.674976	0.596133
	N238	N	0.959315	0.312021	0.597297
	N239	N	0.028454	0.313498	0.419179
	N240	N	0.957758	0.408627	0.685587
	N241	N	0.030814	0.579406	0.685462
	N242	N	0.956273	0.580285	0.329468
	N243	N	0.030222	0.409693	0.330193
	N244	N	0.406557	0.676054	0.970386
	N245	N	0.584663	0.677560	0.040279
	N246	N	0.583614	0.313221	0.971633
	N247	N	0.406760	0.312266	0.041664
	N248	N	0.675040	0.957738	0.418353
	N249	N	0.675952	0.028654	0.593717
	N250	N	0.313786	0.957830	0.592424
	N251	N	0.312166	0.029919	0.418457
	N252	N	0.905050	0.460223	0.189885
	N253	N	0.080894	0.529496	0.187969
	N254	N	0.082307	0.458530	0.825485
	N255	N	0.905960	0.530354	0.825802
	N256	N	0.169271	0.910680	0.470236
	N257	N	0.171286	0.079598	0.543301
	N258	N	0.816913	0.077741	0.468858
	N259	N	0.814937	0.907468	0.543543
	N260	N	0.460637	0.176297	0.917244
	N261	N	0.531287	0.174641	0.093450
	N262	N	0.460307	0.813193	0.092938
	N263	N	0.530401	0.812332	0.916007
	N264	N	0.458166	0.908806	0.182790
	N265	N	0.531838	0.079989	0.184664
	N266	N	0.457873	0.079092	0.828722
	N267	N	0.532043	0.909086	0.827928
	N268	N	0.903184	0.177191	0.472733
	N269	N	0.082208	0.176170	0.541772
	N270	N	0.082137	0.812326	0.473673
	N271	N	0.904480	0.811313	0.542743
	N272	N	0.175969	0.458690	0.919338
	N273	N	0.174817	0.529277	0.093805
	N274	N	0.812009	0.460058	0.095639
	N275	N	0.814410	0.531802	0.922061
	O276	O	0.499591	0.566639	0.579544
	H277	H	0.496053	0.550579	0.583726
	H278	H	0.490305	0.576410	0.579316
	O279	O	0.301155	0.306029	0.545613
	H280	H	0.295843	0.314713	0.555825
	H281	H	0.292115	0.312414	0.524761
	O282	O	0.662035	0.458951	0.594431
	H283	H	0.656285	0.460182	0.598096
	H284	H	0.662962	0.447118	0.586286
	O285	O	0.951373	0.839041	0.140040
	H286	H	0.931747	0.849130	0.137668
	H287	H	0.950643	0.831452	0.139529
	O288	O	0.405537	0.591650	0.451644
	H289	H	0.403144	0.601713	0.446167
	H290	H	0.400679	0.587016	0.442834
	O291	O	0.681527	0.620774	0.508606
	H292	H	0.662202	0.629544	0.502099
	H293	H	0.687947	0.637630	0.499514
	O294	O	1.198708	1.202226	1.026695
	H295	H	1.202786	1.209088	1.015704
	H296	H	1.193031	1.216866	1.006835
	O297	O	0.816996	-0.146420	0.026201
	H298	H	0.803910	-0.129281	0.021805
	H299	H	0.808816	-0.158680	0.017266
	O300	O	0.594694	0.640294	0.636015
	H301	H	0.595015	0.629503	0.638005
	H302	H	0.591962	0.635515	0.613442
	O303	O	0.633460	0.381446	0.654432
	H304	H	0.635828	0.379605	0.643768
	H305	H	0.632234	0.385345	0.651680
	O306	O	0.186883	-0.017626	0.814311
	H307	H	0.192175	-0.012051	0.789966
	H308	H	0.166317	-0.002708	0.826867
	O309	O	0.969059	-0.211929	-0.004759
	H310	H	0.969492	-0.217026	-0.004901
	H311	H	0.961556	-0.220877	-0.006241
	O312	O	0.361992	0.663678	0.540134
	H313	H	0.346180	0.671857	0.524890
	H314	H	0.373315	0.669131	0.538049
	O315	O	0.441044	0.564201	0.489486
	H316	H	0.435481	0.564472	0.481448
	H317	H	0.454104	0.555463	0.492029
	O318	O	0.178966	0.099043	0.192995
	H319	H	0.186854	0.065736	0.203610
	H320	H	0.183216	0.091821	0.167215
	O321	O	0.596920	0.583522	0.596350
	H322	H	0.595239	0.575389	0.587567
	H323	H	0.595902	0.584568	0.591077
	O324	O	1.198637	0.030228	0.969713
	H325	H	1.195503	0.034587	0.987376
	H326	H	1.194485	0.026073	0.950723
	O327	O	0.373330	0.527181	0.688488
	H328	H	0.361287	0.516802	0.683719
	H329	H	0.388241	0.534921	0.696141
	O330	O	0.154012	0.831697	1.184553
	H331	H	0.139324	0.845756	1.174175
	H332	H	0.123706	0.828700	1.171385
	O333	O	-0.209436	1.197349	0.004028
	H334	H	-0.184500	1.203838	0.025329
	H335	H	-0.227268	1.230155	0.008729
	O336	O	1.010568	1.216328	0.222723
	H337	H	1.019753	1.245898	0.258006
	H338	H	1.059419	1.205608	0.214208
	O339	O	0.401497	1.432001	0.654270
	H340	H	0.400163	1.421558	0.656591
	H341	H	0.390354	1.430958	0.666927
	O342	O	0.412181	0.696695	0.332297
	H343	H	0.408308	0.709297	0.334426
	H344	H	0.422041	0.695082	0.323830
	O345	O	-0.115434	-0.000348	1.150952
	H346	H	-0.136594	0.007630	1.159833
	H347	H	-0.104897	0.010558	1.146843
	O348	O	0.480892	0.475783	0.358102
	H349	H	0.477112	0.488169	0.358494
	H350	H	0.495592	0.462030	0.359474
	O351	O	0.925164	1.209195	0.052427
	H352	H	0.945016	1.208123	0.064125
	H353	H	0.944065	1.213422	0.064608
	O354	O	0.820256	0.890529	1.085590
	H355	H	0.814109	0.920125	1.093323
	H356	H	0.816585	0.889685	1.056775
	O357	O	-0.482117	0.334633	0.651204
	H358	H	-0.480478	0.318862	0.644333
	H359	H	-0.490911	0.347195	0.657683
	O360	O	0.495885	0.297558	0.378403
	H361	H	0.490794	0.297244	0.387332
	H362	H	0.489837	0.291653	0.397188
	O363	O	0.883664	0.010213	0.073931
	H364	H	0.881641	0.009042	0.062673
	H365	H	0.897547	0.018779	0.063371
	O366	O	-0.507921	-0.498319	1.323170
	H367	H	-0.501831	-0.501789	1.320925
	H368	H	-0.499141	-0.494775	1.323074
	O369	O	0.567161	-0.332057	0.662388
	H370	H	0.569198	-0.318587	0.677756
	H371	H	0.574318	-0.330882	0.663449
	O372	O	0.446493	0.450896	0.653992
	H373	H	0.426671	0.446161	0.637006
	H374	H	0.441577	0.460851	0.671684
	O375	O	0.019990	-0.044659	1.082997
	H376	H	0.005350	-0.070970	1.082924
	H377	H	0.009366	-0.028219	1.093542
	O378	O	0.478615	0.343134	0.440359
	H379	H	0.468459	0.337377	0.462074
	H380	H	0.481339	0.351102	0.453476
	O381	O	-0.170322	0.941384	-0.020027
	H382	H	-0.183643	0.945087	-0.038511
	H383	H	-0.159984	0.947630	-0.014925
	O384	O	0.004177	0.888524	0.219460
	H385	H	-0.013511	0.874403	0.235157
	H386	H	-0.015305	0.886104	0.206013
	O387	O	1.086358	0.198106	0.923116
	H388	H	1.074076	0.198271	0.911723
	H389	H	1.073130	0.184783	0.916452
	O390	O	1.922600	-0.110177	-0.109770
	H391	H	1.930816	-0.113286	-0.116216
	H392	H	1.928342	-0.118518	-0.105592
	O393	O	0.816004	0.169532	0.827319
	H394	H	0.802215	0.160260	0.856046
	H395	H	0.800507	0.157293	0.834796
	O396	O	1.175298	0.822063	-0.175282
	H397	H	1.180862	0.823115	-0.142083
	H398	H	1.184194	0.853242	-0.191228
	O399	O	0.189586	1.060790	1.125769
	H400	H	0.190730	1.062662	1.120028
	H401	H	0.192287	1.060279	1.116263
	O402	O	1.024498	1.078426	-0.125483
	H403	H	1.006525	1.079361	-0.110737
	H404	H	1.011004	1.102007	-0.126290
	O405	O	0.300256	0.671461	0.388251
	H406	H	0.277479	0.685142	0.367782
	H407	H	0.314757	0.663720	0.388580
	O408	O	0.347716	0.434600	0.451936
	H409	H	0.342919	0.443824	0.435778
	H410	H	0.362012	0.444617	0.448470
	O411	O	0.971682	1.207378	0.793244
	H412	H	0.931744	1.206286	0.796859
	H413	H	0.958884	1.229203	0.768215
	O414	O	0.450158	0.295149	0.591268
	H415	H	0.434593	0.281050	0.592745
	H416	H	0.475279	0.285067	0.582747
	O417	O	-0.204434	1.010300	0.803044
	H418	H	-0.203333	1.008373	0.791234
	H419	H	-0.191826	0.997932	0.779495
	O420	O	0.301259	1.533657	0.298192
	H421	H	0.312298	1.550103	0.294846
	H422	H	0.280138	1.539231	0.276924
	O423	O	0.099067	0.988851	0.040033
	H424	H	0.105562	0.993362	0.046275
	H425	H	0.103270	0.970930	0.043670
	O426	O	-0.105099	0.982442	0.122000
	H427	H	-0.102128	1.000903	0.117597
	H428	H	-0.116163	0.984582	0.132001
	O429	O	0.694443	0.522917	0.383157
	H430	H	0.688527	0.520446	0.381757
	H431	H	0.702090	0.521323	0.394007
	O432	O	0.646593	0.315748	0.321545
	H433	H	0.612342	0.307428	0.312945
	H434	H	0.641627	0.327935	0.331989
	O435	O	0.177767	-0.198196	0.009424
	H436	H	0.185472	-0.194195	0.013992
	H437	H	0.185487	-0.190153	0.023749
	O438	O	0.025547	0.773768	0.817489
	H439	H	0.032851	0.744803	0.795166
	H440	H	0.062810	0.776617	0.830175
	O441	O	0.693337	0.335516	0.425380
	H442	H	0.722355	0.322151	0.416234
	H443	H	0.689324	0.354279	0.433977
