data_Molecule from HDF5

_cell_length_a		16.250082
_cell_length_b		16.265966
_cell_length_c		16.278099
_cell_angle_alpha	90.063886
_cell_angle_beta	89.837073
_cell_angle_gamma	89.806810
_symmetry_space_group_name_H-M	'P 1'
_symmetry_Int_Tables_number		1

loop_
	_symmetry_equiv_pos_as_xyz
	x,y,z

loop_
	_atom_site_label
	_atom_site_type_symbol
	_atom_site_fract_x
	_atom_site_fract_y
	_atom_site_fract_z
	H0	H	0.412564	0.833836	0.709783
	H1	H	0.608991	0.161810	0.708185
	H2	H	0.611489	0.834279	0.277276
	H3	H	0.411996	0.162087	0.280947
	H4	H	0.731598	0.399084	0.832015
	H5	H	0.729582	0.598703	0.158584
	H6	H	0.299132	0.597924	0.831319
	H7	H	0.300331	0.400754	0.158591
	H8	H	0.849948	0.712761	0.394265
	H9	H	0.176475	0.713376	0.592964
	H10	H	0.849157	0.285594	0.593816
	H11	H	0.177435	0.281823	0.396434
	H12	H	0.851082	0.399257	0.711453
	H13	H	0.177867	0.597366	0.708976
	H14	H	0.851017	0.596355	0.279836
	H15	H	0.178382	0.397931	0.280660
	H16	H	0.416634	0.711710	0.830454
	H17	H	0.613455	0.714530	0.158315
	H18	H	0.616017	0.283143	0.831117
	H19	H	0.415139	0.284316	0.158255
	H20	H	0.727706	0.833985	0.393231
	H21	H	0.725057	0.161417	0.592545
	H22	H	0.298111	0.833247	0.592555
	H23	H	0.297793	0.161584	0.398860
	H24	H	0.916386	0.334095	0.209921
	H25	H	0.113608	0.661370	0.210986
	H26	H	0.116921	0.335200	0.778788
	H27	H	0.915397	0.661303	0.779913
	H28	H	0.227698	0.898362	0.331900
	H29	H	0.225357	0.095573	0.659083
	H30	H	0.797809	0.096482	0.330680
	H31	H	0.795912	0.898268	0.657759
	H32	H	0.350725	0.215981	0.894898
	H33	H	0.677763	0.211104	0.092971
	H34	H	0.348846	0.784063	0.092646
	H35	H	0.677261	0.783104	0.893774
	H36	H	0.347511	0.901212	0.207139
	H37	H	0.675343	0.098219	0.211364
	H38	H	0.347573	0.096571	0.782723
	H39	H	0.675954	0.898628	0.777735
	H40	H	0.911926	0.213861	0.331839
	H41	H	0.109039	0.210358	0.659330
	H42	H	0.111877	0.783619	0.331218
	H43	H	0.911904	0.782667	0.658603
	H44	H	0.229293	0.334924	0.896870
	H45	H	0.226768	0.662876	0.092215
	H46	H	0.799368	0.334515	0.095175
	H47	H	0.799896	0.662009	0.896789
	H48	H	0.418893	0.112701	0.587009
	H49	H	0.606253	0.880838	0.587767
	H50	H	0.602586	0.110206	0.411887
	H51	H	0.422894	0.882012	0.400099
	H52	H	0.607909	0.399741	0.112652
	H53	H	0.599426	0.582059	0.884521
	H54	H	0.424145	0.600169	0.112411
	H55	H	0.418916	0.407079	0.877707
	H56	H	0.131498	0.593203	0.401527
	H57	H	0.902415	0.582355	0.578722
	H58	H	0.130532	0.401597	0.583817
	H59	H	0.896882	0.403933	0.402703
	H60	H	0.129940	0.406949	0.587737
	H61	H	0.895641	0.584564	0.598617
	H62	H	0.129812	0.591039	0.405611
	H63	H	0.897960	0.406932	0.402745
	H64	H	0.412013	0.590327	0.113668
	H65	H	0.603581	0.601140	0.876629
	H66	H	0.611444	0.409041	0.110921
	H67	H	0.424676	0.408640	0.880060
	H68	H	0.612635	0.117318	0.398335
	H69	H	0.600824	0.882030	0.587898
	H70	H	0.414519	0.115341	0.588627
	H71	H	0.417910	0.881449	0.402633
	H72	H	0.922069	0.613552	0.086543
	H73	H	0.108253	0.381911	0.088014
	H74	H	0.108177	0.614579	0.905404
	H75	H	0.923525	0.381970	0.904161
	H76	H	0.099502	0.899866	0.611573
	H77	H	0.103311	0.095354	0.377451
	H78	H	0.916352	0.080767	0.608557
	H79	H	0.922121	0.902682	0.378217
	H80	H	0.630748	0.085548	0.894542
	H81	H	0.395434	0.088846	0.095181
	H82	H	0.631320	0.903928	0.092553
	H83	H	0.392528	0.902132	0.892726
	H84	H	0.629002	0.901913	0.081225
	H85	H	0.394281	0.100966	0.086050
	H86	H	0.632648	0.097893	0.899360
	H87	H	0.396422	0.897428	0.908408
	H88	H	0.927686	0.096818	0.609278
	H89	H	0.109562	0.089494	0.377700
	H90	H	0.110496	0.904058	0.613398
	H91	H	0.917044	0.903629	0.377528
	H92	H	0.109850	0.617183	0.898321
	H93	H	0.108202	0.381533	0.088406
	H94	H	0.920795	0.614106	0.089327
	H95	H	0.922821	0.381399	0.902680
	H96	H	0.418386	0.115256	0.591382
	H97	H	0.603587	0.881789	0.583414
	H98	H	0.595279	0.112896	0.395370
	H99	H	0.417792	0.880408	0.397344
	H100	H	0.601055	0.406651	0.109377
	H101	H	0.618548	0.586603	0.876678
	H102	H	0.425850	0.585270	0.108183
	H103	H	0.424094	0.402518	0.877521
	H104	H	0.130352	0.588094	0.401366
	H105	H	0.894796	0.599998	0.585317
	H106	H	0.132355	0.401525	0.590369
	H107	H	0.896946	0.405678	0.399791
	H108	H	0.924212	0.613988	0.089119
	H109	H	0.107956	0.380953	0.088507
	H110	H	0.103275	0.614033	0.900119
	H111	H	0.924333	0.382390	0.902645
	H112	H	0.102433	0.911077	0.609292
	H113	H	0.101687	0.086980	0.380379
	H114	H	0.909488	0.097648	0.615915
	H115	H	0.920167	0.907309	0.378925
	H116	H	0.626593	0.088309	0.906452
	H117	H	0.399441	0.087657	0.080173
	H118	H	0.626347	0.912481	0.085668
	H119	H	0.399484	0.913102	0.903633
	C120	C	0.389412	0.005854	0.616771
	C121	C	0.632586	0.989422	0.615725
	C122	C	0.633105	0.005835	0.372121
	C123	C	0.390252	0.989556	0.372728
	C124	C	0.636724	0.376370	0.003015
	C125	C	0.636109	0.619795	0.986983
	C126	C	0.392434	0.620165	0.003155
	C127	C	0.393425	0.377578	0.986481
	C128	C	0.022450	0.619294	0.373395
	C129	C	1.005564	0.618702	0.616113
	C130	C	0.022192	0.375868	0.616457
	C131	C	1.005468	0.375916	0.373271
	C132	C	0.893509	0.506152	0.117183
	C133	C	0.136455	0.489737	0.116677
	C134	C	0.136541	0.507155	0.872707
	C135	C	0.894255	0.490103	0.874436
	C136	C	0.133859	0.875866	0.503512
	C137	C	0.133239	0.118847	0.486621
	C138	C	0.889578	0.120013	0.502956
	C139	C	0.890526	0.875670	0.486552
	C140	C	0.521664	0.119852	0.872545
	C141	C	0.504328	0.120560	0.116333
	C142	C	0.520647	0.877225	0.115187
	C143	C	0.504509	0.875898	0.872362
	C144	C	0.392355	0.882489	0.671392
	C145	C	0.629765	0.112831	0.670489
	C146	C	0.631518	0.882892	0.315760
	C147	C	0.392142	0.113202	0.318673
	C148	C	0.693345	0.378601	0.880698
	C149	C	0.691592	0.618645	0.109838
	C150	C	0.337435	0.617907	0.879735
	C151	C	0.337771	0.379901	0.109431
	C152	C	0.898981	0.674593	0.374840
	C153	C	0.128119	0.675043	0.613656
	C154	C	0.898620	0.322186	0.614483
	C155	C	0.128530	0.319650	0.375603
	C156	C	0.899563	0.378948	0.672855
	C157	C	0.128760	0.617366	0.671119
	C158	C	0.899387	0.616662	0.318046
	C159	C	0.129192	0.377660	0.318404
	C160	C	0.395647	0.674483	0.879454
	C161	C	0.633724	0.676138	0.109642
	C162	C	0.635693	0.321049	0.880273
	C163	C	0.395106	0.321997	0.109271
	C164	C	0.689073	0.882757	0.373543
	C165	C	0.687425	0.112547	0.613005
	C166	C	0.335504	0.882421	0.613381
	C167	C	0.335308	0.112884	0.377016
	C168	C	0.895583	0.383023	0.172331
	C169	C	0.133942	0.612762	0.172649
	C170	C	0.135803	0.383952	0.817294
	C171	C	0.895567	0.612841	0.818387
	C172	C	0.189641	0.878289	0.380567
	C173	C	0.187649	0.115798	0.610120
	C174	C	0.835059	0.117013	0.379825
	C175	C	0.834257	0.877978	0.609187
	C176	C	0.398670	0.176502	0.875439
	C177	C	0.628259	0.174204	0.113563
	C178	C	0.397698	0.821695	0.113194
	C179	C	0.627963	0.820726	0.873744
	C180	C	0.396976	0.880087	0.169829
	C181	C	0.627148	0.118052	0.172346
	C182	C	0.397177	0.117189	0.819682
	C183	C	0.627356	0.878076	0.815918
	C184	C	0.892211	0.175178	0.380277
	C185	C	0.130251	0.173333	0.610191
	C186	C	0.132183	0.820857	0.380222
	C187	C	0.892158	0.820633	0.609575
	C188	C	0.192207	0.383979	0.875475
	C189	C	0.189992	0.613618	0.113496
	C190	C	0.837673	0.383208	0.115194
	C191	C	0.837899	0.612977	0.876262
	C192	C	0.411221	0.092071	0.595572
	C193	C	0.610121	0.903562	0.593140
	C194	C	0.610281	0.091301	0.395203
	C195	C	0.412754	0.903507	0.393850
	C196	C	0.613596	0.398629	0.089108
	C197	C	0.613800	0.596604	0.901398
	C198	C	0.414197	0.598454	0.089134
	C199	C	0.415915	0.399670	0.900563
	C200	C	0.108210	0.597243	0.396019
	C201	C	0.919797	0.595649	0.594209
	C202	C	0.108622	0.397143	0.593802
	C203	C	0.919493	0.398859	0.395121
	C204	C	0.915864	0.591727	0.094861
	C205	C	0.114702	0.403781	0.094692
	C206	C	0.113718	0.593168	0.894595
	C207	C	0.916864	0.404274	0.896852
	C208	C	0.110704	0.898319	0.589286
	C209	C	0.111433	0.097042	0.400771
	C210	C	0.911256	0.098102	0.588897
	C211	C	0.913273	0.897880	0.400397
	C212	C	0.607596	0.097273	0.893818
	C213	C	0.418590	0.098893	0.093908
	C214	C	0.606575	0.899488	0.092890
	C215	C	0.418307	0.897965	0.894928
	Zn216	Zn	0.511805	-0.002085	0.744580
	Zn217	Zn	0.511645	-0.001479	0.243832
	Zn218	Zn	0.765052	0.498039	-0.004188
	Zn219	Zn	0.264236	0.498786	-0.005625
	Zn220	Zn	0.012768	0.747245	0.494611
	Zn221	Zn	0.012747	0.247851	0.495044
	Zn222	Zn	0.014896	0.497311	0.745001
	Zn223	Zn	0.015088	0.497863	0.245242
	Zn224	Zn	0.513948	0.747989	-0.005146
	Zn225	Zn	0.514528	0.248221	-0.005991
	Zn226	Zn	0.761570	-0.002651	0.494304
	Zn227	Zn	0.261934	-0.002518	0.495281
	N228	N	0.425259	0.960413	0.673782
	N229	N	0.596334	0.035194	0.672096
	N230	N	0.597455	0.960402	0.314783
	N231	N	0.425894	0.035585	0.316237
	N232	N	0.693801	0.412385	0.958137
	N233	N	0.693003	0.584200	0.032587
	N234	N	0.335375	0.584621	0.957417
	N235	N	0.336787	0.413933	0.032196
	N236	N	0.976377	0.676276	0.408430
	N237	N	0.050409	0.676258	0.580473
	N238	N	0.976097	0.320254	0.580144
	N239	N	0.050657	0.318529	0.409125
	N240	N	0.977552	0.411260	0.674331
	N241	N	0.051560	0.582845	0.672588
	N242	N	0.977077	0.582975	0.316918
	N243	N	0.051690	0.411687	0.316712
	N244	N	0.429327	0.675873	0.957000
	N245	N	0.600032	0.676978	0.032279
	N246	N	0.601283	0.319496	0.957600
	N247	N	0.429123	0.320495	0.031739
	N248	N	0.690179	0.960035	0.408062
	N249	N	0.689117	0.034842	0.579521
	N250	N	0.333676	0.960077	0.580201
	N251	N	0.334017	0.035010	0.409885
	N252	N	0.929605	0.460368	0.173829
	N253	N	0.101261	0.534849	0.174588
	N254	N	0.101920	0.461634	0.815401
	N255	N	0.929781	0.535354	0.817125
	N256	N	0.190992	0.911394	0.458455
	N257	N	0.189719	0.082776	0.532311
	N258	N	0.833148	0.083306	0.457415
	N259	N	0.833146	0.911495	0.531546
	N260	N	0.476882	0.178113	0.907689
	N261	N	0.550972	0.176127	0.079629
	N262	N	0.475596	0.820036	0.079728
	N263	N	0.550645	0.819294	0.908135
	N264	N	0.474493	0.913945	0.171263
	N265	N	0.549121	0.085500	0.174218
	N266	N	0.474465	0.082567	0.817621
	N267	N	0.549509	0.911446	0.814803
	N268	N	0.925274	0.177320	0.457833
	N269	N	0.096887	0.175240	0.532528
	N270	N	0.098062	0.819267	0.457628
	N271	N	0.926228	0.818970	0.532071
	N272	N	0.192483	0.461392	0.909412
	N273	N	0.191887	0.536086	0.079645
	N274	N	0.836253	0.460752	0.081784
	N275	N	0.836903	0.535484	0.910211
	O276	O	0.977267	1.000051	-0.018271
	H277	H	0.971985	0.998533	-0.023403
	H278	H	0.979820	0.993219	-0.024446
	O279	O	0.002397	-0.057500	0.936737
	H280	H	0.006828	-0.055174	0.931699
	H281	H	-0.007132	-0.073212	0.929501
	O282	O	-0.446695	0.504903	0.567503
	H283	H	-0.445264	0.509668	0.563694
	H284	H	-0.453119	0.494018	0.578305
	O285	O	0.583827	0.550239	0.473455
	H286	H	0.574740	0.545564	0.469708
	H287	H	0.589909	0.559296	0.478596
	O288	O	0.050411	0.048791	0.037429
	H289	H	0.058070	0.059999	0.030183
	H290	H	0.052284	0.040862	0.037359
	O291	O	-0.024669	1.020644	-0.027537
	H292	H	-0.020350	1.025953	-0.026760
	H293	H	-0.040589	1.018431	-0.031720
	O294	O	0.021595	0.971244	0.044292
	H295	H	0.022393	0.973390	0.054177
	H296	H	0.024941	0.973740	0.046972
	O297	O	0.618748	0.492545	0.465852
	H298	H	0.612159	0.487190	0.464078
	H299	H	0.621885	0.488292	0.472710
	O300	O	0.579591	0.482549	0.564651
	H301	H	0.591818	0.476394	0.552154
	H302	H	0.582017	0.490729	0.563018
	O303	O	0.530139	-0.524596	1.437522
	H304	H	0.531834	-0.521405	1.436268
	H305	H	0.525351	-0.526877	1.433056
	O306	O	0.026825	1.017920	0.958402
	H307	H	0.031788	1.026930	0.952709
	H308	H	0.022925	1.031653	0.961865
	O309	O	-0.009140	1.049001	0.988962
	H310	H	-0.010634	1.062006	0.985099
	H311	H	-0.024833	1.042605	0.987530
	O312	O	-0.052288	0.018618	0.988480
	H313	H	-0.056349	0.019133	0.984662
	H314	H	-0.053491	0.006047	0.997800
	O315	O	0.512832	0.494101	0.525740
	H316	H	0.515455	0.490564	0.524346
	H317	H	0.517913	0.495143	0.523429
	O318	O	-0.029474	0.058426	1.056977
	H319	H	-0.018672	0.062756	1.048502
	H320	H	-0.032112	0.054523	1.059264
	O321	O	0.440336	0.493678	0.468003
	H322	H	0.455571	0.478735	0.461295
	H323	H	0.432900	0.490742	0.466589
	O324	O	1.005172	-0.007904	1.036269
	H325	H	1.011174	0.001694	1.054429
	H326	H	0.994250	-0.001755	1.028008
	O327	O	0.975971	1.012195	1.017215
	H328	H	0.978750	1.009205	1.029883
	H329	H	0.969768	0.997480	1.011123
	O330	O	0.535141	0.422808	0.486228
	H331	H	0.528471	0.422043	0.490126
	H332	H	0.543689	0.434999	0.490292
	O333	O	0.556216	0.529363	0.530208
	H334	H	0.560225	0.529410	0.537486
	H335	H	0.560236	0.524569	0.539862
	O336	O	0.501422	0.501262	0.500172
	H337	H	0.504309	0.499255	0.502255
	H338	H	0.500584	0.503029	0.501144
	O339	O	-0.469623	0.455755	-0.579381
	H340	H	-0.479539	0.458488	-0.590336
	H341	H	-0.468337	0.470067	-0.582529
	O342	O	0.594097	0.447341	0.462259
	H343	H	0.579513	0.453498	0.445996
	H344	H	0.590280	0.464774	0.472045
	O345	O	0.532766	0.490802	0.474942
	H346	H	0.522863	0.492258	0.478095
	H347	H	0.529721	0.487039	0.477825
