data_Molecule from HDF5

_cell_length_a		16.406330
_cell_length_b		16.285181
_cell_length_c		16.432961
_cell_angle_alpha	90.241828
_cell_angle_beta	90.010715
_cell_angle_gamma	90.149538
_symmetry_space_group_name_H-M	'P 1'
_symmetry_Int_Tables_number		1

loop_
	_symmetry_equiv_pos_as_xyz
	x,y,z

loop_
	_atom_site_label
	_atom_site_type_symbol
	_atom_site_fract_x
	_atom_site_fract_y
	_atom_site_fract_z
	H0	H	0.395194	0.828749	0.724321
	H1	H	0.609729	0.147476	0.729216
	H2	H	0.603301	0.828371	0.284293
	H3	H	0.393769	0.148435	0.282761
	H4	H	0.720619	0.383982	0.844791
	H5	H	0.725951	0.598800	0.161493
	H6	H	0.278735	0.594318	0.845787
	H7	H	0.276950	0.381360	0.162049
	H8	H	0.840682	0.707225	0.402470
	H9	H	0.161539	0.708510	0.606385
	H10	H	0.842099	0.267404	0.609496
	H11	H	0.160052	0.267007	0.397762
	H12	H	0.842491	0.384278	0.724366
	H13	H	0.160871	0.595221	0.725654
	H14	H	0.843541	0.597790	0.279941
	H15	H	0.160536	0.382973	0.282390
	H16	H	0.397274	0.709154	0.844235
	H17	H	0.606553	0.711088	0.163467
	H18	H	0.604971	0.267270	0.845577
	H19	H	0.393019	0.266201	0.162658
	H20	H	0.718107	0.826988	0.400732
	H21	H	0.725519	0.147855	0.613349
	H22	H	0.279528	0.829131	0.609063
	H23	H	0.280260	0.149309	0.400465
	H24	H	0.897031	0.328014	0.223265
	H25	H	0.107650	0.648858	0.225604
	H26	H	0.104407	0.327868	0.783887
	H27	H	0.900201	0.649332	0.787485
	H28	H	0.219012	0.885709	0.344264
	H29	H	0.224040	0.097709	0.662540
	H30	H	0.777559	0.095756	0.345885
	H31	H	0.780848	0.886287	0.662478
	H32	H	0.339782	0.206661	0.902880
	H33	H	0.660411	0.210081	0.108884
	H34	H	0.341834	0.768524	0.107033
	H35	H	0.661492	0.772518	0.901981
	H36	H	0.341134	0.884164	0.223856
	H37	H	0.659243	0.097157	0.226818
	H38	H	0.342794	0.095825	0.781962
	H39	H	0.659372	0.885703	0.783536
	H40	H	0.896316	0.208576	0.344327
	H41	H	0.104380	0.210132	0.663444
	H42	H	0.101713	0.770652	0.344047
	H43	H	0.897588	0.770268	0.662887
	H44	H	0.220585	0.327480	0.899101
	H45	H	0.222119	0.648924	0.108958
	H46	H	0.782272	0.327498	0.106152
	H47	H	0.784242	0.649118	0.902634
	H48	H	0.419624	0.101941	0.596764
	H49	H	0.589941	0.872262	0.600087
	H50	H	0.594704	0.103642	0.418793
	H51	H	0.407956	0.874857	0.419663
	H52	H	0.589454	0.400791	0.117635
	H53	H	0.590950	0.579016	0.891335
	H54	H	0.414418	0.577039	0.115946
	H55	H	0.416792	0.398604	0.893125
	H56	H	0.112213	0.571158	0.414535
	H57	H	0.886726	0.579363	0.597234
	H58	H	0.114268	0.399474	0.590710
	H59	H	0.889985	0.402871	0.414422
	H60	H	0.113558	0.402977	0.593342
	H61	H	0.887055	0.579488	0.595209
	H62	H	0.117541	0.580754	0.409162
	H63	H	0.887137	0.399954	0.412053
	H64	H	0.412428	0.579719	0.117291
	H65	H	0.593101	0.580609	0.889614
	H66	H	0.592636	0.400065	0.118555
	H67	H	0.408530	0.392908	0.888979
	H68	H	0.589972	0.105131	0.410249
	H69	H	0.581796	0.879010	0.589166
	H70	H	0.413029	0.099852	0.585498
	H71	H	0.409366	0.871970	0.409912
	H72	H	0.916583	0.603348	0.096307
	H73	H	0.094209	0.374377	0.089187
	H74	H	0.097791	0.605922	0.912326
	H75	H	0.905168	0.371018	0.914227
	H76	H	0.087200	0.896849	0.617306
	H77	H	0.090641	0.072930	0.392615
	H78	H	0.914302	0.080937	0.617329
	H79	H	0.912046	0.897971	0.389650
	H80	H	0.611749	0.070415	0.916558
	H81	H	0.387722	0.075835	0.094018
	H82	H	0.618016	0.897137	0.100763
	H83	H	0.386309	0.899013	0.915140
	H84	H	0.613840	0.897830	0.088212
	H85	H	0.387264	0.076756	0.094280
	H86	H	0.616797	0.080054	0.908755
	H87	H	0.386769	0.900853	0.913360
	H88	H	0.908484	0.077151	0.617921
	H89	H	0.087262	0.079528	0.390561
	H90	H	0.095353	0.896971	0.620657
	H91	H	0.908476	0.895662	0.388261
	H92	H	0.085658	0.602750	0.910094
	H93	H	0.088772	0.373165	0.098430
	H94	H	0.913850	0.601489	0.089859
	H95	H	0.912082	0.370485	0.907351
	H96	H	0.406924	0.105878	0.595286
	H97	H	0.596672	0.875725	0.587041
	H98	H	0.585699	0.100778	0.417384
	H99	H	0.416432	0.876651	0.414921
	H100	H	0.591360	0.402950	0.117243
	H101	H	0.593673	0.577824	0.889968
	H102	H	0.411178	0.576455	0.116577
	H103	H	0.407548	0.403385	0.891542
	H104	H	0.114159	0.582038	0.420603
	H105	H	0.887367	0.577711	0.596401
	H106	H	0.115424	0.399719	0.595536
	H107	H	0.888078	0.398838	0.416868
	H108	H	0.909595	0.604619	0.094825
	H109	H	0.083531	0.377527	0.089667
	H110	H	0.090631	0.600147	0.921454
	H111	H	0.913818	0.375219	0.915520
	H112	H	0.091841	0.904106	0.616913
	H113	H	0.094677	0.078611	0.389456
	H114	H	0.914154	0.074157	0.615433
	H115	H	0.908174	0.900022	0.389076
	H116	H	0.613527	0.082247	0.921733
	H117	H	0.388142	0.077526	0.093492
	H118	H	0.612560	0.908505	0.096161
	H119	H	0.386162	0.898165	0.912667
	C120	C	0.380192	-0.002742	0.624954
	C121	C	0.622689	0.980797	0.625713
	C122	C	0.621759	-0.002684	0.383286
	C123	C	0.379292	0.980494	0.383174
	C124	C	0.622150	0.368236	0.012525
	C125	C	0.624638	0.611901	0.995365
	C126	C	0.380233	0.609921	0.011652
	C127	C	0.378715	0.366480	0.995990
	C128	C	0.009490	0.610269	0.382691
	C129	C	0.992441	0.611472	0.627232
	C130	C	0.009412	0.368250	0.624937
	C131	C	0.993334	0.367616	0.382284
	C132	C	0.880512	0.497238	0.125271
	C133	C	0.122044	0.480840	0.124628
	C134	C	0.122825	0.496896	0.882704
	C135	C	0.880285	0.479061	0.882777
	C136	C	0.122143	0.867797	0.512676
	C137	C	0.122718	0.110207	0.496024
	C138	C	0.879369	0.110306	0.512314
	C139	C	0.878727	0.866983	0.494601
	C140	C	0.509463	0.110471	0.883122
	C141	C	0.492428	0.110763	0.126524
	C142	C	0.509459	0.868410	0.125770
	C143	C	0.491925	0.868010	0.882283
	C144	C	0.377293	0.876806	0.684593
	C145	C	0.626800	0.100010	0.687852
	C146	C	0.622355	0.876316	0.323836
	C147	C	0.376716	0.100865	0.323404
	C148	C	0.681363	0.365585	0.892754
	C149	C	0.684980	0.615474	0.114330
	C150	C	0.319377	0.612443	0.892910
	C151	C	0.317202	0.363477	0.114538
	C152	C	0.888862	0.668486	0.382509
	C153	C	0.113164	0.669993	0.626770
	C154	C	0.889808	0.307760	0.627189
	C155	C	0.112391	0.306984	0.379826
	C156	C	0.889993	0.365845	0.684700
	C157	C	0.113026	0.613284	0.685753
	C158	C	0.890398	0.613993	0.321557
	C159	C	0.112589	0.364813	0.322115
	C160	C	0.378330	0.669710	0.892243
	C161	C	0.625555	0.671725	0.115171
	C162	C	0.623408	0.307629	0.893212
	C163	C	0.375375	0.306241	0.115120
	C164	C	0.679394	0.875765	0.382002
	C165	C	0.684412	0.100221	0.629931
	C166	C	0.319571	0.876857	0.627231
	C167	C	0.320002	0.101334	0.381761
	C168	C	0.878469	0.376227	0.183729
	C169	C	0.125093	0.600945	0.185079
	C170	C	0.123463	0.375858	0.823366
	C171	C	0.880713	0.600952	0.825961
	C172	C	0.180014	0.866804	0.392309
	C173	C	0.183010	0.114137	0.615257
	C174	C	0.818276	0.113336	0.393182
	C175	C	0.820462	0.867032	0.614929
	C176	C	0.388636	0.168557	0.882890
	C177	C	0.612330	0.170915	0.127616
	C178	C	0.389533	0.808279	0.126201
	C179	C	0.613004	0.810921	0.882332
	C180	C	0.389117	0.865953	0.184288
	C181	C	0.611718	0.114512	0.186485
	C182	C	0.389979	0.113284	0.822556
	C183	C	0.612008	0.867073	0.823374
	C184	C	0.877603	0.169690	0.392461
	C185	C	0.123515	0.170386	0.615667
	C186	C	0.121427	0.809796	0.391867
	C187	C	0.878432	0.809440	0.615020
	C188	C	0.181392	0.375866	0.880717
	C189	C	0.182205	0.600988	0.127053
	C190	C	0.821186	0.376062	0.125626
	C191	C	0.823174	0.600859	0.883284
	C192	C	0.405965	0.080765	0.599916
	C193	C	0.596876	0.897205	0.599536
	C194	C	0.597324	0.081553	0.408311
	C195	C	0.404098	0.896513	0.407763
	C196	C	0.597927	0.393985	0.095926
	C197	C	0.599697	0.586415	0.911958
	C198	C	0.405369	0.584958	0.094934
	C199	C	0.403669	0.391090	0.912817
	C200	C	0.092790	0.585140	0.407484
	C201	C	0.908879	0.586225	0.603220
	C202	C	0.092857	0.393524	0.600095
	C203	C	0.910026	0.393206	0.407282
	C204	C	0.905934	0.581276	0.100700
	C205	C	0.096264	0.396722	0.099558
	C206	C	0.098572	0.581042	0.907589
	C207	C	0.903516	0.394419	0.905634
	C208	C	0.098248	0.892173	0.596585
	C209	C	0.098006	0.084520	0.412639
	C210	C	0.904838	0.084859	0.595299
	C211	C	0.902617	0.890813	0.410746
	C212	C	0.592436	0.085115	0.908393
	C213	C	0.409291	0.084390	0.101215
	C214	C	0.592931	0.893890	0.102076
	C215	C	0.408233	0.892338	0.906671
	Zn216	Zn	0.500431	-0.011019	0.753805
	Zn217	Zn	0.500637	-0.010477	0.255261
	Zn218	Zn	0.752155	0.488676	0.003990
	Zn219	Zn	0.250701	0.488258	0.004124
	Zn220	Zn	0.001004	0.738877	0.504241
	Zn221	Zn	0.000897	0.239098	0.503856
	Zn222	Zn	0.001692	0.488635	0.754733
	Zn223	Zn	0.001421	0.488817	0.253777
	Zn224	Zn	0.501789	0.739795	0.003557
	Zn225	Zn	0.500823	0.238688	0.005131
	Zn226	Zn	0.750911	-0.011029	0.503428
	Zn227	Zn	0.251407	-0.011391	0.504032
	N228	N	0.414022	0.952761	0.683490
	N229	N	0.589011	0.024726	0.685319
	N230	N	0.587261	0.952931	0.324487
	N231	N	0.412876	0.024682	0.324091
	N232	N	0.680609	0.402694	0.967975
	N233	N	0.684426	0.578876	0.038844
	N234	N	0.320560	0.576136	0.968179
	N235	N	0.319346	0.400312	0.039472
	N236	N	0.963683	0.666146	0.419916
	N237	N	0.037185	0.669139	0.591443
	N238	N	0.964983	0.309286	0.590648
	N239	N	0.037076	0.308598	0.416496
	N240	N	0.965480	0.402741	0.683459
	N241	N	0.036926	0.577700	0.686335
	N242	N	0.966323	0.578296	0.321605
	N243	N	0.037355	0.401722	0.323474
	N244	N	0.415681	0.668121	0.967195
	N245	N	0.588647	0.669613	0.040081
	N246	N	0.587352	0.309217	0.968658
	N247	N	0.413037	0.307913	0.040554
	N248	N	0.679193	0.952089	0.417981
	N249	N	0.681825	0.024977	0.591768
	N250	N	0.320942	0.952754	0.591043
	N251	N	0.321456	0.025532	0.418060
	N252	N	0.914264	0.452610	0.183875
	N253	N	0.088519	0.524912	0.183871
	N254	N	0.087827	0.452221	0.824547
	N255	N	0.915603	0.524349	0.825561
	N256	N	0.180454	0.902192	0.468476
	N257	N	0.182599	0.077492	0.539739
	N258	N	0.819312	0.077304	0.468609
	N259	N	0.820473	0.901879	0.538959
	N260	N	0.463981	0.167012	0.919586
	N261	N	0.536976	0.168560	0.091133
	N262	N	0.465301	0.809748	0.090526
	N263	N	0.537332	0.811272	0.918120
	N264	N	0.464769	0.902625	0.184146
	N265	N	0.536066	0.078143	0.186258
	N266	N	0.465976	0.077883	0.822571
	N267	N	0.535672	0.901726	0.823289
	N268	N	0.914852	0.167849	0.467454
	N269	N	0.087105	0.168342	0.540447
	N270	N	0.086303	0.810321	0.467856
	N271	N	0.913913	0.809330	0.539242
	N272	N	0.181075	0.452209	0.916739
	N273	N	0.180315	0.525129	0.090347
	N274	N	0.822125	0.452544	0.090315
	N275	N	0.822761	0.524176	0.917780
	O276	O	0.905683	0.946728	-0.143832
	H277	H	0.918131	0.955755	-0.143208
	H278	H	0.902119	0.940022	-0.143894
	O279	O	0.524546	0.641338	0.629694
	H280	H	0.534580	0.647124	0.617445
	H281	H	0.538457	0.639194	0.628128
	O282	O	0.539483	0.630733	0.461615
	H283	H	0.535536	0.632526	0.449861
	H284	H	0.552840	0.626959	0.453501
	O285	O	1.081581	0.056904	0.014578
	H286	H	1.076210	0.066311	0.010848
	H287	H	1.084759	0.053195	0.008777
	O288	O	0.126695	-0.119411	0.831708
	H289	H	0.133019	-0.113549	0.846880
	H290	H	0.128895	-0.127406	0.832059
	O291	O	0.105256	0.824844	0.964191
	H292	H	0.099944	0.819404	0.961280
	H293	H	0.102493	0.839310	0.980231
	O294	O	1.694357	0.688842	0.583366
	H295	H	1.688574	0.678141	0.575449
	H296	H	1.696805	0.699991	0.572175
	O297	O	0.869123	1.073309	0.919845
	H298	H	0.855451	1.071084	0.925270
	H299	H	0.869267	1.087378	0.918336
	O300	O	-0.543744	-0.417901	-0.675473
	H301	H	-0.546600	-0.417929	-0.690056
	H302	H	-0.540446	-0.431039	-0.680947
	O303	O	0.466352	0.543780	0.645429
	H304	H	0.455618	0.549486	0.650350
	H305	H	0.489565	0.542000	0.650840
	O306	O	0.976498	0.039364	-0.140441
	H307	H	0.954015	0.027592	-0.129942
	H308	H	0.977083	0.042063	-0.145142
	O309	O	0.298629	0.489792	0.361283
	H310	H	0.307435	0.496406	0.385646
	H311	H	0.276355	0.486707	0.358246
	O312	O	1.032333	1.129317	-0.042437
	H313	H	1.042727	1.127899	-0.048925
	H314	H	1.027653	1.126006	-0.053111
	O315	O	0.722686	0.467504	0.283319
	H316	H	0.743724	0.445244	0.265441
	H317	H	0.726614	0.430650	0.277746
	O318	O	0.547381	0.584119	0.365329
	H319	H	0.552433	0.571540	0.349576
	H320	H	0.553749	0.588459	0.362635
	O321	O	0.686224	-0.428727	0.672463
	H322	H	0.682852	-0.428692	0.662139
	H323	H	0.693388	-0.443219	0.673539
	O324	O	0.500371	0.272039	0.575865
	H325	H	0.479630	0.254466	0.603606
	H326	H	0.500505	0.274549	0.551655
	O327	O	1.078058	0.933697	0.978432
	H328	H	1.081501	0.936544	0.974774
	H329	H	1.072895	0.931455	0.975004
	O330	O	0.437788	0.643545	0.296165
	H331	H	0.435059	0.628475	0.291128
	H332	H	0.446856	0.628509	0.298019
	O333	O	0.959208	1.088690	1.072776
	H334	H	0.936300	1.087382	1.092243
	H335	H	0.974998	1.080747	1.063601
	O336	O	0.690826	0.297732	0.512198
	H337	H	0.676491	0.302253	0.534732
	H338	H	0.714024	0.263431	0.519748
	O339	O	0.976979	-0.159038	1.012809
	H340	H	0.980134	-0.143175	1.005076
	H341	H	0.987595	-0.171562	1.002462
	O342	O	0.184603	0.929100	1.000955
	H343	H	0.185878	0.948213	0.993211
	H344	H	0.186587	0.935867	1.004404
	O345	O	-0.446082	1.450165	1.642107
	H346	H	-0.445650	1.446272	1.642565
	H347	H	-0.447854	1.437723	1.641165
	O348	O	0.328335	0.322942	0.519287
	H349	H	0.333253	0.312102	0.507458
	H350	H	0.320072	0.325623	0.539094
	O351	O	0.306648	-0.478841	-0.487206
	H352	H	0.309915	-0.485239	-0.480277
	H353	H	0.321231	-0.467649	-0.501952
	O354	O	1.034863	1.013460	0.106907
	H355	H	1.039212	1.017041	0.095082
	H356	H	1.018859	1.019380	0.107659
	O357	O	-0.051642	1.018367	-0.004339
	H358	H	-0.063630	1.005579	-0.004293
	H359	H	-0.049152	1.007657	-0.012794
	O360	O	0.058997	0.932565	1.129602
	H361	H	0.062002	0.942051	1.111880
	H362	H	0.068215	0.928607	1.133446
	O363	O	0.511604	0.550943	0.635839
	H364	H	0.523471	0.544008	0.648794
	H365	H	0.518297	0.567873	0.647545
	O366	O	-0.153902	0.992960	-0.007325
	H367	H	-0.161304	0.978218	0.002198
	H368	H	-0.154229	0.982293	-0.003274
	O369	O	0.399456	0.646577	0.488863
	H370	H	0.394757	0.636432	0.489721
	H371	H	0.390895	0.655178	0.482297
	O372	O	0.471474	0.414901	0.358208
	H373	H	0.459589	0.425147	0.365643
	H374	H	0.479349	0.406507	0.360392
	O375	O	0.503446	0.643222	0.712265
	H376	H	0.515025	0.643052	0.713307
	H377	H	0.527992	0.661659	0.723577
	O378	O	0.674441	0.485258	0.509115
	H379	H	0.677353	0.475335	0.487092
	H380	H	0.674928	0.486572	0.505412
	O381	O	0.373225	0.478552	0.606052
	H382	H	0.382562	0.495751	0.613413
	H383	H	0.369297	0.499669	0.623007
	O384	O	0.021739	0.856799	0.993714
	H385	H	0.023116	0.861448	1.004269
	H386	H	0.024328	0.862547	0.986418
	O387	O	1.048491	1.089508	-0.017032
	H388	H	1.049808	1.093512	-0.015895
	H389	H	1.054235	1.094776	-0.010252
	O390	O	0.409858	0.579281	0.343217
	H391	H	0.429269	0.575099	0.339854
	H392	H	0.415344	0.583967	0.362253
	O393	O	0.986884	0.112578	1.018836
	H394	H	0.984465	0.098346	1.017280
	H395	H	0.985532	0.117205	1.028387
	O396	O	-0.124190	0.805340	1.063919
	H397	H	-0.120958	0.803523	1.075590
	H398	H	-0.119728	0.786209	1.062669
	O399	O	0.425971	0.281096	0.710564
	H400	H	0.422262	0.265153	0.742201
	H401	H	0.398461	0.295133	0.704069
	O402	O	1.455086	0.327396	0.444865
	H403	H	1.466123	0.321153	0.434053
	H404	H	1.459894	0.361289	0.456788
	O405	O	0.074622	-0.103216	0.034675
	H406	H	0.074731	-0.114525	0.028455
	H407	H	0.085441	-0.103633	0.029565
	O408	O	0.314304	1.407312	0.643956
	H409	H	0.297517	1.416985	0.615701
	H410	H	0.307444	1.439897	0.641074
	O411	O	0.938983	1.055819	0.158353
	H412	H	0.929381	1.044048	0.158688
	H413	H	0.942663	1.056235	0.165030
	O414	O	-0.317241	-0.688424	1.321555
	H415	H	-0.312088	-0.702453	1.366943
	H416	H	-0.363889	-0.700826	1.318438
	O417	O	0.541362	0.275892	0.310781
	H418	H	0.526818	0.258450	0.299609
	H419	H	0.530930	0.278460	0.307150
	O420	O	0.032216	0.977355	0.133966
	H421	H	0.052963	0.970191	0.127754
	H422	H	0.031175	0.960805	0.133039
	O423	O	0.871590	-0.013127	0.064679
	H424	H	0.866355	-0.009120	0.063727
	H425	H	0.874778	-0.024614	0.068868
	O426	O	0.012043	0.017912	0.864089
	H427	H	0.007961	0.022413	0.852500
	H428	H	0.004610	0.017190	0.876992
	O429	O	0.633265	0.461889	0.641246
	H430	H	0.632526	0.470337	0.643663
	H431	H	0.617339	0.445625	0.626420
