data_Molecule from HDF5

_cell_length_a		16.211864
_cell_length_b		16.320799
_cell_length_c		16.391456
_cell_angle_alpha	89.977563
_cell_angle_beta	89.806067
_cell_angle_gamma	89.706404
_symmetry_space_group_name_H-M	'P 1'
_symmetry_Int_Tables_number		1

loop_
	_symmetry_equiv_pos_as_xyz
	x,y,z

loop_
	_atom_site_label
	_atom_site_type_symbol
	_atom_site_fract_x
	_atom_site_fract_y
	_atom_site_fract_z
	H0	H	0.376440	0.831050	0.712695
	H1	H	0.578969	0.154843	0.711443
	H2	H	0.582344	0.831625	0.276709
	H3	H	0.374753	0.155108	0.274982
	H4	H	0.697504	0.392364	0.832254
	H5	H	0.694443	0.591105	0.155885
	H6	H	0.264476	0.593012	0.831498
	H7	H	0.262676	0.392807	0.155422
	H8	H	0.816473	0.711219	0.395060
	H9	H	0.143715	0.709319	0.594368
	H10	H	0.816906	0.279526	0.596322
	H11	H	0.142351	0.277413	0.394142
	H12	H	0.818037	0.393246	0.712439
	H13	H	0.143516	0.595023	0.710846
	H14	H	0.816513	0.597273	0.277990
	H15	H	0.141681	0.391078	0.276285
	H16	H	0.377395	0.711326	0.832139
	H17	H	0.581043	0.710564	0.154377
	H18	H	0.581037	0.276778	0.832252
	H19	H	0.377571	0.274937	0.155340
	H20	H	0.696990	0.831770	0.393967
	H21	H	0.691907	0.157623	0.592502
	H22	H	0.263159	0.830625	0.593472
	H23	H	0.264149	0.156963	0.395860
	H24	H	0.877980	0.332846	0.213985
	H25	H	0.080753	0.656073	0.211202
	H26	H	0.085517	0.332263	0.774529
	H27	H	0.878557	0.655298	0.777849
	H28	H	0.196853	0.892487	0.332395
	H29	H	0.195840	0.094197	0.655676
	H30	H	0.761982	0.096930	0.332738
	H31	H	0.763351	0.895511	0.655912
	H32	H	0.316909	0.211494	0.893006
	H33	H	0.642862	0.207706	0.093829
	H34	H	0.316987	0.776876	0.093575
	H35	H	0.642150	0.774900	0.890162
	H36	H	0.317560	0.890692	0.212346
	H37	H	0.641944	0.096042	0.211169
	H38	H	0.316076	0.094989	0.778062
	H39	H	0.642304	0.889786	0.774708
	H40	H	0.875168	0.215993	0.334406
	H41	H	0.080382	0.210856	0.656742
	H42	H	0.083132	0.775778	0.333836
	H43	H	0.876745	0.777206	0.655924
	H44	H	0.198136	0.330261	0.893635
	H45	H	0.195434	0.656749	0.092887
	H46	H	0.765655	0.330332	0.094858
	H47	H	0.763322	0.655098	0.894694
	H48	H	0.400848	0.105715	0.592293
	H49	H	0.571563	0.876505	0.591359
	H50	H	0.565412	0.108395	0.400651
	H51	H	0.381952	0.877219	0.405533
	H52	H	0.574564	0.402034	0.109703
	H53	H	0.564190	0.594262	0.877849
	H54	H	0.384588	0.592291	0.111101
	H55	H	0.394870	0.400067	0.880075
	H56	H	0.101179	0.593073	0.391407
	H57	H	0.863695	0.589531	0.585871
	H58	H	0.093222	0.403405	0.576625
	H59	H	0.863643	0.403153	0.408760
	H60	H	0.095151	0.409412	0.589581
	H61	H	0.865715	0.583118	0.585384
	H62	H	0.094052	0.591381	0.414722
	H63	H	0.865023	0.410283	0.403806
	H64	H	0.384439	0.577503	0.106373
	H65	H	0.583949	0.584461	0.874533
	H66	H	0.568626	0.401013	0.107090
	H67	H	0.386487	0.398791	0.878365
	H68	H	0.570520	0.108770	0.404671
	H69	H	0.564631	0.880641	0.582267
	H70	H	0.384882	0.105463	0.573027
	H71	H	0.390196	0.875920	0.394314
	H72	H	0.886123	0.609341	0.086094
	H73	H	0.070717	0.377770	0.089518
	H74	H	0.066864	0.609691	0.893557
	H75	H	0.888830	0.377004	0.900230
	H76	H	0.071113	0.893012	0.612297
	H77	H	0.068903	0.082274	0.380807
	H78	H	0.885949	0.088508	0.610224
	H79	H	0.887937	0.899768	0.378599
	H80	H	0.593698	0.085671	0.906212
	H81	H	0.358574	0.092613	0.090995
	H82	H	0.596920	0.896890	0.086168
	H83	H	0.369511	0.908055	0.914375
	H84	H	0.594102	0.901682	0.079092
	H85	H	0.366256	0.086801	0.074430
	H86	H	0.594109	0.076804	0.900960
	H87	H	0.362884	0.910592	0.890980
	H88	H	0.885274	0.086233	0.609608
	H89	H	0.067622	0.089357	0.380586
	H90	H	0.077866	0.906869	0.610637
	H91	H	0.888433	0.905856	0.380332
	H92	H	0.067032	0.604746	0.908795
	H93	H	0.067673	0.380358	0.084223
	H94	H	0.888743	0.609346	0.087970
	H95	H	0.893289	0.378388	0.900774
	H96	H	0.377308	0.114131	0.595775
	H97	H	0.576630	0.877760	0.580069
	H98	H	0.571665	0.110669	0.398271
	H99	H	0.395214	0.882521	0.406193
	H100	H	0.572003	0.395479	0.111101
	H101	H	0.566848	0.573264	0.884487
	H102	H	0.397728	0.585665	0.106393
	H103	H	0.388871	0.405648	0.880577
	H104	H	0.092586	0.571740	0.400249
	H105	H	0.863814	0.585800	0.590964
	H106	H	0.099765	0.395832	0.587258
	H107	H	0.861374	0.402959	0.400376
	H108	H	0.888360	0.608382	0.085414
	H109	H	0.073946	0.379320	0.084140
	H110	H	0.080228	0.610925	0.901813
	H111	H	0.890053	0.377964	0.904836
	H112	H	0.063763	0.904709	0.606269
	H113	H	0.074293	0.086938	0.379328
	H114	H	0.887865	0.087544	0.608507
	H115	H	0.893670	0.902139	0.380382
	H116	H	0.597995	0.085647	0.896757
	H117	H	0.365568	0.074692	0.089316
	H118	H	0.595468	0.906053	0.087120
	H119	H	0.358985	0.889227	0.902967
	C120	C	0.357207	0.001393	0.616631
	C121	C	0.600188	0.985458	0.614568
	C122	C	0.600982	0.002524	0.371742
	C123	C	0.358115	0.985399	0.372128
	C124	C	0.602648	0.369776	0.002562
	C125	C	0.601427	0.614078	0.985363
	C126	C	0.358450	0.615338	0.001637
	C127	C	0.359062	0.371566	0.985997
	C128	C	-0.012166	0.615783	0.373041
	C129	C	0.972263	0.615571	0.616396
	C130	C	-0.011239	0.373518	0.615555
	C131	C	0.970974	0.374073	0.373927
	C132	C	0.858410	0.501988	0.116265
	C133	C	0.101253	0.485877	0.115843
	C134	C	0.102715	0.501409	0.871578
	C135	C	0.859651	0.484720	0.872727
	C136	C	0.101872	0.871849	0.502999
	C137	C	0.100333	0.115603	0.486756
	C138	C	0.856577	0.117988	0.502844
	C139	C	0.858668	0.873037	0.486281
	C140	C	0.487666	0.113821	0.871896
	C141	C	0.471345	0.114076	0.114830
	C142	C	0.488135	0.871549	0.114754
	C143	C	0.470961	0.871452	0.871595
	C144	C	0.357347	0.879525	0.673736
	C145	C	0.598591	0.106894	0.672120
	C146	C	0.601479	0.880114	0.315267
	C147	C	0.356808	0.107066	0.314628
	C148	C	0.659609	0.371483	0.880934
	C149	C	0.657204	0.612263	0.107148
	C150	C	0.302284	0.613542	0.880033
	C151	C	0.301310	0.372526	0.107172
	C152	C	0.865289	0.673021	0.374917
	C153	C	0.094802	0.671442	0.614438
	C154	C	0.865740	0.317551	0.615850
	C155	C	0.093512	0.315862	0.374077
	C156	C	0.866526	0.373979	0.673612
	C157	C	0.094499	0.614726	0.672840
	C158	C	0.865320	0.616283	0.316725
	C159	C	0.093329	0.372865	0.315789
	C160	C	0.358711	0.672318	0.880387
	C161	C	0.600723	0.671517	0.106283
	C162	C	0.601569	0.314076	0.880892
	C163	C	0.358488	0.314050	0.107185
	C164	C	0.658602	0.880333	0.373448
	C165	C	0.654773	0.108255	0.612988
	C166	C	0.300925	0.879225	0.614618
	C167	C	0.301505	0.107905	0.374651
	C168	C	0.858695	0.380608	0.174574
	C169	C	0.100390	0.607792	0.172506
	C170	C	0.104115	0.380135	0.814059
	C171	C	0.859363	0.606771	0.816235
	C172	C	0.158917	0.872859	0.381266
	C173	C	0.157398	0.114118	0.607738
	C174	C	0.799964	0.117181	0.381438
	C175	C	0.801233	0.874627	0.607460
	C176	C	0.365485	0.172324	0.873267
	C177	C	0.594076	0.169952	0.113597
	C178	C	0.365744	0.815006	0.113871
	C179	C	0.593479	0.813663	0.870512
	C180	C	0.366118	0.871804	0.172859
	C181	C	0.593475	0.114200	0.172185
	C182	C	0.365161	0.114585	0.815795
	C183	C	0.593536	0.870850	0.813343
	C184	C	0.856302	0.176521	0.382330
	C185	C	0.099664	0.172023	0.608262
	C186	C	0.102416	0.814503	0.381862
	C187	C	0.858267	0.816205	0.607543
	C188	C	0.160203	0.379407	0.873154
	C189	C	0.157377	0.607965	0.113603
	C190	C	0.803029	0.379445	0.115137
	C191	C	0.801985	0.606759	0.874491
	C192	C	0.380701	0.086329	0.593634
	C193	C	0.577596	0.900382	0.591278
	C194	C	0.576461	0.087030	0.394512
	C195	C	0.382202	0.900545	0.395291
	C196	C	0.578928	0.392960	0.087328
	C197	C	0.578460	0.590975	0.900898
	C198	C	0.382199	0.591989	0.085913
	C199	C	0.383184	0.394684	0.901539
	C200	C	0.073677	0.592092	0.395482
	C201	C	0.886485	0.592737	0.593864
	C202	C	0.073828	0.396081	0.591459
	C203	C	0.885672	0.398277	0.397421
	C204	C	0.881030	0.586946	0.093329
	C205	C	0.077491	0.401269	0.092951
	C206	C	0.078501	0.586412	0.894774
	C207	C	0.883699	0.399801	0.895232
	C208	C	0.078019	0.894986	0.587664
	C209	C	0.076914	0.092888	0.402338
	C210	C	0.879674	0.094319	0.587427
	C211	C	0.882888	0.896104	0.401664
	C212	C	0.573010	0.089673	0.894770
	C213	C	0.385717	0.091208	0.091720
	C214	C	0.573430	0.894864	0.090995
	C215	C	0.386072	0.895509	0.895664
	Zn216	Zn	0.479428	-0.007463	0.744122
	Zn217	Zn	0.479854	-0.006148	0.243216
	Zn218	Zn	0.730647	0.492225	-0.005745
	Zn219	Zn	0.230236	0.493370	-0.006304
	Zn220	Zn	-0.019787	0.743710	0.494764
	Zn221	Zn	-0.020631	0.245636	0.494974
	Zn222	Zn	-0.019018	0.493370	0.743746
	Zn223	Zn	-0.020935	0.494669	0.245024
	Zn224	Zn	0.480195	0.743563	-0.007457
	Zn225	Zn	0.480401	0.241622	-0.006119
	Zn226	Zn	0.729353	-0.005211	0.493791
	Zn227	Zn	0.229441	-0.006345	0.493938
	N228	N	0.391257	0.956538	0.675242
	N229	N	0.565276	0.029635	0.673000
	N230	N	0.566679	0.957139	0.313627
	N231	N	0.391183	0.029847	0.312827
	N232	N	0.660524	0.405212	0.957848
	N233	N	0.657842	0.577338	0.030950
	N234	N	0.301892	0.578787	0.956487
	N235	N	0.301696	0.407462	0.030988
	N236	N	0.942743	0.673002	0.409136
	N237	N	0.017504	0.672115	0.580077
	N238	N	0.942590	0.316968	0.580504
	N239	N	0.016428	0.316538	0.409450
	N240	N	0.944067	0.407952	0.673679
	N241	N	0.017233	0.580549	0.673919
	N242	N	0.942662	0.581538	0.315573
	N243	N	0.016349	0.408466	0.315656
	N244	N	0.392835	0.673478	0.957017
	N245	N	0.567023	0.672819	0.029539
	N246	N	0.567069	0.312858	0.957544
	N247	N	0.393935	0.313252	0.030697
	N248	N	0.658665	0.957268	0.407519
	N249	N	0.655936	0.031604	0.577962
	N250	N	0.300700	0.955952	0.579796
	N251	N	0.302052	0.031193	0.409616
	N252	N	0.892381	0.457689	0.175417
	N253	N	0.066213	0.530811	0.174097
	N254	N	0.069312	0.457115	0.812754
	N255	N	0.894597	0.529967	0.815194
	N256	N	0.158618	0.907828	0.457610
	N257	N	0.157756	0.079599	0.531323
	N258	N	0.800018	0.081363	0.457282
	N259	N	0.801411	0.909233	0.530976
	N260	N	0.442766	0.171764	0.907650
	N261	N	0.517146	0.169928	0.078534
	N262	N	0.442750	0.814996	0.078320
	N263	N	0.516683	0.813834	0.906017
	N264	N	0.443210	0.906275	0.173457
	N265	N	0.515935	0.080302	0.173106
	N266	N	0.442015	0.078833	0.814985
	N267	N	0.516207	0.906173	0.813757
	N268	N	0.890955	0.176863	0.458807
	N269	N	0.064942	0.173151	0.531933
	N270	N	0.067989	0.813344	0.458634
	N271	N	0.893264	0.814928	0.530988
	N272	N	0.159440	0.455968	0.908137
	N273	N	0.158025	0.531260	0.079094
	N274	N	0.802821	0.455861	0.079494
	N275	N	0.802003	0.529840	0.908871
	O276	O	0.069282	0.138028	-0.023789
	H277	H	0.061347	0.134741	-0.030449
	H278	H	0.081056	0.154177	-0.023304
	O279	O	-0.148974	0.988863	0.179011
	H280	H	-0.150770	0.975175	0.189292
	H281	H	-0.155649	0.978314	0.177509
	O282	O	0.808572	0.050453	-0.109951
	H283	H	0.807405	0.057495	-0.099930
	H284	H	0.807091	0.060836	-0.113600
	O285	O	-0.004823	1.124623	-0.000421
	H286	H	0.002251	1.120332	0.017546
	H287	H	0.005710	1.131790	-0.003076
	O288	O	0.440620	0.417522	0.548255
	H289	H	0.454821	0.412097	0.543500
	H290	H	0.447933	0.413829	0.538738
	O291	O	1.030214	-0.014143	0.890799
	H292	H	1.026304	-0.010176	0.899061
	H293	H	1.023007	-0.011352	0.887135
	O294	O	1.383573	0.565680	0.542763
	H295	H	1.367978	0.559725	0.542343
	H296	H	1.380404	0.563428	0.535834
	O297	O	0.016384	-0.065000	-0.063680
	H298	H	0.012840	-0.067523	-0.052912
	H299	H	0.022809	-0.062773	-0.064487
	O300	O	0.950876	0.898065	1.086971
	H301	H	0.951466	0.893710	1.081441
	H302	H	0.956006	0.904635	1.075444
	O303	O	-0.016588	1.095910	1.081292
	H304	H	-0.030294	1.110851	1.095971
	H305	H	0.002217	1.091647	1.086582
	O306	O	0.364316	0.502196	0.417012
	H307	H	0.352797	0.499081	0.416047
	H308	H	0.371225	0.497582	0.422669
	O309	O	1.083000	-0.066250	-0.031688
	H310	H	1.088232	-0.079590	-0.038595
	H311	H	1.087925	-0.059739	-0.024581
	O312	O	-0.043999	-0.163604	0.895939
	H313	H	-0.036771	-0.165998	0.877035
	H314	H	-0.041260	-0.166557	0.893601
	O315	O	0.519908	0.449552	0.499806
	H316	H	0.516648	0.452685	0.499162
	H317	H	0.526986	0.437213	0.506309
	O318	O	0.600060	0.441511	0.488386
	H319	H	0.593280	0.453615	0.481168
	H320	H	0.608494	0.438512	0.479682
	O321	O	0.472901	0.622097	0.563323
	H322	H	0.465550	0.625612	0.562155
	H323	H	0.462074	0.631018	0.571519
	O324	O	0.541602	0.568057	0.480575
	H325	H	0.535965	0.570793	0.472047
	H326	H	0.541958	0.572457	0.483550
	O327	O	-0.032484	1.094226	0.863566
	H328	H	-0.036671	1.090924	0.870084
	H329	H	-0.042186	1.104975	0.863716
	O330	O	0.364704	0.567413	0.364862
	H331	H	0.358478	0.566843	0.353479
	H332	H	0.354266	0.575924	0.358726
	O333	O	0.090356	1.144013	1.094737
	H334	H	0.107401	1.147465	1.093052
	H335	H	0.087656	1.128640	1.103915
	O336	O	1.544521	0.573393	0.598518
	H337	H	1.534057	0.575256	0.603711
	H338	H	1.543621	0.577927	0.596506
	O339	O	0.505710	0.435871	0.370903
	H340	H	0.508199	0.438151	0.372808
	H341	H	0.506554	0.443628	0.365473
	O342	O	1.077609	-0.009245	0.118255
	H343	H	1.060731	-0.015098	0.114111
	H344	H	1.086258	-0.013938	0.117166
	O345	O	0.558612	0.350494	0.523839
	H346	H	0.570169	0.345518	0.525506
	H347	H	0.568121	0.347464	0.527806
	O348	O	1.059558	0.906359	0.812161
	H349	H	1.053283	0.900743	0.799078
	H350	H	1.053243	0.910685	0.818477
	O351	O	1.565859	1.499172	0.455740
	H352	H	1.563516	1.500348	0.448987
	H353	H	1.563501	1.518465	0.456249
	O354	O	1.004747	-0.055946	0.878112
	H355	H	0.994456	-0.040572	0.869578
	H356	H	0.996756	-0.055586	0.877451
	O357	O	0.459421	0.594426	0.530227
	H358	H	0.443045	0.598557	0.526264
	H359	H	0.454188	0.603047	0.535470
	O360	O	-0.035606	0.089847	-0.132155
	H361	H	-0.035360	0.102400	-0.138407
	H362	H	-0.044860	0.084385	-0.129658
	O363	O	0.451182	0.400897	0.376377
	H364	H	0.445779	0.412576	0.372982
	H365	H	0.452964	0.400290	0.376263
	O366	O	0.374790	0.348641	0.565968
	H367	H	0.381385	0.334461	0.569261
	H368	H	0.379829	0.341543	0.566317
	O369	O	0.354472	0.483329	0.510579
	H370	H	0.349624	0.478836	0.516658
	H371	H	0.348661	0.478577	0.508613
	O372	O	-0.032596	0.904381	1.159835
	H373	H	-0.036780	0.898634	1.155470
	H374	H	-0.035370	0.895204	1.149809
	O375	O	1.526695	0.453556	0.638355
	H376	H	1.523700	0.462938	0.635746
	H377	H	1.526479	0.463282	0.638083
	O378	O	0.500357	0.471940	0.473588
	H379	H	0.501187	0.459955	0.488958
	H380	H	0.494710	0.466050	0.456881
	O381	O	0.821842	-0.026558	0.116715
	H382	H	0.831874	-0.028188	0.133681
	H383	H	0.828744	-0.024902	0.110243
	O384	O	0.123849	1.380071	0.189241
	H385	H	0.125588	1.378271	0.176610
	H386	H	0.122125	1.381540	0.189611
	O387	O	0.908293	-0.069180	0.951804
	H388	H	0.913556	-0.062634	0.951509
	H389	H	0.915270	-0.056312	0.948982
	O390	O	-0.155150	1.053550	-0.117919
	H391	H	-0.169792	1.062588	-0.114264
	H392	H	-0.163023	1.061033	-0.104441
	O393	O	1.524807	1.603151	0.453954
	H394	H	1.540002	1.605615	0.456711
	H395	H	1.526968	1.612957	0.454180
	O396	O	0.632651	0.508065	0.493989
	H397	H	0.626244	0.512286	0.505152
	H398	H	0.640952	0.511918	0.506120
	O399	O	-0.175418	0.799849	1.124372
	H400	H	-0.180065	0.794795	1.117168
	H401	H	-0.170795	0.783241	1.122071
	O402	O	1.068961	1.059998	1.110185
	H403	H	1.053277	1.059021	1.120882
	H404	H	1.080439	1.052794	1.108872
	O405	O	0.162302	0.913183	0.028144
	H406	H	0.159351	0.916693	0.030780
	H407	H	0.165227	0.915014	0.021394
