data_Molecule from HDF5

_cell_length_a		16.435888
_cell_length_b		16.377688
_cell_length_c		16.180678
_cell_angle_alpha	90.462975
_cell_angle_beta	89.888607
_cell_angle_gamma	90.004784
_symmetry_space_group_name_H-M	'P 1'
_symmetry_Int_Tables_number		1

loop_
	_symmetry_equiv_pos_as_xyz
	x,y,z

loop_
	_atom_site_label
	_atom_site_type_symbol
	_atom_site_fract_x
	_atom_site_fract_y
	_atom_site_fract_z
	H0	H	0.401819	0.815447	0.699800
	H1	H	0.600144	0.140270	0.704928
	H2	H	0.603411	0.817217	0.270220
	H3	H	0.402044	0.139593	0.268144
	H4	H	0.724734	0.373292	0.826904
	H5	H	0.718965	0.582204	0.150859
	H6	H	0.284340	0.580282	0.825926
	H7	H	0.286086	0.376786	0.150466
	H8	H	0.841974	0.699110	0.386738
	H9	H	0.162041	0.702456	0.593649
	H10	H	0.842383	0.262530	0.593082
	H11	H	0.162548	0.260930	0.384291
	H12	H	0.840760	0.382957	0.705167
	H13	H	0.164129	0.583048	0.706583
	H14	H	0.842249	0.582355	0.271275
	H15	H	0.163989	0.380235	0.270774
	H16	H	0.401875	0.692152	0.823404
	H17	H	0.606611	0.698986	0.147701
	H18	H	0.606973	0.259894	0.824107
	H19	H	0.402910	0.262474	0.149877
	H20	H	0.726535	0.822286	0.378977
	H21	H	0.719509	0.141434	0.592826
	H22	H	0.280322	0.819854	0.590350
	H23	H	0.282055	0.139186	0.382184
	H24	H	0.901331	0.319621	0.207832
	H25	H	0.103263	0.642971	0.206033
	H26	H	0.105462	0.321023	0.767117
	H27	H	0.903951	0.642550	0.777818
	H28	H	0.220401	0.874210	0.324788
	H29	H	0.221142	0.085061	0.649464
	H30	H	0.785780	0.084715	0.324628
	H31	H	0.783538	0.881602	0.648978
	H32	H	0.345011	0.199677	0.879502
	H33	H	0.663768	0.198175	0.091483
	H34	H	0.344382	0.758061	0.089229
	H35	H	0.663201	0.757057	0.880124
	H36	H	0.343609	0.874481	0.204834
	H37	H	0.664233	0.080553	0.205111
	H38	H	0.341435	0.076849	0.770862
	H39	H	0.662684	0.875738	0.765742
	H40	H	0.901442	0.198570	0.325380
	H41	H	0.104051	0.199316	0.650897
	H42	H	0.105685	0.758542	0.327154
	H43	H	0.899632	0.766978	0.651143
	H44	H	0.221356	0.319665	0.882910
	H45	H	0.225355	0.639389	0.096052
	H46	H	0.780987	0.320476	0.096696
	H47	H	0.782211	0.638316	0.887056
	H48	H	0.412684	0.091833	0.575500
	H49	H	0.590963	0.868007	0.571021
	H50	H	0.592965	0.094897	0.394858
	H51	H	0.414231	0.866123	0.395843
	H52	H	0.585968	0.376498	0.104612
	H53	H	0.594677	0.561053	0.871928
	H54	H	0.409468	0.571604	0.104583
	H55	H	0.414980	0.388480	0.872065
	H56	H	0.119528	0.573683	0.391543
	H57	H	0.889499	0.575566	0.578598
	H58	H	0.113272	0.390964	0.571227
	H59	H	0.886452	0.377942	0.402384
	H60	H	0.115623	0.396366	0.582514
	H61	H	0.888323	0.570511	0.584572
	H62	H	0.115903	0.578130	0.406631
	H63	H	0.894524	0.398941	0.407929
	H64	H	0.414102	0.562429	0.100891
	H65	H	0.590705	0.566823	0.873483
	H66	H	0.605205	0.388493	0.106758
	H67	H	0.411894	0.383791	0.870117
	H68	H	0.592748	0.093317	0.397937
	H69	H	0.598464	0.865122	0.569733
	H70	H	0.408854	0.094050	0.577803
	H71	H	0.408143	0.865331	0.399436
	H72	H	0.908686	0.592317	0.073464
	H73	H	0.098850	0.364968	0.080722
	H74	H	0.099173	0.596784	0.897345
	H75	H	0.918973	0.365998	0.896088
	H76	H	0.091370	0.886813	0.605291
	H77	H	0.100940	0.065191	0.370670
	H78	H	0.915703	0.076086	0.603705
	H79	H	0.918776	0.891196	0.373769
	H80	H	0.618559	0.074255	0.898754
	H81	H	0.388978	0.071727	0.078001
	H82	H	0.614238	0.889242	0.066502
	H83	H	0.388555	0.885103	0.893410
	H84	H	0.617626	0.893726	0.082923
	H85	H	0.391033	0.070079	0.072649
	H86	H	0.613967	0.063257	0.900219
	H87	H	0.387258	0.881874	0.894554
	H88	H	0.904825	0.075367	0.605888
	H89	H	0.084684	0.065782	0.376767
	H90	H	0.098411	0.896555	0.603995
	H91	H	0.913416	0.885107	0.369859
	H92	H	0.092608	0.594581	0.899150
	H93	H	0.090168	0.366826	0.081441
	H94	H	0.906255	0.596636	0.083218
	H95	H	0.912461	0.366161	0.905493
	H96	H	0.412811	0.092818	0.580499
	H97	H	0.594551	0.863744	0.577402
	H98	H	0.595815	0.094945	0.396688
	H99	H	0.408620	0.863759	0.392450
	H100	H	0.586280	0.398522	0.097798
	H101	H	0.596730	0.567651	0.869799
	H102	H	0.420178	0.571747	0.102006
	H103	H	0.409001	0.389161	0.871192
	H104	H	0.113130	0.563581	0.401422
	H105	H	0.885786	0.577745	0.585533
	H106	H	0.118769	0.384523	0.580645
	H107	H	0.886873	0.394433	0.386655
	H108	H	0.916004	0.592891	0.081184
	H109	H	0.094422	0.367693	0.073230
	H110	H	0.097465	0.594496	0.904134
	H111	H	0.907932	0.362600	0.895227
	H112	H	0.086828	0.896581	0.599391
	H113	H	0.091852	0.080052	0.369508
	H114	H	0.910221	0.066371	0.602259
	H115	H	0.910775	0.893688	0.371252
	H116	H	0.617968	0.067182	0.889148
	H117	H	0.391006	0.066465	0.077250
	H118	H	0.621206	0.877840	0.077367
	H119	H	0.389528	0.884462	0.896455
	C120	C	0.380179	-0.013077	0.608221
	C121	C	0.623999	0.971544	0.606207
	C122	C	0.625346	-0.011180	0.364250
	C123	C	0.380348	0.970893	0.364678
	C124	C	0.624710	0.356428	-0.003719
	C125	C	0.624333	0.598100	0.978809
	C126	C	0.383351	0.598332	-0.004596
	C127	C	0.381894	0.357160	0.978655
	C128	C	0.010500	0.602107	0.368788
	C129	C	0.993911	0.605125	0.613236
	C130	C	0.010485	0.360166	0.610228
	C131	C	0.994744	0.359123	0.366901
	C132	C	0.880226	0.488242	0.111109
	C133	C	0.125153	0.472279	0.110485
	C134	C	0.125872	0.489234	0.867467
	C135	C	0.882068	0.471138	0.868927
	C136	C	0.123578	0.859748	0.496209
	C137	C	0.123513	0.101779	0.479386
	C138	C	0.880668	0.103052	0.496290
	C139	C	0.882227	0.860991	0.479140
	C140	C	0.511145	0.098613	0.865181
	C141	C	0.495868	0.100167	0.107942
	C142	C	0.511844	0.856520	0.106754
	C143	C	0.494257	0.853680	0.862798
	C144	C	0.381155	0.864864	0.663306
	C145	C	0.621247	0.092113	0.666119
	C146	C	0.624182	0.866645	0.307455
	C147	C	0.381548	0.091604	0.306821
	C148	C	0.684432	0.354931	0.874689
	C149	C	0.681248	0.600479	0.101507
	C150	C	0.324063	0.598823	0.873850
	C151	C	0.324642	0.357335	0.101144
	C152	C	0.889995	0.659803	0.368193
	C153	C	0.114180	0.663256	0.612783
	C154	C	0.890227	0.302003	0.611462
	C155	C	0.114796	0.300583	0.365621
	C156	C	0.889425	0.361926	0.667536
	C157	C	0.115332	0.603723	0.669074
	C158	C	0.890006	0.601720	0.310581
	C159	C	0.115467	0.359709	0.308982
	C160	C	0.382673	0.654448	0.872618
	C161	C	0.625263	0.658779	0.099914
	C162	C	0.625900	0.298606	0.873327
	C163	C	0.382855	0.300202	0.100939
	C164	C	0.685594	0.869178	0.361288
	C165	C	0.680459	0.092782	0.609756
	C166	C	0.320748	0.867019	0.608479
	C167	C	0.322201	0.091434	0.363814
	C168	C	0.881448	0.367787	0.169155
	C169	C	0.124035	0.593931	0.168196
	C170	C	0.124890	0.368553	0.807320
	C171	C	0.883200	0.593219	0.813992
	C172	C	0.181824	0.856475	0.374080
	C173	C	0.181782	0.103367	0.601183
	C174	C	0.823858	0.103595	0.373637
	C175	C	0.822960	0.862148	0.600700
	C176	C	0.391833	0.158367	0.862848
	C177	C	0.615692	0.159021	0.109624
	C178	C	0.391919	0.797671	0.107968
	C179	C	0.614837	0.795889	0.861104
	C180	C	0.391674	0.855762	0.165681
	C181	C	0.615949	0.100257	0.166407
	C182	C	0.390086	0.097404	0.808253
	C183	C	0.614680	0.854661	0.803985
	C184	C	0.881479	0.160464	0.374147
	C185	C	0.123816	0.160495	0.601851
	C186	C	0.124632	0.798839	0.374966
	C187	C	0.880730	0.805056	0.601847
	C188	C	0.182783	0.367958	0.864669
	C189	C	0.184570	0.592218	0.113213
	C190	C	0.821514	0.367914	0.113672
	C191	C	0.822817	0.591202	0.868761
	C192	C	0.404613	0.071138	0.584903
	C193	C	0.601244	0.887294	0.580018
	C194	C	0.600720	0.072622	0.389092
	C195	C	0.403820	0.886932	0.388767
	C196	C	0.599790	0.380586	0.081267
	C197	C	0.600930	0.572389	0.893687
	C198	C	0.407617	0.575175	0.080317
	C199	C	0.405266	0.380389	0.893331
	C200	C	0.094450	0.578696	0.392891
	C201	C	0.909568	0.581476	0.589784
	C202	C	0.094113	0.383762	0.585341
	C203	C	0.910896	0.383329	0.391828
	C204	C	0.903490	0.572120	0.086528
	C205	C	0.101293	0.388155	0.085664
	C206	C	0.103011	0.573408	0.892938
	C207	C	0.906021	0.386722	0.892279
	C208	C	0.099166	0.885774	0.580969
	C209	C	0.099689	0.077323	0.394324
	C210	C	0.903533	0.079466	0.581744
	C211	C	0.907160	0.883439	0.393738
	C212	C	0.595067	0.075093	0.889006
	C213	C	0.412110	0.076182	0.083137
	C214	C	0.595777	0.880361	0.082473
	C215	C	0.410394	0.876851	0.887553
	Zn216	Zn	0.502240	-0.023086	0.735829
	Zn217	Zn	0.503202	-0.021748	0.236105
	Zn218	Zn	0.752011	0.478008	-0.010746
	Zn219	Zn	0.254321	0.479415	-0.011195
	Zn220	Zn	0.001967	0.732060	0.489319
	Zn221	Zn	0.002605	0.230022	0.488336
	Zn222	Zn	0.003023	0.481353	0.740453
	Zn223	Zn	0.002913	0.481156	0.238810
	Zn224	Zn	0.504025	0.726182	-0.014219
	Zn225	Zn	0.503722	0.228936	-0.013751
	Zn226	Zn	0.753935	-0.018148	0.485945
	Zn227	Zn	0.251473	-0.019765	0.486973
	N228	N	0.417580	0.940520	0.663019
	N229	N	0.586720	0.015625	0.663936
	N230	N	0.587293	0.942103	0.309256
	N231	N	0.416858	0.015630	0.307309
	N232	N	0.683798	0.390113	0.952115
	N233	N	0.680744	0.563341	0.024929
	N234	N	0.324502	0.564511	0.951153
	N235	N	0.323890	0.391853	0.024033
	N236	N	0.965984	0.660094	0.403620
	N237	N	0.037464	0.664340	0.578985
	N238	N	0.966569	0.300567	0.576613
	N239	N	0.038574	0.300054	0.400621
	N240	N	0.965102	0.397424	0.666790
	N241	N	0.039490	0.568296	0.669411
	N242	N	0.966069	0.566847	0.310504
	N243	N	0.039672	0.395385	0.309624
	N244	N	0.418964	0.654329	0.949130
	N245	N	0.590646	0.657319	0.022703
	N246	N	0.589510	0.299405	0.949920
	N247	N	0.417630	0.299859	0.023601
	N248	N	0.686549	0.945938	0.395913
	N249	N	0.682132	0.016738	0.573089
	N250	N	0.320210	0.943790	0.574846
	N251	N	0.321031	0.015183	0.398567
	N252	N	0.917453	0.443593	0.167564
	N253	N	0.087685	0.518325	0.166662
	N254	N	0.090531	0.444945	0.808720
	N255	N	0.919334	0.517391	0.814030
	N256	N	0.181099	0.893919	0.450632
	N257	N	0.181771	0.067779	0.524000
	N258	N	0.823174	0.068799	0.450621
	N259	N	0.823968	0.896071	0.523297
	N260	N	0.468065	0.159274	0.897552
	N261	N	0.539751	0.159174	0.073886
	N262	N	0.467821	0.797885	0.072143
	N263	N	0.539027	0.794993	0.896772
	N264	N	0.467292	0.891553	0.164989
	N265	N	0.540396	0.064479	0.165530
	N266	N	0.465269	0.060724	0.809625
	N267	N	0.538861	0.889767	0.804980
	N268	N	0.916277	0.160102	0.451248
	N269	N	0.088119	0.159538	0.525099
	N270	N	0.089419	0.800655	0.451884
	N271	N	0.916963	0.804333	0.525162
	N272	N	0.183475	0.443907	0.901563
	N273	N	0.185527	0.515594	0.078092
	N274	N	0.820486	0.443851	0.078564
	N275	N	0.822011	0.514242	0.902136
	O276	O	0.375472	0.614727	0.361075
	H277	H	0.361953	0.614569	0.349075
	H278	H	0.361472	0.615993	0.359175
	O279	O	0.654214	0.418199	0.354010
	H280	H	0.662690	0.432013	0.344585
	H281	H	0.655047	0.426611	0.347619
	O282	O	1.050731	-0.134383	0.791428
	H283	H	1.043010	-0.134262	0.788576
	H284	H	1.053004	-0.131596	0.776672
	O285	O	0.559335	0.568716	0.447025
	H286	H	0.559913	0.578917	0.440555
	H287	H	0.569736	0.577339	0.460957
	O288	O	0.469137	1.353532	1.591550
	H289	H	0.469750	1.350907	1.607948
	H290	H	0.473565	1.351616	1.592559
	O291	O	0.110342	0.894639	0.125455
	H292	H	0.112200	0.893632	0.129071
	H293	H	0.124911	0.906051	0.139412
	O294	O	0.542498	0.405202	0.493270
	H295	H	0.548114	0.406785	0.479146
	H296	H	0.545600	0.408420	0.482222
	O297	O	0.417777	0.380045	0.328043
	H298	H	0.409583	0.376646	0.343562
	H299	H	0.413795	0.386274	0.324037
	O300	O	0.424724	0.596690	0.369906
	H301	H	0.422185	0.588824	0.361224
	H302	H	0.421036	0.599334	0.373914
	O303	O	-0.114793	0.832620	1.108469
	H304	H	-0.112253	0.846588	1.117624
	H305	H	-0.114814	0.832077	1.095869
	O306	O	0.631475	0.399716	0.362505
	H307	H	0.619330	0.406730	0.351223
	H308	H	0.623481	0.417581	0.358787
	O309	O	1.208627	1.075023	-0.066146
	H310	H	1.202066	1.076215	-0.034484
	H311	H	1.235562	1.088828	-0.059200
	O312	O	0.013598	0.104310	-0.093937
	H313	H	0.018619	0.105179	-0.085329
	H314	H	0.013391	0.103438	-0.101903
	O315	O	0.675269	0.320430	0.519441
	H316	H	0.677436	0.307221	0.504790
	H317	H	0.678793	0.318284	0.500035
	O318	O	0.134454	0.805557	0.964893
	H319	H	0.133219	0.808121	0.941860
	H320	H	0.130960	0.804579	0.956934
	O321	O	0.379712	0.449682	0.568908
	H322	H	0.394426	0.453230	0.573673
	H323	H	0.371088	0.449145	0.565954
	O324	O	0.014348	0.907484	-0.191389
	H325	H	0.023867	0.919365	-0.196084
	H326	H	0.017353	0.901685	-0.180350
	O327	O	0.446172	0.587434	0.439323
	H328	H	0.444591	0.594482	0.438662
	H329	H	0.445697	0.578639	0.425926
	O330	O	0.172823	-0.084510	0.883203
	H331	H	0.179079	-0.085301	0.867975
	H332	H	0.160886	-0.083729	0.879395
	O333	O	-0.378226	-0.494769	1.665907
	H334	H	-0.373420	-0.491977	1.658831
	H335	H	-0.377870	-0.495630	1.655500
	O336	O	0.003310	0.989444	1.018173
	H337	H	-0.014994	0.983217	1.022039
	H338	H	0.003655	0.989019	1.009445
	O339	O	1.057442	-0.038021	0.082874
	H340	H	1.067333	-0.036591	0.070522
	H341	H	1.049598	-0.044966	0.074784
	O342	O	-0.162440	0.051085	-0.021788
	H343	H	-0.165369	0.044675	-0.014616
	H344	H	-0.160727	0.055730	-0.023234
	O345	O	0.976480	0.089216	1.036197
	H346	H	0.970649	0.081626	1.015996
	H347	H	0.980145	0.078927	1.027131
	O348	O	0.413186	1.466863	0.494563
	H349	H	0.416390	1.453590	0.501392
	H350	H	0.405709	1.472613	0.501443
	O351	O	0.354048	0.347295	0.410346
	H352	H	0.347832	0.342824	0.406733
	H353	H	0.347718	0.346464	0.420631
	O354	O	0.889463	-0.081585	1.015408
	H355	H	0.895039	-0.083386	1.030682
	H356	H	0.901682	-0.072993	1.018261
	O357	O	0.603271	0.683703	0.614693
	H358	H	0.613958	0.681239	0.642293
	H359	H	0.630859	0.705007	0.619489
	O360	O	0.361629	0.395915	0.629064
	H361	H	0.379038	0.386402	0.625867
	H362	H	0.358065	0.403431	0.633050
	O363	O	0.480644	1.638499	0.404774
	H364	H	0.468594	1.630494	0.405912
	H365	H	0.483597	1.653898	0.406206
	O366	O	0.355966	0.532461	0.530605
	H367	H	0.344668	0.531473	0.536516
	H368	H	0.366718	0.535294	0.538685
	O369	O	0.064798	1.178669	0.176526
	H370	H	0.070180	1.195650	0.189808
	H371	H	0.045633	1.187780	0.168528
	O372	O	0.161711	0.106062	0.063474
	H373	H	0.156065	0.116622	0.065602
	H374	H	0.156266	0.074254	0.060739
	O375	O	0.623912	0.523661	0.599844
	H376	H	0.617827	0.507838	0.603213
	H377	H	0.616801	0.512121	0.596766
	O378	O	1.095168	1.020867	0.140933
	H379	H	1.086556	1.013300	0.140686
	H380	H	1.112522	1.036788	0.159634
	O381	O	0.933166	0.032140	-0.127539
	H382	H	0.919722	0.035379	-0.116282
	H383	H	0.927926	0.052137	-0.142971
	O384	O	0.896044	0.912256	0.007538
	H385	H	0.894391	0.921148	0.013431
	H386	H	0.889060	0.917452	0.015450
	O387	O	-0.119933	0.002124	0.177958
	H388	H	-0.130524	-0.013709	0.181821
	H389	H	-0.090129	-0.002636	0.186148
	O390	O	-0.135541	1.038943	-0.108732
	H391	H	-0.135900	1.026344	-0.117964
	H392	H	-0.129067	1.039593	-0.102146
	O393	O	0.960364	1.095334	0.936351
	H394	H	0.968129	1.096465	0.933982
	H395	H	0.945177	1.097040	0.939697
	O396	O	0.453681	0.384351	1.518677
	H397	H	0.456242	0.372277	1.518163
	H398	H	0.446049	0.387591	1.537246
	O399	O	-0.088141	0.980067	0.884678
	H400	H	-0.090450	0.979102	0.881851
	H401	H	-0.099574	0.981676	0.890100
	O402	O	0.678968	0.597009	0.492467
	H403	H	0.684750	0.592931	0.488078
	H404	H	0.676868	0.605527	0.486547
	O405	O	1.488375	0.297765	0.427075
	H406	H	1.488967	0.297866	0.427922
	H407	H	1.488153	0.291677	0.421831
	O408	O	1.026563	0.833857	-0.024289
	H409	H	1.031547	0.830959	-0.031417
	H410	H	1.024584	0.832361	-0.015650
	O411	O	1.020411	0.056679	0.898317
	H412	H	1.025543	0.060557	0.889816
	H413	H	1.020457	0.072695	0.906682
	O414	O	0.492240	0.535801	0.631409
	H415	H	0.491158	0.529671	0.620797
	H416	H	0.503621	0.547034	0.652335
	O417	O	1.044373	0.967660	1.074290
	H418	H	1.036193	0.970079	1.082439
	H419	H	1.057949	0.959357	1.061223
