data_Molecule from HDF5

_cell_length_a		16.132842
_cell_length_b		16.269746
_cell_length_c		16.376679
_cell_angle_alpha	89.784915
_cell_angle_beta	90.397403
_cell_angle_gamma	90.037324
_symmetry_space_group_name_H-M	'P 1'
_symmetry_Int_Tables_number		1

loop_
	_symmetry_equiv_pos_as_xyz
	x,y,z

loop_
	_atom_site_label
	_atom_site_type_symbol
	_atom_site_fract_x
	_atom_site_fract_y
	_atom_site_fract_z
	H0	H	0.416768	0.833784	0.713270
	H1	H	0.617131	0.160097	0.712873
	H2	H	0.616820	0.832886	0.282912
	H3	H	0.413699	0.158313	0.278489
	H4	H	0.727744	0.397768	0.831629
	H5	H	0.732374	0.591916	0.158240
	H6	H	0.300762	0.594302	0.832573
	H7	H	0.302661	0.397718	0.159038
	H8	H	0.850339	0.710735	0.394555
	H9	H	0.181635	0.709833	0.593582
	H10	H	0.851226	0.282549	0.592191
	H11	H	0.181102	0.284315	0.398160
	H12	H	0.851171	0.395366	0.708990
	H13	H	0.180083	0.595860	0.711428
	H14	H	0.851789	0.597269	0.277370
	H15	H	0.180170	0.396602	0.281981
	H16	H	0.413652	0.713249	0.834234
	H17	H	0.617424	0.710344	0.158482
	H18	H	0.613291	0.279760	0.833662
	H19	H	0.416549	0.279839	0.159145
	H20	H	0.728347	0.831942	0.402511
	H21	H	0.729850	0.161588	0.594213
	H22	H	0.304314	0.831883	0.593247
	H23	H	0.303656	0.161059	0.398954
	H24	H	0.915993	0.332245	0.211471
	H25	H	0.117317	0.659532	0.210648
	H26	H	0.115299	0.332835	0.780459
	H27	H	0.912369	0.659017	0.777381
	H28	H	0.229503	0.900843	0.333040
	H29	H	0.231452	0.094252	0.660096
	H30	H	0.799441	0.096103	0.334034
	H31	H	0.805185	0.900184	0.660622
	H32	H	0.350636	0.208501	0.897403
	H33	H	0.681278	0.209643	0.095516
	H34	H	0.350247	0.781528	0.095107
	H35	H	0.680696	0.782749	0.901416
	H36	H	0.351097	0.895184	0.211913
	H37	H	0.680819	0.095572	0.212347
	H38	H	0.352235	0.096452	0.779794
	H39	H	0.680791	0.895290	0.783601
	H40	H	0.916654	0.211500	0.332712
	H41	H	0.118804	0.213737	0.657762
	H42	H	0.115452	0.782462	0.332452
	H43	H	0.916969	0.779246	0.658076
	H44	H	0.226548	0.330923	0.900944
	H45	H	0.229961	0.660308	0.092077
	H46	H	0.805238	0.330656	0.089729
	H47	H	0.800846	0.659727	0.896348
	H48	H	0.422324	0.112947	0.587469
	H49	H	0.614844	0.878081	0.593235
	H50	H	0.603841	0.110752	0.406694
	H51	H	0.427640	0.878629	0.396582
	H52	H	0.610150	0.403780	0.111137
	H53	H	0.598662	0.589465	0.883531
	H54	H	0.426420	0.588802	0.111244
	H55	H	0.415739	0.394136	0.876282
	H56	H	0.131665	0.580419	0.399033
	H57	H	0.897659	0.590471	0.588606
	H58	H	0.132973	0.409156	0.592081
	H59	H	0.897215	0.398585	0.404753
	H60	H	0.134950	0.402155	0.591244
	H61	H	0.898736	0.589409	0.584027
	H62	H	0.136895	0.596843	0.397107
	H63	H	0.900615	0.409341	0.405716
	H64	H	0.422833	0.589723	0.112040
	H65	H	0.609512	0.598965	0.876802
	H66	H	0.608934	0.400962	0.111376
	H67	H	0.417949	0.409122	0.881672
	H68	H	0.611535	0.113961	0.404989
	H69	H	0.607240	0.880223	0.596315
	H70	H	0.423167	0.114934	0.593034
	H71	H	0.427001	0.882868	0.410022
	H72	H	0.920756	0.615323	0.095867
	H73	H	0.110655	0.378170	0.093526
	H74	H	0.110884	0.612762	0.907401
	H75	H	0.922624	0.379762	0.901998
	H76	H	0.109399	0.907101	0.610409
	H77	H	0.111205	0.089885	0.380616
	H78	H	0.929548	0.089859	0.610301
	H79	H	0.927318	0.910084	0.383189
	H80	H	0.632560	0.086388	0.908398
	H81	H	0.399018	0.081939	0.090457
	H82	H	0.634360	0.910389	0.101122
	H83	H	0.396050	0.905703	0.892883
	H84	H	0.636424	0.891512	0.092368
	H85	H	0.396853	0.090433	0.092091
	H86	H	0.634352	0.086180	0.900744
	H87	H	0.397338	0.895653	0.908532
	H88	H	0.923714	0.095447	0.613355
	H89	H	0.106765	0.089836	0.381591
	H90	H	0.105352	0.897515	0.611191
	H91	H	0.925296	0.897034	0.379265
	H92	H	0.111810	0.615405	0.895636
	H93	H	0.104440	0.380420	0.091601
	H94	H	0.934871	0.608991	0.087781
	H95	H	0.921015	0.378750	0.900148
	H96	H	0.427697	0.112742	0.590075
	H97	H	0.608948	0.882038	0.587937
	H98	H	0.605467	0.113276	0.399367
	H99	H	0.415295	0.877594	0.403803
	H100	H	0.612002	0.401008	0.111472
	H101	H	0.612761	0.583933	0.880450
	H102	H	0.423846	0.586059	0.111535
	H103	H	0.430302	0.398446	0.881108
	H104	H	0.131799	0.591831	0.412038
	H105	H	0.899106	0.586336	0.587286
	H106	H	0.131996	0.405054	0.585688
	H107	H	0.896539	0.405466	0.395283
	H108	H	0.919497	0.610728	0.078351
	H109	H	0.109314	0.380141	0.087311
	H110	H	0.101286	0.610710	0.899797
	H111	H	0.923463	0.379378	0.899464
	H112	H	0.114783	0.898777	0.613476
	H113	H	0.108468	0.093673	0.379630
	H114	H	0.921554	0.087214	0.612318
	H115	H	0.913851	0.905775	0.379156
	H116	H	0.634865	0.093389	0.904627
	H117	H	0.400195	0.088862	0.083945
	H118	H	0.628542	0.907248	0.080928
	H119	H	0.402713	0.914053	0.908844
	C120	C	0.395753	0.005175	0.618193
	C121	C	0.638746	0.988186	0.620027
	C122	C	0.636882	0.004553	0.375978
	C123	C	0.394085	0.987863	0.374418
	C124	C	0.637793	0.373504	0.003925
	C125	C	0.637631	0.618025	0.987392
	C126	C	0.393986	0.617657	0.004106
	C127	C	0.393512	0.372443	0.987390
	C128	C	0.024079	0.618450	0.373233
	C129	C	1.007499	0.617633	0.616272
	C130	C	0.024648	0.375613	0.617196
	C131	C	1.007270	0.375686	0.374486
	C132	C	0.896059	0.503457	0.115619
	C133	C	0.137863	0.487697	0.118367
	C134	C	0.136209	0.504260	0.874250
	C135	C	0.893213	0.487483	0.872110
	C136	C	0.138351	0.874035	0.504130
	C137	C	0.138678	0.119213	0.488067
	C138	C	0.894912	0.119496	0.504635
	C139	C	0.894598	0.875570	0.488170
	C140	C	0.524790	0.117221	0.875423
	C141	C	0.507851	0.116431	0.117914
	C142	C	0.524023	0.874180	0.119498
	C143	C	0.507454	0.875492	0.875685
	C144	C	0.397091	0.882290	0.674406
	C145	C	0.637369	0.111330	0.675083
	C146	C	0.636122	0.881797	0.320863
	C147	C	0.394866	0.110173	0.317758
	C148	C	0.691045	0.376515	0.880713
	C149	C	0.694748	0.613848	0.109576
	C150	C	0.338526	0.614930	0.881639
	C151	C	0.339695	0.376364	0.110289
	C152	C	0.900102	0.673131	0.374827
	C153	C	0.132114	0.672012	0.613867
	C154	C	0.900518	0.319743	0.613443
	C155	C	0.131504	0.321511	0.377638
	C156	C	0.900253	0.376315	0.671230
	C157	C	0.131159	0.615908	0.673069
	C158	C	0.900591	0.616601	0.316537
	C159	C	0.131192	0.377618	0.320054
	C160	C	0.394650	0.674362	0.882388
	C161	C	0.637399	0.672299	0.109962
	C162	C	0.634042	0.318006	0.881808
	C163	C	0.396160	0.317756	0.110336
	C164	C	0.691749	0.881225	0.380460
	C165	C	0.693226	0.112148	0.615916
	C166	C	0.341369	0.881432	0.614867
	C167	C	0.339979	0.111464	0.377584
	C168	C	0.896955	0.380615	0.171975
	C169	C	0.137035	0.610604	0.172877
	C170	C	0.134705	0.381359	0.818997
	C171	C	0.894047	0.610429	0.816337
	C172	C	0.192375	0.878999	0.381518
	C173	C	0.193994	0.115456	0.610993
	C174	C	0.838006	0.116827	0.382428
	C175	C	0.841714	0.878682	0.611510
	C176	C	0.400210	0.171359	0.877297
	C177	C	0.631775	0.172050	0.115912
	C178	C	0.399782	0.818960	0.115981
	C179	C	0.631360	0.819726	0.879713
	C180	C	0.400290	0.875542	0.174041
	C181	C	0.631699	0.115136	0.173985
	C182	C	0.401081	0.115431	0.818884
	C183	C	0.631509	0.876065	0.821500
	C184	C	0.896171	0.174336	0.381873
	C185	C	0.137784	0.174825	0.609845
	C186	C	0.135568	0.820200	0.381222
	C187	C	0.897067	0.818698	0.610213
	C188	C	0.190054	0.380356	0.879031
	C189	C	0.193182	0.610997	0.113903
	C190	C	0.841930	0.379785	0.111775
	C191	C	0.838414	0.610803	0.875400
	C192	C	0.417918	0.091233	0.596481
	C193	C	0.616611	0.902304	0.598879
	C194	C	0.613603	0.090517	0.397502
	C195	C	0.416809	0.901881	0.396824
	C196	C	0.616661	0.395645	0.089129
	C197	C	0.614071	0.596944	0.902386
	C198	C	0.417383	0.594920	0.089551
	C199	C	0.414965	0.394084	0.901846
	C200	C	0.110876	0.596265	0.396078
	C201	C	0.920937	0.595219	0.593402
	C202	C	0.111082	0.398644	0.595876
	C203	C	0.920558	0.398041	0.395584
	C204	C	0.918607	0.589469	0.093802
	C205	C	0.114955	0.401799	0.097089
	C206	C	0.114376	0.590739	0.894912
	C207	C	0.915811	0.401439	0.894083
	C208	C	0.116459	0.894849	0.589593
	C209	C	0.115606	0.097398	0.402594
	C210	C	0.918117	0.097360	0.589970
	C211	C	0.915990	0.897727	0.402595
	C212	C	0.611555	0.095117	0.897989
	C213	C	0.421048	0.093647	0.095442
	C214	C	0.610581	0.896466	0.097832
	C215	C	0.421138	0.898383	0.897061
	Zn216	Zn	0.517138	-0.003497	0.747659
	Zn217	Zn	0.515985	-0.004069	0.246697
	Zn218	Zn	0.766251	0.495493	-0.005505
	Zn219	Zn	0.265666	0.495488	-0.004329
	Zn220	Zn	0.015742	0.746038	0.494854
	Zn221	Zn	0.017023	0.248291	0.495869
	Zn222	Zn	0.014875	0.496142	0.744859
	Zn223	Zn	0.016010	0.495777	0.246179
	Zn224	Zn	0.515111	0.747165	-0.003238
	Zn225	Zn	0.515481	0.244645	-0.003167
	Zn226	Zn	0.765925	-0.002874	0.497324
	Zn227	Zn	0.267072	-0.003529	0.496796
	N228	N	0.430103	0.960270	0.676713
	N229	N	0.604238	0.033456	0.677715
	N230	N	0.602763	0.959746	0.317881
	N231	N	0.427687	0.032219	0.315658
	N232	N	0.693457	0.410473	0.957551
	N233	N	0.695040	0.581047	0.032346
	N234	N	0.338268	0.580236	0.958334
	N235	N	0.337793	0.409675	0.033019
	N236	N	0.978083	0.674362	0.409279
	N237	N	0.054255	0.673066	0.579160
	N238	N	0.978700	0.319436	0.580371
	N239	N	0.053445	0.320133	0.410834
	N240	N	0.978247	0.410442	0.673607
	N241	N	0.052738	0.582543	0.674451
	N242	N	0.978843	0.583172	0.315444
	N243	N	0.052761	0.410830	0.318044
	N244	N	0.428314	0.676136	0.959809
	N245	N	0.602503	0.675263	0.033171
	N246	N	0.602101	0.315610	0.959471
	N247	N	0.429025	0.315268	0.033034
	N248	N	0.692297	0.958565	0.413981
	N249	N	0.694459	0.034608	0.582489
	N250	N	0.340446	0.958690	0.580777
	N251	N	0.339406	0.034268	0.412199
	N252	N	0.929909	0.458678	0.174487
	N253	N	0.103552	0.532923	0.175912
	N254	N	0.101857	0.459448	0.816111
	N255	N	0.927044	0.532469	0.814081
	N256	N	0.194252	0.911754	0.458861
	N257	N	0.194671	0.081506	0.534238
	N258	N	0.837087	0.083234	0.459563
	N259	N	0.840086	0.913376	0.534711
	N260	N	0.478227	0.172525	0.911945
	N261	N	0.553640	0.172773	0.081832
	N262	N	0.477889	0.817758	0.082786
	N263	N	0.553069	0.819223	0.912730
	N264	N	0.478498	0.909240	0.176317
	N265	N	0.553494	0.081357	0.175311
	N266	N	0.479385	0.082218	0.817785
	N267	N	0.553424	0.909716	0.818772
	N268	N	0.930879	0.176044	0.458770
	N269	N	0.103982	0.176949	0.532485
	N270	N	0.102630	0.817099	0.458507
	N271	N	0.929329	0.816810	0.532696
	N272	N	0.191131	0.457837	0.912591
	N273	N	0.193976	0.533477	0.080713
	N274	N	0.841083	0.457156	0.077433
	N275	N	0.837828	0.533387	0.909393
	O276	O	1.034449	0.953492	-0.005009
	H277	H	1.040464	0.947565	0.001123
	H278	H	1.026589	0.956426	-0.011519
	O279	O	-0.007631	-0.069788	1.007478
	H280	H	-0.009717	-0.066991	1.005523
	H281	H	-0.014608	-0.078177	1.015242
	O282	O	-0.516408	0.599941	0.540046
	H283	H	-0.521494	0.597425	0.543058
	H284	H	-0.521982	0.600272	0.538906
	O285	O	0.458607	0.546667	0.415574
	H286	H	0.461846	0.549237	0.411954
	H287	H	0.455260	0.542227	0.419012
	O288	O	-0.051530	-0.079168	0.024288
	H289	H	-0.059612	-0.085497	0.020647
	H290	H	-0.056357	-0.075483	0.018958
	O291	O	0.034068	1.036960	-0.007286
	H292	H	0.029120	1.039149	0.002210
	H293	H	0.039249	1.039979	-0.011138
	O294	O	0.026134	0.971940	-0.007867
	H295	H	0.022468	0.978595	-0.009167
	H296	H	0.030618	0.969465	-0.003349
	O297	O	0.576812	0.474028	0.439915
	H298	H	0.571023	0.478239	0.432977
	H299	H	0.562493	0.480750	0.454597
	O300	O	0.497057	0.663660	0.401431
	H301	H	0.499066	0.661400	0.394471
	H302	H	0.495668	0.675773	0.388305
	O303	O	0.503131	-0.433814	1.482257
	H304	H	0.498867	-0.450434	1.489458
	H305	H	0.504910	-0.426707	1.495806
	O306	O	0.005754	1.014097	0.995853
	H307	H	0.002461	1.012838	0.991460
	H308	H	0.018739	1.014643	0.991029
	O309	O	0.024731	1.024894	1.008362
	H310	H	0.032354	1.016583	1.013338
	H311	H	0.025922	1.018563	1.016028
	O312	O	-0.014561	0.024054	0.945232
	H313	H	-0.013738	0.020475	0.938977
	H314	H	-0.009556	0.025251	0.950447
	O315	O	0.522352	0.438260	0.517130
	H316	H	0.533016	0.447385	0.521413
	H317	H	0.532016	0.442319	0.520398
	O318	O	0.009293	0.012271	0.986257
	H319	H	0.009671	0.013725	0.986595
	H320	H	0.005566	0.010417	0.985712
	O321	O	0.527682	0.499329	0.418426
	H322	H	0.534420	0.495507	0.419903
	H323	H	0.527390	0.499355	0.412576
	O324	O	1.025934	-0.030059	0.997753
	H325	H	1.026238	-0.029941	1.002330
	H326	H	1.025993	-0.023669	0.998572
	O327	O	0.965179	0.976634	0.997291
	H328	H	0.972483	0.979811	0.999573
	H329	H	0.958093	0.975892	0.994843
	O330	O	0.484150	0.464530	0.505487
	H331	H	0.492232	0.454517	0.502068
	H332	H	0.488791	0.463467	0.499712
	O333	O	0.493992	0.617525	0.524222
	H334	H	0.485478	0.614776	0.514111
	H335	H	0.497027	0.616004	0.529597
	O336	O	0.427215	0.505665	0.487581
	H337	H	0.420166	0.493583	0.491207
	H338	H	0.425383	0.496390	0.481904
	O339	O	-0.570035	0.505199	-0.568696
	H340	H	-0.574777	0.490815	-0.564676
	H341	H	-0.574757	0.512169	-0.565176
	O342	O	0.604813	0.563290	0.570425
	H343	H	0.597855	0.575217	0.572149
	H344	H	0.599913	0.576905	0.564699
	O345	O	0.530422	0.457320	0.507296
	H346	H	0.533166	0.458963	0.506181
	H347	H	0.541101	0.472815	0.503891
