data_Molecule from HDF5

_cell_length_a		16.573486
_cell_length_b		16.491644
_cell_length_c		16.445631
_cell_angle_alpha	90.129053
_cell_angle_beta	89.903521
_cell_angle_gamma	90.065855
_symmetry_space_group_name_H-M	'P 1'
_symmetry_Int_Tables_number		1

loop_
	_symmetry_equiv_pos_as_xyz
	x,y,z

loop_
	_atom_site_label
	_atom_site_type_symbol
	_atom_site_fract_x
	_atom_site_fract_y
	_atom_site_fract_z
	H0	H	0.394629	0.837045	0.718473
	H1	H	0.607572	0.150415	0.720012
	H2	H	0.607544	0.839039	0.272348
	H3	H	0.395217	0.153693	0.276203
	H4	H	0.722502	0.391592	0.838736
	H5	H	0.726345	0.606560	0.153538
	H6	H	0.275683	0.605546	0.841400
	H7	H	0.275650	0.385501	0.152790
	H8	H	0.844839	0.717932	0.389445
	H9	H	0.156627	0.720343	0.603906
	H10	H	0.846062	0.271542	0.603627
	H11	H	0.157818	0.270448	0.388035
	H12	H	0.846110	0.388736	0.720599
	H13	H	0.158280	0.602459	0.718874
	H14	H	0.844769	0.600140	0.274029
	H15	H	0.157087	0.385434	0.270149
	H16	H	0.390913	0.722024	0.841376
	H17	H	0.609696	0.721374	0.153593
	H18	H	0.605457	0.275996	0.838339
	H19	H	0.393255	0.272017	0.154226
	H20	H	0.725968	0.839570	0.385570
	H21	H	0.726548	0.149591	0.606565
	H22	H	0.277522	0.838077	0.603650
	H23	H	0.278738	0.151927	0.390995
	H24	H	0.899715	0.336766	0.213631
	H25	H	0.106724	0.653549	0.218736
	H26	H	0.105831	0.338472	0.774963
	H27	H	0.897268	0.654063	0.775884
	H28	H	0.224830	0.887009	0.339829
	H29	H	0.221758	0.100950	0.655545
	H30	H	0.776608	0.104805	0.341519
	H31	H	0.775497	0.885446	0.651799
	H32	H	0.345206	0.218464	0.889680
	H33	H	0.657918	0.216447	0.099957
	H34	H	0.345629	0.771485	0.103337
	H35	H	0.656994	0.771111	0.887189
	H36	H	0.344557	0.889051	0.219409
	H37	H	0.657047	0.102479	0.218795
	H38	H	0.344092	0.100101	0.774236
	H39	H	0.656836	0.886347	0.770490
	H40	H	0.895349	0.217669	0.339994
	H41	H	0.106294	0.217202	0.654811
	H42	H	0.106076	0.773835	0.338265
	H43	H	0.893364	0.772557	0.653384
	H44	H	0.225353	0.339799	0.887036
	H45	H	0.226080	0.651823	0.105532
	H46	H	0.780187	0.339094	0.100301
	H47	H	0.779306	0.653247	0.889713
	H48	H	0.404134	0.109921	0.587235
	H49	H	0.589794	0.881073	0.586376
	H50	H	0.594857	0.109495	0.409258
	H51	H	0.413856	0.882877	0.405846
	H52	H	0.593232	0.405373	0.111199
	H53	H	0.588585	0.586063	0.884988
	H54	H	0.410455	0.587770	0.111161
	H55	H	0.421589	0.405481	0.887212
	H56	H	0.110135	0.579592	0.410744
	H57	H	0.890087	0.583778	0.584784
	H58	H	0.115759	0.404730	0.589146
	H59	H	0.888551	0.402907	0.404229
	H60	H	0.112639	0.404112	0.580275
	H61	H	0.889004	0.583022	0.586968
	H62	H	0.114503	0.583479	0.402855
	H63	H	0.891964	0.404870	0.410509
	H64	H	0.411903	0.572914	0.105568
	H65	H	0.592697	0.582129	0.884442
	H66	H	0.591958	0.410005	0.108969
	H67	H	0.408267	0.402846	0.880393
	H68	H	0.585938	0.106951	0.405022
	H69	H	0.582916	0.884913	0.581542
	H70	H	0.416467	0.107644	0.590744
	H71	H	0.415150	0.884848	0.410438
	H72	H	0.910610	0.609615	0.084419
	H73	H	0.089369	0.386411	0.077630
	H74	H	0.085876	0.608098	0.904500
	H75	H	0.911034	0.384181	0.909324
	H76	H	0.089352	0.904599	0.610350
	H77	H	0.084698	0.083283	0.386094
	H78	H	0.906492	0.085439	0.612075
	H79	H	0.914988	0.906032	0.383665
	H80	H	0.612370	0.076778	0.903800
	H81	H	0.386390	0.092458	0.083542
	H82	H	0.612845	0.904805	0.082549
	H83	H	0.392471	0.911204	0.909717
	H84	H	0.609917	0.911789	0.080472
	H85	H	0.391899	0.079135	0.080659
	H86	H	0.615923	0.090888	0.902808
	H87	H	0.390031	0.908162	0.906435
	H88	H	0.913894	0.073385	0.605919
	H89	H	0.093872	0.085688	0.382940
	H90	H	0.092687	0.908953	0.609087
	H91	H	0.910796	0.907331	0.383240
	H92	H	0.087371	0.605247	0.915230
	H93	H	0.093608	0.381669	0.085391
	H94	H	0.913531	0.610222	0.086883
	H95	H	0.911213	0.383127	0.907553
	H96	H	0.413033	0.104408	0.578104
	H97	H	0.591377	0.883521	0.577783
	H98	H	0.587720	0.104355	0.414678
	H99	H	0.410838	0.882456	0.410047
	H100	H	0.588578	0.406128	0.109423
	H101	H	0.587643	0.580266	0.886820
	H102	H	0.424541	0.582960	0.104329
	H103	H	0.410557	0.416033	0.887768
	H104	H	0.113795	0.589040	0.411119
	H105	H	0.890147	0.585462	0.586136
	H106	H	0.110837	0.412500	0.585073
	H107	H	0.890855	0.409529	0.405547
	H108	H	0.914195	0.608005	0.083974
	H109	H	0.084343	0.384988	0.086114
	H110	H	0.095542	0.609907	0.909497
	H111	H	0.912844	0.384043	0.908545
	H112	H	0.087238	0.908858	0.607977
	H113	H	0.092094	0.076262	0.385910
	H114	H	0.921260	0.086565	0.608652
	H115	H	0.913939	0.910160	0.385710
	H116	H	0.610180	0.085033	0.915401
	H117	H	0.386340	0.082412	0.093948
	H118	H	0.613107	0.910648	0.087557
	H119	H	0.390890	0.906496	0.911235
	C120	C	0.378858	0.003152	0.618176
	C121	C	0.621740	0.986075	0.616844
	C122	C	0.623203	0.004118	0.374552
	C123	C	0.380399	0.987203	0.375952
	C124	C	0.622846	0.375072	0.005269
	C125	C	0.623206	0.617403	0.988902
	C126	C	0.380775	0.616248	0.004570
	C127	C	0.379525	0.374169	0.988709
	C128	C	0.009505	0.616442	0.375220
	C129	C	0.992791	0.617639	0.618551
	C130	C	0.010044	0.374029	0.618091
	C131	C	0.993668	0.372655	0.373844
	C132	C	0.880636	0.504679	0.117061
	C133	C	0.122821	0.487431	0.117664
	C134	C	0.122344	0.503701	0.876009
	C135	C	0.879544	0.487709	0.875359
	C136	C	0.122428	0.874154	0.505057
	C137	C	0.122465	0.115660	0.488800
	C138	C	0.880874	0.115643	0.505338
	C139	C	0.879622	0.874192	0.487946
	C140	C	0.509674	0.116968	0.874273
	C141	C	0.492030	0.117363	0.117954
	C142	C	0.509302	0.874733	0.117434
	C143	C	0.493505	0.874077	0.874706
	C144	C	0.376538	0.884583	0.678473
	C145	C	0.625527	0.103712	0.679245
	C146	C	0.625987	0.886240	0.312678
	C147	C	0.377525	0.106043	0.316155
	C148	C	0.682566	0.372841	0.886364
	C149	C	0.685338	0.622980	0.106440
	C150	C	0.316914	0.622245	0.888169
	C151	C	0.316955	0.369008	0.106098
	C152	C	0.891785	0.677067	0.371825
	C153	C	0.110014	0.679313	0.621749
	C154	C	0.892584	0.312719	0.621509
	C155	C	0.110835	0.311139	0.370288
	C156	C	0.892709	0.370851	0.679642
	C157	C	0.110887	0.620497	0.678826
	C158	C	0.891596	0.618496	0.314390
	C159	C	0.110552	0.368456	0.311589
	C160	C	0.374438	0.680212	0.887989
	C161	C	0.627418	0.680478	0.106486
	C162	C	0.624372	0.315414	0.886068
	C163	C	0.375504	0.312158	0.106485
	C164	C	0.685090	0.886888	0.369063
	C165	C	0.684730	0.103032	0.623033
	C166	C	0.318074	0.884958	0.621450
	C167	C	0.319184	0.105152	0.373259
	C168	C	0.880186	0.384777	0.174877
	C169	C	0.125738	0.605975	0.178947
	C170	C	0.124710	0.385809	0.814775
	C171	C	0.878635	0.606584	0.815988
	C172	C	0.183480	0.870224	0.386701
	C173	C	0.182257	0.118946	0.607753
	C174	C	0.818289	0.120978	0.388056
	C175	C	0.816839	0.868979	0.605096
	C176	C	0.391895	0.177645	0.871618
	C177	C	0.610355	0.177240	0.119415
	C178	C	0.392234	0.812385	0.121277
	C179	C	0.610226	0.811943	0.869880
	C180	C	0.391621	0.870889	0.178959
	C181	C	0.609912	0.120361	0.178400
	C182	C	0.391451	0.118956	0.814016
	C183	C	0.610158	0.869418	0.811798
	C184	C	0.877350	0.177447	0.387325
	C185	C	0.124723	0.176834	0.607459
	C186	C	0.124749	0.813450	0.386103
	C187	C	0.875632	0.812645	0.605975
	C188	C	0.183964	0.386513	0.870835
	C189	C	0.184734	0.605124	0.122247
	C190	C	0.821072	0.385781	0.118489
	C191	C	0.819630	0.606207	0.872469
	C192	C	0.404029	0.085794	0.592604
	C193	C	0.595411	0.904541	0.589578
	C194	C	0.596990	0.085707	0.401729
	C195	C	0.406048	0.904706	0.401279
	C196	C	0.598188	0.399957	0.088042
	C197	C	0.597031	0.590604	0.906901
	C198	C	0.408132	0.589016	0.085762
	C199	C	0.406009	0.400483	0.906638
	C200	C	0.091386	0.591132	0.400904
	C201	C	0.911110	0.591628	0.593127
	C202	C	0.091557	0.399741	0.592093
	C203	C	0.911740	0.398477	0.399556
	C204	C	0.905553	0.587555	0.092472
	C205	C	0.096687	0.405650	0.090925
	C206	C	0.096902	0.586286	0.902173
	C207	C	0.904410	0.405211	0.901102
	C208	C	0.097074	0.899949	0.587578
	C209	C	0.097349	0.089353	0.406513
	C210	C	0.906441	0.089373	0.587337
	C211	C	0.905833	0.900192	0.405749
	C212	C	0.591402	0.091461	0.899919
	C213	C	0.409749	0.092013	0.093234
	C214	C	0.590800	0.901531	0.091215
	C215	C	0.412273	0.900743	0.901593
	Zn216	Zn	0.500896	-0.005546	0.745593
	Zn217	Zn	0.500761	-0.004387	0.247057
	Zn218	Zn	0.751323	0.496935	-0.003367
	Zn219	Zn	0.251398	0.495512	-0.003499
	Zn220	Zn	0.000722	0.746016	0.496234
	Zn221	Zn	0.002045	0.244579	0.496746
	Zn222	Zn	0.001651	0.496206	0.747357
	Zn223	Zn	0.001956	0.495490	0.245704
	Zn224	Zn	0.502073	0.745393	-0.003805
	Zn225	Zn	0.501159	0.246442	-0.003867
	Zn226	Zn	0.751223	-0.005215	0.496854
	Zn227	Zn	0.251257	-0.004713	0.496818
	N228	N	0.413474	0.959221	0.676666
	N229	N	0.587146	0.029887	0.675621
	N230	N	0.588138	0.960194	0.315992
	N231	N	0.414882	0.031652	0.317761
	N232	N	0.681830	0.409143	0.961498
	N233	N	0.682702	0.584585	0.032358
	N234	N	0.320929	0.582836	0.961624
	N235	N	0.319304	0.406711	0.031810
	N236	N	0.966084	0.676105	0.408768
	N237	N	0.035744	0.677779	0.585075
	N238	N	0.966394	0.314631	0.583867
	N239	N	0.037036	0.313680	0.408453
	N240	N	0.966694	0.408338	0.677609
	N241	N	0.036862	0.582699	0.676911
	N242	N	0.965901	0.581549	0.316262
	N243	N	0.036775	0.406170	0.313740
	N244	N	0.413678	0.676551	0.961380
	N245	N	0.589314	0.677083	0.032268
	N246	N	0.587841	0.316587	0.961051
	N247	N	0.413643	0.315050	0.032281
	N248	N	0.683595	0.961283	0.406853
	N249	N	0.682381	0.028977	0.584824
	N250	N	0.319573	0.959702	0.584784
	N251	N	0.320704	0.030155	0.409624
	N252	N	0.916536	0.459725	0.174004
	N253	N	0.088170	0.531758	0.176294
	N254	N	0.087091	0.459889	0.818031
	N255	N	0.915198	0.531874	0.817575
	N256	N	0.182366	0.907037	0.461659
	N257	N	0.181227	0.081698	0.532881
	N258	N	0.820270	0.083163	0.462389
	N259	N	0.819250	0.906611	0.530741
	N260	N	0.466441	0.176755	0.908084
	N261	N	0.535918	0.175731	0.082774
	N262	N	0.466465	0.814620	0.083985
	N263	N	0.536684	0.814716	0.908316
	N264	N	0.465580	0.908696	0.176809
	N265	N	0.535261	0.084034	0.177879
	N266	N	0.465704	0.082071	0.815404
	N267	N	0.536506	0.907333	0.814621
	N268	N	0.915486	0.174403	0.461233
	N269	N	0.088249	0.174986	0.532593
	N270	N	0.087458	0.815680	0.460744
	N271	N	0.913959	0.815540	0.531811
	N272	N	0.182665	0.461048	0.908158
	N273	N	0.183519	0.530107	0.085454
	N274	N	0.820920	0.461420	0.083725
	N275	N	0.820219	0.531093	0.908705
	O276	O	-0.011695	0.199034	-0.204381
	H277	H	-0.008387	0.220545	-0.200478
	H278	H	-0.007267	0.190675	-0.196068
	O279	O	0.389794	0.457562	0.349671
	H280	H	0.399118	0.477534	0.344299
	H281	H	0.392729	0.457480	0.359555
	O282	O	1.199432	0.790349	-0.000275
	H283	H	1.214933	0.778849	0.005086
	H284	H	1.197907	0.804981	0.004953
	O285	O	0.701629	0.385906	0.500979
	H286	H	0.696418	0.397976	0.498815
	H287	H	0.716381	0.383176	0.485246
	O288	O	-0.432811	0.570904	0.450187
	H289	H	-0.440696	0.543413	0.455280
	H290	H	-0.418320	0.556925	0.439555
	O291	O	1.050756	1.020580	0.993854
	H292	H	1.037155	1.027308	0.985703
	H293	H	1.052487	1.014239	0.990372
	O294	O	-0.092653	1.090363	0.195261
	H295	H	-0.080584	1.070116	0.193672
	H296	H	-0.087120	1.086464	0.175301
	O297	O	0.531734	0.279764	1.275318
	H298	H	0.539510	0.263449	1.257664
	H299	H	0.541959	0.278026	1.263628
	O300	O	0.512058	0.490341	0.688612
	H301	H	0.527475	0.497565	0.681200
	H302	H	0.514933	0.488696	0.685111
	O303	O	0.696672	0.688708	0.689725
	H304	H	0.703468	0.695843	0.652867
	H305	H	0.665117	0.690359	0.692362
	O306	O	-0.177497	1.035361	1.107330
	H307	H	-0.161666	1.030525	1.104136
	H308	H	-0.183383	1.017699	1.095780
	O309	O	0.704012	0.694911	0.521005
	H310	H	0.686312	0.698484	0.503926
	H311	H	0.719751	0.710561	0.512854
	O312	O	0.467206	0.507318	0.342729
	H313	H	0.469464	0.490983	0.342121
	H314	H	0.475153	0.507820	0.331598
	O315	O	-0.193266	-0.121038	1.187607
	H316	H	-0.195258	-0.110714	1.197716
	H317	H	-0.170298	-0.125240	1.201658
	O318	O	0.194553	1.016988	-0.161088
	H319	H	0.200504	1.000771	-0.167158
	H320	H	0.212616	0.997409	-0.169707
	O321	O	-0.078330	1.146166	1.005947
	H322	H	-0.076478	1.138254	0.988725
	H323	H	-0.076485	1.133975	0.994170
	O324	O	0.852112	0.015124	1.198550
	H325	H	0.862986	0.021536	1.188675
	H326	H	0.824106	0.009972	1.216876
	O327	O	1.132355	-0.102439	0.947176
	H328	H	1.134409	-0.103509	0.953982
	H329	H	1.116419	-0.100698	0.948926
	O330	O	1.196123	0.184791	0.129869
	H331	H	1.169889	0.189221	0.135294
	H332	H	1.201454	0.211130	0.128439
	O333	O	0.284263	0.521929	0.278938
	H334	H	0.314276	0.520837	0.283703
	H335	H	0.256254	0.521366	0.237116
	O336	O	1.141545	0.150189	0.987413
	H337	H	1.157167	0.135068	0.966796
	H338	H	1.153917	0.154484	0.991084
	O339	O	0.713472	0.521020	0.707497
	H340	H	0.716313	0.541300	0.705592
	H341	H	0.718210	0.532394	0.719915
	O342	O	0.291773	0.283409	0.522593
	H343	H	0.291938	0.284719	0.516715
	H344	H	0.282056	0.275305	0.521069
	O345	O	-0.055394	0.001932	0.017063
	H346	H	-0.056811	-0.010556	-0.007256
	H347	H	-0.077038	-0.010907	0.027509
	O348	O	0.646726	0.309558	0.446127
	H349	H	0.639529	0.298111	0.463382
	H350	H	0.661160	0.305858	0.440820
	O351	O	0.942458	0.899873	-0.092758
	H352	H	0.942572	0.909619	-0.109667
	H353	H	0.923057	0.897774	-0.091572
	O354	O	0.312265	0.683912	0.307178
	H355	H	0.304134	0.672028	0.335731
	H356	H	0.322800	0.674767	0.299606
	O357	O	1.046972	1.176152	0.903796
	H358	H	1.051554	1.172308	0.914575
	H359	H	1.071726	1.183529	0.912207
	O360	O	0.524585	0.344237	0.583489
	H361	H	0.512024	0.346144	0.588225
	H362	H	0.521872	0.330417	0.582294
	O363	O	0.372926	0.322997	0.382407
	H364	H	0.379539	0.340601	0.387375
	H365	H	0.384795	0.327469	0.371425
	O366	O	0.786805	0.210436	0.870341
	H367	H	0.782195	0.210190	0.884429
	H368	H	0.772480	0.227986	0.865287
	O369	O	0.398911	0.514135	0.507461
	H370	H	0.404123	0.526897	0.498356
	H371	H	0.402751	0.501916	0.501870
	O372	O	0.619192	0.479350	0.447328
	H373	H	0.619522	0.485982	0.457175
	H374	H	0.629156	0.475428	0.443377
	O375	O	-0.553233	1.605515	1.555035
	H376	H	-0.561666	1.586217	1.542573
	H377	H	-0.558011	1.603706	1.578601
	O378	O	0.377620	0.598158	0.539880
	H379	H	0.368262	0.596011	0.554168
	H380	H	0.382098	0.581751	0.516168
	O381	O	1.536578	-0.589779	-0.342232
	H382	H	1.550568	-0.596952	-0.331872
	H383	H	1.539111	-0.593914	-0.347811
	O384	O	0.101642	-0.155381	1.144489
	H385	H	0.097752	-0.138015	1.128390
	H386	H	0.103547	-0.142292	1.169408
	O387	O	-0.024863	0.992716	0.884089
	H388	H	-0.018748	1.002612	0.886431
	H389	H	-0.010800	0.995921	0.878221
	O390	O	0.160417	0.032906	0.978976
	H391	H	0.159128	0.051529	0.972381
	H392	H	0.189332	0.023621	0.966863
	O393	O	0.800167	0.804394	0.028297
	H394	H	0.793065	0.786802	0.034211
	H395	H	0.805765	0.807160	0.056701
	O396	O	1.144830	1.087648	-0.132503
	H397	H	1.157324	1.095012	-0.146798
	H398	H	1.121903	1.080737	-0.139214
	O399	O	0.836400	1.154379	0.880295
	H400	H	0.863277	1.163373	0.875820
	H401	H	0.823768	1.165948	0.888391
	O402	O	0.189085	-0.142525	0.798242
	H403	H	0.160310	-0.147926	0.784665
	H404	H	0.192607	-0.153889	0.828840
	O405	O	0.010612	-0.130075	0.206993
	H406	H	0.011542	-0.138282	0.208455
	H407	H	0.033705	-0.128903	0.213328
	O408	O	1.025526	1.202170	1.208583
	H409	H	1.003866	1.194790	1.211672
	H410	H	1.012463	1.218997	1.213725
	O411	O	0.948449	0.825399	0.175917
	H412	H	0.977831	0.824491	0.175787
	H413	H	0.943618	0.816500	0.166760
	O414	O	0.495427	0.503006	0.314647
	H415	H	0.487260	0.518832	0.313436
	H416	H	0.503536	0.495168	0.332387
	O417	O	0.332551	0.302269	0.667368
	H418	H	0.326333	0.328447	0.663319
	H419	H	0.354433	0.303314	0.663229
	O420	O	0.486165	0.677442	0.588266
	H421	H	0.481600	0.677986	0.581388
	H422	H	0.473590	0.685900	0.591232
	O423	O	-0.487353	0.280031	0.697380
	H424	H	-0.495238	0.293267	0.695879
	H425	H	-0.485212	0.268524	0.717640
	O426	O	0.791075	1.007868	0.784109
	H427	H	0.796229	1.040295	0.791015
	H428	H	0.768887	1.020985	0.765737
	O429	O	0.218411	-0.020337	0.169722
	H430	H	0.220853	0.005785	0.166420
	H431	H	0.221753	-0.004018	0.177416
	O432	O	0.509563	0.596080	0.693697
	H433	H	0.523535	0.603801	0.694800
	H434	H	0.513744	0.585098	0.696057
	O435	O	0.660152	-0.593819	-0.378869
	H436	H	0.667347	-0.580658	-0.393330
	H437	H	0.652039	-0.602134	-0.396275
	O438	O	1.013615	-0.215067	-0.210340
	H439	H	1.005689	-0.225533	-0.239937
	H440	H	0.994203	-0.195883	-0.211808
	O441	O	0.285634	0.702604	0.476078
	H442	H	0.282873	0.707187	0.472188
	H443	H	0.271697	0.707305	0.488092
	O444	O	0.294147	1.440033	0.691212
	H445	H	0.297955	1.454624	0.696344
	H446	H	0.293847	1.449774	0.701162
	O447	O	0.699712	0.300961	0.297231
	H448	H	0.710369	0.300881	0.298851
	H449	H	0.701850	0.293824	0.295085
	O450	O	0.420289	0.476755	0.544337
	H451	H	0.408604	0.476097	0.546826
	H452	H	0.435465	0.468589	0.549709
	O453	O	0.615846	0.685468	0.400629
	H454	H	0.605529	0.678428	0.408777
	H455	H	0.599089	0.667216	0.389668
	O456	O	0.787082	-0.037317	-0.033582
	H457	H	0.790816	-0.055767	-0.034175
	H458	H	0.778714	-0.046910	-0.047608
	O459	O	0.677189	0.497517	0.370689
	H460	H	0.668683	0.501995	0.361193
	H461	H	0.680778	0.489421	0.359613
	O462	O	0.477300	0.714014	0.277427
	H463	H	0.480380	0.718172	0.268878
	H464	H	0.456525	0.726200	0.263393
	O465	O	1.017105	-0.211428	0.012260
	H466	H	1.023401	-0.208608	0.009183
	H467	H	1.011647	-0.217179	-0.003086
