data_Molecule from HDF5

_cell_length_a		16.376629
_cell_length_b		16.379641
_cell_length_c		16.466729
_cell_angle_alpha	89.984741
_cell_angle_beta	90.055286
_cell_angle_gamma	90.038072
_symmetry_space_group_name_H-M	'P 1'
_symmetry_Int_Tables_number		1

loop_
	_symmetry_equiv_pos_as_xyz
	x,y,z

loop_
	_atom_site_label
	_atom_site_type_symbol
	_atom_site_fract_x
	_atom_site_fract_y
	_atom_site_fract_z
	H0	H	0.388527	0.838137	0.727798
	H1	H	0.604199	0.153186	0.725794
	H2	H	0.601627	0.836942	0.281570
	H3	H	0.388448	0.153794	0.281471
	H4	H	0.719198	0.390523	0.846186
	H5	H	0.717027	0.599855	0.164330
	H6	H	0.274471	0.602084	0.847822
	H7	H	0.276125	0.390111	0.162865
	H8	H	0.838335	0.718600	0.395656
	H9	H	0.156522	0.714141	0.605880
	H10	H	0.836657	0.274927	0.608178
	H11	H	0.156211	0.275289	0.401511
	H12	H	0.836613	0.390406	0.724276
	H13	H	0.155291	0.600897	0.724440
	H14	H	0.837612	0.601165	0.281794
	H15	H	0.155411	0.389424	0.283809
	H16	H	0.392455	0.716105	0.846878
	H17	H	0.603915	0.718428	0.162912
	H18	H	0.603680	0.274497	0.844956
	H19	H	0.393204	0.274095	0.162403
	H20	H	0.717487	0.836817	0.397157
	H21	H	0.719396	0.153191	0.609762
	H22	H	0.278092	0.835676	0.606641
	H23	H	0.279638	0.156410	0.403103
	H24	H	0.890453	0.337310	0.226057
	H25	H	0.107017	0.652564	0.230839
	H26	H	0.103259	0.337844	0.781843
	H27	H	0.888092	0.653148	0.780337
	H28	H	0.220265	0.887882	0.345611
	H29	H	0.219366	0.100371	0.662044
	H30	H	0.772861	0.102194	0.346895
	H31	H	0.771947	0.886678	0.659587
	H32	H	0.340375	0.219584	0.896161
	H33	H	0.656684	0.214188	0.107178
	H34	H	0.338091	0.772813	0.109706
	H35	H	0.655815	0.775092	0.898867
	H36	H	0.337626	0.887757	0.225375
	H37	H	0.654673	0.100783	0.225100
	H38	H	0.339920	0.104290	0.780513
	H39	H	0.655203	0.889472	0.781443
	H40	H	0.889512	0.218238	0.347240
	H41	H	0.104655	0.217285	0.662273
	H42	H	0.104391	0.771439	0.346162
	H43	H	0.887381	0.771171	0.659886
	H44	H	0.218142	0.336624	0.899468
	H45	H	0.220519	0.653880	0.113187
	H46	H	0.775599	0.336357	0.109010
	H47	H	0.776647	0.654754	0.899599
	H48	H	0.399071	0.112428	0.593662
	H49	H	0.588209	0.883175	0.583623
	H50	H	0.583263	0.108737	0.415018
	H51	H	0.406328	0.882096	0.417512
	H52	H	0.592933	0.399271	0.121294
	H53	H	0.584637	0.585523	0.892353
	H54	H	0.401668	0.581111	0.120622
	H55	H	0.414171	0.401338	0.891684
	H56	H	0.109729	0.588793	0.419189
	H57	H	0.883043	0.586361	0.589539
	H58	H	0.109890	0.406307	0.593887
	H59	H	0.880878	0.403408	0.414175
	H60	H	0.109241	0.406725	0.594230
	H61	H	0.884418	0.579327	0.591578
	H62	H	0.105499	0.578387	0.420949
	H63	H	0.884276	0.406092	0.418142
	H64	H	0.414599	0.578471	0.113561
	H65	H	0.588384	0.585389	0.891869
	H66	H	0.588619	0.415224	0.114485
	H67	H	0.400226	0.406167	0.889167
	H68	H	0.584869	0.108194	0.415168
	H69	H	0.587763	0.877457	0.600580
	H70	H	0.415268	0.109897	0.601480
	H71	H	0.407078	0.880397	0.411426
	H72	H	0.904821	0.610482	0.092508
	H73	H	0.085283	0.383081	0.092568
	H74	H	0.083711	0.608172	0.916543
	H75	H	0.911777	0.382990	0.913052
	H76	H	0.081772	0.894745	0.618790
	H77	H	0.083149	0.081567	0.393731
	H78	H	0.908185	0.079355	0.615353
	H79	H	0.912977	0.907412	0.392808
	H80	H	0.612521	0.088076	0.915956
	H81	H	0.381610	0.088961	0.090341
	H82	H	0.611338	0.909169	0.098585
	H83	H	0.378795	0.901009	0.906289
	H84	H	0.610710	0.903081	0.090528
	H85	H	0.385391	0.080979	0.089112
	H86	H	0.608480	0.081152	0.916742
	H87	H	0.386500	0.901821	0.928004
	H88	H	0.911233	0.086363	0.616908
	H89	H	0.085346	0.090264	0.389346
	H90	H	0.098543	0.908563	0.619437
	H91	H	0.906314	0.905206	0.389271
	H92	H	0.086237	0.608973	0.916469
	H93	H	0.086501	0.382274	0.094028
	H94	H	0.910721	0.609740	0.097389
	H95	H	0.909835	0.384597	0.919529
	H96	H	0.412129	0.105091	0.584257
	H97	H	0.573545	0.885630	0.592788
	H98	H	0.584080	0.109484	0.413964
	H99	H	0.411968	0.883172	0.414890
	H100	H	0.576628	0.402302	0.114816
	H101	H	0.586947	0.582725	0.893432
	H102	H	0.412245	0.591639	0.119985
	H103	H	0.410922	0.415524	0.894860
	H104	H	0.110731	0.580963	0.410366
	H105	H	0.880977	0.584538	0.596585
	H106	H	0.110246	0.406128	0.594065
	H107	H	0.883270	0.408466	0.412924
	H108	H	0.911479	0.606370	0.090289
	H109	H	0.084524	0.382797	0.094119
	H110	H	0.084444	0.609474	0.914272
	H111	H	0.905089	0.381185	0.915225
	H112	H	0.079372	0.914462	0.610676
	H113	H	0.091938	0.083220	0.390571
	H114	H	0.904079	0.084503	0.618810
	H115	H	0.907106	0.911771	0.391875
	H116	H	0.612330	0.083362	0.910465
	H117	H	0.381641	0.082978	0.096951
	H118	H	0.606780	0.911741	0.090886
	H119	H	0.387361	0.920799	0.914657
	C120	C	0.375617	0.004331	0.625532
	C121	C	0.616564	0.986778	0.624447
	C122	C	0.616942	0.003945	0.382377
	C123	C	0.375707	0.987202	0.382598
	C124	C	0.618841	0.373991	0.012264
	C125	C	0.619237	0.617289	0.996847
	C126	C	0.375915	0.617005	0.013945
	C127	C	0.375964	0.374287	0.995901
	C128	C	0.004608	0.616588	0.382823
	C129	C	0.987546	0.616407	0.625070
	C130	C	0.004784	0.373917	0.626058
	C131	C	0.988027	0.373708	0.383416
	C132	C	0.875732	0.504296	0.126095
	C133	C	0.118651	0.487054	0.126804
	C134	C	0.117794	0.503959	0.883535
	C135	C	0.875529	0.487038	0.883160
	C136	C	0.119160	0.873431	0.511675
	C137	C	0.118934	0.116751	0.495725
	C138	C	0.874750	0.116418	0.512766
	C139	C	0.875116	0.873968	0.494619
	C140	C	0.506576	0.117758	0.881432
	C141	C	0.487915	0.116552	0.124433
	C142	C	0.504945	0.874229	0.125940
	C143	C	0.488761	0.875200	0.883212
	C144	C	0.371286	0.885590	0.687196
	C145	C	0.621075	0.105863	0.685315
	C146	C	0.619828	0.884753	0.321745
	C147	C	0.372043	0.106479	0.322200
	C148	C	0.679205	0.372199	0.893364
	C149	C	0.678052	0.618809	0.116532
	C150	C	0.314632	0.620189	0.895236
	C151	C	0.316360	0.371820	0.115406
	C152	C	0.885685	0.677892	0.378592
	C153	C	0.108165	0.675240	0.625440
	C154	C	0.884705	0.314546	0.627055
	C155	C	0.108076	0.314506	0.382362
	C156	C	0.884626	0.372080	0.684958
	C157	C	0.107578	0.619003	0.684592
	C158	C	0.885333	0.619288	0.321938
	C159	C	0.107554	0.371313	0.323724
	C160	C	0.373622	0.676682	0.894636
	C161	C	0.621800	0.678116	0.115608
	C162	C	0.621550	0.314367	0.892818
	C163	C	0.374389	0.313907	0.115085
	C164	C	0.677585	0.884489	0.379490
	C165	C	0.678531	0.105815	0.627459
	C166	C	0.316385	0.884127	0.626810
	C167	C	0.317280	0.107654	0.382482
	C168	C	0.872721	0.384660	0.185988
	C169	C	0.123437	0.605524	0.189352
	C170	C	0.120883	0.384985	0.822677
	C171	C	0.871141	0.605720	0.821491
	C172	C	0.180470	0.870007	0.393260
	C173	C	0.179251	0.118850	0.614713
	C174	C	0.813386	0.119957	0.394243
	C175	C	0.812785	0.869329	0.612574
	C176	C	0.387868	0.179364	0.877928
	C177	C	0.608307	0.175363	0.125920
	C178	C	0.385876	0.812666	0.128257
	C179	C	0.607960	0.814499	0.880225
	C180	C	0.385426	0.870301	0.185708
	C181	C	0.607332	0.118978	0.184840
	C182	C	0.387636	0.121677	0.820457
	C183	C	0.607459	0.871592	0.821835
	C184	C	0.871569	0.177674	0.394400
	C185	C	0.121971	0.177070	0.614733
	C186	C	0.122353	0.812142	0.393437
	C187	C	0.870751	0.811889	0.612765
	C188	C	0.178204	0.384563	0.881242
	C189	C	0.180364	0.606114	0.130827
	C190	C	0.815089	0.384531	0.127972
	C191	C	0.815485	0.606529	0.880967
	C192	C	0.401359	0.087498	0.600358
	C193	C	0.590525	0.903860	0.599510
	C194	C	0.591448	0.087154	0.407618
	C195	C	0.401126	0.903690	0.407350
	C196	C	0.593557	0.398600	0.095059
	C197	C	0.593924	0.591756	0.914103
	C198	C	0.401832	0.591244	0.096399
	C199	C	0.401087	0.400346	0.913327
	C200	C	0.087239	0.590281	0.409268
	C201	C	0.904467	0.590763	0.599907
	C202	C	0.088230	0.399030	0.601428
	C203	C	0.904442	0.398771	0.408066
	C204	C	0.901692	0.587156	0.100866
	C205	C	0.092781	0.404329	0.100980
	C206	C	0.092012	0.587211	0.908688
	C207	C	0.901584	0.404377	0.908762
	C208	C	0.093713	0.898552	0.594679
	C209	C	0.093862	0.092111	0.412781
	C210	C	0.900495	0.090704	0.595474
	C211	C	0.901348	0.900457	0.412629
	C212	C	0.589440	0.091708	0.907135
	C213	C	0.404640	0.091592	0.099331
	C214	C	0.587984	0.900436	0.100378
	C215	C	0.405764	0.900756	0.909010
	Zn216	Zn	0.496888	-0.004370	0.754040
	Zn217	Zn	0.495504	-0.004240	0.253747
	Zn218	Zn	0.747595	0.495879	0.004767
	Zn219	Zn	0.246962	0.495669	0.004988
	Zn220	Zn	-0.003482	0.745205	0.503710
	Zn221	Zn	-0.003099	0.245052	0.504838
	Zn222	Zn	-0.003813	0.495670	0.754322
	Zn223	Zn	-0.003358	0.495148	0.254774
	Zn224	Zn	0.497588	0.745909	0.004647
	Zn225	Zn	0.497568	0.245322	0.003223
	Zn226	Zn	0.745587	-0.005261	0.503766
	Zn227	Zn	0.247492	-0.004640	0.503792
	N228	N	0.407201	0.961430	0.686758
	N229	N	0.583355	0.031025	0.683429
	N230	N	0.583005	0.960035	0.323276
	N231	N	0.407366	0.030358	0.322140
	N232	N	0.677771	0.408502	0.968507
	N233	N	0.676861	0.581963	0.041564
	N234	N	0.315839	0.584041	0.970560
	N235	N	0.317029	0.408318	0.040289
	N236	N	0.960930	0.676369	0.415454
	N237	N	0.032372	0.673877	0.589222
	N238	N	0.960494	0.315321	0.591339
	N239	N	0.032494	0.315690	0.418519
	N240	N	0.960553	0.407878	0.684696
	N241	N	0.031656	0.583252	0.684569
	N242	N	0.960506	0.581968	0.324295
	N243	N	0.031930	0.407288	0.324283
	N244	N	0.410921	0.675070	0.969393
	N245	N	0.586066	0.677438	0.040025
	N246	N	0.584760	0.315177	0.967803
	N247	N	0.410673	0.315184	0.039771
	N248	N	0.676032	0.959735	0.416443
	N249	N	0.676145	0.030724	0.590296
	N250	N	0.318831	0.959023	0.589282
	N251	N	0.319125	0.032323	0.419106
	N252	N	0.909472	0.460154	0.185060
	N253	N	0.085726	0.530598	0.187028
	N254	N	0.083969	0.460271	0.824014
	N255	N	0.907848	0.530413	0.822633
	N256	N	0.178544	0.907574	0.467938
	N257	N	0.177560	0.082082	0.539824
	N258	N	0.815340	0.082579	0.468859
	N259	N	0.815152	0.907093	0.538212
	N260	N	0.462738	0.176932	0.915294
	N261	N	0.533010	0.173981	0.089050
	N262	N	0.461290	0.815009	0.091761
	N263	N	0.533036	0.816420	0.917606
	N264	N	0.460509	0.907834	0.184402
	N265	N	0.531511	0.083168	0.184201
	N266	N	0.462640	0.084298	0.822456
	N267	N	0.532163	0.908562	0.823641
	N268	N	0.908834	0.175793	0.469226
	N269	N	0.085071	0.176027	0.539598
	N270	N	0.084936	0.814203	0.467977
	N271	N	0.908788	0.814389	0.538375
	N272	N	0.176415	0.459740	0.918318
	N273	N	0.177814	0.531484	0.092691
	N274	N	0.816963	0.459850	0.091430
	N275	N	0.817893	0.531641	0.918595
	O276	O	0.364002	0.629388	0.617965
	H277	H	0.361278	0.636926	0.624165
	H278	H	0.380237	0.633280	0.617078
	O279	O	0.313503	0.348474	0.510852
	H280	H	0.325048	0.367155	0.521598
	H281	H	0.313513	0.362961	0.513574
	O282	O	0.658759	0.586601	0.599925
	H283	H	0.666582	0.603733	0.605007
	H284	H	0.660655	0.564768	0.582986
	O285	O	0.976484	0.880474	-0.000514
	H286	H	0.967699	0.873687	-0.003572
	H287	H	0.973596	0.880792	-0.008951
	O288	O	0.327496	0.598928	0.496872
	H289	H	0.333883	0.599637	0.516191
	H290	H	0.343595	0.613464	0.490970
	O291	O	0.517395	0.706612	0.355421
	H292	H	0.474065	0.698190	0.374212
	H293	H	0.518190	0.727702	0.330946
	O294	O	1.211685	1.203330	1.025462
	H295	H	1.234905	1.228562	1.033080
	H296	H	1.201707	1.200132	1.061493
	O297	O	0.801587	0.169564	0.214092
	H298	H	0.822802	0.180088	0.212988
	H299	H	0.803577	0.164532	0.201771
	O300	O	0.537473	0.680674	0.608121
	H301	H	0.539695	0.685033	0.590993
	H302	H	0.527994	0.658930	0.611166
	O303	O	0.456556	0.415207	0.614269
	H304	H	0.463579	0.397544	0.620843
	H305	H	0.462262	0.404429	0.589489
	O306	O	0.129795	0.094231	0.891660
	H307	H	0.113230	0.115217	0.879542
	H308	H	0.140558	0.087169	0.909016
	O309	O	1.209291	-0.213684	-0.020727
	H310	H	1.227083	-0.243830	-0.014304
	H311	H	1.188244	-0.215414	-0.012503
	O312	O	0.592050	0.518961	0.597714
	H313	H	0.583421	0.508231	0.598651
	H314	H	0.594204	0.520872	0.598166
	O315	O	0.651497	0.331051	0.348154
	H316	H	0.666465	0.355818	0.364820
	H317	H	0.667348	0.315803	0.328061
	O318	O	0.196923	0.018227	0.216970
	H319	H	0.206915	0.006582	0.231237
	H320	H	0.211120	0.001455	0.203033
	O321	O	0.523980	0.628627	0.573866
	H322	H	0.535268	0.634325	0.559202
	H323	H	0.516353	0.622023	0.583025
	O324	O	1.202107	0.024676	0.973086
	H325	H	1.193585	0.031542	0.979336
	H326	H	1.198624	0.030745	0.996716
	O327	O	0.359276	0.537113	0.682798
	H328	H	0.349287	0.542313	0.699778
	H329	H	0.383224	0.522807	0.681592
	O330	O	0.057845	0.969937	1.178817
	H331	H	0.051762	0.955860	1.163294
	H332	H	0.064227	0.953517	1.172737
	O333	O	-0.160327	1.094289	-0.003483
	H334	H	-0.144350	1.102764	0.001232
	H335	H	-0.146937	1.095766	-0.008860
	O336	O	1.036884	1.192050	0.116088
	H337	H	1.054456	1.213587	0.144608
	H338	H	1.039321	1.178296	0.107526
	O339	O	0.046707	1.057063	0.933581
	H340	H	0.036987	1.066856	0.915627
	H341	H	0.050932	1.028328	0.939546
	O342	O	0.377230	0.674866	0.329489
	H343	H	0.375766	0.663138	0.344292
	H344	H	0.374609	0.655199	0.338065
	O345	O	-0.098067	-0.072146	0.829874
	H346	H	-0.086897	-0.093506	0.829549
	H347	H	-0.068236	-0.059762	0.825132
	O348	O	0.560619	0.353551	0.474627
	H349	H	0.559008	0.354112	0.461296
	H350	H	0.575761	0.349316	0.468224
	O351	O	1.083814	1.017305	0.097746
	H352	H	1.070078	1.035211	0.091314
	H353	H	1.076522	0.988296	0.092161
	O354	O	0.793423	0.934024	0.971607
	H355	H	0.789987	0.941298	0.975323
	H356	H	0.796702	0.930019	0.949924
	O357	O	-0.461253	0.321609	0.348071
	H358	H	-0.437093	0.316538	0.344196
	H359	H	-0.468783	0.303492	0.331933
	O360	O	0.299210	0.454451	0.364322
	H361	H	0.288109	0.461421	0.367530
	H362	H	0.303645	0.451020	0.373438
	O363	O	0.800413	-0.050084	0.198485
	H364	H	0.803208	-0.052975	0.204815
	H365	H	0.790969	-0.036558	0.185380
	O366	O	-0.515065	-0.448188	1.335091
	H367	H	-0.507303	-0.453647	1.343448
	H368	H	-0.522255	-0.452400	1.323485
	O369	O	0.501226	-0.402116	0.608921
	H370	H	0.511349	-0.389556	0.608347
	H371	H	0.514909	-0.404752	0.619717
	O372	O	0.568844	0.647266	0.695988
	H373	H	0.574384	0.644918	0.709249
	H374	H	0.586702	0.651862	0.686489
	O375	O	-0.003694	0.076782	1.219224
	H376	H	-0.002833	0.076593	1.217459
	H377	H	0.002264	0.060078	1.225431
	O378	O	0.541403	0.515206	0.376561
	H379	H	0.525333	0.501187	0.368804
	H380	H	0.528715	0.531002	0.372593
	O381	O	-0.217001	0.917521	0.078212
	H382	H	-0.232526	0.903888	0.075993
	H383	H	-0.204026	0.915871	0.066147
	O384	O	-0.022102	0.776688	0.219026
	H385	H	-0.023145	0.758916	0.252040
	H386	H	-0.064586	0.780977	0.214570
	O387	O	0.975498	0.208842	1.024763
	H388	H	0.993115	0.214573	1.020638
	H389	H	0.988885	0.211733	1.027638
	O390	O	1.823368	-0.182009	0.145217
	H391	H	1.819163	-0.183448	0.115426
	H392	H	1.821652	-0.152556	0.138403
	O393	O	0.795777	0.195317	0.895782
	H394	H	0.809695	0.169821	0.902193
	H395	H	0.777730	0.216007	0.924963
	O396	O	1.184850	0.809369	-0.184475
	H397	H	1.196658	0.837282	-0.169281
	H398	H	1.181220	0.823405	-0.172190
	O399	O	0.182992	1.182671	1.186420
	H400	H	0.171892	1.154056	1.196965
	H401	H	0.177753	1.180141	1.200341
	O402	O	1.017984	1.014275	-0.203067
	H403	H	1.038952	1.016947	-0.201844
	H404	H	1.019319	1.039073	-0.203704
	O405	O	0.347052	0.422879	0.547666
	H406	H	0.344885	0.411719	0.547618
	H407	H	0.346246	0.430044	0.567270
	O408	O	0.673895	0.455028	0.498287
	H409	H	0.669758	0.450457	0.512398
	H410	H	0.655119	0.447575	0.503370
	O411	O	0.971569	1.214989	0.782744
	H412	H	0.937114	1.221231	0.778673
	H413	H	0.948555	1.233753	0.763074
	O414	O	0.490533	0.286472	0.634873
	H415	H	0.480571	0.277845	0.633651
	H416	H	0.493478	0.286156	0.636493
	O417	O	-0.199217	1.092699	0.801776
	H418	H	-0.196135	1.073231	0.818180
	H419	H	-0.214153	1.076951	0.793685
	O420	O	0.466005	1.385200	0.378609
	H421	H	0.469086	1.376482	0.370226
	H422	H	0.470801	1.373205	0.367645
	O423	O	0.113415	0.951492	-0.182931
	H424	H	0.118003	0.964648	-0.152151
	H425	H	0.143936	0.952473	-0.194015
	O426	O	-0.098417	0.879953	-0.083694
	H427	H	-0.072868	0.875445	-0.092344
	H428	H	-0.098553	0.883239	-0.085781
	O429	O	0.516110	0.473394	0.622040
	H430	H	0.503097	0.471157	0.629401
	H431	H	0.521589	0.476967	0.624762
	O432	O	0.589102	0.376310	0.543146
	H433	H	0.577947	0.355484	0.547713
	H434	H	0.591117	0.380131	0.549435
	O435	O	0.063981	-0.216272	0.065714
	H436	H	0.052571	-0.218107	0.083727
	H437	H	0.040834	-0.219394	0.070487
	O438	O	0.020129	0.780191	0.786495
	H439	H	0.048985	0.777923	0.782767
	H440	H	0.030476	0.764260	0.771778
	O441	O	0.691896	0.440502	0.301655
	H442	H	0.703892	0.449838	0.300709
	H443	H	0.686691	0.449850	0.303460
