data_Molecule from HDF5

_cell_length_a		16.679977
_cell_length_b		16.510631
_cell_length_c		16.601506
_cell_angle_alpha	90.041068
_cell_angle_beta	90.071972
_cell_angle_gamma	90.017486
_symmetry_space_group_name_H-M	'P 1'
_symmetry_Int_Tables_number		1

loop_
	_symmetry_equiv_pos_as_xyz
	x,y,z

loop_
	_atom_site_label
	_atom_site_type_symbol
	_atom_site_fract_x
	_atom_site_fract_y
	_atom_site_fract_z
	H0	H	0.389700	0.836422	0.717160
	H1	H	0.596044	0.152503	0.720451
	H2	H	0.597615	0.838823	0.277565
	H3	H	0.386182	0.150826	0.278728
	H4	H	0.714459	0.385485	0.844000
	H5	H	0.712349	0.598624	0.155319
	H6	H	0.268246	0.599831	0.844157
	H7	H	0.265859	0.385698	0.152769
	H8	H	0.833664	0.714498	0.396921
	H9	H	0.146980	0.711481	0.599811
	H10	H	0.836069	0.270810	0.605881
	H11	H	0.144287	0.270179	0.391755
	H12	H	0.836118	0.385676	0.723522
	H13	H	0.145728	0.598783	0.720000
	H14	H	0.834684	0.598781	0.278832
	H15	H	0.144215	0.385904	0.275610
	H16	H	0.387530	0.713289	0.842523
	H17	H	0.593965	0.712969	0.156465
	H18	H	0.595929	0.271318	0.843269
	H19	H	0.385505	0.272929	0.155128
	H20	H	0.713729	0.838468	0.393019
	H21	H	0.714755	0.150335	0.607793
	H22	H	0.273157	0.836939	0.601238
	H23	H	0.268622	0.150025	0.392366
	H24	H	0.882439	0.339386	0.223635
	H25	H	0.094140	0.651063	0.219373
	H26	H	0.096002	0.338536	0.776975
	H27	H	0.885901	0.651903	0.779558
	H28	H	0.211401	0.888850	0.344515
	H29	H	0.213036	0.100659	0.655700
	H30	H	0.767819	0.099529	0.344999
	H31	H	0.766707	0.885492	0.655956
	H32	H	0.335597	0.214651	0.895825
	H33	H	0.646091	0.216364	0.105307
	H34	H	0.336631	0.771593	0.104181
	H35	H	0.647690	0.772446	0.895183
	H36	H	0.336989	0.887688	0.222051
	H37	H	0.645735	0.100761	0.222173
	H38	H	0.336220	0.099147	0.777728
	H39	H	0.648069	0.889521	0.779282
	H40	H	0.885078	0.215751	0.344122
	H41	H	0.096901	0.217189	0.655781
	H42	H	0.092052	0.775823	0.343144
	H43	H	0.885543	0.772817	0.656842
	H44	H	0.213277	0.339323	0.891634
	H45	H	0.212744	0.649429	0.106460
	H46	H	0.766702	0.338728	0.108200
	H47	H	0.768767	0.651178	0.894295
	H48	H	0.403281	0.106976	0.589326
	H49	H	0.583265	0.881297	0.588554
	H50	H	0.575858	0.103210	0.416166
	H51	H	0.405386	0.883778	0.414263
	H52	H	0.578855	0.406771	0.109806
	H53	H	0.576618	0.587063	0.887086
	H54	H	0.400281	0.586518	0.112691
	H55	H	0.401387	0.401678	0.885814
	H56	H	0.100550	0.582952	0.409142
	H57	H	0.876632	0.588093	0.591353
	H58	H	0.100506	0.410442	0.590411
	H59	H	0.881525	0.410910	0.410636
	H60	H	0.101773	0.403894	0.588954
	H61	H	0.878935	0.582740	0.586394
	H62	H	0.102629	0.585702	0.406486
	H63	H	0.878530	0.404756	0.409065
	H64	H	0.397473	0.579556	0.110989
	H65	H	0.586753	0.583730	0.884381
	H66	H	0.580892	0.406101	0.110323
	H67	H	0.398208	0.411697	0.888588
	H68	H	0.583506	0.107004	0.414181
	H69	H	0.578581	0.882050	0.591728
	H70	H	0.400532	0.107682	0.587670
	H71	H	0.398039	0.881599	0.412772
	H72	H	0.910214	0.602951	0.087658
	H73	H	0.075107	0.383028	0.088963
	H74	H	0.082935	0.608037	0.912910
	H75	H	0.898876	0.384572	0.919416
	H76	H	0.085625	0.903365	0.614280
	H77	H	0.072425	0.079612	0.392484
	H78	H	0.900645	0.085867	0.613253
	H79	H	0.901248	0.904379	0.389056
	H80	H	0.602414	0.086057	0.913650
	H81	H	0.378936	0.080534	0.092647
	H82	H	0.599121	0.908737	0.082988
	H83	H	0.379834	0.898779	0.912925
	H84	H	0.603146	0.909444	0.094108
	H85	H	0.378080	0.087249	0.090322
	H86	H	0.600949	0.079173	0.911580
	H87	H	0.382963	0.909208	0.909815
	H88	H	0.899581	0.076941	0.609997
	H89	H	0.081622	0.088988	0.385918
	H90	H	0.081833	0.905631	0.612445
	H91	H	0.899629	0.906594	0.389259
	H92	H	0.078249	0.607645	0.906771
	H93	H	0.078917	0.383128	0.081213
	H94	H	0.897015	0.603957	0.080113
	H95	H	0.897992	0.379640	0.906071
	H96	H	0.400734	0.108456	0.591062
	H97	H	0.578752	0.884250	0.586292
	H98	H	0.577033	0.106992	0.408449
	H99	H	0.403096	0.881242	0.407044
	H100	H	0.580545	0.408107	0.109294
	H101	H	0.580017	0.576513	0.889617
	H102	H	0.404904	0.581456	0.109621
	H103	H	0.408594	0.408638	0.890273
	H104	H	0.102288	0.586168	0.410861
	H105	H	0.877388	0.581008	0.593895
	H106	H	0.099604	0.408311	0.584115
	H107	H	0.881599	0.406266	0.415452
	H108	H	0.898503	0.609631	0.094460
	H109	H	0.083017	0.380908	0.088616
	H110	H	0.076183	0.604905	0.912918
	H111	H	0.910133	0.385019	0.910665
	H112	H	0.081412	0.900820	0.613533
	H113	H	0.085954	0.075407	0.389072
	H114	H	0.908582	0.081718	0.608872
	H115	H	0.902452	0.906952	0.390139
	H116	H	0.603564	0.084057	0.906863
	H117	H	0.380850	0.082460	0.085787
	H118	H	0.604603	0.898807	0.088131
	H119	H	0.378503	0.902597	0.902385
	C120	C	0.370598	0.003257	0.620365
	C121	C	0.612939	0.986161	0.621593
	C122	C	0.611726	0.002802	0.379441
	C123	C	0.369852	0.985712	0.378658
	C124	C	0.612587	0.372973	0.007357
	C125	C	0.612588	0.614590	0.990709
	C126	C	0.369461	0.614812	0.007956
	C127	C	0.369460	0.373687	0.990790
	C128	C	-0.001339	0.616619	0.377606
	C129	C	0.981211	0.615525	0.621131
	C130	C	-0.001258	0.373407	0.621134
	C131	C	0.981967	0.373248	0.378129
	C132	C	0.869050	0.502488	0.120492
	C133	C	0.111169	0.485600	0.119685
	C134	C	0.111660	0.503407	0.877751
	C135	C	0.869923	0.486435	0.879163
	C136	C	0.112775	0.872627	0.509162
	C137	C	0.112545	0.115283	0.491736
	C138	C	0.869719	0.114917	0.508312
	C139	C	0.868698	0.872891	0.492556
	C140	C	0.499552	0.115335	0.878328
	C141	C	0.482053	0.116128	0.121577
	C142	C	0.499687	0.872632	0.120561
	C143	C	0.483431	0.872066	0.877382
	C144	C	0.370291	0.884050	0.678328
	C145	C	0.615019	0.104822	0.681038
	C146	C	0.615203	0.885464	0.318041
	C147	C	0.367655	0.103578	0.318424
	C148	C	0.673749	0.368145	0.890499
	C149	C	0.672134	0.616766	0.108598
	C150	C	0.309128	0.617642	0.890615
	C151	C	0.307415	0.368813	0.106779
	C152	C	0.880775	0.675055	0.377504
	C153	C	0.099759	0.673007	0.620360
	C154	C	0.882459	0.311294	0.624095
	C155	C	0.097740	0.311054	0.374199
	C156	C	0.882549	0.368544	0.682556
	C157	C	0.099081	0.616838	0.679819
	C158	C	0.881112	0.617462	0.319071
	C159	C	0.097666	0.368880	0.316254
	C160	C	0.368309	0.674033	0.889850
	C161	C	0.613391	0.673613	0.109119
	C162	C	0.614833	0.311534	0.890067
	C163	C	0.366916	0.312857	0.107902
	C164	C	0.672794	0.885466	0.375695
	C165	C	0.673879	0.103859	0.624789
	C166	C	0.312511	0.884246	0.620761
	C167	C	0.309330	0.103168	0.375089
	C168	C	0.865164	0.385616	0.182437
	C169	C	0.113251	0.603455	0.180012
	C170	C	0.114357	0.385782	0.817001
	C171	C	0.867291	0.604704	0.819140
	C172	C	0.171230	0.870933	0.391239
	C173	C	0.172868	0.118611	0.608998
	C174	C	0.808658	0.118069	0.391374
	C175	C	0.807732	0.868702	0.609229
	C176	C	0.382496	0.175029	0.876640
	C177	C	0.599396	0.176218	0.123655
	C178	C	0.383041	0.811963	0.122693
	C179	C	0.601031	0.812614	0.876420
	C180	C	0.383253	0.869327	0.181349
	C181	C	0.598841	0.118896	0.182130
	C182	C	0.382781	0.117702	0.817952
	C183	C	0.601103	0.870864	0.818769
	C184	C	0.866923	0.175617	0.390882
	C185	C	0.114639	0.176134	0.609155
	C186	C	0.112053	0.814510	0.390707
	C187	C	0.867129	0.812662	0.609947
	C188	C	0.172728	0.386165	0.874014
	C189	C	0.172043	0.602960	0.123722
	C190	C	0.807510	0.385535	0.124893
	C191	C	0.809306	0.604332	0.876332
	C192	C	0.394557	0.086126	0.596198
	C193	C	0.587497	0.904119	0.596226
	C194	C	0.585992	0.084470	0.405433
	C195	C	0.395092	0.903577	0.404168
	C196	C	0.587320	0.399287	0.088533
	C197	C	0.588089	0.589540	0.908384
	C198	C	0.393914	0.589788	0.089786
	C199	C	0.395218	0.399989	0.909404
	C200	C	0.080699	0.592068	0.401785
	C201	C	0.899252	0.591096	0.597353
	C202	C	0.079370	0.399989	0.595354
	C203	C	0.901258	0.399701	0.404437
	C204	C	0.894739	0.584393	0.094694
	C205	C	0.085996	0.403634	0.093752
	C206	C	0.086312	0.585542	0.903554
	C207	C	0.895267	0.404481	0.904581
	C208	C	0.089634	0.896619	0.591898
	C209	C	0.087073	0.089069	0.410332
	C210	C	0.895406	0.088915	0.589598
	C211	C	0.894003	0.898616	0.410900
	C212	C	0.581026	0.090216	0.903628
	C213	C	0.400502	0.090931	0.096633
	C214	C	0.581019	0.898447	0.095567
	C215	C	0.401769	0.896340	0.901658
	Zn216	Zn	0.491784	-0.005437	0.748951
	Zn217	Zn	0.491110	-0.005832	0.250280
	Zn218	Zn	0.741319	0.493842	-0.001086
	Zn219	Zn	0.239824	0.494267	-0.000616
	Zn220	Zn	-0.010157	0.744748	0.500346
	Zn221	Zn	-0.009352	0.244168	0.499654
	Zn222	Zn	-0.010058	0.494451	0.749871
	Zn223	Zn	-0.009604	0.494541	0.248533
	Zn224	Zn	0.491733	0.742972	-0.000890
	Zn225	Zn	0.490634	0.244914	-0.000122
	Zn226	Zn	0.740146	-0.005911	0.500256
	Zn227	Zn	0.241630	-0.005694	0.499828
	N228	N	0.405667	0.959260	0.678366
	N229	N	0.578067	0.030499	0.679437
	N230	N	0.577813	0.959432	0.320168
	N231	N	0.404729	0.029462	0.320467
	N232	N	0.672637	0.405565	0.964375
	N233	N	0.671771	0.580902	0.033816
	N234	N	0.309537	0.581631	0.965071
	N235	N	0.308734	0.405866	0.032777
	N236	N	0.955006	0.674709	0.413189
	N237	N	0.025588	0.672502	0.584800
	N238	N	0.955668	0.314091	0.586454
	N239	N	0.024735	0.313766	0.412085
	N240	N	0.955769	0.406488	0.680878
	N241	N	0.024251	0.582059	0.680723
	N242	N	0.955436	0.581962	0.318948
	N243	N	0.024550	0.406958	0.318443
	N244	N	0.404943	0.672714	0.963883
	N245	N	0.577243	0.672468	0.034779
	N246	N	0.577468	0.314296	0.963721
	N247	N	0.404829	0.315763	0.034554
	N248	N	0.670797	0.959525	0.413167
	N249	N	0.673147	0.028846	0.589054
	N250	N	0.312432	0.959466	0.585715
	N251	N	0.310341	0.028659	0.411853
	N252	N	0.902870	0.459421	0.179800
	N253	N	0.076277	0.529345	0.177776
	N254	N	0.077309	0.459896	0.819039
	N255	N	0.904357	0.530369	0.820545
	N256	N	0.171938	0.906353	0.466037
	N257	N	0.171855	0.081518	0.534902
	N258	N	0.810134	0.081194	0.465398
	N259	N	0.808594	0.905466	0.535176
	N260	N	0.456210	0.173919	0.913293
	N261	N	0.525655	0.174914	0.086759
	N262	N	0.456529	0.813877	0.085793
	N263	N	0.526778	0.812757	0.911866
	N264	N	0.456903	0.906496	0.180239
	N265	N	0.524916	0.082373	0.181161
	N266	N	0.456870	0.081618	0.818677
	N267	N	0.527045	0.907134	0.819083
	N268	N	0.904023	0.173901	0.464649
	N269	N	0.077932	0.174415	0.535124
	N270	N	0.076262	0.815338	0.465033
	N271	N	0.904225	0.814966	0.536111
	N272	N	0.171224	0.460521	0.911109
	N273	N	0.171040	0.528478	0.086868
	N274	N	0.809816	0.459345	0.087112
	N275	N	0.810607	0.529731	0.912710
	O276	O	0.216265	0.771759	-0.027651
	H277	H	0.227951	0.760232	-0.059368
	H278	H	0.227564	0.758152	-0.048672
	O279	O	0.312799	0.430289	0.485201
	H280	H	0.310676	0.431654	0.492632
	H281	H	0.317074	0.428656	0.482098
	O282	O	0.773178	0.214527	0.978741
	H283	H	0.768429	0.224358	0.956157
	H284	H	0.759597	0.222843	0.965974
	O285	O	0.594073	0.361478	0.507053
	H286	H	0.592890	0.367809	0.480307
	H287	H	0.590178	0.354686	0.489236
	O288	O	0.682840	0.593614	0.480074
	H289	H	0.688567	0.608123	0.475613
	H290	H	0.681231	0.603952	0.478960
	O291	O	0.269531	0.302675	0.507369
	H292	H	0.254797	0.298669	0.513049
	H293	H	0.279444	0.296873	0.522472
	O294	O	0.936162	0.054366	1.232878
	H295	H	0.929761	0.073324	1.227722
	H296	H	0.922087	0.053429	1.231864
	O297	O	0.459317	0.716131	0.282248
	H298	H	0.439701	0.731951	0.265376
	H299	H	0.453626	0.705580	0.268485
	O300	O	-0.064723	0.221489	1.050372
	H301	H	-0.073361	0.217542	1.042133
	H302	H	-0.067973	0.223663	1.058505
	O303	O	0.604606	0.702351	0.406291
	H304	H	0.588817	0.712469	0.404894
	H305	H	0.597582	0.703496	0.382777
	O306	O	0.668177	0.415680	0.375549
	H307	H	0.688413	0.414795	0.357921
	H308	H	0.666909	0.400779	0.378573
	O309	O	0.319492	0.654511	0.694358
	H310	H	0.328444	0.640030	0.666295
	H311	H	0.349344	0.641796	0.688640
	O312	O	0.527366	0.688623	0.682050
	H313	H	0.536411	0.713986	0.712244
	H314	H	0.561219	0.672721	0.671517
	O315	O	0.830712	0.818418	0.885780
	H316	H	0.849408	0.815872	0.889601
	H317	H	0.832649	0.802475	0.871961
	O318	O	0.687071	0.619571	0.699557
	H319	H	0.699482	0.619339	0.661288
	H320	H	0.688435	0.581846	0.706957
	O321	O	0.201940	0.787607	0.791264
	H322	H	0.227225	0.758703	0.758978
	H323	H	0.195008	0.819040	0.781319
	O324	O	0.763999	0.950567	-0.052360
	H325	H	0.767978	0.941819	-0.060110
	H326	H	0.759687	0.942821	-0.073103
	O327	O	0.017368	0.214034	1.215364
	H328	H	0.027714	0.210989	1.205236
	H329	H	0.027128	0.236790	1.238215
	O330	O	0.600288	0.601391	0.681493
	H331	H	0.605606	0.599121	0.675919
	H332	H	0.609700	0.593423	0.670916
	O333	O	0.610351	0.352944	0.678286
	H334	H	0.612135	0.373172	0.663958
	H335	H	0.609479	0.369389	0.666886
	O336	O	0.809181	0.175451	0.182031
	H337	H	0.825943	0.174854	0.164633
	H338	H	0.811986	0.156887	0.162369
	O339	O	0.938332	-0.029938	0.773060
	H340	H	0.968485	-0.015129	0.772208
	H341	H	0.952744	-0.043420	0.779454
	O342	O	0.051115	0.221911	-0.053135
	H343	H	0.036379	0.223741	-0.062430
	H344	H	0.040594	0.217287	-0.053614
	O345	O	0.200506	0.985490	1.007040
	H346	H	0.211479	0.978002	1.003985
	H347	H	0.197415	0.991728	1.003722
	O348	O	0.631306	0.284609	0.291777
	H349	H	0.641286	0.269901	0.271674
	H350	H	0.612852	0.275593	0.284423
	O351	O	0.787396	0.798358	0.202418
	H352	H	0.805073	0.790182	0.174263
	H353	H	0.791688	0.823771	0.192655
	O354	O	0.185482	-0.178442	1.173750
	H355	H	0.169101	-0.164487	1.160442
	H356	H	0.174547	-0.164863	1.159894
	O357	O	0.555412	0.373378	0.312050
	H358	H	0.548811	0.371916	0.315289
	H359	H	0.541760	0.385867	0.317706
	O360	O	0.283992	0.288987	0.714447
	H361	H	0.297380	0.311610	0.703079
	H362	H	0.314689	0.299149	0.711627
	O363	O	0.049463	-0.063400	0.219405
	H364	H	0.036144	-0.049207	0.214287
	H365	H	0.028779	-0.063563	0.224500
	O366	O	0.628220	0.443826	0.713864
	H367	H	0.633715	0.420688	0.685765
	H368	H	0.652608	0.443904	0.729441
	O369	O	1.051385	0.005783	-0.055605
	H370	H	1.046412	0.011034	-0.056395
	H371	H	1.058246	0.006312	-0.065188
	O372	O	0.989471	0.939152	0.068949
	H373	H	0.988330	0.948284	0.086031
	H374	H	0.992414	0.929594	0.057137
	O375	O	0.800449	-0.022615	0.170902
	H376	H	0.802170	-0.016339	0.154183
	H377	H	0.783154	-0.025040	0.175677
	O378	O	0.414074	0.497249	0.490365
	H379	H	0.415412	0.488102	0.493063
	H380	H	0.410786	0.480207	0.486157
	O381	O	-0.030763	0.824752	0.872091
	H382	H	-0.012531	0.811791	0.859181
	H383	H	-0.015898	0.837947	0.866642
	O384	O	0.768025	0.025304	0.778860
	H385	H	0.793999	0.012034	0.769960
	H386	H	0.751742	0.022138	0.744444
	O387	O	1.022904	0.829813	-0.182313
	H388	H	1.021253	0.807889	-0.204540
	H389	H	1.034005	0.833594	-0.172769
	O390	O	0.545237	0.484114	0.359806
	H391	H	0.535941	0.484485	0.358230
	H392	H	0.545679	0.483567	0.348533
	O393	O	0.545844	0.392590	0.628238
	H394	H	0.537411	0.405017	0.635385
	H395	H	0.541049	0.394070	0.617229
	O396	O	0.159494	1.149276	0.858022
	H397	H	0.166101	1.161784	0.857925
	H398	H	0.161633	1.162212	0.851880
	O399	O	-0.204253	0.194436	0.803497
	H400	H	-0.226269	0.174782	0.785712
	H401	H	-0.185656	0.182548	0.812692
	O402	O	0.277209	0.707073	0.474536
	H403	H	0.285795	0.703399	0.468573
	H404	H	0.270834	0.726500	0.478089
	O405	O	0.960869	0.205826	0.789678
	H406	H	0.962535	0.210876	0.773367
	H407	H	0.948489	0.208235	0.786926
	O408	O	0.099486	0.093360	0.015426
	H409	H	0.100009	0.098035	0.013665
	H410	H	0.099105	0.098130	0.032680
	O411	O	0.702574	0.702884	0.580866
	H412	H	0.674092	0.692861	0.562082
	H413	H	0.715817	0.732306	0.576558
	O414	O	0.484761	0.657767	0.498063
	H415	H	0.504018	0.672059	0.501962
	H416	H	0.500336	0.655964	0.502312
	O417	O	0.488356	0.554327	0.716078
	H418	H	0.491442	0.560364	0.719464
	H419	H	0.482830	0.548513	0.721538
	O420	O	0.340766	0.608979	0.536588
	H421	H	0.340579	0.614472	0.523041
	H422	H	0.348956	0.603705	0.513841
	O423	O	0.073410	0.050549	0.787773
	H424	H	0.089711	0.050114	0.799197
	H425	H	0.085558	0.075056	0.787799
	O426	O	0.335749	0.442345	0.564340
	H427	H	0.341092	0.430177	0.560826
	H428	H	0.330639	0.445273	0.565070
	O429	O	0.967178	0.914912	0.999878
	H430	H	0.962384	0.918061	1.009955
	H431	H	0.979015	0.917057	1.002895
	O432	O	0.319228	0.320967	0.310303
	H433	H	0.308763	0.305895	0.291812
	H434	H	0.327129	0.334549	0.327536
	O435	O	0.270161	0.713762	0.284068
	H436	H	0.247953	0.724144	0.287037
	H437	H	0.269235	0.727095	0.281537
	O438	O	0.197182	0.027136	0.217416
	H439	H	0.192719	0.023829	0.213115
	H440	H	0.204030	0.019128	0.235917
	O441	O	0.205233	0.211613	0.213591
	H442	H	0.194895	0.204419	0.190068
	H443	H	0.212109	0.185457	0.215502
	O444	O	0.666800	0.339656	0.464721
	H445	H	0.681011	0.314690	0.451050
	H446	H	0.658172	0.342739	0.447953
	O447	O	0.220049	0.989522	0.850463
	H448	H	0.226727	0.993945	0.854847
	H449	H	0.232611	1.000804	0.837957
	O450	O	0.035831	0.803259	1.046641
	H451	H	0.047795	0.821255	1.040669
	H452	H	0.032103	0.798510	1.043476
	O453	O	0.319766	0.484362	0.710292
	H454	H	0.314753	0.488276	0.701472
	H455	H	0.315709	0.486886	0.723942
	O456	O	0.094529	-0.027901	0.966447
	H457	H	0.102058	-0.021605	0.966550
	H458	H	0.088985	-0.023360	0.964842
	O459	O	0.805404	1.045388	0.021802
	H460	H	0.803955	1.056497	0.007276
	H461	H	0.804576	1.033266	0.010314
	O462	O	0.771449	0.820506	0.081403
	H463	H	0.781352	0.821152	0.075358
	H464	H	0.760714	0.790543	0.077325
	O465	O	1.180363	0.076399	0.024023
	H466	H	1.177893	0.079798	0.011563
	H467	H	1.177814	0.072382	0.025085
	O468	O	0.497957	0.274558	0.341731
	H469	H	0.493150	0.263195	0.329913
	H470	H	0.482939	0.287841	0.344869
	O471	O	0.403706	0.629208	0.419470
	H472	H	0.401944	0.618138	0.432326
	H473	H	0.390952	0.633231	0.424197
	O474	O	0.275121	0.540999	0.288757
	H475	H	0.281282	0.564694	0.295683
	H476	H	0.263334	0.544684	0.269102
	O477	O	0.707692	0.455871	1.415000
	H478	H	0.713112	0.439250	1.388033
	H479	H	0.709884	0.465450	1.412096
	O480	O	0.411461	0.287111	0.679543
	H481	H	0.432754	0.279379	0.686030
	H482	H	0.417246	0.284615	0.670082
	O483	O	0.557400	0.433096	0.415849
	H484	H	0.555324	0.433121	0.399814
	H485	H	0.569389	0.413973	0.404947
	O486	O	0.633183	0.596082	0.343587
	H487	H	0.646714	0.607189	0.323335
	H488	H	0.619467	0.585333	0.332739
	O489	O	0.952029	0.776395	0.222108
	H490	H	0.943938	0.789665	0.203248
	H491	H	0.951276	0.743037	0.248882
