data_Molecule from HDF5

_cell_length_a		16.561968
_cell_length_b		16.168403
_cell_length_c		16.292340
_cell_angle_alpha	89.992104
_cell_angle_beta	90.028354
_cell_angle_gamma	90.319182
_symmetry_space_group_name_H-M	'P 1'
_symmetry_Int_Tables_number		1

loop_
	_symmetry_equiv_pos_as_xyz
	x,y,z

loop_
	_atom_site_label
	_atom_site_type_symbol
	_atom_site_fract_x
	_atom_site_fract_y
	_atom_site_fract_z
	H0	H	0.405472	0.819735	0.706592
	H1	H	0.606931	0.146959	0.708119
	H2	H	0.604032	0.819227	0.277377
	H3	H	0.407368	0.146490	0.275133
	H4	H	0.724781	0.376086	0.831493
	H5	H	0.726290	0.589197	0.150529
	H6	H	0.283548	0.590538	0.831711
	H7	H	0.282993	0.376680	0.150426
	H8	H	0.844457	0.700706	0.391212
	H9	H	0.164097	0.704342	0.592635
	H10	H	0.845752	0.262404	0.591752
	H11	H	0.164612	0.265799	0.387055
	H12	H	0.844550	0.379480	0.709475
	H13	H	0.163263	0.588809	0.711746
	H14	H	0.845925	0.586795	0.270896
	H15	H	0.163748	0.381184	0.270794
	H16	H	0.406338	0.698776	0.828852
	H17	H	0.604045	0.697838	0.154117
	H18	H	0.601576	0.268051	0.828273
	H19	H	0.402154	0.266101	0.152095
	H20	H	0.723309	0.821561	0.389445
	H21	H	0.725304	0.146139	0.595866
	H22	H	0.284852	0.821843	0.596855
	H23	H	0.287442	0.144535	0.385159
	H24	H	0.901641	0.321140	0.209770
	H25	H	0.106996	0.646355	0.208551
	H26	H	0.103712	0.320527	0.773742
	H27	H	0.901003	0.644851	0.772799
	H28	H	0.225581	0.877612	0.331853
	H29	H	0.229135	0.092982	0.649808
	H30	H	0.784760	0.090903	0.331843
	H31	H	0.784295	0.876983	0.651713
	H32	H	0.345597	0.202341	0.886363
	H33	H	0.663140	0.205936	0.093841
	H34	H	0.346447	0.762094	0.094339
	H35	H	0.664530	0.762870	0.887776
	H36	H	0.347801	0.876093	0.213533
	H37	H	0.664366	0.087340	0.210315
	H38	H	0.347811	0.088324	0.766894
	H39	H	0.664145	0.877789	0.769575
	H40	H	0.909930	0.195862	0.327076
	H41	H	0.109619	0.203883	0.651674
	H42	H	0.102482	0.769629	0.328391
	H43	H	0.902914	0.766604	0.653101
	H44	H	0.222635	0.322016	0.884870
	H45	H	0.227018	0.643745	0.098457
	H46	H	0.782906	0.322188	0.097987
	H47	H	0.783607	0.643001	0.883833
	H48	H	0.415587	0.099078	0.579685
	H49	H	0.598553	0.870005	0.572036
	H50	H	0.591194	0.098621	0.396058
	H51	H	0.412009	0.867214	0.406766
	H52	H	0.596885	0.394583	0.106189
	H53	H	0.596974	0.572068	0.875481
	H54	H	0.422219	0.572711	0.103545
	H55	H	0.421686	0.399765	0.879808
	H56	H	0.115558	0.568593	0.400857
	H57	H	0.892125	0.579781	0.576011
	H58	H	0.115081	0.391254	0.572601
	H59	H	0.893644	0.392854	0.404737
	H60	H	0.114420	0.404836	0.584621
	H61	H	0.893469	0.567562	0.582233
	H62	H	0.119834	0.577194	0.392809
	H63	H	0.892137	0.394610	0.395575
	H64	H	0.407645	0.577869	0.110080
	H65	H	0.595723	0.570114	0.876479
	H66	H	0.594296	0.398028	0.105202
	H67	H	0.411280	0.381334	0.870667
	H68	H	0.597265	0.097559	0.409940
	H69	H	0.602129	0.864703	0.584514
	H70	H	0.418362	0.098214	0.579345
	H71	H	0.412406	0.866463	0.399792
	H72	H	0.920346	0.596664	0.078859
	H73	H	0.093352	0.366235	0.083609
	H74	H	0.093258	0.599516	0.898653
	H75	H	0.909857	0.366032	0.901594
	H76	H	0.096715	0.895893	0.606468
	H77	H	0.097502	0.074702	0.375933
	H78	H	0.917400	0.071595	0.605152
	H79	H	0.915013	0.893589	0.375937
	H80	H	0.613644	0.074967	0.911257
	H81	H	0.391116	0.073890	0.084252
	H82	H	0.618670	0.890940	0.083833
	H83	H	0.395267	0.891487	0.907184
	H84	H	0.618463	0.891975	0.083179
	H85	H	0.392558	0.072644	0.080193
	H86	H	0.615551	0.064761	0.896886
	H87	H	0.394034	0.899049	0.895033
	H88	H	0.914501	0.074935	0.607392
	H89	H	0.100091	0.071251	0.375688
	H90	H	0.096339	0.897773	0.605719
	H91	H	0.909815	0.893328	0.375499
	H92	H	0.091883	0.596020	0.907000
	H93	H	0.089728	0.370443	0.077927
	H94	H	0.910417	0.599347	0.074980
	H95	H	0.914854	0.366521	0.898990
	H96	H	0.416632	0.098053	0.577149
	H97	H	0.589272	0.870023	0.582465
	H98	H	0.604998	0.103688	0.398207
	H99	H	0.418161	0.868412	0.403592
	H100	H	0.592512	0.394107	0.104790
	H101	H	0.594911	0.571957	0.877074
	H102	H	0.409203	0.561968	0.105382
	H103	H	0.399935	0.400921	0.873826
	H104	H	0.117719	0.580612	0.405089
	H105	H	0.888492	0.577884	0.589797
	H106	H	0.121915	0.389447	0.589698
	H107	H	0.890492	0.385879	0.399089
	H108	H	0.912469	0.600557	0.085905
	H109	H	0.097532	0.367587	0.076930
	H110	H	0.099702	0.599825	0.904620
	H111	H	0.913943	0.368548	0.904492
	H112	H	0.094604	0.896786	0.606332
	H113	H	0.096071	0.071466	0.377582
	H114	H	0.913378	0.070766	0.606320
	H115	H	0.912547	0.897786	0.377968
	H116	H	0.620958	0.081461	0.897199
	H117	H	0.392684	0.069235	0.083676
	H118	H	0.619202	0.891821	0.084583
	H119	H	0.389852	0.884574	0.896113
	C120	C	0.385012	-0.008278	0.611438
	C121	C	0.627543	0.975445	0.612099
	C122	C	0.627558	-0.007713	0.370757
	C123	C	0.384844	0.974684	0.371213
	C124	C	0.624684	0.363071	-0.000726
	C125	C	0.626716	0.603666	0.982547
	C126	C	0.383007	0.603631	0.000103
	C127	C	0.380863	0.362023	0.981441
	C128	C	0.012522	0.605834	0.369355
	C129	C	0.996145	0.607125	0.613983
	C130	C	0.012505	0.362067	0.612839
	C131	C	0.997203	0.361321	0.368578
	C132	C	0.883067	0.491820	0.111862
	C133	C	0.125642	0.475053	0.111775
	C134	C	0.125065	0.491687	0.870726
	C135	C	0.882255	0.473841	0.870107
	C136	C	0.126402	0.863799	0.500026
	C137	C	0.129030	0.105599	0.482087
	C138	C	0.885193	0.103669	0.499386
	C139	C	0.882652	0.862868	0.483027
	C140	C	0.512607	0.105123	0.869123
	C141	C	0.496694	0.105084	0.113473
	C142	C	0.513979	0.859646	0.114577
	C143	C	0.497752	0.860390	0.868464
	C144	C	0.385133	0.868946	0.669132
	C145	C	0.626717	0.098026	0.669858
	C146	C	0.625076	0.868697	0.314794
	C147	C	0.386849	0.097326	0.313422
	C148	C	0.683743	0.359677	0.878837
	C149	C	0.685739	0.606398	0.103176
	C150	C	0.323872	0.607443	0.879305
	C151	C	0.322621	0.359326	0.102492
	C152	C	0.892541	0.662600	0.370647
	C153	C	0.116272	0.665236	0.612970
	C154	C	0.893217	0.302087	0.611725
	C155	C	0.116922	0.304782	0.368206
	C156	C	0.892352	0.360591	0.670175
	C157	C	0.115519	0.608167	0.672735
	C158	C	0.892928	0.605581	0.311269
	C159	C	0.116323	0.362120	0.309923
	C160	C	0.384961	0.661356	0.877859
	C161	C	0.624824	0.660296	0.104922
	C162	C	0.622731	0.305554	0.877378
	C163	C	0.382051	0.304262	0.103350
	C164	C	0.684221	0.869920	0.370450
	C165	C	0.685778	0.097579	0.614082
	C166	C	0.325006	0.870135	0.614484
	C167	C	0.327387	0.096531	0.368537
	C168	C	0.882468	0.369941	0.171011
	C169	C	0.126185	0.597287	0.169901
	C170	C	0.123883	0.369517	0.812130
	C171	C	0.881902	0.595857	0.811350
	C172	C	0.185040	0.860554	0.379366
	C173	C	0.188871	0.109746	0.602211
	C174	C	0.826002	0.106882	0.378972
	C175	C	0.823720	0.859569	0.603491
	C176	C	0.393439	0.163448	0.867139
	C177	C	0.615609	0.165595	0.113269
	C178	C	0.394156	0.801437	0.113696
	C179	C	0.616907	0.801936	0.868513
	C180	C	0.394840	0.858018	0.173332
	C181	C	0.616418	0.106648	0.171356
	C182	C	0.394595	0.106759	0.807614
	C183	C	0.616762	0.859130	0.809434
	C184	C	0.887943	0.159499	0.376687
	C185	C	0.129218	0.164995	0.603124
	C186	C	0.124010	0.806647	0.377729
	C187	C	0.882871	0.804523	0.604350
	C188	C	0.183278	0.370364	0.867328
	C189	C	0.185960	0.595994	0.115014
	C190	C	0.823282	0.370399	0.115294
	C191	C	0.823286	0.595027	0.866839
	C192	C	0.409683	0.076418	0.586148
	C193	C	0.603620	0.890293	0.586996
	C194	C	0.604726	0.077782	0.394371
	C195	C	0.407525	0.889638	0.396223
	C196	C	0.601250	0.388197	0.083546
	C197	C	0.602913	0.578669	0.898400
	C198	C	0.406253	0.578280	0.084238
	C199	C	0.404107	0.386809	0.896930
	C200	C	0.095920	0.582371	0.392593
	C201	C	0.912996	0.582246	0.589972
	C202	C	0.095485	0.387715	0.589324
	C203	C	0.913700	0.384373	0.392793
	C204	C	0.907159	0.576760	0.086781
	C205	C	0.100699	0.390201	0.086603
	C206	C	0.101640	0.576496	0.896066
	C207	C	0.906041	0.389134	0.894884
	C208	C	0.102840	0.889529	0.584299
	C209	C	0.104828	0.079878	0.398177
	C210	C	0.908384	0.079474	0.584081
	C211	C	0.905832	0.887657	0.398334
	C212	C	0.595369	0.080600	0.894445
	C213	C	0.413487	0.079261	0.089694
	C214	C	0.597330	0.884375	0.090588
	C215	C	0.414736	0.884757	0.892315
	Zn216	Zn	0.506087	-0.016762	0.739260
	Zn217	Zn	0.505521	-0.017505	0.243353
	Zn218	Zn	0.755068	0.482474	-0.009187
	Zn219	Zn	0.253433	0.483110	-0.009572
	Zn220	Zn	0.004148	0.736310	0.491234
	Zn221	Zn	0.006380	0.232073	0.490411
	Zn222	Zn	0.003841	0.483585	0.743241
	Zn223	Zn	0.004727	0.483540	0.239543
	Zn224	Zn	0.505366	0.731284	-0.008549
	Zn225	Zn	0.503122	0.234894	-0.008927
	Zn226	Zn	0.755473	-0.015818	0.491470
	Zn227	Zn	0.256092	-0.016594	0.491396
	N228	N	0.421506	0.945635	0.667438
	N229	N	0.591140	0.020914	0.668503
	N230	N	0.590518	0.945923	0.314762
	N231	N	0.422070	0.020628	0.315011
	N232	N	0.685164	0.394515	0.955727
	N233	N	0.687026	0.571857	0.026066
	N234	N	0.322231	0.572552	0.956332
	N235	N	0.321696	0.394443	0.025683
	N236	N	0.967758	0.662737	0.406194
	N237	N	0.040987	0.664905	0.577622
	N238	N	0.968923	0.302855	0.576925
	N239	N	0.042109	0.304595	0.404338
	N240	N	0.967373	0.397369	0.670886
	N241	N	0.039729	0.572847	0.673485
	N242	N	0.968438	0.570876	0.310401
	N243	N	0.040473	0.396481	0.309883
	N244	N	0.420799	0.659302	0.953963
	N245	N	0.588978	0.658804	0.028889
	N246	N	0.586444	0.307885	0.953201
	N247	N	0.417371	0.305634	0.027038
	N248	N	0.685930	0.947762	0.404204
	N249	N	0.686305	0.020345	0.578885
	N250	N	0.324977	0.947511	0.579234
	N251	N	0.326098	0.019202	0.403640
	N252	N	0.918969	0.446454	0.168943
	N253	N	0.089205	0.521149	0.167884
	N254	N	0.088352	0.446119	0.814257
	N255	N	0.918046	0.519640	0.813251
	N256	N	0.186578	0.895256	0.456448
	N257	N	0.188982	0.073711	0.525901
	N258	N	0.824173	0.073010	0.456305
	N259	N	0.823535	0.895072	0.526884
	N260	N	0.467579	0.162438	0.904768
	N261	N	0.540094	0.164791	0.078174
	N262	N	0.469246	0.802512	0.077807
	N263	N	0.541908	0.802597	0.904723
	N264	N	0.470360	0.893588	0.173860
	N265	N	0.541334	0.069664	0.171501
	N266	N	0.469801	0.071190	0.808810
	N267	N	0.541775	0.894856	0.809426
	N268	N	0.924123	0.157795	0.452672
	N269	N	0.092856	0.162637	0.527388
	N270	N	0.088258	0.808374	0.453919
	N271	N	0.918751	0.806261	0.528329
	N272	N	0.184060	0.447368	0.903040
	N273	N	0.185494	0.518924	0.079175
	N274	N	0.823554	0.447306	0.079172
	N275	N	0.823370	0.518028	0.902600
	O276	O	0.534837	0.326145	0.361491
	H277	H	0.543687	0.317735	0.361326
	H278	H	0.544805	0.328098	0.355821
	O279	O	0.653619	0.613514	0.515989
	H280	H	0.650266	0.624501	0.527974
	H281	H	0.636570	0.620811	0.496192
	O282	O	0.920740	0.078681	0.937127
	H283	H	0.921225	0.088199	0.936673
	H284	H	0.908434	0.078906	0.929781
	O285	O	0.401538	0.582176	0.412710
	H286	H	0.393403	0.587405	0.426567
	H287	H	0.406572	0.594510	0.405286
	O288	O	0.653394	1.386880	1.436509
	H289	H	0.664162	1.380672	1.431014
	H290	H	0.653360	1.383682	1.435781
	O291	O	-0.047190	1.155933	-0.091600
	H292	H	-0.043309	1.134366	-0.094642
	H293	H	-0.017206	1.165904	-0.090366
	O294	O	0.362735	0.399116	0.498053
	H295	H	0.342813	0.379414	0.500124
	H296	H	0.363198	0.393742	0.498714
	O297	O	0.417106	0.498424	0.487734
	H298	H	0.413971	0.498665	0.488705
	H299	H	0.413321	0.507326	0.479463
	O300	O	0.600480	0.588538	0.480058
	H301	H	0.599529	0.585791	0.472674
	H302	H	0.604548	0.583893	0.491290
	O303	O	0.546872	0.514575	0.362960
	H304	H	0.548816	0.513056	0.357456
	H305	H	0.543211	0.510028	0.374147
	O306	O	0.576174	0.630747	0.555503
	H307	H	0.585429	0.640138	0.563922
	H308	H	0.558774	0.640629	0.570558
	O309	O	0.989220	0.820612	0.034323
	H310	H	0.999450	0.829718	0.036892
	H311	H	0.981083	0.816542	0.035412
	O312	O	0.070252	-0.023141	-0.092756
	H313	H	0.074879	-0.016381	-0.081955
	H314	H	0.062797	-0.030441	-0.085237
	O315	O	0.528545	0.394095	0.472169
	H316	H	0.537828	0.398452	0.464646
	H317	H	0.522222	0.397181	0.474188
	O318	O	-0.104688	0.842830	1.119965
	H319	H	-0.100843	0.836341	1.121275
	H320	H	-0.101828	0.839640	1.123816
	O321	O	0.386345	0.411526	0.591388
	H322	H	0.382858	0.412699	0.599124
	H323	H	0.395877	0.407464	0.598595
	O324	O	0.145326	0.988486	0.192177
	H325	H	0.145495	1.014937	0.199588
	H326	H	0.139169	0.998147	0.201758
	O327	O	0.576444	0.465614	0.673901
	H328	H	0.589810	0.471581	0.680050
	H329	H	0.590189	0.471039	0.662903
	O330	O	0.009699	-0.176310	0.898568
	H331	H	0.010922	-0.166412	0.896464
	H332	H	0.015638	-0.188775	0.900175
	O333	O	-0.411454	-0.385424	1.468557
	H334	H	-0.407130	-0.398836	1.474349
	H335	H	-0.417142	-0.389184	1.474668
	O336	O	-0.041688	0.906911	1.001772
	H337	H	-0.027736	0.903547	0.993098
	H338	H	-0.050272	0.908339	1.012549
	O339	O	0.815133	0.062469	-0.158788
	H340	H	0.830644	0.063164	-0.157637
	H341	H	0.815257	0.061980	-0.163286
	O342	O	0.056805	-0.092850	-0.113923
	H343	H	0.051415	-0.096525	-0.102476
	H344	H	0.056718	-0.090977	-0.111656
	O345	O	0.874226	0.097591	1.056276
	H346	H	0.848444	0.102737	1.044731
	H347	H	0.865280	0.097964	1.039466
	O348	O	0.514143	1.335092	0.464313
	H349	H	0.511331	1.343463	0.461605
	H350	H	0.522351	1.326846	0.451676
	O351	O	0.411665	0.487476	0.433345
	H352	H	0.408988	0.491046	0.426979
	H353	H	0.405512	0.487090	0.444563
	O354	O	0.934648	-0.027543	0.937966
	H355	H	0.939818	-0.037291	0.936505
	H356	H	0.926277	-0.030988	0.945234
	O357	O	0.569863	0.512210	0.599136
	H358	H	0.561986	0.516559	0.596096
	H359	H	0.575248	0.510050	0.611419
	O360	O	0.618879	0.455701	0.337945
	H361	H	0.624496	0.445612	0.328406
	H362	H	0.622917	0.480731	0.345243
	O363	O	-0.181794	0.920907	0.968148
	H364	H	-0.186867	0.928092	0.952089
	H365	H	-0.190420	0.899458	0.971087
	O366	O	0.420533	0.524994	0.586351
	H367	H	0.420405	0.525744	0.590015
	H368	H	0.424529	0.530897	0.582271
	O369	O	-0.071168	1.055687	0.050318
	H370	H	-0.063984	1.052101	0.036114
	H371	H	-0.067812	1.063597	0.039626
	O372	O	0.081421	-0.209860	-0.179472
	H373	H	0.059720	-0.227825	-0.199118
	H374	H	0.103731	-0.195710	-0.175327
	O375	O	0.522552	0.502150	0.425182
	H376	H	0.505282	0.490153	0.428930
	H377	H	0.523414	0.502126	0.420508
	O378	O	0.966811	1.067094	-0.077614
	H379	H	0.963922	1.072009	-0.079798
	H380	H	0.958032	1.047331	-0.074773
	O381	O	0.832684	-0.072097	0.054730
	H382	H	0.834058	-0.069120	0.057239
	H383	H	0.828764	-0.069600	0.051469
	O384	O	1.206691	1.180245	0.058824
	H385	H	1.213746	1.170752	0.050310
	H386	H	1.216269	1.195241	0.061324
	O387	O	-0.075817	0.071856	-0.126875
	H388	H	-0.069503	0.062729	-0.133674
	H389	H	-0.060068	0.071824	-0.129051
	O390	O	0.123849	0.982823	0.046548
	H391	H	0.134427	0.973850	0.066443
	H392	H	0.129565	0.990639	0.063049
	O393	O	1.062444	0.899709	1.112109
	H394	H	1.075965	0.908642	1.126002
	H395	H	1.058718	0.904134	1.102172
	O396	O	0.480540	0.361069	1.535718
	H397	H	0.492471	0.354446	1.535714
	H398	H	0.488778	0.372408	1.528524
	O399	O	-0.046234	1.072634	1.183042
	H400	H	-0.060056	1.059367	1.188330
	H401	H	-0.037904	1.064532	1.181988
	O402	O	0.427514	0.555046	0.388831
	H403	H	0.429790	0.544020	0.389234
	H404	H	0.421422	0.550440	0.374039
	O405	O	1.186754	0.915422	0.047774
	H406	H	1.191978	0.926921	0.056734
	H407	H	1.173796	0.904249	0.039102
	O408	O	1.179821	0.886843	-0.176211
	H409	H	1.187904	0.902955	-0.191547
	H410	H	1.178835	0.882180	-0.153665
	O411	O	1.200276	0.042888	0.979848
	H412	H	1.205235	0.042927	0.974355
	H413	H	1.199232	0.021435	0.980013
	O414	O	0.369141	0.437827	0.595907
	H415	H	0.363202	0.431215	0.597994
	H416	H	0.378849	0.428422	0.593829
	O417	O	1.167561	1.022492	1.132668
	H418	H	1.152842	1.030757	1.110047
	H419	H	1.160113	1.023229	1.119363
