data_Molecule from HDF5

_cell_length_a		16.372602
_cell_length_b		16.414051
_cell_length_c		16.115114
_cell_angle_alpha	90.072948
_cell_angle_beta	89.682481
_cell_angle_gamma	90.015804
_symmetry_space_group_name_H-M	'P 1'
_symmetry_Int_Tables_number		1

loop_
	_symmetry_equiv_pos_as_xyz
	x,y,z

loop_
	_atom_site_label
	_atom_site_type_symbol
	_atom_site_fract_x
	_atom_site_fract_y
	_atom_site_fract_z
	H0	H	0.381508	0.836779	0.705728
	H1	H	0.578958	0.161496	0.706376
	H2	H	0.578018	0.837878	0.273773
	H3	H	0.380125	0.161324	0.274866
	H4	H	0.699000	0.395760	0.827677
	H5	H	0.697178	0.602841	0.153459
	H6	H	0.266729	0.600552	0.826745
	H7	H	0.263300	0.400367	0.153023
	H8	H	0.819858	0.719549	0.384525
	H9	H	0.141792	0.717184	0.589197
	H10	H	0.821500	0.279007	0.595837
	H11	H	0.141587	0.280832	0.383534
	H12	H	0.820006	0.398635	0.708965
	H13	H	0.143795	0.599097	0.703040
	H14	H	0.818456	0.597412	0.274400
	H15	H	0.143897	0.402881	0.274022
	H16	H	0.379693	0.715758	0.827093
	H17	H	0.581864	0.718145	0.153005
	H18	H	0.582943	0.281918	0.827827
	H19	H	0.374632	0.283449	0.153039
	H20	H	0.699246	0.839210	0.384910
	H21	H	0.699979	0.159168	0.594828
	H22	H	0.260908	0.838187	0.593511
	H23	H	0.259905	0.159540	0.387286
	H24	H	0.879553	0.337955	0.206685
	H25	H	0.076612	0.663120	0.202677
	H26	H	0.082767	0.338968	0.771941
	H27	H	0.882980	0.662340	0.774864
	H28	H	0.196743	0.898327	0.326427
	H29	H	0.195106	0.100124	0.653292
	H30	H	0.765001	0.100112	0.325115
	H31	H	0.763137	0.897847	0.653395
	H32	H	0.319163	0.219341	0.886010
	H33	H	0.639239	0.220321	0.095545
	H34	H	0.318415	0.780369	0.095294
	H35	H	0.639575	0.778176	0.882899
	H36	H	0.316596	0.900620	0.206583
	H37	H	0.641427	0.098402	0.204637
	H38	H	0.317427	0.098828	0.775118
	H39	H	0.641632	0.898748	0.771118
	H40	H	0.879240	0.217126	0.326332
	H41	H	0.083253	0.218276	0.652299
	H42	H	0.080631	0.785137	0.324578
	H43	H	0.877168	0.782247	0.652471
	H44	H	0.201053	0.340095	0.885315
	H45	H	0.198176	0.660693	0.092828
	H46	H	0.758285	0.340428	0.096182
	H47	H	0.759948	0.659783	0.884750
	H48	H	0.386161	0.114532	0.582956
	H49	H	0.573671	0.883508	0.583365
	H50	H	0.571264	0.113406	0.401663
	H51	H	0.382113	0.884986	0.405631
	H52	H	0.566435	0.413973	0.105136
	H53	H	0.566303	0.597354	0.873059
	H54	H	0.383481	0.593130	0.110217
	H55	H	0.392225	0.408706	0.872948
	H56	H	0.096584	0.600634	0.400965
	H57	H	0.868488	0.585889	0.578718
	H58	H	0.089768	0.418833	0.573364
	H59	H	0.862500	0.405117	0.389193
	H60	H	0.099883	0.408386	0.590528
	H61	H	0.862862	0.593234	0.588163
	H62	H	0.092739	0.587429	0.400742
	H63	H	0.866836	0.399479	0.409623
	H64	H	0.388881	0.584682	0.105714
	H65	H	0.578408	0.587028	0.872597
	H66	H	0.565997	0.406123	0.107083
	H67	H	0.390973	0.408122	0.872546
	H68	H	0.576489	0.114662	0.400265
	H69	H	0.565443	0.886682	0.580770
	H70	H	0.387586	0.112643	0.580795
	H71	H	0.383875	0.881887	0.392713
	H72	H	0.885226	0.613549	0.078742
	H73	H	0.077276	0.386773	0.071010
	H74	H	0.085390	0.617904	0.900707
	H75	H	0.891131	0.387810	0.902905
	H76	H	0.065212	0.906475	0.605558
	H77	H	0.064699	0.101303	0.371232
	H78	H	0.884848	0.094692	0.609145
	H79	H	0.890270	0.907045	0.372196
	H80	H	0.592541	0.086455	0.899775
	H81	H	0.363847	0.096243	0.078359
	H82	H	0.594149	0.907323	0.080855
	H83	H	0.367096	0.908364	0.904465
	H84	H	0.593601	0.906542	0.078933
	H85	H	0.366120	0.089309	0.079310
	H86	H	0.596512	0.094198	0.894782
	H87	H	0.365895	0.909643	0.898285
	H88	H	0.887954	0.083525	0.604127
	H89	H	0.083767	0.086765	0.369963
	H90	H	0.071788	0.903839	0.608764
	H91	H	0.887121	0.909311	0.371714
	H92	H	0.071430	0.617469	0.886742
	H93	H	0.079161	0.380742	0.087205
	H94	H	0.887899	0.615329	0.082848
	H95	H	0.885810	0.384497	0.900549
	H96	H	0.384683	0.114331	0.580061
	H97	H	0.572641	0.886905	0.574302
	H98	H	0.572357	0.115328	0.396311
	H99	H	0.393873	0.887038	0.398968
	H100	H	0.573186	0.410422	0.108255
	H101	H	0.564300	0.582692	0.877743
	H102	H	0.394384	0.593975	0.107179
	H103	H	0.390714	0.409599	0.873270
	H104	H	0.098252	0.593350	0.388986
	H105	H	0.865753	0.598158	0.576369
	H106	H	0.097291	0.397599	0.571099
	H107	H	0.870462	0.419388	0.402933
	H108	H	0.890985	0.613002	0.079272
	H109	H	0.063997	0.387642	0.082042
	H110	H	0.067796	0.610181	0.904952
	H111	H	0.890950	0.385566	0.897045
	H112	H	0.070614	0.911518	0.606612
	H113	H	0.063238	0.079536	0.379181
	H114	H	0.896688	0.092344	0.604148
	H115	H	0.890813	0.910566	0.373123
	H116	H	0.593104	0.094708	0.904680
	H117	H	0.362388	0.092448	0.085442
	H118	H	0.592903	0.908842	0.079610
	H119	H	0.364162	0.904374	0.900505
	C120	C	0.356739	0.007299	0.612063
	C121	C	0.601355	0.991349	0.611138
	C122	C	0.602488	0.008034	0.368128
	C123	C	0.357160	0.990914	0.368985
	C124	C	0.600374	0.378877	-0.000842
	C125	C	0.600965	0.620655	0.981864
	C126	C	0.359474	0.620904	-0.000447
	C127	C	0.359282	0.379171	0.980802
	C128	C	-0.011129	0.622427	0.367207
	C129	C	0.972486	0.621888	0.610323
	C130	C	-0.010332	0.377826	0.610665
	C131	C	0.972845	0.378266	0.368485
	C132	C	0.857307	0.507981	0.111980
	C133	C	0.102275	0.491863	0.110467
	C134	C	0.104719	0.509092	0.867062
	C135	C	0.859191	0.491927	0.868713
	C136	C	0.099793	0.878238	0.498399
	C137	C	0.100672	0.119763	0.481340
	C138	C	0.859500	0.120930	0.497907
	C139	C	0.858391	0.878123	0.480496
	C140	C	0.487808	0.121745	0.868886
	C141	C	0.470615	0.122365	0.111639
	C142	C	0.487189	0.877770	0.111444
	C143	C	0.471744	0.877469	0.868969
	C144	C	0.359849	0.885637	0.668234
	C145	C	0.600026	0.112806	0.668623
	C146	C	0.599305	0.886451	0.311279
	C147	C	0.359386	0.112850	0.313000
	C148	C	0.659475	0.377613	0.876511
	C149	C	0.658785	0.621959	0.104288
	C150	C	0.304183	0.620212	0.875936
	C151	C	0.301175	0.380133	0.103887
	C152	C	0.867742	0.679653	0.366583
	C153	C	0.093714	0.678618	0.608762
	C154	C	0.869090	0.319103	0.613544
	C155	C	0.093798	0.320437	0.366091
	C156	C	0.868496	0.378633	0.669931
	C157	C	0.094785	0.619491	0.665161
	C158	C	0.866906	0.619049	0.311695
	C159	C	0.094863	0.381041	0.311296
	C160	C	0.360580	0.677612	0.876178
	C161	C	0.601364	0.679339	0.104147
	C162	C	0.601840	0.320653	0.876568
	C163	C	0.356518	0.321815	0.103919
	C164	C	0.659375	0.887035	0.366993
	C165	C	0.660039	0.111511	0.613066
	C166	C	0.300025	0.886264	0.612276
	C167	C	0.299502	0.111715	0.368689
	C168	C	0.858808	0.386850	0.169263
	C169	C	0.098671	0.613893	0.166332
	C170	C	0.103061	0.387367	0.810115
	C171	C	0.861319	0.613558	0.812060
	C172	C	0.157680	0.878917	0.375110
	C173	C	0.157021	0.119662	0.604522
	C174	C	0.802783	0.120233	0.374754
	C175	C	0.800981	0.878189	0.603893
	C176	C	0.367163	0.179839	0.867864
	C177	C	0.591468	0.180356	0.112938
	C178	C	0.366394	0.820051	0.113217
	C179	C	0.591994	0.818518	0.865690
	C180	C	0.365218	0.880225	0.168380
	C181	C	0.592735	0.119732	0.167450
	C182	C	0.366275	0.119791	0.812564
	C183	C	0.592977	0.878480	0.809907
	C184	C	0.859663	0.178392	0.375065
	C185	C	0.101153	0.178206	0.603948
	C186	C	0.099906	0.822800	0.374110
	C187	C	0.858271	0.821140	0.603653
	C188	C	0.161881	0.388057	0.866541
	C189	C	0.158958	0.612876	0.111389
	C190	C	0.798249	0.388100	0.114184
	C191	C	0.800311	0.612198	0.867116
	C192	C	0.379428	0.091850	0.588275
	C193	C	0.577529	0.907424	0.586594
	C194	C	0.580000	0.092401	0.392264
	C195	C	0.379910	0.906396	0.392250
	C196	C	0.575793	0.403147	0.084594
	C197	C	0.576771	0.596033	0.896621
	C198	C	0.382219	0.597463	0.085492
	C199	C	0.384100	0.402246	0.895234
	C200	C	0.073817	0.600295	0.390196
	C201	C	0.887586	0.599057	0.587736
	C202	C	0.073861	0.401312	0.585534
	C203	C	0.888555	0.401209	0.393258
	C204	C	0.880943	0.592095	0.087313
	C205	C	0.080008	0.407172	0.086867
	C206	C	0.081592	0.593315	0.890581
	C207	C	0.882524	0.407777	0.893144
	C208	C	0.076237	0.900784	0.584402
	C209	C	0.077358	0.096082	0.395622
	C210	C	0.882976	0.097205	0.583690
	C211	C	0.882364	0.901955	0.394625
	C212	C	0.572260	0.098372	0.892775
	C213	C	0.386032	0.099347	0.088136
	C214	C	0.571889	0.900918	0.086948
	C215	C	0.387621	0.900882	0.893807
	Zn216	Zn	0.479840	-0.000360	0.740286
	Zn217	Zn	0.479073	0.000453	0.239856
	Zn218	Zn	0.728336	0.499415	-0.009620
	Zn219	Zn	0.232331	0.500247	-0.010315
	Zn220	Zn	-0.020161	0.751217	0.489012
	Zn221	Zn	-0.018671	0.248838	0.489247
	Zn222	Zn	-0.018255	0.500230	0.739411
	Zn223	Zn	-0.019097	0.499468	0.239310
	Zn224	Zn	0.479481	0.748141	-0.009327
	Zn225	Zn	0.478953	0.251327	-0.009193
	Zn226	Zn	0.731482	-0.000462	0.490149
	Zn227	Zn	0.227711	-0.001376	0.490073
	N228	N	0.394342	0.961972	0.668358
	N229	N	0.563869	0.037313	0.667308
	N230	N	0.564406	0.962751	0.311797
	N231	N	0.394633	0.036885	0.313062
	N232	N	0.658656	0.412915	0.953829
	N233	N	0.658739	0.586443	0.027034
	N234	N	0.303495	0.585652	0.953579
	N235	N	0.302591	0.415088	0.026372
	N236	N	0.944525	0.681563	0.400576
	N237	N	0.016634	0.680188	0.575477
	N238	N	0.945447	0.318327	0.577568
	N239	N	0.016905	0.318619	0.400968
	N240	N	0.944415	0.414613	0.668241
	N241	N	0.018392	0.584689	0.666309
	N242	N	0.943138	0.584173	0.311855
	N243	N	0.018670	0.416020	0.312379
	N244	N	0.394124	0.678172	0.954255
	N245	N	0.566254	0.678686	0.026923
	N246	N	0.565989	0.320989	0.953959
	N247	N	0.391962	0.321024	0.026517
	N248	N	0.661429	0.963564	0.401615
	N249	N	0.660783	0.035166	0.577904
	N250	N	0.297744	0.963024	0.578305
	N251	N	0.298160	0.034899	0.402869
	N252	N	0.894611	0.462620	0.168346
	N253	N	0.064016	0.537580	0.165866
	N254	N	0.068079	0.463517	0.810083
	N255	N	0.897149	0.537784	0.812764
	N256	N	0.157767	0.912779	0.453211
	N257	N	0.156510	0.083719	0.527508
	N258	N	0.802469	0.085366	0.452423
	N259	N	0.801079	0.913014	0.526301
	N260	N	0.443848	0.181210	0.902164
	N261	N	0.514657	0.182082	0.079146
	N262	N	0.443297	0.818668	0.078297
	N263	N	0.515889	0.818098	0.902090
	N264	N	0.441562	0.915264	0.167773
	N265	N	0.516568	0.084228	0.166838
	N266	N	0.442290	0.084246	0.813153
	N267	N	0.517310	0.914748	0.812153
	N268	N	0.894100	0.179023	0.452723
	N269	N	0.066855	0.178282	0.526257
	N270	N	0.064769	0.822060	0.451838
	N271	N	0.892906	0.820688	0.525744
	N272	N	0.162784	0.464535	0.901447
	N273	N	0.161234	0.536110	0.077305
	N274	N	0.797002	0.464610	0.079723
	N275	N	0.798698	0.535478	0.901423
	O276	O	0.061224	-0.102986	0.092183
	H277	H	0.067220	-0.102537	0.087857
	H278	H	0.067291	-0.101018	0.092809
	O279	O	0.142234	1.003827	0.018851
	H280	H	0.136175	1.006905	0.007406
	H281	H	0.145047	0.990698	0.010415
	O282	O	1.011001	0.094158	0.148462
	H283	H	1.011870	0.083054	0.155439
	H284	H	1.007768	0.091340	0.136611
	O285	O	-0.165214	1.082307	-0.107976
	H286	H	-0.176470	1.063291	-0.113828
	H287	H	-0.161571	1.081647	-0.080540
	O288	O	0.628060	0.373709	0.443240
	H289	H	0.634151	0.369713	0.450246
	H290	H	0.638455	0.362328	0.441675
	O291	O	0.944479	-0.121357	0.928450
	H292	H	0.943431	-0.124075	0.938543
	H293	H	0.944557	-0.119139	0.941439
	O294	O	1.290050	0.612722	0.631625
	H295	H	1.304897	0.592019	0.628946
	H296	H	1.287798	0.608689	0.612483
	O297	O	-0.063563	0.041567	0.096854
	H298	H	-0.040153	0.049335	0.100175
	H299	H	-0.075355	0.041813	0.102880
	O300	O	1.094594	0.835921	0.898985
	H301	H	1.090815	0.839631	0.884461
	H302	H	1.092014	0.844229	0.885864
	O303	O	0.048712	1.064314	1.058885
	H304	H	0.038415	1.065787	1.061795
	H305	H	0.053723	1.076916	1.053564
	O306	O	0.486683	0.454492	0.445034
	H307	H	0.482656	0.448291	0.444884
	H308	H	0.493426	0.453481	0.429780
	O309	O	0.811332	0.051346	-0.165005
	H310	H	0.807450	0.031400	-0.168282
	H311	H	0.810148	0.035202	-0.175916
	O312	O	-0.157830	0.008897	0.985192
	H313	H	-0.151353	0.021531	0.976402
	H314	H	-0.171768	-0.014615	0.974322
	O315	O	0.406092	0.408942	0.625762
	H316	H	0.392933	0.416200	0.605850
	H317	H	0.411587	0.391267	0.625581
	O318	O	0.419229	0.471304	0.360945
	H319	H	0.409934	0.466548	0.361283
	H320	H	0.427014	0.455061	0.349969
	O321	O	0.409573	0.405485	0.583135
	H322	H	0.409841	0.414376	0.586505
	H323	H	0.408362	0.388250	0.576957
	O324	O	0.527919	0.425626	0.495400
	H325	H	0.547946	0.428980	0.490617
	H326	H	0.523663	0.430507	0.499454
	O327	O	-0.051723	0.909371	0.976418
	H328	H	-0.044192	0.907232	0.992702
	H329	H	-0.058362	0.896524	0.988223
	O330	O	0.552066	0.474428	0.590120
	H331	H	0.554302	0.476134	0.604237
	H332	H	0.558757	0.496471	0.594882
	O333	O	0.123902	0.867099	0.909659
	H334	H	0.121882	0.866451	0.911433
	H335	H	0.118806	0.865540	0.891660
	O336	O	1.500391	0.590850	0.521822
	H337	H	1.505283	0.586997	0.515149
	H338	H	1.501260	0.584011	0.527909
	O339	O	0.391477	0.561896	0.519510
	H340	H	0.385850	0.563566	0.523021
	H341	H	0.394959	0.557104	0.517838
	O342	O	0.904066	0.194332	-0.023125
	H343	H	0.883820	0.201546	-0.031841
	H344	H	0.902019	0.177065	-0.034723
	O345	O	0.492906	0.613390	0.611586
	H346	H	0.495525	0.612711	0.616651
	H347	H	0.469221	0.614389	0.610480
	O348	O	0.952472	1.165254	0.860181
	H349	H	0.949078	1.161480	0.855001
	H350	H	0.944274	1.170375	0.844547
	O351	O	1.672401	1.466379	0.330697
	H352	H	1.674925	1.462435	0.322518
	H353	H	1.671815	1.477391	0.336938
	O354	O	0.951897	-0.022410	0.974996
	H355	H	0.968393	-0.011895	0.984574
	H356	H	0.955906	-0.035451	0.976839
	O357	O	0.513302	0.614811	0.435006
	H358	H	0.509135	0.614372	0.426621
	H359	H	0.505871	0.615588	0.433339
	O360	O	0.101808	0.067374	-0.035941
	H361	H	0.102337	0.080225	-0.043231
	H362	H	0.090037	0.072478	-0.029617
	O363	O	0.541788	0.379772	0.363146
	H364	H	0.560615	0.395170	0.367376
	H365	H	0.553684	0.367332	0.376397
	O366	O	0.517370	0.647678	0.446845
	H367	H	0.520146	0.653706	0.442824
	H368	H	0.501332	0.654461	0.454142
	O369	O	0.331296	0.382441	0.632455
	H370	H	0.332505	0.369644	0.641867
	H371	H	0.323372	0.379273	0.625282
	O372	O	0.400446	0.637081	0.408744
	H373	H	0.402550	0.627722	0.405534
	H374	H	0.392618	0.624876	0.397096
	O375	O	0.955548	0.027022	0.982873
	H376	H	0.955172	0.033924	0.984649
	H377	H	0.946409	0.038189	0.983299
	O378	O	0.575667	0.476196	0.559485
	H379	H	0.572631	0.466834	0.559546
	H380	H	0.568314	0.483305	0.556684
	O381	O	0.428179	0.468275	0.364284
	H382	H	0.437091	0.460971	0.363107
	H383	H	0.430830	0.469242	0.369948
	O384	O	-0.149540	0.847064	0.044275
	H385	H	-0.140089	0.855130	0.055906
	H386	H	-0.145520	0.838181	0.056767
	O387	O	0.847285	0.044003	1.124720
	H388	H	0.852123	0.043152	1.112120
	H389	H	0.837371	0.046842	1.128487
	O390	O	0.068400	1.112875	0.021045
	H391	H	0.063837	1.112260	0.016729
	H392	H	0.068983	1.125136	0.028039
	O393	O	1.657442	1.528506	0.627864
	H394	H	1.664682	1.529882	0.643870
	H395	H	1.652707	1.551159	0.634202
	O396	O	0.592429	0.634275	0.449831
	H397	H	0.600506	0.628489	0.442756
	H398	H	0.598634	0.648042	0.457555
	O399	O	-0.059045	0.910775	0.995050
	H400	H	-0.053534	0.910694	1.006148
	H401	H	-0.051470	0.913156	1.000470
	O402	O	1.075964	0.968720	0.885356
	H403	H	1.079795	0.957818	0.889460
	H404	H	1.086637	0.977448	0.891227
	O405	O	0.492380	0.431504	0.523664
	H406	H	0.497225	0.433568	0.529583
	H407	H	0.499156	0.426556	0.515883
