data_Molecule from HDF5

_cell_length_a		16.345230
_cell_length_b		16.206211
_cell_length_c		16.285795
_cell_angle_alpha	89.689082
_cell_angle_beta	90.028732
_cell_angle_gamma	89.975053
_symmetry_space_group_name_H-M	'P 1'
_symmetry_Int_Tables_number		1

loop_
	_symmetry_equiv_pos_as_xyz
	x,y,z

loop_
	_atom_site_label
	_atom_site_type_symbol
	_atom_site_fract_x
	_atom_site_fract_y
	_atom_site_fract_z
	H0	H	0.399714	0.840014	0.716581
	H1	H	0.597705	0.168093	0.714985
	H2	H	0.598241	0.839421	0.287784
	H3	H	0.400271	0.167168	0.286029
	H4	H	0.712597	0.405224	0.838407
	H5	H	0.713541	0.602234	0.164540
	H6	H	0.281007	0.606001	0.837845
	H7	H	0.282328	0.403101	0.164352
	H8	H	0.834692	0.717582	0.402536
	H9	H	0.160963	0.715521	0.598506
	H10	H	0.834128	0.287529	0.599055
	H11	H	0.161338	0.289001	0.403640
	H12	H	0.834420	0.401537	0.717237
	H13	H	0.159849	0.601027	0.715922
	H14	H	0.835016	0.602684	0.285030
	H15	H	0.160397	0.403370	0.285869
	H16	H	0.400115	0.718664	0.836823
	H17	H	0.594625	0.715140	0.165337
	H18	H	0.593758	0.291379	0.837076
	H19	H	0.399014	0.288009	0.164884
	H20	H	0.712474	0.839247	0.404429
	H21	H	0.713847	0.167634	0.600241
	H22	H	0.283098	0.840141	0.603436
	H23	H	0.284233	0.167198	0.401109
	H24	H	0.899266	0.339783	0.216453
	H25	H	0.096716	0.666800	0.214943
	H26	H	0.095459	0.338492	0.788182
	H27	H	0.899016	0.667499	0.786314
	H28	H	0.213751	0.904461	0.338216
	H29	H	0.213939	0.101986	0.664533
	H30	H	0.782856	0.104752	0.338481
	H31	H	0.783747	0.903305	0.664295
	H32	H	0.334457	0.218273	0.902505
	H33	H	0.661027	0.216476	0.098497
	H34	H	0.335524	0.788036	0.099904
	H35	H	0.661224	0.788991	0.903640
	H36	H	0.336315	0.903073	0.218201
	H37	H	0.660672	0.101806	0.215988
	H38	H	0.335616	0.104326	0.784268
	H39	H	0.661272	0.904318	0.786678
	H40	H	0.901929	0.215736	0.336832
	H41	H	0.095590	0.215928	0.665505
	H42	H	0.095173	0.791284	0.336883
	H43	H	0.899875	0.787604	0.664896
	H44	H	0.213224	0.339725	0.902158
	H45	H	0.212154	0.667365	0.099286
	H46	H	0.784194	0.339128	0.100644
	H47	H	0.783132	0.667210	0.901359
	H48	H	0.408964	0.120981	0.598300
	H49	H	0.587241	0.888646	0.593389
	H50	H	0.584126	0.119553	0.405725
	H51	H	0.408636	0.886018	0.405547
	H52	H	0.592253	0.409888	0.117921
	H53	H	0.588747	0.597719	0.885334
	H54	H	0.403599	0.584926	0.113597
	H55	H	0.398245	0.404730	0.881616
	H56	H	0.116210	0.594943	0.399067
	H57	H	0.883579	0.597831	0.583337
	H58	H	0.114785	0.398095	0.589104
	H59	H	0.882341	0.408273	0.409949
	H60	H	0.107596	0.419896	0.586768
	H61	H	0.882269	0.585308	0.597495
	H62	H	0.114886	0.603781	0.410149
	H63	H	0.882633	0.413573	0.408295
	H64	H	0.412776	0.598336	0.115372
	H65	H	0.593659	0.597175	0.883514
	H66	H	0.591425	0.408386	0.118807
	H67	H	0.401280	0.420842	0.886466
	H68	H	0.592278	0.118970	0.414876
	H69	H	0.595956	0.886681	0.592310
	H70	H	0.409532	0.118235	0.587528
	H71	H	0.407808	0.887463	0.414486
	H72	H	0.909916	0.617577	0.087753
	H73	H	0.090149	0.385416	0.096569
	H74	H	0.097729	0.621251	0.910467
	H75	H	0.910751	0.387304	0.905446
	H76	H	0.098993	0.906453	0.621026
	H77	H	0.097201	0.098206	0.382934
	H78	H	0.908330	0.099546	0.617469
	H79	H	0.908357	0.907774	0.384919
	H80	H	0.609865	0.093725	0.917559
	H81	H	0.381423	0.094488	0.098532
	H82	H	0.615172	0.906862	0.094615
	H83	H	0.381156	0.913709	0.903846
	H84	H	0.614230	0.910877	0.094787
	H85	H	0.380633	0.098827	0.093528
	H86	H	0.613651	0.089748	0.899299
	H87	H	0.381683	0.907406	0.909381
	H88	H	0.899310	0.095482	0.620167
	H89	H	0.092156	0.090981	0.386545
	H90	H	0.091702	0.916219	0.615978
	H91	H	0.900059	0.910209	0.383032
	H92	H	0.088000	0.621596	0.899355
	H93	H	0.087833	0.387801	0.091513
	H94	H	0.897094	0.621907	0.090350
	H95	H	0.903557	0.387436	0.915359
	H96	H	0.399458	0.121348	0.591661
	H97	H	0.591831	0.885656	0.599746
	H98	H	0.596210	0.123466	0.404618
	H99	H	0.400605	0.884580	0.409459
	H100	H	0.593193	0.409366	0.118705
	H101	H	0.591356	0.593008	0.885686
	H102	H	0.396742	0.599129	0.120183
	H103	H	0.413491	0.408887	0.886957
	H104	H	0.110865	0.589839	0.412086
	H105	H	0.876915	0.603447	0.600589
	H106	H	0.116465	0.411774	0.607000
	H107	H	0.881055	0.409498	0.404009
	H108	H	0.906484	0.623124	0.100444
	H109	H	0.093401	0.385852	0.092120
	H110	H	0.083789	0.616934	0.912280
	H111	H	0.899298	0.383022	0.905050
	H112	H	0.086386	0.904608	0.617379
	H113	H	0.087627	0.099603	0.385237
	H114	H	0.906681	0.089262	0.615501
	H115	H	0.905719	0.916162	0.386180
	H116	H	0.617548	0.107616	0.906199
	H117	H	0.382706	0.093139	0.092358
	H118	H	0.616100	0.909409	0.098487
	H119	H	0.384376	0.914451	0.911798
	C120	C	0.377160	0.012227	0.622480
	C121	C	0.620368	0.995411	0.623162
	C122	C	0.619886	0.011888	0.380485
	C123	C	0.377342	0.994577	0.380370
	C124	C	0.619904	0.381134	0.010070
	C125	C	0.619513	0.624184	0.992986
	C126	C	0.375671	0.624814	0.008837
	C127	C	0.375758	0.381749	0.993173
	C128	C	0.006302	0.625124	0.378523
	C129	C	0.988839	0.623753	0.622094
	C130	C	0.005431	0.380598	0.623192
	C131	C	0.989531	0.381271	0.379088
	C132	C	0.876584	0.512133	0.122089
	C133	C	0.119174	0.494745	0.121798
	C134	C	0.118905	0.511583	0.878978
	C135	C	0.875481	0.494512	0.879114
	C136	C	0.120639	0.881011	0.509862
	C137	C	0.120328	0.124444	0.492984
	C138	C	0.876839	0.124041	0.509650
	C139	C	0.876542	0.881520	0.492870
	C140	C	0.506235	0.125807	0.878859
	C141	C	0.489590	0.124392	0.123092
	C142	C	0.507181	0.880391	0.124264
	C143	C	0.489997	0.882549	0.879829
	C144	C	0.379389	0.888950	0.678719
	C145	C	0.617986	0.119166	0.677460
	C146	C	0.617945	0.888306	0.325833
	C147	C	0.379799	0.118288	0.324460
	C148	C	0.674385	0.384750	0.886959
	C149	C	0.675068	0.622099	0.115925
	C150	C	0.319677	0.624954	0.886383
	C151	C	0.320275	0.383238	0.115676
	C152	C	0.883679	0.680292	0.381103
	C153	C	0.111857	0.678376	0.619428
	C154	C	0.882784	0.325156	0.620110
	C155	C	0.112445	0.326455	0.382755
	C156	C	0.882819	0.382266	0.678488
	C157	C	0.111338	0.621557	0.677815
	C158	C	0.883675	0.622938	0.323109
	C159	C	0.112064	0.383385	0.323952
	C160	C	0.378777	0.681307	0.885996
	C161	C	0.615983	0.678307	0.116339
	C162	C	0.615529	0.328116	0.886355
	C163	C	0.378512	0.325975	0.115985
	C164	C	0.674976	0.888404	0.383456
	C165	C	0.675951	0.118685	0.620581
	C166	C	0.321574	0.888974	0.622253
	C167	C	0.321809	0.117898	0.381299
	C168	C	0.878854	0.388418	0.177965
	C169	C	0.117244	0.618098	0.177115
	C170	C	0.116366	0.387796	0.825027
	C171	C	0.878313	0.618211	0.823749
	C172	C	0.175546	0.884116	0.386818
	C173	C	0.175715	0.122332	0.615796
	C174	C	0.821104	0.123572	0.386989
	C175	C	0.821575	0.882944	0.615646
	C176	C	0.383233	0.180721	0.881499
	C177	C	0.612193	0.179174	0.119628
	C178	C	0.384270	0.825920	0.121135
	C179	C	0.612643	0.826989	0.882546
	C180	C	0.384784	0.882789	0.179737
	C181	C	0.612113	0.122113	0.177846
	C182	C	0.383868	0.124308	0.822737
	C183	C	0.612561	0.884545	0.824697
	C184	C	0.879864	0.179301	0.386233
	C185	C	0.116645	0.178802	0.616340
	C186	C	0.116864	0.827489	0.386327
	C187	C	0.879334	0.825534	0.615805
	C188	C	0.174878	0.388465	0.881600
	C189	C	0.174637	0.618212	0.119779
	C190	C	0.821584	0.388433	0.120641
	C191	C	0.820922	0.618196	0.881220
	C192	C	0.399424	0.098005	0.599354
	C193	C	0.598237	0.909469	0.601543
	C194	C	0.597520	0.098247	0.401935
	C195	C	0.399367	0.908311	0.403219
	C196	C	0.598433	0.402735	0.096334
	C197	C	0.597633	0.602432	0.907132
	C198	C	0.397987	0.601106	0.094406
	C199	C	0.397811	0.404833	0.907132
	C200	C	0.091714	0.602824	0.400588
	C201	C	0.903185	0.601933	0.600281
	C202	C	0.090789	0.403261	0.600938
	C203	C	0.903999	0.403781	0.401059
	C204	C	0.898225	0.598525	0.099584
	C205	C	0.097013	0.408644	0.100017
	C206	C	0.096484	0.597726	0.900948
	C207	C	0.897886	0.408243	0.901906
	C208	C	0.098837	0.902804	0.595917
	C209	C	0.098635	0.102695	0.407016
	C210	C	0.898435	0.101521	0.595516
	C211	C	0.898446	0.904526	0.406690
	C212	C	0.591563	0.103569	0.901051
	C213	C	0.403682	0.102033	0.101252
	C214	C	0.593148	0.902489	0.102439
	C215	C	0.404523	0.905277	0.901800
	Zn216	Zn	0.498366	0.004071	0.750706
	Zn217	Zn	0.498705	0.003048	0.252246
	Zn218	Zn	0.748339	0.503077	0.001445
	Zn219	Zn	0.246825	0.503623	0.000544
	Zn220	Zn	-0.001990	0.752925	0.500985
	Zn221	Zn	-0.002187	0.252420	0.501203
	Zn222	Zn	-0.003021	0.502530	0.751061
	Zn223	Zn	-0.002029	0.503130	0.249907
	Zn224	Zn	0.497928	0.752949	0.000879
	Zn225	Zn	0.497697	0.253184	0.001268
	Zn226	Zn	0.748252	0.003549	0.501371
	Zn227	Zn	0.249181	0.002700	0.501780
	N228	N	0.413637	0.966494	0.678972
	N229	N	0.584200	0.041425	0.679548
	N230	N	0.584240	0.966005	0.323834
	N231	N	0.413545	0.040447	0.323610
	N232	N	0.677015	0.417119	0.964834
	N233	N	0.677337	0.589106	0.038253
	N234	N	0.317665	0.590678	0.963854
	N235	N	0.318549	0.417179	0.038041
	N236	N	0.960732	0.681670	0.415058
	N237	N	0.034762	0.679882	0.585528
	N238	N	0.959985	0.323927	0.586479
	N239	N	0.035238	0.324958	0.416227
	N240	N	0.960156	0.415919	0.680606
	N241	N	0.033946	0.588265	0.679502
	N242	N	0.961041	0.589403	0.321257
	N243	N	0.034738	0.416780	0.321661
	N244	N	0.412881	0.681232	0.963205
	N245	N	0.582259	0.679791	0.038959
	N246	N	0.582551	0.325803	0.964060
	N247	N	0.412317	0.325009	0.038751
	N248	N	0.676202	0.966210	0.416749
	N249	N	0.677332	0.040929	0.587393
	N250	N	0.320321	0.966523	0.587909
	N251	N	0.320302	0.039943	0.415362
	N252	N	0.912362	0.466212	0.178919
	N253	N	0.083339	0.540508	0.178387
	N254	N	0.082285	0.465306	0.823315
	N255	N	0.911418	0.540213	0.822315
	N256	N	0.178015	0.916557	0.464785
	N257	N	0.178121	0.089432	0.538144
	N258	N	0.818987	0.089890	0.464705
	N259	N	0.819750	0.917105	0.538187
	N260	N	0.460178	0.182025	0.915457
	N261	N	0.534849	0.180689	0.086245
	N262	N	0.461417	0.824406	0.087259
	N263	N	0.535572	0.825522	0.916000
	N264	N	0.462240	0.916044	0.181660
	N265	N	0.534701	0.088977	0.180174
	N266	N	0.461429	0.091009	0.820709
	N267	N	0.535250	0.918361	0.822863
	N268	N	0.913928	0.179733	0.463405
	N269	N	0.083158	0.180493	0.538872
	N270	N	0.083213	0.825610	0.463643
	N271	N	0.912751	0.824652	0.538232
	N272	N	0.176470	0.466481	0.914300
	N273	N	0.175828	0.540565	0.086075
	N274	N	0.820119	0.466423	0.086719
	N275	N	0.819151	0.540274	0.915082
	O276	O	0.495563	0.534232	0.516692
	H277	H	0.500223	0.522872	0.523340
	H278	H	0.493729	0.529011	0.519543
	O279	O	0.438358	0.574732	0.479243
	H280	H	0.434252	0.564891	0.472854
	H281	H	0.444007	0.583259	0.474296
	O282	O	0.446517	0.565528	0.393062
	H283	H	0.447783	0.567256	0.398617
	H284	H	0.452651	0.559395	0.395404
	O285	O	-0.011896	1.051720	0.972528
	H286	H	-0.017429	1.052061	0.972222
	H287	H	-0.007573	1.056741	0.962006
	O288	O	0.504159	0.492513	0.430581
	H289	H	0.501407	0.504571	0.429356
	H290	H	0.501861	0.494236	0.431741
	O291	O	-0.028645	0.037919	1.042024
	H292	H	-0.028513	0.035377	1.049803
	H293	H	-0.027565	0.031361	1.049513
	O294	O	0.471740	0.512101	0.515678
	H295	H	0.481227	0.503332	0.513674
	H296	H	0.465346	0.512739	0.523244
	O297	O	0.422935	0.427983	0.622801
	H298	H	0.428627	0.431699	0.618939
	H299	H	0.425233	0.414793	0.631884
	O300	O	0.462519	0.487508	0.480257
	H301	H	0.466109	0.491529	0.464863
	H302	H	0.456414	0.495381	0.475380
	O303	O	0.442159	0.425259	0.548950
	H304	H	0.436799	0.421053	0.544200
	H305	H	0.441996	0.417921	0.557817
	O306	O	0.985035	0.054753	0.957496
	H307	H	0.981442	0.056508	0.952125
	H308	H	0.982605	0.058807	0.961301
	O309	O	0.549522	0.618075	0.511387
	H310	H	0.555080	0.613806	0.508781
	H311	H	0.546871	0.621319	0.527063
	O312	O	0.438923	0.441554	0.485398
	H313	H	0.434498	0.447827	0.481667
	H314	H	0.439156	0.450334	0.483718
	O315	O	0.993570	0.033391	1.010626
	H316	H	0.990002	0.033815	1.013306
	H317	H	0.996658	0.035047	1.005057
	O318	O	0.411455	-0.391643	-0.342940
	H319	H	0.412158	-0.383148	-0.339314
	H320	H	0.409895	-0.406506	-0.330025
	O321	O	0.483748	0.562509	0.514294
	H322	H	0.486169	0.548684	0.509885
	H323	H	0.496417	0.566199	0.506125
	O324	O	0.958386	0.066706	-0.029566
	H325	H	0.956913	0.071134	-0.018979
	H326	H	0.960618	0.070513	-0.028064
	O327	O	0.976758	1.033144	-0.035905
	H328	H	0.979103	1.038719	-0.050342
	H329	H	0.975647	1.024546	-0.041284
	O330	O	0.443647	0.504941	0.499984
	H331	H	0.437574	0.515999	0.506542
	H332	H	0.438155	0.506613	0.495322
	O333	O	0.477117	0.364729	0.506566
	H334	H	0.474401	0.367821	0.500543
	H335	H	0.475584	0.366667	0.497461
