data_Molecule from HDF5

_cell_length_a		16.373058
_cell_length_b		16.219468
_cell_length_c		16.273672
_cell_angle_alpha	90.220629
_cell_angle_beta	89.990169
_cell_angle_gamma	89.953137
_symmetry_space_group_name_H-M	'P 1'
_symmetry_Int_Tables_number		1

loop_
	_symmetry_equiv_pos_as_xyz
	x,y,z

loop_
	_atom_site_label
	_atom_site_type_symbol
	_atom_site_fract_x
	_atom_site_fract_y
	_atom_site_fract_z
	H0	H	0.407712	0.848601	0.702307
	H1	H	0.602339	0.177347	0.701020
	H2	H	0.602848	0.848175	0.273916
	H3	H	0.407772	0.177383	0.277053
	H4	H	0.723736	0.411528	0.825987
	H5	H	0.721086	0.611748	0.152561
	H6	H	0.290681	0.613905	0.825731
	H7	H	0.291819	0.413993	0.151430
	H8	H	0.842533	0.726420	0.390625
	H9	H	0.168867	0.728310	0.587855
	H10	H	0.842628	0.299039	0.586797
	H11	H	0.168445	0.295951	0.390490
	H12	H	0.844068	0.413443	0.705791
	H13	H	0.169289	0.612574	0.703519
	H14	H	0.843304	0.609292	0.274014
	H15	H	0.169577	0.412173	0.273691
	H16	H	0.410756	0.726143	0.824552
	H17	H	0.604624	0.727692	0.152749
	H18	H	0.605034	0.298400	0.824771
	H19	H	0.410349	0.301177	0.152910
	H20	H	0.720218	0.848623	0.388895
	H21	H	0.720539	0.175686	0.589148
	H22	H	0.291390	0.847920	0.587134
	H23	H	0.289303	0.175462	0.389239
	H24	H	0.911561	0.347356	0.198893
	H25	H	0.105239	0.676994	0.203727
	H26	H	0.104984	0.348879	0.774147
	H27	H	0.910315	0.677489	0.776714
	H28	H	0.220272	0.911526	0.324911
	H29	H	0.220745	0.111959	0.651723
	H30	H	0.791578	0.109672	0.325302
	H31	H	0.789838	0.913185	0.652096
	H32	H	0.344160	0.229624	0.890279
	H33	H	0.669989	0.227021	0.085937
	H34	H	0.343592	0.798611	0.086432
	H35	H	0.670559	0.800850	0.891350
	H36	H	0.342784	0.916045	0.202162
	H37	H	0.668479	0.113408	0.205582
	H38	H	0.342665	0.111051	0.774888
	H39	H	0.668344	0.914634	0.772727
	H40	H	0.909603	0.223594	0.324369
	H41	H	0.101977	0.226523	0.652747
	H42	H	0.101957	0.798386	0.324786
	H43	H	0.908383	0.800320	0.653541
	H44	H	0.222729	0.349562	0.888187
	H45	H	0.221594	0.677191	0.087762
	H46	H	0.792872	0.348917	0.086238
	H47	H	0.791761	0.676668	0.889517
	H48	H	0.413708	0.125196	0.572082
	H49	H	0.591646	0.897827	0.578966
	H50	H	0.600675	0.129737	0.396310
	H51	H	0.406495	0.892837	0.394359
	H52	H	0.597056	0.416964	0.105925
	H53	H	0.603126	0.605464	0.871192
	H54	H	0.414987	0.603778	0.104421
	H55	H	0.415977	0.433935	0.876160
	H56	H	0.121003	0.607847	0.401281
	H57	H	0.889796	0.607632	0.583692
	H58	H	0.122802	0.420590	0.585797
	H59	H	0.890796	0.427981	0.386682
	H60	H	0.121470	0.415212	0.577677
	H61	H	0.891266	0.605949	0.581049
	H62	H	0.119785	0.600111	0.395600
	H63	H	0.885997	0.408526	0.388479
	H64	H	0.415097	0.608045	0.105538
	H65	H	0.600947	0.604517	0.872523
	H66	H	0.606257	0.420204	0.106967
	H67	H	0.424901	0.413281	0.873085
	H68	H	0.597135	0.129322	0.396050
	H69	H	0.603328	0.895454	0.574953
	H70	H	0.402446	0.132875	0.583634
	H71	H	0.416215	0.895379	0.390091
	H72	H	0.906769	0.629209	0.072491
	H73	H	0.094927	0.397182	0.082804
	H74	H	0.107841	0.631597	0.898143
	H75	H	0.912388	0.392979	0.886076
	H76	H	0.092981	0.925027	0.601502
	H77	H	0.103818	0.103689	0.370833
	H78	H	0.905607	0.107091	0.607701
	H79	H	0.901893	0.917387	0.369075
	H80	H	0.621906	0.102867	0.890836
	H81	H	0.391889	0.107550	0.078650
	H82	H	0.624234	0.921195	0.089381
	H83	H	0.389636	0.915095	0.895899
	H84	H	0.623162	0.914603	0.078502
	H85	H	0.390725	0.104548	0.084015
	H86	H	0.623950	0.110717	0.892824
	H87	H	0.391703	0.922464	0.896907
	H88	H	0.912723	0.101057	0.604390
	H89	H	0.096859	0.100801	0.374241
	H90	H	0.098237	0.913067	0.606842
	H91	H	0.913278	0.928035	0.375245
	H92	H	0.098269	0.631581	0.888574
	H93	H	0.102865	0.397430	0.074211
	H94	H	0.907588	0.634750	0.092794
	H95	H	0.924503	0.400064	0.899380
	H96	H	0.419028	0.129746	0.588115
	H97	H	0.600004	0.892852	0.586961
	H98	H	0.598905	0.129022	0.399227
	H99	H	0.414695	0.897557	0.400410
	H100	H	0.599802	0.426381	0.102916
	H101	H	0.600552	0.607154	0.872005
	H102	H	0.412079	0.605604	0.104878
	H103	H	0.403517	0.416916	0.867994
	H104	H	0.123491	0.608437	0.391910
	H105	H	0.890688	0.604492	0.583995
	H106	H	0.119127	0.424620	0.577979
	H107	H	0.893871	0.418968	0.404258
	H108	H	0.924630	0.627251	0.083483
	H109	H	0.105831	0.393191	0.084944
	H110	H	0.095958	0.627288	0.901483
	H111	H	0.906563	0.396332	0.904455
	H112	H	0.106408	0.924531	0.606735
	H113	H	0.096693	0.108378	0.370783
	H114	H	0.915061	0.110427	0.606237
	H115	H	0.917490	0.911730	0.372586
	H116	H	0.620713	0.105024	0.898086
	H117	H	0.389206	0.110771	0.084148
	H118	H	0.618886	0.926546	0.078678
	H119	H	0.389262	0.919575	0.890338
	C120	C	0.383783	0.020782	0.609779
	C121	C	0.627055	1.003810	0.609559
	C122	C	0.626820	0.020525	0.367971
	C123	C	0.384083	1.003694	0.367028
	C124	C	0.629046	0.391718	-0.002919
	C125	C	0.629170	0.634441	0.980395
	C126	C	0.385901	0.634356	-0.003321
	C127	C	0.386135	0.392686	0.980352
	C128	C	0.013838	0.633578	0.367443
	C129	C	0.998210	0.634886	0.610905
	C130	C	0.013988	0.391552	0.609880
	C131	C	0.997724	0.389721	0.365424
	C132	C	0.885647	0.521158	0.109950
	C133	C	0.129329	0.504548	0.109982
	C134	C	0.129128	0.521725	0.867058
	C135	C	0.885994	0.504758	0.867932
	C136	C	0.127340	0.891001	0.497104
	C137	C	0.127126	0.133485	0.480282
	C138	C	0.883704	0.133563	0.497412
	C139	C	0.883568	0.891082	0.481017
	C140	C	0.514558	0.134815	0.866193
	C141	C	0.498118	0.135815	0.110935
	C142	C	0.514592	0.892115	0.110178
	C143	C	0.497964	0.891074	0.866247
	C144	C	0.387056	0.897341	0.664527
	C145	C	0.623552	0.127776	0.664114
	C146	C	0.623657	0.897306	0.311919
	C147	C	0.386387	0.127784	0.313299
	C148	C	0.684768	0.392468	0.874173
	C149	C	0.683486	0.632255	0.103731
	C150	C	0.329673	0.633128	0.874254
	C151	C	0.330180	0.394133	0.102937
	C152	C	0.891201	0.688403	0.370103
	C153	C	0.120379	0.690296	0.608212
	C154	C	0.891318	0.336749	0.607389
	C155	C	0.120155	0.334316	0.369409
	C156	C	0.892112	0.393576	0.666597
	C157	C	0.120573	0.632740	0.665925
	C158	C	0.891599	0.630197	0.312261
	C159	C	0.120803	0.392029	0.311444
	C160	C	0.389059	0.688850	0.873475
	C161	C	0.625276	0.689665	0.103901
	C162	C	0.626094	0.336038	0.873762
	C163	C	0.389227	0.338385	0.103839
	C164	C	0.681660	0.897273	0.369175
	C165	C	0.682243	0.127047	0.608291
	C166	C	0.328995	0.897210	0.607627
	C167	C	0.327832	0.126894	0.369333
	C168	C	0.890209	0.396727	0.162288
	C169	C	0.126119	0.628171	0.165603
	C170	C	0.126006	0.398010	0.811770
	C171	C	0.888843	0.628271	0.813661
	C172	C	0.182521	0.891767	0.373960
	C173	C	0.182396	0.131830	0.603189
	C174	C	0.829569	0.130234	0.373922
	C175	C	0.828430	0.893300	0.603750
	C176	C	0.392183	0.190874	0.869520
	C177	C	0.621179	0.189855	0.107410
	C178	C	0.391896	0.837028	0.106991
	C179	C	0.621183	0.837423	0.870064
	C180	C	0.391667	0.895008	0.164795
	C181	C	0.620223	0.133631	0.166868
	C182	C	0.391665	0.132056	0.812064
	C183	C	0.620402	0.894195	0.811253
	C184	C	0.887964	0.186852	0.373489
	C185	C	0.123681	0.188767	0.603670
	C186	C	0.123602	0.835771	0.373687
	C187	C	0.887109	0.836946	0.604338
	C188	C	0.184527	0.398437	0.868329
	C189	C	0.183835	0.628175	0.108175
	C190	C	0.831033	0.397501	0.106663
	C191	C	0.830171	0.627834	0.869912
	C192	C	0.405249	0.106952	0.587684
	C193	C	0.604994	0.917541	0.586848
	C194	C	0.605253	0.107004	0.390683
	C195	C	0.406027	0.917428	0.388764
	C196	C	0.607394	0.414379	0.082879
	C197	C	0.607788	0.612287	0.894197
	C198	C	0.407649	0.612367	0.082818
	C199	C	0.408469	0.414841	0.894547
	C200	C	0.099315	0.611739	0.389701
	C201	C	0.912655	0.612628	0.589126
	C202	C	0.098996	0.413738	0.587165
	C203	C	0.912415	0.412003	0.386802
	C204	C	0.906716	0.607911	0.088973
	C205	C	0.107582	0.418296	0.087435
	C206	C	0.107183	0.607930	0.889495
	C207	C	0.908167	0.418699	0.889850
	C208	C	0.105613	0.914092	0.582984
	C209	C	0.105490	0.111054	0.394211
	C210	C	0.904946	0.112427	0.583719
	C211	C	0.904748	0.912680	0.394444
	C212	C	0.600159	0.112787	0.887707
	C213	C	0.412642	0.114054	0.088924
	C214	C	0.600095	0.914228	0.088540
	C215	C	0.412370	0.912623	0.887979
	Zn216	Zn	0.505559	0.012768	0.737397
	Zn217	Zn	0.505728	0.013861	0.239695
	Zn218	Zn	0.757313	0.512573	-0.011198
	Zn219	Zn	0.257516	0.512894	-0.011847
	Zn220	Zn	0.005583	0.763358	0.489137
	Zn221	Zn	0.004977	0.261829	0.488559
	Zn222	Zn	0.006929	0.513289	0.739605
	Zn223	Zn	0.007254	0.512462	0.237729
	Zn224	Zn	0.506787	0.763031	-0.011412
	Zn225	Zn	0.506689	0.264215	-0.011425
	Zn226	Zn	0.755270	0.012438	0.488956
	Zn227	Zn	0.255981	0.011498	0.488428
	N228	N	0.420371	0.975119	0.666035
	N229	N	0.589860	0.050057	0.665012
	N230	N	0.590183	0.975211	0.311294
	N231	N	0.420555	0.050386	0.311815
	N232	N	0.686703	0.426281	0.951690
	N233	N	0.686212	0.598875	0.025946
	N234	N	0.327737	0.599875	0.951938
	N235	N	0.328295	0.427164	0.025287
	N236	N	0.968280	0.690573	0.403766
	N237	N	0.043247	0.691638	0.574586
	N238	N	0.967977	0.335066	0.573010
	N239	N	0.042777	0.332728	0.402400
	N240	N	0.969267	0.427128	0.668098
	N241	N	0.043690	0.598789	0.667555
	N242	N	0.968929	0.596924	0.310478
	N243	N	0.043844	0.425939	0.309004
	N244	N	0.423450	0.689524	0.950577
	N245	N	0.592198	0.691024	0.026222
	N246	N	0.592027	0.335455	0.951062
	N247	N	0.423371	0.337469	0.026538
	N248	N	0.683829	0.974943	0.403245
	N249	N	0.684331	0.049037	0.574956
	N250	N	0.327182	0.974867	0.574147
	N251	N	0.326257	0.048819	0.402188
	N252	N	0.923541	0.474468	0.164512
	N253	N	0.092908	0.550329	0.166756
	N254	N	0.092674	0.475698	0.810360
	N255	N	0.922895	0.550827	0.812312
	N256	N	0.184840	0.925447	0.451704
	N257	N	0.184552	0.098113	0.525454
	N258	N	0.826571	0.098064	0.451988
	N259	N	0.826190	0.926143	0.526028
	N260	N	0.469471	0.192616	0.902552
	N261	N	0.544332	0.191444	0.073396
	N262	N	0.469210	0.835088	0.073936
	N263	N	0.544163	0.835444	0.903612
	N264	N	0.468697	0.928927	0.166641
	N265	N	0.542915	0.100451	0.168815
	N266	N	0.468799	0.098289	0.809799
	N267	N	0.542899	0.927011	0.808854
	N268	N	0.920718	0.189125	0.451186
	N269	N	0.090153	0.189815	0.526259
	N270	N	0.090057	0.835149	0.451074
	N271	N	0.920580	0.835324	0.526784
	N272	N	0.186434	0.476295	0.901911
	N273	N	0.185897	0.550359	0.074172
	N274	N	0.828373	0.475941	0.074597
	N275	N	0.828318	0.549877	0.903021
	O276	O	0.462223	-0.500888	1.511241
	H277	H	0.462478	-0.498798	1.509664
	H278	H	0.464973	-0.496780	1.503175
	O279	O	0.481228	0.495827	0.432032
	H280	H	0.475421	0.493233	0.433971
	H281	H	0.483233	0.489912	0.420479
	O282	O	-0.522866	0.521258	1.541010
	H283	H	-0.523599	0.520032	1.538913
	H284	H	-0.521586	0.522796	1.539315
	O285	O	0.420197	0.497388	0.505877
	H286	H	0.414751	0.492353	0.506161
	H287	H	0.425109	0.492665	0.509486
	O288	O	0.490888	0.424491	0.481640
	H289	H	0.498167	0.424271	0.487883
	H290	H	0.499625	0.416628	0.472903
	O291	O	0.458872	0.546455	0.476741
	H292	H	0.452104	0.552299	0.488557
	H293	H	0.457961	0.548325	0.487254
	O294	O	0.485709	0.402634	0.518443
	H295	H	0.484869	0.400135	0.517650
	H296	H	0.488347	0.408232	0.515004
	O297	O	0.428123	-0.515693	0.555007
	H298	H	0.417148	-0.521094	0.552159
	H299	H	0.421639	-0.514635	0.557185
