data_Molecule from HDF5

_cell_length_a		16.647717
_cell_length_b		16.659196
_cell_length_c		16.631517
_cell_angle_alpha	90.078511
_cell_angle_beta	89.888296
_cell_angle_gamma	90.003861
_symmetry_space_group_name_H-M	'P 1'
_symmetry_Int_Tables_number		1

loop_
	_symmetry_equiv_pos_as_xyz
	x,y,z

loop_
	_atom_site_label
	_atom_site_type_symbol
	_atom_site_fract_x
	_atom_site_fract_y
	_atom_site_fract_z
	H0	H	0.380882	0.845339	0.720328
	H1	H	0.594131	0.153556	0.719912
	H2	H	0.593681	0.844944	0.275314
	H3	H	0.379314	0.151538	0.273059
	H4	H	0.709114	0.393274	0.843545
	H5	H	0.710521	0.607814	0.151425
	H6	H	0.263550	0.608210	0.844604
	H7	H	0.266238	0.396063	0.153109
	H8	H	0.832156	0.721272	0.392437
	H9	H	0.140893	0.722222	0.605076
	H10	H	0.833404	0.275663	0.604242
	H11	H	0.141538	0.277345	0.390304
	H12	H	0.835169	0.388717	0.722782
	H13	H	0.140269	0.605755	0.720486
	H14	H	0.831825	0.605855	0.275566
	H15	H	0.141290	0.394167	0.274900
	H16	H	0.380989	0.722087	0.842194
	H17	H	0.592835	0.722276	0.152486
	H18	H	0.594292	0.277162	0.843349
	H19	H	0.378853	0.276562	0.151543
	H20	H	0.708315	0.843583	0.393316
	H21	H	0.709162	0.154215	0.601986
	H22	H	0.263608	0.846208	0.606019
	H23	H	0.263091	0.152110	0.389539
	H24	H	0.880036	0.345122	0.219206
	H25	H	0.091324	0.654890	0.218407
	H26	H	0.092268	0.343800	0.777367
	H27	H	0.879026	0.651520	0.771945
	H28	H	0.211400	0.891480	0.343673
	H29	H	0.209491	0.105014	0.651983
	H30	H	0.769264	0.101608	0.340299
	H31	H	0.766867	0.895354	0.652830
	H32	H	0.332914	0.220071	0.892318
	H33	H	0.639704	0.225704	0.106484
	H34	H	0.332596	0.779154	0.103008
	H35	H	0.642419	0.778728	0.893415
	H36	H	0.333352	0.894658	0.220070
	H37	H	0.642165	0.108128	0.220165
	H38	H	0.332499	0.103429	0.777056
	H39	H	0.642700	0.893869	0.775623
	H40	H	0.885438	0.217398	0.340416
	H41	H	0.093973	0.221941	0.651308
	H42	H	0.093305	0.777450	0.342699
	H43	H	0.882580	0.778285	0.652953
	H44	H	0.208669	0.344593	0.892941
	H45	H	0.208192	0.655099	0.102864
	H46	H	0.762517	0.347102	0.104992
	H47	H	0.762794	0.653164	0.889154
	H48	H	0.396699	0.108609	0.579200
	H49	H	0.577882	0.886087	0.589935
	H50	H	0.586623	0.115146	0.404084
	H51	H	0.402444	0.889260	0.407999
	H52	H	0.572578	0.413337	0.108529
	H53	H	0.573154	0.592293	0.885787
	H54	H	0.403248	0.590211	0.107128
	H55	H	0.395017	0.410535	0.884691
	H56	H	0.096625	0.587079	0.411476
	H57	H	0.879111	0.583757	0.581873
	H58	H	0.094057	0.416225	0.582114
	H59	H	0.874283	0.408461	0.405214
	H60	H	0.100367	0.412191	0.592323
	H61	H	0.875253	0.585293	0.588546
	H62	H	0.097904	0.586010	0.404564
	H63	H	0.875922	0.407482	0.411601
	H64	H	0.396422	0.592464	0.109896
	H65	H	0.579170	0.588467	0.885768
	H66	H	0.573619	0.413913	0.107682
	H67	H	0.399646	0.413496	0.887626
	H68	H	0.570499	0.110285	0.402890
	H69	H	0.574655	0.889390	0.585523
	H70	H	0.395587	0.113892	0.590524
	H71	H	0.402796	0.891297	0.412359
	H72	H	0.905199	0.609445	0.087259
	H73	H	0.077818	0.389895	0.082352
	H74	H	0.079560	0.610800	0.911116
	H75	H	0.900573	0.389573	0.908266
	H76	H	0.077382	0.905506	0.611732
	H77	H	0.075703	0.082649	0.387497
	H78	H	0.899552	0.087124	0.607696
	H79	H	0.896994	0.909276	0.384671
	H80	H	0.600461	0.088434	0.905872
	H81	H	0.378702	0.085543	0.084810
	H82	H	0.595890	0.912177	0.078294
	H83	H	0.372320	0.905473	0.902104
	H84	H	0.599055	0.917004	0.091778
	H85	H	0.377579	0.087219	0.086456
	H86	H	0.599489	0.090906	0.910945
	H87	H	0.377598	0.908139	0.916376
	H88	H	0.899700	0.089524	0.608028
	H89	H	0.072068	0.089634	0.386230
	H90	H	0.079094	0.915914	0.608523
	H91	H	0.899534	0.911549	0.385870
	H92	H	0.074395	0.612029	0.904336
	H93	H	0.079799	0.386223	0.088786
	H94	H	0.896636	0.608841	0.080047
	H95	H	0.900073	0.390491	0.912752
	H96	H	0.406551	0.108179	0.587007
	H97	H	0.580524	0.887274	0.584796
	H98	H	0.578668	0.108632	0.417476
	H99	H	0.398331	0.888404	0.410960
	H100	H	0.572225	0.413822	0.107514
	H101	H	0.573276	0.585660	0.888220
	H102	H	0.397213	0.585198	0.107385
	H103	H	0.400073	0.407456	0.885399
	H104	H	0.099502	0.592483	0.407121
	H105	H	0.875366	0.590636	0.582839
	H106	H	0.098434	0.404267	0.582686
	H107	H	0.876338	0.413650	0.408950
	H108	H	0.895079	0.613142	0.090673
	H109	H	0.072496	0.389080	0.088352
	H110	H	0.071962	0.607230	0.910670
	H111	H	0.896565	0.389352	0.910502
	H112	H	0.069447	0.911575	0.606642
	H113	H	0.079569	0.088972	0.384155
	H114	H	0.897691	0.088013	0.608980
	H115	H	0.900473	0.908063	0.386386
	H116	H	0.598210	0.085385	0.910065
	H117	H	0.377177	0.087452	0.084143
	H118	H	0.602222	0.902933	0.087901
	H119	H	0.378081	0.919444	0.906085
	C120	C	0.366940	0.008042	0.618436
	C121	C	0.609806	0.990392	0.618781
	C122	C	0.610072	0.008391	0.375758
	C123	C	0.366943	0.991051	0.376656
	C124	C	0.606957	0.379439	0.006147
	C125	C	0.608363	0.621743	0.988795
	C126	C	0.366428	0.621387	0.005526
	C127	C	0.365669	0.378690	0.988815
	C128	C	-0.004476	0.620899	0.375775
	C129	C	0.978607	0.619464	0.618163
	C130	C	-0.003804	0.376868	0.619183
	C131	C	0.978282	0.378330	0.376047
	C132	C	0.865636	0.508587	0.118526
	C133	C	0.108801	0.490920	0.119162
	C134	C	0.108160	0.507680	0.876586
	C135	C	0.865568	0.491246	0.876444
	C136	C	0.108613	0.877848	0.506455
	C137	C	0.109097	0.120617	0.488301
	C138	C	0.867034	0.119991	0.505329
	C139	C	0.866719	0.877934	0.488953
	C140	C	0.496764	0.120654	0.876688
	C141	C	0.479085	0.121066	0.118730
	C142	C	0.496583	0.878280	0.118919
	C143	C	0.479080	0.878782	0.876142
	C144	C	0.363218	0.891926	0.679829
	C145	C	0.612212	0.107253	0.679166
	C146	C	0.612095	0.891318	0.315746
	C147	C	0.362184	0.105998	0.314405
	C148	C	0.668752	0.375564	0.890067
	C149	C	0.669530	0.625529	0.105218
	C150	C	0.304811	0.625238	0.890035
	C151	C	0.306008	0.377479	0.106290
	C152	C	0.878558	0.681158	0.373804
	C153	C	0.094436	0.681249	0.622345
	C154	C	0.880162	0.315689	0.622586
	C155	C	0.095064	0.318258	0.373073
	C156	C	0.880864	0.372226	0.681299
	C157	C	0.094374	0.623288	0.679692
	C158	C	0.878529	0.623807	0.315690
	C159	C	0.095027	0.376176	0.315542
	C160	C	0.363201	0.681992	0.889026
	C161	C	0.611003	0.682371	0.105644
	C162	C	0.611427	0.317833	0.890061
	C163	C	0.361837	0.317974	0.105324
	C164	C	0.669192	0.890871	0.373936
	C165	C	0.669302	0.107506	0.620572
	C166	C	0.305008	0.892229	0.622906
	C167	C	0.304349	0.106134	0.372241
	C168	C	0.861823	0.392227	0.179280
	C169	C	0.110298	0.608061	0.178893
	C170	C	0.110435	0.390710	0.817129
	C171	C	0.861513	0.606150	0.813693
	C172	C	0.170174	0.874128	0.389950
	C173	C	0.169265	0.123379	0.605119
	C174	C	0.808519	0.120849	0.387492
	C175	C	0.806976	0.876524	0.606277
	C176	C	0.379673	0.180410	0.874111
	C177	C	0.593987	0.184353	0.123477
	C178	C	0.379380	0.818899	0.121506
	C179	C	0.596004	0.818772	0.874433
	C180	C	0.379733	0.876369	0.179431
	C181	C	0.595028	0.125826	0.180094
	C182	C	0.379642	0.122605	0.816514
	C183	C	0.595992	0.875735	0.815900
	C184	C	0.866329	0.178379	0.387645
	C185	C	0.112077	0.181548	0.604897
	C186	C	0.111980	0.817034	0.389598
	C187	C	0.864423	0.818635	0.606232
	C188	C	0.168310	0.391156	0.874558
	C189	C	0.168405	0.608063	0.121324
	C190	C	0.803802	0.392802	0.122142
	C191	C	0.804059	0.606957	0.871981
	C192	C	0.392378	0.089124	0.592819
	C193	C	0.584777	0.908852	0.593782
	C194	C	0.585362	0.090138	0.400817
	C195	C	0.393519	0.910517	0.402999
	C196	C	0.580499	0.406045	0.086857
	C197	C	0.582642	0.595785	0.907614
	C198	C	0.391977	0.596414	0.086849
	C199	C	0.391127	0.403489	0.907182
	C200	C	0.076792	0.595792	0.400610
	C201	C	0.897576	0.593654	0.591907
	C202	C	0.076664	0.403433	0.592955
	C203	C	0.896804	0.403077	0.401318
	C204	C	0.891566	0.589420	0.093220
	C205	C	0.083695	0.409543	0.093804
	C206	C	0.082700	0.588759	0.901657
	C207	C	0.891615	0.410615	0.903144
	C208	C	0.082643	0.903638	0.587710
	C209	C	0.083128	0.094698	0.407040
	C210	C	0.891631	0.095208	0.587115
	C211	C	0.891727	0.902659	0.406939
	C212	C	0.578225	0.095579	0.901843
	C213	C	0.398749	0.094273	0.092531
	C214	C	0.577995	0.903541	0.093397
	C215	C	0.397241	0.903776	0.901082
	Zn216	Zn	0.487979	-0.000246	0.747338
	Zn217	Zn	0.488491	0.000005	0.247577
	Zn218	Zn	0.736380	0.500189	-0.002298
	Zn219	Zn	0.237525	0.500080	-0.002777
	Zn220	Zn	-0.012769	0.749074	0.497786
	Zn221	Zn	-0.012293	0.248858	0.496964
	Zn222	Zn	-0.012865	0.498652	0.747394
	Zn223	Zn	-0.013630	0.499248	0.247310
	Zn224	Zn	0.486839	0.749882	-0.002908
	Zn225	Zn	0.486818	0.249958	-0.002190
	Zn226	Zn	0.738412	-0.001139	0.496979
	Zn227	Zn	0.237391	-0.001104	0.497850
	N228	N	0.401085	0.964898	0.677246
	N229	N	0.575896	0.033506	0.678037
	N230	N	0.576093	0.965513	0.316545
	N231	N	0.400487	0.033306	0.316835
	N232	N	0.666253	0.413251	0.963390
	N233	N	0.668090	0.588431	0.031381
	N234	N	0.306374	0.588321	0.963639
	N235	N	0.308164	0.414612	0.032714
	N236	N	0.952476	0.679813	0.410200
	N237	N	0.021384	0.678856	0.584601
	N238	N	0.953072	0.318222	0.584549
	N239	N	0.021410	0.319377	0.410060
	N240	N	0.953884	0.409794	0.679249
	N241	N	0.021239	0.585400	0.677211
	N242	N	0.952298	0.587172	0.316536
	N243	N	0.021334	0.412913	0.317197
	N244	N	0.400441	0.679953	0.962152
	N245	N	0.573848	0.680344	0.032152
	N246	N	0.573634	0.319955	0.963385
	N247	N	0.398297	0.318538	0.031171
	N248	N	0.668269	0.964812	0.410264
	N249	N	0.668139	0.033711	0.583771
	N250	N	0.307057	0.965445	0.585044
	N251	N	0.307259	0.033557	0.410263
	N252	N	0.899717	0.465248	0.177370
	N253	N	0.073988	0.534096	0.177806
	N254	N	0.073777	0.464463	0.817893
	N255	N	0.899086	0.532985	0.816276
	N256	N	0.168503	0.911071	0.463794
	N257	N	0.167789	0.086424	0.531452
	N258	N	0.808711	0.085236	0.461901
	N259	N	0.808305	0.912723	0.532202
	N260	N	0.453565	0.179663	0.910529
	N261	N	0.520951	0.181502	0.085832
	N262	N	0.453193	0.819740	0.084620
	N263	N	0.522216	0.820696	0.911306
	N264	N	0.453714	0.912516	0.178052
	N265	N	0.522394	0.087205	0.177702
	N266	N	0.453606	0.086237	0.817639
	N267	N	0.522107	0.912331	0.816840
	N268	N	0.901482	0.178464	0.462253
	N269	N	0.075576	0.180201	0.530986
	N270	N	0.074474	0.819019	0.463218
	N271	N	0.900807	0.819325	0.532099
	N272	N	0.167344	0.465043	0.910492
	N273	N	0.167591	0.534235	0.084767
	N274	N	0.805887	0.466168	0.085193
	N275	N	0.806528	0.534233	0.910337
	O276	O	-0.249841	1.237346	0.238575
	H277	H	-0.236476	1.207170	0.207138
	H278	H	-0.224446	1.228103	0.260630
	O279	O	0.500841	0.711579	0.426779
	H280	H	0.504879	0.715434	0.429199
	H281	H	0.522487	0.709638	0.421787
	O282	O	1.204952	-0.219272	0.974790
	H283	H	1.207579	-0.221439	0.966838
	H284	H	1.218389	-0.229648	0.954760
	O285	O	0.676447	0.310088	0.686757
	H286	H	0.670684	0.313734	0.694122
	H287	H	0.671017	0.329422	0.663804
	O288	O	0.005635	-0.214745	-0.214099
	H289	H	0.029963	-0.217541	-0.217996
	H290	H	0.004756	-0.215991	-0.224603
	O291	O	0.278140	0.713173	0.283104
	H292	H	0.291125	0.710529	0.287971
	H293	H	0.290572	0.682900	0.283279
	O294	O	1.706077	0.714772	0.531128
	H295	H	1.730096	0.738664	0.546778
	H296	H	1.708955	0.707941	0.559855
	O297	O	0.466113	0.726082	0.551118
	H298	H	0.462778	0.719195	0.529014
	H299	H	0.464786	0.730950	0.542194
	O300	O	-0.127641	-0.199110	0.996288
	H301	H	-0.144981	-0.203887	0.999045
	H302	H	-0.111794	-0.210553	0.985890
	O303	O	0.697617	0.712022	0.704076
	H304	H	0.672562	0.717863	0.717644
	H305	H	0.711138	0.731863	0.730400
	O306	O	0.429971	0.285724	0.419503
	H307	H	0.426570	0.296399	0.430565
	H308	H	0.446248	0.274422	0.409408
	O309	O	0.492269	0.561540	0.719754
	H310	H	0.468591	0.561512	0.722142
	H311	H	0.500345	0.565248	0.709417
	O312	O	0.987497	0.992340	-0.221408
	H313	H	0.990275	0.990078	-0.229896
	H314	H	0.992282	1.011422	-0.223952
	O315	O	0.712633	0.516519	0.710067
	H316	H	0.702288	0.541737	0.713656
	H317	H	0.732065	0.538073	0.729583
	O318	O	0.268417	0.274460	0.521855
	H319	H	0.280132	0.284318	0.515555
	H320	H	0.247024	0.246808	0.520604
	O321	O	0.162840	1.201957	1.019843
	H322	H	0.157087	1.196482	1.041666
	H323	H	0.182212	1.216480	1.021184
	O324	O	0.768827	0.967715	0.213531
	H325	H	0.773601	0.978082	0.199844
	H326	H	0.748027	0.971394	0.233006
	O327	O	0.450596	-0.278180	0.279183
	H328	H	0.462427	-0.264847	0.254976
	H329	H	0.458451	-0.282125	0.280437
	O330	O	0.689286	0.490478	0.277592
	H331	H	0.692706	0.485515	0.271458
	H332	H	0.689491	0.468688	0.260982
	O333	O	0.398489	0.617133	0.446353
	H334	H	0.396103	0.628584	0.443878
	H335	H	0.411964	0.616408	0.428913
	O336	O	0.847352	-0.228618	-0.007898
	H337	H	0.843761	-0.243760	-0.008096
	H338	H	0.863154	-0.224322	0.001603
	O339	O	1.007107	0.031497	1.070768
	H340	H	0.989903	0.031934	1.068173
	H341	H	1.017146	0.032053	1.063316
	O342	O	0.500546	-0.478390	0.565407
	H343	H	0.506833	-0.465713	0.566576
	H344	H	0.522689	-0.473792	0.566356
	O345	O	0.200584	1.092822	1.212073
	H346	H	0.223214	1.106366	1.230284
	H347	H	0.209284	1.076906	1.206456
	O348	O	0.327069	0.520805	0.632963
	H349	H	0.323266	0.523518	0.625583
	H350	H	0.320421	0.525162	0.649870
	O351	O	0.338934	0.516252	0.287031
	H352	H	0.342046	0.518509	0.280460
	H353	H	0.312399	0.514817	0.290084
	O354	O	-0.202289	-0.191262	0.808651
	H355	H	-0.190011	-0.163490	0.822708
	H356	H	-0.173271	-0.183076	0.826424
	O357	O	0.172238	0.810883	0.185860
	H358	H	0.173515	0.832617	0.162727
	H359	H	0.197498	0.795955	0.208708
	O360	O	0.505783	0.281430	0.283360
	H361	H	0.530990	0.297257	0.281575
	H362	H	0.509858	0.255949	0.271137
	O363	O	0.019850	0.011858	0.078434
	H364	H	0.022324	0.019578	0.085227
	H365	H	0.043403	0.011558	0.092200
	O366	O	0.517787	0.276501	0.537580
	H367	H	0.520688	0.277124	0.540499
	H368	H	0.543263	0.280410	0.518962
	O369	O	0.931619	0.133325	0.007992
	H370	H	0.925054	0.131227	-0.001087
	H371	H	0.944027	0.134603	0.000692
	O372	O	0.926353	1.105691	-0.160792
	H373	H	0.929688	1.124821	-0.176527
	H374	H	0.898604	1.095299	-0.147444
	O375	O	1.173296	0.186278	-0.188251
	H376	H	1.172995	0.181292	-0.183863
	H377	H	1.195341	0.193704	-0.194843
	O378	O	0.679368	0.694175	0.300991
	H379	H	0.693587	0.704086	0.279366
	H380	H	0.686333	0.690311	0.294691
	O381	O	0.710659	0.276974	0.464670
	H382	H	0.741826	0.261275	0.466603
	H383	H	0.715259	0.293272	0.454661
	O384	O	1.048851	-0.103997	0.951283
	H385	H	1.060198	-0.093033	0.942887
	H386	H	1.055977	-0.097749	0.955136
	O387	O	0.845145	0.945141	-0.028364
	H388	H	0.843245	0.926869	-0.021528
	H389	H	0.862709	0.948468	-0.035233
	O390	O	0.181145	0.211791	0.154184
	H391	H	0.202225	0.239060	0.171915
	H392	H	0.183700	0.198995	0.163057
	O393	O	0.519998	0.453893	0.656290
	H394	H	0.526907	0.452541	0.650856
	H395	H	0.526828	0.463661	0.656899
	O396	O	0.054703	0.942912	1.229175
	H397	H	0.057149	0.948879	1.230010
	H398	H	0.058388	0.925810	1.227703
	O399	O	-0.051344	-0.218539	1.214383
	H400	H	-0.033844	-0.224627	1.216770
	H401	H	-0.055322	-0.226430	1.223907
	O402	O	0.301942	0.661980	0.513361
	H403	H	0.284821	0.678320	0.505471
	H404	H	0.303913	0.653651	0.499199
	O405	O	0.771370	0.003843	0.973019
	H406	H	0.774960	-0.012720	0.975131
	H407	H	0.776236	0.032422	0.966132
	O408	O	0.014036	0.013196	0.043433
	H409	H	0.024891	0.023006	0.049841
	H410	H	0.013431	0.009352	0.050973
	O411	O	-0.018866	1.222826	1.144529
	H412	H	-0.011674	1.237613	1.156790
	H413	H	0.013215	1.233193	1.137083
	O414	O	1.677580	0.393375	1.544315
	H415	H	1.684167	0.404615	1.576014
	H416	H	1.685750	0.404258	1.526116
	O417	O	0.530032	0.543335	0.264374
	H418	H	0.534927	0.541489	0.264867
	H419	H	0.521218	0.532400	0.261717
	O420	O	-0.215809	-0.196914	0.192971
	H421	H	-0.189602	-0.191597	0.186628
	H422	H	-0.209310	-0.170010	0.180237
	O423	O	0.191559	-0.050396	0.881983
	H424	H	0.195164	-0.049590	0.876315
	H425	H	0.187076	-0.059420	0.872882
	O426	O	0.520930	0.496592	0.374467
	H427	H	0.533499	0.500809	0.374681
	H428	H	0.516509	0.491337	0.365052
	O429	O	1.294509	1.306099	1.307945
	H430	H	1.330680	1.315838	1.317911
	H431	H	1.295002	1.332259	1.335034
	O432	O	0.439296	0.513179	0.567557
	H433	H	0.442995	0.519144	0.569204
	H434	H	0.440438	0.531593	0.570818
	O435	O	0.470735	0.299182	0.691975
	H436	H	0.492478	0.310076	0.687711
	H437	H	0.483906	0.287190	0.697251
	O438	O	0.191916	-0.005170	0.062581
	H439	H	0.191024	-0.014949	0.038780
	H440	H	0.193345	0.008547	0.055987
	O441	O	0.654996	0.345628	0.288549
	H442	H	0.639726	0.355150	0.304909
	H443	H	0.690474	0.315785	0.266856
	O444	O	0.516718	0.485145	0.472110
	H445	H	0.535476	0.492886	0.476514
	H446	H	0.511899	0.493146	0.476804
	O447	O	-0.009010	1.147497	0.822184
	H448	H	-0.017238	1.158127	0.834420
	H449	H	-0.018717	1.157148	0.803549
	O450	O	-0.019470	0.836336	0.934554
	H451	H	-0.018477	0.839122	0.941708
	H452	H	-0.006000	0.842486	0.938713
	O453	O	0.778007	0.201377	0.790920
	H454	H	0.773284	0.216910	0.817031
	H455	H	0.772920	0.186137	0.778016
	O456	O	-0.221989	0.034573	0.783350
	H457	H	-0.245321	0.037272	0.766216
	H458	H	-0.216057	0.035831	0.797028
	O459	O	1.208906	1.014131	-0.147423
	H460	H	1.214387	1.020045	-0.151403
	H461	H	1.200246	1.004675	-0.150714
	O462	O	0.518756	0.720215	0.700829
	H463	H	0.518758	0.745521	0.709102
	H464	H	0.503766	0.718728	0.684357
	O465	O	1.419291	0.427726	-0.439558
	H466	H	1.426540	0.416542	-0.445818
	H467	H	1.443589	0.420993	-0.428631
	O468	O	0.262966	0.432409	0.429503
	H469	H	0.257401	0.453621	0.443664
	H470	H	0.275130	0.428922	0.450160
	O471	O	0.261144	0.476108	0.726929
	H472	H	0.254386	0.439360	0.732878
	H473	H	0.245526	0.461695	0.740327
	O474	O	0.294123	0.691151	0.688871
	H475	H	0.311963	0.682486	0.677954
	H476	H	0.305948	0.667830	0.668098
	O477	O	0.309750	0.283633	1.708175
	H478	H	0.319602	0.285717	1.673104
	H479	H	0.342395	0.276722	1.712495
	O480	O	0.715751	0.539245	0.475920
	H481	H	0.720151	0.552523	0.453663
	H482	H	0.715614	0.548854	0.475915
	O483	O	0.197107	0.793216	0.786603
	H484	H	0.177801	0.807807	0.799960
	H485	H	0.225348	0.770342	0.756626
	O486	O	0.854774	0.119739	1.080870
	H487	H	0.863975	0.110605	1.059445
	H488	H	0.878283	0.112478	1.078232
	O489	O	1.156313	1.104749	0.063540
	H490	H	1.167317	1.112468	0.069913
	H491	H	1.154133	1.094155	0.053565
	O492	O	-0.234795	0.214402	-0.028593
	H493	H	-0.233655	0.221829	-0.030271
	H494	H	-0.238584	0.226622	-0.025040
	O495	O	-0.013659	1.130151	1.011012
	H496	H	0.000378	1.143495	1.016616
	H497	H	-0.005769	1.128118	0.993038
	O498	O	0.850283	1.044031	1.132691
	H499	H	0.864462	1.038353	1.137362
	H500	H	0.850708	1.031064	1.127480
	O501	O	0.319185	0.583875	0.394170
	H502	H	0.317322	0.586835	0.372671
	H503	H	0.314770	0.585294	0.403499
