data_Molecule from HDF5

_cell_length_a		16.231761
_cell_length_b		16.411152
_cell_length_c		16.071843
_cell_angle_alpha	90.352440
_cell_angle_beta	90.187455
_cell_angle_gamma	89.964845
_symmetry_space_group_name_H-M	'P 1'
_symmetry_Int_Tables_number		1

loop_
	_symmetry_equiv_pos_as_xyz
	x,y,z

loop_
	_atom_site_label
	_atom_site_type_symbol
	_atom_site_fract_x
	_atom_site_fract_y
	_atom_site_fract_z
	H0	H	0.401964	0.842958	0.709142
	H1	H	0.595101	0.169898	0.714548
	H2	H	0.594289	0.843078	0.283360
	H3	H	0.398886	0.169735	0.284440
	H4	H	0.709125	0.407063	0.831899
	H5	H	0.711289	0.606369	0.162005
	H6	H	0.284876	0.602653	0.831124
	H7	H	0.285550	0.410586	0.163679
	H8	H	0.833870	0.722522	0.396868
	H9	H	0.161228	0.723236	0.600120
	H10	H	0.835820	0.289154	0.600459
	H11	H	0.160396	0.289018	0.393775
	H12	H	0.832555	0.411561	0.708779
	H13	H	0.162787	0.603202	0.710019
	H14	H	0.832450	0.603068	0.284248
	H15	H	0.163176	0.411669	0.286171
	H16	H	0.396354	0.720724	0.832895
	H17	H	0.599555	0.722377	0.161631
	H18	H	0.598169	0.288366	0.834467
	H19	H	0.395442	0.291524	0.162634
	H20	H	0.713077	0.844486	0.398365
	H21	H	0.713156	0.169890	0.599935
	H22	H	0.281511	0.844482	0.596336
	H23	H	0.279982	0.169334	0.398804
	H24	H	0.900515	0.343271	0.209230
	H25	H	0.096209	0.669924	0.213190
	H26	H	0.094868	0.343870	0.780870
	H27	H	0.900402	0.670920	0.785278
	H28	H	0.208336	0.909597	0.331384
	H29	H	0.210738	0.106140	0.663562
	H30	H	0.783460	0.104179	0.332256
	H31	H	0.787257	0.913244	0.665426
	H32	H	0.334183	0.222333	0.896841
	H33	H	0.660385	0.223281	0.101625
	H34	H	0.334084	0.790390	0.099016
	H35	H	0.660687	0.789011	0.896132
	H36	H	0.331643	0.910660	0.208065
	H37	H	0.661670	0.102647	0.211264
	H38	H	0.332668	0.101384	0.786826
	H39	H	0.663027	0.910791	0.786446
	H40	H	0.896394	0.221316	0.332388
	H41	H	0.100222	0.225537	0.661541
	H42	H	0.096544	0.791950	0.333087
	H43	H	0.898345	0.793549	0.663928
	H44	H	0.214569	0.344388	0.895411
	H45	H	0.213322	0.669823	0.096922
	H46	H	0.780492	0.344796	0.095717
	H47	H	0.779965	0.668929	0.897476
	H48	H	0.405941	0.121697	0.591131
	H49	H	0.590364	0.891552	0.589758
	H50	H	0.593433	0.121895	0.408365
	H51	H	0.403206	0.888219	0.391546
	H52	H	0.588831	0.417103	0.114859
	H53	H	0.583702	0.606228	0.878434
	H54	H	0.404952	0.599174	0.115979
	H55	H	0.410747	0.409862	0.880040
	H56	H	0.116575	0.602847	0.401386
	H57	H	0.880362	0.603418	0.588405
	H58	H	0.115514	0.415062	0.592451
	H59	H	0.881360	0.410589	0.406920
	H60	H	0.114265	0.410440	0.585015
	H61	H	0.880648	0.600709	0.589830
	H62	H	0.114028	0.605088	0.411432
	H63	H	0.880936	0.416634	0.403982
	H64	H	0.407097	0.601006	0.115737
	H65	H	0.595632	0.598974	0.875873
	H66	H	0.586981	0.413451	0.116054
	H67	H	0.401742	0.410073	0.877808
	H68	H	0.591018	0.123111	0.403347
	H69	H	0.594108	0.891731	0.589041
	H70	H	0.400350	0.122833	0.589857
	H71	H	0.411416	0.895304	0.409646
	H72	H	0.899180	0.623530	0.088879
	H73	H	0.090391	0.390818	0.095114
	H74	H	0.083525	0.623145	0.893148
	H75	H	0.901628	0.388651	0.895074
	H76	H	0.095003	0.916121	0.617272
	H77	H	0.075745	0.097790	0.383192
	H78	H	0.908586	0.092485	0.611929
	H79	H	0.906450	0.904557	0.378466
	H80	H	0.617943	0.101693	0.898924
	H81	H	0.376731	0.102813	0.099050
	H82	H	0.613662	0.912120	0.089460
	H83	H	0.381774	0.909042	0.909666
	H84	H	0.613793	0.913863	0.087994
	H85	H	0.379719	0.108415	0.083853
	H86	H	0.615101	0.107003	0.914649
	H87	H	0.380759	0.916585	0.903193
	H88	H	0.913937	0.107152	0.615861
	H89	H	0.093052	0.110143	0.375160
	H90	H	0.085669	0.916981	0.614373
	H91	H	0.896149	0.915882	0.378595
	H92	H	0.086143	0.616139	0.917340
	H93	H	0.089644	0.393567	0.085928
	H94	H	0.905414	0.623161	0.095025
	H95	H	0.908494	0.393291	0.904871
	H96	H	0.402267	0.123736	0.595424
	H97	H	0.593563	0.890714	0.592514
	H98	H	0.587907	0.120588	0.406592
	H99	H	0.391008	0.889476	0.408426
	H100	H	0.591387	0.413482	0.117226
	H101	H	0.584321	0.592521	0.882104
	H102	H	0.405038	0.602311	0.116738
	H103	H	0.405857	0.417343	0.880182
	H104	H	0.112592	0.594765	0.407325
	H105	H	0.879448	0.602848	0.592374
	H106	H	0.112926	0.419024	0.585132
	H107	H	0.879354	0.411477	0.401087
	H108	H	0.907346	0.620357	0.086142
	H109	H	0.098151	0.389121	0.088590
	H110	H	0.105594	0.626393	0.904776
	H111	H	0.895760	0.390996	0.906993
	H112	H	0.089259	0.909091	0.618328
	H113	H	0.096476	0.088013	0.380028
	H114	H	0.898254	0.103330	0.618804
	H115	H	0.911000	0.918987	0.383571
	H116	H	0.610991	0.090948	0.911574
	H117	H	0.382948	0.092633	0.087213
	H118	H	0.613024	0.913696	0.090230
	H119	H	0.377984	0.907451	0.900445
	C120	C	0.375045	0.014918	0.619709
	C121	C	0.620353	0.998892	0.620659
	C122	C	0.619355	0.014819	0.376407
	C123	C	0.373876	0.998422	0.375215
	C124	C	0.617925	0.385012	0.006813
	C125	C	0.617775	0.628034	0.988195
	C126	C	0.376284	0.628154	0.006501
	C127	C	0.376681	0.384762	0.988756
	C128	C	0.006191	0.628668	0.376718
	C129	C	0.988670	0.630229	0.619758
	C130	C	0.005922	0.386473	0.617293
	C131	C	0.989166	0.384576	0.375128
	C132	C	0.875485	0.515036	0.118708
	C133	C	0.120609	0.498756	0.119076
	C134	C	0.119885	0.514780	0.875272
	C135	C	0.874212	0.498601	0.874281
	C136	C	0.117993	0.885741	0.506884
	C137	C	0.117994	0.128248	0.488815
	C138	C	0.876679	0.129008	0.506226
	C139	C	0.876358	0.885614	0.489771
	C140	C	0.506203	0.127716	0.878441
	C141	C	0.488345	0.128984	0.119847
	C142	C	0.505301	0.884870	0.118341
	C143	C	0.488675	0.883122	0.875697
	C144	C	0.379627	0.891968	0.672985
	C145	C	0.616665	0.121277	0.676508
	C146	C	0.615687	0.892167	0.320733
	C147	C	0.377272	0.120945	0.321108
	C148	C	0.672564	0.386659	0.881895
	C149	C	0.673810	0.626288	0.112545
	C150	C	0.321601	0.623904	0.881090
	C151	C	0.321839	0.388943	0.113704
	C152	C	0.882789	0.684331	0.377293
	C153	C	0.112276	0.684894	0.618983
	C154	C	0.883677	0.329404	0.617964
	C155	C	0.111854	0.328147	0.375448
	C156	C	0.882243	0.389694	0.672336
	C157	C	0.113027	0.625568	0.674016
	C158	C	0.881917	0.624691	0.321616
	C159	C	0.113347	0.388896	0.321586
	C160	C	0.377065	0.682725	0.882044
	C161	C	0.618306	0.684368	0.112171
	C162	C	0.617057	0.327841	0.883048
	C163	C	0.376821	0.329893	0.113455
	C164	C	0.674893	0.892770	0.377911
	C165	C	0.675690	0.121079	0.619817
	C166	C	0.319895	0.892668	0.616681
	C167	C	0.318136	0.120765	0.378089
	C168	C	0.879727	0.392276	0.172242
	C169	C	0.117237	0.621414	0.174932
	C170	C	0.116391	0.392476	0.819006
	C171	C	0.878469	0.621564	0.821264
	C172	C	0.171587	0.888581	0.381274
	C173	C	0.173645	0.126699	0.613759
	C174	C	0.821101	0.125116	0.381774
	C175	C	0.823206	0.890799	0.615328
	C176	C	0.382899	0.183530	0.878190
	C177	C	0.611492	0.184709	0.120306
	C178	C	0.382601	0.828998	0.117496
	C179	C	0.612020	0.827769	0.877111
	C180	C	0.381313	0.888885	0.172091
	C181	C	0.612326	0.124591	0.174857
	C182	C	0.381880	0.123244	0.823786
	C183	C	0.613211	0.888033	0.822264
	C184	C	0.877125	0.183349	0.381766
	C185	C	0.118780	0.186145	0.612549
	C186	C	0.116288	0.829965	0.382165
	C187	C	0.878628	0.831397	0.614519
	C188	C	0.175664	0.392750	0.875899
	C189	C	0.175614	0.621130	0.117338
	C190	C	0.819710	0.392950	0.116052
	C191	C	0.818327	0.620527	0.877084
	C192	C	0.396572	0.100553	0.598437
	C193	C	0.598817	0.913388	0.597340
	C194	C	0.597345	0.099682	0.399253
	C195	C	0.395336	0.913100	0.396906
	C196	C	0.595620	0.407966	0.093829
	C197	C	0.594615	0.605687	0.901118
	C198	C	0.398937	0.606964	0.093478
	C199	C	0.399591	0.406179	0.902002
	C200	C	0.092114	0.607268	0.399884
	C201	C	0.902467	0.608782	0.596804
	C202	C	0.092039	0.408517	0.594380
	C203	C	0.902692	0.406383	0.397460
	C204	C	0.897326	0.600296	0.096525
	C205	C	0.099059	0.413293	0.096668
	C206	C	0.098078	0.599811	0.898366
	C207	C	0.895703	0.413121	0.895971
	C208	C	0.096393	0.907663	0.594034
	C209	C	0.094915	0.105380	0.401878
	C210	C	0.900028	0.107498	0.593157
	C211	C	0.898123	0.906847	0.402662
	C212	C	0.592320	0.106176	0.901562
	C213	C	0.402177	0.107632	0.096866
	C214	C	0.591217	0.906812	0.095703
	C215	C	0.402399	0.904674	0.897917
	Zn216	Zn	0.497843	0.006691	0.749356
	Zn217	Zn	0.496505	0.006719	0.246744
	Zn218	Zn	0.744737	0.506880	-0.003005
	Zn219	Zn	0.250310	0.506113	-0.002877
	Zn220	Zn	-0.002187	0.757895	0.498735
	Zn221	Zn	-0.002354	0.256895	0.496897
	Zn222	Zn	-0.002685	0.507410	0.746145
	Zn223	Zn	-0.002102	0.506566	0.247796
	Zn224	Zn	0.497355	0.755572	-0.002415
	Zn225	Zn	0.496821	0.257266	-0.001324
	Zn226	Zn	0.749149	0.007776	0.498680
	Zn227	Zn	0.244971	0.006503	0.497715
	N228	N	0.413241	0.968956	0.674964
	N229	N	0.583123	0.044272	0.677409
	N230	N	0.581470	0.968986	0.319702
	N231	N	0.411429	0.044140	0.319500
	N232	N	0.672960	0.421944	0.959908
	N233	N	0.673678	0.592047	0.034307
	N234	N	0.320962	0.590773	0.959542
	N235	N	0.321402	0.422121	0.035191
	N236	N	0.960993	0.686985	0.410995
	N237	N	0.033948	0.687964	0.586111
	N238	N	0.961604	0.327292	0.584544
	N239	N	0.033416	0.325212	0.407757
	N240	N	0.959275	0.424504	0.671985
	N241	N	0.035286	0.592124	0.674587
	N242	N	0.959469	0.590828	0.320938
	N243	N	0.035886	0.423251	0.321214
	N244	N	0.410228	0.685575	0.960872
	N245	N	0.583800	0.685279	0.033724
	N246	N	0.583734	0.326878	0.961595
	N247	N	0.410174	0.327156	0.034783
	N248	N	0.677407	0.969900	0.411625
	N249	N	0.677796	0.043985	0.585608
	N250	N	0.316897	0.970106	0.584353
	N251	N	0.315964	0.043623	0.411196
	N252	N	0.913669	0.469191	0.173889
	N253	N	0.083733	0.544349	0.176128
	N254	N	0.082567	0.469317	0.818348
	N255	N	0.912269	0.544715	0.819102
	N256	N	0.173035	0.922456	0.459677
	N257	N	0.173309	0.091355	0.535845
	N258	N	0.820652	0.092092	0.460371
	N259	N	0.821573	0.923805	0.536803
	N260	N	0.460947	0.186165	0.911581
	N261	N	0.533457	0.187502	0.086784
	N262	N	0.460895	0.826180	0.084954
	N263	N	0.533598	0.824651	0.909384
	N264	N	0.458591	0.923202	0.172599
	N265	N	0.534768	0.090688	0.174786
	N266	N	0.459493	0.089120	0.823630
	N267	N	0.535575	0.921897	0.821375
	N268	N	0.911118	0.185735	0.460201
	N269	N	0.085098	0.187293	0.533775
	N270	N	0.083512	0.828235	0.461222
	N271	N	0.910908	0.828128	0.535444
	N272	N	0.178058	0.469714	0.910021
	N273	N	0.177828	0.543965	0.083333
	N274	N	0.816820	0.470254	0.083472
	N275	N	0.815409	0.542982	0.909305
	O276	O	0.000544	0.022780	-0.034215
	H277	H	-0.000205	0.026601	-0.031899
	H278	H	-0.003811	0.028205	-0.030923
	O279	O	0.476104	0.525466	0.536923
	H280	H	0.469356	0.528876	0.543084
	H281	H	0.475901	0.524643	0.530113
	O282	O	0.529016	0.532717	0.526706
	H283	H	0.530797	0.528148	0.525763
	H284	H	0.531000	0.526827	0.519495
	O285	O	-0.032096	0.252587	0.817279
	H286	H	-0.029757	0.250306	0.820747
	H287	H	-0.026112	0.255683	0.804590
	O288	O	0.571497	0.563419	0.488048
	H289	H	0.570993	0.563064	0.485065
	H290	H	0.571179	0.561668	0.473114
	O291	O	1.032883	1.091391	1.043911
	H292	H	1.035893	1.093355	1.048430
	H293	H	1.040777	1.092249	1.051335
	O294	O	0.950579	0.973228	1.024391
	H295	H	0.945605	0.977358	1.025838
	H296	H	0.960350	0.973700	1.023049
	O297	O	0.887699	0.021544	0.982601
	H298	H	0.889289	0.022195	0.976315
	H299	H	0.899274	0.024477	0.983747
	O300	O	0.427053	0.504590	0.423211
	H301	H	0.428162	0.492944	0.420835
	H302	H	0.419545	0.511390	0.416533
	O303	O	1.086771	-0.105449	-0.080644
	H304	H	1.088708	-0.116887	-0.067960
	H305	H	1.083303	-0.110898	-0.079103
	O306	O	0.001888	0.992710	0.978284
	H307	H	-0.005147	0.996609	0.977339
	H308	H	0.003286	0.978765	0.980064
	O309	O	0.466386	0.506003	0.495291
	H310	H	0.461113	0.494240	0.499248
	H311	H	0.466747	0.500836	0.495107
	O312	O	0.966646	0.058357	1.010471
	H313	H	0.963515	0.056023	1.006414
	H314	H	0.963950	0.061223	1.003383
	O315	O	0.582470	0.433031	0.462227
	H316	H	0.584716	0.442416	0.475614
	H317	H	0.588515	0.427209	0.463576
	O318	O	0.548904	0.452524	0.511121
	H319	H	0.554397	0.448133	0.513652
	H320	H	0.552940	0.461738	0.519084
	O321	O	0.961343	0.954753	1.061254
	H322	H	0.957833	0.955940	1.062932
	H323	H	0.961242	0.968260	1.066992
	O324	O	0.463953	0.487816	0.511321
	H325	H	0.464554	0.476546	0.511903
	H326	H	0.476681	0.480178	0.500441
	O327	O	0.610659	0.557861	0.484631
	H328	H	0.615164	0.563139	0.477554
	H329	H	0.610792	0.562914	0.491559
	O330	O	1.040697	0.002958	0.972860
	H331	H	1.036539	-0.003146	0.963918
	H332	H	1.037918	0.000284	0.967491
	O333	O	0.973229	0.917884	-0.005695
	H334	H	0.967356	0.917681	-0.002853
	H335	H	0.971211	0.908595	-0.000439
	O336	O	0.477321	0.377808	0.502380
	H337	H	0.489117	0.373695	0.507984
	H338	H	0.474970	0.380262	0.504923
	O339	O	0.468899	0.511799	0.510986
	H340	H	0.468450	0.510115	0.512745
	H341	H	0.472631	0.515071	0.505831
	O342	O	0.071998	1.064231	0.029930
	H343	H	0.081353	1.069123	0.025123
	H344	H	0.064197	1.057195	0.034924
	O345	O	0.017390	-0.024071	-0.063878
	H346	H	0.020812	-0.030556	-0.069021
	H347	H	0.017169	-0.014630	-0.065651
	O348	O	0.558309	0.489662	0.447254
	H349	H	0.557846	0.483109	0.440138
	H350	H	0.550648	0.486564	0.451927
	O351	O	0.496917	0.468178	0.460209
	H352	H	0.504398	0.462759	0.461200
	H353	H	0.514806	0.476841	0.454075
	O354	O	0.465258	0.598772	0.503774
	H355	H	0.459947	0.602353	0.504360
	H356	H	0.457106	0.595305	0.507676
	O357	O	0.393744	0.543733	0.533988
	H358	H	0.391064	0.551077	0.534233
	H359	H	0.380873	0.542735	0.543722
	O360	O	-0.062056	-0.005331	0.002171
	H361	H	-0.065143	-0.008106	0.003187
	H362	H	-0.059939	0.000470	0.001331
	O363	O	0.488056	0.508007	0.541700
	H364	H	0.493668	0.519582	0.541885
	H365	H	0.496676	0.508366	0.535814
	O366	O	-0.070625	0.049258	1.048942
	H367	H	-0.059497	0.054734	1.040339
	H368	H	-0.074230	0.046434	1.046413
	O369	O	0.524547	0.471093	0.505061
	H370	H	0.514522	0.476737	0.509491
	H371	H	0.521044	0.471290	0.499494
