data_Molecule from HDF5

_cell_length_a		16.318480
_cell_length_b		16.240026
_cell_length_c		16.340113
_cell_angle_alpha	89.967986
_cell_angle_beta	90.120421
_cell_angle_gamma	89.797909
_symmetry_space_group_name_H-M	'P 1'
_symmetry_Int_Tables_number		1

loop_
	_symmetry_equiv_pos_as_xyz
	x,y,z

loop_
	_atom_site_label
	_atom_site_type_symbol
	_atom_site_fract_x
	_atom_site_fract_y
	_atom_site_fract_z
	H0	H	0.385761	0.840089	0.715150
	H1	H	0.587238	0.164976	0.716688
	H2	H	0.588364	0.840765	0.281531
	H3	H	0.382434	0.164343	0.281758
	H4	H	0.703137	0.398116	0.839028
	H5	H	0.701930	0.604650	0.161475
	H6	H	0.262897	0.607179	0.839671
	H7	H	0.266886	0.401977	0.162345
	H8	H	0.822683	0.721662	0.397228
	H9	H	0.147372	0.717302	0.600222
	H10	H	0.823839	0.283948	0.601150
	H11	H	0.147355	0.284356	0.397304
	H12	H	0.822502	0.398962	0.717901
	H13	H	0.144153	0.605542	0.719979
	H14	H	0.821654	0.605071	0.282313
	H15	H	0.146069	0.399886	0.281969
	H16	H	0.379828	0.721808	0.838261
	H17	H	0.582896	0.719039	0.162179
	H18	H	0.583179	0.286410	0.837416
	H19	H	0.380961	0.284979	0.161108
	H20	H	0.702228	0.840137	0.398742
	H21	H	0.702526	0.164886	0.601814
	H22	H	0.270331	0.839863	0.600343
	H23	H	0.266540	0.163870	0.395599
	H24	H	0.884715	0.337942	0.215020
	H25	H	0.081054	0.665710	0.215166
	H26	H	0.084075	0.340283	0.784121
	H27	H	0.879683	0.664651	0.781964
	H28	H	0.201884	0.901272	0.336205
	H29	H	0.202860	0.102498	0.660883
	H30	H	0.766145	0.105298	0.337954
	H31	H	0.770312	0.903015	0.662185
	H32	H	0.321162	0.219237	0.899662
	H33	H	0.645849	0.219423	0.098621
	H34	H	0.320522	0.790091	0.098253
	H35	H	0.646137	0.785511	0.900067
	H36	H	0.322588	0.902963	0.217340
	H37	H	0.646461	0.105216	0.216855
	H38	H	0.323081	0.106456	0.780686
	H39	H	0.647175	0.902368	0.785155
	H40	H	0.885725	0.218667	0.337181
	H41	H	0.084832	0.216811	0.662338
	H42	H	0.084104	0.786532	0.335920
	H43	H	0.887003	0.787476	0.662338
	H44	H	0.200498	0.340751	0.899727
	H45	H	0.197305	0.666929	0.099880
	H46	H	0.768384	0.338621	0.100703
	H47	H	0.766842	0.665153	0.900117
	H48	H	0.395302	0.118054	0.590620
	H49	H	0.582277	0.883889	0.597230
	H50	H	0.574137	0.116915	0.413441
	H51	H	0.402782	0.890925	0.416619
	H52	H	0.576020	0.403741	0.117626
	H53	H	0.575766	0.600919	0.882487
	H54	H	0.390043	0.594174	0.115327
	H55	H	0.394767	0.409643	0.884936
	H56	H	0.099469	0.597063	0.410516
	H57	H	0.864472	0.599492	0.599096
	H58	H	0.101084	0.410752	0.596807
	H59	H	0.871194	0.411994	0.411576
	H60	H	0.099280	0.407318	0.587709
	H61	H	0.870044	0.600956	0.581587
	H62	H	0.097729	0.588260	0.408635
	H63	H	0.869964	0.413694	0.405402
	H64	H	0.392507	0.597572	0.115996
	H65	H	0.580485	0.588879	0.884470
	H66	H	0.581500	0.417470	0.114706
	H67	H	0.386253	0.411109	0.883057
	H68	H	0.580153	0.120599	0.408934
	H69	H	0.570973	0.887683	0.595034
	H70	H	0.394723	0.117899	0.588016
	H71	H	0.384838	0.884523	0.410560
	H72	H	0.885254	0.622152	0.097805
	H73	H	0.078658	0.386107	0.090417
	H74	H	0.082202	0.620014	0.914024
	H75	H	0.888694	0.386784	0.913461
	H76	H	0.073494	0.904001	0.614140
	H77	H	0.074383	0.091626	0.385001
	H78	H	0.897968	0.089348	0.611656
	H79	H	0.893093	0.909770	0.384053
	H80	H	0.598366	0.087011	0.903014
	H81	H	0.367484	0.097282	0.093325
	H82	H	0.600897	0.909123	0.091780
	H83	H	0.367683	0.910507	0.905251
	H84	H	0.598775	0.911350	0.090394
	H85	H	0.369161	0.094441	0.087740
	H86	H	0.603271	0.102257	0.903559
	H87	H	0.369122	0.912713	0.908473
	H88	H	0.895141	0.098484	0.616195
	H89	H	0.075670	0.095486	0.383818
	H90	H	0.086656	0.907802	0.617108
	H91	H	0.891299	0.913611	0.383425
	H92	H	0.070661	0.621406	0.899577
	H93	H	0.075931	0.385827	0.094414
	H94	H	0.901116	0.615812	0.094844
	H95	H	0.891306	0.383829	0.902780
	H96	H	0.392694	0.118817	0.589625
	H97	H	0.579543	0.887359	0.585843
	H98	H	0.572288	0.118597	0.405105
	H99	H	0.399846	0.884477	0.398057
	H100	H	0.567137	0.414703	0.110034
	H101	H	0.567584	0.592196	0.888532
	H102	H	0.388583	0.597815	0.116864
	H103	H	0.391497	0.417562	0.886957
	H104	H	0.101222	0.593831	0.402574
	H105	H	0.871700	0.584164	0.589984
	H106	H	0.097751	0.416356	0.590555
	H107	H	0.868189	0.407684	0.407611
	H108	H	0.889728	0.615755	0.082241
	H109	H	0.073806	0.387024	0.090150
	H110	H	0.065132	0.614472	0.915214
	H111	H	0.899233	0.388578	0.909729
	H112	H	0.077222	0.917334	0.612011
	H113	H	0.077715	0.091994	0.383959
	H114	H	0.887750	0.090886	0.614992
	H115	H	0.895903	0.912353	0.385126
	H116	H	0.597427	0.095341	0.916206
	H117	H	0.369543	0.091309	0.093323
	H118	H	0.599625	0.911800	0.092585
	H119	H	0.368541	0.914820	0.905238
	C120	C	0.364603	0.011036	0.619979
	C121	C	0.607610	0.993914	0.622291
	C122	C	0.606339	0.011242	0.378524
	C123	C	0.364479	0.993658	0.377967
	C124	C	0.605024	0.381149	0.007688
	C125	C	0.604446	0.624059	0.991788
	C126	C	0.360246	0.626350	0.008933
	C127	C	0.361160	0.382436	0.991956
	C128	C	-0.007821	0.623812	0.377488
	C129	C	0.975591	0.624521	0.621118
	C130	C	-0.007100	0.380890	0.621504
	C131	C	0.976696	0.380255	0.377551
	C132	C	0.862365	0.510130	0.121665
	C133	C	0.104947	0.494377	0.121403
	C134	C	0.103959	0.511543	0.879129
	C135	C	0.862103	0.493642	0.878488
	C136	C	0.107978	0.880004	0.507068
	C137	C	0.106466	0.122999	0.491034
	C138	C	0.863024	0.124239	0.507837
	C139	C	0.863930	0.881833	0.491340
	C140	C	0.492736	0.125307	0.877583
	C141	C	0.475662	0.124736	0.121039
	C142	C	0.492280	0.881827	0.121207
	C143	C	0.475675	0.881780	0.877794
	C144	C	0.365742	0.888947	0.677080
	C145	C	0.607115	0.116312	0.678598
	C146	C	0.607120	0.889304	0.320549
	C147	C	0.363390	0.115865	0.320477
	C148	C	0.663362	0.380007	0.886798
	C149	C	0.662440	0.623815	0.113260
	C150	C	0.302190	0.626352	0.887594
	C151	C	0.304677	0.382496	0.113621
	C152	C	0.870816	0.682310	0.378103
	C153	C	0.098257	0.679698	0.620204
	C154	C	0.871573	0.323152	0.620602
	C155	C	0.098544	0.323168	0.378039
	C156	C	0.871054	0.380462	0.678655
	C157	C	0.096601	0.624240	0.679971
	C158	C	0.870637	0.624648	0.320303
	C159	C	0.097954	0.380703	0.320596
	C160	C	0.360414	0.683378	0.887030
	C161	C	0.603392	0.680975	0.113623
	C162	C	0.603738	0.324337	0.886070
	C163	C	0.361869	0.324378	0.113052
	C164	C	0.663669	0.888808	0.378923
	C165	C	0.664277	0.116089	0.621030
	C166	C	0.308447	0.888502	0.619551
	C167	C	0.305557	0.115490	0.377091
	C168	C	0.864249	0.386990	0.177544
	C169	C	0.102081	0.617233	0.177344
	C170	C	0.104050	0.389093	0.822490
	C171	C	0.860826	0.615910	0.820724
	C172	C	0.163939	0.881297	0.384981
	C173	C	0.163893	0.122391	0.612670
	C174	C	0.805514	0.124242	0.386279
	C175	C	0.808328	0.882767	0.613518
	C176	C	0.370178	0.181407	0.879398
	C177	C	0.597650	0.181079	0.119126
	C178	C	0.369428	0.827116	0.119113
	C179	C	0.597750	0.824399	0.880250
	C180	C	0.370507	0.883480	0.177903
	C181	C	0.597744	0.124475	0.177957
	C182	C	0.371217	0.125275	0.820146
	C183	C	0.598264	0.882414	0.822897
	C184	C	0.864906	0.180843	0.385867
	C185	C	0.105091	0.179009	0.613509
	C186	C	0.105219	0.824313	0.384682
	C187	C	0.866369	0.825591	0.613634
	C188	C	0.161578	0.389297	0.880149
	C189	C	0.159550	0.617811	0.119957
	C190	C	0.806579	0.387296	0.120460
	C191	C	0.804771	0.616381	0.879316
	C192	C	0.387592	0.096189	0.596323
	C193	C	0.584496	0.908407	0.599470
	C194	C	0.582378	0.096313	0.402244
	C195	C	0.388918	0.908747	0.401572
	C196	C	0.581716	0.404971	0.092168
	C197	C	0.581290	0.600719	0.907228
	C198	C	0.383667	0.603183	0.093944
	C199	C	0.384178	0.405981	0.907013
	C200	C	0.077463	0.599927	0.400558
	C201	C	0.890759	0.601488	0.597301
	C202	C	0.077271	0.404727	0.598280
	C203	C	0.891783	0.404057	0.401126
	C204	C	0.885100	0.595563	0.098379
	C205	C	0.082593	0.408652	0.098513
	C206	C	0.079655	0.596622	0.902596
	C207	C	0.885955	0.408622	0.901845
	C208	C	0.085651	0.902938	0.592340
	C209	C	0.082809	0.099790	0.406271
	C210	C	0.886892	0.100004	0.592464
	C211	C	0.886733	0.905005	0.406346
	C212	C	0.577819	0.101857	0.900806
	C213	C	0.390797	0.101308	0.098182
	C214	C	0.577542	0.904281	0.098360
	C215	C	0.390554	0.905654	0.899719
	Zn216	Zn	0.485223	0.003419	0.749090
	Zn217	Zn	0.485375	0.003092	0.249990
	Zn218	Zn	0.734544	0.501903	0.000109
	Zn219	Zn	0.232739	0.503966	0.000538
	Zn220	Zn	-0.014981	0.752451	0.499087
	Zn221	Zn	-0.014127	0.252613	0.499769
	Zn222	Zn	-0.016574	0.502742	0.750023
	Zn223	Zn	-0.016012	0.501652	0.249257
	Zn224	Zn	0.482710	0.753585	-0.000145
	Zn225	Zn	0.483019	0.253681	-0.000625
	Zn226	Zn	0.734237	0.002537	0.499751
	Zn227	Zn	0.236192	0.002163	0.498737
	N228	N	0.400176	0.966142	0.677328
	N229	N	0.572490	0.039360	0.679460
	N230	N	0.572208	0.966523	0.320065
	N231	N	0.399302	0.039272	0.320845
	N232	N	0.664329	0.414821	0.963469
	N233	N	0.663239	0.588854	0.036600
	N234	N	0.301960	0.591739	0.964411
	N235	N	0.304296	0.417937	0.037220
	N236	N	0.947548	0.681780	0.413063
	N237	N	0.021929	0.680279	0.584517
	N238	N	0.948054	0.323211	0.585798
	N239	N	0.022006	0.322895	0.413026
	N240	N	0.947477	0.415792	0.679499
	N241	N	0.019239	0.590744	0.680718
	N242	N	0.947141	0.588774	0.319929
	N243	N	0.020991	0.415414	0.320166
	N244	N	0.395795	0.683584	0.963505
	N245	N	0.568130	0.681179	0.037130
	N246	N	0.568325	0.325067	0.962125
	N247	N	0.396409	0.324240	0.036409
	N248	N	0.663134	0.965668	0.414163
	N249	N	0.664566	0.038832	0.586583
	N250	N	0.307679	0.965483	0.584703
	N251	N	0.306162	0.038532	0.412236
	N252	N	0.898197	0.464440	0.178411
	N253	N	0.068713	0.539472	0.178125
	N254	N	0.068966	0.466190	0.821886
	N255	N	0.895755	0.538823	0.820158
	N256	N	0.165918	0.914952	0.462202
	N257	N	0.164842	0.088411	0.535695
	N258	N	0.804216	0.090000	0.463219
	N259	N	0.806630	0.916851	0.536429
	N260	N	0.446736	0.181276	0.914612
	N261	N	0.520709	0.181473	0.084567
	N262	N	0.446086	0.826165	0.084611
	N263	N	0.520412	0.823673	0.913438
	N264	N	0.447944	0.916880	0.179295
	N265	N	0.520964	0.090082	0.179220
	N266	N	0.448419	0.091121	0.818949
	N267	N	0.521417	0.917380	0.821256
	N268	N	0.899769	0.181007	0.462602
	N269	N	0.070326	0.179722	0.536724
	N270	N	0.071304	0.823260	0.461676
	N271	N	0.900282	0.824992	0.536541
	N272	N	0.161561	0.466500	0.914561
	N273	N	0.161373	0.540398	0.086082
	N274	N	0.805165	0.464825	0.086676
	N275	N	0.805010	0.539284	0.914239
	O276	O	1.024949	0.011733	1.070626
	H277	H	1.022334	0.014852	1.069518
	H278	H	1.020730	0.013788	1.073271
	O279	O	0.292815	0.534779	0.619947
	H280	H	0.295105	0.518571	0.616304
	H281	H	0.278938	0.528476	0.612785
	O282	O	0.565191	0.440801	0.353073
	H283	H	0.577233	0.450636	0.361952
	H284	H	0.581432	0.438791	0.353827
	O285	O	0.556790	0.503096	0.549614
	H286	H	0.567970	0.508545	0.549817
	H287	H	0.552191	0.511328	0.557022
	O288	O	0.537611	0.620731	0.647952
	H289	H	0.535711	0.614201	0.643921
	H290	H	0.525995	0.611477	0.652220
	O291	O	-0.071026	0.013704	1.075305
	H292	H	-0.066722	0.006624	1.071669
	H293	H	-0.068075	0.012721	1.088316
	O294	O	0.982621	1.022025	-0.058400
	H295	H	0.967648	1.017636	-0.064650
	H296	H	0.987998	1.026794	-0.060242
	O297	O	1.045334	1.023612	-0.020285
	H298	H	1.051064	1.034330	-0.021900
	H299	H	1.030578	1.022783	-0.013918
	O300	O	0.471354	0.641140	0.400389
	H301	H	0.486782	0.635901	0.400482
	H302	H	0.461571	0.648716	0.401820
	O303	O	0.339599	0.381502	0.657150
	H304	H	0.333101	0.379916	0.640206
	H305	H	0.347834	0.375104	0.657375
	O306	O	0.639177	0.489989	0.498924
	H307	H	0.635979	0.495184	0.495024
	H308	H	0.626912	0.493241	0.495788
	O309	O	0.634252	0.509378	0.524690
	H310	H	0.649399	0.522825	0.525947
	H311	H	0.633168	0.522728	0.541740
	O312	O	1.432548	1.432741	0.522644
	H313	H	1.423164	1.423670	0.524001
	H314	H	1.436289	1.442371	0.523317
	O315	O	1.025801	0.980583	-0.100365
	H316	H	1.019885	0.987465	-0.095549
	H317	H	1.025248	0.978758	-0.099707
	O318	O	0.551063	0.638360	0.491966
	H319	H	0.541557	0.649377	0.489040
	H320	H	0.538879	0.637522	0.504641
	O321	O	0.534983	0.381148	0.380852
	H322	H	0.540839	0.358020	0.376847
	H323	H	0.550086	0.385780	0.369125
	O324	O	-0.024386	0.949931	1.060402
	H325	H	-0.041208	0.956198	1.057446
	H326	H	-0.028396	0.947225	1.062050
	O327	O	-0.004293	0.964575	0.978286
	H328	H	-0.008437	0.977466	0.978698
	H329	H	0.000751	0.955920	0.976391
	O330	O	-0.086042	-0.034857	-0.062655
	H331	H	-0.084436	-0.039794	-0.049659
	H332	H	-0.075419	-0.027736	-0.065837
	O333	O	0.401292	0.427463	0.486941
	H334	H	0.400887	0.429547	0.482009
	H335	H	0.419052	0.425524	0.471423
	O336	O	0.022356	0.006369	0.020708
	H337	H	0.018246	0.009926	0.015975
	H338	H	0.023516	0.009151	0.018035
	O339	O	0.652193	0.330358	-0.495840
	H340	H	0.677790	0.308920	-0.486990
	H341	H	0.648082	0.344662	-0.487773
	O342	O	0.386865	0.513508	0.530647
	H343	H	0.379599	0.523439	0.531515
	H344	H	0.385626	0.502568	0.532196
	O345	O	-0.010860	0.925643	0.950401
	H346	H	-0.007873	0.932796	0.949894
	H347	H	-0.002290	0.916130	0.941184
	O348	O	0.640508	0.481955	0.545690
	H349	H	0.622038	0.500841	0.543521
	H350	H	0.654562	0.489702	0.565600
	O351	O	0.460311	0.479790	0.617175
	H352	H	0.467952	0.476902	0.618484
	H353	H	0.453973	0.483794	0.621408
	O354	O	0.037481	0.927958	-0.028355
	H355	H	0.036742	0.925826	-0.026176
	H356	H	0.045616	0.921899	-0.035531
	O357	O	0.570327	0.418887	0.513773
	H358	H	0.577052	0.406358	0.506765
	H359	H	0.582451	0.425157	0.512761
	O360	O	0.987451	0.034343	1.006340
	H361	H	0.987816	0.035259	1.006924
	H362	H	0.986912	0.027926	1.006541
	O363	O	0.358919	0.504108	0.378634
	H364	H	0.367981	0.492818	0.375213
	H365	H	0.356907	0.504807	0.381249
	O366	O	0.422958	0.495387	0.458880
	H367	H	0.419164	0.504621	0.462660
	H368	H	0.428298	0.487832	0.456741
	O369	O	1.047278	0.038882	0.115814
	H370	H	1.047741	0.043398	0.121064
	H371	H	1.049095	0.035852	0.103820
	O372	O	0.383798	0.629516	0.369617
	H373	H	0.389351	0.640684	0.361735
	H374	H	0.372732	0.629527	0.351479
	O375	O	0.990271	-0.014732	0.967909
	H376	H	0.986012	-0.015552	0.958329
	H377	H	0.995902	-0.006213	0.961648
	O378	O	0.396128	0.357777	0.433457
	H379	H	0.394949	0.354929	0.423001
	H380	H	0.396796	0.366803	0.428240
	O381	O	0.440021	0.603092	0.475522
	H382	H	0.427745	0.599002	0.485951
	H383	H	0.446303	0.604796	0.475693
	O384	O	1.553264	0.633390	0.624229
	H385	H	1.526706	0.629376	0.621667
	H386	H	1.545059	0.636040	0.636615
	O387	O	0.927815	0.091553	1.022517
	H388	H	0.928625	0.078537	1.014942
	H389	H	0.931906	0.085753	1.024343
	O390	O	0.990438	1.031262	0.019382
	H391	H	0.995907	1.027792	0.018956
	H392	H	0.986408	1.031602	0.025319
	O393	O	0.437031	0.550666	0.496524
	H394	H	0.442334	0.559091	0.495246
	H395	H	0.435647	0.531141	0.493544
