data_Molecule from HDF5

_cell_length_a		16.603516
_cell_length_b		16.657717
_cell_length_c		16.685554
_cell_angle_alpha	89.911658
_cell_angle_beta	90.103422
_cell_angle_gamma	90.048368
_symmetry_space_group_name_H-M	'P 1'
_symmetry_Int_Tables_number		1

loop_
	_symmetry_equiv_pos_as_xyz
	x,y,z

loop_
	_atom_site_label
	_atom_site_type_symbol
	_atom_site_fract_x
	_atom_site_fract_y
	_atom_site_fract_z
	H0	H	0.374608	0.848907	0.721070
	H1	H	0.588502	0.158524	0.718726
	H2	H	0.591674	0.849370	0.274220
	H3	H	0.378625	0.157494	0.276448
	H4	H	0.705471	0.394073	0.842313
	H5	H	0.706950	0.608126	0.148921
	H6	H	0.262485	0.606031	0.841486
	H7	H	0.262265	0.398096	0.152727
	H8	H	0.825875	0.721178	0.394149
	H9	H	0.137943	0.724290	0.602006
	H10	H	0.829000	0.279580	0.603178
	H11	H	0.138224	0.280294	0.390484
	H12	H	0.829250	0.396117	0.718511
	H13	H	0.138912	0.607682	0.717568
	H14	H	0.826651	0.606175	0.277292
	H15	H	0.136714	0.394539	0.272944
	H16	H	0.377806	0.723584	0.842615
	H17	H	0.592257	0.725708	0.148648
	H18	H	0.588921	0.279835	0.842007
	H19	H	0.376756	0.279881	0.152533
	H20	H	0.704561	0.847891	0.392948
	H21	H	0.704576	0.158171	0.602637
	H22	H	0.261847	0.846961	0.602155
	H23	H	0.262060	0.157448	0.391601
	H24	H	0.875518	0.349246	0.219972
	H25	H	0.087894	0.656952	0.218266
	H26	H	0.088590	0.347952	0.775387
	H27	H	0.877655	0.656412	0.774628
	H28	H	0.203243	0.897656	0.342191
	H29	H	0.206959	0.108821	0.650671
	H30	H	0.761249	0.107377	0.342934
	H31	H	0.764190	0.899165	0.653479
	H32	H	0.326228	0.221341	0.894536
	H33	H	0.638640	0.223761	0.101727
	H34	H	0.328601	0.780828	0.102480
	H35	H	0.637575	0.781291	0.891627
	H36	H	0.327832	0.898121	0.216584
	H37	H	0.639721	0.105971	0.216797
	H38	H	0.326497	0.106813	0.777107
	H39	H	0.637431	0.897092	0.775313
	H40	H	0.876624	0.224506	0.342759
	H41	H	0.089159	0.223344	0.651248
	H42	H	0.086755	0.782423	0.342161
	H43	H	0.880589	0.783142	0.653015
	H44	H	0.203072	0.346209	0.894031
	H45	H	0.203692	0.657093	0.102210
	H46	H	0.761776	0.347452	0.100665
	H47	H	0.758637	0.654272	0.887992
	H48	H	0.391059	0.117360	0.592461
	H49	H	0.570270	0.892710	0.585974
	H50	H	0.574512	0.113948	0.409737
	H51	H	0.392161	0.889656	0.405517
	H52	H	0.571266	0.415793	0.106727
	H53	H	0.570352	0.588773	0.885530
	H54	H	0.390964	0.589505	0.108084
	H55	H	0.395659	0.412255	0.887659
	H56	H	0.096300	0.597343	0.409424
	H57	H	0.868563	0.596572	0.588521
	H58	H	0.094348	0.411675	0.583110
	H59	H	0.871165	0.414680	0.404591
	H60	H	0.094531	0.416611	0.584720
	H61	H	0.872732	0.592182	0.581024
	H62	H	0.092601	0.588877	0.410262
	H63	H	0.871975	0.410230	0.411059
	H64	H	0.396181	0.589804	0.107539
	H65	H	0.567252	0.591207	0.885862
	H66	H	0.569228	0.413872	0.106723
	H67	H	0.392271	0.408853	0.884937
	H68	H	0.570446	0.114916	0.404614
	H69	H	0.572962	0.891599	0.586557
	H70	H	0.402867	0.110252	0.586557
	H71	H	0.394832	0.890432	0.405779
	H72	H	0.895035	0.613871	0.083845
	H73	H	0.072802	0.389977	0.086471
	H74	H	0.073137	0.614064	0.907223
	H75	H	0.896082	0.390264	0.905452
	H76	H	0.078762	0.918670	0.608493
	H77	H	0.070804	0.091229	0.386052
	H78	H	0.893018	0.085630	0.606978
	H79	H	0.890390	0.913940	0.385142
	H80	H	0.596311	0.094715	0.906309
	H81	H	0.369682	0.089277	0.092782
	H82	H	0.593279	0.917394	0.085359
	H83	H	0.369855	0.907659	0.909243
	H84	H	0.597235	0.912942	0.089474
	H85	H	0.369668	0.097852	0.084995
	H86	H	0.593763	0.091910	0.910813
	H87	H	0.374363	0.917577	0.914191
	H88	H	0.900463	0.091905	0.606908
	H89	H	0.071842	0.090796	0.385918
	H90	H	0.064660	0.915296	0.605687
	H91	H	0.894013	0.912816	0.385676
	H92	H	0.073633	0.614077	0.906326
	H93	H	0.068220	0.392129	0.086926
	H94	H	0.895118	0.613353	0.083426
	H95	H	0.895873	0.391241	0.908582
	H96	H	0.390481	0.112237	0.578770
	H97	H	0.571047	0.891895	0.589008
	H98	H	0.568222	0.111728	0.409675
	H99	H	0.393073	0.890822	0.408305
	H100	H	0.572035	0.412458	0.106267
	H101	H	0.571297	0.592488	0.885101
	H102	H	0.393755	0.593836	0.109052
	H103	H	0.391010	0.414114	0.886123
	H104	H	0.096230	0.591207	0.402396
	H105	H	0.871927	0.587352	0.589377
	H106	H	0.096746	0.413201	0.587870
	H107	H	0.873813	0.417544	0.411898
	H108	H	0.894533	0.612827	0.084404
	H109	H	0.070582	0.392528	0.082823
	H110	H	0.072789	0.614066	0.906088
	H111	H	0.893110	0.389450	0.907330
	H112	H	0.073311	0.905389	0.612000
	H113	H	0.070674	0.090052	0.386337
	H114	H	0.891844	0.094702	0.610723
	H115	H	0.891137	0.910619	0.384622
	H116	H	0.594463	0.089122	0.905683
	H117	H	0.373700	0.087483	0.082280
	H118	H	0.595480	0.910779	0.082719
	H119	H	0.370436	0.918140	0.902739
	C120	C	0.361880	0.011063	0.618320
	C121	C	0.603947	0.994776	0.618946
	C122	C	0.604295	0.011321	0.376202
	C123	C	0.361558	0.993425	0.375032
	C124	C	0.603671	0.380683	0.004657
	C125	C	0.603661	0.623057	0.987151
	C126	C	0.361714	0.623128	0.005486
	C127	C	0.361338	0.380510	0.989151
	C128	C	-0.008789	0.623541	0.376190
	C129	C	0.974308	0.623541	0.617870
	C130	C	-0.007398	0.381195	0.617798
	C131	C	0.974674	0.381233	0.376099
	C132	C	0.861872	0.511245	0.116836
	C133	C	0.103494	0.493741	0.118266
	C134	C	0.105129	0.511105	0.875085
	C135	C	0.861483	0.492548	0.873992
	C136	C	0.104192	0.880992	0.506061
	C137	C	0.104418	0.123168	0.488180
	C138	C	0.862416	0.123581	0.505735
	C139	C	0.861361	0.881514	0.488663
	C140	C	0.491369	0.123569	0.876062
	C141	C	0.474639	0.123505	0.118020
	C142	C	0.492589	0.881189	0.118270
	C143	C	0.474344	0.881878	0.875992
	C144	C	0.358064	0.894980	0.679622
	C145	C	0.606625	0.111778	0.678695
	C146	C	0.608178	0.895147	0.315512
	C147	C	0.360104	0.110780	0.315953
	C148	C	0.664725	0.376877	0.888687
	C149	C	0.666001	0.626242	0.102722
	C150	C	0.302196	0.624845	0.888511
	C151	C	0.301952	0.379009	0.106097
	C152	C	0.873124	0.681782	0.375239
	C153	C	0.091487	0.683930	0.620167
	C154	C	0.875662	0.320176	0.620961
	C155	C	0.091285	0.320442	0.372513
	C156	C	0.875796	0.377978	0.678289
	C157	C	0.091884	0.625982	0.677435
	C158	C	0.873526	0.624758	0.317009
	C159	C	0.090444	0.377197	0.313967
	C160	C	0.359828	0.682883	0.888743
	C161	C	0.608796	0.684430	0.102730
	C162	C	0.606568	0.319879	0.888678
	C163	C	0.358775	0.320265	0.105769
	C164	C	0.664568	0.894691	0.374369
	C165	C	0.664397	0.111652	0.620997
	C166	C	0.301807	0.893920	0.620478
	C167	C	0.302416	0.110732	0.373572
	C168	C	0.858149	0.395055	0.178500
	C169	C	0.106201	0.610268	0.178419
	C170	C	0.106811	0.393954	0.815902
	C171	C	0.858664	0.609286	0.813953
	C172	C	0.163570	0.879085	0.389075
	C173	C	0.166157	0.126574	0.604271
	C174	C	0.801499	0.126258	0.389343
	C175	C	0.803617	0.880733	0.606579
	C176	C	0.373304	0.182323	0.875030
	C177	C	0.592117	0.183496	0.120038
	C178	C	0.375361	0.821195	0.120458
	C179	C	0.590997	0.821593	0.873396
	C180	C	0.374914	0.879451	0.177292
	C181	C	0.592507	0.125338	0.177278
	C182	C	0.373464	0.125367	0.816878
	C183	C	0.590835	0.879019	0.815397
	C184	C	0.858993	0.184300	0.389421
	C185	C	0.107808	0.183650	0.604586
	C186	C	0.105606	0.821759	0.389077
	C187	C	0.861125	0.822724	0.606239
	C188	C	0.163631	0.393337	0.874661
	C189	C	0.163882	0.610320	0.120787
	C190	C	0.801454	0.394225	0.119586
	C191	C	0.799498	0.608287	0.870069
	C192	C	0.387302	0.092235	0.593084
	C193	C	0.578560	0.913358	0.594079
	C194	C	0.578495	0.092453	0.401072
	C195	C	0.386203	0.911622	0.399526
	C196	C	0.578149	0.406701	0.085515
	C197	C	0.577157	0.597968	0.906465
	C198	C	0.386576	0.598181	0.087062
	C199	C	0.385903	0.404828	0.907509
	C200	C	0.073530	0.599375	0.400456
	C201	C	0.892322	0.598957	0.593289
	C202	C	0.074162	0.406631	0.592475
	C203	C	0.893465	0.406856	0.401891
	C204	C	0.887545	0.592143	0.091175
	C205	C	0.077694	0.412537	0.092697
	C206	C	0.080306	0.592658	0.899409
	C207	C	0.887585	0.411405	0.899649
	C208	C	0.079419	0.906080	0.587511
	C209	C	0.078542	0.097889	0.407226
	C210	C	0.887833	0.098117	0.587051
	C211	C	0.884956	0.905429	0.406508
	C212	C	0.573342	0.099055	0.900611
	C213	C	0.392647	0.098633	0.093570
	C214	C	0.574090	0.906520	0.093150
	C215	C	0.392751	0.907243	0.901560
	Zn216	Zn	0.482567	0.003064	0.747778
	Zn217	Zn	0.483834	0.002390	0.246642
	Zn218	Zn	0.733250	0.501705	-0.004913
	Zn219	Zn	0.232336	0.502151	-0.002488
	Zn220	Zn	-0.017448	0.752481	0.497148
	Zn221	Zn	-0.016362	0.252350	0.496989
	Zn222	Zn	-0.016437	0.502515	0.746588
	Zn223	Zn	-0.017223	0.502553	0.247295
	Zn224	Zn	0.482963	0.752867	-0.003032
	Zn225	Zn	0.482998	0.251836	-0.002602
	Zn226	Zn	0.732749	0.002770	0.497937
	Zn227	Zn	0.233112	0.001986	0.496925
	N228	N	0.394595	0.968852	0.678577
	N229	N	0.569835	0.037922	0.677832
	N230	N	0.571086	0.968601	0.316589
	N231	N	0.396162	0.036598	0.316453
	N232	N	0.663112	0.414321	0.961828
	N233	N	0.662968	0.588467	0.029842
	N234	N	0.303200	0.588531	0.962250
	N235	N	0.303468	0.416019	0.032502
	N236	N	0.947467	0.681256	0.411314
	N237	N	0.017380	0.682693	0.583870
	N238	N	0.949502	0.321823	0.584099
	N239	N	0.018073	0.322666	0.410403
	N240	N	0.949466	0.415307	0.676619
	N241	N	0.017856	0.589247	0.676458
	N242	N	0.948110	0.589295	0.317295
	N243	N	0.016839	0.414433	0.316012
	N244	N	0.396060	0.682212	0.962672
	N245	N	0.570540	0.682476	0.029980
	N246	N	0.569024	0.322239	0.961812
	N247	N	0.395095	0.321032	0.032029
	N248	N	0.662308	0.967925	0.411623
	N249	N	0.662900	0.037804	0.584619
	N250	N	0.303792	0.967269	0.583035
	N251	N	0.303004	0.036576	0.409509
	N252	N	0.894772	0.468876	0.177406
	N253	N	0.069372	0.536571	0.177100
	N254	N	0.071135	0.468214	0.815802
	N255	N	0.896283	0.536141	0.816212
	N256	N	0.162946	0.915175	0.462945
	N257	N	0.164348	0.089840	0.530744
	N258	N	0.803255	0.089249	0.462908
	N259	N	0.803502	0.916475	0.532351
	N260	N	0.447731	0.181708	0.910927
	N261	N	0.517584	0.182695	0.084319
	N262	N	0.449625	0.821798	0.084643
	N263	N	0.517283	0.823097	0.910261
	N264	N	0.448967	0.915880	0.176457
	N265	N	0.518297	0.089004	0.176488
	N266	N	0.448072	0.090201	0.816931
	N267	N	0.517104	0.915906	0.816948
	N268	N	0.896078	0.182787	0.462981
	N269	N	0.070261	0.182049	0.531248
	N270	N	0.069326	0.822682	0.463021
	N271	N	0.896286	0.822926	0.531818
	N272	N	0.162823	0.467339	0.910636
	N273	N	0.162427	0.536688	0.084075
	N274	N	0.803424	0.467513	0.082068
	N275	N	0.800870	0.534445	0.906544
	O276	O	-0.222421	0.830809	0.192110
	H277	H	-0.241919	0.811385	0.214385
	H278	H	-0.211202	0.846925	0.190303
	O279	O	0.510056	0.727357	0.714366
	H280	H	0.532404	0.743861	0.731418
	H281	H	0.539759	0.726483	0.723443
	O282	O	1.058521	0.191250	0.908894
	H283	H	1.049334	0.186849	0.915526
	H284	H	1.072607	0.182507	0.918351
	O285	O	0.417612	0.276913	0.441854
	H286	H	0.429968	0.270867	0.452911
	H287	H	0.436017	0.268068	0.433950
	O288	O	-0.039849	-0.142112	-0.041268
	H289	H	-0.037968	-0.132580	-0.028380
	H290	H	-0.042834	-0.152324	-0.021500
	O291	O	0.271772	0.514243	0.287402
	H292	H	0.284495	0.510897	0.303948
	H293	H	0.247361	0.514835	0.281776
	O294	O	1.537679	0.737235	0.438003
	H295	H	1.572790	0.735886	0.445336
	H296	H	1.532110	0.745749	0.450372
	O297	O	0.543274	0.536227	0.484522
	H298	H	0.540380	0.532693	0.473215
	H299	H	0.551820	0.537787	0.486619
	O300	O	-0.237187	0.017879	0.972227
	H301	H	-0.243219	0.021298	0.971699
	H302	H	-0.246243	0.016804	0.959878
	O303	O	0.688222	0.715164	0.705651
	H304	H	0.696987	0.666068	0.705339
	H305	H	0.723406	0.742655	0.739837
	O306	O	0.354233	0.505253	0.598061
	H307	H	0.351385	0.498807	0.591854
	H308	H	0.354385	0.510401	0.597470
	O309	O	0.577808	0.576434	0.319200
	H310	H	0.568339	0.563474	0.330737
	H311	H	0.592616	0.563293	0.324037
	O312	O	0.787169	1.072806	0.004349
	H313	H	0.793037	1.068755	0.003680
	H314	H	0.789175	1.078403	-0.005563
	O315	O	0.718157	0.273058	0.730494
	H316	H	0.716783	0.291673	0.740562
	H317	H	0.704024	0.283349	0.714945
	O318	O	0.267110	0.614460	0.515574
	H319	H	0.259205	0.632959	0.513942
	H320	H	0.281797	0.615635	0.527063
	O321	O	-0.184733	1.009868	0.881520
	H322	H	-0.188720	1.023332	0.867572
	H323	H	-0.194111	1.019202	0.871033
	O324	O	0.975740	1.089321	-0.232555
	H325	H	0.970497	1.095435	-0.231817
	H326	H	0.978382	1.087504	-0.241116
	O327	O	0.456977	-0.276504	0.271319
	H328	H	0.466005	-0.279947	0.263009
	H329	H	0.460869	-0.260506	0.262633
	O330	O	0.704819	0.730581	0.531255
	H331	H	0.702014	0.723085	0.574278
	H332	H	0.734484	0.755409	0.538467
	O333	O	0.697025	0.394904	0.601432
	H334	H	0.672718	0.415455	0.592521
	H335	H	0.706697	0.405283	0.613767
	O336	O	1.144593	0.206312	0.152879
	H337	H	1.148538	0.183676	0.152968
	H338	H	1.168051	0.223178	0.166220
	O339	O	1.201648	0.040772	1.217360
	H340	H	1.222104	0.031182	1.245058
	H341	H	1.193448	0.038503	1.210342
	O342	O	0.686570	-0.707996	0.289306
	H343	H	0.697864	-0.699686	0.310908
	H344	H	0.716821	-0.727052	0.263607
	O345	O	0.301490	1.315704	1.311253
	H346	H	0.321506	1.326141	1.328893
	H347	H	0.319367	1.334900	1.321485
	O348	O	0.444980	0.521936	0.349869
	H349	H	0.437230	0.516937	0.351717
	H350	H	0.447654	0.520723	0.353892
	O351	O	0.429910	0.679322	0.551360
	H352	H	0.424215	0.687482	0.565740
	H353	H	0.435955	0.675759	0.566366
	O354	O	-0.229419	-0.215901	1.018460
	H355	H	-0.240650	-0.219068	1.033839
	H356	H	-0.242192	-0.214109	1.036060
	O357	O	0.097709	0.942396	-0.004388
	H358	H	0.095040	0.940339	-0.006416
	H359	H	0.107219	0.931014	0.017536
	O360	O	0.604464	0.457421	0.282947
	H361	H	0.605650	0.441658	0.269429
	H362	H	0.614708	0.437675	0.284617
	O363	O	-0.036981	-0.102921	0.069322
	H364	H	-0.043224	-0.103898	0.081532
	H365	H	-0.043202	-0.109947	0.070486
	O366	O	0.266982	0.469006	0.718191
	H367	H	0.270031	0.468825	0.722808
	H368	H	0.246864	0.469259	0.726373
	O369	O	1.127369	-0.153738	0.189858
	H370	H	1.114713	-0.156688	0.176821
	H371	H	1.157907	-0.175952	0.212699
	O372	O	1.152140	0.962599	0.017504
	H373	H	1.150898	0.957510	0.029309
	H374	H	1.142650	0.938593	0.008911
	O375	O	1.052768	0.104476	-0.154547
	H376	H	1.056254	0.092787	-0.144423
	H377	H	1.065498	0.101550	-0.143740
	O378	O	0.542797	0.273323	0.541443
	H379	H	0.556591	0.270909	0.546239
	H380	H	0.552997	0.273811	0.559239
	O381	O	0.681884	0.555982	0.687299
	H382	H	0.659194	0.535088	0.699787
	H383	H	0.687890	0.540062	0.696965
	O384	O	1.021836	-0.213930	0.784025
	H385	H	1.003502	-0.219083	0.783606
	H386	H	1.001361	-0.214013	0.781698
	O387	O	1.197423	0.791020	-0.013273
	H388	H	1.216164	0.761981	-0.022962
	H389	H	1.198626	0.805295	-0.049703
	O390	O	0.203898	0.191664	0.077663
	H391	H	0.216394	0.178172	0.084453
	H392	H	0.210121	0.194537	0.089747
	O393	O	0.466403	0.428595	0.584955
	H394	H	0.458122	0.404404	0.591037
	H395	H	0.452254	0.434626	0.565023
	O396	O	0.043176	0.939556	0.997000
	H397	H	0.051072	0.930911	0.997245
	H398	H	0.049825	0.938725	0.984136
	O399	O	-0.053566	-0.219813	1.219709
	H400	H	-0.070818	-0.236499	1.230689
	H401	H	-0.057765	-0.222866	1.230028
	O402	O	0.653047	0.455765	0.347406
	H403	H	0.658358	0.453773	0.343073
	H404	H	0.653445	0.459497	0.340160
	O405	O	0.946172	0.067270	1.163888
	H406	H	0.935532	0.060233	1.167055
	H407	H	0.962947	0.057891	1.165470
	O408	O	0.115135	0.029095	-0.134549
	H409	H	0.101871	0.031231	-0.123421
	H410	H	0.132282	0.015118	-0.125654
	O411	O	0.005242	1.224628	1.215106
	H412	H	0.032413	1.218117	1.219487
	H413	H	0.014340	1.244234	1.230209
	O414	O	1.699342	0.279516	1.463629
	H415	H	1.717572	0.282072	1.455760
	H416	H	1.713319	0.273914	1.465442
	O417	O	0.252594	0.446452	0.440232
	H418	H	0.255384	0.428368	0.444949
	H419	H	0.245919	0.453793	0.458716
	O420	O	-0.299908	-0.280982	0.276283
	H421	H	-0.329032	-0.286096	0.271069
	H422	H	-0.313425	-0.297915	0.314184
	O423	O	0.171088	0.196708	0.803418
	H424	H	0.158683	0.174762	0.824292
	H425	H	0.150700	0.183006	0.818237
	O426	O	0.419798	0.478164	0.405077
	H427	H	0.425278	0.485701	0.394907
	H428	H	0.408654	0.471834	0.404171
	O429	O	1.675174	1.611603	1.396812
	H430	H	1.677216	1.596304	1.397268
	H431	H	1.670140	1.613503	1.409347
	O432	O	0.289378	0.676570	0.674183
	H433	H	0.310708	0.674194	0.657046
	H434	H	0.301322	0.668493	0.667630
	O435	O	0.360224	0.694060	0.500861
	H436	H	0.365342	0.694548	0.493925
	H437	H	0.372043	0.688652	0.502262
	O438	O	-0.208013	0.195566	0.192919
	H439	H	-0.187580	0.174766	0.177942
	H440	H	-0.190382	0.181144	0.170359
	O441	O	1.025138	-0.014108	0.224847
	H442	H	1.015321	-0.029428	0.222388
	H443	H	1.033858	-0.024173	0.221826
	O444	O	-0.111735	0.987376	-0.066123
	H445	H	-0.107551	1.003376	-0.070711
	H446	H	-0.100532	0.995540	-0.051993
	O447	O	-0.171355	1.214251	0.915395
	H448	H	-0.166675	1.216952	0.910126
	H449	H	-0.151365	1.220707	0.914773
	O450	O	0.188825	0.799340	0.788134
	H451	H	0.143416	0.800419	0.782019
	H452	H	0.200918	0.781211	0.763368
	O453	O	0.828044	0.165008	0.808447
	H454	H	0.863243	0.172667	0.813399
	H455	H	0.808192	0.187442	0.786938
	O456	O	-0.167961	0.002038	0.802696
	H457	H	-0.178861	0.019946	0.801384
	H458	H	-0.171781	0.025349	0.797555
	O459	O	1.236663	0.747230	0.256322
	H460	H	1.251907	0.724040	0.282103
	H461	H	1.263065	0.742125	0.247337
	O462	O	0.264199	0.282989	0.528573
	H463	H	0.246273	0.254665	0.529095
	H464	H	0.274595	0.279980	0.536328
	O465	O	1.425629	0.583825	-0.649778
	H466	H	1.421836	0.561999	-0.639968
	H467	H	1.426418	0.582976	-0.654556
	O468	O	0.593458	0.471651	0.721999
	H469	H	0.581143	0.464435	0.712235
	H470	H	0.575524	0.468772	0.723653
	O471	O	0.441409	0.556952	0.690951
	H472	H	0.452391	0.567602	0.699425
	H473	H	0.441487	0.546976	0.681231
	O474	O	0.451838	0.275561	0.724922
	H475	H	0.447199	0.236770	0.760953
	H476	H	0.406601	0.288569	0.713586
	O477	O	0.276746	0.297640	1.702965
	H478	H	0.269507	0.326246	1.692547
	H479	H	0.246357	0.269480	1.724337
	O480	O	0.553220	0.521303	0.543490
	H481	H	0.547405	0.518102	0.543280
	H482	H	0.543137	0.524515	0.541436
	O483	O	0.201388	0.978650	0.773467
	H484	H	0.208173	0.955009	0.789475
	H485	H	0.232854	0.973965	0.762905
	O486	O	1.003249	-0.229200	1.011679
	H487	H	1.011926	-0.230009	1.015395
	H488	H	1.009269	-0.233514	1.026336
	O489	O	0.797537	0.984148	0.211413
	H490	H	0.799606	0.981952	0.220157
	H491	H	0.796115	0.981107	0.211230
	O492	O	-0.096592	0.205852	0.028764
	H493	H	-0.084979	0.200842	0.039887
	H494	H	-0.094682	0.204566	0.016698
	O495	O	0.098703	1.175087	1.047530
	H496	H	0.105152	1.176030	1.058665
	H497	H	0.116106	1.174042	1.048730
	O498	O	0.793073	0.808330	0.806252
	H499	H	0.812382	0.830210	0.822264
	H500	H	0.806855	0.824651	0.829078
	O501	O	0.511481	0.278140	0.275162
	H502	H	0.540980	0.263478	0.261715
	H503	H	0.532118	0.271227	0.263867
