data_Molecule from HDF5

_cell_length_a		16.421667
_cell_length_b		16.458508
_cell_length_c		16.500848
_cell_angle_alpha	89.877397
_cell_angle_beta	90.154278
_cell_angle_gamma	90.055933
_symmetry_space_group_name_H-M	'P 1'
_symmetry_Int_Tables_number		1

loop_
	_symmetry_equiv_pos_as_xyz
	x,y,z

loop_
	_atom_site_label
	_atom_site_type_symbol
	_atom_site_fract_x
	_atom_site_fract_y
	_atom_site_fract_z
	H0	H	0.395288	0.842840	0.722611
	H1	H	0.608354	0.158864	0.724333
	H2	H	0.602656	0.844487	0.280131
	H3	H	0.393324	0.160665	0.279762
	H4	H	0.724522	0.391903	0.843158
	H5	H	0.719539	0.601429	0.157046
	H6	H	0.278760	0.608028	0.839738
	H7	H	0.279089	0.396917	0.155972
	H8	H	0.840912	0.719549	0.395821
	H9	H	0.159832	0.718295	0.602230
	H10	H	0.843475	0.274867	0.608462
	H11	H	0.159658	0.281215	0.397439
	H12	H	0.843392	0.390074	0.725093
	H13	H	0.158411	0.605203	0.719774
	H14	H	0.841292	0.602204	0.278905
	H15	H	0.160377	0.396982	0.280707
	H16	H	0.394705	0.725127	0.841364
	H17	H	0.603528	0.718734	0.157531
	H18	H	0.608798	0.274563	0.843967
	H19	H	0.391270	0.277642	0.155608
	H20	H	0.719819	0.844003	0.396429
	H21	H	0.724732	0.158752	0.608079
	H22	H	0.279454	0.841990	0.605848
	H23	H	0.279544	0.160907	0.398528
	H24	H	0.894216	0.341446	0.221392
	H25	H	0.100306	0.659717	0.214675
	H26	H	0.105088	0.341966	0.777880
	H27	H	0.896870	0.659441	0.778681
	H28	H	0.216002	0.901274	0.341680
	H29	H	0.220640	0.104879	0.659749
	H30	H	0.779848	0.105156	0.341715
	H31	H	0.778948	0.894827	0.658834
	H32	H	0.341727	0.222799	0.894068
	H33	H	0.658350	0.223216	0.106783
	H34	H	0.340830	0.784851	0.098481
	H35	H	0.660525	0.782691	0.896705
	H36	H	0.339640	0.900522	0.216145
	H37	H	0.659093	0.106435	0.221645
	H38	H	0.343760	0.110216	0.774854
	H39	H	0.659067	0.896588	0.779051
	H40	H	0.895207	0.221865	0.342083
	H41	H	0.106357	0.223293	0.658104
	H42	H	0.097867	0.785441	0.340835
	H43	H	0.895437	0.778463	0.658119
	H44	H	0.222364	0.342331	0.893814
	H45	H	0.215040	0.660792	0.095805
	H46	H	0.777597	0.341599	0.105121
	H47	H	0.781106	0.659647	0.895377
	H48	H	0.409099	0.115053	0.592244
	H49	H	0.584705	0.890584	0.589868
	H50	H	0.586020	0.114180	0.409997
	H51	H	0.405917	0.887565	0.408797
	H52	H	0.592014	0.412532	0.111647
	H53	H	0.589854	0.592222	0.885122
	H54	H	0.408634	0.589811	0.110343
	H55	H	0.418888	0.415398	0.890043
	H56	H	0.114158	0.593280	0.411759
	H57	H	0.888541	0.588328	0.583211
	H58	H	0.112336	0.410323	0.586447
	H59	H	0.888143	0.416143	0.408025
	H60	H	0.109531	0.416058	0.585877
	H61	H	0.886421	0.584974	0.591701
	H62	H	0.115162	0.588945	0.403527
	H63	H	0.886176	0.408046	0.407077
	H64	H	0.412054	0.594759	0.111650
	H65	H	0.590186	0.593284	0.884835
	H66	H	0.587985	0.415876	0.109293
	H67	H	0.412880	0.408594	0.885309
	H68	H	0.589079	0.114477	0.414612
	H69	H	0.589308	0.891303	0.586065
	H70	H	0.416698	0.111819	0.588470
	H71	H	0.408444	0.887357	0.406632
	H72	H	0.912925	0.612534	0.090270
	H73	H	0.089369	0.383869	0.096037
	H74	H	0.083133	0.609237	0.915117
	H75	H	0.910686	0.387568	0.912825
	H76	H	0.088690	0.904390	0.615896
	H77	H	0.080381	0.086101	0.392405
	H78	H	0.913933	0.091587	0.612827
	H79	H	0.908953	0.909621	0.387852
	H80	H	0.613080	0.089699	0.912012
	H81	H	0.385033	0.089457	0.095712
	H82	H	0.615266	0.905395	0.090060
	H83	H	0.390539	0.920602	0.912926
	H84	H	0.613975	0.915115	0.090185
	H85	H	0.384772	0.095428	0.088059
	H86	H	0.611080	0.088620	0.916537
	H87	H	0.386681	0.912813	0.904898
	H88	H	0.909287	0.084149	0.612137
	H89	H	0.089323	0.101250	0.385404
	H90	H	0.095229	0.908260	0.616603
	H91	H	0.908905	0.910405	0.387508
	H92	H	0.099824	0.615390	0.911084
	H93	H	0.087351	0.388354	0.086579
	H94	H	0.911684	0.611637	0.086759
	H95	H	0.913730	0.388491	0.909249
	H96	H	0.409195	0.112177	0.583607
	H97	H	0.590258	0.889413	0.591414
	H98	H	0.591348	0.117126	0.410103
	H99	H	0.409070	0.889060	0.409682
	H100	H	0.586179	0.411373	0.110817
	H101	H	0.590801	0.592337	0.885194
	H102	H	0.405784	0.594642	0.113033
	H103	H	0.409206	0.417600	0.886829
	H104	H	0.116553	0.598448	0.404452
	H105	H	0.884464	0.594246	0.589770
	H106	H	0.112139	0.414267	0.590785
	H107	H	0.888717	0.410836	0.414490
	H108	H	0.909151	0.613018	0.089532
	H109	H	0.097273	0.384342	0.088000
	H110	H	0.086753	0.615478	0.898438
	H111	H	0.914374	0.390056	0.913262
	H112	H	0.089206	0.911432	0.613813
	H113	H	0.098300	0.084604	0.387551
	H114	H	0.917872	0.084863	0.609195
	H115	H	0.909273	0.910064	0.387397
	H116	H	0.611359	0.085043	0.913512
	H117	H	0.389302	0.087370	0.087096
	H118	H	0.617196	0.910708	0.098310
	H119	H	0.388362	0.908823	0.915990
	C120	C	0.379124	0.008920	0.621463
	C121	C	0.622504	0.993446	0.622668
	C122	C	0.619832	0.010717	0.380059
	C123	C	0.376758	0.993443	0.377855
	C124	C	0.621932	0.378949	0.007773
	C125	C	0.621813	0.622649	0.989935
	C126	C	0.377429	0.624706	0.006912
	C127	C	0.379876	0.380546	0.990617
	C128	C	0.009258	0.623033	0.376391
	C129	C	0.991763	0.620603	0.619590
	C130	C	0.008007	0.378889	0.621440
	C131	C	0.992482	0.379735	0.378875
	C132	C	0.879009	0.507646	0.120746
	C133	C	0.121375	0.491257	0.119483
	C134	C	0.121902	0.508703	0.876771
	C135	C	0.879836	0.492572	0.878462
	C136	C	0.120623	0.879078	0.509679
	C137	C	0.121576	0.122197	0.492903
	C138	C	0.880015	0.121115	0.508056
	C139	C	0.877057	0.877986	0.491900
	C140	C	0.507977	0.121742	0.879884
	C141	C	0.491428	0.123031	0.122154
	C142	C	0.509283	0.880382	0.121975
	C143	C	0.493141	0.881856	0.879548
	C144	C	0.377057	0.890090	0.682290
	C145	C	0.626196	0.111472	0.683935
	C146	C	0.621173	0.891524	0.320301
	C147	C	0.375101	0.112964	0.319375
	C148	C	0.683722	0.374317	0.889956
	C149	C	0.680502	0.621788	0.109396
	C150	C	0.318305	0.626572	0.887769
	C151	C	0.318639	0.378071	0.108584
	C152	C	0.888797	0.680295	0.376338
	C153	C	0.111713	0.679360	0.620987
	C154	C	0.890287	0.315730	0.625807
	C155	C	0.112038	0.320433	0.378179
	C156	C	0.890265	0.373439	0.683534
	C157	C	0.111031	0.623033	0.679598
	C158	C	0.888892	0.622269	0.318212
	C159	C	0.112292	0.377927	0.319960
	C160	C	0.376207	0.684817	0.888501
	C161	C	0.622583	0.679741	0.109746
	C162	C	0.626343	0.315828	0.890535
	C163	C	0.374865	0.318854	0.108525
	C164	C	0.679603	0.891428	0.377736
	C165	C	0.684261	0.111586	0.626111
	C166	C	0.319313	0.889707	0.624162
	C167	C	0.318516	0.112983	0.378577
	C168	C	0.876139	0.388945	0.181220
	C169	C	0.119987	0.611951	0.175586
	C170	C	0.123679	0.389189	0.817792
	C171	C	0.878013	0.611754	0.818470
	C172	C	0.176744	0.881474	0.389119
	C173	C	0.180783	0.123138	0.612178
	C174	C	0.819523	0.123773	0.389360
	C175	C	0.818019	0.876210	0.610882
	C176	C	0.389393	0.182927	0.875957
	C177	C	0.611006	0.182781	0.124387
	C178	C	0.388687	0.823186	0.119647
	C179	C	0.612682	0.822060	0.877716
	C180	C	0.388144	0.881046	0.177722
	C181	C	0.611310	0.124872	0.181903
	C182	C	0.390481	0.126712	0.816640
	C183	C	0.612043	0.879191	0.819504
	C184	C	0.876934	0.182047	0.389760
	C185	C	0.123942	0.182201	0.611481
	C186	C	0.118518	0.823753	0.388625
	C187	C	0.875975	0.818133	0.610644
	C188	C	0.182109	0.389505	0.875234
	C189	C	0.176874	0.612544	0.116666
	C190	C	0.818292	0.389043	0.122748
	C191	C	0.820255	0.611898	0.876395
	C192	C	0.404430	0.091359	0.595698
	C193	C	0.595656	0.911642	0.596313
	C194	C	0.595654	0.093462	0.404552
	C195	C	0.401037	0.909718	0.401660
	C196	C	0.596025	0.405555	0.089178
	C197	C	0.597228	0.599299	0.906626
	C198	C	0.401841	0.599905	0.090329
	C199	C	0.406291	0.406476	0.908803
	C200	C	0.093472	0.600126	0.399861
	C201	C	0.908141	0.596132	0.595188
	C202	C	0.089902	0.405967	0.595194
	C203	C	0.909234	0.404592	0.402990
	C204	C	0.904277	0.590835	0.095953
	C205	C	0.098147	0.407340	0.096741
	C206	C	0.097020	0.591716	0.901046
	C207	C	0.905383	0.410105	0.904206
	C208	C	0.097759	0.901404	0.593573
	C209	C	0.096446	0.097763	0.409990
	C210	C	0.906243	0.094529	0.590067
	C211	C	0.901697	0.902907	0.408963
	C212	C	0.590436	0.095399	0.906546
	C213	C	0.408216	0.098089	0.097475
	C214	C	0.593565	0.903594	0.099395
	C215	C	0.410000	0.906725	0.904232
	Zn216	Zn	0.500351	0.001464	0.750430
	Zn217	Zn	0.499167	0.002637	0.250158
	Zn218	Zn	0.750493	0.500423	-0.001522
	Zn219	Zn	0.250312	0.500987	-0.002329
	Zn220	Zn	-0.000269	0.749883	0.500303
	Zn221	Zn	0.000501	0.250990	0.500161
	Zn222	Zn	-0.000042	0.500629	0.749015
	Zn223	Zn	0.000726	0.499604	0.249295
	Zn224	Zn	0.500885	0.752171	-0.001190
	Zn225	Zn	0.499753	0.250713	-0.000073
	Zn226	Zn	0.750010	0.001476	0.500518
	Zn227	Zn	0.249561	0.000856	0.501237
	N228	N	0.413344	0.965386	0.680952
	N229	N	0.588588	0.037039	0.681915
	N230	N	0.584790	0.966604	0.321493
	N231	N	0.410693	0.037389	0.318861
	N232	N	0.681078	0.412886	0.963468
	N233	N	0.680218	0.587131	0.033732
	N234	N	0.319050	0.589717	0.962706
	N235	N	0.321651	0.415899	0.034451
	N236	N	0.964658	0.680877	0.411796
	N237	N	0.036402	0.677918	0.584306
	N238	N	0.964505	0.319099	0.587869
	N239	N	0.036574	0.321464	0.414038
	N240	N	0.964478	0.412024	0.681040
	N241	N	0.035530	0.586984	0.678827
	N242	N	0.965085	0.587663	0.317944
	N243	N	0.036733	0.413669	0.319809
	N244	N	0.412393	0.683562	0.963613
	N245	N	0.587247	0.680809	0.034255
	N246	N	0.588828	0.318341	0.964821
	N247	N	0.412293	0.320218	0.034132
	N248	N	0.678854	0.966175	0.414357
	N249	N	0.682082	0.037057	0.588696
	N250	N	0.320532	0.964379	0.586971
	N251	N	0.319358	0.037436	0.414089
	N252	N	0.913358	0.463624	0.179713
	N253	N	0.086537	0.535488	0.177793
	N254	N	0.087143	0.464120	0.818554
	N255	N	0.914116	0.536525	0.819500
	N256	N	0.178597	0.914569	0.465333
	N257	N	0.179141	0.086455	0.537408
	N258	N	0.821142	0.086681	0.464051
	N259	N	0.818577	0.912706	0.535872
	N260	N	0.463639	0.179768	0.914524
	N261	N	0.535583	0.181817	0.088166
	N262	N	0.465182	0.822216	0.086094
	N263	N	0.537652	0.823623	0.914399
	N264	N	0.464369	0.915547	0.179516
	N265	N	0.535787	0.088600	0.180834
	N266	N	0.465411	0.089398	0.819022
	N267	N	0.536696	0.915384	0.820421
	N268	N	0.913701	0.180485	0.464631
	N269	N	0.087985	0.181850	0.536362
	N270	N	0.084574	0.821959	0.464707
	N271	N	0.911863	0.819019	0.535568
	N272	N	0.181036	0.464803	0.911012
	N273	N	0.178169	0.536388	0.082780
	N274	N	0.819949	0.464053	0.085920
	N275	N	0.821055	0.536710	0.912618
	O276	O	0.310471	0.567390	0.503167
	H277	H	0.305289	0.579064	0.500005
	H278	H	0.302124	0.569549	0.504965
	O279	O	0.993216	0.123655	0.930833
	H280	H	0.989515	0.119996	0.923067
	H281	H	1.000597	0.143350	0.924351
	O282	O	0.399369	0.614537	0.563493
	H283	H	0.398411	0.602946	0.567012
	H284	H	0.389297	0.626653	0.560207
	O285	O	0.311468	0.704780	0.289138
	H286	H	0.293397	0.721293	0.261312
	H287	H	0.306721	0.670923	0.277896
	O288	O	0.905619	0.992983	0.110058
	H289	H	0.905479	1.000526	0.096720
	H290	H	0.885130	0.995746	0.125486
	O291	O	0.293526	0.292822	0.525653
	H292	H	0.278800	0.305900	0.513975
	H293	H	0.296972	0.284204	0.521140
	O294	O	0.043038	0.159607	0.958844
	H295	H	0.026734	0.166767	0.935934
	H296	H	0.058467	0.151861	0.964908
	O297	O	0.659525	0.666295	0.309637
	H298	H	0.643048	0.657413	0.318665
	H299	H	0.646505	0.647858	0.315543
	O300	O	0.598136	0.442965	0.678070
	H301	H	0.597497	0.437433	0.668325
	H302	H	0.624619	0.457822	0.677750
	O303	O	0.382481	0.316313	0.394315
	H304	H	0.399727	0.313814	0.380518
	H305	H	0.370619	0.325204	0.402414
	O306	O	0.498796	0.713502	0.498878
	H307	H	0.483866	0.706740	0.480741
	H308	H	0.479782	0.713856	0.495283
	O309	O	0.544793	0.357754	0.431375
	H310	H	0.541431	0.376932	0.428007
	H311	H	0.547700	0.359825	0.404157
	O312	O	0.119251	0.959008	1.008979
	H313	H	0.130980	0.955676	1.028675
	H314	H	0.110948	0.965638	1.007302
	O315	O	0.711333	0.494459	0.502879
	H316	H	0.709456	0.504051	0.522540
	H317	H	0.699515	0.489735	0.503349
	O318	O	0.967034	0.031795	0.043576
	H319	H	0.952976	0.020912	0.048371
	H320	H	0.976307	0.042685	0.038411
	O321	O	-0.151301	0.131768	-0.021092
	H322	H	-0.146827	0.126898	-0.019811
	H323	H	-0.163970	0.143214	-0.004629
	O324	O	0.680751	0.319587	0.313278
	H325	H	0.690311	0.320124	0.352924
	H326	H	0.690837	0.356779	0.318106
	O327	O	0.603225	0.321143	0.567435
	H328	H	0.605764	0.327554	0.545033
	H329	H	0.585456	0.324076	0.573141
	O330	O	0.178877	0.816858	0.180234
	H331	H	0.172601	0.839624	0.156968
	H332	H	0.150072	0.831201	0.168956
	O333	O	0.546617	0.496214	0.506698
	H334	H	0.529487	0.507979	0.505087
	H335	H	0.554430	0.500581	0.514861
	O336	O	0.147640	0.110718	0.164327
	H337	H	0.132454	0.128388	0.181393
	H338	H	0.150579	0.111945	0.142323
	O339	O	0.176326	0.952533	0.811763
	H340	H	0.173646	0.930667	0.810574
	H341	H	0.189470	0.941362	0.788046
	O342	O	0.121970	0.849948	0.828306
	H343	H	0.118873	0.842675	0.839370
	H344	H	0.122280	0.840093	0.827973
	O345	O	0.920982	0.796733	0.022381
	H346	H	0.924314	0.794361	0.013345
	H347	H	0.898501	0.787425	0.017304
	O348	O	0.291925	0.558764	0.294891
	H349	H	0.304775	0.546691	0.282406
	H350	H	0.290055	0.550730	0.290305
	O351	O	0.055849	1.057331	0.933685
	H352	H	0.064603	1.063395	0.915590
	H353	H	0.040123	1.059999	0.945329
	O354	O	0.197252	0.908193	0.026305
	H355	H	0.187159	0.907449	0.038871
	H356	H	0.199858	0.910673	0.027672
	O357	O	0.155224	0.094974	0.865346
	H358	H	0.171046	0.103863	0.865022
	H359	H	0.166608	0.077816	0.859227
	O360	O	0.516910	0.692984	0.697029
	H361	H	0.490387	0.679915	0.699627
	H362	H	0.504464	0.691106	0.703995
	O363	O	-0.014947	-0.064771	0.888998
	H364	H	-0.027206	-0.051277	0.878022
	H365	H	-0.006180	-0.052582	0.891576
	O366	O	0.633890	0.485593	0.296536
	H367	H	0.623839	0.505232	0.311138
	H368	H	0.631676	0.495731	0.293356
	O369	O	0.639368	0.561932	0.504012
	H370	H	0.647353	0.562288	0.521414
	H371	H	0.643252	0.582062	0.521938
	O372	O	1.003694	0.114738	1.087270
	H373	H	0.989258	0.116971	1.079643
	H374	H	1.005155	0.119741	1.080973
	O375	O	0.524926	0.283231	0.278995
	H376	H	0.530298	0.248649	0.242657
	H377	H	0.574852	0.295463	0.290919
	O378	O	0.676751	0.680632	0.689526
	H379	H	0.656114	0.698009	0.690749
	H380	H	0.658078	0.691769	0.668006
	O381	O	0.448224	0.457397	0.327809
	H382	H	0.444859	0.445348	0.336197
	H383	H	0.460012	0.446001	0.329076
	O384	O	0.712657	0.289697	0.472996
	H385	H	0.709477	0.312621	0.498352
	H386	H	0.735468	0.266175	0.474637
	O387	O	0.179090	0.046188	1.199543
	H388	H	0.178141	0.064426	1.198373
	H389	H	0.185194	0.063943	1.209860
	O390	O	0.017550	0.110183	-0.060260
	H391	H	0.020069	0.099959	-0.064703
	H392	H	0.017107	0.122472	-0.063099
	O393	O	0.948321	0.919093	0.853100
	H394	H	0.945766	0.938227	0.856954
	H395	H	0.948823	0.911608	0.865053
	O396	O	1.028093	0.176034	0.189179
	H397	H	1.018109	0.196675	0.180992
	H398	H	1.008776	0.185799	0.185267
	O399	O	0.819455	0.181518	0.818324
	H400	H	0.835015	0.186458	0.840980
	H401	H	0.834235	0.179617	0.802377
	O402	O	0.886247	0.898007	0.840072
	H403	H	0.875965	0.903187	0.851392
	H404	H	0.875277	0.907114	0.829171
	O405	O	0.800368	0.798054	0.200541
	H406	H	0.799017	0.782954	0.191768
	H407	H	0.822268	0.782156	0.211947
	O408	O	0.985708	0.070455	-0.011297
	H409	H	0.977926	0.074229	0.000840
	H410	H	0.996466	0.074793	-0.009842
	O411	O	0.802065	0.982689	0.207511
	H412	H	0.797607	0.969582	0.221518
	H413	H	0.791117	0.957962	0.215481
	O414	O	0.498394	0.544625	0.526132
	H415	H	0.479529	0.550095	0.526957
	H416	H	0.498088	0.550701	0.524349
	O417	O	0.704902	0.705469	0.520561
	H418	H	0.692487	0.716779	0.510225
	H419	H	0.716639	0.723055	0.520927
	O420	O	0.486737	0.488983	0.297302
	H421	H	0.481750	0.500491	0.299830
	H422	H	0.481427	0.491756	0.302645
	O423	O	0.721546	0.527518	0.717975
	H424	H	0.733091	0.555035	0.731506
	H425	H	0.732952	0.555633	0.725971
	O426	O	0.471951	0.519175	0.708950
	H427	H	0.455651	0.503863	0.707497
	H428	H	0.492167	0.498181	0.713438
	O429	O	0.297805	0.718670	0.461165
	H430	H	0.282214	0.730252	0.438247
	H431	H	0.291153	0.724308	0.438741
	O432	O	0.304606	0.490715	0.514451
	H433	H	0.295704	0.493909	0.526348
	H434	H	0.300953	0.495193	0.516616
	O435	O	0.286428	0.483855	0.704221
	H436	H	0.273637	0.470409	0.727322
	H437	H	0.287911	0.448627	0.695166
	O438	O	-0.135425	0.044372	-0.005975
	H439	H	-0.156492	0.042791	0.002292
	H440	H	-0.133514	0.044028	-0.012312
	O441	O	0.785571	-0.083206	0.006735
	H442	H	0.767212	-0.095211	0.005502
	H443	H	0.772814	-0.079214	-0.000564
	O444	O	0.052542	0.811102	1.100758
	H445	H	0.053794	0.828436	1.098411
	H446	H	0.052490	0.805368	1.080392
	O447	O	0.473153	0.302822	0.708257
	H448	H	0.476952	0.283732	0.723179
	H449	H	0.494970	0.311507	0.694314
	O450	O	0.487426	0.708720	0.314097
	H451	H	0.468516	0.724329	0.305669
	H452	H	0.473203	0.720371	0.305869
	O453	O	0.314746	0.316826	0.688885
	H454	H	0.316378	0.313353	0.662040
	H455	H	0.354509	0.309616	0.686388
