data_Molecule from HDF5

_cell_length_a		16.391981
_cell_length_b		16.255539
_cell_length_c		16.269508
_cell_angle_alpha	89.971176
_cell_angle_beta	89.893025
_cell_angle_gamma	89.714554
_symmetry_space_group_name_H-M	'P 1'
_symmetry_Int_Tables_number		1

loop_
	_symmetry_equiv_pos_as_xyz
	x,y,z

loop_
	_atom_site_label
	_atom_site_type_symbol
	_atom_site_fract_x
	_atom_site_fract_y
	_atom_site_fract_z
	H0	H	0.384848	0.839719	0.714514
	H1	H	0.583441	0.165852	0.715469
	H2	H	0.584485	0.840799	0.283521
	H3	H	0.380183	0.165980	0.281367
	H4	H	0.702193	0.399066	0.836585
	H5	H	0.701960	0.607537	0.159149
	H6	H	0.264521	0.606857	0.837113
	H7	H	0.264422	0.400594	0.160565
	H8	H	0.822169	0.721433	0.398215
	H9	H	0.145090	0.719628	0.599904
	H10	H	0.822547	0.286079	0.602307
	H11	H	0.144242	0.285438	0.396830
	H12	H	0.822533	0.401741	0.717992
	H13	H	0.144145	0.605726	0.716954
	H14	H	0.822776	0.607686	0.280242
	H15	H	0.144489	0.400961	0.280910
	H16	H	0.382980	0.719378	0.835734
	H17	H	0.582886	0.719146	0.160964
	H18	H	0.583502	0.287017	0.835456
	H19	H	0.381887	0.286206	0.161095
	H20	H	0.701531	0.840744	0.398630
	H21	H	0.702194	0.164785	0.603066
	H22	H	0.265305	0.841395	0.603298
	H23	H	0.262939	0.165222	0.395474
	H24	H	0.882179	0.340770	0.216358
	H25	H	0.081974	0.666331	0.215025
	H26	H	0.084297	0.341075	0.782532
	H27	H	0.881374	0.666346	0.782104
	H28	H	0.203937	0.898774	0.337538
	H29	H	0.199153	0.104498	0.662469
	H30	H	0.764335	0.108594	0.338280
	H31	H	0.767542	0.902152	0.662036
	H32	H	0.321651	0.220792	0.896953
	H33	H	0.644648	0.220374	0.100014
	H34	H	0.321127	0.787137	0.101101
	H35	H	0.644045	0.784772	0.898860
	H36	H	0.322231	0.902943	0.218517
	H37	H	0.645239	0.105035	0.215643
	H38	H	0.322173	0.103469	0.781988
	H39	H	0.645146	0.900350	0.782832
	H40	H	0.882189	0.221307	0.336882
	H41	H	0.083302	0.220578	0.661235
	H42	H	0.085856	0.785488	0.336876
	H43	H	0.885118	0.788514	0.662239
	H44	H	0.202979	0.342575	0.895753
	H45	H	0.199090	0.665149	0.101828
	H46	H	0.764687	0.341584	0.102291
	H47	H	0.763375	0.664934	0.895156
	H48	H	0.385992	0.119390	0.587605
	H49	H	0.587014	0.885930	0.586410
	H50	H	0.584613	0.122337	0.409668
	H51	H	0.386064	0.889482	0.419668
	H52	H	0.579123	0.417589	0.113618
	H53	H	0.573818	0.592170	0.883430
	H54	H	0.387185	0.593522	0.115361
	H55	H	0.394039	0.408140	0.882490
	H56	H	0.101645	0.603207	0.403339
	H57	H	0.865592	0.599108	0.595303
	H58	H	0.098610	0.410492	0.592435
	H59	H	0.869734	0.416891	0.408749
	H60	H	0.098431	0.410587	0.588418
	H61	H	0.870011	0.598452	0.584312
	H62	H	0.094401	0.592848	0.416393
	H63	H	0.867214	0.411989	0.403628
	H64	H	0.392632	0.591480	0.113236
	H65	H	0.572002	0.592753	0.883287
	H66	H	0.569176	0.413567	0.111387
	H67	H	0.387378	0.415084	0.882291
	H68	H	0.569169	0.120100	0.399757
	H69	H	0.575027	0.883923	0.601459
	H70	H	0.391225	0.120626	0.594777
	H71	H	0.390474	0.883804	0.399821
	H72	H	0.892942	0.617503	0.086964
	H73	H	0.075340	0.386150	0.093155
	H74	H	0.074207	0.618008	0.912348
	H75	H	0.892357	0.384726	0.899063
	H76	H	0.078165	0.910680	0.615262
	H77	H	0.077464	0.090367	0.384466
	H78	H	0.890737	0.091572	0.613984
	H79	H	0.899027	0.915568	0.386369
	H80	H	0.598884	0.093263	0.905356
	H81	H	0.368727	0.098464	0.087396
	H82	H	0.599387	0.906713	0.092473
	H83	H	0.368892	0.921736	0.900193
	H84	H	0.596403	0.910630	0.085363
	H85	H	0.370509	0.091281	0.089900
	H86	H	0.599216	0.096682	0.906576
	H87	H	0.363249	0.900999	0.902406
	H88	H	0.895662	0.095131	0.614362
	H89	H	0.071847	0.092162	0.385272
	H90	H	0.075303	0.915406	0.613862
	H91	H	0.892296	0.905768	0.380421
	H92	H	0.078560	0.622496	0.905940
	H93	H	0.070764	0.389094	0.088574
	H94	H	0.889315	0.618559	0.087683
	H95	H	0.900608	0.392235	0.912418
	H96	H	0.394337	0.117292	0.586982
	H97	H	0.568900	0.891424	0.584565
	H98	H	0.570558	0.114971	0.418103
	H99	H	0.404994	0.893470	0.411723
	H100	H	0.576056	0.407493	0.115659
	H101	H	0.573201	0.594247	0.882703
	H102	H	0.391588	0.597276	0.115058
	H103	H	0.395423	0.416733	0.885719
	H104	H	0.097306	0.585812	0.400369
	H105	H	0.870913	0.589555	0.591188
	H106	H	0.097178	0.414164	0.590107
	H107	H	0.868845	0.409381	0.410828
	H108	H	0.891671	0.618813	0.090326
	H109	H	0.076792	0.387663	0.086289
	H110	H	0.070323	0.619828	0.904497
	H111	H	0.883972	0.387295	0.913672
	H112	H	0.072795	0.910947	0.613877
	H113	H	0.075955	0.096392	0.382350
	H114	H	0.890054	0.096783	0.616029
	H115	H	0.886304	0.917833	0.383225
	H116	H	0.597510	0.094194	0.908892
	H117	H	0.367364	0.095847	0.094492
	H118	H	0.597088	0.916010	0.092716
	H119	H	0.371626	0.912358	0.918805
	C120	C	0.361850	0.011469	0.620308
	C121	C	0.606123	0.994696	0.621227
	C122	C	0.605198	0.012087	0.378588
	C123	C	0.362124	0.995566	0.378737
	C124	C	0.604981	0.381679	0.006717
	C125	C	0.603497	0.624001	0.989941
	C126	C	0.360856	0.624878	0.007320
	C127	C	0.361574	0.382528	0.990424
	C128	C	-0.008268	0.625344	0.376778
	C129	C	0.975104	0.625644	0.620730
	C130	C	-0.008543	0.381890	0.620747
	C131	C	0.974878	0.381995	0.377114
	C132	C	0.861270	0.511543	0.119763
	C133	C	0.103687	0.494835	0.119839
	C134	C	0.104788	0.512529	0.877212
	C135	C	0.861525	0.495040	0.877532
	C136	C	0.106091	0.881335	0.507501
	C137	C	0.104682	0.124067	0.490801
	C138	C	0.861556	0.125583	0.507904
	C139	C	0.863195	0.883194	0.490888
	C140	C	0.491713	0.124785	0.877005
	C141	C	0.475215	0.125318	0.120671
	C142	C	0.491499	0.881127	0.121391
	C143	C	0.474702	0.881089	0.877292
	C144	C	0.364136	0.889015	0.677068
	C145	C	0.603819	0.117029	0.677530
	C146	C	0.604664	0.889459	0.321571
	C147	C	0.361369	0.117549	0.320809
	C148	C	0.662818	0.380632	0.884910
	C149	C	0.662050	0.625342	0.111181
	C150	C	0.303710	0.625370	0.885287
	C151	C	0.303709	0.381775	0.112152
	C152	C	0.870795	0.683620	0.377630
	C153	C	0.096562	0.681589	0.619785
	C154	C	0.870811	0.324515	0.621422
	C155	C	0.095916	0.324068	0.377387
	C156	C	0.870872	0.382025	0.679182
	C157	C	0.096113	0.624710	0.677939
	C158	C	0.870833	0.626544	0.319241
	C159	C	0.096082	0.381648	0.319602
	C160	C	0.362374	0.681540	0.884822
	C161	C	0.602890	0.681137	0.112101
	C162	C	0.603730	0.324752	0.884356
	C163	C	0.362132	0.324800	0.112456
	C164	C	0.662772	0.889502	0.378745
	C165	C	0.663017	0.116371	0.621645
	C166	C	0.304852	0.889600	0.621535
	C167	C	0.302734	0.116996	0.377514
	C168	C	0.862148	0.389611	0.178051
	C169	C	0.102085	0.617427	0.176626
	C170	C	0.104357	0.390159	0.820370
	C171	C	0.861959	0.617432	0.820618
	C172	C	0.164435	0.880406	0.385859
	C173	C	0.160791	0.124109	0.613441
	C174	C	0.803688	0.126833	0.386379
	C175	C	0.806349	0.883126	0.613409
	C176	C	0.370127	0.182060	0.877757
	C177	C	0.596395	0.182023	0.119734
	C178	C	0.369871	0.824908	0.121343
	C179	C	0.595909	0.823486	0.878632
	C180	C	0.370476	0.882409	0.179731
	C181	C	0.596668	0.124597	0.177583
	C182	C	0.370288	0.123762	0.820445
	C183	C	0.596187	0.880829	0.820640
	C184	C	0.862422	0.182778	0.385678
	C185	C	0.102917	0.181613	0.612944
	C186	C	0.105715	0.824020	0.385241
	C187	C	0.864327	0.826123	0.613319
	C188	C	0.162907	0.390630	0.877086
	C189	C	0.160397	0.616848	0.120498
	C190	C	0.803891	0.389831	0.120589
	C191	C	0.802720	0.616738	0.876401
	C192	C	0.384155	0.096958	0.596633
	C193	C	0.583560	0.909228	0.597664
	C194	C	0.581554	0.096988	0.402425
	C195	C	0.386647	0.910869	0.403199
	C196	C	0.581609	0.405649	0.091459
	C197	C	0.579913	0.600090	0.905237
	C198	C	0.383766	0.601168	0.092532
	C199	C	0.385249	0.406427	0.905496
	C200	C	0.075991	0.601062	0.399912
	C201	C	0.890657	0.602569	0.596998
	C202	C	0.076181	0.404948	0.597112
	C203	C	0.890484	0.405767	0.400942
	C204	C	0.884556	0.596429	0.095406
	C205	C	0.080858	0.409704	0.096226
	C206	C	0.081313	0.598032	0.900816
	C207	C	0.885403	0.410030	0.901396
	C208	C	0.082287	0.905262	0.592318
	C209	C	0.081639	0.099991	0.406177
	C210	C	0.885216	0.101469	0.592637
	C211	C	0.885896	0.906397	0.405559
	C212	C	0.576464	0.101413	0.900185
	C213	C	0.390788	0.101999	0.097542
	C214	C	0.575745	0.904265	0.097197
	C215	C	0.389945	0.904841	0.900485
	Zn216	Zn	0.483602	0.002849	0.748523
	Zn217	Zn	0.483934	0.004170	0.250141
	Zn218	Zn	0.732543	0.503104	-0.002229
	Zn219	Zn	0.232182	0.503880	-0.000769
	Zn220	Zn	-0.015993	0.753849	0.499050
	Zn221	Zn	-0.017072	0.253263	0.498642
	Zn222	Zn	-0.016843	0.504163	0.749219
	Zn223	Zn	-0.016818	0.503606	0.248213
	Zn224	Zn	0.482198	0.752526	-0.001096
	Zn225	Zn	0.483255	0.253646	-0.001178
	Zn226	Zn	0.733884	0.003500	0.499243
	Zn227	Zn	0.233689	0.002894	0.499956
	N228	N	0.398772	0.965976	0.676552
	N229	N	0.568972	0.040236	0.677210
	N230	N	0.569641	0.966531	0.321255
	N231	N	0.397663	0.041164	0.321425
	N232	N	0.663725	0.415202	0.961944
	N233	N	0.662300	0.590251	0.034372
	N234	N	0.302403	0.590961	0.962570
	N235	N	0.303355	0.416968	0.035182
	N236	N	0.946936	0.682812	0.412985
	N237	N	0.020195	0.682377	0.584942
	N238	N	0.946944	0.324328	0.585713
	N239	N	0.019559	0.324373	0.412624
	N240	N	0.947092	0.416921	0.678936
	N241	N	0.019576	0.590646	0.678585
	N242	N	0.946959	0.590985	0.318649
	N243	N	0.019886	0.416999	0.319346
	N244	N	0.397016	0.681424	0.961713
	N245	N	0.567181	0.680403	0.035783
	N246	N	0.568329	0.325213	0.961097
	N247	N	0.397515	0.325202	0.035805
	N248	N	0.663242	0.966689	0.413332
	N249	N	0.664514	0.039223	0.587389
	N250	N	0.303350	0.966733	0.586961
	N251	N	0.303184	0.039983	0.412864
	N252	N	0.896970	0.466347	0.177787
	N253	N	0.067622	0.540559	0.176343
	N254	N	0.068927	0.467013	0.820474
	N255	N	0.897914	0.540814	0.821297
	N256	N	0.164863	0.915182	0.463007
	N257	N	0.162241	0.089152	0.536672
	N258	N	0.803121	0.091722	0.463321
	N259	N	0.805453	0.917750	0.536251
	N260	N	0.446801	0.182761	0.912284
	N261	N	0.520049	0.182779	0.085356
	N262	N	0.446047	0.823917	0.085803
	N263	N	0.519257	0.823499	0.913080
	N264	N	0.446966	0.916718	0.179865
	N265	N	0.520107	0.090079	0.178385
	N266	N	0.446837	0.089127	0.819860
	N267	N	0.519904	0.916259	0.819912
	N268	N	0.897491	0.182381	0.462340
	N269	N	0.068778	0.181901	0.535681
	N270	N	0.070201	0.824382	0.461773
	N271	N	0.899284	0.826249	0.536305
	N272	N	0.163306	0.467878	0.911583
	N273	N	0.161645	0.539672	0.085940
	N274	N	0.802965	0.466844	0.085535
	N275	N	0.802491	0.539702	0.911240
	O276	O	0.014205	0.041229	-0.146344
	H277	H	0.016027	0.045843	-0.161233
	H278	H	0.031679	0.034869	-0.139897
	O279	O	-0.460061	0.580494	-0.537107
	H280	H	-0.467532	0.587948	-0.535463
	H281	H	-0.458389	0.573547	-0.537235
	O282	O	0.939536	-0.040756	-0.042454
	H283	H	0.923697	-0.046232	-0.036921
	H284	H	0.941617	-0.033491	-0.038807
	O285	O	0.022804	0.906430	-0.002881
	H286	H	0.029885	0.903565	0.006533
	H287	H	0.022342	0.899411	0.000488
	O288	O	0.406101	0.551471	0.554623
	H289	H	0.404287	0.546589	0.559407
	H290	H	0.407708	0.548875	0.553956
	O291	O	0.963182	-0.044726	0.982613
	H292	H	0.953444	-0.050959	0.971012
	H293	H	0.970801	-0.039002	0.984388
	O294	O	1.484843	0.527468	0.513866
	H295	H	1.485610	0.525210	0.531486
	H296	H	1.477272	0.526955	0.514665
	O297	O	-0.146500	0.094068	-0.106269
	H298	H	-0.137145	0.090042	-0.107830
	H299	H	-0.148574	0.082191	-0.105026
	O300	O	0.884648	0.892764	1.077771
	H301	H	0.874334	0.894253	1.092404
	H302	H	0.882465	0.876507	1.079732
	O303	O	0.048039	1.142244	1.069545
	H304	H	0.029977	1.142056	1.082038
	H305	H	0.049119	1.135299	1.077931
	O306	O	0.519688	0.569263	0.591966
	H307	H	0.516747	0.559159	0.596573
	H308	H	0.521642	0.575299	0.581432
	O309	O	1.050535	0.143943	0.126493
	H310	H	1.057720	0.149406	0.141825
	H311	H	1.060715	0.158789	0.124937
	O312	O	0.004901	-0.061568	1.015221
	H313	H	0.003305	-0.068386	1.007660
	H314	H	0.005932	-0.063645	1.012917
	O315	O	0.527947	0.492446	0.520368
	H316	H	0.526936	0.500260	0.509860
	H317	H	0.521688	0.497450	0.526742
	O318	O	0.516711	0.443055	0.310262
	H319	H	0.521069	0.445788	0.334185
	H320	H	0.518582	0.422741	0.292963
	O321	O	0.420304	0.326891	0.487275
	H322	H	0.422323	0.323733	0.492877
	H323	H	0.408618	0.325783	0.477363
	O324	O	0.037537	-0.092284	-0.163651
	H325	H	0.042402	-0.072179	-0.144272
	H326	H	0.044219	-0.088899	-0.187456
	O327	O	-0.147599	1.155897	0.956938
	H328	H	-0.169987	1.163908	0.956407
	H329	H	-0.145856	1.146763	0.945130
	O330	O	0.329073	0.617758	0.550986
	H331	H	0.329946	0.604670	0.560744
	H332	H	0.324632	0.608851	0.562150
	O333	O	0.054643	0.914649	1.039775
	H334	H	0.057596	0.909126	1.036105
	H335	H	0.059767	0.908141	1.031023
	O336	O	1.473320	0.633871	0.519129
	H337	H	1.471577	0.644031	0.509088
	H338	H	1.469775	0.636405	0.523357
	O339	O	0.548567	0.454815	0.553758
	H340	H	0.552199	0.464121	0.539710
	H341	H	0.548157	0.440009	0.558451
	O342	O	0.932089	-0.105409	0.122720
	H343	H	0.937930	-0.103721	0.111952
	H344	H	0.940049	-0.113599	0.114857
	O345	O	0.401299	0.496766	0.383178
	H346	H	0.405147	0.497414	0.380915
	H347	H	0.401851	0.499188	0.391836
	O348	O	1.013382	1.015636	1.090717
	H349	H	1.019466	1.010590	1.094804
	H350	H	1.019716	1.000823	1.081057
	O351	O	1.402529	1.517126	0.420789
	H352	H	1.413259	1.517712	0.427291
	H353	H	1.392316	1.519141	0.408689
	O354	O	1.062076	-0.013377	0.888605
	H355	H	1.060608	0.005198	0.889736
	H356	H	1.067094	-0.005477	0.886694
	O357	O	0.463094	0.533063	0.453308
	H358	H	0.464464	0.530429	0.452115
	H359	H	0.469095	0.525564	0.453290
	O360	O	0.051065	-0.034456	0.044675
	H361	H	0.058448	-0.042677	0.050913
	H362	H	0.050019	-0.035277	0.051830
	O363	O	0.540632	0.603264	0.560476
	H364	H	0.536824	0.603841	0.560087
	H365	H	0.530662	0.604756	0.568241
	O366	O	0.510601	0.553595	0.473376
	H367	H	0.505197	0.561490	0.457590
	H368	H	0.498576	0.557600	0.473669
	O369	O	0.615295	0.550626	0.425937
	H370	H	0.615191	0.540981	0.429790
	H371	H	0.617484	0.556132	0.429823
	O372	O	-0.090984	1.044841	0.989488
	H373	H	-0.103913	1.057404	0.995234
	H374	H	-0.096695	1.035328	0.987508
	O375	O	1.546070	0.477410	0.344677
	H376	H	1.547221	0.483249	0.336100
	H377	H	1.555275	0.477083	0.362704
	O378	O	0.343658	0.423500	0.649866
	H379	H	0.340115	0.429158	0.653790
	H380	H	0.356211	0.412022	0.638732
	O381	O	1.018163	0.044213	0.084582
	H382	H	1.015116	0.048377	0.079418
	H383	H	1.020147	0.042949	0.081313
	O384	O	0.582066	1.315672	0.428589
	H385	H	0.565273	1.322060	0.430885
	H386	H	0.588299	1.311783	0.416807
	O387	O	1.645911	-0.563225	0.571764
	H388	H	1.652239	-0.560628	0.568357
	H389	H	1.649108	-0.550434	0.564044
	O390	O	-0.034764	1.028384	0.028032
	H391	H	-0.042545	1.031924	0.032383
	H392	H	-0.048858	1.029503	0.034547
	O393	O	1.353299	1.444775	0.593078
	H394	H	1.363460	1.428481	0.598457
	H395	H	1.344843	1.441494	0.594156
	O396	O	0.322003	0.502436	0.461273
	H397	H	0.317101	0.516655	0.451960
	H398	H	0.317605	0.500783	0.462736
	O399	O	-0.350533	0.411754	1.434301
	H400	H	-0.349710	0.424183	1.428759
	H401	H	-0.334346	0.405767	1.432074
	O402	O	0.987412	1.057187	0.921257
	H403	H	0.976742	1.062473	0.921469
	H404	H	0.987459	1.070750	0.927057
	O405	O	-0.012810	0.997632	-0.003304
	H406	H	-0.030158	0.993549	-0.004902
	H407	H	-0.013643	0.998097	0.005076
