data_Molecule from HDF5

_cell_length_a		16.446719
_cell_length_b		16.462990
_cell_length_c		16.440744
_cell_angle_alpha	89.933291
_cell_angle_beta	89.962539
_cell_angle_gamma	90.018341
_symmetry_space_group_name_H-M	'P 1'
_symmetry_Int_Tables_number		1

loop_
	_symmetry_equiv_pos_as_xyz
	x,y,z

loop_
	_atom_site_label
	_atom_site_type_symbol
	_atom_site_fract_x
	_atom_site_fract_y
	_atom_site_fract_z
	H0	H	0.388273	0.838667	0.730005
	H1	H	0.596615	0.154971	0.730233
	H2	H	0.596803	0.838565	0.288313
	H3	H	0.383077	0.154694	0.285292
	H4	H	0.711330	0.394712	0.851548
	H5	H	0.716366	0.605552	0.166541
	H6	H	0.270823	0.605355	0.849952
	H7	H	0.267997	0.391708	0.165886
	H8	H	0.834617	0.720564	0.401102
	H9	H	0.150670	0.716619	0.612983
	H10	H	0.834545	0.275963	0.613661
	H11	H	0.149444	0.274222	0.399791
	H12	H	0.834398	0.391902	0.729662
	H13	H	0.149607	0.600293	0.728618
	H14	H	0.834601	0.605290	0.284248
	H15	H	0.149769	0.392230	0.284860
	H16	H	0.388227	0.720151	0.850348
	H17	H	0.597387	0.718212	0.168797
	H18	H	0.598163	0.274922	0.853407
	H19	H	0.383507	0.275348	0.166833
	H20	H	0.714480	0.840072	0.401824
	H21	H	0.714710	0.153831	0.615351
	H22	H	0.270377	0.839172	0.615230
	H23	H	0.268186	0.155069	0.402099
	H24	H	0.882755	0.341304	0.232834
	H25	H	0.097535	0.655006	0.229715
	H26	H	0.096329	0.338242	0.788016
	H27	H	0.885807	0.654119	0.784488
	H28	H	0.213910	0.892010	0.351416
	H29	H	0.213695	0.102840	0.667060
	H30	H	0.768350	0.103881	0.351822
	H31	H	0.770167	0.891335	0.667289
	H32	H	0.333278	0.219368	0.904469
	H33	H	0.649154	0.219305	0.114967
	H34	H	0.333718	0.778129	0.111775
	H35	H	0.651026	0.777285	0.904417
	H36	H	0.333473	0.892912	0.229368
	H37	H	0.648453	0.104348	0.232423
	H38	H	0.333444	0.102386	0.788607
	H39	H	0.651716	0.893047	0.788655
	H40	H	0.883875	0.220863	0.351453
	H41	H	0.098955	0.220512	0.665599
	H42	H	0.096966	0.776607	0.350727
	H43	H	0.887958	0.776414	0.667834
	H44	H	0.215607	0.340366	0.900823
	H45	H	0.212280	0.655443	0.111598
	H46	H	0.768995	0.341049	0.115019
	H47	H	0.767385	0.654358	0.898208
	H48	H	0.404835	0.108253	0.595332
	H49	H	0.582253	0.882517	0.602593
	H50	H	0.575211	0.107900	0.420375
	H51	H	0.407052	0.886797	0.419058
	H52	H	0.581169	0.410071	0.123266
	H53	H	0.592116	0.587609	0.893246
	H54	H	0.401886	0.586869	0.121374
	H55	H	0.401078	0.413172	0.897441
	H56	H	0.102955	0.579338	0.419100
	H57	H	0.879664	0.584242	0.594828
	H58	H	0.105622	0.403515	0.593423
	H59	H	0.879552	0.407932	0.421476
	H60	H	0.102631	0.413184	0.594983
	H61	H	0.878411	0.585489	0.598841
	H62	H	0.106509	0.588131	0.415194
	H63	H	0.880950	0.410886	0.422582
	H64	H	0.402938	0.586487	0.121615
	H65	H	0.576036	0.576304	0.901956
	H66	H	0.578824	0.411033	0.122428
	H67	H	0.408543	0.408709	0.897398
	H68	H	0.581465	0.108152	0.425784
	H69	H	0.576932	0.884708	0.598156
	H70	H	0.399040	0.111082	0.598452
	H71	H	0.402040	0.886917	0.425384
	H72	H	0.902255	0.612709	0.098138
	H73	H	0.083022	0.384191	0.095342
	H74	H	0.077310	0.608250	0.919967
	H75	H	0.899337	0.383801	0.919524
	H76	H	0.079505	0.905613	0.622509
	H77	H	0.077387	0.090851	0.394725
	H78	H	0.905339	0.088565	0.621398
	H79	H	0.910175	0.905723	0.397851
	H80	H	0.607328	0.096037	0.921447
	H81	H	0.378202	0.081629	0.103029
	H82	H	0.606488	0.904618	0.097600
	H83	H	0.377075	0.907598	0.914525
	H84	H	0.604640	0.911434	0.097092
	H85	H	0.376135	0.093320	0.098949
	H86	H	0.600378	0.082813	0.928184
	H87	H	0.379756	0.903498	0.924436
	H88	H	0.900652	0.085245	0.621768
	H89	H	0.085978	0.082872	0.395035
	H90	H	0.082771	0.906352	0.623814
	H91	H	0.899105	0.904482	0.393367
	H92	H	0.084100	0.609483	0.920852
	H93	H	0.077808	0.384098	0.098444
	H94	H	0.907591	0.609177	0.096673
	H95	H	0.904741	0.385417	0.918160
	H96	H	0.405174	0.110592	0.601989
	H97	H	0.583866	0.884331	0.595584
	H98	H	0.582508	0.111184	0.418015
	H99	H	0.399922	0.883741	0.418749
	H100	H	0.579346	0.407880	0.122899
	H101	H	0.573256	0.596772	0.896932
	H102	H	0.402539	0.587960	0.121250
	H103	H	0.401804	0.405402	0.894098
	H104	H	0.103621	0.588009	0.424780
	H105	H	0.878102	0.588102	0.595321
	H106	H	0.107625	0.407971	0.602183
	H107	H	0.880027	0.410456	0.418897
	H108	H	0.903006	0.609072	0.092461
	H109	H	0.077629	0.386901	0.093190
	H110	H	0.080663	0.611404	0.914958
	H111	H	0.902533	0.386945	0.923223
	H112	H	0.081108	0.909067	0.621487
	H113	H	0.075355	0.080536	0.399633
	H114	H	0.905984	0.082477	0.619547
	H115	H	0.902043	0.914964	0.398154
	H116	H	0.605517	0.082357	0.912695
	H117	H	0.381266	0.085091	0.091382
	H118	H	0.607662	0.909336	0.103295
	H119	H	0.382012	0.913588	0.921671
	C120	C	0.370497	0.005471	0.631130
	C121	C	0.613362	0.988283	0.630589
	C122	C	0.612983	0.005301	0.387947
	C123	C	0.369591	0.989463	0.387838
	C124	C	0.612420	0.377065	0.018606
	C125	C	0.613961	0.619867	1.001271
	C126	C	0.370945	0.619349	0.016415
	C127	C	0.370458	0.376440	1.000392
	C128	C	0.000437	0.618990	0.386290
	C129	C	0.983310	0.617742	0.629136
	C130	C	0.001023	0.375798	0.629100
	C131	C	0.983680	0.376037	0.386548
	C132	C	0.870647	0.506571	0.129350
	C133	C	0.112710	0.488964	0.128613
	C134	C	0.113936	0.505606	0.885702
	C135	C	0.869925	0.489338	0.887148
	C136	C	0.113788	0.874855	0.518152
	C137	C	0.113213	0.118564	0.500209
	C138	C	0.870638	0.118419	0.516849
	C139	C	0.870604	0.875370	0.500502
	C140	C	0.499885	0.119257	0.888280
	C141	C	0.482360	0.119527	0.131396
	C142	C	0.501261	0.876472	0.130858
	C143	C	0.484301	0.876287	0.888174
	C144	C	0.369300	0.886168	0.690304
	C145	C	0.615383	0.107421	0.690383
	C146	C	0.615363	0.886462	0.327869
	C147	C	0.365979	0.107550	0.326175
	C148	C	0.672015	0.375422	0.899285
	C149	C	0.675653	0.623214	0.119590
	C150	C	0.311249	0.622382	0.897465
	C151	C	0.308858	0.373773	0.118834
	C152	C	0.881926	0.680000	0.383292
	C153	C	0.102860	0.677009	0.631347
	C154	C	0.881919	0.315905	0.631795
	C155	C	0.102044	0.314564	0.382152
	C156	C	0.881736	0.373609	0.689319
	C157	C	0.102425	0.619254	0.689009
	C158	C	0.882070	0.622822	0.324852
	C159	C	0.102314	0.373320	0.324987
	C160	C	0.369527	0.680114	0.897925
	C161	C	0.616213	0.679291	0.120629
	C162	C	0.615509	0.316218	0.900014
	C163	C	0.366237	0.315741	0.119254
	C164	C	0.673934	0.887057	0.384645
	C165	C	0.673928	0.107202	0.632968
	C166	C	0.310651	0.886484	0.633204
	C167	C	0.308410	0.107631	0.384394
	C168	C	0.865985	0.388404	0.191782
	C169	C	0.115576	0.607808	0.189120
	C170	C	0.115685	0.386334	0.826606
	C171	C	0.867150	0.607083	0.825067
	C172	C	0.173890	0.873309	0.398737
	C173	C	0.173700	0.121333	0.619414
	C174	C	0.808916	0.121778	0.398812
	C175	C	0.810325	0.872861	0.619840
	C176	C	0.380787	0.179129	0.886297
	C177	C	0.601283	0.179790	0.133989
	C178	C	0.381309	0.817459	0.131404
	C179	C	0.603717	0.816975	0.886278
	C180	C	0.381335	0.874786	0.189623
	C181	C	0.601105	0.122377	0.192131
	C182	C	0.380819	0.121072	0.828531
	C183	C	0.603742	0.874661	0.828407
	C184	C	0.866651	0.179972	0.398716
	C185	C	0.116906	0.180027	0.618566
	C186	C	0.115814	0.815664	0.398596
	C187	C	0.868720	0.815705	0.620214
	C188	C	0.175211	0.387500	0.882766
	C189	C	0.172697	0.608129	0.130568
	C190	C	0.809344	0.387967	0.133089
	C191	C	0.808552	0.607343	0.882204
	C192	C	0.395774	0.088431	0.605816
	C193	C	0.588483	0.905450	0.605775
	C194	C	0.587076	0.087716	0.413776
	C195	C	0.395487	0.907038	0.413653
	C196	C	0.587041	0.402373	0.101194
	C197	C	0.588016	0.594249	0.918931
	C198	C	0.395375	0.594019	0.099796
	C199	C	0.396484	0.401822	0.917836
	C200	C	0.082908	0.592686	0.412321
	C201	C	0.900357	0.592989	0.603867
	C202	C	0.083761	0.400887	0.604066
	C203	C	0.901824	0.402194	0.413293
	C204	C	0.896716	0.588681	0.103059
	C205	C	0.086962	0.406559	0.103123
	C206	C	0.088098	0.588276	0.911168
	C207	C	0.894922	0.406888	0.912947
	C208	C	0.088532	0.899923	0.600869
	C209	C	0.087066	0.092345	0.418002
	C210	C	0.896638	0.092708	0.599328
	C211	C	0.896175	0.901260	0.418126
	C212	C	0.582843	0.094460	0.913560
	C213	C	0.399859	0.094045	0.105333
	C214	C	0.584490	0.901242	0.106359
	C215	C	0.401243	0.900992	0.913145
	Zn216	Zn	0.491810	-0.002610	0.759914
	Zn217	Zn	0.491753	-0.002879	0.259348
	Zn218	Zn	0.741797	0.498541	0.008976
	Zn219	Zn	0.241763	0.497847	0.007862
	Zn220	Zn	-0.008359	0.746616	0.508934
	Zn221	Zn	-0.007776	0.247215	0.508276
	Zn222	Zn	-0.008461	0.496746	0.757646
	Zn223	Zn	-0.008355	0.497581	0.257907
	Zn224	Zn	0.493042	0.748076	0.009661
	Zn225	Zn	0.491253	0.248135	0.009977
	Zn226	Zn	0.741720	-0.003632	0.508703
	Zn227	Zn	0.241240	-0.002853	0.509805
	N228	N	0.405553	0.961342	0.689267
	N229	N	0.578655	0.032624	0.689077
	N230	N	0.578309	0.961267	0.329678
	N231	N	0.403321	0.032869	0.328161
	N232	N	0.670341	0.412469	0.974166
	N233	N	0.674572	0.587056	0.044352
	N234	N	0.312071	0.585347	0.972317
	N235	N	0.311249	0.410939	0.043843
	N236	N	0.956682	0.677801	0.420752
	N237	N	0.027725	0.676308	0.594880
	N238	N	0.957059	0.316966	0.595247
	N239	N	0.027227	0.315943	0.419460
	N240	N	0.956812	0.410143	0.687769
	N241	N	0.027069	0.583341	0.687858
	N242	N	0.956815	0.585667	0.326577
	N243	N	0.027690	0.410586	0.327336
	N244	N	0.406210	0.678143	0.972996
	N245	N	0.578986	0.677608	0.045897
	N246	N	0.579135	0.317218	0.975163
	N247	N	0.403890	0.317458	0.044660
	N248	N	0.672711	0.962051	0.421162
	N249	N	0.672806	0.032054	0.596570
	N250	N	0.311334	0.961855	0.597144
	N251	N	0.310575	0.033216	0.422155
	N252	N	0.903246	0.463143	0.189583
	N253	N	0.078942	0.532771	0.188088
	N254	N	0.078484	0.461193	0.828145
	N255	N	0.904850	0.532846	0.828170
	N256	N	0.173133	0.908995	0.474132
	N257	N	0.171524	0.083817	0.544777
	N258	N	0.811299	0.084242	0.473322
	N259	N	0.811294	0.909099	0.544514
	N260	N	0.456053	0.178266	0.922510
	N261	N	0.526322	0.178338	0.096972
	N262	N	0.457055	0.818108	0.095692
	N263	N	0.528518	0.817712	0.922507
	N264	N	0.456873	0.910376	0.189400
	N265	N	0.526061	0.085962	0.190895
	N266	N	0.455955	0.084747	0.829464
	N267	N	0.528372	0.910772	0.829366
	N268	N	0.904348	0.177960	0.473231
	N269	N	0.080346	0.178562	0.543430
	N270	N	0.079413	0.816249	0.473795
	N271	N	0.905570	0.817113	0.545183
	N272	N	0.174302	0.462785	0.918639
	N273	N	0.171091	0.533235	0.093757
	N274	N	0.811965	0.462327	0.095132
	N275	N	0.810112	0.533009	0.920166
	O276	O	0.972504	1.018465	0.838552
	H277	H	0.959035	1.006671	0.834011
	H278	H	0.969056	1.014925	0.838301
	O279	O	0.910630	0.046113	1.156020
	H280	H	0.913188	0.051853	1.163831
	H281	H	0.907575	0.035819	1.152619
	O282	O	0.522576	0.477384	0.679293
	H283	H	0.519709	0.473408	0.669455
	H284	H	0.525440	0.486375	0.684659
	O285	O	0.304712	0.308771	0.697374
	H286	H	0.294529	0.333967	0.680476
	H287	H	0.298212	0.323588	0.670344
	O288	O	1.080210	1.206197	0.215622
	H289	H	1.106153	1.210793	0.194652
	H290	H	1.083639	1.225341	0.233506
	O291	O	0.464817	0.707612	0.336824
	H292	H	0.471665	0.721693	0.319962
	H293	H	0.440749	0.702601	0.329251
	O294	O	0.075382	-0.207081	1.018392
	H295	H	0.057231	-0.200970	1.024878
	H296	H	0.067569	-0.201898	1.029537
	O297	O	0.329563	0.494609	0.503494
	H298	H	0.344002	0.498702	0.498735
	H299	H	0.334306	0.499245	0.519083
	O300	O	0.437899	0.692526	0.675881
	H301	H	0.448279	0.660094	0.666432
	H302	H	0.434425	0.709009	0.662660
	O303	O	0.149325	1.149261	0.115747
	H304	H	0.143584	1.143713	0.102139
	H305	H	0.155430	1.157727	0.103717
	O306	O	0.452015	0.354533	0.420833
	H307	H	0.442891	0.357979	0.432772
	H308	H	0.463016	0.360509	0.440193
	O309	O	1.514138	-0.461180	0.364495
	H310	H	1.527417	-0.449988	0.373876
	H311	H	1.527013	-0.468966	0.359165
	O312	O	-0.011984	1.209388	0.831206
	H313	H	-0.024784	1.212522	0.822145
	H314	H	-0.026364	1.203905	0.817213
	O315	O	0.294243	0.524430	0.302310
	H316	H	0.299692	0.509896	0.292512
	H317	H	0.302773	0.504116	0.304236
	O318	O	1.189942	-0.183771	-0.085562
	H319	H	1.192124	-0.184831	-0.078985
	H320	H	1.194505	-0.197480	-0.077451
	O321	O	0.199656	-0.025800	-0.174708
	H322	H	0.206118	-0.035192	-0.188011
	H323	H	0.198034	-0.043114	-0.170978
	O324	O	0.278676	0.282096	0.536425
	H325	H	0.275332	0.292420	0.515484
	H326	H	0.263526	0.260092	0.527083
	O327	O	0.689217	0.681584	0.512205
	H328	H	0.697000	0.704443	0.527914
	H329	H	0.677945	0.684954	0.527107
	O330	O	0.103033	1.045286	0.029435
	H331	H	0.110096	1.028558	0.029196
	H332	H	0.099901	1.043918	0.000844
	O333	O	0.978548	-0.164684	0.937323
	H334	H	0.987551	-0.161211	0.936316
	H335	H	0.996111	-0.162140	0.925892
	O336	O	0.017841	-0.201885	0.208926
	H337	H	-0.011501	-0.182056	0.206383
	H338	H	0.005387	-0.219878	0.219072
	O339	O	0.298538	0.687851	1.314078
	H340	H	0.303037	0.687185	1.293900
	H341	H	0.287688	0.652425	1.297968
	O342	O	0.100467	1.098001	1.143676
	H343	H	0.092476	1.093369	1.130444
	H344	H	0.096999	1.083773	1.158089
	O345	O	0.880774	0.988713	-0.110908
	H346	H	0.863324	1.000023	-0.137741
	H347	H	0.875696	0.991528	-0.098543
	O348	O	-0.115373	1.092446	0.210120
	H349	H	-0.107154	1.112783	0.214279
	H350	H	-0.092642	1.097656	0.202534
	O351	O	0.013045	0.993876	1.149145
	H352	H	0.021871	0.997372	1.159791
	H353	H	0.006084	1.021759	1.144030
	O354	O	0.111447	1.042318	-0.114460
	H355	H	0.110731	1.035777	-0.134291
	H356	H	0.105291	1.048545	-0.115260
	O357	O	0.064536	0.187570	0.902619
	H358	H	0.064862	0.177845	0.885351
	H359	H	0.072891	0.189380	0.888670
	O360	O	0.621626	0.482724	0.563664
	H361	H	0.622511	0.467075	0.579961
	H362	H	0.606369	0.475980	0.557418
	O363	O	0.516405	-0.462854	0.384329
	H364	H	0.526214	-0.456664	0.392321
	H365	H	0.513550	-0.456035	0.376377
	O366	O	0.460893	0.303031	0.704394
	H367	H	0.430004	0.294759	0.706336
	H368	H	0.445368	0.287490	0.720699
	O369	O	0.603219	0.288878	0.542356
	H370	H	0.623424	0.295309	0.547547
	H371	H	0.599842	0.280016	0.564506
	O372	O	0.799483	0.188214	0.813963
	H373	H	0.792291	0.198001	0.866404
	H374	H	0.806586	0.211887	0.796685
	O375	O	0.631971	0.356224	0.689249
	H376	H	0.617157	0.367051	0.675552
	H377	H	0.625696	0.359842	0.687282
	O378	O	0.486482	0.457614	0.491635
	H379	H	0.501462	0.457909	0.495665
	H380	H	0.481449	0.443997	0.471719
	O381	O	0.439095	0.472598	0.355454
	H382	H	0.446214	0.473874	0.362677
	H383	H	0.452698	0.481930	0.362981
	O384	O	0.290809	0.474102	0.721969
	H385	H	0.286091	0.488950	0.717854
	H386	H	0.291568	0.485705	0.744508
	O387	O	-0.300349	0.495899	0.297428
	H388	H	-0.295681	0.514834	0.305603
	H389	H	-0.282537	0.506433	0.293776
	O390	O	0.009479	0.203097	0.091062
	H391	H	0.012335	0.214186	0.082261
	H392	H	0.024126	0.204369	0.091552
	O393	O	1.121160	0.854717	1.136282
	H394	H	1.111039	0.855831	1.139406
	H395	H	1.121314	0.871176	1.119185
	O396	O	0.977597	-0.092763	-0.142074
	H397	H	0.959118	-0.088811	-0.137453
	H398	H	0.972177	-0.105866	-0.154893
	O399	O	1.128200	-0.017249	1.110119
	H400	H	1.135867	-0.005539	1.110256
	H401	H	1.128947	-0.041282	1.099722
	O402	O	1.598719	0.672990	0.706358
	H403	H	1.593635	0.674136	0.688632
	H404	H	1.584610	0.696105	0.715327
	O405	O	0.940916	0.803389	-0.041570
	H406	H	0.936617	0.802863	-0.025496
	H407	H	0.936935	0.826074	-0.036457
	O408	O	0.783331	0.203387	-0.021063
	H409	H	0.769795	0.203709	-0.007532
	H410	H	0.788471	0.204678	0.002644
	O411	O	0.806199	0.813182	0.197781
	H412	H	0.800148	0.857916	0.204232
	H413	H	0.808168	0.811667	0.162606
	O414	O	-0.217228	0.979196	1.218203
	H415	H	-0.229982	0.995994	1.233962
	H416	H	-0.196367	0.999190	1.227882
	O417	O	0.525525	0.677658	0.585163
	H418	H	0.527181	0.688976	0.582584
	H419	H	0.516221	0.677545	0.599894
	O420	O	0.686623	0.514795	0.452988
	H421	H	0.682751	0.538557	0.466894
	H422	H	0.688825	0.499463	0.457717
	O423	O	0.275801	1.712882	0.479451
	H424	H	0.260978	1.723059	0.452446
	H425	H	0.264471	1.725855	0.451319
	O426	O	1.123529	0.818376	-0.181596
	H427	H	1.130088	0.823971	-0.177566
	H428	H	1.127096	0.812681	-0.174819
	O429	O	0.388338	0.636774	0.526090
	H430	H	0.378061	0.652555	0.518600
	H431	H	0.386440	0.636131	0.517700
	O432	O	0.816256	0.022044	-0.181907
	H433	H	0.799811	0.047398	-0.203214
	H434	H	0.809148	0.043498	-0.169807
	O435	O	0.685094	0.545125	0.701694
	H436	H	0.675060	0.555545	0.702016
	H437	H	0.684732	0.543599	0.714131
	O438	O	-0.216815	-0.215253	0.031667
	H439	H	-0.195725	-0.220013	0.030371
	H440	H	-0.240134	-0.236386	0.027053
	O441	O	0.821789	0.061960	0.034665
	H442	H	0.828189	0.051355	0.057569
	H443	H	0.838726	0.049990	0.030697
	O444	O	0.491293	1.287725	0.326794
	H445	H	0.495652	1.279138	0.301737
	H446	H	0.485826	1.275221	0.343792
	O447	O	-0.321020	0.308673	0.322511
	H448	H	-0.322146	0.328726	0.332819
	H449	H	-0.345598	0.325330	0.315880
	O450	O	0.631695	0.280578	0.496219
	H451	H	0.646904	0.271101	0.495666
	H452	H	0.643731	0.276272	0.471838
	O453	O	0.356768	0.462001	0.591088
	H454	H	0.359455	0.486675	0.590209
	H455	H	0.363827	0.464900	0.588455
