data_Molecule from HDF5

_cell_length_a		16.649229
_cell_length_b		16.504542
_cell_length_c		16.628368
_cell_angle_alpha	90.076056
_cell_angle_beta	89.990105
_cell_angle_gamma	90.028409
_symmetry_space_group_name_H-M	'P 1'
_symmetry_Int_Tables_number		1

loop_
	_symmetry_equiv_pos_as_xyz
	x,y,z

loop_
	_atom_site_label
	_atom_site_type_symbol
	_atom_site_fract_x
	_atom_site_fract_y
	_atom_site_fract_z
	H0	H	0.367343	0.845633	0.709694
	H1	H	0.579670	0.158189	0.713547
	H2	H	0.577337	0.845681	0.269591
	H3	H	0.361969	0.155103	0.264242
	H4	H	0.698849	0.390188	0.836030
	H5	H	0.696527	0.611023	0.142082
	H6	H	0.250602	0.606545	0.833514
	H7	H	0.247858	0.393528	0.143234
	H8	H	0.816389	0.722975	0.386042
	H9	H	0.127323	0.725105	0.596672
	H10	H	0.816336	0.279340	0.595802
	H11	H	0.127622	0.280690	0.384478
	H12	H	0.819530	0.391552	0.715899
	H13	H	0.127250	0.608916	0.713267
	H14	H	0.817347	0.608754	0.267280
	H15	H	0.126280	0.395882	0.266243
	H16	H	0.367572	0.722573	0.833451
	H17	H	0.578619	0.725264	0.143330
	H18	H	0.579179	0.277564	0.833923
	H19	H	0.366200	0.279565	0.144291
	H20	H	0.692850	0.846133	0.385311
	H21	H	0.695209	0.158608	0.598087
	H22	H	0.249363	0.847337	0.596733
	H23	H	0.247397	0.156229	0.381296
	H24	H	0.864444	0.346504	0.212281
	H25	H	0.074077	0.659812	0.206922
	H26	H	0.081128	0.345441	0.765001
	H27	H	0.866428	0.656508	0.767723
	H28	H	0.196530	0.894545	0.336486
	H29	H	0.197503	0.112857	0.644453
	H30	H	0.750317	0.108454	0.334046
	H31	H	0.749770	0.895479	0.644731
	H32	H	0.315123	0.222426	0.884179
	H33	H	0.626524	0.225638	0.096191
	H34	H	0.315306	0.783241	0.091750
	H35	H	0.627664	0.781988	0.886731
	H36	H	0.316469	0.898094	0.210437
	H37	H	0.625331	0.111385	0.214628
	H38	H	0.316811	0.108177	0.766182
	H39	H	0.626746	0.895829	0.768174
	H40	H	0.869263	0.221846	0.332496
	H41	H	0.078816	0.226523	0.644767
	H42	H	0.080142	0.778596	0.335907
	H43	H	0.867944	0.780633	0.645576
	H44	H	0.195704	0.344966	0.881581
	H45	H	0.190732	0.659068	0.091755
	H46	H	0.747589	0.346392	0.097522
	H47	H	0.749364	0.655906	0.882773
	H48	H	0.383256	0.114770	0.577048
	H49	H	0.554811	0.892485	0.577552
	H50	H	0.555471	0.113111	0.401841
	H51	H	0.387459	0.889672	0.399443
	H52	H	0.554516	0.414780	0.097532
	H53	H	0.560776	0.583826	0.879507
	H54	H	0.379626	0.591607	0.102332
	H55	H	0.385076	0.414010	0.878104
	H56	H	0.080595	0.587015	0.406666
	H57	H	0.860956	0.589434	0.579952
	H58	H	0.081008	0.419236	0.577108
	H59	H	0.863593	0.416179	0.404420
	H60	H	0.084352	0.412710	0.580182
	H61	H	0.862247	0.589750	0.576733
	H62	H	0.084215	0.586365	0.391283
	H63	H	0.859996	0.416532	0.395046
	H64	H	0.380806	0.590316	0.101275
	H65	H	0.555555	0.589384	0.879588
	H66	H	0.560689	0.411341	0.101157
	H67	H	0.382072	0.410166	0.876626
	H68	H	0.562174	0.114064	0.406318
	H69	H	0.565354	0.891788	0.572835
	H70	H	0.384827	0.114839	0.578971
	H71	H	0.383700	0.891314	0.405672
	H72	H	0.883427	0.610861	0.070466
	H73	H	0.059470	0.389574	0.076840
	H74	H	0.059282	0.611575	0.901599
	H75	H	0.884037	0.391077	0.910327
	H76	H	0.064386	0.914815	0.602508
	H77	H	0.054595	0.090690	0.380802
	H78	H	0.884156	0.097888	0.603349
	H79	H	0.882670	0.914062	0.379027
	H80	H	0.579497	0.090200	0.910092
	H81	H	0.359876	0.087164	0.082062
	H82	H	0.584926	0.912010	0.079905
	H83	H	0.360223	0.910218	0.902358
	H84	H	0.583073	0.913843	0.077861
	H85	H	0.359307	0.094115	0.075624
	H86	H	0.580005	0.080372	0.897033
	H87	H	0.359194	0.915907	0.898341
	H88	H	0.876344	0.087155	0.602367
	H89	H	0.064358	0.092257	0.377848
	H90	H	0.058873	0.920507	0.598975
	H91	H	0.883361	0.910828	0.377451
	H92	H	0.061603	0.613622	0.902312
	H93	H	0.061979	0.388564	0.078094
	H94	H	0.876584	0.617088	0.080207
	H95	H	0.882942	0.386935	0.898966
	H96	H	0.385702	0.114285	0.576739
	H97	H	0.563502	0.887828	0.583228
	H98	H	0.561701	0.116721	0.398545
	H99	H	0.380137	0.887543	0.400570
	H100	H	0.561361	0.418643	0.098778
	H101	H	0.562322	0.590512	0.876615
	H102	H	0.381404	0.592365	0.101443
	H103	H	0.380220	0.414974	0.877884
	H104	H	0.086791	0.599576	0.399324
	H105	H	0.862673	0.587039	0.578369
	H106	H	0.081144	0.412210	0.572616
	H107	H	0.859020	0.408111	0.401125
	H108	H	0.889104	0.613416	0.082343
	H109	H	0.058954	0.388547	0.079149
	H110	H	0.060346	0.612807	0.899528
	H111	H	0.893032	0.392176	0.902941
	H112	H	0.056100	0.912601	0.600808
	H113	H	0.062082	0.083387	0.381443
	H114	H	0.888997	0.086803	0.597506
	H115	H	0.880626	0.912215	0.377186
	H116	H	0.586590	0.095640	0.896482
	H117	H	0.364065	0.085600	0.074106
	H118	H	0.583374	0.915110	0.080308
	H119	H	0.357420	0.909533	0.896251
	C120	C	0.351836	0.011181	0.610291
	C121	C	0.594092	0.993959	0.611484
	C122	C	0.592551	0.011272	0.369394
	C123	C	0.350425	0.992453	0.368526
	C124	C	0.592989	0.380263	-0.002666
	C125	C	0.592761	0.622271	0.980538
	C126	C	0.349655	0.623005	-0.001877
	C127	C	0.349955	0.379715	0.980397
	C128	C	-0.019277	0.623406	0.367761
	C129	C	0.964546	0.622158	0.611240
	C130	C	-0.019489	0.380371	0.610844
	C131	C	0.963692	0.381027	0.368034
	C132	C	0.849993	0.510649	0.110808
	C133	C	0.091868	0.493133	0.109377
	C134	C	0.094000	0.509449	0.867748
	C135	C	0.852357	0.492401	0.869844
	C136	C	0.093252	0.881598	0.498804
	C137	C	0.094076	0.123839	0.481888
	C138	C	0.851003	0.123338	0.497942
	C139	C	0.850571	0.880359	0.481024
	C140	C	0.479456	0.122052	0.868388
	C141	C	0.463205	0.123066	0.111088
	C142	C	0.480523	0.881185	0.110759
	C143	C	0.462352	0.880187	0.867780
	C144	C	0.348805	0.893133	0.670361
	C145	C	0.597276	0.110975	0.673352
	C146	C	0.595380	0.892973	0.309528
	C147	C	0.345512	0.109087	0.305964
	C148	C	0.656452	0.374233	0.881811
	C149	C	0.655181	0.627675	0.095947
	C150	C	0.290415	0.625054	0.880444
	C151	C	0.288974	0.376223	0.096880
	C152	C	0.863411	0.683128	0.366996
	C153	C	0.080930	0.683821	0.614267
	C154	C	0.863699	0.318946	0.614287
	C155	C	0.080784	0.320744	0.365679
	C156	C	0.865179	0.374843	0.674071
	C157	C	0.080779	0.626358	0.672558
	C158	C	0.863671	0.626260	0.308092
	C159	C	0.079978	0.377670	0.306751
	C160	C	0.348649	0.682642	0.880443
	C161	C	0.596652	0.684677	0.096535
	C162	C	0.597228	0.317825	0.880859
	C163	C	0.347508	0.319229	0.097215
	C164	C	0.652847	0.893318	0.367120
	C165	C	0.654829	0.111389	0.615642
	C166	C	0.290197	0.893984	0.614133
	C167	C	0.288388	0.109475	0.364051
	C168	C	0.846519	0.393418	0.172167
	C169	C	0.093123	0.612202	0.167811
	C170	C	0.098206	0.392258	0.805839
	C171	C	0.848634	0.609737	0.808325
	C172	C	0.155472	0.877139	0.382673
	C173	C	0.156057	0.129204	0.597892
	C174	C	0.790838	0.126142	0.380717
	C175	C	0.790652	0.877927	0.598250
	C176	C	0.362309	0.182711	0.865918
	C177	C	0.579564	0.185224	0.114670
	C178	C	0.362570	0.822370	0.111386
	C179	C	0.580554	0.821529	0.867485
	C180	C	0.363076	0.879423	0.170278
	C181	C	0.578897	0.128650	0.173776
	C182	C	0.362860	0.125539	0.807344
	C183	C	0.579982	0.877997	0.808510
	C184	C	0.849769	0.182795	0.379951
	C185	C	0.097140	0.186063	0.598195
	C186	C	0.097352	0.819636	0.382299
	C187	C	0.849047	0.820483	0.598528
	C188	C	0.155104	0.391871	0.864060
	C189	C	0.151200	0.611625	0.110633
	C190	C	0.788549	0.393312	0.114987
	C191	C	0.790413	0.609321	0.865324
	C192	C	0.377382	0.093342	0.584789
	C193	C	0.568546	0.911991	0.585225
	C194	C	0.567078	0.093360	0.394737
	C195	C	0.376640	0.910613	0.394513
	C196	C	0.566452	0.407294	0.078107
	C197	C	0.566847	0.595382	0.899558
	C198	C	0.373762	0.598369	0.080311
	C199	C	0.375453	0.405555	0.898744
	C200	C	0.062713	0.598099	0.392178
	C201	C	0.883319	0.596161	0.585654
	C202	C	0.061406	0.407154	0.584283
	C203	C	0.882062	0.406204	0.393280
	C204	C	0.875665	0.592566	0.085028
	C205	C	0.067054	0.410369	0.085114
	C206	C	0.067955	0.591307	0.893942
	C207	C	0.879007	0.411098	0.896487
	C208	C	0.067032	0.908161	0.579591
	C209	C	0.067805	0.096576	0.400866
	C210	C	0.875806	0.097956	0.579715
	C211	C	0.875210	0.905356	0.399205
	C212	C	0.560842	0.096169	0.893933
	C213	C	0.382158	0.096397	0.084733
	C214	C	0.562439	0.906371	0.086435
	C215	C	0.380324	0.904845	0.891911
	Zn216	Zn	0.471973	0.001750	0.738951
	Zn217	Zn	0.472174	0.002064	0.240791
	Zn218	Zn	0.722336	0.500859	-0.010860
	Zn219	Zn	0.221280	0.501085	-0.011008
	Zn220	Zn	-0.027225	0.751482	0.489861
	Zn221	Zn	-0.027870	0.252029	0.489452
	Zn222	Zn	-0.027526	0.500847	0.740664
	Zn223	Zn	-0.028316	0.502171	0.238630
	Zn224	Zn	0.471516	0.751623	-0.010671
	Zn225	Zn	0.471730	0.251545	-0.011036
	Zn226	Zn	0.721984	0.002781	0.489812
	Zn227	Zn	0.222867	0.002208	0.490633
	N228	N	0.386320	0.967166	0.668254
	N229	N	0.560426	0.036561	0.671110
	N230	N	0.558762	0.967394	0.310691
	N231	N	0.383248	0.035207	0.308477
	N232	N	0.654029	0.412237	0.955284
	N233	N	0.652941	0.589428	0.022716
	N234	N	0.290677	0.588890	0.954799
	N235	N	0.290300	0.413123	0.022815
	N236	N	0.937486	0.681793	0.403145
	N237	N	0.007481	0.681598	0.576989
	N238	N	0.936556	0.322280	0.575623
	N239	N	0.007249	0.322640	0.402849
	N240	N	0.938881	0.412218	0.672082
	N241	N	0.007338	0.588714	0.670831
	N242	N	0.937934	0.590089	0.308413
	N243	N	0.006034	0.414445	0.307981
	N244	N	0.384764	0.681549	0.954687
	N245	N	0.558411	0.681483	0.023585
	N246	N	0.558257	0.321513	0.953620
	N247	N	0.384726	0.321501	0.023703
	N248	N	0.651569	0.968023	0.403619
	N249	N	0.653142	0.037351	0.577973
	N250	N	0.291757	0.968573	0.577700
	N251	N	0.291151	0.035877	0.402245
	N252	N	0.883988	0.467565	0.169770
	N253	N	0.057210	0.537381	0.167395
	N254	N	0.060906	0.466455	0.807947
	N255	N	0.886563	0.535860	0.810955
	N256	N	0.152997	0.915196	0.456026
	N257	N	0.154341	0.091297	0.524308
	N258	N	0.791259	0.090298	0.455133
	N259	N	0.791227	0.914506	0.524017
	N260	N	0.436009	0.180751	0.903138
	N261	N	0.506441	0.182090	0.076556
	N262	N	0.436828	0.822889	0.075446
	N263	N	0.506373	0.822536	0.903344
	N264	N	0.437468	0.915165	0.170044
	N265	N	0.505369	0.090858	0.171813
	N266	N	0.436760	0.088922	0.808481
	N267	N	0.505363	0.913588	0.808123
	N268	N	0.886481	0.181295	0.453971
	N269	N	0.059161	0.182564	0.524936
	N270	N	0.058987	0.822407	0.455286
	N271	N	0.885540	0.821759	0.524544
	N272	N	0.152453	0.465898	0.901858
	N273	N	0.150842	0.536450	0.075153
	N274	N	0.790369	0.467306	0.077699
	N275	N	0.792724	0.535367	0.902995
	O276	O	-0.213973	1.108378	0.038714
	H277	H	-0.215573	1.091271	0.055573
	H278	H	-0.212103	1.111978	0.042578
	O279	O	0.673006	0.298672	0.287509
	H280	H	0.663391	0.313734	0.307354
	H281	H	0.651360	0.307596	0.302177
	O282	O	0.759557	0.215522	0.952226
	H283	H	0.755770	0.232916	0.957801
	H284	H	0.757508	0.210304	0.970764
	O285	O	0.325598	0.653052	0.496058
	H286	H	0.341017	0.644525	0.495238
	H287	H	0.313359	0.658871	0.497847
	O288	O	0.493351	0.391258	0.584233
	H289	H	0.481965	0.398779	0.596536
	H290	H	0.515953	0.384589	0.599273
	O291	O	0.687961	0.523711	0.704098
	H292	H	0.673960	0.525270	0.710187
	H293	H	0.699744	0.542288	0.719944
	O294	O	0.766472	0.021034	0.818098
	H295	H	0.770868	0.047015	0.815331
	H296	H	0.762278	0.033668	0.795139
	O297	O	0.001931	0.786965	0.772223
	H298	H	0.006122	0.752489	0.738089
	H299	H	0.022240	0.810040	0.775836
	O300	O	-0.074445	0.068058	1.207022
	H301	H	-0.075532	0.082580	1.201635
	H302	H	-0.095672	0.084428	1.218790
	O303	O	0.787105	-0.201692	0.012322
	H304	H	0.779507	-0.211992	-0.000002
	H305	H	0.785867	-0.188857	0.013532
	O306	O	0.922661	0.956135	0.779468
	H307	H	0.913799	0.967093	0.785439
	H308	H	0.923007	0.949102	0.773609
	O309	O	0.590325	0.415890	0.634852
	H310	H	0.569561	0.420728	0.630561
	H311	H	0.581478	0.429176	0.632242
	O312	O	0.594326	0.491224	0.603785
	H313	H	0.595062	0.496927	0.604589
	H314	H	0.580414	0.503521	0.599298
	O315	O	1.242734	0.729621	1.259064
	H316	H	1.211778	0.762501	1.233095
	H317	H	1.268354	0.736943	1.258907
	O318	O	0.280009	0.303485	0.681235
	H319	H	0.291523	0.304196	0.671355
	H320	H	0.264893	0.340447	0.696689
	O321	O	0.364862	0.589576	0.406743
	H322	H	0.353929	0.590173	0.407729
	H323	H	0.357563	0.583565	0.413576
	O324	O	0.749673	0.970640	-0.029057
	H325	H	0.747500	0.972128	-0.038794
	H326	H	0.758356	0.979552	-0.037913
	O327	O	-0.025221	-0.012810	1.086339
	H328	H	-0.040096	-0.023461	1.092112
	H329	H	-0.036818	-0.010821	1.092409
	O330	O	0.767053	0.799605	1.195051
	H331	H	0.778814	0.795076	1.172952
	H332	H	0.744797	0.792547	1.201722
	O333	O	0.176024	0.207541	0.192172
	H334	H	0.184308	0.160118	0.191643
	H335	H	0.210408	0.235675	0.225781
	O336	O	1.111056	-0.051538	-0.164797
	H337	H	1.100627	-0.039589	-0.170034
	H338	H	1.121460	-0.044940	-0.170040
	O339	O	1.168782	-0.191284	0.790549
	H340	H	1.156052	-0.199944	0.825375
	H341	H	1.173555	-0.137229	0.782138
	O342	O	0.531642	0.284082	-0.446053
	H343	H	0.532590	0.285528	-0.430661
	H344	H	0.526344	0.293469	-0.451453
	O345	O	0.012626	1.052741	1.157532
	H346	H	-0.003144	1.063771	1.161822
	H347	H	0.013174	1.051288	1.165759
	O348	O	0.575544	0.673901	0.422466
	H349	H	0.570886	0.679750	0.415303
	H350	H	0.582973	0.667148	0.426157
	O351	O	0.929808	1.056854	-0.056849
	H352	H	0.933440	1.072113	-0.050341
	H353	H	0.915533	1.049536	-0.064347
	O354	O	-0.192418	0.155498	1.137067
	H355	H	-0.193382	0.139281	1.126001
	H356	H	-0.216743	0.173087	1.152676
	O357	O	0.493773	0.283104	0.276064
	H358	H	0.488747	0.279886	0.259695
	H359	H	0.493532	0.273296	0.280119
	O360	O	0.769870	0.144607	0.786996
	H361	H	0.800228	0.155907	0.779698
	H362	H	0.760381	0.148117	0.813320
	O363	O	-0.472186	-0.465461	-0.532012
	H364	H	-0.479903	-0.472058	-0.531189
	H365	H	-0.454772	-0.464166	-0.529356
	O366	O	0.609951	0.438043	0.327250
	H367	H	0.611839	0.438201	0.324073
	H368	H	0.617222	0.432948	0.320300
	O369	O	0.977676	0.209535	0.195267
	H370	H	0.988820	0.229556	0.218550
	H371	H	1.012052	0.206277	0.193066
	O372	O	1.450639	1.660827	0.581151
	H373	H	1.471671	1.670241	0.588448
	H374	H	1.455110	1.665045	0.586255
	O375	O	1.136065	0.117841	-0.174727
	H376	H	1.127051	0.112371	-0.153621
	H377	H	1.140816	0.125613	-0.176835
	O378	O	0.003945	-0.181916	1.072454
	H379	H	-0.010089	-0.174288	1.059446
	H380	H	-0.002691	-0.174439	1.081790
	O381	O	0.150056	0.818181	1.156540
	H382	H	0.131155	0.833753	1.139564
	H383	H	0.136199	0.842680	1.142237
	O384	O	0.783903	-0.184018	0.800530
	H385	H	0.784974	-0.177080	0.797590
	H386	H	0.800223	-0.170620	0.818037
	O387	O	1.255782	0.549186	0.270243
	H388	H	1.238063	0.567584	0.264542
	H389	H	1.247043	0.570903	0.262974
	O390	O	0.695615	0.470187	0.428928
	H391	H	0.705501	0.460289	0.430425
	H392	H	0.691345	0.462084	0.449014
	O393	O	0.414833	0.445469	0.262309
	H394	H	0.421832	0.452133	0.268825
	H395	H	0.398422	0.445350	0.254916
	O396	O	-0.012993	1.086956	0.775850
	H397	H	-0.007768	1.109028	0.776595
	H398	H	-0.016498	1.080462	0.770719
	O399	O	-0.677154	0.711059	0.506515
	H400	H	-0.659299	0.717302	0.480239
	H401	H	-0.680248	0.718722	0.492412
	O402	O	0.443658	0.281536	0.708363
	H403	H	0.436405	0.285533	0.705166
	H404	H	0.429580	0.258482	0.732596
	O405	O	0.751536	-0.025027	1.209710
	H406	H	0.755055	-0.053345	1.210029
	H407	H	0.733844	-0.025126	1.225895
	O408	O	-0.063992	-0.204337	0.210415
	H409	H	-0.066824	-0.217083	0.228118
	H410	H	-0.082007	-0.208564	0.209850
	O411	O	0.984228	1.124397	0.988768
	H412	H	0.976487	1.120828	0.987131
	H413	H	0.989866	1.124951	1.001605
	O414	O	1.191335	-0.063567	0.042714
	H415	H	1.185161	-0.067289	0.031761
	H416	H	1.182179	-0.045946	0.034262
	O417	O	0.694883	0.279046	0.458311
	H418	H	0.708517	0.262799	0.471890
	H419	H	0.697116	0.271359	0.464642
	O420	O	0.523099	0.565493	0.272230
	H421	H	0.520012	0.554056	0.279637
	H422	H	0.529719	0.576967	0.266001
	O423	O	0.439557	-0.278236	1.265264
	H424	H	0.435636	-0.292731	1.286146
	H425	H	0.441214	-0.248474	1.234948
	O426	O	0.409147	0.449389	0.570488
	H427	H	0.416520	0.472842	0.575150
	H428	H	0.387162	0.440051	0.585174
	O429	O	1.061101	1.005413	0.994339
	H430	H	1.057241	1.009523	1.007381
	H431	H	1.063709	1.020988	0.994596
	O432	O	0.508395	0.722347	0.712678
	H433	H	0.501823	0.741250	0.733322
	H434	H	0.520357	0.732876	0.705880
	O435	O	0.278268	0.306758	0.295426
	H436	H	0.295038	0.322637	0.321815
	H437	H	0.295707	0.329925	0.307231
	O438	O	0.183112	0.216940	-0.007561
	H439	H	0.185881	0.223015	0.022196
	H440	H	0.193768	0.230684	0.013503
	O441	O	0.251155	0.468872	0.418962
	H442	H	0.239663	0.474355	0.404199
	H443	H	0.247670	0.462616	0.431370
	O444	O	0.274364	0.508288	0.570009
	H445	H	0.275767	0.517373	0.567013
	H446	H	0.268690	0.508819	0.566040
	O447	O	0.048401	1.151906	0.960332
	H448	H	0.054798	1.150464	0.965969
	H449	H	0.043545	1.156795	0.979951
	O450	O	-0.067112	0.783942	0.939971
	H451	H	-0.051254	0.772648	0.933513
	H452	H	-0.068128	0.782718	0.935980
	O453	O	0.257172	0.283593	0.509568
	H454	H	0.263280	0.277642	0.518358
	H455	H	0.243927	0.267156	0.525899
	O456	O	0.179931	0.059180	1.175884
	H457	H	0.184478	0.045991	1.180292
	H458	H	0.167618	0.044354	1.174100
	O459	O	1.186932	0.785901	-0.050101
	H460	H	1.190051	0.777042	-0.038077
	H461	H	1.190850	0.781680	-0.050616
	O462	O	1.681706	0.709214	0.698207
	H463	H	1.701005	0.725994	0.706808
	H464	H	1.659720	0.696829	0.692106
	O465	O	1.104197	0.026254	-0.079588
	H466	H	1.101822	0.036185	-0.065660
	H467	H	1.111609	0.037698	-0.087924
	O468	O	0.658769	0.523150	0.419046
	H469	H	0.660727	0.501540	0.426714
	H470	H	0.661149	0.523872	0.426028
	O471	O	0.648790	0.676349	0.295725
	H472	H	0.638725	0.662982	0.302560
	H473	H	0.636600	0.663027	0.313725
	O474	O	0.678942	0.713630	0.528428
	H475	H	0.690312	0.719767	0.526911
	H476	H	0.681738	0.717773	0.532598
	O477	O	0.483898	0.462793	1.642242
	H478	H	0.481453	0.462349	1.640450
	H479	H	0.478595	0.456170	1.642872
	O480	O	0.470744	0.360255	0.444003
	H481	H	0.477336	0.363074	0.418957
	H482	H	0.472361	0.360806	0.447070
	O483	O	0.311105	0.669740	0.691120
	H484	H	0.304896	0.687564	0.679421
	H485	H	0.307396	0.668760	0.692527
	O486	O	0.251909	0.474132	0.674134
	H487	H	0.257052	0.494718	0.687351
	H488	H	0.237763	0.495192	0.670600
	O489	O	0.909256	1.208738	-0.195888
	H490	H	0.908132	1.230253	-0.199548
	H491	H	0.913653	1.223778	-0.178748
