data_Molecule from HDF5

_cell_length_a		16.321854
_cell_length_b		16.315328
_cell_length_c		16.284809
_cell_angle_alpha	89.945125
_cell_angle_beta	89.951749
_cell_angle_gamma	89.922634
_symmetry_space_group_name_H-M	'P 1'
_symmetry_Int_Tables_number		1

loop_
	_symmetry_equiv_pos_as_xyz
	x,y,z

loop_
	_atom_site_label
	_atom_site_type_symbol
	_atom_site_fract_x
	_atom_site_fract_y
	_atom_site_fract_z
	H0	H	0.401851	0.836855	0.715058
	H1	H	0.597217	0.163552	0.714134
	H2	H	0.598334	0.836292	0.286154
	H3	H	0.403444	0.164182	0.287252
	H4	H	0.714154	0.401842	0.836164
	H5	H	0.714178	0.598883	0.162972
	H6	H	0.285886	0.597853	0.835590
	H7	H	0.285056	0.401876	0.163370
	H8	H	0.837081	0.714182	0.402027
	H9	H	0.163671	0.713023	0.597754
	H10	H	0.836763	0.284817	0.599114
	H11	H	0.163896	0.285066	0.402510
	H12	H	0.836771	0.401598	0.714763
	H13	H	0.163493	0.596147	0.713483
	H14	H	0.836611	0.598092	0.285466
	H15	H	0.163323	0.401300	0.285120
	H16	H	0.401117	0.715439	0.836440
	H17	H	0.597477	0.713653	0.163593
	H18	H	0.599124	0.284870	0.836365
	H19	H	0.402244	0.286789	0.163925
	H20	H	0.715080	0.836410	0.402130
	H21	H	0.714474	0.163605	0.598441
	H22	H	0.285766	0.836504	0.599228
	H23	H	0.285451	0.163448	0.401871
	H24	H	0.902588	0.336676	0.213986
	H25	H	0.096542	0.663820	0.212299
	H26	H	0.096944	0.336171	0.786458
	H27	H	0.902256	0.663723	0.786007
	H28	H	0.214908	0.902029	0.336603
	H29	H	0.214694	0.098275	0.663674
	H30	H	0.785772	0.098734	0.337082
	H31	H	0.785247	0.902113	0.664385
	H32	H	0.337302	0.215456	0.901493
	H33	H	0.663007	0.214814	0.098493
	H34	H	0.336725	0.785871	0.097779
	H35	H	0.663589	0.786145	0.902116
	H36	H	0.336989	0.902035	0.214483
	H37	H	0.663848	0.096187	0.212426
	H38	H	0.336430	0.098930	0.785838
	H39	H	0.663335	0.902190	0.785718
	H40	H	0.902377	0.214061	0.336515
	H41	H	0.098340	0.214362	0.663529
	H42	H	0.098748	0.785393	0.336754
	H43	H	0.902378	0.785483	0.664100
	H44	H	0.214972	0.336918	0.901551
	H45	H	0.213860	0.663570	0.097539
	H46	H	0.785694	0.336716	0.097683
	H47	H	0.783623	0.662639	0.900328
	H48	H	0.407575	0.113102	0.583710
	H49	H	0.587670	0.886995	0.588349
	H50	H	0.595689	0.120939	0.392938
	H51	H	0.396472	0.881219	0.411147
	H52	H	0.593047	0.405419	0.116717
	H53	H	0.588038	0.592988	0.884781
	H54	H	0.409906	0.590578	0.114454
	H55	H	0.415504	0.407645	0.886355
	H56	H	0.115038	0.589836	0.407190
	H57	H	0.883417	0.592394	0.595139
	H58	H	0.118193	0.401015	0.595449
	H59	H	0.884295	0.412029	0.403671
	H60	H	0.114745	0.406587	0.587930
	H61	H	0.883330	0.596313	0.592281
	H62	H	0.117915	0.594204	0.402534
	H63	H	0.881468	0.400977	0.404373
	H64	H	0.407654	0.598686	0.117101
	H65	H	0.593882	0.597324	0.881813
	H66	H	0.595158	0.407793	0.116457
	H67	H	0.403902	0.400740	0.880441
	H68	H	0.581088	0.111835	0.410172
	H69	H	0.601083	0.882146	0.590739
	H70	H	0.398811	0.119727	0.595921
	H71	H	0.410472	0.881714	0.395758
	H72	H	0.910013	0.614068	0.088091
	H73	H	0.087777	0.384052	0.096571
	H74	H	0.095427	0.614816	0.912579
	H75	H	0.909567	0.387708	0.917338
	H76	H	0.094986	0.912492	0.615058
	H77	H	0.087093	0.102403	0.383229
	H78	H	0.914707	0.098009	0.616053
	H79	H	0.906197	0.907914	0.384489
	H80	H	0.611891	0.089871	0.917647
	H81	H	0.385237	0.090213	0.090582
	H82	H	0.619429	0.909486	0.107398
	H83	H	0.380783	0.903243	0.903363
	H84	H	0.619340	0.892236	0.088900
	H85	H	0.382089	0.092776	0.099154
	H86	H	0.616079	0.085413	0.899006
	H87	H	0.384754	0.904436	0.912122
	H88	H	0.899240	0.096352	0.619389
	H89	H	0.104309	0.094022	0.380214
	H90	H	0.087567	0.903565	0.615941
	H91	H	0.908102	0.906477	0.383776
	H92	H	0.097733	0.619004	0.902318
	H93	H	0.092356	0.385946	0.086342
	H94	H	0.900668	0.617489	0.091165
	H95	H	0.896642	0.380208	0.905226
	H96	H	0.414242	0.115193	0.598885
	H97	H	0.590948	0.882875	0.601793
	H98	H	0.604579	0.116648	0.414720
	H99	H	0.415539	0.888700	0.414916
	H100	H	0.591716	0.408220	0.115811
	H101	H	0.595077	0.589179	0.883309
	H102	H	0.401544	0.592215	0.117423
	H103	H	0.402803	0.414536	0.884317
	H104	H	0.116847	0.596183	0.408739
	H105	H	0.885155	0.592443	0.590447
	H106	H	0.115717	0.410415	0.596344
	H107	H	0.886031	0.406409	0.413463
	H108	H	0.908184	0.617324	0.097950
	H109	H	0.098646	0.381270	0.094512
	H110	H	0.087257	0.615179	0.904655
	H111	H	0.914406	0.383599	0.899150
	H112	H	0.098893	0.902303	0.619397
	H113	H	0.089659	0.083311	0.387822
	H114	H	0.907275	0.083516	0.613928
	H115	H	0.906006	0.905993	0.383635
	H116	H	0.619728	0.103092	0.905731
	H117	H	0.381997	0.099211	0.092270
	H118	H	0.610779	0.916016	0.084465
	H119	H	0.384613	0.911617	0.905886
	C120	C	0.378216	0.008132	0.621824
	C121	C	0.621268	0.992240	0.621898
	C122	C	0.621592	0.008226	0.378496
	C123	C	0.378948	0.991879	0.378809
	C124	C	0.621359	0.378528	0.008096
	C125	C	0.621201	0.621794	0.991166
	C126	C	0.377878	0.622165	0.007745
	C127	C	0.378816	0.379150	0.991941
	C128	C	0.008354	0.621635	0.378020
	C129	C	0.991702	0.621436	0.621426
	C130	C	0.008249	0.378025	0.621582
	C131	C	0.992055	0.378052	0.378578
	C132	C	0.878221	0.508512	0.120955
	C133	C	0.121377	0.491567	0.120992
	C134	C	0.121671	0.508209	0.878328
	C135	C	0.878487	0.491743	0.878637
	C136	C	0.121854	0.878318	0.508422
	C137	C	0.122118	0.121624	0.491734
	C138	C	0.878408	0.121532	0.508641
	C139	C	0.878524	0.878279	0.492118
	C140	C	0.508155	0.121519	0.878899
	C141	C	0.491395	0.121976	0.121693
	C142	C	0.508704	0.877953	0.121888
	C143	C	0.491686	0.878380	0.878664
	C144	C	0.381066	0.885454	0.677255
	C145	C	0.618063	0.114986	0.676467
	C146	C	0.618777	0.884980	0.324089
	C147	C	0.381884	0.115193	0.324057
	C148	C	0.676357	0.381241	0.884919
	C149	C	0.676157	0.619022	0.114365
	C150	C	0.323328	0.619000	0.884770
	C151	C	0.323494	0.381658	0.114718
	C152	C	0.885604	0.676481	0.381246
	C153	C	0.114932	0.675635	0.618756
	C154	C	0.885404	0.323230	0.619094
	C155	C	0.114928	0.323017	0.381445
	C156	C	0.885274	0.381073	0.676759
	C157	C	0.114946	0.617518	0.675953
	C158	C	0.885526	0.618684	0.323561
	C159	C	0.114642	0.380501	0.323004
	C160	C	0.380877	0.677091	0.884847
	C161	C	0.618198	0.676081	0.114677
	C162	C	0.618999	0.323368	0.884857
	C163	C	0.381298	0.324241	0.114831
	C164	C	0.676976	0.885104	0.381422
	C165	C	0.676219	0.114777	0.618952
	C166	C	0.323422	0.885400	0.619818
	C167	C	0.323741	0.114948	0.381439
	C168	C	0.881408	0.385343	0.175997
	C169	C	0.118095	0.614784	0.175571
	C170	C	0.118101	0.385126	0.823982
	C171	C	0.881036	0.614652	0.823081
	C172	C	0.176983	0.881109	0.385306
	C173	C	0.176852	0.118865	0.614914
	C174	C	0.823724	0.118878	0.385639
	C175	C	0.823377	0.881289	0.615444
	C176	C	0.385805	0.177636	0.880762
	C177	C	0.614466	0.176263	0.118450
	C178	C	0.385316	0.823907	0.118540
	C179	C	0.614713	0.823380	0.881075
	C180	C	0.385503	0.881221	0.176614
	C181	C	0.614969	0.117550	0.175166
	C182	C	0.385249	0.119177	0.823952
	C183	C	0.614721	0.881478	0.823880
	C184	C	0.882034	0.175684	0.385302
	C185	C	0.119066	0.176319	0.614931
	C186	C	0.119072	0.823634	0.385183
	C187	C	0.881416	0.823459	0.615376
	C188	C	0.176456	0.385309	0.881221
	C189	C	0.176261	0.614687	0.118502
	C190	C	0.823298	0.385392	0.118525
	C191	C	0.822748	0.614382	0.880290
	C192	C	0.400410	0.093948	0.599327
	C193	C	0.599629	0.905901	0.600119
	C194	C	0.600095	0.094353	0.399716
	C195	C	0.400943	0.906194	0.400897
	C196	C	0.599543	0.400544	0.094093
	C197	C	0.598983	0.599696	0.905241
	C198	C	0.399980	0.600410	0.094081
	C199	C	0.400922	0.401137	0.905871
	C200	C	0.094427	0.599607	0.399671
	C201	C	0.906068	0.599961	0.599210
	C202	C	0.094045	0.399616	0.599871
	C203	C	0.906080	0.400037	0.400624
	C204	C	0.899811	0.593956	0.098850
	C205	C	0.099481	0.405850	0.099083
	C206	C	0.099935	0.594200	0.900078
	C207	C	0.900411	0.405922	0.900781
	C208	C	0.100237	0.899890	0.594360
	C209	C	0.100248	0.099845	0.405950
	C210	C	0.900500	0.099299	0.594654
	C211	C	0.900395	0.900197	0.405946
	C212	C	0.593879	0.099156	0.900940
	C213	C	0.405502	0.100527	0.100208
	C214	C	0.594366	0.899493	0.100119
	C215	C	0.405830	0.900110	0.900625
	Zn216	Zn	0.499510	-0.000035	0.750461
	Zn217	Zn	0.499942	0.000264	0.249736
	Zn218	Zn	0.749211	0.500214	-0.000144
	Zn219	Zn	0.250066	0.500236	-0.000139
	Zn220	Zn	0.000445	0.749980	0.500015
	Zn221	Zn	-0.000081	0.249443	0.500365
	Zn222	Zn	-0.000157	0.499879	0.749967
	Zn223	Zn	0.000183	0.499963	0.249534
	Zn224	Zn	0.499938	0.750140	0.000020
	Zn225	Zn	0.499879	0.250224	-0.000084
	Zn226	Zn	0.749982	0.000306	0.499897
	Zn227	Zn	0.250338	-0.000390	0.500363
	N228	N	0.414559	0.962868	0.678395
	N229	N	0.584340	0.037555	0.677977
	N230	N	0.585176	0.962479	0.321943
	N231	N	0.415334	0.037690	0.322227
	N232	N	0.677787	0.414876	0.962319
	N233	N	0.677973	0.585918	0.036559
	N234	N	0.321406	0.585655	0.962406
	N235	N	0.322106	0.415300	0.037243
	N236	N	0.963282	0.678436	0.414404
	N237	N	0.037353	0.678442	0.585856
	N238	N	0.962919	0.321094	0.585637
	N239	N	0.037478	0.321262	0.415096
	N240	N	0.962591	0.414452	0.678312
	N241	N	0.037492	0.584421	0.677606
	N242	N	0.962892	0.585139	0.321674
	N243	N	0.037300	0.414182	0.321399
	N244	N	0.414219	0.678891	0.962384
	N245	N	0.584643	0.677918	0.037199
	N246	N	0.585441	0.321654	0.962507
	N247	N	0.415015	0.322665	0.037358
	N248	N	0.678751	0.962642	0.414555
	N249	N	0.678133	0.037367	0.585718
	N250	N	0.321645	0.962746	0.585959
	N251	N	0.321626	0.037327	0.414651
	N252	N	0.914732	0.462765	0.177855
	N253	N	0.084628	0.537272	0.177150
	N254	N	0.084682	0.462577	0.822134
	N255	N	0.915128	0.537413	0.821972
	N256	N	0.178571	0.914646	0.462799
	N257	N	0.178736	0.085278	0.537404
	N258	N	0.821651	0.085791	0.463281
	N259	N	0.821746	0.914802	0.537770
	N260	N	0.463245	0.178955	0.914398
	N261	N	0.536653	0.179185	0.086061
	N262	N	0.462898	0.821533	0.085388
	N263	N	0.537179	0.821498	0.914472
	N264	N	0.462980	0.914263	0.178689
	N265	N	0.537372	0.084491	0.177390
	N266	N	0.462284	0.085080	0.822629
	N267	N	0.537205	0.914783	0.822091
	N268	N	0.915573	0.177199	0.462893
	N269	N	0.085684	0.178022	0.537398
	N270	N	0.085370	0.821815	0.462629
	N271	N	0.914964	0.821572	0.537776
	N272	N	0.178803	0.462928	0.914209
	N273	N	0.178441	0.537145	0.085264
	N274	N	0.821379	0.462849	0.084893
	N275	N	0.821268	0.537129	0.914161
