data_Molecule from HDF5

_cell_length_a		16.587800
_cell_length_b		16.567884
_cell_length_c		16.633770
_cell_angle_alpha	90.022121
_cell_angle_beta	90.075217
_cell_angle_gamma	89.991013
_symmetry_space_group_name_H-M	'P 1'
_symmetry_Int_Tables_number		1

loop_
	_symmetry_equiv_pos_as_xyz
	x,y,z

loop_
	_atom_site_label
	_atom_site_type_symbol
	_atom_site_fract_x
	_atom_site_fract_y
	_atom_site_fract_z
	H0	H	0.371648	0.836671	0.725912
	H1	H	0.583955	0.147809	0.724994
	H2	H	0.585170	0.836544	0.280627
	H3	H	0.371854	0.146180	0.280702
	H4	H	0.701373	0.384997	0.846995
	H5	H	0.702561	0.599327	0.157465
	H6	H	0.254844	0.597759	0.848675
	H7	H	0.255197	0.383325	0.157674
	H8	H	0.821943	0.712743	0.398064
	H9	H	0.133904	0.713062	0.608879
	H10	H	0.821743	0.270911	0.608219
	H11	H	0.132501	0.268077	0.397073
	H12	H	0.822078	0.386490	0.724217
	H13	H	0.134474	0.595558	0.724418
	H14	H	0.824076	0.600567	0.278370
	H15	H	0.132172	0.383135	0.279574
	H16	H	0.372725	0.713012	0.848282
	H17	H	0.584763	0.714536	0.158337
	H18	H	0.585738	0.267938	0.847662
	H19	H	0.372854	0.268699	0.157840
	H20	H	0.699891	0.835763	0.398316
	H21	H	0.699978	0.146876	0.608793
	H22	H	0.254783	0.836922	0.610473
	H23	H	0.256375	0.146475	0.398123
	H24	H	0.870767	0.337706	0.226345
	H25	H	0.088154	0.645737	0.227923
	H26	H	0.083959	0.334181	0.782232
	H27	H	0.874236	0.648083	0.781929
	H28	H	0.201157	0.884530	0.348305
	H29	H	0.202020	0.099339	0.657790
	H30	H	0.756383	0.096170	0.348204
	H31	H	0.755831	0.885502	0.658971
	H32	H	0.323188	0.215295	0.897351
	H33	H	0.634099	0.214099	0.109512
	H34	H	0.322276	0.770248	0.108710
	H35	H	0.632104	0.768222	0.895445
	H36	H	0.323704	0.884722	0.226691
	H37	H	0.633305	0.099779	0.227103
	H38	H	0.322204	0.100413	0.779823
	H39	H	0.632141	0.886042	0.780822
	H40	H	0.870946	0.214186	0.349352
	H41	H	0.085818	0.215506	0.657746
	H42	H	0.085198	0.767802	0.348589
	H43	H	0.873394	0.770529	0.659362
	H44	H	0.200495	0.334917	0.897918
	H45	H	0.201218	0.646995	0.109414
	H46	H	0.756880	0.336641	0.108657
	H47	H	0.758731	0.648773	0.897888
	H48	H	0.395310	0.099297	0.586444
	H49	H	0.570449	0.877594	0.595323
	H50	H	0.568099	0.105645	0.409565
	H51	H	0.388311	0.878187	0.414153
	H52	H	0.565996	0.405003	0.112128
	H53	H	0.570264	0.581262	0.891669
	H54	H	0.390356	0.577884	0.114611
	H55	H	0.393347	0.401796	0.892508
	H56	H	0.088127	0.577224	0.416214
	H57	H	0.864076	0.583046	0.596420
	H58	H	0.092090	0.397571	0.593176
	H59	H	0.866079	0.406175	0.411626
	H60	H	0.087977	0.404469	0.589100
	H61	H	0.866225	0.582252	0.590698
	H62	H	0.089803	0.579509	0.414649
	H63	H	0.866403	0.401552	0.415872
	H64	H	0.391435	0.581518	0.114270
	H65	H	0.565865	0.578058	0.892160
	H66	H	0.567186	0.402134	0.113638
	H67	H	0.387341	0.403905	0.891166
	H68	H	0.561156	0.101589	0.415593
	H69	H	0.561260	0.879991	0.595753
	H70	H	0.383181	0.104672	0.588847
	H71	H	0.393998	0.880588	0.413929
	H72	H	0.890705	0.604207	0.090855
	H73	H	0.067233	0.380718	0.090478
	H74	H	0.064081	0.600981	0.916857
	H75	H	0.889373	0.380265	0.915678
	H76	H	0.066841	0.906110	0.613549
	H77	H	0.064727	0.077389	0.393543
	H78	H	0.889062	0.082519	0.616295
	H79	H	0.893593	0.907102	0.395445
	H80	H	0.591261	0.080205	0.909421
	H81	H	0.365423	0.085381	0.091141
	H82	H	0.590782	0.901723	0.092107
	H83	H	0.365541	0.902213	0.914851
	H84	H	0.588860	0.903867	0.089695
	H85	H	0.370496	0.076782	0.085818
	H86	H	0.589349	0.082561	0.917441
	H87	H	0.365854	0.903417	0.915342
	H88	H	0.886792	0.079621	0.615227
	H89	H	0.065047	0.080724	0.392559
	H90	H	0.063488	0.902542	0.613348
	H91	H	0.890964	0.895368	0.390662
	H92	H	0.070760	0.603147	0.915653
	H93	H	0.064787	0.380755	0.091857
	H94	H	0.893151	0.603905	0.091998
	H95	H	0.886127	0.378513	0.912738
	H96	H	0.392274	0.104950	0.597860
	H97	H	0.566430	0.881548	0.587387
	H98	H	0.570457	0.103074	0.419393
	H99	H	0.390981	0.881154	0.419306
	H100	H	0.569201	0.404852	0.113391
	H101	H	0.565661	0.583383	0.892318
	H102	H	0.388033	0.580765	0.115494
	H103	H	0.391822	0.407804	0.894294
	H104	H	0.088095	0.580034	0.417832
	H105	H	0.866343	0.577832	0.594670
	H106	H	0.090870	0.405331	0.597212
	H107	H	0.868738	0.407058	0.417599
	H108	H	0.892445	0.602375	0.089129
	H109	H	0.064391	0.380757	0.088769
	H110	H	0.066162	0.603920	0.910061
	H111	H	0.890817	0.379490	0.910842
	H112	H	0.068235	0.901948	0.615565
	H113	H	0.067949	0.079132	0.392681
	H114	H	0.890624	0.079910	0.614830
	H115	H	0.882226	0.904448	0.389616
	H116	H	0.587843	0.074492	0.914518
	H117	H	0.366492	0.075279	0.096183
	H118	H	0.589745	0.905505	0.092862
	H119	H	0.365480	0.903426	0.913872
	C120	C	0.356673	0.000847	0.624599
	C121	C	0.599285	0.982929	0.625256
	C122	C	0.599484	0.000485	0.381987
	C123	C	0.357786	0.982669	0.382655
	C124	C	0.600386	0.370592	0.010419
	C125	C	0.600127	0.613603	0.994667
	C126	C	0.356682	0.612837	0.012157
	C127	C	0.357914	0.370705	0.994836
	C128	C	-0.013654	0.612624	0.382335
	C129	C	0.969292	0.612956	0.625529
	C130	C	-0.013271	0.370621	0.624654
	C131	C	0.969717	0.370888	0.382354
	C132	C	0.857941	0.500953	0.123973
	C133	C	0.099414	0.483048	0.124085
	C134	C	0.099791	0.499327	0.881823
	C135	C	0.857146	0.482986	0.881356
	C136	C	0.099536	0.869958	0.511886
	C137	C	0.099284	0.112766	0.495066
	C138	C	0.856346	0.112595	0.512459
	C139	C	0.856580	0.870088	0.495025
	C140	C	0.486648	0.113059	0.881336
	C141	C	0.470237	0.112561	0.124165
	C142	C	0.487133	0.870543	0.124445
	C143	C	0.468758	0.870339	0.881926
	C144	C	0.353403	0.883476	0.685765
	C145	C	0.602045	0.100615	0.685179
	C146	C	0.602640	0.883205	0.321330
	C147	C	0.354237	0.099692	0.321679
	C148	C	0.660960	0.367432	0.893912
	C149	C	0.661514	0.616987	0.111116
	C150	C	0.295750	0.615500	0.895176
	C151	C	0.296575	0.366338	0.111400
	C152	C	0.869306	0.673257	0.379400
	C153	C	0.087112	0.672663	0.627354
	C154	C	0.868878	0.310794	0.626458
	C155	C	0.085926	0.308679	0.378834
	C156	C	0.868948	0.368227	0.684340
	C157	C	0.087263	0.614520	0.684798
	C158	C	0.870130	0.617001	0.320270
	C159	C	0.085897	0.366195	0.320861
	C160	C	0.354124	0.672899	0.894986
	C161	C	0.603087	0.674431	0.111478
	C162	C	0.603377	0.309206	0.894010
	C163	C	0.354901	0.309126	0.111374
	C164	C	0.659785	0.882633	0.379669
	C165	C	0.659829	0.100267	0.627437
	C166	C	0.295399	0.883451	0.628349
	C167	C	0.296722	0.099816	0.379713
	C168	C	0.853750	0.384071	0.185377
	C169	C	0.104744	0.599333	0.186539
	C170	C	0.102454	0.381502	0.821884
	C171	C	0.855756	0.601152	0.822009
	C172	C	0.160686	0.866612	0.395073
	C173	C	0.161298	0.116960	0.611189
	C174	C	0.796109	0.114933	0.395322
	C175	C	0.796309	0.867418	0.612208
	C176	C	0.369557	0.174524	0.878996
	C177	C	0.587241	0.173548	0.127418
	C178	C	0.369442	0.810143	0.127237
	C179	C	0.585469	0.809171	0.878137
	C180	C	0.369966	0.867342	0.185493
	C181	C	0.586759	0.116793	0.186009
	C182	C	0.369131	0.117345	0.820666
	C183	C	0.585524	0.867682	0.820990
	C184	C	0.853355	0.173383	0.395615
	C185	C	0.103377	0.174734	0.611309
	C186	C	0.103038	0.808588	0.395176
	C187	C	0.854554	0.810062	0.612324
	C188	C	0.160281	0.381700	0.879535
	C189	C	0.161147	0.599920	0.127747
	C190	C	0.796994	0.383702	0.126808
	C191	C	0.798049	0.601475	0.879507
	C192	C	0.382815	0.082074	0.598635
	C193	C	0.573482	0.901089	0.599975
	C194	C	0.573994	0.082208	0.407437
	C195	C	0.383637	0.901218	0.408364
	C196	C	0.574622	0.396586	0.091846
	C197	C	0.574737	0.588108	0.913246
	C198	C	0.382582	0.587262	0.093642
	C199	C	0.383451	0.397151	0.913759
	C200	C	0.067824	0.586334	0.408714
	C201	C	0.886995	0.588268	0.600987
	C202	C	0.068902	0.395334	0.600107
	C203	C	0.888192	0.397324	0.407825
	C204	C	0.884514	0.582358	0.098015
	C205	C	0.073111	0.401874	0.097795
	C206	C	0.074317	0.581306	0.906900
	C207	C	0.881534	0.400937	0.906027
	C208	C	0.073664	0.896112	0.592934
	C209	C	0.073061	0.086675	0.414023
	C210	C	0.881652	0.087671	0.594080
	C211	C	0.881672	0.895006	0.413103
	C212	C	0.568166	0.086716	0.906632
	C213	C	0.388803	0.086537	0.098278
	C214	C	0.568549	0.896243	0.098891
	C215	C	0.386848	0.895919	0.907373
	Zn216	Zn	0.477373	-0.007693	0.753338
	Zn217	Zn	0.478488	-0.008361	0.253246
	Zn218	Zn	0.729482	0.492472	0.002752
	Zn219	Zn	0.228280	0.490968	0.003220
	Zn220	Zn	-0.021993	0.741126	0.503601
	Zn221	Zn	-0.022381	0.241619	0.503733
	Zn222	Zn	-0.021436	0.490776	0.753724
	Zn223	Zn	-0.021597	0.491965	0.253105
	Zn224	Zn	0.478095	0.741899	0.003504
	Zn225	Zn	0.478906	0.241221	0.002623
	Zn226	Zn	0.727897	-0.008780	0.503661
	Zn227	Zn	0.228302	-0.008595	0.503231
	N228	N	0.390607	0.957336	0.683629
	N229	N	0.565134	0.026534	0.683921
	N230	N	0.566094	0.957508	0.322583
	N231	N	0.391276	0.025711	0.323238
	N232	N	0.659319	0.404980	0.967467
	N233	N	0.659806	0.579965	0.037445
	N234	N	0.297026	0.579162	0.969248
	N235	N	0.298271	0.404007	0.037983
	N236	N	0.942677	0.670490	0.417501
	N237	N	0.012743	0.671713	0.591218
	N238	N	0.943218	0.311829	0.590258
	N239	N	0.012485	0.311389	0.416410
	N240	N	0.943322	0.404543	0.683499
	N241	N	0.012902	0.578106	0.683947
	N242	N	0.944142	0.580062	0.321832
	N243	N	0.012421	0.404212	0.322871
	N244	N	0.391296	0.671393	0.968751
	N245	N	0.565677	0.672589	0.037904
	N246	N	0.566455	0.310871	0.967714
	N247	N	0.392415	0.311616	0.037853
	N248	N	0.657834	0.956534	0.417039
	N249	N	0.658448	0.025937	0.590911
	N250	N	0.297341	0.957279	0.590893
	N251	N	0.298762	0.026004	0.417028
	N252	N	0.890981	0.458089	0.183718
	N253	N	0.067175	0.525570	0.184713
	N254	N	0.065558	0.455794	0.823210
	N255	N	0.891604	0.526473	0.822803
	N256	N	0.159012	0.903840	0.468886
	N257	N	0.158955	0.079258	0.537821
	N258	N	0.797665	0.078074	0.469012
	N259	N	0.797183	0.903597	0.538033
	N260	N	0.443692	0.172071	0.915843
	N261	N	0.513659	0.171153	0.089678
	N262	N	0.443341	0.811634	0.090242
	N263	N	0.511727	0.810894	0.915427
	N264	N	0.444252	0.904092	0.184062
	N265	N	0.512865	0.079659	0.184249
	N266	N	0.443071	0.079997	0.821870
	N267	N	0.511660	0.904942	0.823084
	N268	N	0.890101	0.172142	0.469511
	N269	N	0.065450	0.172340	0.537822
	N270	N	0.066040	0.810190	0.468894
	N271	N	0.891383	0.811456	0.538252
	N272	N	0.158643	0.455898	0.916231
	N273	N	0.158187	0.526452	0.089693
	N274	N	0.799361	0.457520	0.089361
	N275	N	0.798536	0.526985	0.915589
	O276	O	0.163988	1.009486	0.220126
	H277	H	0.176874	1.004918	0.219490
	H278	H	0.166199	1.003751	0.209080
	O279	O	0.447612	0.279554	0.719992
	H280	H	0.450268	0.269399	0.717408
	H281	H	0.450604	0.268069	0.735285
	O282	O	0.758174	0.143866	1.003347
	H283	H	0.743143	0.166525	0.999007
	H284	H	0.768358	0.141405	0.998287
	O285	O	0.328760	0.431623	0.368695
	H286	H	0.330014	0.413286	0.363129
	H287	H	0.321190	0.429671	0.371396
	O288	O	0.503450	0.430084	0.320932
	H289	H	0.515042	0.413606	0.315544
	H290	H	0.499466	0.408815	0.321510
	O291	O	0.683416	0.535437	0.722520
	H292	H	0.688153	0.553662	0.710872
	H293	H	0.709332	0.550677	0.744294
	O294	O	0.942521	0.191605	0.947648
	H295	H	0.941011	0.183309	0.948616
	H296	H	0.939264	0.204082	0.932855
	O297	O	0.440105	0.693628	0.550360
	H298	H	0.430872	0.693518	0.564082
	H299	H	0.440331	0.696030	0.550195
	O300	O	-0.045532	0.209015	0.784326
	H301	H	-0.075542	0.212078	0.785435
	H302	H	-0.054603	0.232129	0.773811
	O303	O	0.837563	-0.085941	0.127912
	H304	H	0.822262	-0.082604	0.135164
	H305	H	0.841949	-0.075588	0.141606
	O306	O	1.181483	0.787970	0.797746
	H307	H	1.189518	0.803156	0.810857
	H308	H	1.205898	0.770632	0.795386
	O309	O	0.629886	0.282486	0.293208
	H310	H	0.625445	0.296870	0.289007
	H311	H	0.632062	0.265099	0.281690
	O312	O	0.648680	0.512035	0.617676
	H313	H	0.647032	0.511498	0.630613
	H314	H	0.645753	0.508881	0.615266
	O315	O	0.838449	1.159356	1.188564
	H316	H	0.842816	1.148227	1.190227
	H317	H	0.861026	1.151838	1.167967
	O318	O	0.461051	0.696988	0.708267
	H319	H	0.453155	0.707713	0.717890
	H320	H	0.458702	0.684132	0.706979
	O321	O	0.282864	0.654927	0.663032
	H322	H	0.298179	0.644179	0.648523
	H323	H	0.295247	0.636206	0.642568
	O324	O	0.855197	1.115059	0.007354
	H325	H	0.856730	1.114752	0.006406
	H326	H	0.843146	1.111554	0.010826
	O327	O	-0.238761	0.026207	0.791981
	H328	H	-0.254019	0.012916	0.771386
	H329	H	-0.226489	0.000166	0.799934
	O330	O	0.727078	0.816068	1.249941
	H331	H	0.704610	0.800674	1.270057
	H332	H	0.733951	0.824004	1.256671
	O333	O	0.193603	0.201962	0.216158
	H334	H	0.176324	0.189623	0.189343
	H335	H	0.177825	0.181879	0.204400
	O336	O	1.192046	0.170239	0.014334
	H337	H	1.192134	0.162690	0.007073
	H338	H	1.197622	0.166970	0.003880
	O339	O	1.038096	0.040558	0.767628
	H340	H	1.037998	0.055422	0.773171
	H341	H	1.046166	0.045809	0.765209
	O342	O	0.577845	0.288653	-0.371187
	H343	H	0.573814	0.297216	-0.396683
	H344	H	0.560742	0.295506	-0.368488
	O345	O	-0.001597	1.207839	1.221307
	H346	H	-0.005847	1.201870	1.219227
	H347	H	0.005540	1.217595	1.237740
	O348	O	0.690394	0.275708	0.504846
	H349	H	0.691568	0.276226	0.472289
	H350	H	0.702303	0.259139	0.492093
	O351	O	0.897056	0.880329	-0.179823
	H352	H	0.919390	0.877758	-0.191233
	H353	H	0.895999	0.873260	-0.188220
	O354	O	-0.206039	0.187004	0.815488
	H355	H	-0.214305	0.159303	0.809852
	H356	H	-0.223487	0.181819	0.812009
	O357	O	0.258004	0.559389	0.510390
	H358	H	0.251462	0.559830	0.509162
	H359	H	0.262039	0.551073	0.502120
	O360	O	0.379860	0.332697	0.587827
	H361	H	0.398508	0.338634	0.613229
	H362	H	0.364943	0.307270	0.597755
	O363	O	-0.314145	-0.292151	-0.467448
	H364	H	-0.317523	-0.283508	-0.471226
	H365	H	-0.306184	-0.279321	-0.457913
	O366	O	0.288549	0.307301	0.314832
	H367	H	0.314729	0.312037	0.322894
	H368	H	0.258927	0.272481	0.283094
	O369	O	0.809978	-0.190029	0.190771
	H370	H	0.836935	-0.183623	0.190661
	H371	H	0.788608	-0.179731	0.205340
	O372	O	1.375845	1.548681	0.691243
	H373	H	1.383445	1.528485	0.697031
	H374	H	1.372315	1.548322	0.689032
	O375	O	0.995462	-0.047821	0.039042
	H376	H	0.987412	-0.044511	0.048137
	H377	H	0.977386	-0.047899	0.038513
	O378	O	0.284202	0.296304	0.697716
	H379	H	0.296487	0.306460	0.687335
	H380	H	0.285293	0.296040	0.707855
	O381	O	0.035499	1.179560	1.081347
	H382	H	0.028627	1.169732	1.060320
	H383	H	0.039900	1.173299	1.083314
	O384	O	1.194746	-0.035011	0.787743
	H385	H	1.196242	-0.035376	0.784361
	H386	H	1.210194	-0.042479	0.781206
	O387	O	0.878066	0.880737	-0.119857
	H388	H	0.872077	0.895066	-0.107533
	H389	H	0.894683	0.886855	-0.115736
	O390	O	0.438516	0.570157	0.428013
	H391	H	0.457082	0.567381	0.442435
	H392	H	0.432434	0.569999	0.434183
	O393	O	0.259538	0.501786	0.335307
	H394	H	0.279682	0.489850	0.333935
	H395	H	0.246955	0.482897	0.322079
	O396	O	0.066810	0.972483	1.031821
	H397	H	0.057205	0.985865	1.018784
	H398	H	0.068183	0.962707	1.023456
	O399	O	-0.381622	0.310084	0.605611
	H400	H	-0.390973	0.311610	0.580934
	H401	H	-0.366671	0.296082	0.595006
	O402	O	0.579268	0.446606	0.682451
	H403	H	0.586727	0.434447	0.688500
	H404	H	0.589498	0.451914	0.690894
	O405	O	1.013480	0.020415	0.867718
	H406	H	1.004768	0.021837	0.861740
	H407	H	1.010658	-0.001907	0.875293
	O408	O	-0.243566	-0.228957	0.027198
	H409	H	-0.263444	-0.247906	0.045626
	H410	H	-0.246315	-0.229757	0.058268
	O411	O	0.974237	0.972309	1.080250
	H412	H	0.972629	0.965346	1.080002
	H413	H	0.976968	0.971336	1.066345
	O414	O	0.840032	0.014172	0.219959
	H415	H	0.849201	0.012740	0.215308
	H416	H	0.842566	0.017581	0.229061
	O417	O	0.544721	0.529443	0.604710
	H418	H	0.544405	0.514661	0.602144
	H419	H	0.541795	0.519975	0.596324
	O420	O	0.268510	0.650622	0.293093
	H421	H	0.287354	0.655103	0.277901
	H422	H	0.263974	0.608704	0.308206
	O423	O	0.161338	0.111918	0.934666
	H424	H	0.143989	0.104261	0.945265
	H425	H	0.155463	0.092011	0.927741
	O426	O	0.528534	0.409511	0.490693
	H427	H	0.528882	0.407539	0.491434
	H428	H	0.531531	0.408337	0.491901
	O429	O	0.820415	1.011443	0.960613
	H430	H	0.817167	1.011986	0.969254
	H431	H	0.828815	0.986142	0.971408
	O432	O	0.700094	0.713550	0.722712
	H433	H	0.699902	0.729760	0.734086
	H434	H	0.679786	0.710557	0.715713
	O435	O	0.268565	0.706339	0.438321
	H436	H	0.248874	0.728621	0.446699
	H437	H	0.266754	0.687462	0.409931
	O438	O	-0.041252	0.008329	0.222173
	H439	H	-0.023467	0.008905	0.220302
	H440	H	-0.028005	0.001503	0.218780
	O441	O	0.481065	0.275852	0.333776
	H442	H	0.485011	0.275371	0.336541
	H443	H	0.479810	0.268202	0.340374
	O444	O	0.691662	0.448592	0.380519
	H445	H	0.671010	0.440058	0.380997
	H446	H	0.699131	0.464004	0.378456
	O447	O	0.151733	0.811726	0.993626
	H448	H	0.156382	0.797684	0.995310
	H449	H	0.146911	0.800023	0.991882
	O450	O	0.015040	0.776957	0.781091
	H451	H	0.042285	0.763429	0.769012
	H452	H	0.035217	0.765983	0.772386
	O453	O	0.410343	0.306834	0.479454
	H454	H	0.411533	0.316393	0.478935
	H455	H	0.397670	0.297322	0.487528
	O456	O	0.178564	-0.048285	1.056156
	H457	H	0.170548	-0.052432	1.055018
	H458	H	0.175228	-0.046363	1.051804
	O459	O	1.105638	0.776884	0.051794
	H460	H	1.083693	0.781724	0.048263
	H461	H	1.114480	0.766149	0.056568
	O462	O	1.027723	0.785254	0.209587
	H463	H	1.021406	0.774468	0.227620
	H464	H	1.039963	0.781107	0.207623
	O465	O	1.055802	-0.026629	-0.037110
	H466	H	1.052530	-0.033497	-0.042284
	H467	H	1.043152	-0.038644	-0.038558
	O468	O	0.450398	0.703909	0.289895
	H469	H	0.453325	0.701548	0.284186
	H470	H	0.451913	0.721015	0.284449
	O471	O	0.569409	0.584032	0.298297
	H472	H	0.555172	0.570744	0.309115
	H473	H	0.544702	0.585972	0.302305
	O474	O	0.576434	0.692506	0.465819
	H475	H	0.561299	0.685038	0.471067
	H476	H	0.570641	0.685969	0.467144
	O477	O	0.431408	0.614478	1.508792
	H478	H	0.426396	0.613605	1.490405
	H479	H	0.433569	0.621831	1.501051
	O480	O	0.265242	0.461398	0.717227
	H481	H	0.258771	0.468185	0.726785
	H482	H	0.254273	0.448107	0.715572
	O483	O	0.512011	0.440957	0.461674
	H484	H	0.506080	0.449291	0.470565
	H485	H	0.517015	0.438162	0.464295
	O486	O	0.677616	0.461766	0.284213
	H487	H	0.680470	0.476223	0.281712
	H488	H	0.687930	0.478533	0.283267
	O489	O	0.947788	0.774091	-0.040049
	H490	H	0.943759	0.770129	-0.065460
	H491	H	0.940636	0.771270	-0.037072
