data_Molecule from HDF5

_cell_length_a		16.278018
_cell_length_b		16.261415
_cell_length_c		16.216500
_cell_angle_alpha	90.083740
_cell_angle_beta	89.738418
_cell_angle_gamma	89.914765
_symmetry_space_group_name_H-M	'P 1'
_symmetry_Int_Tables_number		1

loop_
	_symmetry_equiv_pos_as_xyz
	x,y,z

loop_
	_atom_site_label
	_atom_site_type_symbol
	_atom_site_fract_x
	_atom_site_fract_y
	_atom_site_fract_z
	H0	H	0.405759	0.837111	0.708729
	H1	H	0.602799	0.165134	0.707666
	H2	H	0.606631	0.836626	0.278698
	H3	H	0.408758	0.164693	0.280525
	H4	H	0.722142	0.401706	0.829598
	H5	H	0.719289	0.599735	0.158010
	H6	H	0.293237	0.599090	0.829732
	H7	H	0.290842	0.402052	0.157522
	H8	H	0.843301	0.717489	0.395756
	H9	H	0.169978	0.715802	0.592509
	H10	H	0.842595	0.286695	0.594256
	H11	H	0.169442	0.286468	0.393513
	H12	H	0.842294	0.404124	0.709435
	H13	H	0.169950	0.600692	0.707811
	H14	H	0.842125	0.600604	0.280837
	H15	H	0.169200	0.402026	0.277862
	H16	H	0.408192	0.714405	0.829866
	H17	H	0.605001	0.715006	0.157550
	H18	H	0.607023	0.285345	0.828712
	H19	H	0.407303	0.286051	0.157811
	H20	H	0.724230	0.837833	0.392435
	H21	H	0.720606	0.165443	0.593372
	H22	H	0.291667	0.836538	0.592435
	H23	H	0.289026	0.163617	0.392980
	H24	H	0.906611	0.337608	0.208678
	H25	H	0.103643	0.665122	0.207628
	H26	H	0.105277	0.338256	0.778031
	H27	H	0.908953	0.665864	0.782497
	H28	H	0.222231	0.900923	0.330933
	H29	H	0.219317	0.100684	0.658350
	H30	H	0.791794	0.101071	0.329789
	H31	H	0.789886	0.902789	0.657765
	H32	H	0.342828	0.215211	0.895916
	H33	H	0.669913	0.214773	0.092123
	H34	H	0.342407	0.787186	0.092965
	H35	H	0.669875	0.785171	0.894185
	H36	H	0.342486	0.903041	0.208689
	H37	H	0.669908	0.099044	0.208393
	H38	H	0.341701	0.098191	0.782302
	H39	H	0.669026	0.901136	0.777172
	H40	H	0.906089	0.216744	0.329697
	H41	H	0.103745	0.216055	0.658704
	H42	H	0.107103	0.785507	0.330621
	H43	H	0.905718	0.786415	0.658531
	H44	H	0.222063	0.337801	0.892166
	H45	H	0.220193	0.664991	0.092046
	H46	H	0.789445	0.337858	0.094683
	H47	H	0.791195	0.664638	0.895703
	H48	H	0.413757	0.118364	0.592382
	H49	H	0.598281	0.887552	0.577038
	H50	H	0.598802	0.117237	0.401401
	H51	H	0.407912	0.881233	0.399135
	H52	H	0.598683	0.407317	0.110381
	H53	H	0.600254	0.597943	0.874362
	H54	H	0.412430	0.601566	0.113494
	H55	H	0.418276	0.414305	0.879943
	H56	H	0.123986	0.597704	0.400660
	H57	H	0.885209	0.600492	0.593745
	H58	H	0.121523	0.406538	0.581910
	H59	H	0.888075	0.405257	0.402989
	H60	H	0.121159	0.412291	0.586529
	H61	H	0.891716	0.596986	0.580644
	H62	H	0.121262	0.591757	0.404573
	H63	H	0.890413	0.411184	0.404132
	H64	H	0.406104	0.590004	0.112256
	H65	H	0.603615	0.589563	0.876702
	H66	H	0.597778	0.407245	0.110909
	H67	H	0.418424	0.400013	0.874970
	H68	H	0.598607	0.117100	0.400440
	H69	H	0.606884	0.882254	0.588002
	H70	H	0.414724	0.115670	0.583922
	H71	H	0.417850	0.884595	0.398352
	H72	H	0.909771	0.620152	0.091031
	H73	H	0.095824	0.380398	0.101225
	H74	H	0.089754	0.614785	0.904649
	H75	H	0.907416	0.382719	0.903699
	H76	H	0.119212	0.913948	0.615908
	H77	H	0.105048	0.097680	0.374246
	H78	H	0.911105	0.089347	0.609078
	H79	H	0.911524	0.907603	0.375958
	H80	H	0.624323	0.100171	0.904171
	H81	H	0.389685	0.091443	0.091023
	H82	H	0.620976	0.903406	0.074197
	H83	H	0.392257	0.906124	0.910305
	H84	H	0.620549	0.917982	0.089831
	H85	H	0.388553	0.097558	0.087494
	H86	H	0.619373	0.086755	0.904691
	H87	H	0.390666	0.914613	0.896785
	H88	H	0.917647	0.098009	0.611304
	H89	H	0.098994	0.086157	0.379736
	H90	H	0.083590	0.924184	0.601882
	H91	H	0.914762	0.911641	0.378976
	H92	H	0.108456	0.618523	0.909390
	H93	H	0.085831	0.391846	0.075994
	H94	H	0.916292	0.616559	0.088592
	H95	H	0.915347	0.383846	0.894709
	H96	H	0.406110	0.119166	0.586807
	H97	H	0.591952	0.884941	0.590894
	H98	H	0.598119	0.116808	0.401728
	H99	H	0.413246	0.886662	0.407418
	H100	H	0.598197	0.406807	0.110274
	H101	H	0.594291	0.591315	0.878372
	H102	H	0.418394	0.591023	0.109421
	H103	H	0.406432	0.408543	0.874812
	H104	H	0.123029	0.590766	0.396609
	H105	H	0.891420	0.586836	0.591217
	H106	H	0.124178	0.406143	0.588562
	H107	H	0.889386	0.409547	0.398068
	H108	H	0.909707	0.617746	0.083522
	H109	H	0.112975	0.382751	0.077749
	H110	H	0.102243	0.622242	0.890743
	H111	H	0.918104	0.386814	0.905603
	H112	H	0.090381	0.887436	0.616132
	H113	H	0.091619	0.097177	0.378184
	H114	H	0.907189	0.097908	0.613394
	H115	H	0.918061	0.906759	0.377346
	H116	H	0.624958	0.091883	0.892406
	H117	H	0.390754	0.092122	0.084262
	H118	H	0.627675	0.899505	0.093425
	H119	H	0.385698	0.898893	0.896361
	C120	C	0.383636	0.009214	0.615810
	C121	C	0.627068	0.993043	0.614445
	C122	C	0.628574	0.008818	0.371774
	C123	C	0.384602	0.992332	0.372798
	C124	C	0.628072	0.378303	0.001963
	C125	C	0.627160	0.621276	0.985167
	C126	C	0.384569	0.622183	0.002904
	C127	C	0.385152	0.379310	0.985180
	C128	C	0.014611	0.622790	0.372496
	C129	C	0.997538	0.623487	0.616396
	C130	C	0.014648	0.379893	0.615618
	C131	C	0.997485	0.379575	0.372271
	C132	C	0.883680	0.509707	0.116157
	C133	C	0.127385	0.492838	0.114430
	C134	C	0.128594	0.510067	0.872219
	C135	C	0.884987	0.492898	0.873008
	C136	C	0.127530	0.879232	0.503104
	C137	C	0.126962	0.122581	0.486005
	C138	C	0.883791	0.123644	0.502355
	C139	C	0.885233	0.880010	0.485792
	C140	C	0.514544	0.121577	0.872688
	C141	C	0.497793	0.122115	0.115661
	C142	C	0.515033	0.878648	0.115559
	C143	C	0.497491	0.877969	0.871675
	C144	C	0.385917	0.886020	0.670724
	C145	C	0.623739	0.116388	0.669609
	C146	C	0.626871	0.885707	0.316373
	C147	C	0.387281	0.115600	0.317757
	C148	C	0.684494	0.380390	0.878669
	C149	C	0.681977	0.619551	0.108674
	C150	C	0.330655	0.619523	0.878924
	C151	C	0.329191	0.381735	0.108631
	C152	C	0.891890	0.678964	0.375212
	C153	C	0.120842	0.678439	0.613233
	C154	C	0.891426	0.324902	0.614400
	C155	C	0.120315	0.324010	0.373359
	C156	C	0.891255	0.383300	0.671589
	C157	C	0.120960	0.621086	0.670605
	C158	C	0.891315	0.620771	0.318205
	C159	C	0.120339	0.381351	0.315955
	C160	C	0.387898	0.676774	0.879002
	C161	C	0.624940	0.676773	0.108714
	C162	C	0.626843	0.322915	0.878266
	C163	C	0.386838	0.324052	0.108726
	C164	C	0.685314	0.886300	0.372810
	C165	C	0.682194	0.116411	0.612542
	C166	C	0.328692	0.886042	0.613265
	C167	C	0.327762	0.115001	0.373733
	C168	C	0.885994	0.386500	0.171344
	C169	C	0.124531	0.616121	0.170140
	C170	C	0.126150	0.387169	0.815806
	C171	C	0.888178	0.616728	0.819511
	C172	C	0.184219	0.880614	0.379805
	C173	C	0.181711	0.120647	0.609370
	C174	C	0.829351	0.121192	0.378876
	C175	C	0.828966	0.882539	0.609206
	C176	C	0.391593	0.177331	0.875144
	C177	C	0.620990	0.177109	0.112834
	C178	C	0.391445	0.824273	0.113676
	C179	C	0.620902	0.822997	0.873683
	C180	C	0.391466	0.881835	0.171147
	C181	C	0.621122	0.119281	0.170319
	C182	C	0.391045	0.118987	0.818877
	C183	C	0.620574	0.880588	0.815559
	C184	C	0.886190	0.178959	0.378858
	C185	C	0.124165	0.178072	0.609539
	C186	C	0.126855	0.823443	0.379564
	C187	C	0.886318	0.824650	0.609194
	C188	C	0.184084	0.386928	0.872899
	C189	C	0.182715	0.615993	0.112910
	C190	C	0.828167	0.386544	0.114269
	C191	C	0.829491	0.615873	0.875517
	C192	C	0.405286	0.095385	0.594198
	C193	C	0.605444	0.907129	0.591866
	C194	C	0.605343	0.094752	0.394562
	C195	C	0.406509	0.906318	0.395162
	C196	C	0.604925	0.400565	0.088289
	C197	C	0.605573	0.599380	0.898813
	C198	C	0.405961	0.600505	0.089343
	C199	C	0.407808	0.401209	0.898887
	C200	C	0.100569	0.600135	0.394170
	C201	C	0.911751	0.601397	0.594806
	C202	C	0.100258	0.401838	0.592488
	C203	C	0.911504	0.402019	0.395030
	C204	C	0.905540	0.595723	0.094267
	C205	C	0.104923	0.407206	0.091580
	C206	C	0.106581	0.596148	0.894982
	C207	C	0.907202	0.406677	0.894864
	C208	C	0.104577	0.901949	0.589001
	C209	C	0.104857	0.100257	0.399806
	C210	C	0.905466	0.101793	0.588868
	C211	C	0.908116	0.902213	0.399693
	C212	C	0.600692	0.099508	0.894155
	C213	C	0.411869	0.100237	0.093904
	C214	C	0.600855	0.900548	0.092670
	C215	C	0.411579	0.900132	0.894444
	Zn216	Zn	0.505382	0.001030	0.743841
	Zn217	Zn	0.506388	0.000294	0.244092
	Zn218	Zn	0.755838	0.500754	-0.006103
	Zn219	Zn	0.256723	0.501011	-0.006421
	Zn220	Zn	0.006701	0.750984	0.494478
	Zn221	Zn	0.005792	0.250967	0.493786
	Zn222	Zn	0.006360	0.502374	0.744787
	Zn223	Zn	0.005579	0.501246	0.244201
	Zn224	Zn	0.506171	0.749790	-0.005673
	Zn225	Zn	0.506416	0.250280	-0.006608
	Zn226	Zn	0.756680	0.001665	0.493347
	Zn227	Zn	0.255307	0.000954	0.494374
	N228	N	0.419283	0.963706	0.672663
	N229	N	0.590055	0.038877	0.670922
	N230	N	0.592167	0.962967	0.315754
	N231	N	0.421760	0.038299	0.316883
	N232	N	0.685322	0.414112	0.956461
	N233	N	0.683443	0.585735	0.030837
	N234	N	0.328474	0.586330	0.956784
	N235	N	0.328002	0.415191	0.030597
	N236	N	0.969543	0.680286	0.408103
	N237	N	0.043130	0.679965	0.580130
	N238	N	0.968933	0.322675	0.580373
	N239	N	0.042855	0.322728	0.407434
	N240	N	0.968826	0.416884	0.672525
	N241	N	0.043596	0.587479	0.672564
	N242	N	0.968804	0.586488	0.316333
	N243	N	0.042828	0.415319	0.315127
	N244	N	0.420716	0.678636	0.957156
	N245	N	0.591576	0.678237	0.030863
	N246	N	0.592910	0.321202	0.956334
	N247	N	0.420817	0.322272	0.030945
	N248	N	0.686623	0.963943	0.406333
	N249	N	0.684490	0.038587	0.579081
	N250	N	0.327391	0.963563	0.579501
	N251	N	0.326231	0.037369	0.407389
	N252	N	0.919842	0.464059	0.172817
	N253	N	0.090667	0.538490	0.171300
	N254	N	0.092519	0.464825	0.815078
	N255	N	0.922105	0.539232	0.817692
	N256	N	0.184666	0.914813	0.457451
	N257	N	0.183815	0.087084	0.531481
	N258	N	0.827811	0.087636	0.456760
	N259	N	0.828090	0.916222	0.531496
	N260	N	0.469187	0.178961	0.907911
	N261	N	0.543313	0.179130	0.079668
	N262	N	0.468947	0.822355	0.079679
	N263	N	0.543432	0.821234	0.907787
	N264	N	0.469384	0.914884	0.172669
	N265	N	0.543498	0.085880	0.172224
	N266	N	0.468631	0.085031	0.817234
	N267	N	0.542800	0.914003	0.814150
	N268	N	0.919520	0.180593	0.456667
	N269	N	0.090919	0.179477	0.531618
	N270	N	0.092188	0.822575	0.457118
	N271	N	0.920518	0.822946	0.531447
	N272	N	0.185932	0.464474	0.906896
	N273	N	0.184513	0.538446	0.079085
	N274	N	0.826528	0.464090	0.080708
	N275	N	0.827618	0.537831	0.908082
	O276	O	0.018141	0.015492	-0.025671
	H277	H	0.024364	0.023502	-0.016253
	H278	H	0.015546	0.012326	-0.021580
	O279	O	0.468347	0.414019	0.470091
	H280	H	0.458578	0.422389	0.479750
	H281	H	0.470572	0.411960	0.467437
	O282	O	0.508388	0.456213	0.499157
	H283	H	0.501616	0.458384	0.492494
	H284	H	0.507507	0.455430	0.503956
	O285	O	1.031893	0.003275	1.035046
	H286	H	1.036559	-0.011763	1.026808
	H287	H	1.039555	0.003859	1.037116
	O288	O	1.049035	-0.026795	0.012596
	H289	H	1.049050	-0.020180	0.009173
	H290	H	1.044822	-0.025260	0.008907
	O291	O	0.571064	0.540068	0.563441
	H292	H	0.567533	0.545031	0.570268
	H293	H	0.559623	0.550240	0.560863
	O294	O	1.034040	-0.014230	0.967346
	H295	H	1.021179	-0.014651	0.964161
	H296	H	1.044953	-0.023920	0.961449
	O297	O	0.033891	0.025065	0.012269
	H298	H	0.030753	0.039021	0.012392
	H299	H	0.031319	0.028343	0.016332
	O300	O	0.546511	0.536314	0.551725
	H301	H	0.543110	0.546555	0.546616
	H302	H	0.542853	0.537072	0.561699
	O303	O	0.498122	0.468497	0.514667
	H304	H	0.504475	0.475098	0.514445
	H305	H	0.499277	0.467031	0.515047
	O306	O	0.978703	0.047844	-0.042801
	H307	H	0.991116	0.053109	-0.045628
	H308	H	0.970937	0.060030	-0.043375
	O309	O	0.031065	0.048462	1.023013
	H310	H	0.034333	0.056455	1.039087
	H311	H	0.029390	0.045771	1.027621
	O312	O	1.007473	1.009199	0.978371
	H313	H	1.013001	1.012212	0.976619
	H314	H	1.005590	1.010500	0.985112
	O315	O	0.517128	0.575095	0.508929
	H316	H	0.526254	0.579249	0.503600
	H317	H	0.513027	0.576386	0.504905
	O318	O	0.562383	0.460968	0.469979
	H319	H	0.561012	0.459107	0.466898
	H320	H	0.562341	0.450272	0.472909
	O321	O	0.018171	1.033482	1.028801
	H322	H	0.013530	1.041476	1.031668
	H323	H	0.022512	1.030430	1.022223
	O324	O	0.593181	0.453190	0.423718
	H325	H	0.597906	0.450008	0.411341
	H326	H	0.596687	0.445999	0.426754
	O327	O	0.576492	0.492270	0.439382
	H328	H	0.570210	0.484117	0.440108
	H329	H	0.581192	0.501993	0.447745
	O330	O	0.436833	0.445023	0.541158
	H331	H	0.441727	0.441287	0.550082
	H332	H	0.436368	0.445674	0.543018
	O333	O	0.545418	0.433531	0.441470
	H334	H	0.543409	0.437830	0.447015
	H335	H	0.542581	0.430559	0.433971
	O336	O	0.483263	0.564394	0.450217
	H337	H	0.493546	0.559597	0.445811
	H338	H	0.493733	0.573016	0.446801
	O339	O	1.010083	1.032090	0.021290
	H340	H	1.010739	1.026760	0.020931
	H341	H	0.994850	1.033323	0.025248
	O342	O	0.479719	0.477336	0.532908
	H343	H	0.488620	0.468604	0.529358
	H344	H	0.478888	0.482576	0.528496
	O345	O	0.411346	0.507068	0.446114
	H346	H	0.410654	0.507052	0.454692
	H347	H	0.410982	0.514113	0.438982
	O348	O	0.031413	0.111195	0.043838
	H349	H	0.029815	0.120951	0.045821
	H350	H	0.038317	0.116497	0.035872
	O351	O	-0.048820	1.047213	0.966192
	H352	H	-0.044037	1.034495	0.964684
	H353	H	-0.050099	1.045809	0.966370
	O354	O	0.534758	0.535623	0.500596
	H355	H	0.533760	0.532681	0.499247
	H356	H	0.534704	0.526957	0.501132
	O357	O	-0.497398	1.482402	1.495827
	H358	H	-0.493600	1.482418	1.487986
	H359	H	-0.500473	1.476015	1.506332
