data_Molecule from HDF5

_cell_length_a		16.210279
_cell_length_b		16.344601
_cell_length_c		16.277192
_cell_angle_alpha	89.820012
_cell_angle_beta	90.049214
_cell_angle_gamma	89.798171
_symmetry_space_group_name_H-M	'P 1'
_symmetry_Int_Tables_number		1

loop_
	_symmetry_equiv_pos_as_xyz
	x,y,z

loop_
	_atom_site_label
	_atom_site_type_symbol
	_atom_site_fract_x
	_atom_site_fract_y
	_atom_site_fract_z
	H0	H	0.413706	0.830617	0.715458
	H1	H	0.609772	0.156925	0.715841
	H2	H	0.611837	0.831174	0.286309
	H3	H	0.411383	0.156554	0.283402
	H4	H	0.726075	0.396455	0.836754
	H5	H	0.726761	0.589524	0.164094
	H6	H	0.298560	0.591300	0.836516
	H7	H	0.299192	0.395460	0.164301
	H8	H	0.847865	0.710838	0.398921
	H9	H	0.176057	0.708368	0.599121
	H10	H	0.847973	0.279672	0.599387
	H11	H	0.175364	0.279603	0.401537
	H12	H	0.848101	0.395621	0.714630
	H13	H	0.176418	0.591167	0.713835
	H14	H	0.848355	0.594307	0.283439
	H15	H	0.176772	0.395576	0.287477
	H16	H	0.412712	0.709396	0.837424
	H17	H	0.613341	0.707933	0.163954
	H18	H	0.613337	0.276916	0.837833
	H19	H	0.412709	0.278027	0.164286
	H20	H	0.728022	0.831322	0.402950
	H21	H	0.724463	0.158132	0.597926
	H22	H	0.297790	0.830929	0.598747
	H23	H	0.297263	0.157811	0.402111
	H24	H	0.912842	0.331078	0.217319
	H25	H	0.111613	0.656772	0.214996
	H26	H	0.110587	0.330799	0.785757
	H27	H	0.911363	0.656482	0.784406
	H28	H	0.226155	0.897181	0.336091
	H29	H	0.224220	0.090303	0.665007
	H30	H	0.797222	0.094258	0.336802
	H31	H	0.800360	0.897556	0.665184
	H32	H	0.348055	0.209518	0.900569
	H33	H	0.676063	0.207169	0.099952
	H34	H	0.348158	0.778407	0.099914
	H35	H	0.676183	0.779048	0.902389
	H36	H	0.348254	0.895184	0.215371
	H37	H	0.676982	0.090291	0.213886
	H38	H	0.347468	0.092247	0.785911
	H39	H	0.676443	0.894939	0.787213
	H40	H	0.911816	0.210955	0.336417
	H41	H	0.111963	0.209836	0.663516
	H42	H	0.113577	0.778339	0.336962
	H43	H	0.912837	0.778173	0.663273
	H44	H	0.225326	0.329661	0.903325
	H45	H	0.226195	0.656385	0.097559
	H46	H	0.798174	0.330339	0.100772
	H47	H	0.796114	0.656161	0.900832
	H48	H	0.419895	0.106507	0.583350
	H49	H	0.614734	0.877781	0.588479
	H50	H	0.611169	0.110575	0.411786
	H51	H	0.416182	0.879149	0.412436
	H52	H	0.608660	0.400479	0.118630
	H53	H	0.602938	0.587506	0.884179
	H54	H	0.411870	0.585960	0.119368
	H55	H	0.409630	0.403356	0.881885
	H56	H	0.130737	0.591416	0.405773
	H57	H	0.894723	0.586693	0.593351
	H58	H	0.128402	0.405353	0.594600
	H59	H	0.894524	0.409662	0.400905
	H60	H	0.131851	0.397215	0.596341
	H61	H	0.894729	0.587908	0.591430
	H62	H	0.127251	0.587119	0.412377
	H63	H	0.891554	0.393691	0.406516
	H64	H	0.424210	0.580046	0.114421
	H65	H	0.605567	0.588445	0.883605
	H66	H	0.602672	0.401310	0.114907
	H67	H	0.426924	0.407531	0.888097
	H68	H	0.604754	0.112950	0.397365
	H69	H	0.605985	0.875307	0.604489
	H70	H	0.407434	0.114145	0.598178
	H71	H	0.417349	0.876387	0.403171
	H72	H	0.922043	0.606552	0.086458
	H73	H	0.099751	0.378686	0.097101
	H74	H	0.101870	0.610087	0.902366
	H75	H	0.922745	0.377745	0.903260
	H76	H	0.097497	0.902794	0.613761
	H77	H	0.103290	0.086990	0.384423
	H78	H	0.913979	0.088266	0.617400
	H79	H	0.923433	0.908850	0.386569
	H80	H	0.627752	0.084780	0.909870
	H81	H	0.392757	0.096929	0.090218
	H82	H	0.628565	0.901459	0.092189
	H83	H	0.393637	0.905871	0.898780
	H84	H	0.630264	0.900393	0.095253
	H85	H	0.399332	0.079646	0.084428
	H86	H	0.628340	0.084544	0.906305
	H87	H	0.391703	0.890174	0.908037
	H88	H	0.922826	0.084339	0.614794
	H89	H	0.104167	0.089578	0.383884
	H90	H	0.104766	0.893412	0.618490
	H91	H	0.924402	0.896534	0.384324
	H92	H	0.105553	0.608300	0.911033
	H93	H	0.106567	0.378552	0.088508
	H94	H	0.914958	0.610436	0.092603
	H95	H	0.921712	0.378379	0.910679
	H96	H	0.427379	0.109800	0.601593
	H97	H	0.597633	0.882483	0.589566
	H98	H	0.596626	0.106695	0.409109
	H99	H	0.425507	0.880428	0.407451
	H100	H	0.604845	0.395252	0.118197
	H101	H	0.604855	0.585725	0.884333
	H102	H	0.423359	0.593864	0.117810
	H103	H	0.423216	0.390560	0.882791
	H104	H	0.127762	0.583472	0.404425
	H105	H	0.896063	0.585510	0.590770
	H106	H	0.127877	0.398492	0.588225
	H107	H	0.898834	0.405423	0.416762
	H108	H	0.924371	0.608355	0.096076
	H109	H	0.109495	0.374487	0.098016
	H110	H	0.110788	0.612293	0.903959
	H111	H	0.914936	0.376487	0.906253
	H112	H	0.110267	0.904444	0.616485
	H113	H	0.105442	0.087626	0.383917
	H114	H	0.922498	0.094122	0.617488
	H115	H	0.913222	0.902558	0.382231
	H116	H	0.629259	0.087423	0.908120
	H117	H	0.393561	0.082166	0.103119
	H118	H	0.629001	0.897167	0.092966
	H119	H	0.398905	0.905435	0.916453
	C120	C	0.389980	0.002306	0.622368
	C121	C	0.634016	0.986003	0.622562
	C122	C	0.634042	0.002571	0.378114
	C123	C	0.390175	0.986048	0.378373
	C124	C	0.633928	0.371172	0.008886
	C125	C	0.634035	0.615304	0.991923
	C126	C	0.391232	0.614681	0.008931
	C127	C	0.391146	0.371820	0.992071
	C128	C	0.020446	0.616559	0.377915
	C129	C	1.003759	0.614960	0.620548
	C130	C	0.020598	0.372403	0.621466
	C131	C	1.003444	0.373842	0.379420
	C132	C	0.891161	0.501340	0.121713
	C133	C	0.134107	0.484982	0.122443
	C134	C	0.134159	0.502260	0.878288
	C135	C	0.890213	0.485144	0.877925
	C136	C	0.133870	0.872019	0.508401
	C137	C	0.133112	0.116270	0.492264
	C138	C	0.890601	0.117248	0.508509
	C139	C	0.891348	0.873653	0.492290
	C140	C	0.519853	0.114586	0.879310
	C141	C	0.503781	0.114610	0.121494
	C142	C	0.520640	0.871463	0.122115
	C143	C	0.503466	0.871991	0.879281
	C144	C	0.393034	0.879257	0.677343
	C145	C	0.630762	0.108536	0.677774
	C146	C	0.632180	0.879845	0.323905
	C147	C	0.391694	0.108232	0.322072
	C148	C	0.688860	0.374938	0.885677
	C149	C	0.689151	0.611146	0.115246
	C150	C	0.336185	0.612019	0.885533
	C151	C	0.336258	0.374306	0.115329
	C152	C	0.896915	0.672704	0.378956
	C153	C	0.127093	0.670282	0.619090
	C154	C	0.896752	0.318116	0.619136
	C155	C	0.126667	0.317581	0.381051
	C156	C	0.897030	0.375315	0.676812
	C157	C	0.127262	0.612141	0.676062
	C158	C	0.896895	0.614499	0.321983
	C159	C	0.127189	0.375256	0.324415
	C160	C	0.392627	0.670854	0.886068
	C161	C	0.632587	0.669710	0.115099
	C162	C	0.632964	0.315615	0.886325
	C163	C	0.393109	0.316327	0.115450
	C164	C	0.690281	0.880143	0.381580
	C165	C	0.687607	0.109152	0.619246
	C166	C	0.335763	0.879303	0.619385
	C167	C	0.335357	0.109070	0.381367
	C168	C	0.893051	0.379385	0.178575
	C169	C	0.131664	0.607984	0.176896
	C170	C	0.130905	0.379213	0.823942
	C171	C	0.891518	0.607601	0.822411
	C172	C	0.188955	0.875823	0.385279
	C173	C	0.187488	0.112130	0.615700
	C174	C	0.835105	0.114631	0.385479
	C175	C	0.837071	0.876471	0.615764
	C176	C	0.396734	0.171030	0.880722
	C177	C	0.627311	0.169034	0.119414
	C178	C	0.397207	0.816323	0.120051
	C179	C	0.627056	0.816943	0.881810
	C180	C	0.397147	0.874236	0.177337
	C181	C	0.627483	0.111390	0.176626
	C182	C	0.396368	0.112514	0.824066
	C183	C	0.627191	0.874539	0.824631
	C184	C	0.892093	0.172902	0.385374
	C185	C	0.131132	0.171047	0.615100
	C186	C	0.132401	0.817116	0.385536
	C187	C	0.892802	0.816977	0.614964
	C188	C	0.188237	0.378857	0.882197
	C189	C	0.188716	0.607878	0.118677
	C190	C	0.835828	0.378940	0.120538
	C191	C	0.834565	0.607664	0.880530
	C192	C	0.411588	0.087821	0.600643
	C193	C	0.612397	0.900701	0.600659
	C194	C	0.610893	0.088080	0.399802
	C195	C	0.412947	0.900693	0.400965
	C196	C	0.611848	0.392718	0.094958
	C197	C	0.611268	0.593607	0.906099
	C198	C	0.413295	0.592922	0.094935
	C199	C	0.413510	0.393928	0.906308
	C200	C	0.106410	0.594026	0.400703
	C201	C	0.917580	0.593170	0.598249
	C202	C	0.106958	0.393986	0.599468
	C203	C	0.917313	0.396359	0.401552
	C204	C	0.913755	0.586567	0.098412
	C205	C	0.111985	0.399617	0.100749
	C206	C	0.112340	0.588088	0.899478
	C207	C	0.912892	0.399514	0.900138
	C208	C	0.110956	0.893645	0.594202
	C209	C	0.110884	0.094511	0.406236
	C210	C	0.913095	0.095107	0.594436
	C211	C	0.913723	0.896148	0.406568
	C212	C	0.606240	0.092186	0.901545
	C213	C	0.417475	0.092709	0.099121
	C214	C	0.607050	0.893303	0.099992
	C215	C	0.416983	0.894139	0.901290
	Zn216	Zn	0.512162	-0.006792	0.751051
	Zn217	Zn	0.511995	-0.006476	0.249669
	Zn218	Zn	0.762299	0.492936	0.000342
	Zn219	Zn	0.262684	0.492914	0.000523
	Zn220	Zn	0.011829	0.744061	0.499772
	Zn221	Zn	0.011888	0.245523	0.499874
	Zn222	Zn	0.012101	0.493817	0.749462
	Zn223	Zn	0.012224	0.494159	0.250847
	Zn224	Zn	0.512665	0.743600	0.000766
	Zn225	Zn	0.512282	0.243289	0.000412
	Zn226	Zn	0.762653	-0.004450	0.500570
	Zn227	Zn	0.261625	-0.005693	0.500457
	N228	N	0.426275	0.956620	0.679243
	N229	N	0.598036	0.031001	0.679839
	N230	N	0.597774	0.956875	0.321856
	N231	N	0.425226	0.030740	0.320302
	N232	N	0.689445	0.408931	0.962884
	N233	N	0.689806	0.577670	0.037841
	N234	N	0.335383	0.577613	0.962765
	N235	N	0.334966	0.408106	0.037905
	N236	N	0.974622	0.674121	0.412969
	N237	N	0.049302	0.672027	0.585166
	N238	N	0.974636	0.316104	0.585765
	N239	N	0.048843	0.316548	0.414620
	N240	N	0.975150	0.408276	0.678368
	N241	N	0.049586	0.578395	0.677187
	N242	N	0.974597	0.580415	0.321235
	N243	N	0.049525	0.409569	0.323367
	N244	N	0.426404	0.672584	0.963678
	N245	N	0.599111	0.672459	0.037406
	N246	N	0.599588	0.313215	0.963934
	N247	N	0.426585	0.314535	0.037680
	N248	N	0.691508	0.957513	0.414477
	N249	N	0.690093	0.031957	0.585898
	N250	N	0.333645	0.956637	0.585977
	N251	N	0.334194	0.032026	0.415659
	N252	N	0.926807	0.456500	0.179339
	N253	N	0.098646	0.530706	0.179455
	N254	N	0.098098	0.456863	0.821429
	N255	N	0.925611	0.530492	0.820796
	N256	N	0.189947	0.909275	0.462743
	N257	N	0.188818	0.078753	0.538241
	N258	N	0.834299	0.080689	0.462859
	N259	N	0.836204	0.911135	0.538668
	N260	N	0.474623	0.172213	0.914544
	N261	N	0.549385	0.171152	0.085850
	N262	N	0.475090	0.814645	0.086384
	N263	N	0.549095	0.815258	0.915115
	N264	N	0.474926	0.907633	0.178745
	N265	N	0.549516	0.078269	0.177983
	N266	N	0.473952	0.078235	0.823073
	N267	N	0.549267	0.908070	0.822923
	N268	N	0.926035	0.174521	0.462838
	N269	N	0.098083	0.173726	0.537157
	N270	N	0.098946	0.814599	0.463168
	N271	N	0.925880	0.815055	0.537180
	N272	N	0.190468	0.456240	0.915133
	N273	N	0.190553	0.530501	0.085631
	N274	N	0.834637	0.455829	0.085635
	N275	N	0.833615	0.530437	0.914380
	O276	O	0.984009	1.000705	0.072084
	H277	H	0.987225	1.015655	0.069537
	H278	H	0.979373	0.998371	0.075694
	O279	O	0.005984	-0.003014	0.038056
	H280	H	0.003634	-0.006949	0.044127
	H281	H	0.012004	-0.004316	0.037785
	O282	O	0.022018	0.016182	0.989898
	H283	H	0.030823	0.005567	0.993510
	H284	H	0.007031	0.006939	0.989332
	O285	O	0.442446	0.487771	0.528845
	H286	H	0.445170	0.483850	0.521715
	H287	H	0.437912	0.483410	0.532225
	O288	O	0.536020	0.540822	0.549972
	H289	H	0.526430	0.545156	0.548991
	H290	H	0.533112	0.532782	0.548629
	O291	O	0.021311	0.958476	0.042860
	H292	H	0.024525	0.966019	0.049257
	H293	H	0.017671	0.962738	0.044015
	O294	O	-0.069168	0.047913	0.016335
	H295	H	-0.068975	0.048243	0.009987
	H296	H	-0.077854	0.059307	0.007553
	O297	O	0.473426	0.522649	0.512392
	H298	H	0.466473	0.523076	0.509717
	H299	H	0.467493	0.532964	0.516279
	O300	O	-0.066027	0.969484	1.061336
	H301	H	-0.061802	0.978042	1.061285
	H302	H	-0.080921	0.967969	1.060197
	O303	O	0.520584	0.551701	0.535805
	H304	H	0.521040	0.556324	0.535454
	H305	H	0.515930	0.549640	0.538516
	O306	O	-0.933870	-0.011911	1.029461
	H307	H	-0.927808	-0.020180	1.037429
	H308	H	-0.943462	-0.025440	1.028294
	O309	O	1.003564	0.971096	0.937764
	H310	H	1.005144	0.975360	0.942130
	H311	H	1.003228	0.965257	0.942129
	O312	O	0.470219	0.514305	0.517513
	H313	H	0.468197	0.513128	0.520583
	H314	H	0.470296	0.509273	0.515170
	O315	O	0.496564	0.535962	0.531296
	H316	H	0.503688	0.544114	0.534863
	H317	H	0.502173	0.542232	0.532704
	O318	O	-0.064371	0.928519	0.081264
	H319	H	-0.063421	0.928915	0.083816
	H320	H	-0.071770	0.924671	0.079221
	O321	O	0.973091	1.041862	-0.042964
	H322	H	0.972788	1.042029	-0.042199
	H323	H	0.974358	1.047180	-0.047193
