data_Molecule from HDF5

_cell_length_a		16.197266
_cell_length_b		16.290183
_cell_length_c		16.261597
_cell_angle_alpha	89.414777
_cell_angle_beta	89.619863
_cell_angle_gamma	90.171128
_symmetry_space_group_name_H-M	'P 1'
_symmetry_Int_Tables_number		1

loop_
	_symmetry_equiv_pos_as_xyz
	x,y,z

loop_
	_atom_site_label
	_atom_site_type_symbol
	_atom_site_fract_x
	_atom_site_fract_y
	_atom_site_fract_z
	H0	H	0.402464	0.842774	0.715602
	H1	H	0.603134	0.168761	0.709120
	H2	H	0.604779	0.842355	0.282069
	H3	H	0.406142	0.168294	0.280649
	H4	H	0.719819	0.410929	0.832492
	H5	H	0.718632	0.602933	0.160479
	H6	H	0.294881	0.604366	0.831696
	H7	H	0.288469	0.403880	0.159454
	H8	H	0.839044	0.718874	0.398672
	H9	H	0.168752	0.719515	0.592020
	H10	H	0.840578	0.289023	0.600701
	H11	H	0.168865	0.292019	0.397621
	H12	H	0.841536	0.404420	0.715474
	H13	H	0.170403	0.602408	0.706669
	H14	H	0.840509	0.606195	0.280441
	H15	H	0.168835	0.408690	0.282789
	H16	H	0.407157	0.722858	0.833398
	H17	H	0.604369	0.720629	0.159963
	H18	H	0.607631	0.291790	0.833862
	H19	H	0.404185	0.288145	0.159631
	H20	H	0.718759	0.841833	0.398462
	H21	H	0.719203	0.168100	0.594031
	H22	H	0.287509	0.842387	0.598682
	H23	H	0.290581	0.168728	0.396474
	H24	H	0.904353	0.342950	0.214654
	H25	H	0.104848	0.669801	0.207976
	H26	H	0.105225	0.342360	0.782980
	H27	H	0.908029	0.668978	0.780969
	H28	H	0.218254	0.909880	0.332559
	H29	H	0.216214	0.101246	0.661582
	H30	H	0.791958	0.104741	0.333137
	H31	H	0.787899	0.903366	0.660765
	H32	H	0.341161	0.221212	0.898414
	H33	H	0.669981	0.218698	0.092848
	H34	H	0.340637	0.788335	0.098771
	H35	H	0.668625	0.793901	0.897090
	H36	H	0.339986	0.905677	0.213234
	H37	H	0.670200	0.102892	0.209062
	H38	H	0.340152	0.105987	0.783185
	H39	H	0.667888	0.909451	0.782849
	H40	H	0.905310	0.222904	0.334641
	H41	H	0.102463	0.218680	0.661013
	H42	H	0.103697	0.792681	0.332647
	H43	H	0.902888	0.786945	0.659675
	H44	H	0.220153	0.341628	0.898629
	H45	H	0.220282	0.669194	0.091871
	H46	H	0.788915	0.342807	0.098857
	H47	H	0.793409	0.669717	0.897697
	H48	H	0.401747	0.125564	0.593805
	H49	H	0.591512	0.890576	0.586753
	H50	H	0.603527	0.122812	0.404259
	H51	H	0.410697	0.890442	0.410653
	H52	H	0.596180	0.415778	0.111784
	H53	H	0.593359	0.602161	0.881909
	H54	H	0.415861	0.596874	0.111945
	H55	H	0.416308	0.409987	0.878554
	H56	H	0.119127	0.598681	0.405579
	H57	H	0.883727	0.610354	0.588934
	H58	H	0.122077	0.412135	0.587896
	H59	H	0.889310	0.417150	0.410296
	H60	H	0.122132	0.412914	0.590498
	H61	H	0.893135	0.589547	0.578562
	H62	H	0.121746	0.596864	0.397218
	H63	H	0.886463	0.415563	0.401942
	H64	H	0.410307	0.600003	0.114489
	H65	H	0.604011	0.607900	0.876603
	H66	H	0.592772	0.408253	0.113827
	H67	H	0.408981	0.413422	0.877898
	H68	H	0.595992	0.123147	0.396356
	H69	H	0.601585	0.886982	0.589480
	H70	H	0.418957	0.121141	0.595116
	H71	H	0.407290	0.886308	0.403580
	H72	H	0.913118	0.626203	0.100805
	H73	H	0.099344	0.386359	0.097890
	H74	H	0.095755	0.622100	0.896569
	H75	H	0.903621	0.386790	0.904883
	H76	H	0.095584	0.909869	0.613597
	H77	H	0.097980	0.095182	0.381284
	H78	H	0.913001	0.097461	0.614259
	H79	H	0.920899	0.920274	0.385249
	H80	H	0.622648	0.101159	0.901479
	H81	H	0.391848	0.088510	0.087878
	H82	H	0.624103	0.915551	0.097467
	H83	H	0.385726	0.918072	0.900286
	H84	H	0.623529	0.905020	0.087547
	H85	H	0.384157	0.100413	0.099193
	H86	H	0.621664	0.098545	0.903803
	H87	H	0.384206	0.905057	0.907125
	H88	H	0.909026	0.097724	0.615177
	H89	H	0.092233	0.102271	0.381599
	H90	H	0.095713	0.910265	0.614184
	H91	H	0.913781	0.900773	0.376561
	H92	H	0.101103	0.620632	0.906517
	H93	H	0.089058	0.391724	0.089842
	H94	H	0.923767	0.617084	0.081976
	H95	H	0.919028	0.388619	0.898482
	H96	H	0.410605	0.119584	0.579934
	H97	H	0.593901	0.887338	0.597825
	H98	H	0.592950	0.119154	0.407148
	H99	H	0.415383	0.888709	0.403202
	H100	H	0.601635	0.409686	0.115615
	H101	H	0.603907	0.595484	0.879976
	H102	H	0.409506	0.593802	0.112742
	H103	H	0.415548	0.417518	0.880902
	H104	H	0.123889	0.606166	0.401327
	H105	H	0.885727	0.588530	0.602713
	H106	H	0.122407	0.410554	0.590332
	H107	H	0.886506	0.408682	0.407813
	H108	H	0.901274	0.623721	0.081501
	H109	H	0.101789	0.389736	0.084292
	H110	H	0.106600	0.625800	0.896975
	H111	H	0.916197	0.392603	0.914719
	H112	H	0.095380	0.910727	0.613774
	H113	H	0.101008	0.103510	0.378714
	H114	H	0.910137	0.094697	0.613593
	H115	H	0.899401	0.918245	0.378020
	H116	H	0.622299	0.098007	0.900059
	H117	H	0.387983	0.104662	0.083001
	H118	H	0.618165	0.918755	0.084412
	H119	H	0.389812	0.916911	0.914093
	C120	C	0.381398	0.014269	0.619486
	C121	C	0.624757	0.996510	0.618471
	C122	C	0.626559	0.013819	0.374542
	C123	C	0.383310	0.996709	0.375966
	C124	C	0.626549	0.384305	0.005524
	C125	C	0.627941	0.628829	0.987713
	C126	C	0.384150	0.626791	0.004645
	C127	C	0.383807	0.383572	0.987201
	C128	C	0.012731	0.628353	0.373584
	C129	C	0.996216	0.625315	0.617098
	C130	C	0.013722	0.382765	0.619869
	C131	C	0.996274	0.385764	0.377221
	C132	C	0.883006	0.514529	0.118924
	C133	C	0.126405	0.497382	0.117632
	C134	C	0.128837	0.514099	0.873426
	C135	C	0.884486	0.497214	0.875810
	C136	C	0.124857	0.883762	0.505282
	C137	C	0.125766	0.127606	0.488747
	C138	C	0.882035	0.126785	0.506088
	C139	C	0.881939	0.883096	0.487938
	C140	C	0.513511	0.128023	0.874073
	C141	C	0.496885	0.126420	0.117962
	C142	C	0.513313	0.883313	0.119579
	C143	C	0.494977	0.885345	0.876853
	C144	C	0.382394	0.891493	0.676938
	C145	C	0.623024	0.119782	0.671746
	C146	C	0.624821	0.891019	0.319885
	C147	C	0.385594	0.119580	0.318989
	C148	C	0.682684	0.388695	0.881885
	C149	C	0.681387	0.624298	0.111573
	C150	C	0.331129	0.624867	0.881024
	C151	C	0.327122	0.384309	0.110726
	C152	C	0.888501	0.682281	0.377158
	C153	C	0.120005	0.681191	0.612855
	C154	C	0.889936	0.327194	0.619670
	C155	C	0.119639	0.330192	0.378005
	C156	C	0.890447	0.384348	0.677090
	C157	C	0.120775	0.622902	0.669796
	C158	C	0.889284	0.625663	0.318805
	C159	C	0.119663	0.388075	0.320726
	C160	C	0.387288	0.683637	0.881734
	C161	C	0.624731	0.682874	0.111119
	C162	C	0.626538	0.329760	0.882368
	C163	C	0.384593	0.326829	0.110685
	C164	C	0.681480	0.890770	0.377935
	C165	C	0.680764	0.119483	0.614336
	C166	C	0.325484	0.891220	0.618745
	C167	C	0.328312	0.119850	0.376723
	C168	C	0.883949	0.392000	0.176638
	C169	C	0.124746	0.620698	0.170909
	C170	C	0.125451	0.391053	0.820253
	C171	C	0.887306	0.620083	0.819261
	C172	C	0.180297	0.888545	0.381477
	C173	C	0.179600	0.122927	0.612249
	C174	C	0.828640	0.125049	0.382489
	C175	C	0.826300	0.884266	0.611752
	C176	C	0.389942	0.183329	0.877766
	C177	C	0.620828	0.180992	0.114046
	C178	C	0.389765	0.826992	0.118567
	C179	C	0.619255	0.831476	0.877959
	C180	C	0.389488	0.885235	0.175406
	C181	C	0.620653	0.123520	0.171921
	C182	C	0.389486	0.125930	0.820469
	C183	C	0.618764	0.888588	0.820706
	C184	C	0.884560	0.184180	0.383320
	C185	C	0.122973	0.181391	0.612118
	C186	C	0.123136	0.830476	0.381432
	C187	C	0.883131	0.826127	0.611404
	C188	C	0.182750	0.390807	0.877600
	C189	C	0.182339	0.620451	0.113163
	C190	C	0.827041	0.391633	0.118550
	C191	C	0.830461	0.620525	0.877316
	C192	C	0.403819	0.099950	0.596283
	C193	C	0.602165	0.910591	0.597613
	C194	C	0.604052	0.099543	0.396111
	C195	C	0.404922	0.910628	0.399050
	C196	C	0.603588	0.405131	0.091307
	C197	C	0.606826	0.607931	0.901634
	C198	C	0.405617	0.603774	0.090982
	C199	C	0.406810	0.406752	0.901511
	C200	C	0.099243	0.606997	0.395030
	C201	C	0.909719	0.602868	0.596169
	C202	C	0.099920	0.405241	0.596376
	C203	C	0.909844	0.407523	0.399923
	C204	C	0.906090	0.600147	0.095132
	C205	C	0.103489	0.411601	0.096847
	C206	C	0.107508	0.600508	0.893989
	C207	C	0.906496	0.411422	0.899301
	C208	C	0.102303	0.904304	0.591426
	C209	C	0.103699	0.106703	0.402838
	C210	C	0.904256	0.103511	0.592172
	C211	C	0.904782	0.906176	0.402175
	C212	C	0.599874	0.105728	0.895604
	C213	C	0.410247	0.104313	0.096494
	C214	C	0.599641	0.906351	0.096564
	C215	C	0.408888	0.906938	0.900372
	Zn216	Zn	0.503426	0.005748	0.747702
	Zn217	Zn	0.504663	0.005048	0.246987
	Zn218	Zn	0.755331	0.505839	-0.003221
	Zn219	Zn	0.256173	0.505209	-0.004172
	Zn220	Zn	0.003272	0.755135	0.496115
	Zn221	Zn	0.003922	0.255781	0.497831
	Zn222	Zn	0.005813	0.504992	0.746739
	Zn223	Zn	0.004867	0.506118	0.246725
	Zn224	Zn	0.504676	0.756238	-0.002830
	Zn225	Zn	0.505136	0.255460	-0.003765
	Zn226	Zn	0.754031	0.004763	0.496930
	Zn227	Zn	0.254001	0.005496	0.496731
	N228	N	0.416640	0.968940	0.677461
	N229	N	0.588803	0.042408	0.674251
	N230	N	0.590980	0.968415	0.317897
	N231	N	0.418922	0.041984	0.318328
	N232	N	0.682878	0.421997	0.959374
	N233	N	0.683800	0.591601	0.033863
	N234	N	0.329243	0.590161	0.958585
	N235	N	0.326357	0.418712	0.033085
	N236	N	0.966286	0.683946	0.410718
	N237	N	0.041549	0.682828	0.580757
	N238	N	0.967631	0.325979	0.584763
	N239	N	0.041677	0.328465	0.412359
	N240	N	0.968361	0.418241	0.677315
	N241	N	0.042841	0.588920	0.672444
	N242	N	0.967510	0.593107	0.316335
	N243	N	0.042057	0.422010	0.320271
	N244	N	0.419280	0.684964	0.959794
	N245	N	0.592130	0.685812	0.033223
	N246	N	0.592457	0.326804	0.960077
	N247	N	0.418849	0.326026	0.033077
	N248	N	0.682879	0.968274	0.410927
	N249	N	0.681968	0.041819	0.581930
	N250	N	0.324649	0.968410	0.583638
	N251	N	0.326791	0.042503	0.411565
	N252	N	0.918033	0.469456	0.176824
	N253	N	0.090815	0.543055	0.174090
	N254	N	0.092771	0.468998	0.817328
	N255	N	0.920433	0.542356	0.818349
	N256	N	0.181751	0.920786	0.459474
	N257	N	0.181458	0.090179	0.534586
	N258	N	0.826822	0.090417	0.459902
	N259	N	0.825581	0.919097	0.534171
	N260	N	0.468131	0.184897	0.910270
	N261	N	0.542731	0.182990	0.081300
	N262	N	0.467950	0.825487	0.084885
	N263	N	0.541287	0.829178	0.912076
	N264	N	0.467343	0.919337	0.176205
	N265	N	0.542426	0.090376	0.174390
	N266	N	0.467162	0.092312	0.818222
	N267	N	0.540467	0.921208	0.819774
	N268	N	0.917349	0.185195	0.461209
	N269	N	0.090561	0.184696	0.534174
	N270	N	0.089470	0.827281	0.459297
	N271	N	0.917158	0.825332	0.533643
	N272	N	0.184930	0.468450	0.909824
	N273	N	0.183445	0.542789	0.080829
	N274	N	0.825991	0.468844	0.083516
	N275	N	0.828560	0.543190	0.911943
	O276	O	0.056355	0.032299	-0.030063
	H277	H	0.053040	0.026945	-0.032943
	H278	H	0.056427	0.031170	-0.033333
	O279	O	0.562753	0.436360	0.501191
	H280	H	0.567985	0.428139	0.496525
	H281	H	0.557637	0.446069	0.486910
	O282	O	0.472166	0.480901	0.572268
	H283	H	0.469409	0.479155	0.556751
	H284	H	0.475222	0.462014	0.578626
	O285	O	0.996127	0.033057	0.996822
	H286	H	0.997683	0.030158	0.994053
	H287	H	0.998390	0.029376	1.003898
	O288	O	1.043720	0.088389	-0.018341
	H289	H	1.039104	0.095876	-0.021210
	H290	H	1.052586	0.087946	-0.019009
	O291	O	0.460723	0.457937	0.399538
	H292	H	0.469864	0.464610	0.396926
	H293	H	0.460605	0.464585	0.401200
	O294	O	1.026797	-0.026996	1.082700
	H295	H	1.033029	-0.033607	1.086042
	H296	H	1.039932	-0.018688	1.072658
	O297	O	0.016963	0.022795	-0.029679
	H298	H	0.015202	0.027873	-0.037951
	H299	H	0.024725	0.012757	-0.032671
	O300	O	0.509883	0.410938	0.483013
	H301	H	0.514730	0.416393	0.470751
	H302	H	0.524584	0.396977	0.482411
	O303	O	1.024302	-0.029260	0.002822
	H304	H	1.018458	-0.039357	0.000336
	H305	H	1.015655	-0.031967	0.002733
	O306	O	0.985541	-0.001972	0.053226
	H307	H	0.984701	-0.002616	0.063470
	H308	H	0.989235	0.004583	0.053399
	O309	O	0.039821	0.073210	1.034126
	H310	H	0.042697	0.065901	1.032243
	H311	H	0.041037	0.078216	1.031393
	O312	O	0.988793	0.975041	1.026267
	H313	H	0.989289	0.977294	1.017690
	H314	H	0.987729	0.975300	1.033197
	O315	O	0.423535	0.542296	0.432815
	H316	H	0.422656	0.545864	0.430105
	H317	H	0.430098	0.536834	0.433584
	O318	O	0.510900	0.492428	0.473115
	H319	H	0.498271	0.494441	0.481216
	H320	H	0.502286	0.502102	0.470035
	O321	O	-0.044639	0.961212	1.042178
	H322	H	-0.053792	0.969023	1.047032
	H323	H	-0.051331	0.955069	1.042145
	O324	O	0.569523	0.504972	0.442064
	H325	H	0.576893	0.507474	0.436475
	H326	H	0.560573	0.510115	0.434533
	O327	O	0.541826	0.549824	0.506776
	H328	H	0.549526	0.554631	0.519104
	H329	H	0.530170	0.553902	0.502974
	O330	O	0.449980	0.496561	0.549163
	H331	H	0.463593	0.498004	0.552312
	H332	H	0.444456	0.506281	0.551098
	O333	O	0.503651	0.490841	0.555096
	H334	H	0.502547	0.485395	0.566200
	H335	H	0.508947	0.478041	0.547285
	O336	O	0.445475	0.553198	0.485837
	H337	H	0.444103	0.552094	0.498506
	H338	H	0.450239	0.539874	0.489964
	O339	O	0.936665	0.919293	0.036354
	H340	H	0.935297	0.926970	0.039858
	H341	H	0.926258	0.922822	0.046620
	O342	O	0.515240	0.571383	0.421397
	H343	H	0.493346	0.575360	0.422817
	H344	H	0.512701	0.571287	0.431637
	O345	O	0.546669	0.402619	0.465632
	H346	H	0.556896	0.394871	0.453285
	H347	H	0.536829	0.414210	0.466173
	O348	O	-0.021581	-0.007026	0.003924
	H349	H	-0.022970	-0.012851	0.018346
	H350	H	-0.027072	-0.015939	0.006259
	O351	O	0.014416	1.018434	1.018112
	H352	H	0.018933	1.019806	1.017688
	H353	H	0.008692	1.020929	1.015576
	O354	O	0.598388	0.473546	0.445994
	H355	H	0.599107	0.475732	0.445417
	H356	H	0.594962	0.470207	0.441620
	O357	O	-0.528066	1.557062	1.482286
	H358	H	-0.522094	1.550791	1.488539
	H359	H	-0.538123	1.563076	1.488003
