data_Molecule from HDF5

_cell_length_a		16.175042
_cell_length_b		16.365731
_cell_length_c		16.290061
_cell_angle_alpha	90.135530
_cell_angle_beta	90.290718
_cell_angle_gamma	90.215999
_symmetry_space_group_name_H-M	'P 1'
_symmetry_Int_Tables_number		1

loop_
	_symmetry_equiv_pos_as_xyz
	x,y,z

loop_
	_atom_site_label
	_atom_site_type_symbol
	_atom_site_fract_x
	_atom_site_fract_y
	_atom_site_fract_z
	H0	H	0.395877	0.843263	0.710899
	H1	H	0.597529	0.167664	0.713443
	H2	H	0.596272	0.842901	0.279354
	H3	H	0.397111	0.168637	0.279405
	H4	H	0.709593	0.406999	0.833558
	H5	H	0.711073	0.603386	0.160803
	H6	H	0.280102	0.601766	0.833902
	H7	H	0.283770	0.407569	0.162096
	H8	H	0.831257	0.719276	0.397537
	H9	H	0.159818	0.722106	0.599203
	H10	H	0.830881	0.289722	0.595946
	H11	H	0.160044	0.292585	0.400490
	H12	H	0.829793	0.406732	0.709911
	H13	H	0.160035	0.604530	0.712897
	H14	H	0.830972	0.603656	0.282615
	H15	H	0.160121	0.407414	0.285121
	H16	H	0.393592	0.720277	0.833777
	H17	H	0.598812	0.722821	0.159027
	H18	H	0.595364	0.289993	0.833830
	H19	H	0.396598	0.288070	0.159201
	H20	H	0.709950	0.841964	0.398302
	H21	H	0.710774	0.169242	0.593793
	H22	H	0.281931	0.842288	0.592527
	H23	H	0.282020	0.169181	0.397638
	H24	H	0.896837	0.342405	0.211458
	H25	H	0.097143	0.667814	0.215146
	H26	H	0.093194	0.342750	0.781908
	H27	H	0.894692	0.667809	0.781878
	H28	H	0.206384	0.909111	0.332152
	H29	H	0.212797	0.105356	0.660381
	H30	H	0.782986	0.101058	0.332136
	H31	H	0.782426	0.908406	0.660676
	H32	H	0.331766	0.218243	0.894981
	H33	H	0.660131	0.221589	0.097164
	H34	H	0.332104	0.789923	0.094150
	H35	H	0.659383	0.789169	0.895574
	H36	H	0.331472	0.906914	0.207655
	H37	H	0.660731	0.104237	0.210888
	H38	H	0.331936	0.101231	0.781537
	H39	H	0.661025	0.907045	0.783167
	H40	H	0.895173	0.221059	0.333935
	H41	H	0.096871	0.222634	0.659787
	H42	H	0.094176	0.789136	0.334667
	H43	H	0.894623	0.789504	0.660293
	H44	H	0.207662	0.341198	0.900929
	H45	H	0.212702	0.668159	0.098096
	H46	H	0.782327	0.341641	0.093657
	H47	H	0.780069	0.667867	0.898671
	H48	H	0.409915	0.118713	0.584211
	H49	H	0.597195	0.884751	0.596076
	H50	H	0.600245	0.121547	0.410791
	H51	H	0.406961	0.888394	0.390092
	H52	H	0.585711	0.406743	0.113530
	H53	H	0.583716	0.598600	0.882574
	H54	H	0.409715	0.591010	0.109420
	H55	H	0.391180	0.412756	0.877957
	H56	H	0.111052	0.600489	0.411946
	H57	H	0.878633	0.604748	0.583798
	H58	H	0.110023	0.420968	0.590470
	H59	H	0.874191	0.406349	0.397520
	H60	H	0.114612	0.410427	0.596473
	H61	H	0.881081	0.590497	0.587891
	H62	H	0.110876	0.593476	0.406560
	H63	H	0.879102	0.408387	0.411765
	H64	H	0.411095	0.605197	0.113433
	H65	H	0.589248	0.599674	0.879759
	H66	H	0.594191	0.413184	0.115284
	H67	H	0.406267	0.418078	0.884151
	H68	H	0.589448	0.125214	0.389912
	H69	H	0.578301	0.891955	0.594412
	H70	H	0.398797	0.122402	0.587776
	H71	H	0.406975	0.894206	0.409674
	H72	H	0.901376	0.621385	0.090474
	H73	H	0.084429	0.391643	0.088627
	H74	H	0.086340	0.619223	0.907514
	H75	H	0.896500	0.387539	0.905553
	H76	H	0.086433	0.905812	0.615075
	H77	H	0.087402	0.108257	0.378542
	H78	H	0.899771	0.105548	0.616951
	H79	H	0.915884	0.914952	0.385241
	H80	H	0.612642	0.089185	0.898737
	H81	H	0.375501	0.095786	0.099381
	H82	H	0.615749	0.910337	0.092239
	H83	H	0.378903	0.910056	0.903906
	H84	H	0.612492	0.909982	0.083665
	H85	H	0.378273	0.108353	0.079388
	H86	H	0.618061	0.108320	0.899819
	H87	H	0.379267	0.913139	0.903254
	H88	H	0.900392	0.091463	0.611772
	H89	H	0.095218	0.094413	0.379677
	H90	H	0.096445	0.915920	0.614665
	H91	H	0.900346	0.897327	0.376657
	H92	H	0.090779	0.620920	0.906423
	H93	H	0.094965	0.388555	0.090292
	H94	H	0.904987	0.621182	0.093667
	H95	H	0.903437	0.388572	0.897090
	H96	H	0.407519	0.122165	0.595974
	H97	H	0.591001	0.892654	0.578853
	H98	H	0.577151	0.115748	0.408587
	H99	H	0.389749	0.886141	0.400972
	H100	H	0.585683	0.417011	0.111316
	H101	H	0.587262	0.593652	0.881498
	H102	H	0.397644	0.598288	0.115750
	H103	H	0.404373	0.401772	0.878696
	H104	H	0.114370	0.601023	0.404011
	H105	H	0.875545	0.600258	0.597394
	H106	H	0.111280	0.409850	0.584093
	H107	H	0.879763	0.419762	0.401867
	H108	H	0.905564	0.620612	0.089368
	H109	H	0.088053	0.387553	0.098740
	H110	H	0.086545	0.621184	0.903443
	H111	H	0.906862	0.391535	0.906905
	H112	H	0.082867	0.918805	0.610326
	H113	H	0.080491	0.095578	0.384262
	H114	H	0.912471	0.100282	0.611706
	H115	H	0.892504	0.921021	0.380344
	H116	H	0.610666	0.099291	0.915916
	H117	H	0.385217	0.085978	0.080253
	H118	H	0.612479	0.917991	0.088944
	H119	H	0.377800	0.910876	0.901022
	C120	C	0.375317	0.013770	0.617184
	C121	C	0.618504	0.997363	0.618558
	C122	C	0.617415	0.013342	0.374494
	C123	C	0.373323	0.997492	0.372434
	C124	C	0.616770	0.384151	0.005368
	C125	C	0.617519	0.626964	0.988641
	C126	C	0.375181	0.626401	0.005228
	C127	C	0.372987	0.382170	0.988234
	C128	C	0.003557	0.626475	0.377708
	C129	C	0.987079	0.627602	0.619384
	C130	C	0.003277	0.384700	0.618545
	C131	C	0.986710	0.383499	0.375627
	C132	C	0.874625	0.513358	0.119064
	C133	C	0.118732	0.496891	0.121379
	C134	C	0.116551	0.513463	0.876691
	C135	C	0.873497	0.496981	0.875291
	C136	C	0.116823	0.884503	0.505524
	C137	C	0.117974	0.128205	0.488679
	C138	C	0.875241	0.126816	0.505108
	C139	C	0.873783	0.883120	0.488737
	C140	C	0.505003	0.126566	0.874881
	C141	C	0.487928	0.126352	0.116705
	C142	C	0.504867	0.884156	0.116504
	C143	C	0.487510	0.883469	0.874643
	C144	C	0.376547	0.891378	0.672338
	C145	C	0.617446	0.119479	0.674807
	C146	C	0.615549	0.891248	0.318380
	C147	C	0.376393	0.119876	0.317377
	C148	C	0.671875	0.386531	0.882255
	C149	C	0.673550	0.624449	0.111598
	C150	C	0.318109	0.623004	0.882671
	C151	C	0.320307	0.386225	0.112419
	C152	C	0.880107	0.681367	0.377988
	C153	C	0.110466	0.683839	0.618729
	C154	C	0.879731	0.328299	0.616250
	C155	C	0.110775	0.329564	0.379463
	C156	C	0.879172	0.386761	0.672532
	C157	C	0.110724	0.625213	0.675218
	C158	C	0.880137	0.623891	0.320659
	C159	C	0.110746	0.386615	0.322110
	C160	C	0.374801	0.681594	0.882528
	C161	C	0.617940	0.684109	0.110581
	C162	C	0.614806	0.328754	0.882281
	C163	C	0.376062	0.326667	0.110981
	C164	C	0.672277	0.890731	0.377338
	C165	C	0.673762	0.120230	0.615514
	C166	C	0.319510	0.891179	0.613717
	C167	C	0.318889	0.120183	0.375886
	C168	C	0.876664	0.391000	0.173562
	C169	C	0.117276	0.619205	0.177054
	C170	C	0.113971	0.391137	0.820354
	C171	C	0.874854	0.619139	0.819803
	C172	C	0.170388	0.887354	0.381879
	C173	C	0.174407	0.125860	0.611503
	C174	C	0.820299	0.122731	0.381397
	C175	C	0.819407	0.887063	0.611963
	C176	C	0.381206	0.181091	0.875636
	C177	C	0.611195	0.182923	0.116569
	C178	C	0.381127	0.828011	0.114438
	C179	C	0.610847	0.827755	0.875897
	C180	C	0.380753	0.886358	0.170524
	C181	C	0.611360	0.124651	0.173205
	C182	C	0.381121	0.122745	0.819227
	C183	C	0.611425	0.886465	0.820095
	C184	C	0.875912	0.182411	0.382347
	C185	C	0.116740	0.183846	0.611405
	C186	C	0.114330	0.828163	0.382858
	C187	C	0.875000	0.827831	0.611635
	C188	C	0.170467	0.390304	0.879701
	C189	C	0.174648	0.619321	0.118736
	C190	C	0.819235	0.390757	0.115397
	C191	C	0.818074	0.619454	0.878143
	C192	C	0.398543	0.099102	0.595621
	C193	C	0.595614	0.912042	0.596341
	C194	C	0.595401	0.098751	0.396655
	C195	C	0.394840	0.911691	0.394017
	C196	C	0.594976	0.405916	0.091238
	C197	C	0.593776	0.604096	0.903219
	C198	C	0.399220	0.604490	0.090768
	C199	C	0.394351	0.404098	0.902425
	C200	C	0.089700	0.604731	0.400719
	C201	C	0.900730	0.605154	0.596557
	C202	C	0.089659	0.406990	0.596579
	C203	C	0.900201	0.405108	0.397247
	C204	C	0.897353	0.599100	0.097490
	C205	C	0.095869	0.411501	0.099325
	C206	C	0.094516	0.598539	0.899250
	C207	C	0.895658	0.411418	0.896814
	C208	C	0.094849	0.906917	0.591187
	C209	C	0.094528	0.105948	0.403012
	C210	C	0.897730	0.105383	0.591206
	C211	C	0.896286	0.904711	0.402985
	C212	C	0.591546	0.105191	0.897878
	C213	C	0.401805	0.103418	0.093161
	C214	C	0.591227	0.906240	0.094663
	C215	C	0.401014	0.904898	0.896645
	Zn216	Zn	0.496587	0.005141	0.747467
	Zn217	Zn	0.496002	0.005150	0.244740
	Zn218	Zn	0.745850	0.504937	-0.002994
	Zn219	Zn	0.246028	0.504987	-0.001934
	Zn220	Zn	-0.004660	0.755706	0.497822
	Zn221	Zn	-0.004685	0.256548	0.497493
	Zn222	Zn	-0.005215	0.505512	0.746935
	Zn223	Zn	-0.004250	0.505428	0.249064
	Zn224	Zn	0.496233	0.755722	-0.003902
	Zn225	Zn	0.495936	0.254889	-0.003976
	Zn226	Zn	0.746558	0.005081	0.496294
	Zn227	Zn	0.245768	0.005764	0.496138
	N228	N	0.410527	0.968614	0.674869
	N229	N	0.583984	0.042087	0.676994
	N230	N	0.582054	0.968450	0.316738
	N231	N	0.409299	0.042464	0.315165
	N232	N	0.673080	0.420400	0.959680
	N233	N	0.673427	0.589534	0.034688
	N234	N	0.318471	0.589242	0.959945
	N235	N	0.318297	0.419931	0.035171
	N236	N	0.957687	0.683157	0.412588
	N237	N	0.032434	0.685295	0.584485
	N238	N	0.957784	0.327128	0.583196
	N239	N	0.032511	0.327635	0.412152
	N240	N	0.957076	0.421041	0.674230
	N241	N	0.033109	0.590875	0.675578
	N242	N	0.957915	0.590033	0.320666
	N243	N	0.032698	0.419419	0.319828
	N244	N	0.409678	0.683775	0.959814
	N245	N	0.583864	0.685673	0.033145
	N246	N	0.581139	0.327249	0.959569
	N247	N	0.407904	0.323887	0.032758
	N248	N	0.673803	0.967603	0.411455
	N249	N	0.674586	0.043233	0.581279
	N250	N	0.318828	0.968129	0.580208
	N251	N	0.316807	0.042985	0.409323
	N252	N	0.910359	0.468306	0.175939
	N253	N	0.083311	0.541997	0.178883
	N254	N	0.081127	0.468557	0.818447
	N255	N	0.908403	0.542157	0.818081
	N256	N	0.172019	0.921523	0.459090
	N257	N	0.175182	0.091847	0.534125
	N258	N	0.819579	0.088944	0.458720
	N259	N	0.818293	0.920522	0.534579
	N260	N	0.459260	0.183303	0.909756
	N261	N	0.533388	0.184236	0.082166
	N262	N	0.459334	0.826597	0.081435
	N263	N	0.532911	0.825837	0.909115
	N264	N	0.458705	0.920397	0.172131
	N265	N	0.533666	0.090107	0.173152
	N266	N	0.458986	0.089631	0.818805
	N267	N	0.533682	0.920313	0.819144
	N268	N	0.909510	0.184778	0.460186
	N269	N	0.082547	0.185599	0.534066
	N270	N	0.081789	0.826240	0.460816
	N271	N	0.907999	0.825285	0.533960
	N272	N	0.172149	0.467138	0.914215
	N273	N	0.175816	0.542237	0.084973
	N274	N	0.818086	0.467922	0.081972
	N275	N	0.816874	0.542407	0.911859
	O276	O	0.503247	0.542651	0.564414
	H277	H	0.503891	0.542575	0.575182
	H278	H	0.505204	0.543212	0.560091
	O279	O	0.424382	0.631023	0.420410
	H280	H	0.416746	0.638636	0.423060
	H281	H	0.417392	0.630529	0.421730
	O282	O	0.426697	0.524018	0.479960
	H283	H	0.409290	0.529071	0.478705
	H284	H	0.429829	0.523019	0.480481
	O285	O	0.023094	0.974034	0.979228
	H286	H	0.030473	0.970110	0.984888
	H287	H	0.031132	0.977920	0.978991
	O288	O	0.070983	0.019321	0.987193
	H289	H	0.070986	0.021017	0.980858
	H290	H	0.064171	0.023664	0.988452
	O291	O	0.099655	0.020008	1.076401
	H292	H	0.111086	0.009972	1.084022
	H293	H	0.089748	0.016805	1.072142
	O294	O	0.434955	0.512302	0.512102
	H295	H	0.444081	0.520658	0.511158
	H296	H	0.422774	0.502946	0.515571
	O297	O	0.468486	0.482417	0.518660
	H298	H	0.478234	0.473741	0.515229
	H299	H	0.466489	0.495347	0.514269
	O300	O	0.536386	0.571155	0.492663
	H301	H	0.526035	0.572670	0.495391
	H302	H	0.535172	0.563606	0.478083
	O303	O	0.588346	0.546098	0.497853
	H304	H	0.577927	0.547345	0.491245
	H305	H	0.600881	0.548651	0.500578
	O306	O	1.059280	0.015159	1.007398
	H307	H	1.068736	0.016335	1.019868
	H308	H	1.055609	0.015890	1.003600
	O309	O	0.463665	0.531909	0.495672
	H310	H	0.463110	0.542757	0.496446
	H311	H	0.464778	0.536049	0.497909
	O312	O	0.489710	0.484552	0.542147
	H313	H	0.492530	0.492269	0.554063
	H314	H	0.493815	0.479366	0.538749
	O315	O	1.024233	0.038878	1.045239
	H316	H	1.039219	0.043566	1.042816
	H317	H	1.026972	0.038813	1.048267
	O318	O	0.515383	-0.529238	-0.440997
	H319	H	0.520377	-0.526370	-0.441730
	H320	H	0.515210	-0.531518	-0.437026
	O321	O	0.544320	0.544509	0.517041
	H322	H	0.550625	0.548986	0.502327
	H323	H	0.553965	0.536210	0.519553
	O324	O	1.055835	0.020926	0.045279
	H325	H	1.055929	0.029458	0.049260
	H326	H	1.045128	0.025563	0.046862
	O327	O	1.022466	0.975860	0.051418
	H328	H	1.016953	0.977018	0.048177
	H329	H	1.030904	0.977787	0.053437
	O330	O	0.489914	0.583459	0.513297
	H331	H	0.497897	0.584963	0.529398
	H332	H	0.498238	0.570587	0.510620
	O333	O	0.450042	0.574103	0.421269
	H334	H	0.441749	0.582769	0.420249
	H335	H	0.440908	0.573980	0.429473
