data_Molecule from HDF5

_cell_length_a		16.558715
_cell_length_b		16.533648
_cell_length_c		16.493244
_cell_angle_alpha	90.142035
_cell_angle_beta	90.135154
_cell_angle_gamma	90.002448
_symmetry_space_group_name_H-M	'P 1'
_symmetry_Int_Tables_number		1

loop_
	_symmetry_equiv_pos_as_xyz
	x,y,z

loop_
	_atom_site_label
	_atom_site_type_symbol
	_atom_site_fract_x
	_atom_site_fract_y
	_atom_site_fract_z
	H0	H	0.398348	0.867670	0.728447
	H1	H	0.607097	0.181631	0.734367
	H2	H	0.604341	0.869219	0.287030
	H3	H	0.391577	0.183075	0.288931
	H4	H	0.718798	0.423234	0.854201
	H5	H	0.725627	0.637655	0.167508
	H6	H	0.279775	0.629628	0.854856
	H7	H	0.276511	0.419887	0.168333
	H8	H	0.843215	0.749228	0.403386
	H9	H	0.156031	0.743349	0.613274
	H10	H	0.842701	0.301756	0.617996
	H11	H	0.155487	0.303411	0.405369
	H12	H	0.841606	0.420005	0.732400
	H13	H	0.156659	0.627054	0.729814
	H14	H	0.842958	0.633305	0.286327
	H15	H	0.154641	0.418337	0.288728
	H16	H	0.396905	0.744466	0.853881
	H17	H	0.606797	0.750838	0.169104
	H18	H	0.603623	0.305717	0.854452
	H19	H	0.392093	0.302708	0.167574
	H20	H	0.723062	0.870436	0.400654
	H21	H	0.723363	0.181040	0.618379
	H22	H	0.279785	0.868997	0.613706
	H23	H	0.277231	0.183063	0.405265
	H24	H	0.890263	0.369089	0.233951
	H25	H	0.103679	0.681983	0.233780
	H26	H	0.100271	0.367698	0.793972
	H27	H	0.898459	0.685022	0.794897
	H28	H	0.220356	0.918958	0.353450
	H29	H	0.215806	0.126501	0.669891
	H30	H	0.770924	0.136913	0.355726
	H31	H	0.774713	0.918315	0.664886
	H32	H	0.344332	0.247581	0.906556
	H33	H	0.656406	0.249257	0.119447
	H34	H	0.342706	0.804602	0.116105
	H35	H	0.657070	0.806781	0.909521
	H36	H	0.340941	0.923621	0.229747
	H37	H	0.654770	0.134199	0.236990
	H38	H	0.344315	0.130358	0.789760
	H39	H	0.657475	0.923364	0.792490
	H40	H	0.887441	0.252225	0.355749
	H41	H	0.099295	0.242856	0.669826
	H42	H	0.105263	0.801682	0.353935
	H43	H	0.892701	0.804070	0.666855
	H44	H	0.219214	0.369021	0.908155
	H45	H	0.219451	0.682709	0.117507
	H46	H	0.773712	0.370967	0.118984
	H47	H	0.780334	0.684142	0.908984
	H48	H	0.409625	0.141465	0.607806
	H49	H	0.592087	0.912893	0.598956
	H50	H	0.587243	0.135041	0.431275
	H51	H	0.415574	0.914284	0.416122
	H52	H	0.586733	0.444192	0.122283
	H53	H	0.584807	0.615093	0.901079
	H54	H	0.410886	0.618564	0.126475
	H55	H	0.418998	0.432018	0.900594
	H56	H	0.110390	0.616244	0.424506
	H57	H	0.885696	0.615733	0.599883
	H58	H	0.110011	0.437507	0.600045
	H59	H	0.891116	0.445303	0.426078
	H60	H	0.111476	0.435639	0.605727
	H61	H	0.884467	0.615121	0.604705
	H62	H	0.107644	0.610821	0.427168
	H63	H	0.885398	0.437941	0.418067
	H64	H	0.406780	0.615280	0.125690
	H65	H	0.590141	0.618699	0.898622
	H66	H	0.583408	0.437437	0.122612
	H67	H	0.401374	0.433067	0.894474
	H68	H	0.587278	0.138033	0.421481
	H69	H	0.585342	0.913389	0.602605
	H70	H	0.413472	0.136324	0.597433
	H71	H	0.409801	0.916477	0.427984
	H72	H	0.912396	0.637940	0.100429
	H73	H	0.085026	0.412109	0.106202
	H74	H	0.089910	0.639466	0.920529
	H75	H	0.901391	0.410620	0.921379
	H76	H	0.082083	0.939118	0.619620
	H77	H	0.088154	0.117694	0.397178
	H78	H	0.905695	0.119244	0.625675
	H79	H	0.911602	0.943809	0.400075
	H80	H	0.609868	0.103933	0.921513
	H81	H	0.390979	0.114742	0.091536
	H82	H	0.606661	0.941648	0.091253
	H83	H	0.384204	0.932968	0.916454
	H84	H	0.611058	0.945318	0.106502
	H85	H	0.389323	0.109393	0.101732
	H86	H	0.617850	0.121443	0.913775
	H87	H	0.386179	0.932074	0.922886
	H88	H	0.907781	0.101775	0.618680
	H89	H	0.089934	0.114319	0.397052
	H90	H	0.089129	0.925574	0.626260
	H91	H	0.917529	0.937336	0.400225
	H92	H	0.090904	0.640213	0.921215
	H93	H	0.083524	0.416761	0.093238
	H94	H	0.915926	0.635421	0.098469
	H95	H	0.912626	0.412277	0.916004
	H96	H	0.401954	0.140323	0.598607
	H97	H	0.585580	0.914977	0.595372
	H98	H	0.578662	0.133474	0.425814
	H99	H	0.403006	0.910651	0.418081
	H100	H	0.590069	0.438406	0.125444
	H101	H	0.591192	0.612521	0.901134
	H102	H	0.411834	0.614283	0.124607
	H103	H	0.409490	0.447899	0.902985
	H104	H	0.109981	0.610739	0.421148
	H105	H	0.883678	0.619441	0.602530
	H106	H	0.111922	0.431950	0.600787
	H107	H	0.888279	0.434109	0.429261
	H108	H	0.911847	0.636155	0.095985
	H109	H	0.095433	0.411069	0.097235
	H110	H	0.090380	0.640608	0.920324
	H111	H	0.910768	0.416240	0.927766
	H112	H	0.098369	0.939516	0.625062
	H113	H	0.085999	0.114137	0.397029
	H114	H	0.922572	0.114179	0.618196
	H115	H	0.909601	0.935570	0.396582
	H116	H	0.611393	0.121068	0.933735
	H117	H	0.385938	0.120624	0.100160
	H118	H	0.614193	0.930045	0.100568
	H119	H	0.387233	0.938632	0.920052
	C120	C	0.378021	0.034917	0.632190
	C121	C	0.621356	1.016898	0.632279
	C122	C	0.618748	0.033438	0.390513
	C123	C	0.376765	1.017463	0.388944
	C124	C	0.619723	0.406695	0.020025
	C125	C	0.621553	0.649002	1.003856
	C126	C	0.379015	0.647258	0.020992
	C127	C	0.377503	0.404670	1.003139
	C128	C	0.006739	0.646466	0.389965
	C129	C	0.989372	0.646923	0.632796
	C130	C	0.006815	0.403873	0.633275
	C131	C	0.990642	0.404594	0.390327
	C132	C	0.878172	0.534055	0.132309
	C133	C	0.120244	0.516829	0.132532
	C134	C	0.120855	0.534941	0.890139
	C135	C	0.877280	0.517518	0.890299
	C136	C	0.121069	0.903051	0.519128
	C137	C	0.118951	0.146033	0.502027
	C138	C	0.876748	0.147237	0.518707
	C139	C	0.878889	0.905193	0.501763
	C140	C	0.509492	0.147506	0.890236
	C141	C	0.491519	0.148034	0.132609
	C142	C	0.507193	0.906323	0.131920
	C143	C	0.491001	0.904026	0.889514
	C144	C	0.378353	0.915578	0.689627
	C145	C	0.624761	0.134638	0.693604
	C146	C	0.622548	0.916284	0.327755
	C147	C	0.373874	0.135708	0.328950
	C148	C	0.679216	0.404555	0.901499
	C149	C	0.683785	0.653744	0.121328
	C150	C	0.319548	0.648472	0.902139
	C151	C	0.316880	0.401840	0.121184
	C152	C	0.889794	0.708282	0.385818
	C153	C	0.108728	0.704518	0.632909
	C154	C	0.889331	0.342714	0.635892
	C155	C	0.107936	0.343183	0.386952
	C156	C	0.888982	0.401580	0.692993
	C157	C	0.108937	0.646531	0.690532
	C158	C	0.889604	0.650437	0.327819
	C159	C	0.107593	0.400707	0.329007
	C160	C	0.378043	0.705540	0.901692
	C161	C	0.624890	0.710442	0.121798
	C162	C	0.621997	0.346116	0.901687
	C163	C	0.374153	0.343385	0.120748
	C164	C	0.681561	0.916821	0.384420
	C165	C	0.682489	0.134387	0.635842
	C166	C	0.319442	0.916136	0.632610
	C167	C	0.316731	0.135733	0.386971
	C168	C	0.873187	0.416343	0.193697
	C169	C	0.122258	0.634897	0.193646
	C170	C	0.120400	0.415517	0.832431
	C171	C	0.878332	0.636999	0.833197
	C172	C	0.180765	0.900568	0.400795
	C173	C	0.176863	0.146050	0.621929
	C174	C	0.812632	0.153295	0.402324
	C175	C	0.816430	0.901131	0.618788
	C176	C	0.391278	0.207438	0.887809
	C177	C	0.609293	0.209019	0.137393
	C178	C	0.389223	0.845615	0.134143
	C179	C	0.609814	0.845834	0.889523
	C180	C	0.388625	0.904571	0.190910
	C181	C	0.608455	0.151603	0.195569
	C182	C	0.391228	0.149269	0.829932
	C183	C	0.610108	0.903826	0.831801
	C184	C	0.870653	0.210808	0.402353
	C185	C	0.118929	0.203857	0.622089
	C186	C	0.123391	0.842149	0.401170
	C187	C	0.875121	0.844288	0.619580
	C188	C	0.179507	0.416143	0.889047
	C189	C	0.179927	0.635307	0.135917
	C190	C	0.814952	0.417252	0.136487
	C191	C	0.819780	0.636876	0.890114
	C192	C	0.401621	0.117830	0.608189
	C193	C	0.595151	0.934985	0.606187
	C194	C	0.591930	0.114405	0.418256
	C195	C	0.402103	0.935247	0.413679
	C196	C	0.594017	0.432443	0.102112
	C197	C	0.595861	0.622845	0.921494
	C198	C	0.403302	0.622959	0.104019
	C199	C	0.402889	0.430426	0.920766
	C200	C	0.088315	0.619996	0.416619
	C201	C	0.906284	0.623472	0.609162
	C202	C	0.089687	0.428070	0.608974
	C203	C	0.909229	0.431269	0.416945
	C204	C	0.905397	0.615204	0.105809
	C205	C	0.095166	0.434791	0.106486
	C206	C	0.097333	0.618153	0.913884
	C207	C	0.901197	0.434460	0.914754
	C208	C	0.096791	0.927789	0.602129
	C209	C	0.094912	0.122317	0.418890
	C210	C	0.904090	0.119629	0.599730
	C211	C	0.905308	0.931523	0.420191
	C212	C	0.591559	0.122654	0.915752
	C213	C	0.410172	0.122367	0.105576
	C214	C	0.589137	0.931659	0.106697
	C215	C	0.407663	0.927706	0.912955
	Zn216	Zn	0.500496	0.025443	0.761291
	Zn217	Zn	0.498501	0.027075	0.261125
	Zn218	Zn	0.749302	0.527226	0.012039
	Zn219	Zn	0.249182	0.526463	0.011969
	Zn220	Zn	-0.001202	0.775425	0.510671
	Zn221	Zn	-0.001810	0.275454	0.510997
	Zn222	Zn	-0.001510	0.525719	0.761989
	Zn223	Zn	-0.001456	0.525149	0.260735
	Zn224	Zn	0.499827	0.776377	0.012449
	Zn225	Zn	0.500124	0.276840	0.012534
	Zn226	Zn	0.749163	0.025455	0.510047
	Zn227	Zn	0.248691	0.025830	0.510088
	N228	N	0.413839	0.990622	0.689874
	N229	N	0.587253	0.060555	0.691244
	N230	N	0.584316	0.989943	0.331235
	N231	N	0.410521	0.061248	0.329942
	N232	N	0.678037	0.441446	0.976223
	N233	N	0.681731	0.616044	0.046895
	N234	N	0.319730	0.613015	0.977407
	N235	N	0.319001	0.439238	0.046968
	N236	N	0.963868	0.705988	0.423438
	N237	N	0.033360	0.705048	0.597917
	N238	N	0.963724	0.344152	0.599407
	N239	N	0.033799	0.345021	0.424149
	N240	N	0.963082	0.438775	0.691571
	N241	N	0.033563	0.611745	0.690968
	N242	N	0.963363	0.612537	0.330429
	N243	N	0.033478	0.438043	0.330874
	N244	N	0.414176	0.705024	0.976680
	N245	N	0.586766	0.707149	0.047958
	N246	N	0.585721	0.347351	0.976554
	N247	N	0.411245	0.345091	0.046314
	N248	N	0.679218	0.990562	0.422724
	N249	N	0.680443	0.060076	0.598319
	N250	N	0.318870	0.991451	0.597777
	N251	N	0.318066	0.061008	0.423130
	N252	N	0.911611	0.489971	0.191283
	N253	N	0.085989	0.560191	0.191779
	N254	N	0.085060	0.490594	0.832661
	N255	N	0.913035	0.561586	0.832936
	N256	N	0.179428	0.937859	0.475332
	N257	N	0.177376	0.111261	0.546234
	N258	N	0.816652	0.114111	0.475630
	N259	N	0.818689	0.938404	0.544507
	N260	N	0.465735	0.206611	0.924376
	N261	N	0.535533	0.207045	0.099034
	N262	N	0.464031	0.846534	0.098378
	N263	N	0.534679	0.845954	0.924606
	N264	N	0.462896	0.941642	0.189660
	N265	N	0.534228	0.114714	0.192845
	N266	N	0.465734	0.112693	0.831175
	N267	N	0.534808	0.938887	0.831436
	N268	N	0.909743	0.207265	0.475684
	N269	N	0.084036	0.204435	0.546346
	N270	N	0.087202	0.843585	0.475917
	N271	N	0.913396	0.846863	0.545847
	N272	N	0.180090	0.491653	0.923988
	N273	N	0.179026	0.560937	0.098733
	N274	N	0.817790	0.491464	0.099235
	N275	N	0.818651	0.561212	0.924515
	O276	O	0.844570	1.198403	-0.192950
	H277	H	0.836546	1.206248	-0.153159
	H278	H	0.830046	1.208689	-0.212272
	O279	O	-0.224496	-0.198744	0.786272
	H280	H	-0.208086	-0.183700	0.789227
	H281	H	-0.230854	-0.188974	0.811928
	O282	O	0.688988	0.338815	0.325469
	H283	H	0.696755	0.366233	0.341364
	H284	H	0.692296	0.342693	0.345251
	O285	O	1.024829	0.244960	1.221237
	H286	H	1.054165	0.238689	1.222134
	H287	H	1.046495	0.267750	1.245461
	O288	O	1.166937	-0.149481	1.171530
	H289	H	1.149176	-0.129093	1.166204
	H290	H	1.162932	-0.150923	1.151146
	O291	O	0.524848	0.318054	0.561839
	H292	H	0.518114	0.317080	0.552650
	H293	H	0.531039	0.321784	0.549989
	O294	O	0.056351	-0.011133	0.153107
	H295	H	0.077687	-0.010487	0.155158
	H296	H	0.055676	0.004431	0.163234
	O297	O	1.059891	0.239317	0.063448
	H298	H	1.063017	0.233131	0.062245
	H299	H	1.055433	0.240067	0.067316
	O300	O	-0.192220	0.081946	0.154291
	H301	H	-0.194411	0.071246	0.167837
	H302	H	-0.191547	0.070613	0.164438
	O303	O	-0.090277	-0.027076	0.056892
	H304	H	-0.089839	-0.021516	0.043364
	H305	H	-0.090549	-0.035284	0.059048
	O306	O	0.852240	-0.181188	0.009094
	H307	H	0.865356	-0.176798	0.021667
	H308	H	0.835696	-0.186709	0.017474
	O309	O	0.492705	0.468124	0.363753
	H310	H	0.488082	0.456125	0.361582
	H311	H	0.476799	0.457599	0.361092
	O312	O	0.519940	0.336956	0.300668
	H313	H	0.532228	0.315285	0.280943
	H314	H	0.545804	0.334865	0.304412
	O315	O	0.640814	0.537061	0.494109
	H316	H	0.640422	0.552862	0.502736
	H317	H	0.632839	0.542007	0.481003
	O318	O	1.203623	1.002989	-0.206985
	H319	H	1.208091	0.988830	-0.218896
	H320	H	1.214507	0.978626	-0.215877
	O321	O	0.288692	0.318548	0.716668
	H322	H	0.286573	0.305320	0.741724
	H323	H	0.306922	0.301490	0.732926
	O324	O	0.510809	0.750853	1.497607
	H325	H	0.517611	0.746959	1.476937
	H326	H	0.500974	0.757627	1.487474
	O327	O	0.280120	0.495020	0.724163
	H328	H	0.265514	0.475077	0.734149
	H329	H	0.274234	0.475067	0.730116
	O330	O	-0.051180	1.024053	0.118832
	H331	H	-0.041693	1.029537	0.120615
	H332	H	-0.048555	1.014811	0.108400
	O333	O	0.834826	0.058084	0.037039
	H334	H	0.829479	0.056912	0.045192
	H335	H	0.835326	0.075055	0.039528
	O336	O	0.461713	0.313294	0.723667
	H337	H	0.479990	0.316362	0.712624
	H338	H	0.469198	0.297771	0.738557
	O339	O	0.434544	0.313225	0.443537
	H340	H	0.430207	0.314384	0.433412
	H341	H	0.432647	0.310491	0.450891
	O342	O	-0.212824	1.212753	-0.004301
	H343	H	-0.223452	1.222918	0.009243
	H344	H	-0.215759	1.197803	0.018399
	O345	O	0.413059	0.506866	0.579251
	H346	H	0.414163	0.503154	0.568806
	H347	H	0.420421	0.501181	0.577761
	O348	O	0.941144	0.195968	-0.171300
	H349	H	0.914395	0.200046	-0.159625
	H350	H	0.925055	0.214806	-0.183420
	O351	O	-0.059546	-0.100982	1.201870
	H352	H	-0.065300	-0.090748	1.202592
	H353	H	-0.051146	-0.103816	1.202809
	O354	O	1.449935	-0.411417	1.569884
	H355	H	1.431292	-0.431762	1.580785
	H356	H	1.451227	-0.416949	1.557105
	O357	O	0.383130	0.665118	0.682033
	H358	H	0.396989	0.662001	0.664703
	H359	H	0.383552	0.640254	0.679185
	O360	O	0.703411	0.681553	0.706392
	H361	H	0.690697	0.699583	0.715552
	H362	H	0.704392	0.698157	0.728692
	O363	O	0.531761	0.481281	-0.269975
	H364	H	0.532435	0.485062	-0.270987
	H365	H	0.545831	0.474919	-0.264479
	O366	O	0.899274	0.095458	1.126019
	H367	H	0.897624	0.084904	1.140391
	H368	H	0.905399	0.111004	1.129049
	O369	O	0.113575	0.218064	0.884314
	H370	H	0.114735	0.208677	0.900720
	H371	H	0.080421	0.225125	0.900311
	O372	O	0.052861	0.923571	1.047141
	H373	H	0.048811	0.912856	1.058673
	H374	H	0.051561	0.909188	1.057594
	O375	O	1.014026	0.009524	-0.208030
	H376	H	1.046519	0.013174	-0.219607
	H377	H	1.008283	0.034611	-0.202096
	O378	O	0.590107	0.667234	0.408233
	H379	H	0.584943	0.649719	0.413948
	H380	H	0.596135	0.668959	0.414588
	O381	O	0.032733	0.811602	-0.208785
	H382	H	0.033951	0.816411	-0.227375
	H383	H	0.039363	0.804901	-0.228499
	O384	O	0.287985	0.738943	0.493946
	H385	H	0.266006	0.753760	0.470564
	H386	H	0.295935	0.737450	0.465986
	O387	O	-0.167044	0.909049	1.181565
	H388	H	-0.136178	0.918505	1.181096
	H389	H	-0.178179	0.902198	1.192402
	O390	O	0.128788	0.905396	0.871108
	H391	H	0.104362	0.894395	0.865751
	H392	H	0.138460	0.891062	0.846629
	O393	O	1.212463	0.173730	-0.007332
	H394	H	1.212125	0.149829	-0.021177
	H395	H	1.220244	0.171499	-0.005243
	O396	O	0.685289	0.311238	0.500773
	H397	H	0.699945	0.306928	0.501780
	H398	H	0.689444	0.328463	0.515940
	O399	O	0.936802	0.816709	0.181762
	H400	H	0.937912	0.819039	0.178289
	H401	H	0.940901	0.810832	0.174596
	O402	O	0.714070	-0.498191	1.297254
	H403	H	0.735433	-0.489803	1.280487
	H404	H	0.702614	-0.489557	1.297567
	O405	O	0.288468	0.442945	0.440151
	H406	H	0.280920	0.435084	0.466188
	H407	H	0.289108	0.450517	0.461636
	O408	O	0.874700	0.937385	0.815230
	H409	H	0.873813	0.967245	0.812036
	H410	H	0.882512	0.944595	0.810824
	O411	O	1.075915	1.066706	-0.034186
	H412	H	1.070210	1.076079	-0.023582
	H413	H	1.077645	1.058096	-0.028701
	O414	O	-0.204122	0.083319	-0.201050
	H415	H	-0.208560	0.099764	-0.214765
	H416	H	-0.218082	0.095810	-0.191121
	O417	O	0.687513	0.709605	0.526134
	H418	H	0.674865	0.710100	0.543243
	H419	H	0.696457	0.730007	0.533576
	O420	O	0.636309	-0.454712	0.673557
	H421	H	0.659274	-0.444605	0.692452
	H422	H	0.628330	-0.429019	0.668519
	O423	O	1.145002	1.082228	0.015947
	H424	H	1.152592	1.080053	-0.000653
	H425	H	1.134587	1.081635	0.019035
	O426	O	0.087240	1.142877	-0.086568
	H427	H	0.085790	1.122892	-0.067922
	H428	H	0.064205	1.141256	-0.083887
	O429	O	0.684700	0.352926	0.688556
	H430	H	0.678541	0.378733	0.668113
	H431	H	0.665841	0.352764	0.665686
	O432	O	0.697432	0.633753	0.405007
	H433	H	0.681675	0.639751	0.411818
	H434	H	0.695953	0.641717	0.424004
	O435	O	1.020565	0.118649	-0.034110
	H436	H	1.017089	0.115709	-0.050875
	H437	H	1.012506	0.119515	-0.036883
	O438	O	0.272496	0.305412	0.545770
	H439	H	0.265781	0.298873	0.573516
	H440	H	0.252811	0.287250	0.568862
	O441	O	0.314251	0.636322	0.587723
	H442	H	0.325173	0.625866	0.583431
	H443	H	0.311797	0.633052	0.569011
	O444	O	0.320731	0.569960	0.418787
	H445	H	0.335072	0.570757	0.426152
	H446	H	0.300717	0.568657	0.408167
	O447	O	0.537416	0.573047	0.520153
	H448	H	0.546231	0.578053	0.512917
	H449	H	0.538275	0.560045	0.516895
	O450	O	1.189765	0.222514	0.206990
	H451	H	1.217711	0.247395	0.202520
	H452	H	1.197195	0.203282	0.180685
	O453	O	0.470658	0.738227	0.301018
	H454	H	0.460245	0.755134	0.295702
	H455	H	0.485909	0.723347	0.288176
	O456	O	0.213887	1.053249	1.229410
	H457	H	0.195792	1.071964	1.225642
	H458	H	0.246117	1.056708	1.265538
	O459	O	0.655694	-0.509105	0.629210
	H460	H	0.667137	-0.485941	0.632716
	H461	H	0.654115	-0.483254	0.628962
	O462	O	0.537053	0.741901	0.724373
	H463	H	0.512340	0.728044	0.717540
	H464	H	0.521878	0.763137	0.740437
	O465	O	1.011508	-0.152613	0.047983
	H466	H	1.001191	-0.155389	0.030142
	H467	H	0.995870	-0.147353	0.036231
	O468	O	0.307841	0.723578	0.320199
	H469	H	0.324182	0.738755	0.301031
	H470	H	0.301521	0.689445	0.306151
	O471	O	0.356021	0.386227	0.311634
	H472	H	0.369242	0.387226	0.319687
	H473	H	0.367495	0.388295	0.335159
	O474	O	0.434889	0.563238	0.292783
	H475	H	0.420940	0.549752	0.307961
	H476	H	0.414169	0.572305	0.284992
	O477	O	0.213094	-0.183785	0.885890
	H478	H	0.233065	-0.200921	0.893395
	H479	H	0.219112	-0.197243	0.867306
