data_Molecule from HDF5

_cell_length_a		16.316706
_cell_length_b		16.255827
_cell_length_c		16.279750
_cell_angle_alpha	89.772694
_cell_angle_beta	89.503510
_cell_angle_gamma	90.108668
_symmetry_space_group_name_H-M	'P 1'
_symmetry_Int_Tables_number		1

loop_
	_symmetry_equiv_pos_as_xyz
	x,y,z

loop_
	_atom_site_label
	_atom_site_type_symbol
	_atom_site_fract_x
	_atom_site_fract_y
	_atom_site_fract_z
	H0	H	0.392679	0.838174	0.716287
	H1	H	0.597787	0.163108	0.713564
	H2	H	0.598885	0.836481	0.280499
	H3	H	0.397238	0.161386	0.279524
	H4	H	0.715739	0.398017	0.834631
	H5	H	0.711820	0.601509	0.158709
	H6	H	0.282005	0.603134	0.832472
	H7	H	0.274576	0.398033	0.156484
	H8	H	0.832539	0.717793	0.396030
	H9	H	0.157371	0.718407	0.594563
	H10	H	0.833523	0.282280	0.597570
	H11	H	0.158411	0.285779	0.392528
	H12	H	0.833935	0.398171	0.714521
	H13	H	0.158449	0.600587	0.708176
	H14	H	0.832877	0.603868	0.278564
	H15	H	0.158978	0.403429	0.278082
	H16	H	0.397171	0.718097	0.834158
	H17	H	0.593844	0.713647	0.160228
	H18	H	0.597638	0.284075	0.833661
	H19	H	0.392613	0.283799	0.159039
	H20	H	0.714007	0.837385	0.395557
	H21	H	0.713290	0.162870	0.596915
	H22	H	0.276266	0.838617	0.600531
	H23	H	0.281387	0.161491	0.394333
	H24	H	0.893998	0.339378	0.214120
	H25	H	0.096669	0.664967	0.209168
	H26	H	0.097529	0.337895	0.778361
	H27	H	0.896982	0.663511	0.779871
	H28	H	0.215444	0.899313	0.333703
	H29	H	0.212869	0.103306	0.657285
	H30	H	0.779881	0.102408	0.332533
	H31	H	0.776205	0.897525	0.657477
	H32	H	0.335145	0.217139	0.896187
	H33	H	0.657197	0.219143	0.098550
	H34	H	0.334168	0.781821	0.099635
	H35	H	0.659108	0.784337	0.896503
	H36	H	0.334720	0.896148	0.216259
	H37	H	0.659099	0.097937	0.209282
	H38	H	0.334792	0.103696	0.780512
	H39	H	0.657777	0.897355	0.776703
	H40	H	0.898182	0.216117	0.330843
	H41	H	0.097208	0.219335	0.656507
	H42	H	0.096614	0.786353	0.332115
	H43	H	0.893159	0.784126	0.658179
	H44	H	0.214276	0.338575	0.892010
	H45	H	0.212482	0.664247	0.092471
	H46	H	0.778382	0.338949	0.100705
	H47	H	0.780468	0.663737	0.895161
	H48	H	0.397880	0.117518	0.586657
	H49	H	0.582571	0.885757	0.590328
	H50	H	0.588819	0.115895	0.402788
	H51	H	0.403811	0.884741	0.414818
	H52	H	0.594245	0.406734	0.114384
	H53	H	0.586942	0.583940	0.884370
	H54	H	0.396823	0.581352	0.110314
	H55	H	0.409466	0.408508	0.881772
	H56	H	0.111072	0.587319	0.394355
	H57	H	0.880654	0.595196	0.581373
	H58	H	0.107266	0.418327	0.580956
	H59	H	0.881449	0.413186	0.402810
	H60	H	0.113807	0.409406	0.593237
	H61	H	0.882405	0.583624	0.589636
	H62	H	0.114099	0.602512	0.399110
	H63	H	0.878909	0.406177	0.400573
	H64	H	0.412300	0.588122	0.108248
	H65	H	0.582540	0.598685	0.880341
	H66	H	0.584503	0.416643	0.108613
	H67	H	0.404022	0.404287	0.878582
	H68	H	0.589470	0.115961	0.401985
	H69	H	0.584167	0.886917	0.582888
	H70	H	0.406886	0.116982	0.594343
	H71	H	0.401106	0.880198	0.402925
	H72	H	0.903251	0.617648	0.087604
	H73	H	0.088970	0.384181	0.090724
	H74	H	0.087501	0.614597	0.910512
	H75	H	0.907238	0.385462	0.907495
	H76	H	0.081533	0.916613	0.607656
	H77	H	0.087122	0.085288	0.382117
	H78	H	0.914973	0.090749	0.606663
	H79	H	0.903550	0.916438	0.381210
	H80	H	0.608907	0.088746	0.912774
	H81	H	0.379747	0.096931	0.086034
	H82	H	0.610324	0.905235	0.081433
	H83	H	0.385099	0.914356	0.914460
	H84	H	0.611041	0.913474	0.091969
	H85	H	0.382644	0.084785	0.084981
	H86	H	0.611332	0.084911	0.900335
	H87	H	0.380290	0.912447	0.899140
	H88	H	0.899422	0.099697	0.613688
	H89	H	0.085327	0.099406	0.378711
	H90	H	0.081412	0.902491	0.612384
	H91	H	0.910952	0.906963	0.380899
	H92	H	0.098421	0.620394	0.898727
	H93	H	0.078732	0.388332	0.086448
	H94	H	0.904250	0.617585	0.086043
	H95	H	0.903486	0.384050	0.906686
	H96	H	0.408604	0.112781	0.583105
	H97	H	0.589841	0.883898	0.587220
	H98	H	0.588099	0.116446	0.401678
	H99	H	0.412488	0.884654	0.404963
	H100	H	0.579342	0.402474	0.111823
	H101	H	0.597627	0.593822	0.877989
	H102	H	0.399762	0.597764	0.114641
	H103	H	0.402693	0.411805	0.879940
	H104	H	0.108123	0.591730	0.409748
	H105	H	0.876286	0.596471	0.594576
	H106	H	0.110890	0.402138	0.579136
	H107	H	0.880508	0.407653	0.408267
	H108	H	0.902738	0.618195	0.085796
	H109	H	0.087844	0.387219	0.079404
	H110	H	0.082115	0.617143	0.895088
	H111	H	0.906092	0.384259	0.903312
	H112	H	0.094013	0.910291	0.613093
	H113	H	0.098294	0.092235	0.377281
	H114	H	0.898709	0.080885	0.609116
	H115	H	0.899828	0.905706	0.377358
	H116	H	0.614854	0.097532	0.903812
	H117	H	0.378958	0.089203	0.096761
	H118	H	0.615300	0.900671	0.092960
	H119	H	0.379257	0.900130	0.909850
	C120	C	0.373248	0.009016	0.619481
	C121	C	0.616602	0.992391	0.617082
	C122	C	0.618578	0.008369	0.373817
	C123	C	0.376131	0.990667	0.376298
	C124	C	0.617841	0.378220	0.004853
	C125	C	0.617466	0.621185	0.988315
	C126	C	0.374424	0.620804	0.004004
	C127	C	0.373593	0.377923	0.987105
	C128	C	0.003563	0.623686	0.372613
	C129	C	0.986717	0.622296	0.616998
	C130	C	0.003988	0.378858	0.616172
	C131	C	0.987646	0.379696	0.373077
	C132	C	0.873462	0.510193	0.117959
	C133	C	0.116356	0.493526	0.115042
	C134	C	0.118745	0.509606	0.872193
	C135	C	0.875338	0.492136	0.875440
	C136	C	0.116963	0.879656	0.503992
	C137	C	0.119230	0.122618	0.486439
	C138	C	0.875188	0.121262	0.502672
	C139	C	0.873511	0.878961	0.486834
	C140	C	0.505104	0.121200	0.875698
	C141	C	0.487683	0.120340	0.118178
	C142	C	0.505032	0.876441	0.119371
	C143	C	0.488291	0.878680	0.876266
	C144	C	0.372913	0.886931	0.677724
	C145	C	0.616754	0.114633	0.674341
	C146	C	0.617930	0.885384	0.318440
	C147	C	0.377029	0.112711	0.318203
	C148	C	0.676299	0.378942	0.883148
	C149	C	0.673016	0.620261	0.110383
	C150	C	0.319753	0.621630	0.881443
	C151	C	0.314223	0.378368	0.108490
	C152	C	0.881255	0.679833	0.375273
	C153	C	0.108894	0.679555	0.614643
	C154	C	0.882203	0.320897	0.617264
	C155	C	0.109666	0.323651	0.373038
	C156	C	0.882451	0.378464	0.675607
	C157	C	0.109466	0.621287	0.671484
	C158	C	0.881479	0.623318	0.316611
	C159	C	0.109889	0.382606	0.316353
	C160	C	0.376759	0.679297	0.882357
	C161	C	0.614738	0.676579	0.111115
	C162	C	0.617765	0.321791	0.882627
	C163	C	0.372587	0.321103	0.109579
	C164	C	0.675412	0.886047	0.375547
	C165	C	0.674304	0.114379	0.616419
	C166	C	0.315107	0.887309	0.620135
	C167	C	0.319689	0.112849	0.375370
	C168	C	0.874078	0.388136	0.175835
	C169	C	0.116074	0.616188	0.170915
	C170	C	0.117447	0.386534	0.816378
	C171	C	0.876706	0.614725	0.818300
	C172	C	0.176051	0.879764	0.382193
	C173	C	0.174578	0.122261	0.608619
	C174	C	0.818663	0.121524	0.380844
	C175	C	0.815003	0.878551	0.608831
	C176	C	0.383474	0.178631	0.876537
	C177	C	0.609089	0.179019	0.117354
	C178	C	0.382746	0.820028	0.119002
	C179	C	0.610310	0.822077	0.876401
	C180	C	0.383027	0.876613	0.177401
	C181	C	0.610132	0.118871	0.172759
	C182	C	0.383390	0.121943	0.819153
	C183	C	0.609607	0.878397	0.816701
	C184	C	0.877734	0.177987	0.379959
	C185	C	0.117397	0.180305	0.608212
	C186	C	0.116972	0.823600	0.381374
	C187	C	0.873007	0.821692	0.609135
	C188	C	0.175235	0.387003	0.873036
	C189	C	0.173942	0.615661	0.113226
	C190	C	0.816285	0.388041	0.119392
	C191	C	0.818931	0.614799	0.875998
	C192	C	0.397360	0.093809	0.595088
	C193	C	0.592393	0.907592	0.593747
	C194	C	0.595378	0.093910	0.395699
	C195	C	0.399118	0.905446	0.400438
	C196	C	0.593202	0.401670	0.089825
	C197	C	0.595375	0.598597	0.902975
	C198	C	0.396461	0.596182	0.089080
	C199	C	0.398461	0.401242	0.901927
	C200	C	0.088821	0.600530	0.394607
	C201	C	0.901825	0.598827	0.594988
	C202	C	0.088554	0.402935	0.591605
	C203	C	0.902358	0.402475	0.397001
	C204	C	0.896786	0.595591	0.093583
	C205	C	0.092143	0.408596	0.092304
	C206	C	0.096021	0.594967	0.894583
	C207	C	0.898789	0.406746	0.898892
	C208	C	0.092665	0.903041	0.588861
	C209	C	0.096966	0.099070	0.401359
	C210	C	0.897894	0.097524	0.587812
	C211	C	0.897675	0.902754	0.401795
	C212	C	0.589674	0.097202	0.898883
	C213	C	0.402655	0.096976	0.095924
	C214	C	0.590008	0.899865	0.095745
	C215	C	0.403639	0.902187	0.900741
	Zn216	Zn	0.495919	0.000865	0.747077
	Zn217	Zn	0.496572	-0.001380	0.246870
	Zn218	Zn	0.746530	0.500847	-0.003364
	Zn219	Zn	0.245613	0.500747	-0.006121
	Zn220	Zn	-0.004730	0.750881	0.495242
	Zn221	Zn	-0.003729	0.250092	0.494791
	Zn222	Zn	-0.003592	0.500329	0.745856
	Zn223	Zn	-0.004719	0.502064	0.244587
	Zn224	Zn	0.496065	0.748843	-0.002503
	Zn225	Zn	0.495663	0.249170	-0.003256
	Zn226	Zn	0.745337	0.000570	0.495243
	Zn227	Zn	0.246912	0.000055	0.495848
	N228	N	0.408461	0.963792	0.677558
	N229	N	0.581610	0.037802	0.674773
	N230	N	0.583391	0.962604	0.317030
	N231	N	0.411355	0.035577	0.318476
	N232	N	0.676471	0.413233	0.960139
	N233	N	0.674745	0.586388	0.033160
	N234	N	0.318224	0.586062	0.958115
	N235	N	0.314773	0.412882	0.031256
	N236	N	0.958270	0.680401	0.409250
	N237	N	0.031629	0.680283	0.581491
	N238	N	0.958701	0.320994	0.581334
	N239	N	0.032432	0.321791	0.407577
	N240	N	0.959405	0.413561	0.675304
	N241	N	0.032762	0.586186	0.673234
	N242	N	0.958596	0.589294	0.314855
	N243	N	0.032739	0.416441	0.315997
	N244	N	0.410295	0.678725	0.959504
	N245	N	0.580817	0.677293	0.034109
	N246	N	0.581988	0.321217	0.959404
	N247	N	0.408938	0.320921	0.033131
	N248	N	0.675929	0.963349	0.409211
	N249	N	0.674447	0.037423	0.581660
	N250	N	0.315246	0.964125	0.584724
	N251	N	0.319070	0.035912	0.410703
	N252	N	0.908627	0.465289	0.175328
	N253	N	0.080836	0.539251	0.172115
	N254	N	0.083100	0.463752	0.815409
	N255	N	0.911023	0.537394	0.817889
	N256	N	0.176284	0.913751	0.459378
	N257	N	0.176035	0.087431	0.531722
	N258	N	0.817112	0.086732	0.458032
	N259	N	0.815267	0.913397	0.531763
	N260	N	0.459996	0.178210	0.911231
	N261	N	0.531882	0.180037	0.084388
	N262	N	0.459481	0.819714	0.083725
	N263	N	0.533868	0.822143	0.912739
	N264	N	0.460132	0.910978	0.177787
	N265	N	0.533768	0.082925	0.173368
	N266	N	0.459869	0.086510	0.818655
	N267	N	0.532707	0.912634	0.816384
	N268	N	0.912106	0.177858	0.456808
	N269	N	0.083833	0.180673	0.531157
	N270	N	0.081042	0.823250	0.458084
	N271	N	0.908797	0.821830	0.532369
	N272	N	0.176294	0.464425	0.906811
	N273	N	0.174180	0.538523	0.079254
	N274	N	0.815894	0.465032	0.084001
	N275	N	0.817877	0.537447	0.910536
	O276	O	0.060407	-0.088457	-0.114474
	H277	H	0.064746	-0.090841	-0.127871
	H278	H	0.068972	-0.094561	-0.108405
	O279	O	0.831980	0.033862	0.973793
	H280	H	0.830931	0.041445	0.971958
	H281	H	0.842012	0.029606	0.965450
	O282	O	1.073716	0.063423	-0.131570
	H283	H	1.063418	0.056138	-0.130369
	H284	H	1.079459	0.060163	-0.128501
	O285	O	0.022878	0.968675	-0.188438
	H286	H	0.013875	0.969221	-0.187217
	H287	H	0.031248	0.975237	-0.199742
	O288	O	0.531588	0.668455	0.599812
	H289	H	0.530419	0.668299	0.581407
	H290	H	0.548050	0.678496	0.600634
	O291	O	0.531235	0.639591	0.572359
	H292	H	0.535051	0.640140	0.579806
	H293	H	0.532801	0.635871	0.581239
	O294	O	1.054550	0.876559	0.903435
	H295	H	1.055957	0.886351	0.909378
	H296	H	1.061606	0.888365	0.899975
	O297	O	-0.020144	-0.122614	-0.015965
	H298	H	-0.023382	-0.140523	-0.021109
	H299	H	-0.014192	-0.124469	-0.025823
	O300	O	0.383600	0.471459	0.515757
	H301	H	0.392471	0.470591	0.513432
	H302	H	0.368326	0.478915	0.521012
	O303	O	0.125700	0.911240	0.991270
	H304	H	0.122655	0.923364	0.991882
	H305	H	0.128094	0.913004	0.972838
	O306	O	0.412152	0.588447	0.352662
	H307	H	0.418406	0.574105	0.356287
	H308	H	0.418761	0.589266	0.347967
	O309	O	1.006303	-0.134469	0.000983
	H310	H	1.003171	-0.127310	0.003442
	H311	H	1.017599	-0.130179	-0.009319
	O312	O	-0.033520	-0.117695	1.006966
	H313	H	-0.027150	-0.127715	1.005774
	H314	H	-0.037283	-0.126053	1.009244
	O315	O	0.565641	0.412278	0.469491
	H316	H	0.573778	0.402762	0.473380
	H317	H	0.565298	0.421928	0.464514
	O318	O	0.543725	0.461606	0.585755
	H319	H	0.541722	0.461230	0.582530
	H320	H	0.549556	0.469363	0.585808
	O321	O	0.632059	0.453492	0.419669
	H322	H	0.635260	0.460960	0.416186
	H323	H	0.621280	0.441543	0.415464
	O324	O	0.426517	0.606450	0.493344
	H325	H	0.421572	0.617458	0.486098
	H326	H	0.437527	0.603161	0.487932
	O327	O	-0.103173	1.086714	0.937794
	H328	H	-0.110863	1.094581	0.942724
	H329	H	-0.104988	1.085819	0.951390
	O330	O	0.395771	0.524011	0.486456
	H331	H	0.394399	0.519701	0.489856
	H332	H	0.398500	0.514096	0.493537
	O333	O	-0.175089	1.034537	0.987012
	H334	H	-0.176542	1.032348	0.989166
	H335	H	-0.184244	1.031851	0.984376
	O336	O	0.889765	0.991016	1.107877
	H337	H	0.889761	0.992642	1.104503
	H338	H	0.885305	1.004807	1.116587
	O339	O	0.386046	0.404854	0.589157
	H340	H	0.391685	0.416865	0.592143
	H341	H	0.389097	0.410220	0.589708
	O342	O	1.024191	0.138528	0.069993
	H343	H	1.015729	0.132695	0.073555
	H344	H	1.021365	0.130782	0.074739
	O345	O	0.577039	0.424263	0.430654
	H346	H	0.577037	0.406536	0.435569
	H347	H	0.591262	0.427998	0.428299
	O348	O	1.164374	1.154539	1.051068
	H349	H	1.169386	1.166772	1.059422
	H350	H	1.163037	1.162910	1.055834
	O351	O	1.058842	1.047426	-0.103261
	H352	H	1.064392	1.053723	-0.107231
	H353	H	1.069763	1.035239	-0.112347
	O354	O	0.503033	0.493703	0.582652
	H355	H	0.510557	0.503785	0.576101
	H356	H	0.490378	0.500480	0.575706
	O357	O	0.548232	0.439523	0.434891
	H358	H	0.561396	0.429987	0.439922
	H359	H	0.537537	0.443807	0.422132
	O360	O	0.097176	-0.006769	0.098288
	H361	H	0.115419	-0.003360	0.113941
	H362	H	0.080135	0.004514	0.096926
	O363	O	0.342930	0.342136	0.574815
	H364	H	0.332095	0.340456	0.582811
	H365	H	0.337682	0.340535	0.586777
	O366	O	0.535345	0.379689	0.390760
	H367	H	0.536271	0.388909	0.393988
	H368	H	0.525471	0.369786	0.388328
	O369	O	0.633960	0.463585	0.480035
	H370	H	0.615158	0.448770	0.473916
	H371	H	0.625003	0.457713	0.489847
	O372	O	0.539637	0.479880	0.606933
	H373	H	0.544397	0.477398	0.609857
	H374	H	0.548346	0.472304	0.605979
	O375	O	0.345130	0.613707	0.460841
	H376	H	0.332661	0.620442	0.442075
	H377	H	0.357842	0.611588	0.446288
	O378	O	0.463704	0.484536	0.363779
	H379	H	0.471729	0.486265	0.354799
	H380	H	0.457363	0.480053	0.367331
	O381	O	0.499844	0.555983	0.572854
	H382	H	0.497086	0.561058	0.567443
	H383	H	0.509774	0.553307	0.584099
	O384	O	-0.116633	1.172159	-0.082633
	H385	H	-0.104064	1.181233	-0.077078
	H386	H	-0.111275	1.172584	-0.085559
	O387	O	1.001423	0.113505	1.077971
	H388	H	1.009271	0.113578	1.094176
	H389	H	0.992326	0.103010	1.071184
	O390	O	-0.012117	0.884791	0.047020
	H391	H	-0.020252	0.875679	0.046444
	H392	H	-0.019282	0.887636	0.047882
	O393	O	1.051450	1.058517	0.066380
	H394	H	1.044345	1.056469	0.046689
	H395	H	1.045350	1.043261	0.065594
	O396	O	0.579459	0.582565	0.388515
	H397	H	0.573609	0.589283	0.392225
	H398	H	0.581266	0.571276	0.386216
	O399	O	-0.041602	0.972560	0.984692
	H400	H	-0.045933	0.982864	0.988233
	H401	H	-0.022282	0.964799	0.977030
	O402	O	1.095559	1.074914	1.098707
	H403	H	1.087280	1.080332	1.114178
	H404	H	1.100703	1.071559	1.085950
	O405	O	0.421810	0.412883	0.590188
	H406	H	0.407848	0.430904	0.603700
	H407	H	0.430319	0.428263	0.597604
