data_Molecule from HDF5

_cell_length_a		16.638332
_cell_length_b		16.409823
_cell_length_c		16.540323
_cell_angle_alpha	89.986708
_cell_angle_beta	90.000984
_cell_angle_gamma	90.043282
_symmetry_space_group_name_H-M	'P 1'
_symmetry_Int_Tables_number		1

loop_
	_symmetry_equiv_pos_as_xyz
	x,y,z

loop_
	_atom_site_label
	_atom_site_type_symbol
	_atom_site_fract_x
	_atom_site_fract_y
	_atom_site_fract_z
	H0	H	0.392525	0.864773	0.752275
	H1	H	0.604046	0.180963	0.758494
	H2	H	0.598829	0.866294	0.313839
	H3	H	0.392815	0.182398	0.314164
	H4	H	0.719357	0.416760	0.875661
	H5	H	0.717465	0.627710	0.189570
	H6	H	0.274613	0.629253	0.876123
	H7	H	0.276449	0.418236	0.189508
	H8	H	0.836598	0.742534	0.430188
	H9	H	0.151300	0.743689	0.634513
	H10	H	0.838714	0.299096	0.641973
	H11	H	0.151372	0.303938	0.431353
	H12	H	0.839303	0.415274	0.758189
	H13	H	0.151925	0.626974	0.751800
	H14	H	0.838497	0.627488	0.311184
	H15	H	0.150854	0.419055	0.313298
	H16	H	0.395347	0.741114	0.873831
	H17	H	0.597515	0.740772	0.191223
	H18	H	0.601559	0.301814	0.874288
	H19	H	0.395951	0.306349	0.190679
	H20	H	0.717487	0.867675	0.427570
	H21	H	0.720746	0.181182	0.644430
	H22	H	0.274401	0.865264	0.637604
	H23	H	0.273500	0.181531	0.427578
	H24	H	0.890941	0.363700	0.253379
	H25	H	0.096652	0.682177	0.251410
	H26	H	0.103313	0.366034	0.809636
	H27	H	0.891463	0.680809	0.812634
	H28	H	0.213144	0.920376	0.376265
	H29	H	0.217723	0.130641	0.690793
	H30	H	0.770157	0.133652	0.379365
	H31	H	0.772112	0.918310	0.689523
	H32	H	0.339284	0.245128	0.929184
	H33	H	0.650783	0.247769	0.140494
	H34	H	0.339166	0.803930	0.135887
	H35	H	0.652849	0.805827	0.932202
	H36	H	0.339936	0.919824	0.254297
	H37	H	0.649028	0.134801	0.260384
	H38	H	0.339543	0.129204	0.811226
	H39	H	0.648860	0.915383	0.808549
	H40	H	0.891618	0.243926	0.376425
	H41	H	0.098781	0.244587	0.691682
	H42	H	0.092669	0.807383	0.374275
	H43	H	0.889270	0.803276	0.690948
	H44	H	0.218305	0.366180	0.927441
	H45	H	0.214289	0.681496	0.136670
	H46	H	0.773094	0.365061	0.139862
	H47	H	0.774609	0.679747	0.927702
	H48	H	0.405019	0.139284	0.628305
	H49	H	0.580699	0.915664	0.614893
	H50	H	0.585822	0.137624	0.447172
	H51	H	0.405739	0.910330	0.443874
	H52	H	0.591157	0.431715	0.146914
	H53	H	0.579264	0.612945	0.922504
	H54	H	0.400929	0.614417	0.147576
	H55	H	0.408651	0.431507	0.918924
	H56	H	0.109586	0.619114	0.436434
	H57	H	0.880676	0.616295	0.624136
	H58	H	0.104192	0.435112	0.619561
	H59	H	0.882463	0.434461	0.444310
	H60	H	0.104466	0.437549	0.622522
	H61	H	0.883722	0.611165	0.621019
	H62	H	0.105483	0.617911	0.447915
	H63	H	0.882914	0.434579	0.444130
	H64	H	0.404568	0.610516	0.145013
	H65	H	0.589840	0.620248	0.916240
	H66	H	0.586851	0.444433	0.141006
	H67	H	0.402593	0.435301	0.918149
	H68	H	0.581079	0.137283	0.444202
	H69	H	0.585274	0.912718	0.619668
	H70	H	0.409486	0.134838	0.620390
	H71	H	0.403323	0.910338	0.445624
	H72	H	0.909506	0.634774	0.124331
	H73	H	0.089432	0.408868	0.120230
	H74	H	0.085245	0.636106	0.943568
	H75	H	0.910096	0.412891	0.951502
	H76	H	0.090061	0.932282	0.648000
	H77	H	0.081485	0.106765	0.425022
	H78	H	0.908460	0.104284	0.642551
	H79	H	0.904380	0.944349	0.423653
	H80	H	0.606394	0.113463	0.946939
	H81	H	0.388759	0.105326	0.117901
	H82	H	0.607509	0.931928	0.120310
	H83	H	0.382220	0.930519	0.941917
	H84	H	0.608134	0.938066	0.126985
	H85	H	0.382459	0.111079	0.129927
	H86	H	0.604706	0.107197	0.946361
	H87	H	0.384334	0.933179	0.945555
	H88	H	0.911881	0.112628	0.645082
	H89	H	0.081879	0.119774	0.420522
	H90	H	0.085019	0.938837	0.645231
	H91	H	0.911803	0.929906	0.421675
	H92	H	0.084229	0.635778	0.944074
	H93	H	0.087947	0.407863	0.126428
	H94	H	0.906601	0.634149	0.118827
	H95	H	0.903541	0.408582	0.945395
	H96	H	0.399877	0.137913	0.619432
	H97	H	0.578685	0.913863	0.621716
	H98	H	0.580964	0.136272	0.449363
	H99	H	0.403420	0.908717	0.442917
	H100	H	0.577164	0.433039	0.142080
	H101	H	0.591996	0.606355	0.920172
	H102	H	0.406176	0.616207	0.146324
	H103	H	0.408527	0.438557	0.920870
	H104	H	0.105140	0.608377	0.440355
	H105	H	0.882046	0.610799	0.627512
	H106	H	0.105494	0.433666	0.622986
	H107	H	0.882465	0.434250	0.444051
	H108	H	0.903540	0.637517	0.123051
	H109	H	0.083186	0.409944	0.122575
	H110	H	0.085019	0.635907	0.945035
	H111	H	0.912726	0.410373	0.942495
	H112	H	0.081631	0.930723	0.647067
	H113	H	0.092970	0.111291	0.420176
	H114	H	0.902796	0.110750	0.647223
	H115	H	0.896678	0.931550	0.416967
	H116	H	0.607388	0.110692	0.941570
	H117	H	0.383668	0.119225	0.118049
	H118	H	0.610816	0.929672	0.127981
	H119	H	0.383121	0.935543	0.941387
	C120	C	0.373300	0.032344	0.654555
	C121	C	0.615403	1.017145	0.653753
	C122	C	0.615745	0.033012	0.413576
	C123	C	0.373611	1.015054	0.412453
	C124	C	0.617942	0.402528	0.040261
	C125	C	0.617711	0.644257	1.024273
	C126	C	0.373996	0.644943	0.041632
	C127	C	0.375519	0.402999	1.023546
	C128	C	0.002242	0.645046	0.411323
	C129	C	0.985781	0.644761	0.654649
	C130	C	0.002520	0.401459	0.655789
	C131	C	0.986026	0.402099	0.412507
	C132	C	0.874286	0.531067	0.154386
	C133	C	0.116748	0.514304	0.153991
	C134	C	0.117756	0.531787	0.911341
	C135	C	0.876000	0.514394	0.913210
	C136	C	0.115644	0.902566	0.541956
	C137	C	0.116899	0.145185	0.525922
	C138	C	0.874433	0.143902	0.542150
	C139	C	0.872142	0.902771	0.524716
	C140	C	0.503832	0.144666	0.911659
	C141	C	0.487626	0.145170	0.154631
	C142	C	0.504980	0.901856	0.155867
	C143	C	0.486523	0.901945	0.911491
	C144	C	0.372894	0.912504	0.713073
	C145	C	0.620425	0.134299	0.717154
	C146	C	0.617849	0.913892	0.353610
	C147	C	0.372987	0.134755	0.353264
	C148	C	0.678605	0.398580	0.922387
	C149	C	0.677102	0.645846	0.142496
	C150	C	0.315073	0.647023	0.922848
	C151	C	0.316803	0.400865	0.142288
	C152	C	0.883843	0.703026	0.411003
	C153	C	0.104106	0.703972	0.654192
	C154	C	0.885591	0.339695	0.659577
	C155	C	0.104126	0.343150	0.411917
	C156	C	0.885924	0.397450	0.717768
	C157	C	0.104508	0.645977	0.712577
	C158	C	0.884802	0.646014	0.351776
	C159	C	0.104033	0.400667	0.353358
	C160	C	0.374868	0.702817	0.921953
	C161	C	0.617536	0.702154	0.143641
	C162	C	0.619918	0.341665	0.921806
	C163	C	0.375754	0.344439	0.142843
	C164	C	0.676818	0.914713	0.410016
	C165	C	0.678806	0.134262	0.660286
	C166	C	0.314049	0.912913	0.656398
	C167	C	0.314119	0.134224	0.410009
	C168	C	0.872421	0.411444	0.213830
	C169	C	0.116523	0.634029	0.212478
	C170	C	0.120847	0.413222	0.850516
	C171	C	0.873193	0.633292	0.852693
	C172	C	0.173276	0.901946	0.423062
	C173	C	0.176983	0.148125	0.643840
	C174	C	0.812333	0.149715	0.425346
	C175	C	0.811982	0.899962	0.642622
	C176	C	0.386225	0.205484	0.909825
	C177	C	0.604055	0.207303	0.158474
	C178	C	0.386556	0.843074	0.155907
	C179	C	0.605044	0.843621	0.911306
	C180	C	0.386921	0.900802	0.214644
	C181	C	0.603398	0.150653	0.217789
	C182	C	0.386406	0.148103	0.851180
	C183	C	0.603301	0.898899	0.850715
	C184	C	0.872343	0.204864	0.423992
	C185	C	0.117995	0.205027	0.644277
	C186	C	0.113685	0.845659	0.422288
	C187	C	0.870571	0.842933	0.643291
	C188	C	0.178228	0.413290	0.908776
	C189	C	0.174887	0.633937	0.155332
	C190	C	0.813657	0.412328	0.157342
	C191	C	0.815003	0.632709	0.909850
	C192	C	0.397842	0.115687	0.629993
	C193	C	0.588985	0.935360	0.626414
	C194	C	0.589834	0.115549	0.439419
	C195	C	0.397336	0.931763	0.437042
	C196	C	0.592449	0.428819	0.122130
	C197	C	0.593748	0.620180	0.941191
	C198	C	0.397208	0.620644	0.124535
	C199	C	0.399505	0.428122	0.940895
	C200	C	0.085253	0.621706	0.434982
	C201	C	0.903524	0.619914	0.630932
	C202	C	0.083544	0.427880	0.629302
	C203	C	0.903993	0.427116	0.437069
	C204	C	0.899402	0.613811	0.129300
	C205	C	0.093505	0.430595	0.129985
	C206	C	0.092183	0.614445	0.936763
	C207	C	0.901717	0.431964	0.938950
	C208	C	0.092351	0.926832	0.625204
	C209	C	0.092452	0.119843	0.443518
	C210	C	0.900233	0.116962	0.623634
	C211	C	0.896865	0.928001	0.442309
	C212	C	0.584940	0.118139	0.937471
	C213	C	0.406296	0.119155	0.129222
	C214	C	0.587401	0.926244	0.131932
	C215	C	0.404465	0.926438	0.935836
	Zn216	Zn	0.495340	0.023639	0.782586
	Zn217	Zn	0.495851	0.024637	0.284466
	Zn218	Zn	0.746554	0.522417	0.032565
	Zn219	Zn	0.245803	0.523655	0.033052
	Zn220	Zn	-0.006633	0.774270	0.533024
	Zn221	Zn	-0.005575	0.272887	0.534186
	Zn222	Zn	-0.004416	0.522895	0.784068
	Zn223	Zn	-0.005242	0.522920	0.282332
	Zn224	Zn	0.495802	0.772963	0.033182
	Zn225	Zn	0.496501	0.274210	0.032161
	Zn226	Zn	0.744257	0.025062	0.533976
	Zn227	Zn	0.245276	0.023382	0.533652
	N228	N	0.408700	0.987980	0.712415
	N229	N	0.581538	0.060436	0.713217
	N230	N	0.580965	0.988609	0.355508
	N231	N	0.409088	0.059665	0.354484
	N232	N	0.677715	0.435142	0.996936
	N233	N	0.677499	0.610864	0.067159
	N234	N	0.314119	0.612084	0.998314
	N235	N	0.316100	0.436321	0.066951
	N236	N	0.958022	0.702588	0.447284
	N237	N	0.029262	0.703707	0.619398
	N238	N	0.959163	0.341904	0.621890
	N239	N	0.029664	0.343784	0.447797
	N240	N	0.959836	0.434910	0.715693
	N241	N	0.029781	0.610186	0.713335
	N242	N	0.959577	0.610857	0.351828
	N243	N	0.029458	0.436345	0.353381
	N244	N	0.410454	0.702111	0.996915
	N245	N	0.581454	0.701478	0.068936
	N246	N	0.583015	0.343727	0.996293
	N247	N	0.411520	0.345603	0.067924
	N248	N	0.675800	0.990043	0.446363
	N249	N	0.675745	0.060459	0.621515
	N250	N	0.313922	0.988746	0.621212
	N251	N	0.314272	0.058741	0.446051
	N252	N	0.909347	0.486385	0.212252
	N253	N	0.081105	0.558525	0.212005
	N254	N	0.083999	0.488098	0.851955
	N255	N	0.910532	0.558739	0.854890
	N256	N	0.174906	0.936210	0.498837
	N257	N	0.176692	0.111980	0.568912
	N258	N	0.813557	0.112628	0.499650
	N259	N	0.813018	0.936530	0.567970
	N260	N	0.460310	0.203656	0.946433
	N261	N	0.531286	0.203747	0.119470
	N262	N	0.461083	0.843363	0.120278
	N263	N	0.531418	0.845304	0.948463
	N264	N	0.461707	0.935997	0.215112
	N265	N	0.529941	0.112592	0.215488
	N266	N	0.460422	0.111172	0.852191
	N267	N	0.528453	0.934006	0.850431
	N268	N	0.910222	0.201459	0.497766
	N269	N	0.081426	0.203395	0.569834
	N270	N	0.078748	0.845728	0.497455
	N271	N	0.907026	0.844291	0.568719
	N272	N	0.176425	0.488041	0.945825
	N273	N	0.175294	0.558305	0.119847
	N274	N	0.814624	0.487725	0.121083
	N275	N	0.816715	0.557836	0.946861
	O276	O	0.943624	1.207163	0.126354
	H277	H	0.946144	1.214321	0.143526
	H278	H	0.945456	1.198432	0.138287
	O279	O	-0.279398	-0.235371	0.772348
	H280	H	-0.252571	-0.206993	0.805350
	H281	H	-0.274689	-0.270610	0.777073
	O282	O	0.027876	1.066527	-0.158709
	H283	H	0.016630	1.081264	-0.147529
	H284	H	0.026976	1.074801	-0.147470
	O285	O	0.283812	0.665717	0.536051
	H286	H	0.279702	0.680210	0.513613
	H287	H	0.279462	0.669657	0.532382
	O288	O	0.371159	0.383771	0.507646
	H289	H	0.386855	0.373643	0.525010
	H290	H	0.360221	0.381222	0.527039
	O291	O	0.451841	0.740183	0.316453
	H292	H	0.470147	0.758052	0.312885
	H293	H	0.454958	0.752621	0.317095
	O294	O	-0.504808	0.561148	0.466321
	H295	H	-0.492296	0.570714	0.488523
	H296	H	-0.506666	0.550314	0.475635
	O297	O	1.052111	0.244115	-0.031494
	H298	H	1.041861	0.234934	-0.018210
	H299	H	1.041982	0.249754	-0.028749
	O300	O	-0.222779	0.009701	0.231768
	H301	H	-0.225137	-0.007905	0.241475
	H302	H	-0.223133	0.011256	0.250324
	O303	O	0.209092	0.194417	0.074720
	H304	H	0.211275	0.190978	0.070213
	H305	H	0.214808	0.207843	0.054385
	O306	O	0.780429	0.237955	-0.001806
	H307	H	0.758569	0.252542	0.010565
	H308	H	0.786726	0.238232	0.020427
	O309	O	1.212818	0.055165	0.248894
	H310	H	1.227522	0.064350	0.260155
	H311	H	1.214282	0.078203	0.253605
	O312	O	0.341394	0.701074	0.560456
	H313	H	0.339390	0.697969	0.553094
	H314	H	0.345878	0.704274	0.543166
	O315	O	0.401484	0.515891	0.628709
	H316	H	0.387267	0.512308	0.636994
	H317	H	0.403484	0.518204	0.617240
	O318	O	1.073950	1.026186	0.194710
	H319	H	1.087650	1.012256	0.194354
	H320	H	1.082142	1.025164	0.176249
	O321	O	0.710026	0.305264	0.510091
	H322	H	0.713378	0.305033	0.475104
	H323	H	0.730000	0.288469	0.498919
	O324	O	0.384463	0.512071	1.729696
	H325	H	0.389450	0.520259	1.719028
	H326	H	0.371660	0.523061	1.736507
	O327	O	0.601115	0.367389	0.348822
	H328	H	0.589471	0.351628	0.341925
	H329	H	0.590489	0.392228	0.341257
	O330	O	0.197511	0.821686	-0.165093
	H331	H	0.211927	0.809357	-0.189062
	H332	H	0.207109	0.860344	-0.158219
	O333	O	0.493517	0.733805	-0.480946
	H334	H	0.507410	0.723317	-0.477155
	H335	H	0.479422	0.737228	-0.473997
	O336	O	0.813324	0.200166	0.232215
	H337	H	0.806700	0.186038	0.226857
	H338	H	0.840354	0.179123	0.226339
	O339	O	0.708656	0.456980	0.602988
	H340	H	0.718364	0.457507	0.585200
	H341	H	0.701385	0.455427	0.584143
	O342	O	0.214702	0.987812	-0.182840
	H343	H	0.193591	1.003181	-0.181948
	H344	H	0.232264	0.996501	-0.215235
	O345	O	0.306565	0.338924	0.343960
	H346	H	0.324196	0.357209	0.366406
	H347	H	0.323704	0.358807	0.356400
	O348	O	0.787101	-0.191371	0.065168
	H349	H	0.767337	-0.206569	0.058356
	H350	H	0.801379	-0.191121	0.048848
	O351	O	0.122133	-0.138414	1.202602
	H352	H	0.113668	-0.122205	1.193304
	H353	H	0.113075	-0.136628	1.194917
	O354	O	1.675794	-0.574323	1.329064
	H355	H	1.674473	-0.563441	1.317505
	H356	H	1.679962	-0.582804	1.315058
	O357	O	0.537540	0.328998	0.588407
	H358	H	0.563043	0.319179	0.578347
	H359	H	0.534055	0.334253	0.599930
	O360	O	0.468657	0.304814	0.747876
	H361	H	0.453346	0.297263	0.758372
	H362	H	0.480858	0.284872	0.744973
	O363	O	0.572842	0.527713	-0.666009
	H364	H	0.549470	0.527325	-0.664217
	H365	H	0.574185	0.548101	-0.664281
	O366	O	1.154771	0.167679	0.843107
	H367	H	1.130056	0.160317	0.855644
	H368	H	1.145115	0.177456	0.857927
	O369	O	0.033670	-0.198245	0.809468
	H370	H	0.075664	-0.195421	0.809973
	H371	H	0.032969	-0.221715	0.776625
	O372	O	0.054970	0.834068	1.057561
	H373	H	0.078952	0.835466	1.044475
	H374	H	0.038182	0.826548	1.067603
	O375	O	0.937435	-0.156915	-0.072645
	H376	H	0.949176	-0.146652	-0.075997
	H377	H	0.960705	-0.161483	-0.085444
	O378	O	0.952537	0.818962	1.237981
	H379	H	0.939162	0.797656	1.245872
	H380	H	0.927553	0.822633	1.238580
	O381	O	0.252085	0.767057	0.291311
	H382	H	0.232689	0.779355	0.265008
	H383	H	0.278584	0.780710	0.286675
	O384	O	0.529111	0.449740	0.575250
	H385	H	0.526035	0.443870	0.565305
	H386	H	0.531828	0.456267	0.583588
	O387	O	0.218261	1.051380	1.002735
	H388	H	0.220302	1.043458	0.982014
	H389	H	0.208110	1.044191	1.012572
	O390	O	-0.155260	0.867860	0.885503
	H391	H	-0.145074	0.880762	0.904048
	H392	H	-0.132550	0.885712	0.897709
	O393	O	1.211441	-0.191846	0.001274
	H394	H	1.213642	-0.192648	-0.023990
	H395	H	1.230925	-0.205556	-0.001652
	O396	O	0.555476	0.605877	0.435164
	H397	H	0.544989	0.607706	0.419556
	H398	H	0.558432	0.622708	0.439079
	O399	O	1.599517	0.488554	-0.337792
	H400	H	1.598723	0.480726	-0.336904
	H401	H	1.594998	0.486752	-0.345136
	O402	O	0.563406	-0.269350	1.733799
	H403	H	0.583485	-0.280511	1.725911
	H404	H	0.583049	-0.251948	1.759046
	O405	O	0.276099	0.545560	0.315358
	H406	H	0.263098	0.574767	0.316735
	H407	H	0.255050	0.557308	0.313630
	O408	O	0.816418	1.196889	0.846168
	H409	H	0.809469	1.213263	0.889280
	H410	H	0.832969	1.177612	0.848008
	O411	O	1.033539	1.239813	0.252136
	H412	H	1.044161	1.257275	0.273000
	H413	H	1.064262	1.242449	0.255645
	O414	O	-0.218294	-0.032577	-0.001410
	H415	H	-0.222884	-0.046902	-0.010553
	H416	H	-0.204204	-0.017369	0.004479
	O417	O	0.344930	0.539646	0.594518
	H418	H	0.357139	0.543610	0.595894
	H419	H	0.353959	0.550332	0.588673
	O420	O	0.712171	-0.256001	0.560443
	H421	H	0.719272	-0.243375	0.585224
	H422	H	0.724520	-0.243208	0.587818
	O423	O	0.968149	0.956114	0.043530
	H424	H	0.969879	0.955641	0.036708
	H425	H	0.962734	0.940058	0.045577
	O426	O	0.155838	0.993392	0.130613
	H427	H	0.159361	0.974071	0.132480
	H428	H	0.158941	1.006970	0.139998
	O429	O	0.583159	0.571211	0.354905
	H430	H	0.558976	0.574943	0.355492
	H431	H	0.582596	0.564390	0.362334
	O432	O	0.789284	0.818224	0.240092
	H433	H	0.760895	0.788073	0.245458
	H434	H	0.784094	0.830895	0.221185
	O435	O	1.179704	0.186785	0.237283
	H436	H	1.171983	0.183497	0.213949
	H437	H	1.213796	0.218241	0.263328
	O438	O	0.467351	0.570556	0.393210
	H439	H	0.466196	0.558265	0.416145
	H440	H	0.458147	0.567158	0.395074
	O441	O	0.351508	0.717461	0.725512
	H442	H	0.362530	0.712564	0.718372
	H443	H	0.372544	0.704024	0.710875
	O444	O	1.013034	0.154344	0.173655
	H445	H	1.027051	0.135718	0.166114
	H446	H	1.030742	0.168979	0.187877
	O447	O	0.280267	0.308542	0.564256
	H448	H	0.255664	0.282724	0.573474
	H449	H	0.285697	0.312139	0.601198
	O450	O	0.782175	0.037081	-0.176368
	H451	H	0.780947	0.044585	-0.192419
	H452	H	0.792427	0.055113	-0.175262
	O453	O	0.792219	0.091813	0.089824
	H454	H	0.785110	0.067782	0.091691
	H455	H	0.796973	0.097360	0.104053
	O456	O	-0.028558	1.036910	1.053358
	H457	H	-0.032746	1.040829	1.060690
	H458	H	-0.037951	1.024023	1.064418
	O459	O	0.478368	-0.454663	0.710108
	H460	H	0.487929	-0.440138	0.714413
	H461	H	0.484564	-0.476038	0.709907
	O462	O	0.557558	0.613463	0.473374
	H463	H	0.556523	0.606004	0.489761
	H464	H	0.553596	0.606735	0.488321
	O465	O	0.971668	0.234605	-0.180390
	H466	H	0.977105	0.251706	-0.182489
	H467	H	0.947671	0.238613	-0.186089
	O468	O	-0.026363	0.981212	-0.119288
	H469	H	-0.006500	0.987450	-0.110837
	H470	H	-0.022707	0.967985	-0.120491
	O471	O	0.695692	0.558060	0.743300
	H472	H	0.701447	0.535939	0.733540
	H473	H	0.687438	0.537166	0.751764
	O474	O	0.288640	0.312378	0.742343
	H475	H	0.314613	0.327416	0.739374
	H476	H	0.267238	0.324250	0.759552
	O477	O	0.453997	-0.583122	0.360852
	H478	H	0.458640	-0.585375	0.358014
	H479	H	0.436975	-0.570746	0.375056
