data_Molecule from HDF5

_cell_length_a		16.201523
_cell_length_b		16.258881
_cell_length_c		16.327342
_cell_angle_alpha	89.925191
_cell_angle_beta	90.053361
_cell_angle_gamma	89.997071
_symmetry_space_group_name_H-M	'P 1'
_symmetry_Int_Tables_number		1

loop_
	_symmetry_equiv_pos_as_xyz
	x,y,z

loop_
	_atom_site_label
	_atom_site_type_symbol
	_atom_site_fract_x
	_atom_site_fract_y
	_atom_site_fract_z
	H0	H	0.401546	0.836851	0.714566
	H1	H	0.599535	0.163829	0.714461
	H2	H	0.598523	0.837149	0.285585
	H3	H	0.400944	0.164242	0.285132
	H4	H	0.714256	0.402028	0.836624
	H5	H	0.712671	0.595550	0.164392
	H6	H	0.286098	0.597427	0.836091
	H7	H	0.286420	0.402538	0.163664
	H8	H	0.834977	0.712248	0.403424
	H9	H	0.164684	0.712197	0.596975
	H10	H	0.835469	0.285692	0.598074
	H11	H	0.164818	0.286957	0.402948
	H12	H	0.835102	0.401208	0.713677
	H13	H	0.163759	0.598191	0.714123
	H14	H	0.835450	0.597444	0.286389
	H15	H	0.164201	0.400879	0.285603
	H16	H	0.401991	0.714461	0.836274
	H17	H	0.598336	0.715066	0.163022
	H18	H	0.597383	0.286299	0.836430
	H19	H	0.400624	0.285402	0.163358
	H20	H	0.712047	0.834679	0.404220
	H21	H	0.713794	0.163869	0.596683
	H22	H	0.287960	0.835164	0.596238
	H23	H	0.285813	0.164727	0.402545
	H24	H	0.901624	0.335791	0.214163
	H25	H	0.098513	0.663631	0.213907
	H26	H	0.098015	0.335959	0.786625
	H27	H	0.899924	0.663079	0.785017
	H28	H	0.213551	0.902849	0.336225
	H29	H	0.213363	0.095356	0.664661
	H30	H	0.787202	0.097237	0.335957
	H31	H	0.787261	0.903186	0.664297
	H32	H	0.334968	0.213212	0.901893
	H33	H	0.664746	0.213531	0.097050
	H34	H	0.334719	0.788085	0.095912
	H35	H	0.664679	0.787788	0.902885
	H36	H	0.336214	0.901395	0.214487
	H37	H	0.664008	0.099315	0.214451
	H38	H	0.336056	0.099290	0.784102
	H39	H	0.664616	0.902622	0.786593
	H40	H	0.902704	0.215320	0.336722
	H41	H	0.099196	0.214654	0.663385
	H42	H	0.098125	0.785150	0.336634
	H43	H	0.901593	0.785513	0.663629
	H44	H	0.213089	0.335596	0.904476
	H45	H	0.212537	0.664783	0.096207
	H46	H	0.786309	0.335471	0.097204
	H47	H	0.787827	0.664183	0.903626
	H48	H	0.405718	0.117387	0.591292
	H49	H	0.591056	0.884492	0.589628
	H50	H	0.585130	0.114659	0.405744
	H51	H	0.408439	0.878478	0.387721
	H52	H	0.590770	0.403624	0.116115
	H53	H	0.594387	0.597163	0.882332
	H54	H	0.411411	0.584784	0.112705
	H55	H	0.401760	0.406546	0.882431
	H56	H	0.117580	0.599108	0.411555
	H57	H	0.881479	0.595340	0.592775
	H58	H	0.120517	0.399885	0.597992
	H59	H	0.882966	0.409314	0.405343
	H60	H	0.114561	0.406967	0.585290
	H61	H	0.882739	0.590718	0.592358
	H62	H	0.115062	0.584796	0.409184
	H63	H	0.881648	0.405377	0.404781
	H64	H	0.412713	0.604900	0.118051
	H65	H	0.595456	0.592218	0.883254
	H66	H	0.596461	0.405144	0.117670
	H67	H	0.408788	0.410789	0.885110
	H68	H	0.596455	0.115285	0.414742
	H69	H	0.599301	0.881210	0.593564
	H70	H	0.406911	0.118245	0.594580
	H71	H	0.423187	0.891164	0.415692
	H72	H	0.903727	0.616807	0.092058
	H73	H	0.093278	0.382553	0.096656
	H74	H	0.096550	0.618729	0.906354
	H75	H	0.907245	0.384198	0.912611
	H76	H	0.095649	0.907545	0.616963
	H77	H	0.099178	0.099678	0.380398
	H78	H	0.905168	0.089710	0.616409
	H79	H	0.915756	0.901900	0.385481
	H80	H	0.613717	0.090093	0.914542
	H81	H	0.381607	0.094016	0.096352
	H82	H	0.618273	0.899833	0.089067
	H83	H	0.383137	0.907652	0.908731
	H84	H	0.614230	0.913986	0.089725
	H85	H	0.383364	0.095060	0.089390
	H86	H	0.618296	0.087727	0.897603
	H87	H	0.382721	0.909741	0.904271
	H88	H	0.910979	0.092906	0.614765
	H89	H	0.095707	0.085764	0.385578
	H90	H	0.091634	0.906193	0.615075
	H91	H	0.899081	0.899470	0.379655
	H92	H	0.090901	0.617488	0.902062
	H93	H	0.091035	0.383661	0.092640
	H94	H	0.905862	0.618205	0.096838
	H95	H	0.901156	0.379917	0.904066
	H96	H	0.408260	0.116469	0.592597
	H97	H	0.591563	0.882366	0.600132
	H98	H	0.598525	0.120383	0.401044
	H99	H	0.390206	0.881296	0.416051
	H100	H	0.592219	0.409525	0.115242
	H101	H	0.591062	0.594300	0.884356
	H102	H	0.394829	0.594544	0.120263
	H103	H	0.409135	0.402659	0.883101
	H104	H	0.120133	0.593372	0.397949
	H105	H	0.881429	0.592865	0.596505
	H106	H	0.115816	0.415112	0.599090
	H107	H	0.883522	0.406905	0.408450
	H108	H	0.909018	0.616345	0.092860
	H109	H	0.095638	0.381839	0.092740
	H110	H	0.090270	0.615005	0.908855
	H111	H	0.911700	0.383275	0.902604
	H112	H	0.094672	0.903020	0.617461
	H113	H	0.085324	0.097042	0.385273
	H114	H	0.905735	0.096638	0.617677
	H115	H	0.904128	0.915138	0.385680
	H116	H	0.620322	0.102967	0.905254
	H117	H	0.384192	0.088276	0.092561
	H118	H	0.619865	0.907967	0.101858
	H119	H	0.381632	0.905306	0.904491
	C120	C	0.378999	0.008734	0.620984
	C121	C	0.622210	0.991262	0.621856
	C122	C	0.621597	0.008391	0.378897
	C123	C	0.378429	0.992189	0.378202
	C124	C	0.621325	0.378206	0.008188
	C125	C	0.621735	0.622089	0.991402
	C126	C	0.378323	0.622502	0.008245
	C127	C	0.377976	0.378344	0.991779
	C128	C	0.008592	0.620601	0.378483
	C129	C	0.990935	0.620950	0.621876
	C130	C	0.008286	0.378578	0.622038
	C131	C	0.991467	0.378896	0.378481
	C132	C	0.878306	0.508315	0.121853
	C133	C	0.121375	0.491359	0.121437
	C134	C	0.121354	0.508562	0.878057
	C135	C	0.878254	0.491182	0.878324
	C136	C	0.122009	0.877760	0.508414
	C137	C	0.121874	0.121744	0.491942
	C138	C	0.878705	0.121556	0.508130
	C139	C	0.878307	0.877536	0.491835
	C140	C	0.508341	0.121748	0.877797
	C141	C	0.491383	0.121353	0.121235
	C142	C	0.508884	0.879045	0.121723
	C143	C	0.491590	0.879361	0.878207
	C144	C	0.381534	0.885262	0.676187
	C145	C	0.619611	0.114781	0.676288
	C146	C	0.618898	0.885437	0.323708
	C147	C	0.380708	0.115398	0.323089
	C148	C	0.675991	0.381476	0.885110
	C149	C	0.675932	0.617834	0.114983
	C150	C	0.323952	0.618565	0.885009
	C151	C	0.323518	0.381769	0.114824
	C152	C	0.884470	0.675237	0.381913
	C153	C	0.115437	0.674780	0.618175
	C154	C	0.884455	0.323808	0.618769
	C155	C	0.115576	0.324478	0.382093
	C156	C	0.884285	0.380991	0.676385
	C157	C	0.114936	0.618059	0.676328
	C158	C	0.884562	0.618118	0.323803
	C159	C	0.115413	0.380822	0.323693
	C160	C	0.381315	0.676781	0.885010
	C161	C	0.618734	0.676510	0.114649
	C162	C	0.617884	0.324062	0.885107
	C163	C	0.380465	0.323514	0.114568
	C164	C	0.675121	0.884289	0.382688
	C165	C	0.676479	0.115041	0.617974
	C166	C	0.325102	0.884650	0.617715
	C167	C	0.323669	0.115574	0.381494
	C168	C	0.881024	0.384594	0.176369
	C169	C	0.118816	0.614961	0.176226
	C170	C	0.118386	0.384659	0.824406
	C171	C	0.880459	0.614373	0.823280
	C172	C	0.176299	0.881365	0.385035
	C173	C	0.176200	0.117373	0.615445
	C174	C	0.824458	0.118354	0.384869
	C175	C	0.824559	0.881903	0.615199
	C176	C	0.384294	0.176155	0.880817
	C177	C	0.615480	0.176165	0.118142
	C178	C	0.384329	0.824972	0.117896
	C179	C	0.615751	0.825234	0.882131
	C180	C	0.384974	0.881342	0.176528
	C181	C	0.615184	0.119586	0.176547
	C182	C	0.384700	0.119474	0.822377
	C183	C	0.615547	0.882185	0.824233
	C184	C	0.881948	0.176777	0.385288
	C185	C	0.119519	0.176516	0.615012
	C186	C	0.118850	0.823178	0.385261
	C187	C	0.881171	0.823182	0.614936
	C188	C	0.175478	0.384552	0.882896
	C189	C	0.175173	0.615585	0.117661
	C190	C	0.824148	0.384447	0.118087
	C191	C	0.824159	0.614862	0.881855
	C192	C	0.400750	0.095138	0.599312
	C193	C	0.600405	0.904822	0.600820
	C194	C	0.599812	0.094704	0.400629
	C195	C	0.400757	0.905842	0.400017
	C196	C	0.599644	0.399603	0.094158
	C197	C	0.600068	0.600899	0.905524
	C198	C	0.400043	0.601138	0.094692
	C199	C	0.399889	0.400317	0.905735
	C200	C	0.095256	0.598850	0.399885
	C201	C	0.904278	0.599453	0.600204
	C202	C	0.094671	0.400680	0.600502
	C203	C	0.905087	0.400714	0.399911
	C204	C	0.899890	0.594862	0.100461
	C205	C	0.099713	0.404950	0.100318
	C206	C	0.099120	0.594791	0.899506
	C207	C	0.900172	0.404731	0.900026
	C208	C	0.100425	0.899280	0.594217
	C209	C	0.099796	0.100547	0.405947
	C210	C	0.900827	0.099481	0.594300
	C211	C	0.900066	0.899185	0.405731
	C212	C	0.595113	0.100104	0.899371
	C213	C	0.405287	0.098905	0.099243
	C214	C	0.595029	0.900694	0.099908
	C215	C	0.404921	0.901109	0.899541
	Zn216	Zn	0.499989	0.000197	0.749620
	Zn217	Zn	0.500286	0.000550	0.249895
	Zn218	Zn	0.750434	0.499680	-0.000145
	Zn219	Zn	0.249627	0.500538	0.000185
	Zn220	Zn	-0.000011	0.748559	0.500298
	Zn221	Zn	0.000078	0.250685	0.500398
	Zn222	Zn	-0.000338	0.499724	0.750000
	Zn223	Zn	0.000076	0.499520	0.249856
	Zn224	Zn	0.499926	0.751175	-0.000187
	Zn225	Zn	0.499229	0.249549	-0.000083
	Zn226	Zn	0.750224	-0.000301	0.500179
	Zn227	Zn	0.250438	-0.000005	0.499929
	N228	N	0.414164	0.963427	0.678439
	N229	N	0.586678	0.036792	0.678801
	N230	N	0.586432	0.963528	0.321459
	N231	N	0.414114	0.037583	0.321044
	N232	N	0.678247	0.414434	0.962645
	N233	N	0.677932	0.584672	0.037502
	N234	N	0.322182	0.585674	0.962559
	N235	N	0.322230	0.415575	0.037541
	N236	N	0.962475	0.676643	0.415324
	N237	N	0.037349	0.676625	0.584982
	N238	N	0.962348	0.322226	0.585556
	N239	N	0.037636	0.323306	0.415687
	N240	N	0.962338	0.414236	0.678530
	N241	N	0.036688	0.585366	0.678592
	N242	N	0.962700	0.584919	0.321574
	N243	N	0.037314	0.413918	0.321302
	N244	N	0.414279	0.679442	0.962865
	N245	N	0.585662	0.679102	0.037101
	N246	N	0.584564	0.322040	0.962550
	N247	N	0.413469	0.321295	0.037067
	N248	N	0.676710	0.961736	0.416635
	N249	N	0.678087	0.037372	0.584816
	N250	N	0.323651	0.962291	0.584113
	N251	N	0.322367	0.037975	0.415090
	N252	N	0.914037	0.462554	0.178574
	N253	N	0.086038	0.536884	0.178581
	N254	N	0.085301	0.462535	0.821729
	N255	N	0.913243	0.536334	0.820889
	N256	N	0.178186	0.914643	0.462414
	N257	N	0.177438	0.083842	0.538044
	N258	N	0.822634	0.084789	0.462254
	N259	N	0.822654	0.914935	0.537565
	N260	N	0.462104	0.177650	0.914466
	N261	N	0.537654	0.177263	0.084353
	N262	N	0.462071	0.823618	0.084211
	N263	N	0.537594	0.823423	0.915028
	N264	N	0.463248	0.914375	0.179021
	N265	N	0.537196	0.086312	0.178642
	N266	N	0.462813	0.086221	0.820497
	N267	N	0.537497	0.915367	0.821882
	N268	N	0.914809	0.178846	0.463084
	N269	N	0.086771	0.179526	0.537225
	N270	N	0.085731	0.820706	0.462901
	N271	N	0.913813	0.820417	0.537222
	N272	N	0.177469	0.462580	0.915427
	N273	N	0.177050	0.537773	0.084482
	N274	N	0.822185	0.462353	0.084976
	N275	N	0.822893	0.537366	0.915529
