data_Molecule from HDF5

_cell_length_a		16.212209
_cell_length_b		16.199313
_cell_length_c		16.229222
_cell_angle_alpha	90.125832
_cell_angle_beta	89.506390
_cell_angle_gamma	90.632239
_symmetry_space_group_name_H-M	'P 1'
_symmetry_Int_Tables_number		1

loop_
	_symmetry_equiv_pos_as_xyz
	x,y,z

loop_
	_atom_site_label
	_atom_site_type_symbol
	_atom_site_fract_x
	_atom_site_fract_y
	_atom_site_fract_z
	H0	H	0.399694	0.834615	0.712723
	H1	H	0.602617	0.163421	0.710038
	H2	H	0.603281	0.834833	0.277662
	H3	H	0.408854	0.164357	0.284141
	H4	H	0.716321	0.400571	0.833185
	H5	H	0.716482	0.599834	0.160922
	H6	H	0.290128	0.595510	0.833505
	H7	H	0.283555	0.396049	0.160127
	H8	H	0.836548	0.709055	0.400248
	H9	H	0.165045	0.713587	0.595255
	H10	H	0.837626	0.279750	0.597618
	H11	H	0.166481	0.285708	0.397453
	H12	H	0.836814	0.395740	0.713850
	H13	H	0.165814	0.596843	0.707927
	H14	H	0.835773	0.592537	0.285847
	H15	H	0.163563	0.396084	0.278198
	H16	H	0.403871	0.711562	0.834130
	H17	H	0.601054	0.715200	0.160607
	H18	H	0.600528	0.286519	0.831844
	H19	H	0.399949	0.282328	0.160834
	H20	H	0.714972	0.833096	0.396180
	H21	H	0.717276	0.163011	0.592515
	H22	H	0.283946	0.834664	0.596730
	H23	H	0.290511	0.163302	0.398425
	H24	H	0.898981	0.331719	0.211098
	H25	H	0.100440	0.661251	0.212676
	H26	H	0.099505	0.332837	0.781488
	H27	H	0.905308	0.662702	0.784842
	H28	H	0.218085	0.897588	0.332184
	H29	H	0.216943	0.099429	0.660385
	H30	H	0.792727	0.094384	0.331885
	H31	H	0.782631	0.895547	0.659344
	H32	H	0.337728	0.210211	0.899623
	H33	H	0.666606	0.215043	0.092842
	H34	H	0.338808	0.782025	0.099198
	H35	H	0.667031	0.785445	0.895431
	H36	H	0.339465	0.898141	0.213017
	H37	H	0.668156	0.100175	0.207366
	H38	H	0.338242	0.096770	0.783372
	H39	H	0.666662	0.902208	0.780337
	H40	H	0.905280	0.209630	0.333396
	H41	H	0.099934	0.212618	0.661141
	H42	H	0.101874	0.781044	0.333405
	H43	H	0.900042	0.782899	0.660985
	H44	H	0.214825	0.332757	0.898359
	H45	H	0.218925	0.661223	0.098058
	H46	H	0.782844	0.332982	0.095564
	H47	H	0.791329	0.662869	0.900790
	H48	H	0.410331	0.116415	0.594027
	H49	H	0.597938	0.879096	0.588701
	H50	H	0.601609	0.114256	0.408320
	H51	H	0.406668	0.884121	0.413765
	H52	H	0.601759	0.408138	0.116841
	H53	H	0.600088	0.587604	0.879980
	H54	H	0.406446	0.592778	0.116474
	H55	H	0.403955	0.399722	0.877192
	H56	H	0.116786	0.586514	0.405555
	H57	H	0.884163	0.585507	0.592793
	H58	H	0.118396	0.410107	0.592408
	H59	H	0.885406	0.409067	0.404276
	H60	H	0.121338	0.399949	0.592301
	H61	H	0.881533	0.590077	0.595384
	H62	H	0.117976	0.588123	0.401872
	H63	H	0.880057	0.396714	0.399976
	H64	H	0.409065	0.584264	0.113377
	H65	H	0.591845	0.590968	0.880799
	H66	H	0.585322	0.414571	0.110064
	H67	H	0.406529	0.409598	0.879963
	H68	H	0.604166	0.117998	0.397611
	H69	H	0.589903	0.880809	0.593744
	H70	H	0.413831	0.114516	0.588162
	H71	H	0.403560	0.877732	0.397242
	H72	H	0.912501	0.610617	0.083262
	H73	H	0.090768	0.382042	0.082012
	H74	H	0.101132	0.616865	0.900828
	H75	H	0.913739	0.380667	0.899143
	H76	H	0.094619	0.896859	0.616137
	H77	H	0.102010	0.095352	0.376777
	H78	H	0.920524	0.087469	0.610743
	H79	H	0.905005	0.890428	0.375116
	H80	H	0.620964	0.099342	0.904338
	H81	H	0.383654	0.090107	0.095941
	H82	H	0.616501	0.914969	0.081990
	H83	H	0.383915	0.902369	0.902270
	H84	H	0.621432	0.907898	0.094354
	H85	H	0.384343	0.095253	0.089926
	H86	H	0.617430	0.089542	0.905493
	H87	H	0.386122	0.902852	0.910383
	H88	H	0.904760	0.098551	0.618511
	H89	H	0.099543	0.084155	0.380709
	H90	H	0.099419	0.912103	0.613610
	H91	H	0.901811	0.912071	0.379439
	H92	H	0.092271	0.613902	0.900751
	H93	H	0.097700	0.378108	0.088906
	H94	H	0.899951	0.617988	0.093790
	H95	H	0.907521	0.382689	0.911486
	H96	H	0.407198	0.115987	0.588383
	H97	H	0.589514	0.883381	0.583593
	H98	H	0.593049	0.113817	0.400504
	H99	H	0.420166	0.884466	0.401586
	H100	H	0.587338	0.396190	0.115449
	H101	H	0.598859	0.596063	0.878714
	H102	H	0.414875	0.589858	0.113081
	H103	H	0.413861	0.401470	0.880925
	H104	H	0.118428	0.590988	0.405559
	H105	H	0.883711	0.591234	0.589145
	H106	H	0.116487	0.405610	0.583136
	H107	H	0.884773	0.397533	0.413421
	H108	H	0.916423	0.615132	0.099535
	H109	H	0.087719	0.380684	0.090830
	H110	H	0.097407	0.613033	0.908163
	H111	H	0.900399	0.377290	0.900763
	H112	H	0.084947	0.907627	0.610899
	H113	H	0.090470	0.093026	0.381020
	H114	H	0.901996	0.078735	0.614031
	H115	H	0.921522	0.903326	0.383079
	H116	H	0.621786	0.092129	0.896278
	H117	H	0.386492	0.086728	0.088782
	H118	H	0.620760	0.900397	0.080938
	H119	H	0.387580	0.909574	0.905180
	C120	C	0.379975	0.007300	0.619176
	C121	C	0.623179	0.990034	0.616987
	C122	C	0.626527	0.006746	0.373001
	C123	C	0.382386	0.990583	0.375641
	C124	C	0.621735	0.377703	0.005526
	C125	C	0.625059	0.621144	0.988105
	C126	C	0.381222	0.618158	0.006200
	C127	C	0.378332	0.374306	0.987887
	C128	C	0.008828	0.616934	0.376773
	C129	C	0.991972	0.618656	0.619552
	C130	C	0.010217	0.374952	0.619096
	C131	C	0.992143	0.373583	0.375515
	C132	C	0.878525	0.505939	0.120118
	C133	C	0.122234	0.488503	0.117824
	C134	C	0.124520	0.505914	0.874531
	C135	C	0.880590	0.489293	0.876123
	C136	C	0.123121	0.876203	0.505100
	C137	C	0.125048	0.120261	0.487843
	C138	C	0.881913	0.116766	0.505736
	C139	C	0.878975	0.873753	0.487557
	C140	C	0.511147	0.120735	0.874583
	C141	C	0.493973	0.120835	0.118298
	C142	C	0.511557	0.877581	0.117110
	C143	C	0.493971	0.876345	0.875157
	C144	C	0.380107	0.883617	0.674619
	C145	C	0.622481	0.113987	0.671986
	C146	C	0.623858	0.883807	0.315949
	C147	C	0.387024	0.114900	0.321151
	C148	C	0.678022	0.380641	0.882027
	C149	C	0.679296	0.619861	0.111738
	C150	C	0.327250	0.615614	0.882490
	C151	C	0.322165	0.376363	0.111229
	C152	C	0.885549	0.671493	0.379868
	C153	C	0.115855	0.675326	0.615928
	C154	C	0.886598	0.318297	0.617884
	C155	C	0.116586	0.321512	0.376994
	C156	C	0.886390	0.376096	0.675583
	C157	C	0.116404	0.617254	0.671951
	C158	C	0.885080	0.613605	0.322821
	C159	C	0.115053	0.376192	0.317417
	C160	C	0.383575	0.673329	0.882814
	C161	C	0.621774	0.677194	0.111580
	C162	C	0.620446	0.323736	0.881429
	C163	C	0.380022	0.319638	0.111586
	C164	C	0.679295	0.882808	0.375182
	C165	C	0.679771	0.113696	0.613730
	C166	C	0.322749	0.883753	0.616877
	C167	C	0.328283	0.114354	0.377911
	C168	C	0.878594	0.381381	0.174265
	C169	C	0.120782	0.612117	0.174539
	C170	C	0.120547	0.382110	0.819013
	C171	C	0.884795	0.613327	0.822050
	C172	C	0.179798	0.877724	0.381589
	C173	C	0.179383	0.119090	0.611342
	C174	C	0.829384	0.114150	0.381379
	C175	C	0.821634	0.876051	0.610629
	C176	C	0.387043	0.173589	0.878776
	C177	C	0.617841	0.176882	0.113882
	C178	C	0.388054	0.820402	0.117951
	C179	C	0.617614	0.822510	0.875716
	C180	C	0.388202	0.878408	0.174610
	C181	C	0.618466	0.119848	0.170959
	C182	C	0.387314	0.117002	0.820819
	C183	C	0.617489	0.880637	0.818297
	C184	C	0.885002	0.171972	0.382193
	C185	C	0.121311	0.175457	0.611741
	C186	C	0.122031	0.819616	0.382059
	C187	C	0.879902	0.819748	0.611564
	C188	C	0.177851	0.381921	0.877164
	C189	C	0.179679	0.612160	0.117534
	C190	C	0.821168	0.382113	0.116737
	C191	C	0.827944	0.613525	0.879940
	C192	C	0.403600	0.093352	0.596774
	C193	C	0.599501	0.903444	0.595104
	C194	C	0.605627	0.093184	0.395492
	C195	C	0.403817	0.904603	0.397791
	C196	C	0.598351	0.399749	0.091827
	C197	C	0.603438	0.598272	0.902064
	C198	C	0.403438	0.595601	0.091913
	C199	C	0.401360	0.396971	0.901566
	C200	C	0.095415	0.595140	0.398146
	C201	C	0.905349	0.595681	0.598710
	C202	C	0.096519	0.398339	0.596008
	C203	C	0.905855	0.394801	0.399024
	C204	C	0.902600	0.592118	0.098550
	C205	C	0.098940	0.402558	0.094386
	C206	C	0.103312	0.592117	0.896938
	C207	C	0.901175	0.402765	0.897437
	C208	C	0.099937	0.898966	0.591225
	C209	C	0.103737	0.097659	0.401736
	C210	C	0.902863	0.094703	0.591947
	C211	C	0.902672	0.895444	0.401526
	C212	C	0.597681	0.099721	0.895604
	C213	C	0.407356	0.097641	0.097825
	C214	C	0.597286	0.901009	0.092994
	C215	C	0.408111	0.898227	0.898981
	Zn216	Zn	0.501730	-0.000951	0.746804
	Zn217	Zn	0.504155	-0.000919	0.245558
	Zn218	Zn	0.751446	0.498130	-0.002502
	Zn219	Zn	0.252400	0.497627	-0.003048
	Zn220	Zn	0.001093	0.746216	0.497538
	Zn221	Zn	0.001829	0.245932	0.497025
	Zn222	Zn	0.001643	0.497736	0.746826
	Zn223	Zn	0.000352	0.495890	0.247930
	Zn224	Zn	0.502368	0.747578	-0.003019
	Zn225	Zn	0.501849	0.248170	-0.003346
	Zn226	Zn	0.753132	-0.002900	0.495802
	Zn227	Zn	0.252332	-0.001392	0.496405
	N228	N	0.415080	0.961395	0.676200
	N229	N	0.587850	0.035919	0.674142
	N230	N	0.591691	0.961894	0.314660
	N231	N	0.420088	0.036977	0.319398
	N232	N	0.678774	0.413515	0.960194
	N233	N	0.681434	0.585756	0.034067
	N234	N	0.325535	0.582019	0.960364
	N235	N	0.321138	0.409626	0.033336
	N236	N	0.963645	0.673584	0.412631
	N237	N	0.037429	0.676696	0.584370
	N238	N	0.964472	0.317492	0.583533
	N239	N	0.038970	0.319537	0.412346
	N240	N	0.964391	0.410451	0.676661
	N241	N	0.038460	0.582633	0.674100
	N242	N	0.962981	0.580308	0.320815
	N243	N	0.036699	0.407758	0.316253
	N244	N	0.416245	0.675186	0.960526
	N245	N	0.588825	0.678131	0.033705
	N246	N	0.585955	0.321913	0.959341
	N247	N	0.414378	0.318169	0.033716
	N248	N	0.681197	0.960412	0.409852
	N249	N	0.680239	0.035578	0.580296
	N250	N	0.322624	0.961665	0.583017
	N251	N	0.325355	0.036274	0.410854
	N252	N	0.913653	0.459125	0.176480
	N253	N	0.085946	0.534245	0.175054
	N254	N	0.088065	0.460125	0.817314
	N255	N	0.917175	0.535260	0.819762
	N256	N	0.180473	0.912284	0.459203
	N257	N	0.181766	0.085468	0.533534
	N258	N	0.827250	0.080610	0.459219
	N259	N	0.820563	0.908520	0.532472
	N260	N	0.464984	0.176024	0.911428
	N261	N	0.539490	0.177660	0.081974
	N262	N	0.465614	0.819756	0.082765
	N263	N	0.539662	0.819711	0.910242
	N264	N	0.466007	0.913318	0.174279
	N265	N	0.540337	0.085715	0.173953
	N266	N	0.465624	0.084958	0.818075
	N267	N	0.539511	0.913299	0.817721
	N268	N	0.917171	0.173677	0.460341
	N269	N	0.088318	0.176450	0.533834
	N270	N	0.087231	0.818678	0.459660
	N271	N	0.914889	0.818131	0.534023
	N272	N	0.180451	0.459839	0.911030
	N273	N	0.180448	0.534570	0.082808
	N274	N	0.820907	0.460492	0.083931
	N275	N	0.825019	0.535341	0.912907
	O276	O	0.514549	0.537809	0.569099
	H277	H	0.517452	0.536683	0.560344
	H278	H	0.521062	0.543208	0.575095
	O279	O	0.401238	0.604133	0.434818
	H280	H	0.400544	0.599872	0.440138
	H281	H	0.407685	0.596795	0.443836
	O282	O	1.018058	0.957783	0.077622
	H283	H	1.025757	0.959146	0.082714
	H284	H	1.015079	0.954801	0.080397
	O285	O	1.122886	-0.093146	1.041721
	H286	H	1.120545	-0.101482	1.039581
	H287	H	1.126513	-0.092700	1.038832
	O288	O	0.496999	0.463411	0.405186
	H289	H	0.502504	0.462471	0.412633
	H290	H	0.495850	0.465933	0.414379
	O291	O	0.457038	0.605709	0.532546
	H292	H	0.459122	0.597398	0.537811
	H293	H	0.462512	0.600607	0.529848
	O294	O	0.546540	0.475935	0.486425
	H295	H	0.541765	0.480218	0.488969
	H296	H	0.548458	0.473943	0.486042
	O297	O	0.046127	-0.032925	0.875665
	H298	H	0.043118	-0.025418	0.879714
	H299	H	0.055272	-0.025837	0.875172
	O300	O	0.535374	0.593335	0.574795
	H301	H	0.548780	0.593787	0.581369
	H302	H	0.531215	0.602635	0.584862
	O303	O	0.470864	0.515129	-0.540571
	H304	H	0.473407	0.515709	-0.541073
	H305	H	0.452020	0.509025	-0.538007
	O306	O	-0.077997	0.944549	1.032287
	H307	H	-0.080364	0.931566	1.032227
	H308	H	-0.086357	0.951720	1.033112
	O309	O	0.468274	0.547086	0.501019
	H310	H	0.463870	0.538099	0.500501
	H311	H	0.473095	0.535161	0.506723
	O312	O	-0.003418	0.007345	-0.138887
	H313	H	-0.001318	0.002243	-0.134250
	H314	H	-0.007430	0.003342	-0.149019
	O315	O	1.056240	0.033202	0.106285
	H316	H	1.051840	0.036238	0.107669
	H317	H	1.063445	0.043352	0.104147
	O318	O	0.930409	0.924923	0.949721
	H319	H	0.925717	0.920952	0.945771
	H320	H	0.943320	0.922674	0.948140
	O321	O	0.175932	0.156855	1.127791
	H322	H	0.176138	0.163803	1.125938
	H323	H	0.183018	0.158866	1.127763
	O324	O	0.489760	0.534029	0.379712
	H325	H	0.495098	0.546110	0.375045
	H326	H	0.494040	0.539071	0.379732
	O327	O	0.029254	0.027978	0.045652
	H328	H	0.020700	0.016745	0.043856
	H329	H	0.041248	0.033004	0.047545
	O330	O	0.381088	0.483911	0.555957
	H331	H	0.372290	0.474027	0.565987
	H332	H	0.388767	0.474527	0.550060
	O333	O	0.014907	1.089115	0.985629
	H334	H	0.010088	1.084446	0.994125
	H335	H	0.021883	1.088566	0.985375
	O336	O	-0.023122	0.041017	-0.030583
	H337	H	-0.028065	0.038929	-0.032491
	H338	H	-0.025653	0.037360	-0.033871
	O339	O	0.541520	0.476740	0.599704
	H340	H	0.539805	0.476785	0.598214
	H341	H	0.529812	0.474734	0.593443
	O342	O	1.033647	1.031544	1.019171
	H343	H	1.029490	1.027758	1.020412
	H344	H	1.035890	1.007894	1.010464
	O345	O	1.016228	0.996959	0.063064
	H346	H	1.015155	0.994004	0.057809
	H347	H	1.019747	0.999015	0.079660
	O348	O	0.621363	0.436396	0.447735
	H349	H	0.618398	0.437275	0.445307
	H350	H	0.619853	0.429524	0.452071
	O351	O	0.409644	0.362908	0.509605
	H352	H	0.414498	0.367221	0.511415
	H353	H	0.417079	0.359622	0.511733
	O354	O	0.513911	0.515471	0.418617
	H355	H	0.509073	0.508019	0.412545
	H356	H	0.507360	0.517530	0.416914
	O357	O	0.536184	0.423534	1.570591
	H358	H	0.544346	0.416004	1.569609
	H359	H	0.522041	0.421306	1.562113
	O360	O	0.597066	0.518392	0.548307
	H361	H	0.607831	0.516033	0.548648
	H362	H	0.602762	0.518380	0.544472
	O363	O	1.032860	0.974141	0.962651
	H364	H	1.039650	0.979681	0.966601
	H365	H	1.039244	0.971559	0.971587
	O366	O	0.923708	0.932046	0.938141
	H367	H	0.924314	0.921047	0.937761
	H368	H	0.929933	0.943470	0.948108
	O369	O	0.977736	-0.082289	1.074848
	H370	H	0.974988	-0.078392	1.076572
	H371	H	0.981532	-0.072932	1.069778
	O372	O	0.109101	-0.054722	-0.091836
	H373	H	0.118600	-0.040038	-0.092364
	H374	H	0.105425	-0.046104	-0.083337
	O375	O	0.994834	0.056759	-0.046462
	H376	H	0.992206	0.062232	-0.045909
	H377	H	0.984735	0.050299	-0.040564
	O378	O	0.498257	0.433437	0.495398
	H379	H	0.490214	0.432419	0.507954
	H380	H	0.506186	0.441843	0.482243
	O381	O	0.442247	0.548302	0.415690
	H382	H	0.430532	0.555296	0.410853
	H383	H	0.443719	0.551903	0.414837
