data_Molecule from HDF5

_cell_length_a		16.241403
_cell_length_b		16.333824
_cell_length_c		16.455234
_cell_angle_alpha	90.148051
_cell_angle_beta	89.863759
_cell_angle_gamma	90.155003
_symmetry_space_group_name_H-M	'P 1'
_symmetry_Int_Tables_number		1

loop_
	_symmetry_equiv_pos_as_xyz
	x,y,z

loop_
	_atom_site_label
	_atom_site_type_symbol
	_atom_site_fract_x
	_atom_site_fract_y
	_atom_site_fract_z
	H0	H	0.370441	0.843784	0.718690
	H1	H	0.584670	0.163549	0.715265
	H2	H	0.585085	0.843805	0.273548
	H3	H	0.377868	0.165170	0.278914
	H4	H	0.697581	0.399381	0.836496
	H5	H	0.696476	0.604702	0.156118
	H6	H	0.257477	0.603961	0.837021
	H7	H	0.260770	0.399794	0.157640
	H8	H	0.817004	0.719434	0.394888
	H9	H	0.139967	0.721926	0.601060
	H10	H	0.816163	0.284417	0.596412
	H11	H	0.141376	0.283387	0.393512
	H12	H	0.818207	0.394022	0.717761
	H13	H	0.138561	0.608236	0.718547
	H14	H	0.815979	0.600749	0.281115
	H15	H	0.139161	0.394549	0.274592
	H16	H	0.372222	0.724036	0.836799
	H17	H	0.583219	0.723175	0.154704
	H18	H	0.583004	0.283264	0.836186
	H19	H	0.375131	0.282525	0.155795
	H20	H	0.696591	0.841270	0.393849
	H21	H	0.695417	0.164931	0.595201
	H22	H	0.260857	0.841010	0.597871
	H23	H	0.262219	0.164548	0.394885
	H24	H	0.874148	0.338716	0.213855
	H25	H	0.079339	0.660300	0.215141
	H26	H	0.081935	0.341758	0.776346
	H27	H	0.870812	0.659947	0.775061
	H28	H	0.196307	0.900835	0.336674
	H29	H	0.197262	0.104353	0.656571
	H30	H	0.764900	0.100821	0.334775
	H31	H	0.759437	0.901749	0.657104
	H32	H	0.317322	0.219877	0.895474
	H33	H	0.642565	0.220989	0.094824
	H34	H	0.319109	0.784764	0.099221
	H35	H	0.640774	0.782918	0.890446
	H36	H	0.319759	0.901851	0.214714
	H37	H	0.643089	0.107255	0.211614
	H38	H	0.318326	0.106178	0.777611
	H39	H	0.639997	0.897968	0.774102
	H40	H	0.878405	0.219359	0.336318
	H41	H	0.081955	0.221483	0.655500
	H42	H	0.079714	0.782959	0.337470
	H43	H	0.871856	0.781195	0.656455
	H44	H	0.194214	0.339750	0.896186
	H45	H	0.195779	0.661211	0.100420
	H46	H	0.761627	0.338385	0.093602
	H47	H	0.761744	0.663005	0.896330
	H48	H	0.393690	0.117038	0.592438
	H49	H	0.571676	0.886182	0.588132
	H50	H	0.565446	0.115774	0.405734
	H51	H	0.392049	0.890328	0.408426
	H52	H	0.569111	0.408240	0.111318
	H53	H	0.575792	0.588794	0.880783
	H54	H	0.386338	0.592485	0.109367
	H55	H	0.378526	0.410722	0.879665
	H56	H	0.092507	0.591393	0.408309
	H57	H	0.864913	0.585430	0.587475
	H58	H	0.093021	0.412833	0.584824
	H59	H	0.866564	0.417209	0.407751
	H60	H	0.093559	0.415113	0.587531
	H61	H	0.862236	0.592584	0.589465
	H62	H	0.092945	0.588561	0.404742
	H63	H	0.860170	0.407870	0.396873
	H64	H	0.391596	0.592341	0.108085
	H65	H	0.563205	0.589504	0.885140
	H66	H	0.570648	0.416852	0.109259
	H67	H	0.389809	0.418731	0.886417
	H68	H	0.577967	0.119170	0.408178
	H69	H	0.562389	0.889133	0.588220
	H70	H	0.394534	0.113831	0.581064
	H71	H	0.385873	0.887459	0.403440
	H72	H	0.885223	0.616482	0.087764
	H73	H	0.067235	0.384766	0.086773
	H74	H	0.069525	0.616976	0.907291
	H75	H	0.890841	0.383747	0.893322
	H76	H	0.064018	0.912292	0.609381
	H77	H	0.066721	0.086479	0.384812
	H78	H	0.885378	0.099223	0.612961
	H79	H	0.885323	0.907171	0.380939
	H80	H	0.598438	0.091664	0.893164
	H81	H	0.366882	0.086847	0.087886
	H82	H	0.596086	0.914792	0.084750
	H83	H	0.361206	0.904754	0.904250
	H84	H	0.596483	0.912962	0.084614
	H85	H	0.361330	0.096065	0.094222
	H86	H	0.597555	0.105099	0.909144
	H87	H	0.369388	0.916224	0.916652
	H88	H	0.884163	0.087183	0.610293
	H89	H	0.066523	0.100371	0.380894
	H90	H	0.071232	0.907217	0.612982
	H91	H	0.888765	0.914288	0.384855
	H92	H	0.064221	0.615605	0.905050
	H93	H	0.068553	0.385149	0.086835
	H94	H	0.888269	0.616751	0.094125
	H95	H	0.898486	0.393083	0.914155
	H96	H	0.384582	0.118442	0.585819
	H97	H	0.567618	0.889933	0.580683
	H98	H	0.572617	0.122071	0.395592
	H99	H	0.393586	0.889593	0.400546
	H100	H	0.562921	0.412970	0.107756
	H101	H	0.568598	0.600001	0.879963
	H102	H	0.389048	0.597492	0.109849
	H103	H	0.391790	0.404087	0.881903
	H104	H	0.094992	0.593419	0.404719
	H105	H	0.864857	0.591475	0.582622
	H106	H	0.094289	0.411677	0.587874
	H107	H	0.863141	0.402474	0.411487
	H108	H	0.891275	0.613858	0.088523
	H109	H	0.068458	0.384700	0.087609
	H110	H	0.065045	0.614029	0.910598
	H111	H	0.876657	0.384680	0.912399
	H112	H	0.072492	0.916268	0.610916
	H113	H	0.079367	0.092314	0.379179
	H114	H	0.894898	0.092643	0.608306
	H115	H	0.893214	0.906547	0.383829
	H116	H	0.590605	0.084840	0.911073
	H117	H	0.364401	0.097687	0.082904
	H118	H	0.594941	0.914428	0.083137
	H119	H	0.365746	0.922054	0.899434
	C120	C	0.357921	0.010821	0.617786
	C121	C	0.599357	0.994714	0.616342
	C122	C	0.602337	0.012118	0.372805
	C123	C	0.359261	0.995395	0.374093
	C124	C	0.599108	0.381768	0.003923
	C125	C	0.600861	0.624169	0.987257
	C126	C	0.356469	0.624847	0.004276
	C127	C	0.356376	0.380100	0.988334
	C128	C	-0.013262	0.621535	0.375702
	C129	C	0.970191	0.622729	0.618907
	C130	C	-0.013176	0.380915	0.617305
	C131	C	0.970388	0.378381	0.374421
	C132	C	0.856424	0.509090	0.119073
	C133	C	0.098976	0.491131	0.118251
	C134	C	0.098479	0.509773	0.875930
	C135	C	0.856901	0.492721	0.875403
	C136	C	0.099903	0.880981	0.505463
	C137	C	0.101670	0.124205	0.487581
	C138	C	0.858339	0.122994	0.504585
	C139	C	0.856634	0.879321	0.488571
	C140	C	0.488482	0.124427	0.874428
	C141	C	0.471792	0.124945	0.117282
	C142	C	0.489127	0.882858	0.116057
	C143	C	0.471225	0.881872	0.874206
	C144	C	0.353983	0.891210	0.678125
	C145	C	0.601887	0.115598	0.675120
	C146	C	0.603248	0.891465	0.313793
	C147	C	0.359107	0.116634	0.317794
	C148	C	0.658130	0.380850	0.884070
	C149	C	0.658186	0.624312	0.107768
	C150	C	0.297029	0.624125	0.884590
	C151	C	0.298930	0.380171	0.109087
	C152	C	0.865329	0.679683	0.376125
	C153	C	0.091311	0.682553	0.620262
	C154	C	0.865166	0.322241	0.616961
	C155	C	0.092533	0.321444	0.374085
	C156	C	0.866028	0.377488	0.676915
	C157	C	0.090590	0.625912	0.678798
	C158	C	0.864825	0.620994	0.319044
	C159	C	0.091304	0.376852	0.314884
	C160	C	0.354200	0.683727	0.884553
	C161	C	0.601636	0.683239	0.107089
	C162	C	0.600854	0.323074	0.883805
	C163	C	0.355854	0.321661	0.108145
	C164	C	0.658812	0.890114	0.373502
	C165	C	0.657232	0.116203	0.615267
	C166	C	0.299242	0.889689	0.617910
	C167	C	0.301328	0.116221	0.375797
	C168	C	0.855632	0.386994	0.174871
	C169	C	0.099132	0.612096	0.176525
	C170	C	0.100376	0.389499	0.816498
	C171	C	0.853920	0.612708	0.815592
	C172	C	0.157081	0.881190	0.384572
	C173	C	0.158821	0.123886	0.608373
	C174	C	0.802741	0.121288	0.383165
	C175	C	0.797685	0.880749	0.608896
	C176	C	0.365893	0.181466	0.875268
	C177	C	0.593970	0.182481	0.115065
	C178	C	0.367329	0.824650	0.117413
	C179	C	0.592351	0.822448	0.872109
	C180	C	0.368037	0.882286	0.175424
	C181	C	0.594032	0.126081	0.173627
	C182	C	0.366718	0.125021	0.816690
	C183	C	0.592216	0.880006	0.814431
	C184	C	0.859183	0.180247	0.383805
	C185	C	0.101510	0.182152	0.607909
	C186	C	0.099367	0.822671	0.385033
	C187	C	0.853880	0.821083	0.608757
	C188	C	0.155926	0.388273	0.876290
	C189	C	0.156682	0.612757	0.119003
	C190	C	0.799088	0.387167	0.115536
	C191	C	0.799796	0.614359	0.876103
	C192	C	0.383355	0.094527	0.593581
	C193	C	0.574510	0.910338	0.592460
	C194	C	0.578852	0.096900	0.396351
	C195	C	0.383615	0.910937	0.397360
	C196	C	0.574569	0.405886	0.087741
	C197	C	0.576444	0.599917	0.903747
	C198	C	0.381546	0.601075	0.087310
	C199	C	0.379902	0.404148	0.904456
	C200	C	0.071497	0.597826	0.399106
	C201	C	0.886070	0.597131	0.593862
	C202	C	0.071543	0.405926	0.593423
	C203	C	0.885459	0.402107	0.398446
	C204	C	0.880955	0.593630	0.096756
	C205	C	0.074913	0.406814	0.094225
	C206	C	0.073443	0.593771	0.900466
	C207	C	0.881552	0.409004	0.899516
	C208	C	0.076070	0.904818	0.589289
	C209	C	0.077857	0.100105	0.403471
	C210	C	0.881431	0.099788	0.588666
	C211	C	0.881739	0.902455	0.405080
	C212	C	0.573396	0.100815	0.897683
	C213	C	0.386420	0.100540	0.094811
	C214	C	0.573743	0.907021	0.091256
	C215	C	0.387305	0.906969	0.899455
	Zn216	Zn	0.479342	0.003380	0.746044
	Zn217	Zn	0.480871	0.004567	0.244830
	Zn218	Zn	0.728901	0.501809	-0.003995
	Zn219	Zn	0.227123	0.500922	-0.003025
	Zn220	Zn	-0.021421	0.750793	0.497668
	Zn221	Zn	-0.020767	0.251954	0.496492
	Zn222	Zn	-0.022061	0.501338	0.746547
	Zn223	Zn	-0.021930	0.499207	0.247351
	Zn224	Zn	0.480042	0.753529	-0.005128
	Zn225	Zn	0.479597	0.252389	-0.004448
	Zn226	Zn	0.728724	0.002250	0.495932
	Zn227	Zn	0.230205	0.002296	0.496495
	N228	N	0.389792	0.967618	0.678303
	N229	N	0.566622	0.038933	0.675922
	N230	N	0.569022	0.968311	0.313339
	N231	N	0.394334	0.040308	0.316461
	N232	N	0.657245	0.416508	0.959751
	N233	N	0.657900	0.588335	0.032128
	N234	N	0.298304	0.588252	0.960000
	N235	N	0.299190	0.415904	0.033624
	N236	N	0.942389	0.680244	0.410610
	N237	N	0.015469	0.680660	0.583780
	N238	N	0.941426	0.324270	0.580435
	N239	N	0.016314	0.322414	0.410616
	N240	N	0.942604	0.413434	0.676974
	N241	N	0.014139	0.589388	0.678007
	N242	N	0.941391	0.585539	0.318610
	N243	N	0.014188	0.411299	0.315003
	N244	N	0.390393	0.684399	0.960097
	N245	N	0.566765	0.683270	0.031090
	N246	N	0.564607	0.323787	0.959373
	N247	N	0.390967	0.321530	0.032033
	N248	N	0.658397	0.966249	0.409452
	N249	N	0.655709	0.040037	0.579329
	N250	N	0.301659	0.964954	0.580974
	N251	N	0.300999	0.039482	0.409848
	N252	N	0.890130	0.463900	0.177477
	N253	N	0.064252	0.535441	0.176380
	N254	N	0.065686	0.466124	0.816089
	N255	N	0.888945	0.536302	0.815070
	N256	N	0.157738	0.916345	0.460397
	N257	N	0.159022	0.088694	0.532301
	N258	N	0.802050	0.086455	0.459180
	N259	N	0.799198	0.916106	0.533199
	N260	N	0.442441	0.181192	0.910455
	N261	N	0.516773	0.181941	0.080980
	N262	N	0.443620	0.824696	0.081338
	N263	N	0.516104	0.823501	0.908491
	N264	N	0.444781	0.917711	0.174604
	N265	N	0.516825	0.091171	0.175055
	N266	N	0.443824	0.090293	0.816090
	N267	N	0.515885	0.916028	0.815375
	N268	N	0.892852	0.181527	0.460382
	N269	N	0.067182	0.182665	0.531683
	N270	N	0.064691	0.822424	0.461309
	N271	N	0.889742	0.820025	0.533042
	N272	N	0.155043	0.464231	0.912437
	N273	N	0.157142	0.536346	0.083971
	N274	N	0.799506	0.464022	0.081808
	N275	N	0.801503	0.538868	0.912624
	O276	O	1.175345	0.105166	0.104403
	H277	H	1.165266	0.116526	0.101633
	H278	H	1.164199	0.094701	0.110636
	O279	O	0.326830	0.507644	0.306630
	H280	H	0.325702	0.517867	0.297693
	H281	H	0.324664	0.530324	0.295909
	O282	O	0.620333	0.348510	0.592085
	H283	H	0.604766	0.341789	0.586690
	H284	H	0.626166	0.361612	0.598071
	O285	O	0.975865	0.040296	0.094736
	H286	H	0.965961	0.021275	0.090656
	H287	H	0.967927	0.038871	0.107092
	O288	O	0.179743	-0.202847	0.939297
	H289	H	0.181631	-0.195354	0.915045
	H290	H	0.205191	-0.213604	0.937026
	O291	O	0.471174	0.549584	0.700033
	H292	H	0.474486	0.559487	0.707223
	H293	H	0.464608	0.540752	0.706505
	O294	O	0.620429	0.673690	0.625717
	H295	H	0.629200	0.647765	0.638797
	H296	H	0.621968	0.673365	0.616552
	O297	O	1.042823	1.040390	0.937168
	H298	H	1.052543	1.051979	0.920012
	H299	H	1.028047	1.055158	0.939538
	O300	O	-0.051645	-0.121427	-0.151796
	H301	H	-0.047425	-0.127247	-0.152567
	H302	H	-0.046479	-0.126791	-0.152669
	O303	O	0.605260	0.480682	0.614486
	H304	H	0.598186	0.469088	0.620597
	H305	H	0.581001	0.486213	0.626021
	O306	O	1.182803	-0.194758	0.226406
	H307	H	1.175897	-0.178519	0.224112
	H308	H	1.174781	-0.195768	0.222306
	O309	O	1.288411	0.679134	0.523192
	H310	H	1.278994	0.697817	0.521542
	H311	H	1.290239	0.680342	0.493023
	O312	O	0.905140	1.197199	-0.123921
	H313	H	0.906933	1.208650	-0.130542
	H314	H	0.895411	1.190046	-0.119426
	O315	O	1.140372	-0.115164	-0.122549
	H316	H	1.132388	-0.087425	-0.116972
	H317	H	1.130996	-0.113913	-0.124938
	O318	O	0.637901	0.499800	0.444818
	H319	H	0.617935	0.491945	0.439946
	H320	H	0.633960	0.479113	0.442460
	O321	O	1.613784	0.575102	1.501943
	H322	H	1.626034	0.575536	1.489080
	H323	H	1.608144	0.577793	1.496998
	O324	O	-0.054304	-0.060040	0.939508
	H325	H	-0.049422	-0.057585	0.938272
	H326	H	-0.056544	-0.074992	0.926859
	O327	O	0.294024	0.345489	0.481474
	H328	H	0.298409	0.334513	0.472845
	H329	H	0.290036	0.370087	0.468739
	O330	O	0.871257	0.009305	0.930515
	H331	H	0.844636	0.009736	0.924465
	H332	H	0.881971	0.008165	0.940458
	O333	O	1.562964	1.588142	0.558560
	H334	H	1.576149	1.605674	0.562265
	H335	H	1.563158	1.590490	0.561850
	O336	O	0.494849	0.455406	0.345157
	H337	H	0.493139	0.449857	0.348080
	H338	H	0.482002	0.449805	0.348980
	O339	O	1.176605	-0.044091	1.137032
	H340	H	1.184118	-0.046864	1.116303
	H341	H	1.177483	-0.040688	1.150867
	O342	O	-0.062038	0.871843	0.996076
	H343	H	-0.082104	0.878569	0.988542
	H344	H	-0.054788	0.864913	0.988490
	O345	O	0.528779	0.694736	1.536184
	H346	H	0.505589	0.694294	1.521653
	H347	H	0.545326	0.691224	1.529354
	O348	O	0.427194	0.706129	0.339034
	H349	H	0.449740	0.711515	0.342132
	H350	H	0.433722	0.712034	0.343678
	O351	O	0.137531	0.020286	-0.076369
	H352	H	0.140580	0.033889	-0.061338
	H353	H	0.139596	0.011087	-0.090146
	O354	O	0.813347	1.033376	0.048216
	H355	H	0.808724	1.034660	0.057172
	H356	H	0.808039	1.025592	0.039836
	O357	O	-0.138007	0.815977	0.115712
	H358	H	-0.138993	0.794021	0.121558
	H359	H	-0.130023	0.812276	0.092869
	O360	O	0.504793	0.315759	0.326091
	H361	H	0.495498	0.308877	0.329519
	H362	H	0.516761	0.306608	0.321320
	O363	O	0.548162	0.660743	0.430788
	H364	H	0.547401	0.642170	0.426348
	H365	H	0.559998	0.659185	0.442537
	O366	O	0.037897	1.135534	-0.100067
	H367	H	0.045434	1.142408	-0.100176
	H368	H	0.042639	1.132092	-0.103670
	O369	O	0.494106	0.578010	0.676929
	H370	H	0.489024	0.573276	0.661023
	H371	H	0.487529	0.578978	0.683734
	O372	O	0.401132	0.396698	0.444242
	H373	H	0.393141	0.404343	0.445160
	H374	H	0.409807	0.394725	0.442772
	O375	O	0.581704	0.533919	0.514010
	H376	H	0.576448	0.526866	0.497601
	H377	H	0.575634	0.530552	0.514083
	O378	O	0.552477	0.519434	0.359919
	H379	H	0.567415	0.502562	0.361324
	H380	H	0.554207	0.506745	0.365464
	O381	O	0.423106	0.251955	0.279976
	H382	H	0.412309	0.234489	0.265981
	H383	H	0.430005	0.263707	0.305364
	O384	O	0.113045	0.930140	0.803535
	H385	H	0.122563	0.926676	0.787003
	H386	H	0.113730	0.931339	0.814527
	O387	O	1.040383	0.981144	0.051492
	H388	H	1.042206	0.982292	0.048553
	H389	H	1.050312	0.977742	0.047563
	O390	O	0.324671	0.371551	0.501900
	H391	H	0.315346	0.385485	0.495458
	H392	H	0.318272	0.374711	0.497746
	O393	O	0.868998	-0.135680	1.184823
	H394	H	0.861193	-0.146490	1.192930
	H395	H	0.867398	-0.151085	1.186035
	O396	O	-0.140124	1.136205	1.019344
	H397	H	-0.137343	1.122963	1.019137
	H398	H	-0.130639	1.146529	1.037734
	O399	O	0.468436	0.318241	1.686971
	H400	H	0.448442	0.320436	1.692495
	H401	H	0.452745	0.304228	1.706609
	O402	O	0.901151	0.064162	1.061768
	H403	H	0.919624	0.052846	1.066805
	H404	H	0.899225	0.056163	1.076482
	O405	O	-0.652687	0.673532	-0.679433
	H406	H	-0.626535	0.678283	-0.682306
	H407	H	-0.666708	0.686964	-0.705907
	O408	O	0.902245	0.910819	1.129778
	H409	H	0.897421	0.902432	1.115173
	H410	H	0.906378	0.900806	1.125537
	O411	O	0.818361	0.963871	-1.102076
	H412	H	0.804002	0.951756	-1.103402
	H413	H	0.815515	0.977969	-1.105900
	O414	O	0.401969	-0.408846	1.501328
	H415	H	0.417175	-0.399091	1.496191
	H416	H	0.399340	-0.400698	1.493592
	O417	O	0.286950	0.429503	0.682853
	H418	H	0.268164	0.440597	0.677733
	H419	H	0.280547	0.434815	0.679067
	O420	O	0.029302	1.088055	-0.035459
	H421	H	0.018416	1.097458	-0.007302
	H422	H	0.047461	1.080970	-0.031717
	O423	O	0.913800	0.132898	0.032094
	H424	H	0.923423	0.141980	0.039012
	H425	H	0.900389	0.126258	0.031409
	O426	O	0.607899	0.419285	1.420436
	H427	H	0.604993	0.413783	1.436587
	H428	H	0.619635	0.420219	1.421595
	O429	O	0.349596	0.316164	0.582611
	H430	H	0.350472	0.328467	0.579295
	H431	H	0.347834	0.324288	0.562778
