data_Molecule from HDF5

_cell_length_a		16.362504
_cell_length_b		16.293134
_cell_length_c		16.350474
_cell_angle_alpha	89.799373
_cell_angle_beta	89.747786
_cell_angle_gamma	89.666798
_symmetry_space_group_name_H-M	'P 1'
_symmetry_Int_Tables_number		1

loop_
	_symmetry_equiv_pos_as_xyz
	x,y,z

loop_
	_atom_site_label
	_atom_site_type_symbol
	_atom_site_fract_x
	_atom_site_fract_y
	_atom_site_fract_z
	H0	H	0.376099	0.836909	0.717754
	H1	H	0.580405	0.160834	0.712111
	H2	H	0.587715	0.837463	0.276506
	H3	H	0.375825	0.158320	0.275245
	H4	H	0.703292	0.395438	0.835465
	H5	H	0.698222	0.601250	0.157807
	H6	H	0.261406	0.606376	0.836776
	H7	H	0.264564	0.394100	0.157459
	H8	H	0.820799	0.717177	0.393729
	H9	H	0.141142	0.718450	0.601482
	H10	H	0.818531	0.282652	0.600793
	H11	H	0.140880	0.278323	0.396719
	H12	H	0.821358	0.395447	0.718730
	H13	H	0.142773	0.600679	0.715209
	H14	H	0.821761	0.603450	0.276918
	H15	H	0.141635	0.393055	0.278739
	H16	H	0.380117	0.717539	0.835262
	H17	H	0.585562	0.717407	0.155162
	H18	H	0.586626	0.279829	0.834302
	H19	H	0.382987	0.280882	0.157410
	H20	H	0.704296	0.838615	0.391575
	H21	H	0.696043	0.160963	0.596226
	H22	H	0.261371	0.836362	0.600436
	H23	H	0.259700	0.158436	0.391506
	H24	H	0.881551	0.336081	0.214143
	H25	H	0.082976	0.659669	0.215333
	H26	H	0.088191	0.336127	0.777867
	H27	H	0.878941	0.659355	0.777261
	H28	H	0.202298	0.891620	0.337397
	H29	H	0.199749	0.102024	0.656929
	H30	H	0.764528	0.102259	0.335823
	H31	H	0.760716	0.895424	0.656432
	H32	H	0.321975	0.220442	0.892462
	H33	H	0.643501	0.213053	0.096257
	H34	H	0.322474	0.777459	0.101196
	H35	H	0.642548	0.780308	0.891802
	H36	H	0.322730	0.890462	0.219599
	H37	H	0.641968	0.100230	0.214184
	H38	H	0.319665	0.105099	0.777420
	H39	H	0.640916	0.894888	0.775070
	H40	H	0.878565	0.217228	0.337142
	H41	H	0.081091	0.214573	0.658344
	H42	H	0.085459	0.778246	0.336690
	H43	H	0.875135	0.777799	0.656887
	H44	H	0.204444	0.337410	0.893332
	H45	H	0.200734	0.659501	0.100433
	H46	H	0.763981	0.337891	0.099210
	H47	H	0.763417	0.660656	0.893879
	H48	H	0.393229	0.110262	0.585985
	H49	H	0.565060	0.885768	0.588012
	H50	H	0.577898	0.116904	0.402266
	H51	H	0.386091	0.882618	0.409350
	H52	H	0.571622	0.404700	0.110741
	H53	H	0.573895	0.590900	0.880328
	H54	H	0.389299	0.590107	0.112073
	H55	H	0.394523	0.409681	0.881669
	H56	H	0.097833	0.595218	0.409043
	H57	H	0.868557	0.589214	0.584029
	H58	H	0.096097	0.407436	0.589071
	H59	H	0.863462	0.401683	0.406458
	H60	H	0.095956	0.403488	0.587494
	H61	H	0.869061	0.582376	0.587376
	H62	H	0.091031	0.581780	0.414417
	H63	H	0.868725	0.410793	0.411232
	H64	H	0.391382	0.584181	0.109067
	H65	H	0.575791	0.586762	0.880799
	H66	H	0.574975	0.404769	0.110754
	H67	H	0.393291	0.409835	0.881399
	H68	H	0.563976	0.112997	0.399484
	H69	H	0.572897	0.884783	0.579334
	H70	H	0.386254	0.111661	0.581525
	H71	H	0.395556	0.882183	0.402481
	H72	H	0.885990	0.617505	0.095003
	H73	H	0.081642	0.378941	0.092190
	H74	H	0.072086	0.611318	0.909696
	H75	H	0.893717	0.385361	0.911883
	H76	H	0.070911	0.910780	0.610035
	H77	H	0.070746	0.083646	0.384284
	H78	H	0.885700	0.090893	0.613426
	H79	H	0.893529	0.895609	0.379084
	H80	H	0.595801	0.087665	0.902039
	H81	H	0.369232	0.083122	0.086429
	H82	H	0.596870	0.906991	0.089034
	H83	H	0.367972	0.914723	0.903661
	H84	H	0.596236	0.906217	0.082752
	H85	H	0.365496	0.091715	0.089049
	H86	H	0.595942	0.088139	0.902037
	H87	H	0.364591	0.903595	0.905135
	H88	H	0.885195	0.087533	0.613686
	H89	H	0.064683	0.090166	0.384212
	H90	H	0.066118	0.909137	0.609369
	H91	H	0.880373	0.914840	0.379566
	H92	H	0.072054	0.612770	0.904760
	H93	H	0.065598	0.384872	0.092491
	H94	H	0.896872	0.612852	0.089663
	H95	H	0.890651	0.383223	0.907740
	H96	H	0.386547	0.114329	0.589440
	H97	H	0.576313	0.880811	0.589799
	H98	H	0.569835	0.110587	0.412530
	H99	H	0.395816	0.887121	0.413246
	H100	H	0.573696	0.407082	0.110112
	H101	H	0.571320	0.586421	0.882108
	H102	H	0.395812	0.588565	0.109604
	H103	H	0.393944	0.410985	0.882591
	H104	H	0.096413	0.583141	0.398866
	H105	H	0.865974	0.588366	0.591456
	H106	H	0.095154	0.406007	0.584845
	H107	H	0.865202	0.412214	0.400107
	H108	H	0.885464	0.614106	0.083081
	H109	H	0.074903	0.386713	0.078430
	H110	H	0.068581	0.610831	0.907202
	H111	H	0.895802	0.384693	0.907284
	H112	H	0.069223	0.906287	0.610947
	H113	H	0.072958	0.091310	0.380921
	H114	H	0.888214	0.088714	0.611842
	H115	H	0.902451	0.915132	0.388498
	H116	H	0.596325	0.088031	0.902777
	H117	H	0.368665	0.090215	0.079984
	H118	H	0.593950	0.912531	0.085312
	H119	H	0.369377	0.909125	0.914009
	C120	C	0.357614	0.006045	0.618225
	C121	C	0.601092	0.990733	0.616236
	C122	C	0.602945	0.007018	0.374097
	C123	C	0.360108	0.989774	0.375618
	C124	C	0.605027	0.375366	0.004500
	C125	C	0.603688	0.619180	0.987474
	C126	C	0.360451	0.620572	0.004701
	C127	C	0.362959	0.378289	0.988108
	C128	C	-0.010279	0.619189	0.375712
	C129	C	0.973580	0.618823	0.618577
	C130	C	-0.010555	0.375489	0.619193
	C131	C	0.972004	0.376333	0.375852
	C132	C	0.859771	0.507669	0.119325
	C133	C	0.103828	0.490031	0.118446
	C134	C	0.103635	0.505686	0.875635
	C135	C	0.861651	0.490729	0.876647
	C136	C	0.101523	0.876268	0.504911
	C137	C	0.100781	0.119113	0.488806
	C138	C	0.857851	0.120129	0.506153
	C139	C	0.859375	0.876509	0.487743
	C140	C	0.489957	0.120712	0.872725
	C141	C	0.473624	0.118451	0.116105
	C142	C	0.490437	0.875731	0.118496
	C143	C	0.473038	0.877821	0.875100
	C144	C	0.357398	0.885229	0.677980
	C145	C	0.599975	0.112350	0.673444
	C146	C	0.605893	0.885996	0.315853
	C147	C	0.357692	0.110240	0.315164
	C148	C	0.664108	0.375842	0.883626
	C149	C	0.660350	0.619898	0.108975
	C150	C	0.301118	0.623827	0.884877
	C151	C	0.304272	0.376372	0.109202
	C152	C	0.868916	0.678135	0.374973
	C153	C	0.093540	0.678434	0.619738
	C154	C	0.867654	0.319770	0.620394
	C155	C	0.093020	0.317629	0.376905
	C156	C	0.869079	0.375996	0.678945
	C157	C	0.094180	0.620237	0.676926
	C158	C	0.869384	0.621359	0.316862
	C159	C	0.093358	0.374531	0.318120
	C160	C	0.360462	0.679140	0.883753
	C161	C	0.603997	0.677862	0.107774
	C162	C	0.605672	0.318558	0.882957
	C163	C	0.363150	0.319732	0.109322
	C164	C	0.664221	0.886590	0.372881
	C165	C	0.657676	0.112426	0.615791
	C166	C	0.299942	0.884864	0.619749
	C167	C	0.299707	0.110222	0.373003
	C168	C	0.861032	0.385258	0.176066
	C169	C	0.102957	0.611227	0.176515
	C170	C	0.106163	0.384691	0.817156
	C171	C	0.860390	0.611477	0.817007
	C172	C	0.161702	0.874177	0.384855
	C173	C	0.159629	0.119686	0.609228
	C174	C	0.802411	0.120753	0.384251
	C175	C	0.799839	0.875654	0.608340
	C176	C	0.369528	0.180711	0.873196
	C177	C	0.595007	0.174961	0.115569
	C178	C	0.370432	0.816528	0.120216
	C179	C	0.594262	0.819579	0.873570
	C180	C	0.370693	0.873002	0.179211
	C181	C	0.594201	0.118841	0.174297
	C182	C	0.368469	0.123151	0.815843
	C183	C	0.593447	0.876415	0.815169
	C184	C	0.859192	0.178195	0.384982
	C185	C	0.100786	0.176181	0.610035
	C186	C	0.104048	0.817054	0.385011
	C187	C	0.857060	0.817372	0.608570
	C188	C	0.164348	0.385207	0.874513
	C189	C	0.161369	0.611272	0.119180
	C190	C	0.802670	0.385895	0.119032
	C191	C	0.802838	0.612041	0.875118
	C192	C	0.381750	0.090344	0.592884
	C193	C	0.577913	0.905740	0.592449
	C194	C	0.577732	0.091520	0.397968
	C195	C	0.385234	0.905809	0.401041
	C196	C	0.580692	0.398828	0.088683
	C197	C	0.580395	0.595012	0.903107
	C198	C	0.385134	0.595159	0.088417
	C199	C	0.386919	0.403104	0.903813
	C200	C	0.073335	0.593983	0.400404
	C201	C	0.889780	0.593946	0.594400
	C202	C	0.073874	0.398753	0.594158
	C203	C	0.887826	0.400994	0.399217
	C204	C	0.882599	0.592649	0.096113
	C205	C	0.080659	0.405525	0.094531
	C206	C	0.078154	0.589859	0.900170
	C207	C	0.886283	0.406324	0.901780
	C208	C	0.076194	0.901545	0.588658
	C209	C	0.076520	0.095278	0.404811
	C210	C	0.880044	0.096102	0.590900
	C211	C	0.884666	0.901369	0.404298
	C212	C	0.574132	0.095442	0.895569
	C213	C	0.389695	0.095024	0.092180
	C214	C	0.573975	0.900917	0.092915
	C215	C	0.389276	0.902179	0.900316
	Zn216	Zn	0.479965	-0.001121	0.745708
	Zn217	Zn	0.481550	-0.001780	0.245740
	Zn218	Zn	0.732433	0.499212	-0.003130
	Zn219	Zn	0.232906	0.498948	-0.003268
	Zn220	Zn	-0.018859	0.747512	0.496802
	Zn221	Zn	-0.020935	0.247720	0.498133
	Zn222	Zn	-0.017371	0.497358	0.746864
	Zn223	Zn	-0.018181	0.498131	0.247309
	Zn224	Zn	0.482595	0.747908	-0.004523
	Zn225	Zn	0.482461	0.247459	-0.004577
	Zn226	Zn	0.730827	-0.000884	0.496162
	Zn227	Zn	0.229688	-0.002477	0.496215
	N228	N	0.391931	0.961949	0.677516
	N229	N	0.565642	0.035555	0.673801
	N230	N	0.568417	0.961615	0.316594
	N231	N	0.394599	0.034226	0.316555
	N232	N	0.664060	0.410447	0.960257
	N233	N	0.660024	0.583940	0.033054
	N234	N	0.300987	0.588282	0.961174
	N235	N	0.304139	0.412176	0.032812
	N236	N	0.944745	0.677049	0.410659
	N237	N	0.017486	0.677792	0.584278
	N238	N	0.943602	0.319432	0.583892
	N239	N	0.016619	0.318646	0.412162
	N240	N	0.945838	0.409719	0.678367
	N241	N	0.018603	0.583868	0.676212
	N242	N	0.945508	0.585336	0.317172
	N243	N	0.017305	0.410440	0.317505
	N244	N	0.396643	0.677551	0.959463
	N245	N	0.569498	0.677625	0.031376
	N246	N	0.569906	0.317787	0.959123
	N247	N	0.398674	0.320813	0.033041
	N248	N	0.662382	0.962902	0.408548
	N249	N	0.658629	0.035660	0.580926
	N250	N	0.299848	0.961123	0.583467
	N251	N	0.301027	0.034269	0.409676
	N252	N	0.895641	0.462061	0.176474
	N253	N	0.067910	0.534749	0.176198
	N254	N	0.069034	0.460548	0.817902
	N255	N	0.896273	0.535018	0.818036
	N256	N	0.160100	0.910460	0.460600
	N257	N	0.159750	0.084946	0.532708
	N258	N	0.801544	0.085430	0.460636
	N259	N	0.801094	0.911962	0.532382
	N260	N	0.446073	0.179505	0.907606
	N261	N	0.519049	0.174683	0.079968
	N262	N	0.445870	0.818162	0.083203
	N263	N	0.518510	0.820502	0.910265
	N264	N	0.446523	0.908946	0.178320
	N265	N	0.517876	0.084404	0.174836
	N266	N	0.444314	0.086526	0.815314
	N267	N	0.517053	0.912014	0.815933
	N268	N	0.892975	0.177907	0.461809
	N269	N	0.064774	0.175949	0.534279
	N270	N	0.067049	0.818518	0.460605
	N271	N	0.893304	0.817706	0.532658
	N272	N	0.163022	0.461497	0.910197
	N273	N	0.161984	0.534934	0.083802
	N274	N	0.801533	0.462960	0.084720
	N275	N	0.803850	0.536038	0.911920
	O276	O	1.160283	0.185469	0.135151
	H277	H	1.153476	0.187851	0.146274
	H278	H	1.149050	0.187302	0.117491
	O279	O	0.356224	0.361156	0.577768
	H280	H	0.357394	0.360041	0.574016
	H281	H	0.339820	0.370837	0.575888
	O282	O	0.550128	0.496506	0.629328
	H283	H	0.559752	0.498557	0.625714
	H284	H	0.551512	0.491417	0.623045
	O285	O	1.124732	-0.094611	-0.127137
	H286	H	1.132196	-0.089702	-0.123403
	H287	H	1.102514	-0.095760	-0.130519
	O288	O	0.106025	-0.183845	0.961568
	H289	H	0.104477	-0.175966	0.964232
	H290	H	0.123746	-0.190475	0.961217
	O291	O	0.363211	0.349840	0.691422
	H292	H	0.368330	0.326563	0.676415
	H293	H	0.364795	0.378281	0.706925
	O294	O	0.675944	0.664569	0.568176
	H295	H	0.688232	0.655365	0.561027
	H296	H	0.686347	0.652959	0.557246
	O297	O	1.029486	0.992050	0.908422
	H298	H	1.041275	0.987104	0.894479
	H299	H	1.029296	0.997868	0.892293
	O300	O	-0.021172	-0.127894	-0.043262
	H301	H	-0.019220	-0.129564	-0.047310
	H302	H	-0.026235	-0.131430	-0.017764
	O303	O	0.533826	0.587712	0.616587
	H304	H	0.529068	0.588309	0.621086
	H305	H	0.519320	0.590353	0.607364
	O306	O	1.005886	0.095986	0.043876
	H307	H	1.008135	0.096901	0.034057
	H308	H	1.012390	0.095493	0.044160
	O309	O	1.249794	0.762316	0.780932
	H310	H	1.228995	0.754414	0.772813
	H311	H	1.256183	0.766462	0.782839
	O312	O	1.138637	0.971836	-0.208039
	H313	H	1.153367	0.964204	-0.233528
	H314	H	1.146766	0.955844	-0.202731
	O315	O	0.989218	-0.064502	0.079949
	H316	H	1.000208	-0.061914	0.074812
	H317	H	0.989762	-0.070825	0.072476
	O318	O	0.554602	0.569202	0.309746
	H319	H	0.539808	0.567085	0.306493
	H320	H	0.551066	0.572847	0.313359
	O321	O	1.273586	0.534076	1.320778
	H322	H	1.261122	0.532054	1.317179
	H323	H	1.269252	0.527188	1.328219
	O324	O	0.114325	-0.117133	1.080919
	H325	H	0.104892	-0.120485	1.077097
	H326	H	0.108316	-0.111571	1.067972
	O327	O	0.373707	0.309900	0.457644
	H328	H	0.372193	0.298714	0.449848
	H329	H	0.371707	0.331370	0.460092
	O330	O	0.825152	-0.041748	1.024798
	H331	H	0.825038	-0.044143	1.020168
	H332	H	0.832851	-0.051411	1.029092
	O333	O	1.480325	1.525124	0.441984
	H334	H	1.492034	1.528856	0.427862
	H335	H	1.487093	1.530958	0.444670
	O336	O	0.339023	0.416503	0.329259
	H337	H	0.353213	0.425314	0.343961
	H338	H	0.349496	0.414539	0.325705
	O339	O	1.173934	0.016215	1.152997
	H340	H	1.186381	0.027076	1.165284
	H341	H	1.176245	0.022389	1.141507
	O342	O	-0.212794	1.161519	0.950463
	H343	H	-0.212549	1.177111	0.946065
	H344	H	-0.214798	1.147723	0.947878
	O345	O	0.540692	0.638796	1.671020
	H346	H	0.550788	0.644152	1.663919
	H347	H	0.538067	0.635516	1.684199
	O348	O	0.451650	0.689158	0.364453
	H349	H	0.441651	0.682575	0.374538
	H350	H	0.449350	0.700061	0.339580
	O351	O	-0.086349	-0.119251	0.066721
	H352	H	-0.084425	-0.120418	0.069157
	H353	H	-0.094728	-0.125416	0.066416
	O354	O	1.002031	1.059831	-0.034680
	H355	H	1.000187	1.064735	-0.045802
	H356	H	1.003063	1.080304	-0.029616
	O357	O	-0.090707	0.861195	-0.130261
	H358	H	-0.098813	0.861513	-0.136004
	H359	H	-0.086958	0.854659	-0.111421
	O360	O	0.496449	0.357635	0.390999
	H361	H	0.508433	0.342678	0.388265
	H362	H	0.493791	0.355815	0.390401
	O363	O	0.301999	0.647659	0.437048
	H364	H	0.307495	0.664858	0.445815
	H365	H	0.297226	0.662452	0.418441
	O366	O	0.103751	1.126105	0.004339
	H367	H	0.127248	1.125160	0.001882
	H368	H	0.097661	1.123682	0.009593
	O369	O	0.432005	0.534255	0.587369
	H370	H	0.449199	0.546301	0.592984
	H371	H	0.430157	0.560500	0.592787
	O372	O	0.508532	0.338527	0.341663
	H373	H	0.503318	0.337911	0.337480
	H374	H	0.518246	0.326420	0.340636
	O375	O	0.614915	0.343577	0.373365
	H376	H	0.600966	0.348388	0.377615
	H377	H	0.619829	0.334505	0.366428
	O378	O	0.457738	0.549837	0.547110
	H379	H	0.458799	0.552330	0.551203
	H380	H	0.470866	0.564690	0.547974
	O381	O	0.659345	0.397865	0.421016
	H382	H	0.666390	0.389414	0.422421
	H383	H	0.644172	0.400839	0.412519
	O384	O	-0.086483	1.063630	0.845289
	H385	H	-0.078669	1.063520	0.846492
	H386	H	-0.087162	1.061895	0.844599
	O387	O	0.973210	1.097657	0.190112
	H388	H	0.979584	1.098311	0.188237
	H389	H	0.969788	1.079062	0.186825
	O390	O	0.676133	0.442788	0.379475
	H391	H	0.676842	0.440127	0.364384
	H392	H	0.678923	0.438596	0.384026
	O393	O	0.879455	0.006123	1.102854
	H394	H	0.885896	0.017875	1.092388
	H395	H	0.891193	0.000836	1.106611
	O396	O	-0.213718	1.070506	0.833644
	H397	H	-0.215989	1.079003	0.833407
	H398	H	-0.220076	1.078074	0.832747
	O399	O	0.565963	0.660674	1.451177
	H400	H	0.561838	0.671825	1.439909
	H401	H	0.583383	0.650111	1.446423
	O402	O	0.934107	0.000782	0.919103
	H403	H	0.937215	0.010539	0.922165
	H404	H	0.921343	0.002901	0.924392
	O405	O	-0.714196	0.452059	-0.571623
	H406	H	-0.725849	0.452774	-0.587503
	H407	H	-0.700214	0.444507	-0.583724
	O408	O	0.994585	1.154732	0.971462
	H409	H	1.001667	1.160918	0.959255
	H410	H	0.992252	1.156769	0.976947
	O411	O	0.922308	1.166377	-1.145097
	H412	H	0.928164	1.163472	-1.151926
	H413	H	0.937958	1.176615	-1.136620
	O414	O	0.418893	-0.393885	1.552972
	H415	H	0.428672	-0.397186	1.550771
	H416	H	0.444251	-0.380974	1.567700
	O417	O	0.361036	0.499440	0.564799
	H418	H	0.350428	0.487275	0.569612
	H419	H	0.359588	0.483150	0.574436
	O420	O	-0.038755	0.909145	0.185615
	H421	H	-0.037222	0.898288	0.199482
	H422	H	-0.041096	0.907499	0.179008
	O423	O	0.819976	-0.059390	0.151043
	H424	H	0.818426	-0.071181	0.136671
	H425	H	0.823480	-0.069640	0.159008
	O426	O	0.643613	0.467683	1.489726
	H427	H	0.650781	0.453769	1.488620
	H428	H	0.642829	0.465811	1.475241
	O429	O	0.447355	0.338555	0.639781
	H430	H	0.453135	0.326788	0.646085
	H431	H	0.453191	0.336476	0.621145
