data_Molecule from HDF5

_cell_length_a		16.209989
_cell_length_b		16.216563
_cell_length_c		16.331349
_cell_angle_alpha	89.958843
_cell_angle_beta	89.922387
_cell_angle_gamma	90.245168
_symmetry_space_group_name_H-M	'P 1'
_symmetry_Int_Tables_number		1

loop_
	_symmetry_equiv_pos_as_xyz
	x,y,z

loop_
	_atom_site_label
	_atom_site_type_symbol
	_atom_site_fract_x
	_atom_site_fract_y
	_atom_site_fract_z
	H0	H	0.405269	0.831940	0.706848
	H1	H	0.605655	0.159088	0.705499
	H2	H	0.604701	0.831274	0.275391
	H3	H	0.407561	0.159031	0.277055
	H4	H	0.719706	0.398780	0.828526
	H5	H	0.719917	0.592487	0.156022
	H6	H	0.293277	0.591350	0.828073
	H7	H	0.290671	0.396233	0.155145
	H8	H	0.840260	0.708404	0.395021
	H9	H	0.170653	0.708991	0.588644
	H10	H	0.841868	0.279759	0.589777
	H11	H	0.170784	0.283288	0.394473
	H12	H	0.841835	0.395285	0.705972
	H13	H	0.170183	0.596052	0.706168
	H14	H	0.840581	0.592339	0.278209
	H15	H	0.169878	0.396047	0.276994
	H16	H	0.409152	0.707892	0.827804
	H17	H	0.604334	0.710522	0.155635
	H18	H	0.603094	0.282741	0.827913
	H19	H	0.406752	0.280050	0.154897
	H20	H	0.719045	0.829948	0.393314
	H21	H	0.718769	0.159930	0.587831
	H22	H	0.292809	0.830662	0.587926
	H23	H	0.294452	0.159614	0.394640
	H24	H	0.904261	0.330548	0.207648
	H25	H	0.105827	0.658643	0.206259
	H26	H	0.105431	0.331453	0.775919
	H27	H	0.908579	0.659009	0.778041
	H28	H	0.218138	0.898760	0.327899
	H29	H	0.219650	0.092826	0.655286
	H30	H	0.790986	0.094103	0.327798
	H31	H	0.789813	0.896061	0.655345
	H32	H	0.340852	0.208064	0.894335
	H33	H	0.670031	0.209459	0.087892
	H34	H	0.340348	0.781693	0.088521
	H35	H	0.670008	0.782893	0.893575
	H36	H	0.341605	0.894908	0.205745
	H37	H	0.668865	0.097355	0.206610
	H38	H	0.341728	0.094313	0.776897
	H39	H	0.669950	0.897719	0.776753
	H40	H	0.909379	0.208943	0.327550
	H41	H	0.103157	0.208455	0.655341
	H42	H	0.103601	0.781192	0.328658
	H43	H	0.906132	0.779744	0.655576
	H44	H	0.219157	0.330481	0.893059
	H45	H	0.218610	0.659004	0.087883
	H46	H	0.790914	0.329607	0.089763
	H47	H	0.794424	0.659637	0.895606
	H48	H	0.413406	0.111735	0.580824
	H49	H	0.592196	0.880612	0.581739
	H50	H	0.590296	0.110366	0.392343
	H51	H	0.415505	0.879188	0.402318
	H52	H	0.600276	0.399974	0.109348
	H53	H	0.594037	0.595301	0.875616
	H54	H	0.427630	0.577897	0.100643
	H55	H	0.413097	0.403891	0.876038
	H56	H	0.122420	0.588060	0.397280
	H57	H	0.890278	0.583466	0.582635
	H58	H	0.123689	0.396300	0.580092
	H59	H	0.885983	0.396147	0.395236
	H60	H	0.120513	0.409779	0.581181
	H61	H	0.887566	0.586146	0.590875
	H62	H	0.122446	0.589192	0.398011
	H63	H	0.891009	0.401751	0.406675
	H64	H	0.414158	0.608501	0.113536
	H65	H	0.607581	0.592447	0.872546
	H66	H	0.599709	0.405842	0.108063
	H67	H	0.413693	0.398983	0.875001
	H68	H	0.598934	0.108935	0.406924
	H69	H	0.602934	0.877068	0.581678
	H70	H	0.408398	0.115314	0.586831
	H71	H	0.405947	0.875922	0.397855
	H72	H	0.918775	0.611629	0.091995
	H73	H	0.091244	0.382767	0.072234
	H74	H	0.103893	0.614983	0.893274
	H75	H	0.906710	0.376748	0.902707
	H76	H	0.104197	0.911492	0.607303
	H77	H	0.107301	0.091570	0.372311
	H78	H	0.906381	0.083302	0.607416
	H79	H	0.917919	0.895688	0.375392
	H80	H	0.624048	0.089790	0.895798
	H81	H	0.385061	0.089988	0.091660
	H82	H	0.623236	0.903475	0.086603
	H83	H	0.389665	0.908637	0.896551
	H84	H	0.622757	0.901679	0.080785
	H85	H	0.388907	0.092202	0.078224
	H86	H	0.623914	0.090197	0.897570
	H87	H	0.385054	0.897580	0.892635
	H88	H	0.918989	0.084895	0.604521
	H89	H	0.099261	0.084006	0.377359
	H90	H	0.089162	0.900333	0.606001
	H91	H	0.905570	0.901107	0.374355
	H92	H	0.092120	0.610277	0.896048
	H93	H	0.111492	0.373272	0.085668
	H94	H	0.916538	0.608021	0.078856
	H95	H	0.910806	0.374715	0.890317
	H96	H	0.416572	0.112811	0.588908
	H97	H	0.596847	0.876382	0.590725
	H98	H	0.606863	0.115848	0.393204
	H99	H	0.415087	0.876710	0.391535
	H100	H	0.594831	0.401864	0.107097
	H101	H	0.599455	0.581903	0.878084
	H102	H	0.393889	0.579395	0.111281
	H103	H	0.408864	0.400942	0.873990
	H104	H	0.122233	0.588023	0.398631
	H105	H	0.888258	0.592271	0.583874
	H106	H	0.126151	0.402838	0.592064
	H107	H	0.889980	0.409347	0.395497
	H108	H	0.906422	0.613617	0.086578
	H109	H	0.088583	0.376181	0.097405
	H110	H	0.100932	0.610783	0.904507
	H111	H	0.919659	0.379343	0.899580
	H112	H	0.105159	0.893403	0.612548
	H113	H	0.096207	0.095304	0.374255
	H114	H	0.912087	0.094654	0.609581
	H115	H	0.915563	0.908787	0.379411
	H116	H	0.622883	0.088580	0.897421
	H117	H	0.390368	0.079259	0.083931
	H118	H	0.621417	0.907579	0.082950
	H119	H	0.389530	0.899077	0.904148
	C120	C	0.384405	0.004503	0.613133
	C121	C	0.626396	0.986617	0.612458
	C122	C	0.627530	0.003275	0.368920
	C123	C	0.384273	0.986153	0.369417
	C124	C	0.626989	0.374098	0.000209
	C125	C	0.628758	0.618189	0.983778
	C126	C	0.384393	0.616285	-0.000145
	C127	C	0.383324	0.372846	0.983254
	C128	C	0.013441	0.616786	0.370038
	C129	C	0.997680	0.616130	0.613135
	C130	C	0.014640	0.373498	0.613312
	C131	C	0.997528	0.374334	0.370618
	C132	C	0.884397	0.502645	0.113818
	C133	C	0.126363	0.485835	0.113274
	C134	C	0.127642	0.503516	0.869478
	C135	C	0.884968	0.485815	0.869729
	C136	C	0.127297	0.873892	0.500316
	C137	C	0.128505	0.117462	0.483094
	C138	C	0.884333	0.116468	0.499393
	C139	C	0.883764	0.872698	0.484125
	C140	C	0.514326	0.117045	0.869750
	C141	C	0.496943	0.116631	0.112597
	C142	C	0.513854	0.874476	0.112385
	C143	C	0.497220	0.874152	0.869859
	C144	C	0.385734	0.880747	0.668343
	C145	C	0.625309	0.110317	0.667320
	C146	C	0.625103	0.880015	0.313563
	C147	C	0.387343	0.109960	0.314604
	C148	C	0.681914	0.377539	0.877104
	C149	C	0.682809	0.614128	0.106996
	C150	C	0.330433	0.612655	0.876785
	C151	C	0.328280	0.375522	0.106278
	C152	C	0.889444	0.670984	0.373788
	C153	C	0.121644	0.671107	0.609307
	C154	C	0.890780	0.317851	0.610468
	C155	C	0.121621	0.320418	0.373634
	C156	C	0.890897	0.375577	0.667909
	C157	C	0.121326	0.614902	0.667702
	C158	C	0.889813	0.613776	0.315357
	C159	C	0.121230	0.376627	0.315457
	C160	C	0.387987	0.670697	0.876884
	C161	C	0.625004	0.672473	0.106870
	C162	C	0.624307	0.319679	0.877043
	C163	C	0.386028	0.317970	0.106290
	C164	C	0.681526	0.879314	0.372225
	C165	C	0.681519	0.110572	0.608862
	C166	C	0.330004	0.879973	0.609368
	C167	C	0.331066	0.110362	0.373080
	C168	C	0.884880	0.379333	0.169372
	C169	C	0.125410	0.609473	0.168505
	C170	C	0.125501	0.380009	0.814266
	C171	C	0.887968	0.609914	0.815549
	C172	C	0.180916	0.877652	0.376840
	C173	C	0.182519	0.114011	0.606344
	C174	C	0.829392	0.114264	0.376407
	C175	C	0.827963	0.875611	0.606780
	C176	C	0.390243	0.171051	0.873152
	C177	C	0.620739	0.171924	0.109235
	C178	C	0.389785	0.818830	0.109597
	C179	C	0.620922	0.820045	0.872743
	C180	C	0.390434	0.874927	0.167907
	C181	C	0.620026	0.116279	0.168132
	C182	C	0.390596	0.114423	0.815085
	C183	C	0.621026	0.877419	0.815002
	C184	C	0.887829	0.171574	0.376357
	C185	C	0.124470	0.171361	0.606531
	C186	C	0.124264	0.818916	0.377367
	C187	C	0.885971	0.818074	0.607088
	C188	C	0.182076	0.379650	0.872528
	C189	C	0.181536	0.609774	0.109890
	C190	C	0.829002	0.378699	0.110300
	C191	C	0.831309	0.610322	0.873774
	C192	C	0.406264	0.090859	0.591647
	C193	C	0.603970	0.900259	0.591058
	C194	C	0.605339	0.089512	0.391044
	C195	C	0.405800	0.899721	0.391019
	C196	C	0.604648	0.396051	0.085993
	C197	C	0.606890	0.596234	0.897684
	C198	C	0.405602	0.594938	0.086212
	C199	C	0.405332	0.394663	0.897174
	C200	C	0.099988	0.595026	0.391588
	C201	C	0.910991	0.593995	0.591908
	C202	C	0.101027	0.396246	0.591105
	C203	C	0.911148	0.396018	0.392613
	C204	C	0.907040	0.588832	0.092050
	C205	C	0.103763	0.399751	0.091477
	C206	C	0.105648	0.589726	0.891606
	C207	C	0.906123	0.399368	0.891094
	C208	C	0.105830	0.895449	0.586312
	C209	C	0.107442	0.096433	0.397037
	C210	C	0.906026	0.094240	0.584931
	C211	C	0.906504	0.895103	0.398431
	C212	C	0.601208	0.095905	0.890734
	C213	C	0.410504	0.093862	0.090870
	C214	C	0.600140	0.897477	0.089995
	C215	C	0.410453	0.895494	0.891436
	Zn216	Zn	0.505553	-0.004189	0.741347
	Zn217	Zn	0.505514	-0.005105	0.240703
	Zn218	Zn	0.756827	0.494918	-0.008168
	Zn219	Zn	0.254632	0.494577	-0.008384
	Zn220	Zn	0.005740	0.744784	0.492446
	Zn221	Zn	0.006659	0.245820	0.491239
	Zn222	Zn	0.006633	0.495082	0.741378
	Zn223	Zn	0.005670	0.494257	0.241952
	Zn224	Zn	0.505737	0.746279	-0.008211
	Zn225	Zn	0.505568	0.245023	-0.008621
	Zn226	Zn	0.754974	-0.005301	0.491168
	Zn227	Zn	0.256813	-0.004552	0.491570
	N228	N	0.419033	0.958845	0.670583
	N229	N	0.591395	0.032396	0.669440
	N230	N	0.592412	0.958220	0.311228
	N231	N	0.419771	0.031713	0.312209
	N232	N	0.683755	0.410500	0.954619
	N233	N	0.685333	0.581241	0.029284
	N234	N	0.327813	0.579774	0.954482
	N235	N	0.326627	0.408942	0.028759
	N236	N	0.967375	0.672922	0.406934
	N237	N	0.043637	0.671808	0.576126
	N238	N	0.968740	0.316401	0.577231
	N239	N	0.043775	0.318805	0.407311
	N240	N	0.968948	0.409630	0.669512
	N241	N	0.043313	0.581269	0.670114
	N242	N	0.967878	0.580829	0.312999
	N243	N	0.043146	0.409459	0.313585
	N244	N	0.421006	0.672821	0.954479
	N245	N	0.592520	0.675123	0.029186
	N246	N	0.590651	0.317728	0.954546
	N247	N	0.419395	0.316041	0.028866
	N248	N	0.683213	0.957013	0.405789
	N249	N	0.682305	0.032760	0.575375
	N250	N	0.329062	0.957680	0.575684
	N251	N	0.329147	0.032564	0.406416
	N252	N	0.918738	0.457181	0.171386
	N253	N	0.091511	0.531418	0.170417
	N254	N	0.092504	0.457830	0.812425
	N255	N	0.920451	0.531659	0.812860
	N256	N	0.182982	0.911028	0.454222
	N257	N	0.185031	0.081144	0.528726
	N258	N	0.826991	0.080838	0.453807
	N259	N	0.826580	0.908936	0.529203
	N260	N	0.468110	0.172980	0.906316
	N261	N	0.543167	0.172163	0.075338
	N262	N	0.467738	0.818250	0.075888
	N263	N	0.543084	0.817965	0.906091
	N264	N	0.468395	0.908802	0.169561
	N265	N	0.541955	0.082397	0.170429
	N266	N	0.468824	0.081618	0.812717
	N267	N	0.542885	0.910220	0.813068
	N268	N	0.921579	0.173096	0.453656
	N269	N	0.091565	0.173606	0.528981
	N270	N	0.091537	0.816507	0.455101
	N271	N	0.919779	0.816209	0.529794
	N272	N	0.183373	0.457431	0.906342
	N273	N	0.182260	0.532201	0.076015
	N274	N	0.828484	0.456490	0.076400
	N275	N	0.829169	0.532334	0.906876
	O276	O	0.882577	-0.087522	1.108657
	H277	H	0.889382	-0.091378	1.113285
	H278	H	0.880036	-0.088072	1.114762
	O279	O	-0.081329	0.929403	1.125501
	H280	H	-0.082336	0.926510	1.122748
	H281	H	-0.083904	0.928570	1.120672
	O282	O	0.919454	0.919116	0.109968
	H283	H	0.915419	0.914833	0.116911
	H284	H	0.918292	0.926082	0.121631
	O285	O	-0.086232	0.924933	1.088743
	H286	H	-0.095624	0.925878	1.087941
	H287	H	-0.085159	0.918481	1.087356
