data_Molecule from HDF5

_cell_length_a		16.269052
_cell_length_b		16.330149
_cell_length_c		16.174485
_cell_angle_alpha	89.940745
_cell_angle_beta	90.081255
_cell_angle_gamma	89.580222
_symmetry_space_group_name_H-M	'P 1'
_symmetry_Int_Tables_number		1

loop_
	_symmetry_equiv_pos_as_xyz
	x,y,z

loop_
	_atom_site_label
	_atom_site_type_symbol
	_atom_site_fract_x
	_atom_site_fract_y
	_atom_site_fract_z
	H0	H	0.404150	0.842469	0.721331
	H1	H	0.597550	0.170307	0.722070
	H2	H	0.599326	0.842810	0.294944
	H3	H	0.401618	0.170230	0.293480
	H4	H	0.715559	0.405980	0.844328
	H5	H	0.712526	0.602478	0.173265
	H6	H	0.285728	0.604949	0.843386
	H7	H	0.288126	0.409943	0.173219
	H8	H	0.837310	0.724836	0.406729
	H9	H	0.163681	0.722109	0.608021
	H10	H	0.837054	0.292652	0.608652
	H11	H	0.163637	0.291351	0.408651
	H12	H	0.836754	0.411203	0.721454
	H13	H	0.165355	0.603920	0.721250
	H14	H	0.836526	0.606520	0.294425
	H15	H	0.165087	0.409570	0.296022
	H16	H	0.399493	0.721365	0.843829
	H17	H	0.597482	0.718198	0.172923
	H18	H	0.599742	0.291404	0.843800
	H19	H	0.401268	0.292483	0.172430
	H20	H	0.717887	0.845111	0.408212
	H21	H	0.713707	0.170979	0.606734
	H22	H	0.286150	0.843653	0.606963
	H23	H	0.283975	0.170210	0.408128
	H24	H	0.903945	0.344674	0.223623
	H25	H	0.096764	0.670715	0.221907
	H26	H	0.101447	0.344128	0.792924
	H27	H	0.902030	0.671582	0.794717
	H28	H	0.214334	0.908585	0.342521
	H29	H	0.212975	0.104335	0.672220
	H30	H	0.784788	0.108520	0.342495
	H31	H	0.789075	0.912028	0.672486
	H32	H	0.337068	0.223787	0.908134
	H33	H	0.663093	0.220494	0.109388
	H34	H	0.336638	0.792580	0.108202
	H35	H	0.663068	0.788683	0.908664
	H36	H	0.336490	0.909020	0.222504
	H37	H	0.664637	0.100824	0.220080
	H38	H	0.335661	0.105792	0.794243
	H39	H	0.665768	0.908628	0.796297
	H40	H	0.900190	0.224323	0.343339
	H41	H	0.098883	0.220314	0.672122
	H42	H	0.099733	0.791897	0.343461
	H43	H	0.901749	0.794313	0.671608
	H44	H	0.216186	0.343918	0.910302
	H45	H	0.214075	0.670079	0.107246
	H46	H	0.788390	0.343240	0.107964
	H47	H	0.782358	0.669406	0.909105
	H48	H	0.411751	0.121514	0.602246
	H49	H	0.591803	0.890414	0.606082
	H50	H	0.587511	0.120341	0.419242
	H51	H	0.411950	0.889247	0.407545
	H52	H	0.585822	0.416734	0.122027
	H53	H	0.589268	0.600494	0.890690
	H54	H	0.407894	0.600905	0.125235
	H55	H	0.406974	0.409991	0.888606
	H56	H	0.116187	0.594421	0.413863
	H57	H	0.886139	0.603493	0.592339
	H58	H	0.119485	0.409813	0.605625
	H59	H	0.888484	0.423723	0.424624
	H60	H	0.116340	0.409398	0.594460
	H61	H	0.885036	0.594083	0.603602
	H62	H	0.119229	0.604642	0.412076
	H63	H	0.881589	0.419289	0.404368
	H64	H	0.405620	0.600415	0.125947
	H65	H	0.594494	0.598231	0.889906
	H66	H	0.593608	0.402785	0.128483
	H67	H	0.404271	0.418363	0.891012
	H68	H	0.599084	0.124671	0.416472
	H69	H	0.593811	0.892787	0.595769
	H70	H	0.403633	0.122058	0.595410
	H71	H	0.411164	0.894235	0.422653
	H72	H	0.904795	0.623327	0.099985
	H73	H	0.096570	0.387280	0.111092
	H74	H	0.088778	0.622983	0.913923
	H75	H	0.905275	0.391172	0.917188
	H76	H	0.100162	0.911267	0.627272
	H77	H	0.092962	0.099409	0.390159
	H78	H	0.912076	0.095947	0.621340
	H79	H	0.905080	0.901574	0.384879
	H80	H	0.614089	0.092608	0.918306
	H81	H	0.381155	0.104927	0.104086
	H82	H	0.616934	0.907484	0.097210
	H83	H	0.385680	0.919260	0.916567
	H84	H	0.615275	0.915253	0.100927
	H85	H	0.383982	0.102045	0.094564
	H86	H	0.618635	0.100151	0.909388
	H87	H	0.382312	0.913251	0.909076
	H88	H	0.909564	0.108017	0.625550
	H89	H	0.090756	0.101145	0.389874
	H90	H	0.092859	0.922089	0.622543
	H91	H	0.897685	0.926192	0.389471
	H92	H	0.093719	0.622418	0.918559
	H93	H	0.086567	0.394428	0.099459
	H94	H	0.905302	0.624165	0.101455
	H95	H	0.907922	0.389262	0.911174
	H96	H	0.402595	0.125042	0.605103
	H97	H	0.601993	0.888815	0.602260
	H98	H	0.589724	0.124921	0.407459
	H99	H	0.397878	0.888094	0.415493
	H100	H	0.601873	0.417095	0.126906
	H101	H	0.590169	0.594910	0.892675
	H102	H	0.406597	0.599051	0.126096
	H103	H	0.413198	0.415246	0.892700
	H104	H	0.116170	0.601802	0.422174
	H105	H	0.880855	0.607997	0.604923
	H106	H	0.115076	0.418568	0.600397
	H107	H	0.881712	0.404321	0.419472
	H108	H	0.906167	0.623766	0.100740
	H109	H	0.102893	0.390115	0.095639
	H110	H	0.095710	0.624613	0.912083
	H111	H	0.911822	0.392214	0.916099
	H112	H	0.086508	0.909402	0.624378
	H113	H	0.092803	0.101366	0.389355
	H114	H	0.899924	0.099227	0.625869
	H115	H	0.922783	0.917965	0.394471
	H116	H	0.617139	0.103156	0.920868
	H117	H	0.384418	0.095159	0.101482
	H118	H	0.619255	0.909089	0.105854
	H119	H	0.383485	0.909555	0.918798
	C120	C	0.378038	0.014898	0.629806
	C121	C	0.622837	0.999027	0.629591
	C122	C	0.622094	0.015635	0.385847
	C123	C	0.378258	0.998575	0.386134
	C124	C	0.622405	0.383630	0.017166
	C125	C	0.620128	0.626249	0.999849
	C126	C	0.377720	0.628991	0.016822
	C127	C	0.379452	0.386000	0.999560
	C128	C	0.009036	0.629465	0.386733
	C129	C	0.992376	0.629350	0.629199
	C130	C	0.008825	0.385033	0.629469
	C131	C	0.992192	0.386437	0.387139
	C132	C	0.878587	0.515571	0.129790
	C133	C	0.122428	0.498656	0.130245
	C134	C	0.122135	0.515676	0.886381
	C135	C	0.878776	0.498878	0.886254
	C136	C	0.121726	0.885602	0.515957
	C137	C	0.120686	0.128092	0.498965
	C138	C	0.878425	0.129926	0.515490
	C139	C	0.880079	0.886994	0.498416
	C140	C	0.508422	0.128154	0.886893
	C141	C	0.491534	0.127965	0.129176
	C142	C	0.508843	0.884140	0.129575
	C143	C	0.491794	0.884429	0.886232
	C144	C	0.382347	0.891849	0.684507
	C145	C	0.618596	0.121704	0.684361
	C146	C	0.619791	0.892267	0.331963
	C147	C	0.380607	0.121363	0.330832
	C148	C	0.677812	0.385684	0.893431
	C149	C	0.674942	0.623204	0.124093
	C150	C	0.322964	0.626067	0.892754
	C151	C	0.325116	0.389054	0.123717
	C152	C	0.886024	0.685960	0.387722
	C153	C	0.115240	0.683761	0.627660
	C154	C	0.885818	0.330683	0.628408
	C155	C	0.114902	0.329770	0.388482
	C156	C	0.885828	0.389632	0.684556
	C157	C	0.116125	0.624876	0.683643
	C158	C	0.885728	0.627476	0.331523
	C159	C	0.115651	0.388651	0.332449
	C160	C	0.379657	0.683850	0.893103
	C161	C	0.617996	0.680821	0.123688
	C162	C	0.620024	0.328974	0.892986
	C163	C	0.381444	0.330646	0.123365
	C164	C	0.678923	0.893135	0.388202
	C165	C	0.676435	0.121991	0.626978
	C166	C	0.323678	0.892248	0.627493
	C167	C	0.322230	0.121357	0.387964
	C168	C	0.883436	0.392719	0.185108
	C169	C	0.118173	0.622074	0.184525
	C170	C	0.121019	0.392818	0.831099
	C171	C	0.880922	0.622198	0.831825
	C172	C	0.176561	0.888044	0.391795
	C173	C	0.175599	0.125026	0.623048
	C174	C	0.823162	0.128217	0.391655
	C175	C	0.825649	0.890238	0.622961
	C176	C	0.385623	0.184942	0.888290
	C177	C	0.614406	0.182741	0.128588
	C178	C	0.385279	0.830396	0.127843
	C179	C	0.614761	0.827699	0.888564
	C180	C	0.385117	0.888266	0.184593
	C181	C	0.615215	0.123025	0.183755
	C182	C	0.385023	0.126486	0.831693
	C183	C	0.616082	0.887029	0.832516
	C184	C	0.879971	0.185844	0.392061
	C185	C	0.118665	0.182444	0.623148
	C186	C	0.119804	0.830138	0.392364
	C187	C	0.881616	0.831956	0.622535
	C188	C	0.178221	0.392650	0.889090
	C189	C	0.176448	0.621599	0.127756
	C190	C	0.825443	0.392383	0.128138
	C191	C	0.821713	0.621328	0.888809
	C192	C	0.399502	0.100758	0.607418
	C193	C	0.602024	0.913064	0.607707
	C194	C	0.598863	0.101180	0.407863
	C195	C	0.400434	0.912558	0.408679
	C196	C	0.600306	0.405625	0.103534
	C197	C	0.597842	0.604274	0.913358
	C198	C	0.400078	0.606774	0.103345
	C199	C	0.401605	0.408079	0.913126
	C200	C	0.094999	0.606928	0.409487
	C201	C	0.906307	0.608143	0.606890
	C202	C	0.094758	0.406055	0.606728
	C203	C	0.906109	0.409228	0.409514
	C204	C	0.899322	0.601562	0.107179
	C205	C	0.101536	0.412859	0.108574
	C206	C	0.099283	0.601138	0.908547
	C207	C	0.901426	0.413104	0.908482
	C208	C	0.099598	0.907856	0.602418
	C209	C	0.098633	0.107048	0.412234
	C210	C	0.900573	0.107631	0.601788
	C211	C	0.901991	0.908908	0.412088
	C212	C	0.594417	0.105351	0.909496
	C213	C	0.405339	0.107000	0.106542
	C214	C	0.594827	0.904559	0.107915
	C215	C	0.406135	0.907354	0.908282
	Zn216	Zn	0.500908	0.006819	0.757957
	Zn217	Zn	0.499837	0.006289	0.257294
	Zn218	Zn	0.749532	0.505863	0.008576
	Zn219	Zn	0.250765	0.507060	0.007924
	Zn220	Zn	0.000347	0.758149	0.507737
	Zn221	Zn	0.000228	0.256885	0.507579
	Zn222	Zn	0.001131	0.507610	0.757464
	Zn223	Zn	0.000556	0.507663	0.258578
	Zn224	Zn	0.499655	0.755818	0.008513
	Zn225	Zn	0.500378	0.256908	0.008083
	Zn226	Zn	0.751283	0.007737	0.507150
	Zn227	Zn	0.249196	0.006916	0.507339
	N228	N	0.415780	0.969088	0.685810
	N229	N	0.586276	0.044135	0.686219
	N230	N	0.585001	0.969386	0.330470
	N231	N	0.414613	0.043986	0.329677
	N232	N	0.679418	0.419000	0.971540
	N233	N	0.676501	0.590006	0.045922
	N234	N	0.321603	0.592623	0.970778
	N235	N	0.323756	0.422729	0.045837
	N236	N	0.963677	0.687220	0.421457
	N237	N	0.037365	0.686604	0.594505
	N238	N	0.963369	0.327879	0.594758
	N239	N	0.037135	0.328351	0.421825
	N240	N	0.963298	0.422815	0.685176
	N241	N	0.038573	0.591774	0.684782
	N242	N	0.963185	0.592886	0.330836
	N243	N	0.038155	0.423063	0.331437
	N244	N	0.412983	0.685699	0.971350
	N245	N	0.584593	0.682974	0.045459
	N246	N	0.586499	0.327344	0.971011
	N247	N	0.414706	0.328700	0.045121
	N248	N	0.680443	0.970847	0.421007
	N249	N	0.679147	0.044468	0.593408
	N250	N	0.321105	0.969813	0.594202
	N251	N	0.320835	0.043967	0.421618
	N252	N	0.915689	0.470439	0.186445
	N253	N	0.085269	0.544602	0.186231
	N254	N	0.086949	0.470130	0.829229
	N255	N	0.915588	0.545085	0.830166
	N256	N	0.177857	0.921896	0.469587
	N257	N	0.177062	0.092115	0.544808
	N258	N	0.821585	0.094407	0.469514
	N259	N	0.824548	0.923845	0.544927
	N260	N	0.463428	0.185965	0.921927
	N261	N	0.536408	0.185869	0.095228
	N262	N	0.462948	0.827545	0.094459
	N263	N	0.536665	0.825822	0.921070
	N264	N	0.462864	0.920939	0.185981
	N265	N	0.537831	0.089644	0.184099
	N266	N	0.462344	0.091699	0.830807
	N267	N	0.538670	0.921573	0.830754
	N268	N	0.913901	0.186885	0.469983
	N269	N	0.085073	0.184422	0.544974
	N270	N	0.086660	0.828352	0.470598
	N271	N	0.914743	0.829778	0.544267
	N272	N	0.178939	0.470032	0.922722
	N273	N	0.179109	0.544081	0.094507
	N274	N	0.822454	0.469643	0.094289
	N275	N	0.820078	0.543433	0.921611
	O276	O	0.613301	0.488469	0.543776
	H277	H	0.618290	0.480607	0.550447
	H278	H	0.606830	0.487389	0.537983
	O279	O	-0.005847	0.045731	-0.089412
	H280	H	-0.011540	0.052254	-0.085064
	H281	H	-0.007740	0.050882	-0.089914
	O282	O	0.532278	0.534576	0.504307
	H283	H	0.530906	0.544042	0.502125
	H284	H	0.529600	0.530884	0.497017
	O285	O	0.568456	0.537553	0.526715
	H286	H	0.568150	0.543605	0.525810
	H287	H	0.577496	0.536320	0.528895
	O288	O	1.494954	-0.496625	-0.526183
	H289	H	1.482267	-0.496229	-0.533392
	H290	H	1.486207	-0.500173	-0.526899
	O291	O	-0.496695	0.521827	-0.469005
	H292	H	-0.490328	0.532220	-0.465512
	H293	H	-0.499017	0.521678	-0.463006
	O294	O	0.554096	0.531658	0.454538
	H295	H	0.558172	0.529503	0.453801
	H296	H	0.551205	0.537574	0.454806
	O297	O	-0.001426	1.022670	-0.095278
	H298	H	0.008786	1.015947	-0.102634
	H299	H	-0.002989	1.019595	-0.103510
	O300	O	0.964828	0.047311	0.931989
	H301	H	0.958487	0.048835	0.934610
	H302	H	0.970486	0.044218	0.928392
	O303	O	0.573207	0.575915	0.536834
	H304	H	0.584688	0.566635	0.536975
	H305	H	0.584677	0.576841	0.545978
	O306	O	-0.011826	1.011912	0.893633
	H307	H	-0.016188	1.014812	0.896528
	H308	H	-0.012850	1.015328	0.886879
	O309	O	0.529345	0.494224	0.540002
	H310	H	0.524154	0.494924	0.538215
	H311	H	0.530192	0.498174	0.542637
