data_Molecule from HDF5

_cell_length_a		16.461220
_cell_length_b		16.402159
_cell_length_c		16.587777
_cell_angle_alpha	90.027808
_cell_angle_beta	90.095485
_cell_angle_gamma	90.062237
_symmetry_space_group_name_H-M	'P 1'
_symmetry_Int_Tables_number		1

loop_
	_symmetry_equiv_pos_as_xyz
	x,y,z

loop_
	_atom_site_label
	_atom_site_type_symbol
	_atom_site_fract_x
	_atom_site_fract_y
	_atom_site_fract_z
	H0	H	0.388212	0.847270	0.742828
	H1	H	0.606093	0.159935	0.740660
	H2	H	0.605471	0.847800	0.291724
	H3	H	0.391066	0.161432	0.296806
	H4	H	0.722096	0.395961	0.861465
	H5	H	0.720680	0.610936	0.172994
	H6	H	0.274997	0.611177	0.859966
	H7	H	0.271989	0.395695	0.170704
	H8	H	0.838919	0.723447	0.411566
	H9	H	0.154962	0.727055	0.623639
	H10	H	0.841629	0.279176	0.625389
	H11	H	0.154254	0.280905	0.411971
	H12	H	0.842779	0.392945	0.743538
	H13	H	0.151976	0.616295	0.743833
	H14	H	0.841342	0.610732	0.292195
	H15	H	0.154687	0.394931	0.293766
	H16	H	0.390985	0.728455	0.860229
	H17	H	0.605859	0.728888	0.172567
	H18	H	0.603812	0.280924	0.861618
	H19	H	0.390257	0.281273	0.173262
	H20	H	0.718824	0.845326	0.410335
	H21	H	0.719709	0.160655	0.623682
	H22	H	0.273050	0.847184	0.625837
	H23	H	0.277848	0.162455	0.415527
	H24	H	0.890999	0.345937	0.237708
	H25	H	0.105698	0.661714	0.239416
	H26	H	0.103769	0.348111	0.793073
	H27	H	0.887853	0.660728	0.792063
	H28	H	0.221584	0.896938	0.361211
	H29	H	0.220828	0.112529	0.672761
	H30	H	0.775185	0.107411	0.359872
	H31	H	0.774768	0.896242	0.673417
	H32	H	0.338830	0.221770	0.916166
	H33	H	0.656043	0.225179	0.123337
	H34	H	0.339532	0.782352	0.121504
	H35	H	0.656522	0.783350	0.912620
	H36	H	0.338705	0.898357	0.238027
	H37	H	0.655337	0.109567	0.239769
	H38	H	0.341280	0.110349	0.795784
	H39	H	0.653865	0.893952	0.792839
	H40	H	0.891366	0.224577	0.359507
	H41	H	0.103799	0.228695	0.671372
	H42	H	0.102927	0.782418	0.359704
	H43	H	0.894221	0.782919	0.675017
	H44	H	0.217950	0.346691	0.910779
	H45	H	0.217955	0.663561	0.119854
	H46	H	0.775680	0.346287	0.121910
	H47	H	0.775357	0.662557	0.910390
	H48	H	0.412506	0.114683	0.604422
	H49	H	0.584069	0.888263	0.611665
	H50	H	0.584805	0.118853	0.422136
	H51	H	0.405424	0.889143	0.430360
	H52	H	0.591071	0.413593	0.130589
	H53	H	0.585249	0.587117	0.907750
	H54	H	0.408867	0.592814	0.127977
	H55	H	0.404832	0.416546	0.904132
	H56	H	0.109571	0.588452	0.425128
	H57	H	0.882125	0.597969	0.608532
	H58	H	0.108495	0.423571	0.609453
	H59	H	0.885678	0.421174	0.420961
	H60	H	0.110631	0.411974	0.603889
	H61	H	0.887742	0.592080	0.596892
	H62	H	0.112775	0.596479	0.425173
	H63	H	0.882122	0.409182	0.423646
	H64	H	0.409950	0.590890	0.126453
	H65	H	0.582289	0.598749	0.904812
	H66	H	0.587920	0.421814	0.126828
	H67	H	0.411978	0.416959	0.907246
	H68	H	0.579368	0.112814	0.433267
	H69	H	0.578039	0.893583	0.603446
	H70	H	0.404820	0.118333	0.606725
	H71	H	0.412411	0.890186	0.424156
	H72	H	0.909975	0.616844	0.103064
	H73	H	0.086529	0.390044	0.109751
	H74	H	0.080861	0.618484	0.925895
	H75	H	0.908314	0.389810	0.925740
	H76	H	0.083201	0.913542	0.627902
	H77	H	0.088535	0.090669	0.404167
	H78	H	0.912734	0.092347	0.626776
	H79	H	0.911638	0.912612	0.405614
	H80	H	0.611844	0.088259	0.923445
	H81	H	0.382090	0.095509	0.112751
	H82	H	0.608207	0.921117	0.105415
	H83	H	0.386061	0.919347	0.929638
	H84	H	0.611439	0.916308	0.110720
	H85	H	0.384119	0.096346	0.103452
	H86	H	0.613356	0.098142	0.928512
	H87	H	0.385396	0.916404	0.929572
	H88	H	0.907283	0.094720	0.629885
	H89	H	0.085084	0.087718	0.407220
	H90	H	0.088370	0.915047	0.629495
	H91	H	0.903322	0.910434	0.402857
	H92	H	0.083402	0.615082	0.934224
	H93	H	0.081490	0.393890	0.103710
	H94	H	0.910088	0.617803	0.106562
	H95	H	0.915876	0.393953	0.929391
	H96	H	0.410703	0.118230	0.612229
	H97	H	0.588630	0.890115	0.601679
	H98	H	0.592020	0.117240	0.433323
	H99	H	0.413308	0.893210	0.433568
	H100	H	0.582178	0.414400	0.127709
	H101	H	0.593664	0.594916	0.902112
	H102	H	0.410828	0.593170	0.126822
	H103	H	0.409463	0.410157	0.903947
	H104	H	0.109642	0.593589	0.432556
	H105	H	0.886837	0.584101	0.608300
	H106	H	0.105052	0.421719	0.597290
	H107	H	0.886586	0.416842	0.432722
	H108	H	0.912801	0.616259	0.105531
	H109	H	0.089423	0.390588	0.102048
	H110	H	0.089876	0.619035	0.928573
	H111	H	0.907940	0.392862	0.934006
	H112	H	0.085261	0.918800	0.627145
	H113	H	0.083528	0.092679	0.405290
	H114	H	0.907598	0.088116	0.627282
	H115	H	0.905511	0.918460	0.405979
	H116	H	0.608352	0.089291	0.934578
	H117	H	0.386958	0.088119	0.107642
	H118	H	0.609983	0.913594	0.103972
	H119	H	0.387835	0.917810	0.931742
	C120	C	0.375390	0.013004	0.640635
	C121	C	0.617502	0.994781	0.638274
	C122	C	0.618233	0.012220	0.396355
	C123	C	0.377625	0.995512	0.397676
	C124	C	0.619569	0.383163	0.025521
	C125	C	0.620003	0.626560	1.008127
	C126	C	0.377095	0.625331	0.024093
	C127	C	0.375630	0.381848	1.007964
	C128	C	0.006364	0.625257	0.395082
	C129	C	0.988844	0.625591	0.638428
	C130	C	0.005023	0.384440	0.637160
	C131	C	0.988825	0.382413	0.394272
	C132	C	0.877534	0.512600	0.137420
	C133	C	0.119736	0.495639	0.138203
	C134	C	0.118064	0.513480	0.895526
	C135	C	0.876524	0.496110	0.896081
	C136	C	0.119492	0.882093	0.525411
	C137	C	0.118313	0.124752	0.508480
	C138	C	0.876003	0.124465	0.524890
	C139	C	0.874794	0.881275	0.508452
	C140	C	0.506625	0.124498	0.896963
	C141	C	0.488883	0.125884	0.140127
	C142	C	0.505774	0.883295	0.139018
	C143	C	0.489986	0.883894	0.896768
	C144	C	0.370553	0.894665	0.702393
	C145	C	0.622708	0.112864	0.699925
	C146	C	0.622317	0.894230	0.333784
	C147	C	0.373726	0.114316	0.337261
	C148	C	0.681175	0.378647	0.908383
	C149	C	0.680824	0.629853	0.125828
	C150	C	0.315618	0.628908	0.906754
	C151	C	0.313221	0.378270	0.124576
	C152	C	0.886832	0.684356	0.392760
	C153	C	0.107052	0.686898	0.641464
	C154	C	0.888146	0.320834	0.642054
	C155	C	0.107182	0.321188	0.393091
	C156	C	0.888630	0.377692	0.700856
	C157	C	0.105555	0.631778	0.701767
	C158	C	0.888210	0.628183	0.333454
	C159	C	0.107344	0.378072	0.334365
	C160	C	0.373537	0.687137	0.906928
	C161	C	0.623184	0.688061	0.125660
	C162	C	0.622562	0.321161	0.908419
	C163	C	0.372289	0.321358	0.125705
	C164	C	0.678561	0.892966	0.392966
	C165	C	0.679353	0.113013	0.641574
	C166	C	0.313583	0.894582	0.643895
	C167	C	0.317330	0.114822	0.396020
	C168	C	0.873843	0.393534	0.197757
	C169	C	0.123207	0.614447	0.199031
	C170	C	0.121313	0.395090	0.834015
	C171	C	0.871036	0.613821	0.833234
	C172	C	0.180898	0.879006	0.407962
	C173	C	0.180026	0.129699	0.625640
	C174	C	0.815731	0.125930	0.406882
	C175	C	0.815059	0.878316	0.626649
	C176	C	0.386962	0.182934	0.896906
	C177	C	0.608171	0.185931	0.142190
	C178	C	0.386909	0.822401	0.140483
	C179	C	0.608641	0.823170	0.894355
	C180	C	0.386711	0.880087	0.198483
	C181	C	0.607891	0.128200	0.199935
	C182	C	0.388223	0.127596	0.836806
	C183	C	0.607411	0.878378	0.834497
	C184	C	0.873392	0.184403	0.406684
	C185	C	0.121858	0.187551	0.625120
	C186	C	0.121888	0.821983	0.407254
	C187	C	0.874443	0.821938	0.627188
	C188	C	0.178030	0.394378	0.892584
	C189	C	0.179306	0.615354	0.139711
	C190	C	0.816079	0.393895	0.140270
	C191	C	0.815217	0.614754	0.892344
	C192	C	0.401817	0.095459	0.615048
	C193	C	0.590866	0.912197	0.613011
	C194	C	0.592567	0.094681	0.422342
	C195	C	0.403065	0.912373	0.422434
	C196	C	0.594292	0.409205	0.107127
	C197	C	0.594378	0.600936	0.926291
	C198	C	0.402666	0.599388	0.105989
	C199	C	0.401390	0.407310	0.926379
	C200	C	0.088964	0.600181	0.420522
	C201	C	0.906821	0.598851	0.612121
	C202	C	0.086743	0.411545	0.610942
	C203	C	0.906243	0.408490	0.418733
	C204	C	0.903485	0.595337	0.112232
	C205	C	0.093479	0.413001	0.112563
	C206	C	0.092028	0.595914	0.921740
	C207	C	0.903078	0.413840	0.922212
	C208	C	0.093327	0.908381	0.606936
	C209	C	0.092849	0.098013	0.426832
	C210	C	0.901831	0.098914	0.606574
	C211	C	0.899548	0.906570	0.426317
	C212	C	0.589654	0.099260	0.921622
	C213	C	0.406074	0.100656	0.115165
	C214	C	0.588371	0.909332	0.113821
	C215	C	0.408006	0.910354	0.922870
	Zn216	Zn	0.497728	0.003823	0.767501
	Zn217	Zn	0.497054	0.004391	0.267689
	Zn218	Zn	0.748906	0.504964	0.017032
	Zn219	Zn	0.247000	0.504707	0.016026
	Zn220	Zn	-0.002773	0.753628	0.516370
	Zn221	Zn	-0.003234	0.254431	0.516269
	Zn222	Zn	-0.003055	0.504597	0.767727
	Zn223	Zn	-0.001765	0.503902	0.265967
	Zn224	Zn	0.497701	0.755271	0.016723
	Zn225	Zn	0.498471	0.253277	0.017942
	Zn226	Zn	0.746305	0.002833	0.517582
	Zn227	Zn	0.248263	0.003906	0.517687
	N228	N	0.408053	0.969586	0.700657
	N229	N	0.584882	0.038204	0.697923
	N230	N	0.585525	0.969262	0.335761
	N231	N	0.410291	0.039043	0.337990
	N232	N	0.679492	0.416532	0.982249
	N233	N	0.678964	0.592253	0.051798
	N234	N	0.317697	0.591176	0.980670
	N235	N	0.315090	0.415290	0.050337
	N236	N	0.961306	0.682783	0.430232
	N237	N	0.033361	0.683095	0.602657
	N238	N	0.961361	0.325268	0.602766
	N239	N	0.032470	0.323919	0.429616
	N240	N	0.962167	0.416931	0.697722
	N241	N	0.030974	0.594144	0.699844
	N242	N	0.963657	0.592405	0.334472
	N243	N	0.032743	0.415634	0.335174
	N244	N	0.410964	0.685011	0.980948
	N245	N	0.585934	0.686047	0.051597
	N246	N	0.585089	0.323767	0.982179
	N247	N	0.410387	0.323382	0.052259
	N248	N	0.675979	0.967170	0.431364
	N249	N	0.676354	0.038532	0.604008
	N250	N	0.316198	0.969162	0.606382
	N251	N	0.319615	0.039906	0.432949
	N252	N	0.911344	0.468491	0.196242
	N253	N	0.087227	0.538749	0.198359
	N254	N	0.085038	0.470514	0.835592
	N255	N	0.908350	0.538855	0.835269
	N256	N	0.179728	0.915237	0.482628
	N257	N	0.177855	0.091199	0.552128
	N258	N	0.816892	0.089641	0.481487
	N259	N	0.815119	0.914383	0.551916
	N260	N	0.461847	0.181296	0.933556
	N261	N	0.533003	0.185008	0.105856
	N262	N	0.462137	0.823816	0.104576
	N263	N	0.534727	0.826508	0.932510
	N264	N	0.461757	0.916961	0.197869
	N265	N	0.532703	0.092046	0.198897
	N266	N	0.463700	0.092050	0.836800
	N267	N	0.532539	0.915395	0.835809
	N268	N	0.909791	0.184020	0.481226
	N269	N	0.084185	0.184494	0.551325
	N270	N	0.084639	0.823428	0.481382
	N271	N	0.910739	0.823468	0.552589
	N272	N	0.176078	0.469045	0.930123
	N273	N	0.177591	0.540331	0.102891
	N274	N	0.818546	0.468674	0.103154
	N275	N	0.818434	0.540556	0.930704
	O276	O	-0.002575	-0.144788	0.235990
	H277	H	-0.004787	-0.176243	0.253264
	H278	H	-0.023344	-0.131297	0.227745
	O279	O	1.198360	1.091462	0.220781
	H280	H	1.210238	1.069708	0.228761
	H281	H	1.198703	1.096874	0.231841
	O282	O	0.344798	0.350186	0.316776
	H283	H	0.365429	0.367215	0.330819
	H284	H	0.335389	0.363562	0.321097
	O285	O	0.586730	0.548904	0.458916
	H286	H	0.601592	0.536035	0.468579
	H287	H	0.593212	0.564406	0.475657
	O288	O	-0.292179	0.298386	0.312533
	H289	H	-0.294372	0.332299	0.300889
	H290	H	-0.330903	0.301746	0.305901
	O291	O	0.798809	1.097600	0.102340
	H292	H	0.805562	1.114329	0.105335
	H293	H	0.802624	1.107685	0.104776
	O294	O	-0.209712	0.969306	-0.129761
	H295	H	-0.212231	0.964948	-0.131360
	H296	H	-0.224027	0.982513	-0.147110
	O297	O	0.311932	0.471881	0.627181
	H298	H	0.313217	0.477874	0.627953
	H299	H	0.313932	0.481592	0.627371
	O300	O	0.400133	0.371711	0.581895
	H301	H	0.401869	0.369662	0.572019
	H302	H	0.397014	0.379814	0.584122
	O303	O	0.283762	0.513616	0.501818
	H304	H	0.293863	0.505170	0.506766
	H305	H	0.283145	0.542350	0.517721
	O306	O	-0.447106	1.474845	1.533177
	H307	H	-0.457159	1.495416	1.530802
	H308	H	-0.439063	1.474640	1.535195
	O309	O	0.466945	0.480997	0.295077
	H310	H	0.453310	0.500009	0.291503
	H311	H	0.460229	0.493246	0.318172
	O312	O	0.135917	0.900029	0.171347
	H313	H	0.144348	0.897717	0.163777
	H314	H	0.115822	0.890897	0.171074
	O315	O	-0.216181	0.013762	0.943951
	H316	H	-0.209849	0.012537	0.937690
	H317	H	-0.218662	0.026094	0.950403
	O318	O	0.721436	0.518727	0.503857
	H319	H	0.726019	0.520253	0.519033
	H320	H	0.723728	0.509771	0.517148
	O321	O	0.554613	0.714287	0.455434
	H322	H	0.575863	0.711773	0.452483
	H323	H	0.566976	0.718556	0.448697
	O324	O	0.655730	0.667595	0.266146
	H325	H	0.661507	0.699067	0.261428
	H326	H	0.645918	0.660591	0.251574
	O327	O	1.060561	0.077457	1.012337
	H328	H	1.066584	0.076443	1.010202
	H329	H	1.073589	0.079436	1.021865
	O330	O	0.536987	0.468862	-0.287974
	H331	H	0.547188	0.461194	-0.277889
	H332	H	0.530585	0.451202	-0.296905
	O333	O	0.806774	0.908891	1.214946
	H334	H	0.804644	0.911190	1.196900
	H335	H	0.796898	0.935808	1.219951
	O336	O	0.290853	-0.635875	0.728256
	H337	H	0.302419	-0.637214	0.721921
	H338	H	0.289097	-0.601664	0.717036
	O339	O	0.274350	0.517488	0.534718
	H340	H	0.286184	0.528231	0.548509
	H341	H	0.269076	0.540226	0.534116
	O342	O	0.906116	0.159768	0.034253
	H343	H	0.927544	0.172416	0.012962
	H344	H	0.913353	0.157053	0.054721
	O345	O	0.717134	0.722951	0.545559
	H346	H	0.744919	0.753527	0.553890
	H347	H	0.700951	0.722039	0.572763
	O348	O	1.395983	-0.310931	1.473625
	H349	H	1.382246	-0.303859	1.484917
	H350	H	1.402338	-0.314743	1.454896
	O351	O	1.071369	1.174646	0.126657
	H352	H	1.082950	1.175042	0.132378
	H353	H	1.068313	1.186830	0.140967
	O354	O	0.371374	0.376941	0.477049
	H355	H	0.377219	0.379631	0.478665
	H356	H	0.365676	0.378514	0.474223
	O357	O	1.204218	0.798004	0.999022
	H358	H	1.230239	0.785217	0.999237
	H359	H	1.198326	0.812630	0.976277
	O360	O	0.278228	0.529167	0.291295
	H361	H	0.265516	0.533829	0.304807
	H362	H	0.256563	0.529775	0.278509
	O363	O	1.032891	0.052622	-0.031591
	H364	H	1.030561	0.054724	-0.042909
	H365	H	1.030128	0.048722	-0.032107
	O366	O	0.999646	0.062790	1.125785
	H367	H	0.997783	0.059901	1.111771
	H368	H	0.997736	0.064311	1.127606
	O369	O	0.710103	0.395974	-0.376515
	H370	H	0.709610	0.373662	-0.378563
	H371	H	0.706207	0.390831	-0.380894
	O372	O	0.472039	0.380305	0.741007
	H373	H	0.469667	0.367213	0.758892
	H374	H	0.464976	0.375170	0.724207
	O375	O	-0.525762	0.722249	1.294821
	H376	H	-0.532772	0.741545	1.269963
	H377	H	-0.522594	0.726088	1.301750
	O378	O	0.522943	0.287963	0.300178
	H379	H	0.507205	0.307688	0.294275
	H380	H	0.518590	0.271346	0.268996
	O381	O	1.180060	-0.182386	-0.164414
	H382	H	1.146431	-0.172954	-0.174871
	H383	H	1.184322	-0.155301	-0.155658
	O384	O	-0.003740	-0.100171	0.991052
	H385	H	-0.005201	-0.116327	0.988050
	H386	H	0.002597	-0.088881	0.978018
	O387	O	0.171077	0.933618	1.111178
	H388	H	0.168652	0.936040	1.113417
	H389	H	0.158897	0.936385	1.093465
	O390	O	-0.115796	-0.144481	0.917803
	H391	H	-0.128298	-0.130195	0.919547
	H392	H	-0.099881	-0.140851	0.941906
	O393	O	0.371190	0.579876	-0.299230
	H394	H	0.372667	0.587401	-0.282349
	H395	H	0.383694	0.589812	-0.303592
	O396	O	0.555521	0.298638	0.550754
	H397	H	0.562530	0.302912	0.530391
	H398	H	0.562610	0.296099	0.530058
	O399	O	0.908135	0.176609	0.802835
	H400	H	0.912625	0.185569	0.796596
	H401	H	0.902411	0.180053	0.812216
	O402	O	0.018483	-0.204344	0.811130
	H403	H	0.009390	-0.213112	0.825206
	H404	H	0.009731	-0.221583	0.803299
	O405	O	-0.174145	0.151807	0.050623
	H406	H	-0.174440	0.143480	0.046352
	H407	H	-0.172229	0.158842	0.044266
	O408	O	1.099173	1.210366	0.101971
	H409	H	1.095451	1.219003	0.116925
	H410	H	1.128471	1.215632	0.092748
	O411	O	-0.184028	0.799508	0.025019
	H412	H	-0.176268	0.822415	0.009213
	H413	H	-0.204846	0.776986	0.020190
	O414	O	0.279738	0.724379	0.489445
	H415	H	0.291526	0.725230	0.476012
	H416	H	0.251024	0.752945	0.484606
	O417	O	0.106358	0.184043	0.789386
	H418	H	0.127178	0.182370	0.771767
	H419	H	0.090860	0.195951	0.782236
	O420	O	0.515212	0.713998	0.729588
	H421	H	0.511751	0.739187	0.734357
	H422	H	0.517526	0.695139	0.726281
	O423	O	0.111178	0.947935	-0.191586
	H424	H	0.108255	0.960696	-0.202348
	H425	H	0.122663	0.952879	-0.193540
	O426	O	0.897458	1.204353	0.822300
	H427	H	0.891958	1.194424	0.822930
	H428	H	0.885598	1.214239	0.848534
	O429	O	0.511030	0.381660	0.610124
	H430	H	0.514241	0.377676	0.610932
	H431	H	0.510052	0.371819	0.600945
	O432	O	0.715651	0.287986	0.493543
	H433	H	0.732332	0.277533	0.485080
	H434	H	0.717977	0.281917	0.457929
	O435	O	0.088607	0.122193	-0.189978
	H436	H	0.076720	0.127936	-0.195850
	H437	H	0.089242	0.136142	-0.193629
	O438	O	0.943330	0.067245	0.034554
	H439	H	0.954428	0.077971	0.045715
	H440	H	0.955170	0.056437	0.024080
	O441	O	0.971394	0.792805	0.153682
	H442	H	0.999176	0.784284	0.151971
	H443	H	0.956832	0.796955	0.171401
	O444	O	0.699815	0.526675	0.720273
	H445	H	0.697009	0.510583	0.738986
	H446	H	0.709179	0.512447	0.699258
	O447	O	0.678077	0.688901	0.704301
	H448	H	0.638344	0.692695	0.694483
	H449	H	0.689480	0.638794	0.711555
	O450	O	0.700979	0.483189	0.310081
	H451	H	0.690885	0.500969	0.307694
	H452	H	0.714553	0.500836	0.321957
	O453	O	1.165942	1.204475	0.134931
	H454	H	1.174623	1.200173	0.146446
	H455	H	1.160513	1.201381	0.136142
	O456	O	1.202480	0.061108	-0.091364
	H457	H	1.200680	0.077842	-0.088992
	H458	H	1.209369	0.072113	-0.107225
	O459	O	0.565428	0.681709	0.453349
	H460	H	0.579053	0.680165	0.453360
	H461	H	0.573343	0.684257	0.452008
	O462	O	0.481348	0.417118	0.483261
	H463	H	0.482837	0.422321	0.483256
	H464	H	0.482698	0.414296	0.463714
	O465	O	1.208026	-0.196967	0.284436
	H466	H	1.199967	-0.214534	0.284945
	H467	H	1.229282	-0.182071	0.262331
