data_Molecule from HDF5

_cell_length_a		15.891575
_cell_length_b		16.375456
_cell_length_c		16.508382
_cell_angle_alpha	89.391930
_cell_angle_beta	90.710528
_cell_angle_gamma	89.070132
_symmetry_space_group_name_H-M	'P 1'
_symmetry_Int_Tables_number		1

loop_
	_symmetry_equiv_pos_as_xyz
	x,y,z

loop_
	_atom_site_label
	_atom_site_type_symbol
	_atom_site_fract_x
	_atom_site_fract_y
	_atom_site_fract_z
	H0	H	0.395609	0.838544	0.721045
	H1	H	0.604385	0.156152	0.720388
	H2	H	0.608385	0.836659	0.281937
	H3	H	0.388024	0.156544	0.274223
	H4	H	0.712530	0.399519	0.836381
	H5	H	0.713749	0.588009	0.160621
	H6	H	0.280324	0.598358	0.836353
	H7	H	0.291469	0.403061	0.160922
	H8	H	0.833381	0.717239	0.394329
	H9	H	0.164496	0.708119	0.598353
	H10	H	0.831749	0.287249	0.595815
	H11	H	0.163572	0.281513	0.399493
	H12	H	0.834202	0.397054	0.714432
	H13	H	0.162958	0.598448	0.715938
	H14	H	0.834392	0.606487	0.277539
	H15	H	0.165371	0.397470	0.287630
	H16	H	0.388005	0.723248	0.839147
	H17	H	0.604560	0.714183	0.158038
	H18	H	0.604627	0.275261	0.839828
	H19	H	0.396024	0.275913	0.157394
	H20	H	0.714736	0.833700	0.409150
	H21	H	0.708802	0.161359	0.594852
	H22	H	0.292531	0.832838	0.593910
	H23	H	0.282351	0.160210	0.399813
	H24	H	0.896653	0.339946	0.221295
	H25	H	0.105332	0.658403	0.217703
	H26	H	0.110694	0.338625	0.777917
	H27	H	0.886763	0.656786	0.773407
	H28	H	0.212963	0.899907	0.336785
	H29	H	0.213319	0.089462	0.661538
	H30	H	0.778174	0.099152	0.338001
	H31	H	0.793905	0.904746	0.663323
	H32	H	0.333316	0.216494	0.894383
	H33	H	0.666191	0.205363	0.098708
	H34	H	0.331435	0.785142	0.096867
	H35	H	0.663281	0.780130	0.901584
	H36	H	0.333375	0.894925	0.214366
	H37	H	0.663422	0.094861	0.216947
	H38	H	0.334505	0.103422	0.779333
	H39	H	0.664123	0.891668	0.787182
	H40	H	0.888545	0.222013	0.338904
	H41	H	0.105548	0.216399	0.657637
	H42	H	0.103529	0.777696	0.339574
	H43	H	0.895147	0.775743	0.656618
	H44	H	0.215879	0.334136	0.905793
	H45	H	0.210509	0.662029	0.092191
	H46	H	0.793999	0.332525	0.093228
	H47	H	0.777728	0.658615	0.896292
	H48	H	0.412969	0.110225	0.586892
	H49	H	0.587975	0.882190	0.598762
	H50	H	0.583562	0.109806	0.412755
	H51	H	0.406308	0.877062	0.392837
	H52	H	0.588918	0.399094	0.112536
	H53	H	0.579658	0.596502	0.885030
	H54	H	0.405481	0.602266	0.115312
	H55	H	0.412419	0.404753	0.884920
	H56	H	0.119590	0.587406	0.399596
	H57	H	0.879249	0.591389	0.583969
	H58	H	0.120657	0.399995	0.593654
	H59	H	0.877905	0.418521	0.395147
	H60	H	0.115128	0.406199	0.582106
	H61	H	0.881261	0.588162	0.583172
	H62	H	0.120050	0.594678	0.410558
	H63	H	0.876089	0.400691	0.406746
	H64	H	0.400486	0.586929	0.113826
	H65	H	0.591931	0.592307	0.881635
	H66	H	0.596832	0.394221	0.114746
	H67	H	0.406889	0.403682	0.882246
	H68	H	0.589001	0.114241	0.402038
	H69	H	0.596238	0.882359	0.590665
	H70	H	0.402187	0.114079	0.588202
	H71	H	0.421299	0.885512	0.406461
	H72	H	0.902447	0.613613	0.082167
	H73	H	0.082695	0.387296	0.089413
	H74	H	0.083470	0.613125	0.898897
	H75	H	0.915637	0.386423	0.912463
	H76	H	0.084342	0.893036	0.612359
	H77	H	0.091096	0.090450	0.383958
	H78	H	0.909186	0.088741	0.611312
	H79	H	0.897587	0.904391	0.380190
	H80	H	0.621466	0.092747	0.904407
	H81	H	0.377372	0.094322	0.089077
	H82	H	0.621422	0.891645	0.091422
	H83	H	0.381568	0.916366	0.910891
	H84	H	0.610909	0.911235	0.081057
	H85	H	0.381586	0.088415	0.080150
	H86	H	0.616313	0.086796	0.917446
	H87	H	0.378451	0.913712	0.901159
	H88	H	0.912377	0.098268	0.612505
	H89	H	0.082265	0.090144	0.386116
	H90	H	0.104475	0.897627	0.618031
	H91	H	0.908677	0.918610	0.388289
	H92	H	0.081705	0.610382	0.907628
	H93	H	0.103929	0.381590	0.089662
	H94	H	0.906073	0.615816	0.094443
	H95	H	0.900993	0.378385	0.902864
	H96	H	0.410651	0.114836	0.596806
	H97	H	0.599500	0.877900	0.601550
	H98	H	0.577150	0.109948	0.401649
	H99	H	0.400947	0.880702	0.413305
	H100	H	0.597349	0.402491	0.112814
	H101	H	0.583125	0.584201	0.887291
	H102	H	0.416314	0.590879	0.109325
	H103	H	0.408300	0.409607	0.884121
	H104	H	0.115463	0.582062	0.410889
	H105	H	0.879607	0.587811	0.587301
	H106	H	0.116225	0.412897	0.593727
	H107	H	0.884547	0.418107	0.414947
	H108	H	0.914927	0.611165	0.086838
	H109	H	0.092135	0.379416	0.106745
	H110	H	0.090802	0.613776	0.904290
	H111	H	0.917974	0.381620	0.894860
	H112	H	0.091513	0.912180	0.610151
	H113	H	0.086689	0.097582	0.382698
	H114	H	0.902556	0.096452	0.614962
	H115	H	0.916834	0.901016	0.384579
	H116	H	0.615899	0.078076	0.904587
	H117	H	0.380244	0.083336	0.089982
	H118	H	0.618651	0.911750	0.104004
	H119	H	0.378487	0.906639	0.908464
	C120	C	0.379301	0.006034	0.620044
	C121	C	0.622688	0.987996	0.624332
	C122	C	0.617886	0.004845	0.378748
	C123	C	0.376243	0.988030	0.374289
	C124	C	0.623346	0.371122	0.007241
	C125	C	0.618454	0.618358	0.990241
	C126	C	0.375002	0.623298	0.006516
	C127	C	0.379747	0.376585	0.990105
	C128	C	0.008429	0.620374	0.376004
	C129	C	0.989289	0.617731	0.616752
	C130	C	0.007529	0.377576	0.618809
	C131	C	0.989621	0.380306	0.378076
	C132	C	0.879499	0.506437	0.118191
	C133	C	0.121892	0.489895	0.121812
	C134	C	0.120022	0.506072	0.875615
	C135	C	0.876659	0.488421	0.873255
	C136	C	0.122419	0.873134	0.507281
	C137	C	0.119500	0.120063	0.490135
	C138	C	0.874608	0.123931	0.507343
	C139	C	0.879106	0.877901	0.490651
	C140	C	0.508563	0.118523	0.877142
	C141	C	0.489545	0.116358	0.117836
	C142	C	0.507301	0.875917	0.120398
	C143	C	0.489232	0.879052	0.878897
	C144	C	0.378729	0.885616	0.679442
	C145	C	0.622077	0.109063	0.680372
	C146	C	0.623771	0.883968	0.322302
	C147	C	0.371254	0.108687	0.314803
	C148	C	0.676821	0.376730	0.885410
	C149	C	0.676216	0.611982	0.111902
	C150	C	0.317832	0.620289	0.884958
	C151	C	0.326679	0.380322	0.112115
	C152	C	0.883302	0.678747	0.375190
	C153	C	0.114678	0.671914	0.617689
	C154	C	0.882345	0.323365	0.616969
	C155	C	0.114142	0.321000	0.380034
	C156	C	0.883124	0.378471	0.675204
	C157	C	0.113758	0.617009	0.676009
	C158	C	0.883957	0.623520	0.317192
	C159	C	0.115183	0.378973	0.324470
	C160	C	0.371578	0.682323	0.886374
	C161	C	0.621649	0.674532	0.110526
	C162	C	0.622790	0.315216	0.886988
	C163	C	0.379175	0.317299	0.110121
	C164	C	0.676849	0.882507	0.385320
	C165	C	0.674452	0.111463	0.618053
	C166	C	0.327395	0.882791	0.616177
	C167	C	0.318702	0.110650	0.377380
	C168	C	0.878852	0.386745	0.179344
	C169	C	0.122450	0.610907	0.177753
	C170	C	0.125786	0.385742	0.818615
	C171	C	0.870590	0.608935	0.813833
	C172	C	0.176794	0.877711	0.385804
	C173	C	0.176043	0.113172	0.612335
	C174	C	0.816228	0.120979	0.386264
	C175	C	0.827454	0.881555	0.613266
	C176	C	0.383467	0.177777	0.875571
	C177	C	0.615755	0.169435	0.118401
	C178	C	0.381642	0.821910	0.117164
	C179	C	0.613766	0.819263	0.881270
	C180	C	0.382695	0.876645	0.175789
	C181	C	0.614315	0.114151	0.176987
	C182	C	0.383906	0.121615	0.818188
	C183	C	0.614318	0.875173	0.824668
	C184	C	0.871215	0.182070	0.386782
	C185	C	0.122166	0.176036	0.610476
	C186	C	0.122036	0.817022	0.387073
	C187	C	0.878140	0.817663	0.609997
	C188	C	0.178723	0.383726	0.881873
	C189	C	0.175003	0.612709	0.115483
	C190	C	0.828154	0.382685	0.115255
	C191	C	0.816123	0.609795	0.874937
	C192	C	0.401984	0.091003	0.597217
	C193	C	0.600822	0.903030	0.603351
	C194	C	0.590997	0.089331	0.399374
	C195	C	0.402148	0.903189	0.397412
	C196	C	0.600872	0.392344	0.091541
	C197	C	0.592450	0.597168	0.906387
	C198	C	0.399997	0.600177	0.090944
	C199	C	0.402576	0.399558	0.905664
	C200	C	0.095821	0.595410	0.400191
	C201	C	0.902494	0.595686	0.592043
	C202	C	0.094744	0.399826	0.596479
	C203	C	0.902227	0.405292	0.399329
	C204	C	0.901428	0.591508	0.094545
	C205	C	0.099489	0.404971	0.101310
	C206	C	0.093342	0.590425	0.897234
	C207	C	0.903668	0.403990	0.896814
	C208	C	0.100053	0.894456	0.591642
	C209	C	0.094288	0.099029	0.406114
	C210	C	0.900453	0.101123	0.591164
	C211	C	0.901535	0.901086	0.406428
	C212	C	0.595390	0.093199	0.901818
	C213	C	0.402402	0.095173	0.093532
	C214	C	0.594460	0.898284	0.098487
	C215	C	0.402086	0.904821	0.900511
	Zn216	Zn	0.499617	-0.002793	0.751049
	Zn217	Zn	0.497985	-0.003715	0.246496
	Zn218	Zn	0.749986	0.495770	-0.002383
	Zn219	Zn	0.249358	0.498101	-0.001034
	Zn220	Zn	-0.001097	0.745895	0.497792
	Zn221	Zn	-0.001975	0.251847	0.497715
	Zn222	Zn	-0.001125	0.497753	0.744964
	Zn223	Zn	-0.000119	0.499767	0.249538
	Zn224	Zn	0.497356	0.751655	-0.002142
	Zn225	Zn	0.499416	0.244190	-0.001762
	Zn226	Zn	0.748730	-0.001687	0.500308
	Zn227	Zn	0.249999	-0.003238	0.498535
	N228	N	0.410441	0.963253	0.681907
	N229	N	0.590798	0.031300	0.684675
	N230	N	0.587641	0.960830	0.318298
	N231	N	0.406164	0.031375	0.312851
	N232	N	0.677223	0.410903	0.961143
	N233	N	0.674468	0.577796	0.036164
	N234	N	0.319726	0.584338	0.960695
	N235	N	0.326806	0.416389	0.036501
	N236	N	0.961838	0.677134	0.410905
	N237	N	0.036383	0.672512	0.581286
	N238	N	0.960672	0.322826	0.582566
	N239	N	0.035091	0.321894	0.412691
	N240	N	0.962315	0.411280	0.676680
	N241	N	0.034772	0.584105	0.675551
	N242	N	0.963124	0.588220	0.317350
	N243	N	0.036581	0.415430	0.323257
	N244	N	0.406394	0.684232	0.963067
	N245	N	0.586330	0.678509	0.033907
	N246	N	0.590435	0.311372	0.963694
	N247	N	0.411606	0.315114	0.033234
	N248	N	0.673490	0.958638	0.419743
	N249	N	0.675100	0.035341	0.583972
	N250	N	0.327376	0.958749	0.579891
	N251	N	0.321273	0.034410	0.413428
	N252	N	0.909974	0.464772	0.181306
	N253	N	0.090084	0.533576	0.181819
	N254	N	0.090259	0.462921	0.814435
	N255	N	0.907509	0.532360	0.812580
	N256	N	0.177446	0.911801	0.461503
	N257	N	0.174560	0.078986	0.536579
	N258	N	0.818153	0.085484	0.462152
	N259	N	0.827959	0.918709	0.538136
	N260	N	0.462038	0.175970	0.911511
	N261	N	0.537234	0.171009	0.082329
	N262	N	0.460363	0.821158	0.083459
	N263	N	0.534897	0.821716	0.914368
	N264	N	0.461707	0.909446	0.177958
	N265	N	0.534952	0.081823	0.176542
	N266	N	0.462616	0.085587	0.818889
	N267	N	0.535662	0.911640	0.823002
	N268	N	0.906836	0.184104	0.463067
	N269	N	0.087571	0.180249	0.533712
	N270	N	0.089187	0.813762	0.463674
	N271	N	0.909651	0.815129	0.532710
	N272	N	0.175209	0.459666	0.916611
	N273	N	0.175057	0.536585	0.081411
	N274	N	0.828247	0.458244	0.077947
	N275	N	0.819829	0.533979	0.911342
	O276	O	-0.052971	0.133253	-0.076624
	H277	H	-0.067168	0.154692	-0.092505
	H278	H	-0.063696	0.124612	-0.078577
	O279	O	1.090824	0.074711	0.914039
	H280	H	1.079003	0.089112	0.902234
	H281	H	1.073745	0.086151	0.913877
	O282	O	1.132122	-0.083434	0.001045
	H283	H	1.149541	-0.083125	-0.013291
	H284	H	1.129337	-0.081219	-0.011633
	O285	O	0.039213	1.147576	-0.053211
	H286	H	0.027679	1.150665	-0.050988
	H287	H	0.032225	1.147610	-0.073341
	O288	O	0.536396	0.641612	0.353196
	H289	H	0.527709	0.647800	0.346565
	H290	H	0.532343	0.639263	0.343593
	O291	O	0.508727	0.615282	0.520075
	H292	H	0.487904	0.620727	0.511620
	H293	H	0.520873	0.611115	0.518986
	O294	O	1.001832	1.093072	0.855176
	H295	H	1.017086	1.094142	0.848746
	H296	H	0.977589	1.103046	0.850286
	O297	O	0.052315	0.073876	0.112923
	H298	H	0.059435	0.075639	0.108191
	H299	H	0.069531	0.051085	0.110754
	O300	O	0.425688	0.486668	0.396091
	H301	H	0.433754	0.488940	0.387492
	H302	H	0.428395	0.496041	0.395336
	O303	O	0.013733	0.906494	1.001950
	H304	H	0.017692	0.911185	0.996772
	H305	H	0.010189	0.916344	1.000478
	O306	O	0.632419	0.389648	0.499889
	H307	H	0.619470	0.396959	0.505876
	H308	H	0.626781	0.379723	0.497100
	O309	O	0.938147	-0.121748	0.093325
	H310	H	0.932999	-0.117809	0.092243
	H311	H	0.938482	-0.119485	0.079403
	O312	O	-0.049113	-0.134787	0.933615
	H313	H	-0.041128	-0.133717	0.947492
	H314	H	-0.035399	-0.147003	0.921692
	O315	O	0.570981	0.553859	0.567494
	H316	H	0.558543	0.561194	0.560688
	H317	H	0.569210	0.538151	0.552757
	O318	O	0.506305	0.574130	0.600151
	H319	H	0.510215	0.576087	0.597640
	H320	H	0.508285	0.579510	0.598124
	O321	O	0.553405	0.462459	0.490455
	H322	H	0.550231	0.459962	0.499902
	H323	H	0.547405	0.458166	0.494061
	O324	O	0.571681	0.608652	0.472628
	H325	H	0.561948	0.608782	0.447557
	H326	H	0.584978	0.608503	0.471313
	O327	O	-0.102794	0.819975	1.131782
	H328	H	-0.116343	0.820962	1.120482
	H329	H	-0.106185	0.818144	1.130939
	O330	O	0.546176	0.538477	0.417143
	H331	H	0.545989	0.527676	0.416491
	H332	H	0.548211	0.531950	0.414057
	O333	O	-0.190193	1.068763	0.828501
	H334	H	-0.206754	1.067198	0.824428
	H335	H	-0.202242	1.072833	0.841186
	O336	O	0.875022	0.931249	0.966299
	H337	H	0.878683	0.921379	0.967560
	H338	H	0.883056	0.935090	0.969201
	O339	O	0.525604	0.446822	0.664387
	H340	H	0.530141	0.457834	0.680781
	H341	H	0.517929	0.447440	0.663693
	O342	O	0.884821	0.147915	-0.102656
	H343	H	0.908302	0.145190	-0.088013
	H344	H	0.882311	0.152438	-0.095125
	O345	O	0.438397	0.375508	0.556577
	H346	H	0.445583	0.361878	0.553438
	H347	H	0.437806	0.388285	0.552194
	O348	O	1.056355	1.079588	1.036402
	H349	H	1.052650	1.088236	1.033850
	H350	H	1.070776	1.083143	1.041356
	O351	O	1.012641	0.813642	-0.132183
	H352	H	1.031808	0.815542	-0.125509
	H353	H	1.021102	0.815391	-0.150440
	O354	O	0.438037	0.533936	0.626521
	H355	H	0.438051	0.530337	0.633743
	H356	H	0.434888	0.538459	0.631691
	O357	O	0.561847	0.344370	0.543793
	H358	H	0.563246	0.358023	0.544335
	H359	H	0.552109	0.334394	0.549796
	O360	O	-0.062078	0.028920	0.089343
	H361	H	-0.053239	0.011656	0.093298
	H362	H	-0.075787	0.030989	0.098461
	O363	O	0.462750	0.371656	0.459034
	H364	H	0.458002	0.365391	0.464954
	H365	H	0.473724	0.373832	0.446972
	O366	O	0.411753	0.523077	0.502991
	H367	H	0.431356	0.516938	0.511317
	H368	H	0.415253	0.524826	0.504573
	O369	O	0.493432	0.324524	0.412133
	H370	H	0.507791	0.317428	0.403224
	H371	H	0.493630	0.323686	0.409195
	O372	O	0.445380	0.588445	0.519169
	H373	H	0.438414	0.594674	0.524394
	H374	H	0.448219	0.582037	0.522772
	O375	O	0.340999	0.571148	0.406000
	H376	H	0.344681	0.572356	0.419226
	H377	H	0.338203	0.572466	0.410430
	O378	O	0.414883	0.568161	0.358649
	H379	H	0.408673	0.579346	0.340339
	H380	H	0.408565	0.580803	0.358634
	O381	O	0.508207	0.494950	0.608443
	H382	H	0.508363	0.499797	0.623447
	H383	H	0.508704	0.497983	0.605479
	O384	O	0.041791	1.034545	0.132189
	H385	H	0.037884	1.037471	0.131505
	H386	H	0.024925	1.025075	0.129697
	O387	O	0.933863	0.051671	1.151994
	H388	H	0.954332	0.030624	1.160504
	H389	H	0.940037	0.046767	1.156133
	O390	O	0.132397	1.029414	0.060558
	H391	H	0.136555	1.022244	0.075674
	H392	H	0.133395	1.035522	0.067015
	O393	O	0.881841	1.092298	-0.126124
	H394	H	0.876089	1.079115	-0.125424
	H395	H	0.870466	1.092209	-0.115962
	O396	O	0.591076	0.391059	0.392496
	H397	H	0.594160	0.387990	0.398580
	H398	H	0.602104	0.394606	0.385592
	O399	O	0.162521	0.985179	1.044641
	H400	H	0.170630	0.989041	1.047728
	H401	H	0.155869	1.002363	1.050112
	O402	O	1.062677	0.984122	0.926655
	H403	H	1.074708	0.986184	0.920650
	H404	H	1.058314	0.989891	0.924714
	O405	O	0.066753	0.838923	0.198306
	H406	H	0.053760	0.825475	0.209687
	H407	H	0.060387	0.837068	0.185551
