data_Molecule from HDF5

_cell_length_a		16.553152
_cell_length_b		16.568016
_cell_length_c		16.614265
_cell_angle_alpha	89.872001
_cell_angle_beta	89.915757
_cell_angle_gamma	90.027748
_symmetry_space_group_name_H-M	'P 1'
_symmetry_Int_Tables_number		1

loop_
	_symmetry_equiv_pos_as_xyz
	x,y,z

loop_
	_atom_site_label
	_atom_site_type_symbol
	_atom_site_fract_x
	_atom_site_fract_y
	_atom_site_fract_z
	H0	H	0.406585	0.837754	0.737466
	H1	H	0.619816	0.149302	0.736627
	H2	H	0.621267	0.838315	0.292432
	H3	H	0.412041	0.149810	0.293074
	H4	H	0.738522	0.386560	0.859461
	H5	H	0.735947	0.599832	0.168577
	H6	H	0.289761	0.602124	0.858992
	H7	H	0.294254	0.390663	0.170433
	H8	H	0.855418	0.713643	0.413441
	H9	H	0.170659	0.716963	0.620127
	H10	H	0.860487	0.269406	0.623047
	H11	H	0.168632	0.272743	0.407706
	H12	H	0.860137	0.385767	0.739346
	H13	H	0.170203	0.601829	0.737623
	H14	H	0.856117	0.599422	0.295216
	H15	H	0.170312	0.393326	0.295284
	H16	H	0.405224	0.718973	0.859263
	H17	H	0.620741	0.717284	0.167696
	H18	H	0.621342	0.270418	0.859117
	H19	H	0.409534	0.272650	0.169775
	H20	H	0.736405	0.837676	0.410469
	H21	H	0.737418	0.149106	0.621376
	H22	H	0.291953	0.837382	0.619809
	H23	H	0.291348	0.147357	0.405641
	H24	H	0.909115	0.339119	0.235634
	H25	H	0.115549	0.652962	0.231416
	H26	H	0.121991	0.339868	0.790894
	H27	H	0.906243	0.649857	0.789821
	H28	H	0.232881	0.892329	0.357355
	H29	H	0.239983	0.102376	0.667596
	H30	H	0.794096	0.098353	0.359687
	H31	H	0.790505	0.885904	0.670735
	H32	H	0.357193	0.213826	0.910012
	H33	H	0.670960	0.214603	0.116975
	H34	H	0.357898	0.773592	0.119610
	H35	H	0.668994	0.770350	0.906911
	H36	H	0.359704	0.888695	0.236750
	H37	H	0.672206	0.097292	0.232321
	H38	H	0.358026	0.100340	0.791212
	H39	H	0.668749	0.885024	0.789688
	H40	H	0.909191	0.216283	0.359295
	H41	H	0.125551	0.221071	0.666473
	H42	H	0.116118	0.775485	0.357657
	H43	H	0.908318	0.771789	0.671624
	H44	H	0.235694	0.338309	0.909253
	H45	H	0.233149	0.651972	0.115575
	H46	H	0.794355	0.337626	0.117544
	H47	H	0.791093	0.650561	0.907840
	H48	H	0.433568	0.102807	0.604410
	H49	H	0.599664	0.882689	0.604736
	H50	H	0.598328	0.104355	0.421193
	H51	H	0.428262	0.882559	0.426912
	H52	H	0.598093	0.403823	0.124039
	H53	H	0.597195	0.580638	0.904460
	H54	H	0.426799	0.588656	0.126457
	H55	H	0.418538	0.405797	0.899473
	H56	H	0.130435	0.593385	0.417154
	H57	H	0.901841	0.577965	0.612596
	H58	H	0.125710	0.409067	0.602424
	H59	H	0.900771	0.407551	0.421576
	H60	H	0.124999	0.407949	0.600416
	H61	H	0.900049	0.592269	0.600349
	H62	H	0.125007	0.589445	0.430668
	H63	H	0.899916	0.401995	0.426738
	H64	H	0.419147	0.581439	0.126452
	H65	H	0.600910	0.584557	0.901381
	H66	H	0.604810	0.401468	0.126530
	H67	H	0.428427	0.408797	0.904635
	H68	H	0.607155	0.104745	0.430891
	H69	H	0.600069	0.883858	0.598929
	H70	H	0.426292	0.102540	0.595496
	H71	H	0.423782	0.879934	0.425772
	H72	H	0.924952	0.607169	0.103733
	H73	H	0.103274	0.380744	0.110019
	H74	H	0.106067	0.607617	0.924792
	H75	H	0.933575	0.389693	0.935125
	H76	H	0.099436	0.908348	0.624557
	H77	H	0.096737	0.089318	0.402306
	H78	H	0.922479	0.079329	0.627256
	H79	H	0.916869	0.905248	0.402101
	H80	H	0.626601	0.084499	0.925796
	H81	H	0.402978	0.078872	0.104621
	H82	H	0.623621	0.908892	0.096857
	H83	H	0.403520	0.912824	0.923860
	H84	H	0.627820	0.907909	0.108856
	H85	H	0.400357	0.084286	0.108571
	H86	H	0.623715	0.079570	0.928207
	H87	H	0.399550	0.902190	0.923757
	H88	H	0.931383	0.078433	0.624432
	H89	H	0.110549	0.083732	0.399049
	H90	H	0.101998	0.901621	0.627176
	H91	H	0.929096	0.910704	0.407546
	H92	H	0.096552	0.605563	0.923496
	H93	H	0.100229	0.383271	0.104072
	H94	H	0.922442	0.606419	0.102335
	H95	H	0.917376	0.381150	0.930185
	H96	H	0.422704	0.106773	0.605704
	H97	H	0.604656	0.881484	0.601760
	H98	H	0.609783	0.109628	0.419487
	H99	H	0.427125	0.880974	0.421701
	H100	H	0.603710	0.408524	0.124242
	H101	H	0.603306	0.579057	0.903024
	H102	H	0.428348	0.578911	0.122159
	H103	H	0.427020	0.398224	0.900922
	H104	H	0.125636	0.579029	0.419402
	H105	H	0.908647	0.576771	0.594741
	H106	H	0.124229	0.410264	0.600625
	H107	H	0.902507	0.408971	0.428682
	H108	H	0.922872	0.609056	0.104521
	H109	H	0.107445	0.381379	0.104003
	H110	H	0.101037	0.603610	0.931917
	H111	H	0.931688	0.381792	0.917613
	H112	H	0.107090	0.907399	0.626968
	H113	H	0.100480	0.075651	0.406944
	H114	H	0.928590	0.086685	0.627218
	H115	H	0.928808	0.897541	0.403082
	H116	H	0.625359	0.079394	0.921917
	H117	H	0.401491	0.085074	0.101031
	H118	H	0.628673	0.898036	0.100677
	H119	H	0.405420	0.906273	0.932593
	C120	C	0.393084	0.001673	0.635463
	C121	C	0.635084	0.985459	0.635532
	C122	C	0.637131	0.002706	0.392488
	C123	C	0.394171	0.984631	0.392375
	C124	C	0.635823	0.371488	0.022658
	C125	C	0.633997	0.614567	1.005224
	C126	C	0.391636	0.616091	0.022327
	C127	C	0.392925	0.372691	1.005336
	C128	C	0.022435	0.617697	0.392500
	C129	C	1.006520	0.615596	0.635325
	C130	C	0.023136	0.373850	0.635560
	C131	C	1.005003	0.374498	0.393512
	C132	C	0.891991	0.503717	0.135504
	C133	C	0.134937	0.486220	0.135856
	C134	C	0.135082	0.503121	0.893320
	C135	C	0.893095	0.486449	0.893348
	C136	C	0.135096	0.873560	0.523009
	C137	C	0.136739	0.116428	0.504851
	C138	C	0.894212	0.114720	0.523414
	C139	C	0.892289	0.872065	0.507114
	C140	C	0.522207	0.114481	0.892527
	C141	C	0.505705	0.114539	0.135265
	C142	C	0.523441	0.872814	0.135040
	C143	C	0.504995	0.872699	0.892622
	C144	C	0.388962	0.884583	0.696860
	C145	C	0.638272	0.102538	0.696376
	C146	C	0.639452	0.884980	0.332849
	C147	C	0.392479	0.102448	0.332379
	C148	C	0.697342	0.368704	0.905794
	C149	C	0.695350	0.617941	0.121863
	C150	C	0.330430	0.619659	0.905656
	C151	C	0.333740	0.371543	0.123297
	C152	C	0.903070	0.675013	0.393566
	C153	C	0.123848	0.676556	0.638254
	C154	C	0.906750	0.311029	0.640176
	C155	C	0.122453	0.314370	0.390554
	C156	C	0.906634	0.368705	0.698012
	C157	C	0.123569	0.619325	0.696726
	C158	C	0.903494	0.618328	0.334783
	C159	C	0.123133	0.373871	0.334458
	C160	C	0.387902	0.677883	0.905726
	C161	C	0.637884	0.675969	0.121702
	C162	C	0.639163	0.310987	0.905683
	C163	C	0.391251	0.313043	0.122912
	C164	C	0.696494	0.884709	0.391376
	C165	C	0.696456	0.102595	0.638887
	C166	C	0.332080	0.884317	0.638297
	C167	C	0.333194	0.101642	0.388807
	C168	C	0.890743	0.385896	0.195321
	C169	C	0.135175	0.605455	0.192647
	C170	C	0.139077	0.386059	0.832024
	C171	C	0.888818	0.603361	0.831113
	C172	C	0.193557	0.872766	0.404564
	C173	C	0.199173	0.120658	0.620939
	C174	C	0.833952	0.116976	0.406262
	C175	C	0.831441	0.868681	0.624235
	C176	C	0.404306	0.174351	0.890947
	C177	C	0.623974	0.174406	0.135993
	C178	C	0.405263	0.813418	0.137908
	C179	C	0.622044	0.810984	0.889055
	C180	C	0.406015	0.870532	0.196118
	C181	C	0.624727	0.116172	0.193237
	C182	C	0.404687	0.117692	0.832091
	C183	C	0.622026	0.868117	0.830645
	C184	C	0.891123	0.175556	0.406225
	C185	C	0.142266	0.179509	0.620534
	C186	C	0.135698	0.814707	0.404887
	C187	C	0.890031	0.811776	0.624521
	C188	C	0.195952	0.385484	0.890473
	C189	C	0.193426	0.604927	0.135070
	C190	C	0.833537	0.385163	0.136812
	C191	C	0.831460	0.603597	0.889612
	C192	C	0.419670	0.082940	0.609199
	C193	C	0.608855	0.903968	0.609432
	C194	C	0.612190	0.084922	0.416933
	C195	C	0.419147	0.902434	0.417711
	C196	C	0.609708	0.397181	0.103752
	C197	C	0.607972	0.588641	0.924184
	C198	C	0.417487	0.590239	0.103887
	C199	C	0.417401	0.397318	0.922954
	C200	C	0.105577	0.594162	0.415792
	C201	C	0.924753	0.589752	0.609707
	C202	C	0.103948	0.401224	0.608729
	C203	C	0.922489	0.399064	0.418637
	C204	C	0.916403	0.586319	0.110587
	C205	C	0.110628	0.403313	0.112471
	C206	C	0.108820	0.584370	0.919271
	C207	C	0.919803	0.405372	0.919921
	C208	C	0.110229	0.898618	0.604943
	C209	C	0.110156	0.090292	0.424008
	C210	C	0.920085	0.088977	0.605007
	C211	C	0.917771	0.897357	0.425434
	C212	C	0.604025	0.088468	0.917863
	C213	C	0.423171	0.089836	0.111578
	C214	C	0.605413	0.897738	0.109454
	C215	C	0.423865	0.899555	0.919087
	Zn216	Zn	0.513466	-0.006472	0.764290
	Zn217	Zn	0.515509	-0.006318	0.264082
	Zn218	Zn	0.763477	0.494389	0.013579
	Zn219	Zn	0.263757	0.494156	0.013878
	Zn220	Zn	0.013918	0.744613	0.515266
	Zn221	Zn	0.014603	0.244772	0.514319
	Zn222	Zn	0.014468	0.494938	0.764471
	Zn223	Zn	0.013121	0.495662	0.264394
	Zn224	Zn	0.513336	0.744048	0.013857
	Zn225	Zn	0.513756	0.243162	0.013356
	Zn226	Zn	0.764522	-0.006438	0.515377
	Zn227	Zn	0.265358	-0.005984	0.513976
	N228	N	0.426077	0.958535	0.695276
	N229	N	0.600886	0.028540	0.694425
	N230	N	0.603385	0.959532	0.333148
	N231	N	0.429602	0.028504	0.334591
	N232	N	0.695398	0.405589	0.979542
	N233	N	0.692869	0.580311	0.048484
	N234	N	0.332674	0.582100	0.979220
	N235	N	0.334847	0.408244	0.049117
	N236	N	0.978254	0.675009	0.428650
	N237	N	0.050013	0.674359	0.600912
	N238	N	0.980297	0.313997	0.602004
	N239	N	0.047824	0.314586	0.426712
	N240	N	0.980006	0.407135	0.695266
	N241	N	0.049398	0.582116	0.695067
	N242	N	0.978723	0.583463	0.333986
	N243	N	0.048890	0.410479	0.336180
	N244	N	0.425388	0.675650	0.979344
	N245	N	0.600304	0.674177	0.048171
	N246	N	0.601576	0.312527	0.979294
	N247	N	0.427170	0.313747	0.048480
	N248	N	0.695354	0.958974	0.427587
	N249	N	0.694501	0.028643	0.601695
	N250	N	0.334307	0.958403	0.600999
	N251	N	0.334208	0.027342	0.425519
	N252	N	0.926036	0.460845	0.194859
	N253	N	0.099868	0.530381	0.193681
	N254	N	0.101816	0.460132	0.833618
	N255	N	0.926460	0.529482	0.833340
	N256	N	0.193316	0.908489	0.479139
	N257	N	0.196116	0.082303	0.547883
	N258	N	0.835563	0.079955	0.480388
	N259	N	0.832646	0.905403	0.550185
	N260	N	0.478603	0.172609	0.927589
	N261	N	0.548892	0.173761	0.100785
	N262	N	0.479227	0.814622	0.100587
	N263	N	0.548250	0.813635	0.926873
	N264	N	0.480648	0.906527	0.194791
	N265	N	0.550262	0.079771	0.193028
	N266	N	0.479176	0.081297	0.832905
	N267	N	0.548184	0.905686	0.832765
	N268	N	0.927678	0.174430	0.480289
	N269	N	0.104306	0.177213	0.547264
	N270	N	0.100342	0.814820	0.479656
	N271	N	0.927073	0.813779	0.550654
	N272	N	0.193909	0.459292	0.927646
	N273	N	0.193830	0.529535	0.100999
	N274	N	0.833957	0.459624	0.100400
	N275	N	0.833689	0.529802	0.927134
	O276	O	-0.048711	0.807191	-0.075776
	H277	H	-0.053537	0.817599	-0.065648
	H278	H	-0.033272	0.803375	-0.084030
	O279	O	0.291224	0.670875	0.495099
	H280	H	0.271190	0.687211	0.495376
	H281	H	0.283721	0.655352	0.488127
	O282	O	1.588633	0.444391	0.439127
	H283	H	1.599718	0.445965	0.448415
	H284	H	1.567465	0.438749	0.434512
	O285	O	0.392006	0.542584	0.504726
	H286	H	0.391901	0.544456	0.500537
	H287	H	0.396981	0.535103	0.508646
	O288	O	-0.207445	1.214288	0.222482
	H289	H	-0.218173	1.196295	0.216418
	H290	H	-0.193517	1.195308	0.194275
	O291	O	0.489609	0.699512	0.721921
	H292	H	0.493641	0.695303	0.700751
	H293	H	0.485511	0.714772	0.730293
	O294	O	1.207483	-0.202868	0.820397
	H295	H	1.222899	-0.182090	0.819327
	H296	H	1.212253	-0.186832	0.839227
	O297	O	0.363412	0.501591	0.514612
	H298	H	0.367046	0.513446	0.520279
	H299	H	0.359755	0.514168	0.527449
	O300	O	-0.192646	0.200654	0.805131
	H301	H	-0.180087	0.181508	0.816505
	H302	H	-0.198548	0.212222	0.789417
	O303	O	0.549511	0.513017	0.305497
	H304	H	0.575368	0.510814	0.301674
	H305	H	0.535002	0.508109	0.298511
	O306	O	0.560436	0.265216	0.574576
	H307	H	0.557222	0.266616	0.561055
	H308	H	0.578680	0.264598	0.566727
	O309	O	0.732999	0.518904	0.732869
	H310	H	0.725659	0.524509	0.720451
	H311	H	0.759952	0.525891	0.755798
	O312	O	0.619319	0.280835	0.335706
	H313	H	0.614534	0.278887	0.324452
	H314	H	0.600778	0.279562	0.315364
	O315	O	0.910722	1.127239	1.188121
	H316	H	0.910250	1.098971	1.183028
	H317	H	0.919012	1.113145	1.182916
	O318	O	0.420057	0.586246	0.672126
	H319	H	0.430716	0.577018	0.673450
	H320	H	0.434184	0.591959	0.674748
	O321	O	0.106832	1.197749	0.957407
	H322	H	0.103080	1.193193	0.957987
	H323	H	0.122416	1.207450	0.967415
	O324	O	0.985999	1.072750	0.140789
	H325	H	1.002456	1.065957	0.147056
	H326	H	0.999726	1.055437	0.143702
	O327	O	0.085395	-0.197834	1.078470
	H328	H	0.071412	-0.202021	1.093166
	H329	H	0.063736	-0.188073	1.061391
	O330	O	1.045669	0.208326	0.230782
	H331	H	1.060356	0.210002	0.239493
	H332	H	1.040496	0.214818	0.241550
	O333	O	0.376435	0.417328	0.518741
	H334	H	0.370992	0.436686	0.530661
	H335	H	0.394299	0.426153	0.507455
	O336	O	0.639101	0.525947	0.600290
	H337	H	0.634985	0.526609	0.599403
	H338	H	0.646187	0.518699	0.598544
	O339	O	1.228769	-0.036044	0.797588
	H340	H	1.228187	-0.021242	0.783894
	H341	H	1.225175	-0.019009	0.785447
	O342	O	-0.303276	-0.312908	0.342901
	H343	H	-0.311108	-0.331564	0.366193
	H344	H	-0.329944	-0.325603	0.348410
	O345	O	0.485505	1.277796	0.732227
	H346	H	0.505062	1.270139	0.727393
	H347	H	0.481969	1.259457	0.741094
	O348	O	-0.406550	0.428371	0.326932
	H349	H	-0.438539	0.430517	0.320113
	H350	H	-0.394650	0.406969	0.313083
	O351	O	0.505317	0.697452	0.425580
	H352	H	0.499418	0.699404	0.416388
	H353	H	0.488947	0.701599	0.403682
	O354	O	-0.206986	-0.094356	0.969290
	H355	H	-0.198497	-0.089185	0.956234
	H356	H	-0.215100	-0.071477	0.957121
	O357	O	0.566151	0.460583	0.716893
	H358	H	0.583484	0.459034	0.717209
	H359	H	0.577359	0.447817	0.715974
	O360	O	-0.190917	-0.214021	1.221912
	H361	H	-0.223133	-0.239498	1.242125
	H362	H	-0.199233	-0.210160	1.186888
	O363	O	-0.166019	-0.047266	-0.169610
	H364	H	-0.161565	-0.048606	-0.174576
	H365	H	-0.157653	-0.044179	-0.187599
	O366	O	0.418506	0.640290	0.298206
	H367	H	0.410580	0.646279	0.301586
	H368	H	0.398407	0.648631	0.270664
	O369	O	0.836684	-0.194503	0.071852
	H370	H	0.822171	-0.202734	0.067110
	H371	H	0.835968	-0.174120	0.056617
	O372	O	1.042307	0.782835	-0.198950
	H373	H	1.070490	0.776566	-0.204261
	H374	H	1.059902	0.765886	-0.207985
	O375	O	0.915153	0.156108	0.054736
	H376	H	0.912805	0.167870	0.048952
	H377	H	0.931881	0.150481	0.059620
	O378	O	0.354360	0.312012	0.716774
	H379	H	0.383587	0.313163	0.722134
	H380	H	0.354486	0.338936	0.705237
	O381	O	0.295053	0.272632	0.527935
	H382	H	0.294997	0.287064	0.552302
	H383	H	0.270602	0.248425	0.552256
	O384	O	0.707461	0.707399	0.559202
	H385	H	0.695184	0.716242	0.563742
	H386	H	0.728836	0.713997	0.558472
	O387	O	0.980675	0.774908	0.235290
	H388	H	0.972790	0.748607	0.259202
	H389	H	0.937256	0.776009	0.235548
	O390	O	0.504191	0.378120	0.301285
	H391	H	0.484011	0.386334	0.305222
	H392	H	0.493765	0.385816	0.307501
	O393	O	0.478697	0.562322	0.578587
	H394	H	0.499161	0.563431	0.591713
	H395	H	0.469808	0.555265	0.577724
	O396	O	0.084358	1.049064	0.792554
	H397	H	0.074743	1.062048	0.799953
	H398	H	0.062408	1.034118	0.790813
	O399	O	0.471491	0.281277	1.462530
	H400	H	0.465375	0.278413	1.469536
	H401	H	0.460532	0.283531	1.463325
	O402	O	0.222754	0.178843	0.819990
	H403	H	0.236095	0.215517	0.806070
	H404	H	0.203354	0.161731	0.834389
	O405	O	0.868623	-0.002393	1.145624
	H406	H	0.860239	-0.012098	1.146821
	H407	H	0.855178	-0.019559	1.147690
	O408	O	-0.144183	-0.086111	-0.149808
	H409	H	-0.145978	-0.077596	-0.142915
	H410	H	-0.140279	-0.087927	-0.153782
	O411	O	0.226277	1.027723	0.225119
	H412	H	0.219501	1.021792	0.216932
	H413	H	0.241700	1.030093	0.241233
	O414	O	0.220662	0.202902	0.223603
	H415	H	0.223717	0.182926	0.235801
	H416	H	0.225669	0.217978	0.230838
	O417	O	0.507460	0.510555	0.473482
	H418	H	0.515075	0.502797	0.464365
	H419	H	0.510627	0.511039	0.470739
	O420	O	0.499616	0.458824	0.599161
	H421	H	0.503203	0.472825	0.597637
	H422	H	0.514151	0.444902	0.604919
	O423	O	-0.188066	-0.003367	1.124217
	H424	H	-0.192712	-0.002817	1.119132
	H425	H	-0.177749	-0.012670	1.134282
	O426	O	1.038952	0.050454	0.024068
	H427	H	1.044264	0.043380	0.038116
	H428	H	1.044104	0.050820	0.022289
	O429	O	1.183145	0.914847	1.046305
	H430	H	1.186357	0.915110	1.035749
	H431	H	1.179734	0.929441	1.031564
	O432	O	0.828485	0.175085	-0.032564
	H433	H	0.844469	0.170248	-0.042006
	H434	H	0.810134	0.194195	-0.040747
	O435	O	0.183411	0.847251	0.203247
	H436	H	0.179885	0.867626	0.175846
	H437	H	0.158803	0.859385	0.190230
	O438	O	0.195888	-0.222216	-0.017512
	H439	H	0.201876	-0.225431	-0.021890
	H440	H	0.194380	-0.233117	0.000713
	O441	O	0.227062	0.212150	0.053337
	H442	H	0.236177	0.211759	0.064605
	H443	H	0.237079	0.223766	0.072107
	O444	O	0.701355	0.523398	0.441761
	H445	H	0.706247	0.517963	0.441129
	H446	H	0.706348	0.524189	0.428017
	O447	O	-0.026404	1.041710	1.142594
	H448	H	-0.047790	1.038353	1.151409
	H449	H	-0.021670	1.055329	1.155713
	O450	O	0.027105	0.965861	0.992977
	H451	H	0.007540	0.979771	0.996532
	H452	H	0.016523	0.951463	0.994577
	O453	O	0.732152	0.334500	0.523319
	H454	H	0.736795	0.333175	0.504829
	H455	H	0.746282	0.329948	0.514173
	O456	O	-0.658741	0.503562	0.719632
	H457	H	-0.642153	0.521800	0.725405
	H458	H	-0.670629	0.504257	0.739895
	O459	O	0.732318	0.463052	0.297809
	H460	H	0.729139	0.425224	0.300958
	H461	H	0.757459	0.453065	0.274525
	O462	O	0.510583	0.706699	0.517442
	H463	H	0.508750	0.691246	0.512647
	H464	H	0.488426	0.717955	0.504440
	O465	O	0.991378	0.207533	-0.207365
	H466	H	0.988723	0.229943	-0.223233
	H467	H	0.988989	0.209868	-0.191159
	O468	O	0.280301	0.727408	0.282720
	H469	H	0.269488	0.717212	0.303780
	H470	H	0.252579	0.760113	0.253272
	O471	O	0.699760	0.332270	0.695285
	H472	H	0.702311	0.334630	0.673638
	H473	H	0.695644	0.340196	0.680230
	O474	O	0.328343	0.539146	0.354649
	H475	H	0.323038	0.549719	0.363856
	H476	H	0.312786	0.527800	0.342975
	O477	O	0.327973	0.300388	1.326080
	H478	H	0.338581	0.324493	1.343570
	H479	H	0.335851	0.295716	1.343642
	O480	O	-0.027476	0.955728	-0.177395
	H481	H	-0.031956	0.931085	-0.182048
	H482	H	-0.027425	0.952532	-0.168331
	O483	O	0.711805	0.691567	0.717628
	H484	H	0.714216	0.675894	0.690831
	H485	H	0.694088	0.700973	0.728171
	O486	O	-0.024422	0.944087	0.021111
	H487	H	-0.019734	0.948026	0.025948
	H488	H	-0.019504	0.935648	0.025832
	O489	O	1.232390	1.036411	-0.015833
	H490	H	1.228506	1.050577	-0.021582
	H491	H	1.230329	1.034667	-0.029139
