data_Molecule from HDF5

_cell_length_a		16.614238
_cell_length_b		16.516244
_cell_length_c		16.469343
_cell_angle_alpha	90.095490
_cell_angle_beta	89.954849
_cell_angle_gamma	90.118874
_symmetry_space_group_name_H-M	'P 1'
_symmetry_Int_Tables_number		1

loop_
	_symmetry_equiv_pos_as_xyz
	x,y,z

loop_
	_atom_site_label
	_atom_site_type_symbol
	_atom_site_fract_x
	_atom_site_fract_y
	_atom_site_fract_z
	H0	H	0.396881	0.867324	0.735716
	H1	H	0.611009	0.179544	0.739523
	H2	H	0.608801	0.868180	0.291506
	H3	H	0.401490	0.181839	0.296266
	H4	H	0.726818	0.413940	0.856836
	H5	H	0.725322	0.630151	0.168786
	H6	H	0.280904	0.629022	0.856304
	H7	H	0.280039	0.417101	0.169195
	H8	H	0.846255	0.744876	0.407280
	H9	H	0.156804	0.746000	0.619010
	H10	H	0.846558	0.296554	0.623281
	H11	H	0.159372	0.303455	0.410576
	H12	H	0.846975	0.413118	0.739568
	H13	H	0.157378	0.627998	0.734754
	H14	H	0.847011	0.627177	0.291332
	H15	H	0.160306	0.422265	0.295384
	H16	H	0.397115	0.745804	0.856739
	H17	H	0.609396	0.745733	0.169076
	H18	H	0.610098	0.299101	0.856404
	H19	H	0.397858	0.303183	0.170033
	H20	H	0.725323	0.868466	0.406794
	H21	H	0.729305	0.178737	0.626354
	H22	H	0.279834	0.868220	0.621277
	H23	H	0.284521	0.181706	0.411881
	H24	H	0.899742	0.365401	0.232425
	H25	H	0.106446	0.680858	0.232506
	H26	H	0.105180	0.365384	0.792576
	H27	H	0.895293	0.679767	0.790695
	H28	H	0.222005	0.919335	0.356287
	H29	H	0.222966	0.128316	0.671115
	H30	H	0.780049	0.129311	0.357258
	H31	H	0.775890	0.913271	0.669623
	H32	H	0.347962	0.244819	0.908995
	H33	H	0.658638	0.247318	0.121773
	H34	H	0.346758	0.802184	0.118657
	H35	H	0.659699	0.800844	0.906868
	H36	H	0.346410	0.920313	0.233526
	H37	H	0.658592	0.129326	0.236623
	H38	H	0.347871	0.127214	0.792825
	H39	H	0.658603	0.916608	0.790174
	H40	H	0.897616	0.242879	0.355579
	H41	H	0.106560	0.244949	0.670777
	H42	H	0.104310	0.804993	0.355580
	H43	H	0.893565	0.799444	0.670677
	H44	H	0.223645	0.366848	0.906713
	H45	H	0.223532	0.680254	0.116736
	H46	H	0.779945	0.367131	0.120256
	H47	H	0.778433	0.678429	0.904521
	H48	H	0.406436	0.137527	0.599626
	H49	H	0.587964	0.914409	0.598132
	H50	H	0.592641	0.137926	0.423618
	H51	H	0.412887	0.910866	0.424873
	H52	H	0.581224	0.434511	0.122331
	H53	H	0.593247	0.605373	0.901611
	H54	H	0.414075	0.609503	0.124147
	H55	H	0.413738	0.435073	0.900546
	H56	H	0.112113	0.607631	0.424944
	H57	H	0.889065	0.606838	0.607647
	H58	H	0.113400	0.430517	0.600945
	H59	H	0.888056	0.433459	0.415380
	H60	H	0.109425	0.436935	0.597583
	H61	H	0.888065	0.618818	0.600237
	H62	H	0.117927	0.616306	0.417017
	H63	H	0.887434	0.425021	0.425445
	H64	H	0.415691	0.613173	0.126057
	H65	H	0.585436	0.611756	0.902045
	H66	H	0.595987	0.428957	0.129270
	H67	H	0.415097	0.434127	0.899787
	H68	H	0.588667	0.135988	0.427064
	H69	H	0.590865	0.913693	0.598927
	H70	H	0.415519	0.138507	0.610187
	H71	H	0.408823	0.909774	0.425127
	H72	H	0.910723	0.635547	0.097311
	H73	H	0.090715	0.407660	0.112039
	H74	H	0.092275	0.634219	0.928579
	H75	H	0.911131	0.410322	0.927735
	H76	H	0.089876	0.933177	0.627079
	H77	H	0.094345	0.114629	0.399231
	H78	H	0.918220	0.114261	0.625853
	H79	H	0.912103	0.932845	0.400123
	H80	H	0.614404	0.106585	0.923980
	H81	H	0.391223	0.109175	0.107942
	H82	H	0.615732	0.931525	0.099886
	H83	H	0.394126	0.936070	0.926624
	H84	H	0.613353	0.937422	0.101118
	H85	H	0.388418	0.118739	0.106501
	H86	H	0.615448	0.114936	0.928340
	H87	H	0.391483	0.933651	0.922156
	H88	H	0.911495	0.108421	0.626669
	H89	H	0.094238	0.110735	0.400103
	H90	H	0.094138	0.933311	0.628829
	H91	H	0.911208	0.938846	0.402256
	H92	H	0.095115	0.637785	0.923193
	H93	H	0.088092	0.412925	0.096316
	H94	H	0.913037	0.636655	0.106219
	H95	H	0.917558	0.411369	0.923163
	H96	H	0.419371	0.132729	0.597927
	H97	H	0.588551	0.914239	0.601199
	H98	H	0.593495	0.136391	0.429310
	H99	H	0.411479	0.909316	0.421740
	H100	H	0.594711	0.445238	0.123124
	H101	H	0.594137	0.614264	0.897642
	H102	H	0.411196	0.612676	0.126435
	H103	H	0.413681	0.433741	0.899626
	H104	H	0.114949	0.619876	0.429085
	H105	H	0.892624	0.607241	0.593962
	H106	H	0.112961	0.437614	0.605239
	H107	H	0.892988	0.437545	0.427183
	H108	H	0.919189	0.633220	0.099955
	H109	H	0.103206	0.407528	0.100986
	H110	H	0.088453	0.635444	0.922710
	H111	H	0.917638	0.414576	0.930768
	H112	H	0.092036	0.937290	0.626676
	H113	H	0.090942	0.113287	0.400785
	H114	H	0.919057	0.105591	0.622649
	H115	H	0.916159	0.935203	0.404384
	H116	H	0.611624	0.108734	0.932806
	H117	H	0.392880	0.113425	0.099232
	H118	H	0.616482	0.934312	0.105696
	H119	H	0.391366	0.931023	0.927206
	C120	C	0.381324	0.032501	0.635365
	C121	C	0.623731	1.016302	0.634885
	C122	C	0.623941	0.033008	0.393620
	C123	C	0.381242	1.014663	0.393067
	C124	C	0.624044	0.402035	0.021489
	C125	C	0.624141	0.643736	1.003906
	C126	C	0.381903	0.643956	0.021515
	C127	C	0.381667	0.402061	1.003860
	C128	C	0.011268	0.645444	0.391496
	C129	C	0.992996	0.644152	0.634001
	C130	C	0.009458	0.401152	0.635155
	C131	C	0.993889	0.401445	0.391777
	C132	C	0.881710	0.531638	0.134063
	C133	C	0.125234	0.513823	0.134798
	C134	C	0.123725	0.531971	0.891640
	C135	C	0.881548	0.515030	0.892975
	C136	C	0.123186	0.902685	0.522893
	C137	C	0.124178	0.144996	0.504852
	C138	C	0.882483	0.143123	0.521811
	C139	C	0.879412	0.901726	0.505470
	C140	C	0.511571	0.143205	0.894229
	C141	C	0.494217	0.146222	0.136549
	C142	C	0.511418	0.902366	0.134442
	C143	C	0.494891	0.900779	0.891611
	C144	C	0.378808	0.914646	0.695647
	C145	C	0.628499	0.132759	0.698518
	C146	C	0.626971	0.915284	0.332013
	C147	C	0.381649	0.134142	0.335245
	C148	C	0.685874	0.397283	0.903850
	C149	C	0.684940	0.647518	0.121956
	C150	C	0.321511	0.647121	0.903275
	C151	C	0.320668	0.399310	0.122080
	C152	C	0.893528	0.705128	0.388883
	C153	C	0.110315	0.705125	0.637084
	C154	C	0.893273	0.338011	0.640114
	C155	C	0.112210	0.343134	0.391314
	C156	C	0.893312	0.396039	0.698281
	C157	C	0.110382	0.646946	0.694884
	C158	C	0.893664	0.646641	0.331171
	C159	C	0.112746	0.401956	0.334067
	C160	C	0.379163	0.705172	0.903604
	C161	C	0.627452	0.705066	0.121939
	C162	C	0.627726	0.340079	0.903736
	C163	C	0.379214	0.342510	0.122559
	C164	C	0.684880	0.915574	0.389575
	C165	C	0.687348	0.132446	0.641838
	C166	C	0.320113	0.915256	0.638991
	C167	C	0.323689	0.134052	0.392804
	C168	C	0.880443	0.413179	0.193477
	C169	C	0.125622	0.633327	0.193312
	C170	C	0.124626	0.413048	0.832055
	C171	C	0.877658	0.632480	0.830779
	C172	C	0.182054	0.901156	0.403645
	C173	C	0.183119	0.146868	0.623840
	C174	C	0.820798	0.146964	0.404080
	C175	C	0.817194	0.896739	0.623002
	C176	C	0.394565	0.204372	0.890679
	C177	C	0.611583	0.206945	0.139521
	C178	C	0.393870	0.842453	0.136846
	C179	C	0.612494	0.840588	0.888609
	C180	C	0.393631	0.901198	0.194136
	C181	C	0.611802	0.148183	0.196606
	C182	C	0.394520	0.146114	0.832987
	C183	C	0.612149	0.898241	0.830636
	C184	C	0.879351	0.203324	0.403110
	C185	C	0.125519	0.204720	0.623640
	C186	C	0.123395	0.844388	0.403230
	C187	C	0.875834	0.840202	0.623457
	C188	C	0.183427	0.413715	0.888847
	C189	C	0.183963	0.632909	0.136108
	C190	C	0.821046	0.413764	0.137300
	C191	C	0.819489	0.631890	0.887702
	C192	C	0.406795	0.115061	0.609862
	C193	C	0.596906	0.935081	0.607272
	C194	C	0.598742	0.115230	0.419376
	C195	C	0.404586	0.931607	0.416931
	C196	C	0.598151	0.428631	0.103388
	C197	C	0.598418	0.617765	0.921869
	C198	C	0.406645	0.618885	0.104022
	C199	C	0.406990	0.427156	0.921442
	C200	C	0.093496	0.621235	0.416455
	C201	C	0.911240	0.618210	0.608097
	C202	C	0.090803	0.427546	0.608597
	C203	C	0.911037	0.425082	0.415664
	C204	C	0.906944	0.613640	0.108492
	C205	C	0.100947	0.430920	0.110222
	C206	C	0.098834	0.614407	0.917187
	C207	C	0.907788	0.433532	0.919710
	C208	C	0.098812	0.927331	0.605912
	C209	C	0.099879	0.120255	0.421733
	C210	C	0.908507	0.116870	0.603430
	C211	C	0.905630	0.927851	0.423716
	C212	C	0.592821	0.117306	0.920784
	C213	C	0.412192	0.120894	0.111537
	C214	C	0.593769	0.927266	0.109452
	C215	C	0.413540	0.926325	0.917733
	Zn216	Zn	0.503188	0.023251	0.763523
	Zn217	Zn	0.503014	0.023645	0.264553
	Zn218	Zn	0.752542	0.523124	0.012800
	Zn219	Zn	0.252621	0.523214	0.012517
	Zn220	Zn	0.001365	0.774354	0.513731
	Zn221	Zn	0.001767	0.272290	0.513485
	Zn222	Zn	0.001306	0.523016	0.763804
	Zn223	Zn	0.003147	0.523189	0.262668
	Zn224	Zn	0.503550	0.772502	0.013214
	Zn225	Zn	0.503440	0.273865	0.014042
	Zn226	Zn	0.752784	0.024404	0.514760
	Zn227	Zn	0.252255	0.023652	0.514207
	N228	N	0.416207	0.988817	0.693378
	N229	N	0.589628	0.059571	0.694045
	N230	N	0.589672	0.989411	0.334331
	N231	N	0.416554	0.058866	0.334926
	N232	N	0.683736	0.435122	0.978209
	N233	N	0.682955	0.610152	0.047536
	N234	N	0.323111	0.609771	0.977630
	N235	N	0.321992	0.435598	0.047108
	N236	N	0.967745	0.704639	0.425296
	N237	N	0.036058	0.703951	0.600534
	N238	N	0.966672	0.341149	0.601523
	N239	N	0.037247	0.342640	0.426257
	N240	N	0.966488	0.434620	0.695120
	N241	N	0.036280	0.609836	0.693202
	N242	N	0.968096	0.610478	0.332392
	N243	N	0.038007	0.437295	0.333934
	N244	N	0.416270	0.703135	0.978013
	N245	N	0.590436	0.703092	0.047564
	N246	N	0.590136	0.342959	0.977923
	N247	N	0.416683	0.344044	0.048260
	N248	N	0.683200	0.989857	0.426936
	N249	N	0.684412	0.059016	0.602802
	N250	N	0.321640	0.989734	0.601973
	N251	N	0.323024	0.058741	0.427778
	N252	N	0.917353	0.487492	0.191748
	N253	N	0.089935	0.558155	0.192755
	N254	N	0.088244	0.487717	0.833579
	N255	N	0.915518	0.558623	0.833799
	N256	N	0.182134	0.936696	0.479116
	N257	N	0.182490	0.110645	0.548828
	N258	N	0.822605	0.110285	0.478834
	N259	N	0.819230	0.934398	0.548742
	N260	N	0.468423	0.202777	0.928046
	N261	N	0.537437	0.205728	0.102951
	N262	N	0.468382	0.842887	0.100669
	N263	N	0.538461	0.841903	0.925697
	N264	N	0.467966	0.937813	0.192873
	N265	N	0.537754	0.111091	0.194916
	N266	N	0.468349	0.108983	0.835110
	N267	N	0.537906	0.934799	0.832113
	N268	N	0.916902	0.201308	0.477396
	N269	N	0.089532	0.203632	0.548582
	N270	N	0.087397	0.845293	0.478332
	N271	N	0.913856	0.843141	0.549404
	N272	N	0.183018	0.488658	0.924925
	N273	N	0.183903	0.557636	0.100580
	N274	N	0.821383	0.488618	0.101172
	N275	N	0.821508	0.557718	0.925369
	O276	O	0.814556	1.205692	-0.173389
	H277	H	0.814148	1.194073	-0.155892
	H278	H	0.828256	1.200021	-0.189324
	O279	O	-0.314719	-0.294221	0.703128
	H280	H	-0.302524	-0.290691	0.662420
	H281	H	-0.341524	-0.317769	0.702659
	O282	O	0.694599	0.382521	0.323029
	H283	H	0.683377	0.396125	0.306643
	H284	H	0.701727	0.387665	0.357716
	O285	O	0.914480	0.126549	1.182824
	H286	H	0.915315	0.129096	1.183018
	H287	H	0.909602	0.143395	1.197751
	O288	O	1.192948	0.009840	1.093279
	H289	H	1.197260	0.017200	1.071473
	H290	H	1.193314	0.018600	1.080915
	O291	O	0.482533	0.409407	0.439848
	H292	H	0.486151	0.411427	0.425925
	H293	H	0.486441	0.404747	0.433277
	O294	O	0.036993	-0.156643	-0.159949
	H295	H	0.029582	-0.166533	-0.143812
	H296	H	0.028302	-0.177870	-0.170376
	O297	O	1.069568	0.188587	0.068000
	H298	H	1.075679	0.196693	0.080039
	H299	H	1.072791	0.183223	0.073297
	O300	O	-0.045170	-0.111107	0.023953
	H301	H	-0.059274	-0.112242	0.049070
	H302	H	-0.039747	-0.103349	0.027618
	O303	O	-0.113967	-0.026307	-0.123504
	H304	H	-0.112064	-0.042628	-0.121885
	H305	H	-0.111859	-0.037794	-0.110052
	O306	O	0.995077	-0.075912	0.007156
	H307	H	1.003949	-0.075232	0.016640
	H308	H	0.991633	-0.076897	0.012669
	O309	O	0.460523	0.579070	0.528174
	H310	H	0.464139	0.579008	0.543262
	H311	H	0.454546	0.568902	0.519212
	O312	O	0.508350	0.362124	0.303842
	H313	H	0.520488	0.331767	0.279207
	H314	H	0.517070	0.368414	0.327289
	O315	O	0.728693	0.580885	0.459061
	H316	H	0.733681	0.604773	0.475827
	H317	H	0.730473	0.565972	0.452954
	O318	O	0.899568	0.984943	-0.066359
	H319	H	0.876392	1.004488	-0.073741
	H320	H	0.899145	0.981521	-0.053721
	O321	O	0.296419	0.318758	0.717810
	H322	H	0.312643	0.299769	0.729584
	H323	H	0.300784	0.296366	0.730434
	O324	O	0.482958	0.741186	1.309057
	H325	H	0.467693	0.766528	1.290200
	H326	H	0.447224	0.731428	1.309421
	O327	O	0.282645	0.491137	0.729263
	H328	H	0.256355	0.484010	0.760780
	H329	H	0.288767	0.445386	0.721940
	O330	O	-0.202006	0.977611	0.135932
	H331	H	-0.196480	0.959998	0.133966
	H332	H	-0.209194	0.959748	0.144648
	O333	O	0.865790	0.145546	0.235899
	H334	H	0.872453	0.139783	0.232860
	H335	H	0.878661	0.157091	0.219484
	O336	O	0.466676	0.312745	0.720937
	H337	H	0.483650	0.315662	0.726525
	H338	H	0.479189	0.314008	0.728850
	O339	O	0.486273	0.341289	0.490955
	H340	H	0.471122	0.346998	0.509661
	H341	H	0.496925	0.328038	0.489313
	O342	O	0.024634	1.192617	0.028580
	H343	H	0.013447	1.194049	0.029053
	H344	H	0.024337	1.175695	0.053769
	O345	O	0.307627	0.698400	0.679765
	H346	H	0.320636	0.684524	0.665686
	H347	H	0.298776	0.705105	0.699101
	O348	O	0.979665	0.228708	-0.198520
	H349	H	0.968708	0.244079	-0.205118
	H350	H	0.983595	0.235162	-0.192301
	O351	O	0.207560	0.148557	0.900993
	H352	H	0.201546	0.143855	0.914985
	H353	H	0.200391	0.141550	0.901464
	O354	O	1.362189	-0.340388	1.438085
	H355	H	1.355252	-0.340844	1.463631
	H356	H	1.351748	-0.366704	1.428469
	O357	O	0.548959	0.690792	0.488709
	H358	H	0.534537	0.696886	0.479874
	H359	H	0.538195	0.692171	0.493081
	O360	O	0.717254	0.546466	0.729336
	H361	H	0.709476	0.549545	0.706310
	H362	H	0.743848	0.548409	0.757332
	O363	O	0.614299	0.398072	-0.303789
	H364	H	0.607336	0.407452	-0.314147
	H365	H	0.612473	0.419709	-0.312568
	O366	O	1.032390	0.232761	0.961435
	H367	H	1.032565	0.225770	0.972219
	H368	H	1.034079	0.231099	0.967368
	O369	O	-0.076887	0.097069	0.885342
	H370	H	-0.069983	0.092583	0.891944
	H371	H	-0.090712	0.101935	0.881753
	O372	O	-0.040186	0.809350	1.142100
	H373	H	-0.027141	0.806879	1.158332
	H374	H	-0.039863	0.808086	1.149018
	O375	O	1.002941	0.010045	-0.210211
	H376	H	0.998106	-0.019972	-0.204038
	H377	H	0.989735	0.005682	-0.211086
	O378	O	0.718173	0.737632	0.541391
	H379	H	0.714904	0.754402	0.531247
	H380	H	0.714009	0.760473	0.527628
	O381	O	-0.162651	0.850686	-0.014385
	H382	H	-0.179988	0.853634	-0.004327
	H383	H	-0.173493	0.850203	0.004097
	O384	O	0.425881	0.740221	0.557830
	H385	H	0.433249	0.740890	0.576509
	H386	H	0.411947	0.737526	0.565467
	O387	O	-0.118721	0.954265	1.057075
	H388	H	-0.121114	0.958462	1.052306
	H389	H	-0.116106	0.967605	1.059051
	O390	O	0.092540	0.932624	1.003599
	H391	H	0.086282	0.921983	1.002643
	H392	H	0.090069	0.940925	1.019112
	O393	O	1.064665	0.235929	0.204427
	H394	H	1.077690	0.236640	0.193151
	H395	H	1.069393	0.256849	0.219555
	O396	O	0.528237	0.304624	0.548626
	H397	H	0.538736	0.304200	0.549809
	H398	H	0.513863	0.305014	0.548978
	O399	O	0.847714	0.821870	0.213219
	H400	H	0.836390	0.821485	0.229819
	H401	H	0.872975	0.829288	0.215344
	O402	O	0.722497	-0.324438	1.292943
	H403	H	0.706510	-0.335890	1.308853
	H404	H	0.713634	-0.316299	1.289126
	O405	O	0.314165	0.339930	0.327241
	H406	H	0.333700	0.357437	0.344825
	H407	H	0.328540	0.362637	0.346006
	O408	O	0.997989	0.870134	0.989323
	H409	H	1.000445	0.865580	0.993214
	H410	H	0.984188	0.876660	0.980988
	O411	O	1.184884	1.013447	-0.193022
	H412	H	1.185743	0.999091	-0.206638
	H413	H	1.171176	1.010996	-0.206882
	O414	O	-0.213880	0.182389	-0.065299
	H415	H	-0.224253	0.191865	-0.084844
	H416	H	-0.220799	0.197255	-0.073979
	O417	O	0.519117	0.723043	0.687595
	H418	H	0.534682	0.732540	0.706636
	H419	H	0.534086	0.712691	0.690546
	O420	O	0.316950	-0.446483	0.577410
	H421	H	0.320139	-0.449181	0.589749
	H422	H	0.324335	-0.443080	0.585824
	O423	O	1.182166	0.878854	0.090388
	H424	H	1.185526	0.878611	0.084738
	H425	H	1.196869	0.875851	0.075345
	O426	O	0.079748	1.117694	-0.066231
	H427	H	0.074901	1.095408	-0.058548
	H428	H	0.073187	1.115322	-0.054510
	O429	O	0.730232	0.466607	0.574138
	H430	H	0.718180	0.463194	0.568781
	H431	H	0.734828	0.464022	0.576584
	O432	O	0.702604	0.623067	0.315950
	H433	H	0.700208	0.618721	0.320853
	H434	H	0.703024	0.617106	0.310425
	O435	O	1.012995	0.112864	0.073946
	H436	H	1.017065	0.119109	0.068563
	H437	H	1.025668	0.119051	0.052767
	O438	O	0.288577	0.313930	0.541486
	H439	H	0.289323	0.318601	0.570785
	H440	H	0.268786	0.302740	0.546030
	O441	O	0.282174	0.467302	0.461455
	H442	H	0.295893	0.483479	0.483483
	H443	H	0.270945	0.462812	0.468982
	O444	O	0.292511	0.559160	0.302479
	H445	H	0.285115	0.546322	0.290004
	H446	H	0.301479	0.537058	0.304592
	O447	O	0.719775	0.308929	0.489023
	H448	H	0.714610	0.303537	0.496938
	H449	H	0.731341	0.295145	0.473283
	O450	O	1.209640	0.230075	0.223811
	H451	H	1.195333	0.221935	0.210761
	H452	H	1.241647	0.259233	0.252340
	O453	O	0.305622	0.724789	0.468684
	H454	H	0.303736	0.717039	0.476170
	H455	H	0.291381	0.739173	0.473135
	O456	O	0.219733	1.055880	1.229750
	H457	H	0.217252	1.069847	1.236425
	H458	H	0.234972	1.059476	1.243601
	O459	O	0.556566	-0.509826	0.663628
	H460	H	0.550800	-0.503000	0.654306
	H461	H	0.568333	-0.499873	0.667099
	O462	O	0.462870	0.606934	0.732648
	H463	H	0.458144	0.609858	0.739510
	H464	H	0.442701	0.603684	0.732879
	O465	O	0.912552	0.089153	0.218877
	H466	H	0.929664	0.078395	0.205144
	H467	H	0.919728	0.107319	0.215034
	O468	O	0.152220	0.838404	0.260091
	H469	H	0.149322	0.818339	0.276783
	H470	H	0.152985	0.845287	0.241239
	O471	O	0.475982	0.501621	0.289400
	H472	H	0.484100	0.496094	0.290855
	H473	H	0.491036	0.508481	0.293708
	O474	O	0.557613	0.632627	0.351416
	H475	H	0.549984	0.635058	0.351829
	H476	H	0.554749	0.645115	0.351826
	O477	O	0.207702	-0.177942	0.809845
	H478	H	0.213700	-0.185024	0.830728
	H479	H	0.175792	-0.165811	0.809831
