data_Molecule from HDF5

_cell_length_a		16.310214
_cell_length_b		16.376153
_cell_length_c		16.343753
_cell_angle_alpha	90.003397
_cell_angle_beta	90.009859
_cell_angle_gamma	89.820808
_symmetry_space_group_name_H-M	'P 1'
_symmetry_Int_Tables_number		1

loop_
	_symmetry_equiv_pos_as_xyz
	x,y,z

loop_
	_atom_site_label
	_atom_site_type_symbol
	_atom_site_fract_x
	_atom_site_fract_y
	_atom_site_fract_z
	H0	H	0.387615	0.845132	0.708098
	H1	H	0.595270	0.164191	0.706315
	H2	H	0.596151	0.845294	0.265099
	H3	H	0.387317	0.165518	0.269036
	H4	H	0.707795	0.401587	0.825863
	H5	H	0.705712	0.604871	0.148628
	H6	H	0.269026	0.608866	0.826835
	H7	H	0.272422	0.403237	0.148119
	H8	H	0.830766	0.724411	0.383668
	H9	H	0.152286	0.720214	0.591494
	H10	H	0.828701	0.284570	0.590014
	H11	H	0.151347	0.283630	0.384239
	H12	H	0.827923	0.401582	0.703990
	H13	H	0.150924	0.604002	0.706649
	H14	H	0.828574	0.605485	0.269846
	H15	H	0.149260	0.396974	0.265623
	H16	H	0.384042	0.725710	0.827240
	H17	H	0.592240	0.723682	0.147733
	H18	H	0.592780	0.285455	0.826203
	H19	H	0.384801	0.284555	0.146880
	H20	H	0.710126	0.843116	0.384346
	H21	H	0.709839	0.164507	0.589607
	H22	H	0.272172	0.842818	0.591822
	H23	H	0.269518	0.163541	0.383621
	H24	H	0.885575	0.343490	0.206386
	H25	H	0.091777	0.663538	0.207843
	H26	H	0.091670	0.342806	0.771178
	H27	H	0.885370	0.664224	0.769152
	H28	H	0.209904	0.899678	0.325838
	H29	H	0.207797	0.101870	0.648351
	H30	H	0.773660	0.105598	0.326152
	H31	H	0.771075	0.899820	0.647474
	H32	H	0.328958	0.224605	0.882551
	H33	H	0.650338	0.223601	0.089721
	H34	H	0.329189	0.786034	0.091681
	H35	H	0.650797	0.784952	0.885004
	H36	H	0.329416	0.902124	0.206923
	H37	H	0.650889	0.107565	0.204647
	H38	H	0.329200	0.106975	0.767331
	H39	H	0.652415	0.902184	0.770406
	H40	H	0.885924	0.223797	0.327773
	H41	H	0.094453	0.221695	0.647909
	H42	H	0.094525	0.783408	0.326696
	H43	H	0.887558	0.784442	0.647880
	H44	H	0.208421	0.343459	0.887109
	H45	H	0.209088	0.663920	0.093447
	H46	H	0.769319	0.343637	0.091027
	H47	H	0.772246	0.665753	0.888296
	H48	H	0.401092	0.117685	0.577435
	H49	H	0.583690	0.888306	0.578741
	H50	H	0.575683	0.118395	0.391203
	H51	H	0.398998	0.889653	0.395841
	H52	H	0.577459	0.415699	0.100252
	H53	H	0.575683	0.600311	0.872064
	H54	H	0.396072	0.596640	0.102920
	H55	H	0.389646	0.412691	0.868746
	H56	H	0.104635	0.594584	0.401729
	H57	H	0.878305	0.587852	0.575959
	H58	H	0.106161	0.412984	0.584614
	H59	H	0.873876	0.416946	0.390085
	H60	H	0.106761	0.406424	0.577141
	H61	H	0.873278	0.596038	0.585239
	H62	H	0.102280	0.586534	0.398736
	H63	H	0.873459	0.404970	0.399146
	H64	H	0.399717	0.593662	0.100335
	H65	H	0.584944	0.595988	0.870184
	H66	H	0.577600	0.411845	0.101738
	H67	H	0.401956	0.426402	0.876386
	H68	H	0.580923	0.115686	0.404181
	H69	H	0.578957	0.890675	0.579288
	H70	H	0.400671	0.117049	0.574881
	H71	H	0.405521	0.890142	0.393595
	H72	H	0.893266	0.620418	0.079801
	H73	H	0.074825	0.389930	0.082322
	H74	H	0.078178	0.618352	0.896603
	H75	H	0.899526	0.388742	0.893338
	H76	H	0.076432	0.913058	0.599432
	H77	H	0.071885	0.098270	0.373649
	H78	H	0.903121	0.096776	0.602778
	H79	H	0.910347	0.912313	0.375545
	H80	H	0.602937	0.094430	0.901822
	H81	H	0.376206	0.091351	0.077361
	H82	H	0.601109	0.918699	0.071091
	H83	H	0.380926	0.924676	0.902283
	H84	H	0.605329	0.917350	0.081370
	H85	H	0.373029	0.097444	0.080691
	H86	H	0.603746	0.091653	0.894009
	H87	H	0.372225	0.915470	0.884785
	H88	H	0.897605	0.093381	0.603058
	H89	H	0.087087	0.096954	0.368693
	H90	H	0.083632	0.905679	0.604182
	H91	H	0.896797	0.906013	0.368978
	H92	H	0.078810	0.618602	0.898164
	H93	H	0.078511	0.392968	0.070332
	H94	H	0.901245	0.617764	0.081257
	H95	H	0.897512	0.389235	0.898301
	H96	H	0.399426	0.117762	0.576028
	H97	H	0.581530	0.890864	0.575088
	H98	H	0.589438	0.122253	0.394114
	H99	H	0.404175	0.892059	0.400312
	H100	H	0.581072	0.413963	0.101684
	H101	H	0.577596	0.590260	0.874338
	H102	H	0.401266	0.598506	0.102001
	H103	H	0.408591	0.407571	0.872680
	H104	H	0.105628	0.592749	0.392897
	H105	H	0.874888	0.600505	0.572813
	H106	H	0.102515	0.415424	0.575681
	H107	H	0.878685	0.418083	0.404218
	H108	H	0.898041	0.617279	0.073752
	H109	H	0.086650	0.387157	0.078337
	H110	H	0.079180	0.618454	0.896548
	H111	H	0.894429	0.387132	0.894764
	H112	H	0.087087	0.916021	0.602448
	H113	H	0.079937	0.084513	0.375380
	H114	H	0.902870	0.090824	0.600271
	H115	H	0.897112	0.921099	0.374583
	H116	H	0.605347	0.098786	0.895920
	H117	H	0.375609	0.098153	0.073265
	H118	H	0.605387	0.909031	0.074332
	H119	H	0.374044	0.904681	0.902924
	C120	C	0.369753	0.011883	0.607780
	C121	C	0.612770	0.995674	0.608718
	C122	C	0.613254	0.012935	0.364972
	C123	C	0.370009	0.996224	0.365282
	C124	C	0.610234	0.382462	-0.004635
	C125	C	0.610136	0.626027	0.978521
	C126	C	0.367271	0.627210	-0.004407
	C127	C	0.368757	0.384169	0.978596
	C128	C	-0.001593	0.623834	0.366142
	C129	C	0.981758	0.624849	0.609390
	C130	C	-0.001603	0.381271	0.609316
	C131	C	0.981452	0.381362	0.366056
	C132	C	0.867015	0.512359	0.109061
	C133	C	0.111176	0.495438	0.109007
	C134	C	0.110345	0.512108	0.866885
	C135	C	0.866704	0.495024	0.865578
	C136	C	0.113452	0.880769	0.495665
	C137	C	0.111550	0.123927	0.478788
	C138	C	0.870027	0.124783	0.495737
	C139	C	0.870101	0.882327	0.478939
	C140	C	0.498072	0.126195	0.865314
	C141	C	0.481388	0.126440	0.108047
	C142	C	0.498046	0.883942	0.107756
	C143	C	0.481741	0.883008	0.865557
	C144	C	0.368805	0.892178	0.668089
	C145	C	0.613714	0.116059	0.667225
	C146	C	0.614618	0.892777	0.305358
	C147	C	0.368279	0.117042	0.307467
	C148	C	0.669109	0.382124	0.874476
	C149	C	0.667416	0.625309	0.100112
	C150	C	0.308188	0.627987	0.875083
	C151	C	0.310679	0.383671	0.099653
	C152	C	0.878294	0.684122	0.365067
	C153	C	0.103497	0.681765	0.610454
	C154	C	0.877109	0.323560	0.609077
	C155	C	0.102623	0.322524	0.364922
	C156	C	0.876569	0.382072	0.665824
	C157	C	0.103236	0.623607	0.667496
	C158	C	0.877194	0.625163	0.308388
	C159	C	0.101872	0.379141	0.306245
	C160	C	0.365731	0.685914	0.875154
	C161	C	0.610731	0.684155	0.099761
	C162	C	0.611881	0.324220	0.874476
	C163	C	0.366752	0.324482	0.098829
	C164	C	0.671303	0.891729	0.364707
	C165	C	0.670961	0.116277	0.609066
	C166	C	0.311494	0.891222	0.609902
	C167	C	0.309296	0.115965	0.364151
	C168	C	0.866396	0.391512	0.167396
	C169	C	0.110970	0.615910	0.168228
	C170	C	0.110854	0.390897	0.810019
	C171	C	0.866591	0.616242	0.808520
	C172	C	0.171566	0.880149	0.374456
	C173	C	0.169507	0.122794	0.600089
	C174	C	0.812271	0.124873	0.374574
	C175	C	0.810929	0.881081	0.599726
	C176	C	0.376816	0.184853	0.864003
	C177	C	0.602157	0.184554	0.108571
	C178	C	0.377333	0.825466	0.110047
	C179	C	0.602778	0.824042	0.865216
	C180	C	0.377359	0.883365	0.167351
	C181	C	0.602521	0.126786	0.165843
	C182	C	0.377060	0.126599	0.806674
	C183	C	0.603388	0.882603	0.808450
	C184	C	0.868262	0.183744	0.375321
	C185	C	0.112918	0.181957	0.599865
	C186	C	0.114043	0.822404	0.374897
	C187	C	0.869319	0.823995	0.600078
	C188	C	0.169165	0.391453	0.867318
	C189	C	0.169387	0.615992	0.111350
	C190	C	0.808898	0.391576	0.109816
	C191	C	0.809935	0.616894	0.867377
	C192	C	0.393640	0.095726	0.583128
	C193	C	0.588543	0.911763	0.584568
	C194	C	0.589111	0.096906	0.389353
	C195	C	0.395588	0.912510	0.389600
	C196	C	0.585597	0.406719	0.079285
	C197	C	0.586339	0.602479	0.894262
	C198	C	0.391782	0.603337	0.079837
	C199	C	0.393116	0.408439	0.894427
	C200	C	0.082385	0.598532	0.390792
	C201	C	0.897567	0.601652	0.585030
	C202	C	0.083106	0.404803	0.585955
	C203	C	0.897185	0.406194	0.390635
	C204	C	0.890858	0.596387	0.085392
	C205	C	0.086953	0.411807	0.084177
	C206	C	0.085738	0.596444	0.890254
	C207	C	0.890347	0.410537	0.888740
	C208	C	0.089419	0.904759	0.580024
	C209	C	0.086979	0.100124	0.394524
	C210	C	0.894283	0.100568	0.580042
	C211	C	0.894297	0.906181	0.394891
	C212	C	0.582086	0.102034	0.890168
	C213	C	0.397035	0.102430	0.083789
	C214	C	0.582091	0.908267	0.082872
	C215	C	0.397492	0.907772	0.889720
	Zn216	Zn	0.490739	0.004295	0.737058
	Zn217	Zn	0.490549	0.005048	0.236247
	Zn218	Zn	0.738614	0.503786	-0.012190
	Zn219	Zn	0.239620	0.504954	-0.012435
	Zn220	Zn	-0.008611	0.753129	0.487890
	Zn221	Zn	-0.009641	0.253494	0.487563
	Zn222	Zn	-0.011153	0.503332	0.737695
	Zn223	Zn	-0.010861	0.502879	0.237061
	Zn224	Zn	0.489244	0.754881	-0.013055
	Zn225	Zn	0.489093	0.254692	-0.013376
	Zn226	Zn	0.741506	0.003858	0.487537
	Zn227	Zn	0.241115	0.002762	0.486413
	N228	N	0.404291	0.968113	0.666893
	N229	N	0.578134	0.040013	0.667188
	N230	N	0.579237	0.969115	0.305349
	N231	N	0.405314	0.041536	0.308233
	N232	N	0.668550	0.417587	0.950831
	N233	N	0.667154	0.589884	0.023886
	N234	N	0.308945	0.592501	0.951174
	N235	N	0.311862	0.420167	0.023887
	N236	N	0.954890	0.683518	0.400102
	N237	N	0.027163	0.682635	0.575110
	N238	N	0.954058	0.322847	0.574721
	N239	N	0.026555	0.323659	0.401060
	N240	N	0.953140	0.417100	0.666228
	N241	N	0.026419	0.589157	0.667311
	N242	N	0.952871	0.588204	0.309152
	N243	N	0.025428	0.415003	0.306796
	N244	N	0.401639	0.685647	0.951252
	N245	N	0.575594	0.684515	0.023214
	N246	N	0.576241	0.324208	0.950602
	N247	N	0.402145	0.324704	0.022465
	N248	N	0.670482	0.967408	0.401193
	N249	N	0.670558	0.040387	0.573484
	N250	N	0.311965	0.966659	0.573084
	N251	N	0.310234	0.039826	0.399268
	N252	N	0.902064	0.467447	0.166893
	N253	N	0.075323	0.539994	0.167012
	N254	N	0.075030	0.467057	0.809604
	N255	N	0.900984	0.539485	0.807070
	N256	N	0.171455	0.915523	0.450663
	N257	N	0.168672	0.087387	0.523792
	N258	N	0.813123	0.088871	0.450609
	N259	N	0.811277	0.916581	0.523655
	N260	N	0.453043	0.184767	0.899614
	N261	N	0.525782	0.184391	0.073230
	N262	N	0.453200	0.825745	0.073373
	N263	N	0.526097	0.824121	0.899980
	N264	N	0.453619	0.918897	0.166020
	N265	N	0.526353	0.091410	0.165566
	N266	N	0.453229	0.090921	0.807405
	N267	N	0.526980	0.918230	0.808315
	N268	N	0.903537	0.183597	0.451598
	N269	N	0.077743	0.182807	0.523438
	N270	N	0.078785	0.822632	0.451375
	N271	N	0.905321	0.824567	0.523974
	N272	N	0.169035	0.467885	0.901666
	N273	N	0.169676	0.540149	0.075355
	N274	N	0.808932	0.467593	0.074301
	N275	N	0.809763	0.540410	0.902013
	O276	O	0.545962	0.393398	0.358120
	H277	H	0.548658	0.399827	0.348211
	H278	H	0.549381	0.385004	0.356251
	O279	O	0.347029	0.540624	0.413090
	H280	H	0.339276	0.530815	0.416143
	H281	H	0.333562	0.523919	0.411414
	O282	O	0.363532	0.620285	0.342746
	H283	H	0.352303	0.592356	0.333604
	H284	H	0.374651	0.613363	0.330617
	O285	O	1.025129	0.106111	-0.008922
	H286	H	1.015968	0.108021	0.006944
	H287	H	1.035494	0.129856	-0.010803
	O288	O	-0.011873	0.041700	0.820086
	H289	H	-0.022138	0.023933	0.818089
	H290	H	-0.013376	0.035913	0.817844
	O291	O	0.660343	0.410273	0.334193
	H292	H	0.659958	0.418639	0.340375
	H293	H	0.660513	0.430214	0.338289
	O294	O	0.521286	0.616015	0.466111
	H295	H	0.528221	0.611968	0.451545
	H296	H	0.516650	0.616193	0.466219
	O297	O	1.152633	0.884744	0.847013
	H298	H	1.164870	0.888531	0.862751
	H299	H	1.163028	0.894316	0.855163
	O300	O	0.024615	0.011180	-0.105484
	H301	H	0.012597	0.018811	-0.094398
	H302	H	0.013868	0.013989	-0.096014
	O303	O	0.585793	0.578488	0.615108
	H304	H	0.599201	0.582568	0.626795
	H305	H	0.578114	0.579549	0.596966
	O306	O	1.145846	0.097658	0.078451
	H307	H	1.161383	0.106062	0.081021
	H308	H	1.136746	0.096605	0.072910
	O309	O	0.475666	0.663985	0.588805
	H310	H	0.470126	0.675656	0.583971
	H311	H	0.479736	0.658146	0.594271
	O312	O	1.031126	0.814643	-0.144517
	H313	H	1.023060	0.797027	-0.160686
	H314	H	1.054213	0.819368	-0.138767
	O315	O	1.015672	0.079948	0.000558
	H316	H	1.019142	0.104765	-0.003545
	H317	H	1.011172	0.080948	-0.004066
	O318	O	0.523586	0.477038	0.565082
	H319	H	0.518122	0.468451	0.559938
	H320	H	0.515989	0.485159	0.580541
	O321	O	1.038242	-0.154651	1.032509
	H322	H	1.042381	-0.151533	1.013377
	H323	H	1.046531	-0.167714	1.027835
	O324	O	-0.120168	0.156540	1.041004
	H325	H	-0.108439	0.156242	1.018289
	H326	H	-0.133304	0.171902	1.038532
	O327	O	0.533378	0.552513	0.622655
	H328	H	0.529790	0.549645	0.617065
	H329	H	0.518522	0.578328	0.622790
	O330	O	0.507970	0.355415	0.568077
	H331	H	0.489698	0.367218	0.571110
	H332	H	0.503260	0.347781	0.563904
	O333	O	1.103145	0.977560	1.141722
	H334	H	1.100506	0.983058	1.146664
	H335	H	1.110570	0.957964	1.143481
	O336	O	0.619708	0.621666	0.607818
	H337	H	0.622225	0.608034	0.623630
	H338	H	0.608467	0.632264	0.605727
	O339	O	0.859778	0.068359	0.921282
	H340	H	0.877202	0.058467	0.925755
	H341	H	0.857797	0.063553	0.917831
	O342	O	-0.033201	0.931644	1.058822
	H343	H	-0.042638	0.944673	1.053060
	H344	H	-0.053220	0.926139	1.059649
	O345	O	0.230157	0.726474	1.330054
	H346	H	0.239312	0.717889	1.313210
	H347	H	0.219445	0.750099	1.328992
	O348	O	0.321433	0.438181	0.534050
	H349	H	0.315190	0.453277	0.535682
	H350	H	0.334069	0.434394	0.535574
	O351	O	-0.064597	-0.116699	0.069819
	H352	H	-0.077678	-0.115024	0.082421
	H353	H	-0.058987	-0.124545	0.069358
	O354	O	0.899665	1.038303	-0.010357
	H355	H	0.900350	1.034753	-0.016144
	H356	H	0.896750	1.034929	-0.008102
	O357	O	-0.074086	1.027135	-0.127322
	H358	H	-0.074478	1.017299	-0.125259
	H359	H	-0.072926	1.027465	-0.122534
	O360	O	0.328412	0.543612	0.519060
	H361	H	0.327651	0.528760	0.518815
	H362	H	0.322331	0.563153	0.501993
	O363	O	0.306704	0.340156	0.678850
	H364	H	0.296434	0.334280	0.684279
	H365	H	0.303125	0.345155	0.653971
	O366	O	0.607366	0.555087	0.367760
	H367	H	0.602191	0.544426	0.365147
	H368	H	0.609220	0.559215	0.380407
	O369	O	0.521986	0.470511	0.325124
	H370	H	0.528663	0.478372	0.324870
	H371	H	0.518137	0.476228	0.325202
	O372	O	0.551280	0.639428	0.660947
	H373	H	0.551292	0.649086	0.661103
	H374	H	0.547405	0.650354	0.661725
	O375	O	0.529530	0.374618	0.680802
	H376	H	0.522745	0.378821	0.680239
	H377	H	0.521443	0.363761	0.702671
	O378	O	0.677667	0.592514	0.449950
	H379	H	0.690293	0.592686	0.473517
	H380	H	0.665197	0.594527	0.460488
	O381	O	0.612070	0.403796	0.417964
	H382	H	0.621060	0.400316	0.417292
	H383	H	0.610009	0.414100	0.421160
	O384	O	-0.187817	0.929582	1.012673
	H385	H	-0.184371	0.926916	1.034627
	H386	H	-0.195890	0.944149	1.007432
	O387	O	1.105736	1.131348	0.001539
	H388	H	1.097363	1.132575	-0.005162
	H389	H	1.115928	1.124142	-0.007079
	O390	O	0.357097	0.327480	0.443960
	H391	H	0.361301	0.323646	0.439444
	H392	H	0.363691	0.316752	0.445246
	O393	O	1.035826	-0.166735	0.921383
	H394	H	1.034815	-0.167318	0.932986
	H395	H	1.048007	-0.174058	0.925884
	O396	O	0.186397	0.887029	0.884327
	H397	H	0.180478	0.889336	0.882287
	H398	H	0.185768	0.892787	0.865113
	O399	O	0.445022	0.445025	1.657748
	H400	H	0.421640	0.442531	1.654346
	H401	H	0.442053	0.425650	1.663288
	O402	O	0.929798	0.036471	1.084726
	H403	H	0.921327	0.022849	1.083437
	H404	H	0.931713	0.053507	1.085021
	O405	O	-0.074554	0.153008	-0.100188
	H406	H	-0.072949	0.141898	-0.101242
	H407	H	-0.065800	0.159710	-0.109656
	O408	O	0.822594	1.029661	0.973990
	H409	H	0.828696	1.014825	0.975616
	H410	H	0.797558	1.034216	0.967533
	O411	O	1.036134	1.036680	0.086575
	H412	H	1.044456	1.032164	0.096762
	H413	H	1.022882	1.039991	0.089514
	O414	O	0.451105	-0.374763	1.325401
	H415	H	0.452835	-0.383030	1.336357
	H416	H	0.448844	-0.369414	1.318250
	O417	O	0.367186	0.409095	0.389582
	H418	H	0.370908	0.408726	0.389631
	H419	H	0.391455	0.401606	0.383542
	O420	O	0.014116	1.039233	0.015959
	H421	H	0.012664	1.036190	0.019813
	H422	H	0.009794	1.033723	0.014495
	O423	O	1.003324	0.050911	0.113153
	H424	H	0.983977	0.043977	0.123556
	H425	H	1.000510	0.049142	0.110648
	O426	O	0.498140	0.299986	1.359049
	H427	H	0.521618	0.307655	1.369534
	H428	H	0.501977	0.285914	1.349173
	O429	O	0.524806	0.694728	0.449724
	H430	H	0.520279	0.694686	0.456653
	H431	H	0.527300	0.696778	0.463365
