data_Molecule from HDF5

_cell_length_a		16.094857
_cell_length_b		16.137315
_cell_length_c		16.345913
_cell_angle_alpha	90.616887
_cell_angle_beta	90.596565
_cell_angle_gamma	90.330302
_symmetry_space_group_name_H-M	'P 1'
_symmetry_Int_Tables_number		1

loop_
	_symmetry_equiv_pos_as_xyz
	x,y,z

loop_
	_atom_site_label
	_atom_site_type_symbol
	_atom_site_fract_x
	_atom_site_fract_y
	_atom_site_fract_z
	H0	H	0.397256	0.840642	0.725065
	H1	H	0.601587	0.169720	0.731361
	H2	H	0.598367	0.842191	0.295969
	H3	H	0.395784	0.169545	0.296919
	H4	H	0.707128	0.406919	0.847521
	H5	H	0.714042	0.607792	0.175415
	H6	H	0.280099	0.600782	0.849009
	H7	H	0.284115	0.409821	0.176770
	H8	H	0.830883	0.713760	0.415250
	H9	H	0.163220	0.720404	0.613333
	H10	H	0.830533	0.294203	0.604297
	H11	H	0.163172	0.293160	0.414451
	H12	H	0.831764	0.405316	0.723811
	H13	H	0.161716	0.608980	0.732266
	H14	H	0.832921	0.604668	0.294909
	H15	H	0.162364	0.404355	0.297087
	H16	H	0.395731	0.717878	0.848249
	H17	H	0.598083	0.722814	0.175346
	H18	H	0.591259	0.288252	0.848785
	H19	H	0.398117	0.290683	0.176641
	H20	H	0.706620	0.839798	0.415553
	H21	H	0.712620	0.171185	0.613565
	H22	H	0.283527	0.840170	0.606354
	H23	H	0.284929	0.171391	0.416350
	H24	H	0.896444	0.340275	0.223520
	H25	H	0.100935	0.669438	0.231823
	H26	H	0.096588	0.342585	0.796345
	H27	H	0.895220	0.670519	0.796374
	H28	H	0.208661	0.905968	0.347968
	H29	H	0.214875	0.107831	0.675402
	H30	H	0.780492	0.100921	0.349429
	H31	H	0.784318	0.908126	0.676670
	H32	H	0.329948	0.212458	0.915427
	H33	H	0.661416	0.222100	0.114092
	H34	H	0.330712	0.793448	0.104876
	H35	H	0.663930	0.791962	0.915597
	H36	H	0.332706	0.903717	0.225611
	H37	H	0.662140	0.108566	0.231127
	H38	H	0.333307	0.104432	0.795863
	H39	H	0.663154	0.904714	0.798994
	H40	H	0.897072	0.217054	0.348334
	H41	H	0.098857	0.224042	0.675353
	H42	H	0.093763	0.787943	0.349280
	H43	H	0.898554	0.789968	0.675796
	H44	H	0.204928	0.340574	0.915285
	H45	H	0.210370	0.671516	0.112009
	H46	H	0.783833	0.340223	0.105656
	H47	H	0.784190	0.672516	0.916099
	H48	H	0.411588	0.121039	0.606234
	H49	H	0.598505	0.885977	0.604234
	H50	H	0.587308	0.126272	0.412931
	H51	H	0.399227	0.889196	0.427479
	H52	H	0.591062	0.416699	0.127321
	H53	H	0.579669	0.611451	0.894984
	H54	H	0.396163	0.598438	0.130698
	H55	H	0.394006	0.406063	0.893685
	H56	H	0.112738	0.587852	0.421457
	H57	H	0.879578	0.589439	0.611542
	H58	H	0.113164	0.418830	0.602468
	H59	H	0.878621	0.410521	0.418285
	H60	H	0.116293	0.418311	0.613256
	H61	H	0.874725	0.605901	0.609069
	H62	H	0.119799	0.599648	0.414153
	H63	H	0.879011	0.414180	0.414100
	H64	H	0.409901	0.593726	0.124926
	H65	H	0.605057	0.599886	0.890864
	H66	H	0.588043	0.412097	0.128076
	H67	H	0.401068	0.415324	0.898192
	H68	H	0.582186	0.119957	0.426862
	H69	H	0.588850	0.885491	0.614544
	H70	H	0.404640	0.124493	0.603804
	H71	H	0.396581	0.883143	0.407970
	H72	H	0.903704	0.624287	0.103612
	H73	H	0.087457	0.388568	0.104697
	H74	H	0.090881	0.628497	0.913311
	H75	H	0.907189	0.390374	0.918959
	H76	H	0.095442	0.914893	0.629493
	H77	H	0.083099	0.098954	0.397620
	H78	H	0.909114	0.095458	0.626708
	H79	H	0.903057	0.904030	0.395229
	H80	H	0.619473	0.106260	0.917582
	H81	H	0.380192	0.086810	0.107969
	H82	H	0.618484	0.905609	0.106090
	H83	H	0.382482	0.904668	0.931374
	H84	H	0.612227	0.919595	0.098379
	H85	H	0.375040	0.102910	0.112911
	H86	H	0.613039	0.097607	0.931536
	H87	H	0.382516	0.927939	0.913635
	H88	H	0.909598	0.105839	0.629340
	H89	H	0.093677	0.104547	0.392830
	H90	H	0.088202	0.917742	0.626329
	H91	H	0.895403	0.909845	0.395257
	H92	H	0.078278	0.621573	0.922787
	H93	H	0.090009	0.387067	0.104415
	H94	H	0.906311	0.624759	0.110059
	H95	H	0.896378	0.387319	0.919286
	H96	H	0.406888	0.124699	0.610758
	H97	H	0.584089	0.890173	0.601461
	H98	H	0.597240	0.125288	0.425872
	H99	H	0.414915	0.889922	0.415272
	H100	H	0.592382	0.411559	0.129914
	H101	H	0.584186	0.584881	0.901446
	H102	H	0.408453	0.608398	0.130030
	H103	H	0.405643	0.403771	0.897207
	H104	H	0.114484	0.600280	0.428706
	H105	H	0.881619	0.595890	0.596281
	H106	H	0.117075	0.408797	0.605623
	H107	H	0.877734	0.409658	0.413636
	H108	H	0.910291	0.621862	0.104976
	H109	H	0.088716	0.387727	0.106613
	H110	H	0.094109	0.624562	0.929481
	H111	H	0.901977	0.386344	0.910141
	H112	H	0.089155	0.908842	0.628727
	H113	H	0.093199	0.092289	0.396805
	H114	H	0.900021	0.101503	0.629634
	H115	H	0.904471	0.912518	0.397833
	H116	H	0.614843	0.089101	0.915769
	H117	H	0.379499	0.100107	0.096761
	H118	H	0.616321	0.920255	0.115100
	H119	H	0.372822	0.901686	0.903428
	C120	C	0.377252	0.014272	0.633607
	C121	C	0.620183	0.996775	0.635945
	C122	C	0.617488	0.014656	0.392913
	C123	C	0.374954	0.996670	0.389619
	C124	C	0.618013	0.383499	0.020415
	C125	C	0.619622	0.628643	1.003661
	C126	C	0.375116	0.627230	0.020428
	C127	C	0.372746	0.381598	1.004682
	C128	C	0.006161	0.624617	0.391946
	C129	C	0.988394	0.627390	0.635495
	C130	C	0.005833	0.385649	0.633055
	C131	C	0.988160	0.382696	0.388217
	C132	C	0.876905	0.514282	0.132935
	C133	C	0.118881	0.496552	0.135248
	C134	C	0.116156	0.515731	0.892408
	C135	C	0.873407	0.497312	0.888777
	C136	C	0.118606	0.883632	0.520440
	C137	C	0.120144	0.129004	0.503615
	C138	C	0.875983	0.127447	0.520829
	C139	C	0.873908	0.881838	0.504207
	C140	C	0.505998	0.125118	0.892430
	C141	C	0.487862	0.127016	0.135584
	C142	C	0.506062	0.885176	0.133370
	C143	C	0.489157	0.882996	0.889422
	C144	C	0.378330	0.889755	0.687107
	C145	C	0.620250	0.120681	0.692497
	C146	C	0.617022	0.890993	0.335469
	C147	C	0.376318	0.120758	0.335082
	C148	C	0.670648	0.385994	0.896821
	C149	C	0.675669	0.627482	0.126748
	C150	C	0.318250	0.622641	0.897445
	C151	C	0.320440	0.387595	0.127916
	C152	C	0.880762	0.677792	0.394116
	C153	C	0.113356	0.682952	0.633818
	C154	C	0.880497	0.330743	0.626856
	C155	C	0.113148	0.329195	0.392757
	C156	C	0.881102	0.386229	0.686115
	C157	C	0.112561	0.627609	0.692930
	C158	C	0.881837	0.623029	0.334663
	C159	C	0.112830	0.384811	0.334299
	C160	C	0.376300	0.680403	0.897118
	C161	C	0.618251	0.684878	0.126639
	C162	C	0.612818	0.327248	0.897295
	C163	C	0.377300	0.328424	0.127810
	C164	C	0.670921	0.889715	0.394916
	C165	C	0.675608	0.121290	0.633946
	C166	C	0.321273	0.889745	0.628726
	C167	C	0.321356	0.121742	0.394504
	C168	C	0.877311	0.389851	0.186034
	C169	C	0.119677	0.620444	0.192761
	C170	C	0.115311	0.391368	0.835427
	C171	C	0.875380	0.621337	0.834043
	C172	C	0.172099	0.885358	0.397169
	C173	C	0.176593	0.127906	0.626649
	C174	C	0.819138	0.122509	0.397931
	C175	C	0.820985	0.886575	0.627678
	C176	C	0.380164	0.176994	0.894819
	C177	C	0.612329	0.183627	0.134010
	C178	C	0.380576	0.830350	0.127299
	C179	C	0.613944	0.828891	0.894237
	C180	C	0.381845	0.884948	0.187537
	C181	C	0.612472	0.127254	0.192192
	C182	C	0.382107	0.123377	0.835117
	C183	C	0.613696	0.884787	0.835868
	C184	C	0.876952	0.180415	0.397416
	C185	C	0.119143	0.185949	0.626473
	C186	C	0.114662	0.826770	0.397652
	C187	C	0.878035	0.827726	0.627118
	C188	C	0.169568	0.390655	0.894354
	C189	C	0.174023	0.621582	0.133303
	C190	C	0.821416	0.389763	0.127295
	C191	C	0.820435	0.622521	0.893893
	C192	C	0.400700	0.100964	0.612960
	C193	C	0.597300	0.909766	0.613436
	C194	C	0.595384	0.101463	0.415381
	C195	C	0.396972	0.910096	0.410510
	C196	C	0.596895	0.406673	0.106326
	C197	C	0.596410	0.605492	0.918048
	C198	C	0.398293	0.606549	0.106139
	C199	C	0.393957	0.401979	0.918530
	C200	C	0.093119	0.602470	0.414866
	C201	C	0.901212	0.603956	0.612469
	C202	C	0.093123	0.408448	0.613044
	C203	C	0.900982	0.404892	0.409010
	C204	C	0.900074	0.601235	0.112358
	C205	C	0.095567	0.410231	0.112102
	C206	C	0.094199	0.602284	0.915076
	C207	C	0.895399	0.410419	0.909817
	C208	C	0.097249	0.906910	0.606037
	C209	C	0.096941	0.105445	0.418115
	C210	C	0.899337	0.106894	0.606334
	C211	C	0.894727	0.902659	0.418502
	C212	C	0.593315	0.103829	0.914872
	C213	C	0.400865	0.103538	0.112756
	C214	C	0.593234	0.908347	0.112600
	C215	C	0.401850	0.904951	0.910029
	Zn216	Zn	0.498361	0.005407	0.763033
	Zn217	Zn	0.497437	0.005529	0.263122
	Zn218	Zn	0.747333	0.506378	0.011978
	Zn219	Zn	0.244642	0.505553	0.012653
	Zn220	Zn	-0.003262	0.753065	0.512430
	Zn221	Zn	-0.002467	0.257223	0.511212
	Zn222	Zn	-0.003148	0.506117	0.762962
	Zn223	Zn	-0.002139	0.505144	0.262237
	Zn224	Zn	0.497330	0.756687	0.011887
	Zn225	Zn	0.495339	0.252777	0.012914
	Zn226	Zn	0.745987	0.005648	0.513431
	Zn227	Zn	0.248389	0.006141	0.511662
	N228	N	0.412366	0.968361	0.690395
	N229	N	0.586738	0.042034	0.694123
	N230	N	0.584494	0.969741	0.333953
	N231	N	0.408804	0.041999	0.331704
	N232	N	0.673715	0.420327	0.974418
	N233	N	0.676386	0.593064	0.049445
	N234	N	0.317352	0.590168	0.974919
	N235	N	0.317434	0.419709	0.050324
	N236	N	0.958950	0.678772	0.429127
	N237	N	0.035059	0.683005	0.598830
	N238	N	0.959164	0.330362	0.594501
	N239	N	0.034648	0.327497	0.425256
	N240	N	0.959941	0.419648	0.689948
	N241	N	0.033852	0.593697	0.693858
	N242	N	0.960767	0.590848	0.333204
	N243	N	0.033844	0.417373	0.331412
	N244	N	0.410786	0.683422	0.974624
	N245	N	0.584000	0.685754	0.049047
	N246	N	0.580844	0.325610	0.975054
	N247	N	0.408704	0.324401	0.049881
	N248	N	0.671621	0.967686	0.429903
	N249	N	0.675633	0.043062	0.599507
	N250	N	0.320677	0.967988	0.596286
	N251	N	0.320273	0.043532	0.427517
	N252	N	0.911366	0.468167	0.189570
	N253	N	0.086297	0.541841	0.194139
	N254	N	0.082750	0.469974	0.834015
	N255	N	0.907695	0.542412	0.830793
	N256	N	0.174777	0.920070	0.474450
	N257	N	0.177375	0.093291	0.549290
	N258	N	0.818132	0.090455	0.475568
	N259	N	0.818149	0.919525	0.550409
	N260	N	0.458342	0.178362	0.929834
	N261	N	0.533785	0.183745	0.099612
	N262	N	0.458962	0.830231	0.094550
	N263	N	0.535397	0.827511	0.926625
	N264	N	0.460806	0.918331	0.191099
	N265	N	0.534061	0.092750	0.193217
	N266	N	0.461326	0.091658	0.833667
	N267	N	0.534923	0.917627	0.832610
	N268	N	0.911602	0.183598	0.474767
	N269	N	0.084812	0.187004	0.548998
	N270	N	0.082347	0.825522	0.475345
	N271	N	0.910236	0.824626	0.549490
	N272	N	0.170345	0.468774	0.929135
	N273	N	0.173684	0.543666	0.098068
	N274	N	0.820886	0.468273	0.095019
	N275	N	0.818737	0.544380	0.926963
	O276	O	-0.489012	0.460617	-0.477638
	H277	H	-0.489872	0.458104	-0.476185
	H278	H	-0.488197	0.472134	-0.467563
	O279	O	0.504958	0.450228	0.528550
	H280	H	0.501113	0.443949	0.525183
	H281	H	0.512840	0.451678	0.533856
	O282	O	0.581372	0.580841	0.520580
	H283	H	0.591559	0.586197	0.525758
	H284	H	0.584940	0.583284	0.523550
	O285	O	-0.093969	1.029160	0.928132
	H286	H	-0.086938	1.037849	0.936969
	H287	H	-0.099452	1.032773	0.914825
	O288	O	-0.034051	-0.073269	-0.054604
	H289	H	-0.049690	-0.073445	-0.068579
	H290	H	-0.041293	-0.072080	-0.047157
	O291	O	0.476670	1.507089	0.454242
	H292	H	0.479207	1.500396	0.462787
	H293	H	0.479731	1.506662	0.443479
	O294	O	1.405994	0.531874	0.509188
	H295	H	1.407819	0.531812	0.499782
	H296	H	1.390459	0.542385	0.512131
	O297	O	0.938002	0.057509	0.963655
	H298	H	0.935635	0.060593	0.959493
	H299	H	0.927865	0.056235	0.964070
	O300	O	0.452960	0.515192	0.476933
	H301	H	0.456442	0.513707	0.474281
	H302	H	0.462494	0.507705	0.476960
	O303	O	1.063177	0.060539	0.096520
	H304	H	1.054244	0.060517	0.102883
	H305	H	1.069882	0.049261	0.103002
	O306	O	0.077787	1.086429	1.092893
	H307	H	0.089554	1.111639	1.101535
	H308	H	0.069733	1.092299	1.088292
	O309	O	0.490905	0.527706	0.480610
	H310	H	0.490903	0.536426	0.477792
	H311	H	0.479805	0.537741	0.478277
	O312	O	1.061640	0.067992	0.981792
	H313	H	1.055134	0.069636	0.984627
	H314	H	1.073426	0.069384	0.985490
	O315	O	-0.044526	-0.015555	0.114623
	H316	H	-0.052925	-0.009161	0.113999
	H317	H	-0.042441	-0.015504	0.120847
	O318	O	0.516779	0.497329	0.580045
	H319	H	0.512666	0.493646	0.579257
	H320	H	0.511766	0.507089	0.576801
	O321	O	1.002980	0.989654	1.038672
	H322	H	0.995155	0.993119	1.044706
	H323	H	1.000963	0.993147	1.034652
	O324	O	1.001845	0.083827	0.057649
	H325	H	1.010418	0.084808	0.068935
	H326	H	0.993653	0.094571	0.050945
	O327	O	0.499932	0.524541	0.536088
	H328	H	0.502338	0.527043	0.537629
	H329	H	0.501765	0.530068	0.535500
	O330	O	0.887675	-0.036602	1.009147
	H331	H	0.902382	-0.045528	1.001854
	H332	H	0.886898	-0.043573	1.023454
	O333	O	1.068742	0.993770	-1.060585
	H334	H	1.068381	0.989987	-1.071356
	H335	H	1.068889	0.985025	-1.073112
	O336	O	1.114917	1.028488	0.987708
	H337	H	1.109726	1.016784	0.995095
	H338	H	1.122885	1.034850	0.975721
	O339	O	0.600343	0.636091	0.596454
	H340	H	0.603742	0.630517	0.597837
	H341	H	0.599868	0.641363	0.591595
	O342	O	-0.057755	0.970382	-0.029529
	H343	H	-0.062726	0.961153	-0.029433
	H344	H	-0.048079	0.981524	-0.025893
	O345	O	0.102413	0.091709	0.042772
	H346	H	0.097055	0.089303	0.035336
	H347	H	0.104598	0.103045	0.044400
	O348	O	0.890609	-0.019390	0.970601
	H349	H	0.891016	-0.021583	0.981055
	H350	H	0.894106	-0.021492	0.978214
	O351	O	0.495257	0.557694	0.536213
	H352	H	0.508387	0.550481	0.540732
	H353	H	0.492535	0.561304	0.544798
	O354	O	0.475241	0.592059	0.460281
	H355	H	0.470723	0.595481	0.464095
	H356	H	0.468675	0.596517	0.459280
	O357	O	0.387961	0.419820	0.507197
	H358	H	0.395088	0.414334	0.510450
	H359	H	0.383962	0.413874	0.508298
	O360	O	-0.006469	-0.002505	0.112548
	H361	H	0.000098	0.001721	0.116152
	H362	H	0.006275	-0.004307	0.103725
	O363	O	0.509068	0.489643	0.421205
	H364	H	0.504955	0.486967	0.421017
	H365	H	0.516112	0.492791	0.420381
	O366	O	0.034171	-0.050174	1.045114
	H367	H	0.039446	-0.041522	1.041001
	H368	H	0.032684	-0.057180	1.031604
	O369	O	0.519966	0.451119	0.563132
	H370	H	0.520766	0.444010	0.563743
	H371	H	0.518236	0.462120	0.558890
