data_Molecule from HDF5

_cell_length_a		16.176397
_cell_length_b		16.314995
_cell_length_c		16.163960
_cell_angle_alpha	89.224152
_cell_angle_beta	91.123958
_cell_angle_gamma	89.285796
_symmetry_space_group_name_H-M	'P 1'
_symmetry_Int_Tables_number		1

loop_
	_symmetry_equiv_pos_as_xyz
	x,y,z

loop_
	_atom_site_label
	_atom_site_type_symbol
	_atom_site_fract_x
	_atom_site_fract_y
	_atom_site_fract_z
	H0	H	0.407697	0.832904	0.713356
	H1	H	0.598740	0.161014	0.714143
	H2	H	0.596664	0.832804	0.291254
	H3	H	0.394027	0.159123	0.278279
	H4	H	0.710359	0.399040	0.833418
	H5	H	0.715887	0.591276	0.161761
	H6	H	0.280821	0.600405	0.833500
	H7	H	0.290831	0.399731	0.163998
	H8	H	0.835173	0.718690	0.390118
	H9	H	0.163344	0.709626	0.597983
	H10	H	0.835272	0.283134	0.597576
	H11	H	0.162348	0.280377	0.400876
	H12	H	0.834425	0.400937	0.709496
	H13	H	0.162196	0.594769	0.715150
	H14	H	0.834370	0.601098	0.278634
	H15	H	0.165192	0.402096	0.290678
	H16	H	0.393257	0.718106	0.835289
	H17	H	0.601443	0.705899	0.163509
	H18	H	0.599221	0.281464	0.834911
	H19	H	0.402794	0.280094	0.162191
	H20	H	0.714952	0.835213	0.405159
	H21	H	0.714264	0.161491	0.598726
	H22	H	0.288395	0.833439	0.598047
	H23	H	0.279059	0.160064	0.394995
	H24	H	0.903407	0.336570	0.214199
	H25	H	0.098525	0.663623	0.211603
	H26	H	0.099289	0.335015	0.786568
	H27	H	0.893224	0.661005	0.777502
	H28	H	0.209992	0.900574	0.332983
	H29	H	0.216163	0.093831	0.662143
	H30	H	0.777960	0.102455	0.334869
	H31	H	0.795499	0.901248	0.664328
	H32	H	0.336323	0.217866	0.890925
	H33	H	0.663230	0.208510	0.102915
	H34	H	0.334908	0.781788	0.097644
	H35	H	0.663208	0.779581	0.904522
	H36	H	0.332954	0.898778	0.209764
	H37	H	0.662975	0.090532	0.216568
	H38	H	0.335460	0.100003	0.779649
	H39	H	0.666010	0.899057	0.792790
	H40	H	0.892786	0.218457	0.334454
	H41	H	0.102158	0.209644	0.662021
	H42	H	0.097897	0.785083	0.332754
	H43	H	0.901784	0.779655	0.659269
	H44	H	0.215774	0.336192	0.900404
	H45	H	0.214775	0.661794	0.097364
	H46	H	0.790096	0.333981	0.096818
	H47	H	0.776106	0.659669	0.892541
	H48	H	0.410497	0.112387	0.591525
	H49	H	0.602569	0.877893	0.602886
	H50	H	0.577365	0.110817	0.405284
	H51	H	0.416963	0.887249	0.417408
	H52	H	0.594603	0.406239	0.114631
	H53	H	0.575582	0.597009	0.882523
	H54	H	0.403190	0.595495	0.119582
	H55	H	0.409785	0.411134	0.883155
	H56	H	0.112531	0.585946	0.411583
	H57	H	0.882324	0.591825	0.581902
	H58	H	0.115461	0.412973	0.601303
	H59	H	0.880122	0.404723	0.403853
	H60	H	0.120384	0.391524	0.596243
	H61	H	0.881444	0.590630	0.585975
	H62	H	0.119123	0.591391	0.395650
	H63	H	0.884304	0.412396	0.407767
	H64	H	0.404919	0.582596	0.114927
	H65	H	0.594748	0.596113	0.875792
	H66	H	0.590782	0.397486	0.116117
	H67	H	0.407104	0.403642	0.879763
	H68	H	0.590693	0.113222	0.414512
	H69	H	0.589808	0.881818	0.598228
	H70	H	0.405857	0.112084	0.582577
	H71	H	0.387132	0.876328	0.411529
	H72	H	0.898519	0.614464	0.080800
	H73	H	0.094177	0.383601	0.093000
	H74	H	0.082638	0.614344	0.900629
	H75	H	0.902463	0.380584	0.904182
	H76	H	0.092984	0.902524	0.614546
	H77	H	0.086040	0.087134	0.382230
	H78	H	0.915514	0.096547	0.615717
	H79	H	0.904561	0.913808	0.380106
	H80	H	0.615988	0.089716	0.914764
	H81	H	0.384894	0.084686	0.082981
	H82	H	0.611732	0.906878	0.086866
	H83	H	0.384493	0.910854	0.910011
	H84	H	0.617995	0.904864	0.109047
	H85	H	0.379157	0.089608	0.092772
	H86	H	0.615906	0.085280	0.905947
	H87	H	0.381618	0.910264	0.899050
	H88	H	0.901518	0.094945	0.618933
	H89	H	0.082150	0.094556	0.380674
	H90	H	0.093838	0.902487	0.615448
	H91	H	0.908216	0.908158	0.380085
	H92	H	0.087145	0.612896	0.910813
	H93	H	0.097413	0.381458	0.095263
	H94	H	0.904294	0.617540	0.093116
	H95	H	0.906918	0.381694	0.901224
	H96	H	0.402106	0.115374	0.590790
	H97	H	0.601289	0.882680	0.590190
	H98	H	0.590708	0.116899	0.398971
	H99	H	0.408955	0.876214	0.387821
	H100	H	0.599671	0.399661	0.118178
	H101	H	0.585875	0.579688	0.883946
	H102	H	0.415292	0.590982	0.113969
	H103	H	0.401572	0.410142	0.880576
	H104	H	0.118527	0.602502	0.409418
	H105	H	0.880508	0.594925	0.585297
	H106	H	0.111973	0.405413	0.579265
	H107	H	0.881626	0.412922	0.399150
	H108	H	0.912303	0.612767	0.083236
	H109	H	0.094154	0.382297	0.096914
	H110	H	0.093599	0.617016	0.903442
	H111	H	0.907417	0.382434	0.906216
	H112	H	0.093195	0.902534	0.615266
	H113	H	0.090418	0.093996	0.378367
	H114	H	0.909123	0.083616	0.613472
	H115	H	0.900645	0.908410	0.377943
	H116	H	0.619601	0.094029	0.906933
	H117	H	0.381495	0.095726	0.082417
	H118	H	0.620281	0.885900	0.095278
	H119	H	0.380395	0.901614	0.905463
	C120	C	0.379182	0.005167	0.618617
	C121	C	0.624618	0.988944	0.623901
	C122	C	0.617617	0.006194	0.379405
	C123	C	0.373977	0.987780	0.374385
	C124	C	0.621921	0.373906	0.007297
	C125	C	0.617767	0.617039	0.989621
	C126	C	0.376709	0.620092	0.007272
	C127	C	0.378659	0.377692	0.989740
	C128	C	0.008245	0.623313	0.373546
	C129	C	0.989958	0.619503	0.616603
	C130	C	0.007626	0.376019	0.620192
	C131	C	0.990615	0.379487	0.377175
	C132	C	0.878324	0.507013	0.117073
	C133	C	0.123060	0.490721	0.121793
	C134	C	0.118530	0.507323	0.877375
	C135	C	0.874303	0.489131	0.873380
	C136	C	0.120843	0.875645	0.505991
	C137	C	0.118393	0.118692	0.489281
	C138	C	0.876217	0.122358	0.507627
	C139	C	0.878640	0.879224	0.488282
	C140	C	0.508654	0.120656	0.876226
	C141	C	0.490203	0.117114	0.118601
	C142	C	0.507622	0.872691	0.122977
	C143	C	0.491310	0.877095	0.879253
	C144	C	0.384824	0.882105	0.675694
	C145	C	0.620342	0.111951	0.677509
	C146	C	0.617138	0.882417	0.327197
	C147	C	0.374403	0.110317	0.316609
	C148	C	0.674364	0.377830	0.883050
	C149	C	0.676938	0.612768	0.113078
	C150	C	0.319023	0.620026	0.883038
	C151	C	0.326577	0.378808	0.114190
	C152	C	0.884540	0.680458	0.371469
	C153	C	0.113902	0.672549	0.617086
	C154	C	0.884129	0.321534	0.617088
	C155	C	0.113912	0.320642	0.380858
	C156	C	0.883616	0.380311	0.672577
	C157	C	0.113346	0.615667	0.675734
	C158	C	0.884034	0.621990	0.315885
	C159	C	0.115376	0.381016	0.325920
	C160	C	0.375089	0.678447	0.883874
	C161	C	0.619758	0.669513	0.113782
	C162	C	0.619011	0.319302	0.883803
	C163	C	0.382437	0.319471	0.113393
	C164	C	0.675608	0.883541	0.384173
	C165	C	0.677695	0.112334	0.619980
	C166	C	0.325764	0.882263	0.618004
	C167	C	0.317380	0.110862	0.374825
	C168	C	0.883015	0.384794	0.175043
	C169	C	0.119622	0.614020	0.175200
	C170	C	0.118461	0.384161	0.823567
	C171	C	0.873791	0.611892	0.815997
	C172	C	0.173929	0.879535	0.382243
	C173	C	0.177016	0.114664	0.612927
	C174	C	0.816808	0.122222	0.384160
	C175	C	0.829218	0.880587	0.613687
	C176	C	0.385351	0.178703	0.873284
	C177	C	0.613973	0.170872	0.120814
	C178	C	0.384041	0.818971	0.118344
	C179	C	0.614691	0.819196	0.883868
	C180	C	0.382969	0.877118	0.174426
	C181	C	0.613783	0.112476	0.177712
	C182	C	0.384936	0.119776	0.817626
	C183	C	0.616233	0.878597	0.828590
	C184	C	0.874168	0.179725	0.383812
	C185	C	0.120226	0.172410	0.612895
	C186	C	0.117866	0.822129	0.382261
	C187	C	0.882198	0.820048	0.611230
	C188	C	0.176691	0.384662	0.880426
	C189	C	0.177379	0.613413	0.118080
	C190	C	0.826289	0.383705	0.116680
	C191	C	0.815439	0.611245	0.873180
	C192	C	0.399952	0.090977	0.595134
	C193	C	0.604037	0.903102	0.603220
	C194	C	0.593332	0.091601	0.400358
	C195	C	0.397431	0.901981	0.398650
	C196	C	0.601184	0.394802	0.093867
	C197	C	0.592861	0.596796	0.903109
	C198	C	0.400731	0.596533	0.093844
	C199	C	0.399940	0.401380	0.903551
	C200	C	0.094530	0.600088	0.398306
	C201	C	0.903750	0.598495	0.591757
	C202	C	0.093619	0.397082	0.598756
	C203	C	0.904420	0.402945	0.397817
	C204	C	0.898871	0.592974	0.092669
	C205	C	0.101576	0.404800	0.101001
	C206	C	0.094893	0.592475	0.898817
	C207	C	0.898437	0.403666	0.897033
	C208	C	0.099802	0.896383	0.592642
	C209	C	0.093562	0.097983	0.402827
	C210	C	0.901378	0.098554	0.593761
	C211	C	0.898628	0.903162	0.401636
	C212	C	0.594736	0.096766	0.901716
	C213	C	0.404212	0.096245	0.093329
	C214	C	0.594225	0.893355	0.103091
	C215	C	0.404508	0.900501	0.899058
	Zn216	Zn	0.501073	-0.002147	0.750186
	Zn217	Zn	0.497543	-0.004331	0.248219
	Zn218	Zn	0.747383	0.496856	-0.003123
	Zn219	Zn	0.249146	0.498752	-0.001401
	Zn220	Zn	-0.001301	0.749504	0.495410
	Zn221	Zn	-0.001508	0.248704	0.498093
	Zn222	Zn	-0.001922	0.497977	0.746843
	Zn223	Zn	-0.000196	0.500284	0.247403
	Zn224	Zn	0.498875	0.746855	-0.000481
	Zn225	Zn	0.499715	0.247492	-0.001720
	Zn226	Zn	0.750027	-0.000821	0.499798
	Zn227	Zn	0.247407	-0.002836	0.497673
	N228	N	0.417285	0.959648	0.675991
	N229	N	0.588330	0.034356	0.680344
	N230	N	0.581702	0.959491	0.324233
	N231	N	0.408626	0.032609	0.316335
	N232	N	0.676330	0.411119	0.960732
	N233	N	0.675860	0.580820	0.034769
	N234	N	0.319892	0.584575	0.960859
	N235	N	0.323997	0.414215	0.036319
	N236	N	0.962670	0.681420	0.406605
	N237	N	0.036127	0.675358	0.581039
	N238	N	0.962318	0.318504	0.585126
	N239	N	0.035222	0.319377	0.411779
	N240	N	0.961407	0.413350	0.674765
	N241	N	0.035242	0.583522	0.675437
	N242	N	0.961825	0.586867	0.317066
	N243	N	0.037998	0.416964	0.323485
	N244	N	0.410287	0.678585	0.962059
	N245	N	0.583748	0.672320	0.035984
	N246	N	0.587417	0.316244	0.962264
	N247	N	0.413836	0.318564	0.034988
	N248	N	0.676437	0.961583	0.415772
	N249	N	0.680688	0.034777	0.587409
	N250	N	0.322262	0.959714	0.583326
	N251	N	0.316781	0.033495	0.409960
	N252	N	0.914696	0.462759	0.175305
	N253	N	0.086489	0.536656	0.177644
	N254	N	0.082967	0.461279	0.821426
	N255	N	0.909597	0.534865	0.815863
	N256	N	0.175866	0.912165	0.460240
	N257	N	0.175770	0.081893	0.535012
	N258	N	0.818002	0.087181	0.462198
	N259	N	0.826941	0.916850	0.536287
	N260	N	0.463224	0.179337	0.909041
	N261	N	0.536204	0.173762	0.084390
	N262	N	0.462508	0.815927	0.087139
	N263	N	0.535844	0.818042	0.914575
	N264	N	0.460888	0.909665	0.177583
	N265	N	0.536021	0.079533	0.176269
	N266	N	0.462763	0.084397	0.819186
	N267	N	0.538587	0.914015	0.825735
	N268	N	0.910208	0.180038	0.461601
	N269	N	0.084425	0.175149	0.534903
	N270	N	0.085386	0.819440	0.460288
	N271	N	0.912220	0.819034	0.532258
	N272	N	0.176948	0.462172	0.913307
	N273	N	0.179647	0.535779	0.085732
	N274	N	0.823560	0.460703	0.081044
	N275	N	0.815349	0.533816	0.907860
	O276	O	0.511039	0.482527	0.595879
	H277	H	0.510810	0.480507	0.596602
	H278	H	0.520982	0.485708	0.589199
	O279	O	0.493348	0.497047	0.516456
	H280	H	0.491788	0.495515	0.516051
	H281	H	0.497246	0.491055	0.522107
	O282	O	0.894116	0.979063	-0.034363
	H283	H	0.890066	0.987222	-0.031436
	H284	H	0.900261	0.978995	-0.042212
	O285	O	1.109516	0.075499	1.057669
	H286	H	1.100139	0.069460	1.069241
	H287	H	1.110230	0.072718	1.064286
	O288	O	0.470337	0.516706	0.529173
	H289	H	0.464414	0.517768	0.531443
	H290	H	0.475742	0.499865	0.531884
	O291	O	0.541268	0.517395	0.582542
	H292	H	0.549558	0.527106	0.590690
	H293	H	0.552428	0.508364	0.586951
	O294	O	0.391664	0.380415	0.590347
	H295	H	0.395521	0.371637	0.601139
	H296	H	0.377832	0.368365	0.594654
	O297	O	-0.080117	0.008516	0.863012
	H298	H	-0.090950	0.013618	0.852031
	H299	H	-0.074418	0.002121	0.861363
	O300	O	0.494774	0.538474	0.461459
	H301	H	0.499103	0.537799	0.464170
	H302	H	0.493020	0.543497	0.455943
	O303	O	0.866323	0.769127	-0.198212
	H304	H	0.855398	0.777768	-0.207017
	H305	H	0.875539	0.771519	-0.197895
	O306	O	-0.048612	1.041610	1.035586
	H307	H	-0.030839	1.041693	1.040137
	H308	H	-0.054532	1.035447	1.041005
	O309	O	0.537040	0.454246	0.588161
	H310	H	0.537311	0.459678	0.581707
	H311	H	0.551548	0.456038	0.595013
	O312	O	-0.118335	0.077727	0.015982
	H313	H	-0.126413	0.077543	0.018888
	H314	H	-0.120136	0.068192	0.018670
	O315	O	1.084978	-0.040945	-0.024347
	H316	H	1.099837	-0.046730	-0.032611
	H317	H	1.089239	-0.028860	-0.015957
	O318	O	1.006806	0.974696	1.045708
	H319	H	0.995889	0.974042	1.043010
	H320	H	1.008729	0.972959	1.038061
	O321	O	-0.073294	0.028193	0.974065
	H322	H	-0.078253	0.031560	0.965050
	H323	H	-0.072008	0.033942	0.976153
	O324	O	0.553128	0.466772	0.536402
	H325	H	0.545812	0.466426	0.525848
	H326	H	0.553445	0.464851	0.540043
	O327	O	-0.021691	-0.015160	-0.030916
	H328	H	-0.019482	-0.009632	-0.025665
	H329	H	-0.023095	-0.011561	-0.029478
	O330	O	0.566930	0.407601	0.508420
	H331	H	0.566170	0.394299	0.494735
	H332	H	0.571664	0.416416	0.519991
	O333	O	0.099248	1.011591	0.882477
	H334	H	0.106419	1.010828	0.896643
	H335	H	0.086718	1.016722	0.872313
	O336	O	-0.052658	-0.025224	-0.049450
	H337	H	-0.052182	-0.015674	-0.039768
	H338	H	-0.056163	-0.019819	-0.051177
	O339	O	0.511852	0.507983	0.439881
	H340	H	0.506057	0.514850	0.431731
	H341	H	0.515801	0.497035	0.448075
	O342	O	1.013114	0.953089	1.072072
	H343	H	0.998338	0.944088	1.073202
	H344	H	1.014158	0.959492	1.061232
	O345	O	0.986456	0.970524	-0.005312
	H346	H	0.989000	0.975466	-0.001660
	H347	H	0.983472	0.968797	-0.007137
	O348	O	0.544169	0.551509	0.425136
	H349	H	0.546604	0.558337	0.427069
	H350	H	0.531262	0.560791	0.427481
	O351	O	0.448617	0.558178	0.334082
	H352	H	0.444241	0.573345	0.317196
	H353	H	0.441498	0.564811	0.334621
	O354	O	0.538884	0.488654	0.475609
	H355	H	0.526361	0.494596	0.480993
	H356	H	0.551141	0.498781	0.475050
	O357	O	0.994255	0.054607	1.127265
	H358	H	1.001676	0.048637	1.115344
	H359	H	0.974557	0.060508	1.122086
	O360	O	0.591009	0.552104	0.526081
	H361	H	0.588103	0.548024	0.534802
	H362	H	0.578835	0.547368	0.527449
	O363	O	1.020293	1.032603	0.955504
	H364	H	1.018165	1.030347	0.950827
	H365	H	1.014359	1.035679	0.950624
	O366	O	1.075678	1.122313	1.028273
	H367	H	1.079811	1.131812	1.033186
	H368	H	1.061563	1.128629	1.026367
	O369	O	1.052242	-0.164539	0.972472
	H370	H	1.055323	-0.166435	0.968345
	H371	H	1.066508	-0.171070	0.966781
	O372	O	0.051208	0.117735	0.061196
	H373	H	0.047258	0.116589	0.076076
	H374	H	0.063647	0.119320	0.073401
	O375	O	0.923588	0.034929	-0.042812
	H376	H	0.934408	0.018637	-0.049961
	H377	H	0.927305	0.033102	-0.041209
	O378	O	0.378116	0.478977	0.469391
	H379	H	0.383966	0.483587	0.464218
	H380	H	0.378198	0.479361	0.470071
	O381	O	0.410716	0.521565	0.413531
	H382	H	0.415067	0.533094	0.398516
	H383	H	0.403889	0.522427	0.396610
