data_Molecule from HDF5

_cell_length_a		16.525897
_cell_length_b		16.539020
_cell_length_c		16.385560
_cell_angle_alpha	89.893123
_cell_angle_beta	90.048977
_cell_angle_gamma	89.982040
_symmetry_space_group_name_H-M	'P 1'
_symmetry_Int_Tables_number		1

loop_
	_symmetry_equiv_pos_as_xyz
	x,y,z

loop_
	_atom_site_label
	_atom_site_type_symbol
	_atom_site_fract_x
	_atom_site_fract_y
	_atom_site_fract_z
	H0	H	0.392871	0.843420	0.754521
	H1	H	0.601948	0.158848	0.748044
	H2	H	0.606729	0.843382	0.307598
	H3	H	0.400117	0.158980	0.313635
	H4	H	0.719858	0.397693	0.871391
	H5	H	0.719658	0.605943	0.189257
	H6	H	0.275369	0.608654	0.872710
	H7	H	0.280296	0.396717	0.188823
	H8	H	0.842172	0.724638	0.422519
	H9	H	0.156160	0.724679	0.637900
	H10	H	0.842539	0.279811	0.634994
	H11	H	0.157691	0.282944	0.427562
	H12	H	0.840835	0.398623	0.749117
	H13	H	0.156475	0.607428	0.753240
	H14	H	0.841011	0.607326	0.308182
	H15	H	0.157720	0.400774	0.311911
	H16	H	0.391351	0.723669	0.872582
	H17	H	0.606788	0.724629	0.187029
	H18	H	0.605758	0.280858	0.870987
	H19	H	0.397665	0.281897	0.189376
	H20	H	0.724583	0.844368	0.422268
	H21	H	0.723347	0.156038	0.636801
	H22	H	0.274728	0.843576	0.639803
	H23	H	0.281697	0.158435	0.428303
	H24	H	0.896394	0.345442	0.251082
	H25	H	0.106802	0.658591	0.254184
	H26	H	0.101156	0.343603	0.811855
	H27	H	0.890709	0.657894	0.804942
	H28	H	0.220871	0.894857	0.371717
	H29	H	0.219987	0.104115	0.688679
	H30	H	0.778363	0.106512	0.373351
	H31	H	0.775737	0.890943	0.687743
	H32	H	0.343392	0.223906	0.923492
	H33	H	0.656607	0.221456	0.134796
	H34	H	0.343218	0.776575	0.138994
	H35	H	0.654711	0.773965	0.919293
	H36	H	0.343042	0.893392	0.254204
	H37	H	0.657039	0.104435	0.250704
	H38	H	0.342461	0.104319	0.809411
	H39	H	0.657009	0.893716	0.806674
	H40	H	0.896228	0.220601	0.371989
	H41	H	0.105706	0.222423	0.687716
	H42	H	0.106789	0.778535	0.372728
	H43	H	0.891407	0.775916	0.687302
	H44	H	0.220743	0.344430	0.925608
	H45	H	0.225905	0.656802	0.140995
	H46	H	0.777469	0.345971	0.136509
	H47	H	0.772352	0.656647	0.919497
	H48	H	0.401539	0.112178	0.611771
	H49	H	0.589128	0.887078	0.620743
	H50	H	0.596381	0.111937	0.447384
	H51	H	0.412941	0.888135	0.444274
	H52	H	0.589144	0.411349	0.143426
	H53	H	0.581076	0.583505	0.921591
	H54	H	0.417905	0.593107	0.142355
	H55	H	0.413203	0.411000	0.916116
	H56	H	0.110395	0.593761	0.446055
	H57	H	0.888727	0.587415	0.616680
	H58	H	0.113292	0.409410	0.619979
	H59	H	0.885120	0.406277	0.444009
	H60	H	0.112239	0.411925	0.620705
	H61	H	0.888333	0.590121	0.616091
	H62	H	0.109049	0.585624	0.442914
	H63	H	0.887829	0.415322	0.441946
	H64	H	0.406197	0.590830	0.145109
	H65	H	0.584338	0.593861	0.916113
	H66	H	0.588707	0.410977	0.143980
	H67	H	0.407072	0.411034	0.914948
	H68	H	0.592462	0.116408	0.434232
	H69	H	0.583711	0.890306	0.616300
	H70	H	0.408270	0.114924	0.627962
	H71	H	0.407020	0.886867	0.444091
	H72	H	0.909308	0.615829	0.120217
	H73	H	0.088634	0.388097	0.125276
	H74	H	0.084772	0.610516	0.947896
	H75	H	0.912064	0.390923	0.941139
	H76	H	0.086167	0.916879	0.641360
	H77	H	0.092511	0.093448	0.414970
	H78	H	0.914196	0.089808	0.644006
	H79	H	0.912850	0.913046	0.418607
	H80	H	0.614117	0.094902	0.938834
	H81	H	0.386440	0.092876	0.118391
	H82	H	0.609781	0.911008	0.113252
	H83	H	0.389951	0.912619	0.945541
	H84	H	0.609618	0.915763	0.117620
	H85	H	0.386997	0.089087	0.120764
	H86	H	0.611824	0.091010	0.943557
	H87	H	0.389587	0.916082	0.941742
	H88	H	0.911432	0.091760	0.644889
	H89	H	0.091402	0.090974	0.415388
	H90	H	0.083430	0.911567	0.641847
	H91	H	0.911645	0.915781	0.419034
	H92	H	0.092321	0.614536	0.943724
	H93	H	0.083677	0.393188	0.117492
	H94	H	0.911868	0.614089	0.116919
	H95	H	0.907140	0.390834	0.944223
	H96	H	0.418023	0.108171	0.615197
	H97	H	0.591110	0.889373	0.613568
	H98	H	0.582881	0.109185	0.442223
	H99	H	0.410195	0.886542	0.439532
	H100	H	0.589739	0.411023	0.143622
	H101	H	0.592119	0.584534	0.916689
	H102	H	0.412928	0.582079	0.139796
	H103	H	0.409958	0.416246	0.917190
	H104	H	0.112627	0.591978	0.437875
	H105	H	0.889410	0.587994	0.614417
	H106	H	0.113951	0.410515	0.622282
	H107	H	0.884438	0.410121	0.435238
	H108	H	0.908434	0.615137	0.115985
	H109	H	0.093260	0.390547	0.116168
	H110	H	0.084315	0.614108	0.938895
	H111	H	0.907311	0.388373	0.938638
	H112	H	0.089181	0.912196	0.643592
	H113	H	0.089529	0.093138	0.415128
	H114	H	0.910754	0.088632	0.644022
	H115	H	0.914872	0.915593	0.419418
	H116	H	0.612820	0.088554	0.937847
	H117	H	0.385497	0.092498	0.122488
	H118	H	0.611802	0.910863	0.119260
	H119	H	0.387364	0.911407	0.940969
	C120	C	0.376521	0.008562	0.652599
	C121	C	0.620748	0.992222	0.650060
	C122	C	0.622831	0.008827	0.408298
	C123	C	0.379052	0.991583	0.410336
	C124	C	0.621008	0.379611	0.038659
	C125	C	0.619690	0.621488	1.022071
	C126	C	0.378035	0.622354	0.038360
	C127	C	0.379271	0.380522	1.021442
	C128	C	0.007016	0.623282	0.408531
	C129	C	0.991579	0.622747	0.650971
	C130	C	0.008320	0.379253	0.652469
	C131	C	0.990676	0.380250	0.409041
	C132	C	0.878574	0.510781	0.150524
	C133	C	0.121719	0.493646	0.152787
	C134	C	0.119844	0.509831	0.910225
	C135	C	0.875961	0.493506	0.908007
	C136	C	0.119987	0.880008	0.538569
	C137	C	0.122103	0.122952	0.520748
	C138	C	0.879557	0.121845	0.539581
	C139	C	0.878839	0.880100	0.522527
	C140	C	0.508883	0.122878	0.908117
	C141	C	0.490902	0.122270	0.151637
	C142	C	0.507323	0.879199	0.151148
	C143	C	0.491791	0.879240	0.908176
	C144	C	0.374231	0.890757	0.714435
	C145	C	0.621862	0.110969	0.709249
	C146	C	0.625209	0.890717	0.347509
	C147	C	0.379758	0.111208	0.352087
	C148	C	0.680731	0.378462	0.919217
	C149	C	0.680391	0.624536	0.141160
	C150	C	0.316396	0.625865	0.920070
	C151	C	0.320212	0.378350	0.141122
	C152	C	0.889435	0.684401	0.404893
	C153	C	0.109154	0.684183	0.655346
	C154	C	0.889608	0.319919	0.653622
	C155	C	0.110299	0.322831	0.408791
	C156	C	0.888816	0.379178	0.710206
	C157	C	0.109394	0.625745	0.712784
	C158	C	0.888780	0.625941	0.347810
	C159	C	0.110208	0.381315	0.351226
	C160	C	0.374113	0.683383	0.919641
	C161	C	0.624301	0.683700	0.140084
	C162	C	0.623480	0.320488	0.919048
	C163	C	0.378306	0.321178	0.141423
	C164	C	0.683754	0.891122	0.404954
	C165	C	0.682386	0.109558	0.654248
	C166	C	0.315354	0.890800	0.657221
	C167	C	0.321121	0.110836	0.409235
	C168	C	0.877179	0.392488	0.211102
	C169	C	0.124758	0.611507	0.213842
	C170	C	0.121242	0.391157	0.850578
	C171	C	0.872714	0.610842	0.845617
	C172	C	0.180982	0.876841	0.419582
	C173	C	0.180959	0.123837	0.640866
	C174	C	0.818914	0.124485	0.420719
	C175	C	0.816542	0.874695	0.640631
	C176	C	0.390464	0.183216	0.905394
	C177	C	0.609373	0.181580	0.153462
	C178	C	0.389996	0.817390	0.155872
	C179	C	0.608274	0.815837	0.902684
	C180	C	0.390086	0.875618	0.213414
	C181	C	0.609560	0.123304	0.211065
	C182	C	0.389934	0.123877	0.848643
	C183	C	0.609347	0.875627	0.846545
	C184	C	0.877239	0.181421	0.419922
	C185	C	0.124156	0.182328	0.640315
	C186	C	0.123834	0.819216	0.419692
	C187	C	0.874095	0.817147	0.640311
	C188	C	0.180358	0.391686	0.907500
	C189	C	0.183825	0.610590	0.157094
	C190	C	0.818351	0.392663	0.154071
	C191	C	0.813784	0.610352	0.902865
	C192	C	0.402007	0.090505	0.626056
	C193	C	0.595297	0.910168	0.624314
	C194	C	0.597690	0.091123	0.433974
	C195	C	0.403034	0.908806	0.435362
	C196	C	0.596227	0.404062	0.121969
	C197	C	0.593246	0.595201	0.939619
	C198	C	0.404740	0.596322	0.120973
	C199	C	0.403295	0.405407	0.938075
	C200	C	0.089268	0.597849	0.434816
	C201	C	0.910189	0.596153	0.623689
	C202	C	0.091456	0.403503	0.628084
	C203	C	0.907378	0.403745	0.433353
	C204	C	0.902795	0.593466	0.125000
	C205	C	0.095848	0.412099	0.126913
	C206	C	0.094342	0.591733	0.935948
	C207	C	0.901522	0.411415	0.934037
	C208	C	0.093799	0.906050	0.620788
	C209	C	0.097981	0.099188	0.436940
	C210	C	0.904749	0.097010	0.622794
	C211	C	0.905464	0.907028	0.440471
	C212	C	0.591347	0.098586	0.932946
	C213	C	0.407758	0.098342	0.127392
	C214	C	0.589162	0.905218	0.124262
	C215	C	0.410255	0.905581	0.935109
	Zn216	Zn	0.500128	0.000749	0.779140
	Zn217	Zn	0.499816	0.000063	0.280566
	Zn218	Zn	0.748436	0.501893	0.030605
	Zn219	Zn	0.250267	0.501320	0.030603
	Zn220	Zn	-0.000718	0.751986	0.529782
	Zn221	Zn	0.000174	0.250652	0.530251
	Zn222	Zn	-0.000824	0.501833	0.780348
	Zn223	Zn	-0.001165	0.502671	0.280400
	Zn224	Zn	0.499373	0.750249	0.029655
	Zn225	Zn	0.499681	0.251545	0.029777
	Zn226	Zn	0.750968	0.000366	0.530680
	Zn227	Zn	0.248663	-0.000133	0.530338
	N228	N	0.411631	0.965044	0.711567
	N229	N	0.584141	0.037029	0.706731
	N230	N	0.587966	0.965043	0.349416
	N231	N	0.414993	0.035921	0.352498
	N232	N	0.679571	0.414286	0.994720
	N233	N	0.677776	0.586820	0.066494
	N234	N	0.318629	0.588956	0.995153
	N235	N	0.320530	0.414396	0.065613
	N236	N	0.964141	0.682901	0.441909
	N237	N	0.034813	0.682429	0.617553
	N238	N	0.965176	0.319715	0.618588
	N239	N	0.034650	0.321902	0.443628
	N240	N	0.963830	0.414973	0.709933
	N241	N	0.035123	0.588534	0.710316
	N242	N	0.963126	0.588911	0.349907
	N243	N	0.034732	0.416262	0.351189
	N244	N	0.411805	0.681195	0.994357
	N245	N	0.587258	0.681766	0.065135
	N246	N	0.587257	0.320857	0.994558
	N247	N	0.414130	0.322170	0.065744
	N248	N	0.682606	0.965608	0.441708
	N249	N	0.681956	0.034565	0.618557
	N250	N	0.316947	0.964965	0.619267
	N251	N	0.320476	0.035419	0.444555
	N252	N	0.913985	0.466829	0.208824
	N253	N	0.086774	0.537894	0.211293
	N254	N	0.084232	0.465611	0.852219
	N255	N	0.911022	0.537186	0.848951
	N256	N	0.179035	0.913915	0.494663
	N257	N	0.179697	0.087568	0.565513
	N258	N	0.820305	0.088120	0.496082
	N259	N	0.819422	0.913284	0.566276
	N260	N	0.465437	0.182792	0.941481
	N261	N	0.534461	0.181081	0.117176
	N262	N	0.464170	0.819499	0.117687
	N263	N	0.533991	0.817833	0.940117
	N264	N	0.464079	0.913066	0.210688
	N265	N	0.534844	0.086984	0.210016
	N266	N	0.464562	0.087372	0.849878
	N267	N	0.535806	0.914240	0.849694
	N268	N	0.914208	0.179943	0.495019
	N269	N	0.088363	0.182033	0.564557
	N270	N	0.086646	0.820975	0.494646
	N271	N	0.912015	0.820415	0.566000
	N272	N	0.179781	0.466518	0.943650
	N273	N	0.182347	0.536200	0.119867
	N274	N	0.819365	0.467276	0.116931
	N275	N	0.815769	0.536381	0.940876
	O276	O	-0.217477	0.220931	0.005918
	H277	H	-0.209493	0.215298	-0.028765
	H278	H	-0.241304	0.247374	-0.001705
	O279	O	1.204635	1.203453	0.234566
	H280	H	1.193661	1.209410	0.250985
	H281	H	1.205115	1.215922	0.241396
	O282	O	0.034119	0.216334	0.242531
	H283	H	0.018334	0.237205	0.237070
	H284	H	0.034709	0.220915	0.243675
	O285	O	0.353531	0.666280	0.565054
	H286	H	0.360901	0.675452	0.571483
	H287	H	0.364129	0.667792	0.583394
	O288	O	-0.082494	-0.215653	-0.065287
	H289	H	-0.104526	-0.211032	-0.041416
	H290	H	-0.064137	-0.224800	-0.051767
	O291	O	0.963602	0.787493	0.220273
	H292	H	0.961150	0.766878	0.241989
	H293	H	0.979788	0.778396	0.193866
	O294	O	0.179565	0.813600	-0.149713
	H295	H	0.181687	0.856901	-0.159881
	H296	H	0.139502	0.805022	-0.164935
	O297	O	0.699456	0.591363	0.727857
	H298	H	0.712843	0.576306	0.731118
	H299	H	0.684965	0.568829	0.725599
	O300	O	0.548716	0.375725	0.623791
	H301	H	0.565322	0.364785	0.635652
	H302	H	0.536743	0.388662	0.630378
	O303	O	0.666577	0.517365	0.339307
	H304	H	0.664760	0.512505	0.340677
	H305	H	0.673198	0.510227	0.346096
	O306	O	-0.687917	1.313460	1.536855
	H307	H	-0.696164	1.314683	1.527773
	H308	H	-0.672439	1.319349	1.523169
	O309	O	0.994336	1.025170	0.230285
	H310	H	0.981733	1.015037	0.233430
	H311	H	1.009216	1.032621	0.223967
	O312	O	0.206834	0.976431	-0.175566
	H313	H	0.223049	0.982313	-0.175072
	H314	H	0.218183	0.991961	-0.163960
	O315	O	-0.198140	0.194011	0.839161
	H316	H	-0.204465	0.157349	0.825982
	H317	H	-0.160661	0.195452	0.837615
	O318	O	0.627582	0.714879	0.643385
	H319	H	0.653063	0.715135	0.645444
	H320	H	0.628384	0.729795	0.681808
	O321	O	0.507409	0.293425	0.524910
	H322	H	0.513635	0.294454	0.529668
	H323	H	0.518702	0.291051	0.529443
	O324	O	0.773211	0.961162	-0.002729
	H325	H	0.764771	0.961714	0.003117
	H326	H	0.778699	0.978470	-0.011377
	O327	O	0.865022	0.023832	1.088443
	H328	H	0.869593	0.050817	1.089404
	H329	H	0.843846	0.006241	1.097089
	O330	O	0.299393	0.522328	-0.675275
	H331	H	0.283385	0.528365	-0.690896
	H332	H	0.319657	0.529280	-0.678595
	O333	O	1.173402	1.208977	1.044722
	H334	H	1.178730	1.214302	1.050856
	H335	H	1.183528	1.206266	1.065740
	O336	O	0.328971	-0.317525	0.357423
	H337	H	0.323153	-0.340134	0.375522
	H338	H	0.342876	-0.304833	0.374781
	O339	O	0.492580	0.630291	0.566082
	H340	H	0.484946	0.626964	0.564490
	H341	H	0.501159	0.630988	0.564346
	O342	O	0.804525	-0.211519	0.060232
	H343	H	0.788769	-0.226965	0.075726
	H344	H	0.794560	-0.196955	0.046091
	O345	O	0.540429	0.504121	0.476049
	H346	H	0.535903	0.515169	0.475194
	H347	H	0.545716	0.503954	0.466352
	O348	O	1.331905	-0.662960	1.346840
	H349	H	1.339359	-0.642791	1.357734
	H350	H	1.357095	-0.648310	1.360482
	O351	O	1.174072	1.179879	-0.157031
	H352	H	1.166531	1.176447	-0.144622
	H353	H	1.161689	1.155133	-0.140415
	O354	O	0.600236	0.532366	0.644015
	H355	H	0.582870	0.509003	0.629734
	H356	H	0.606142	0.529235	0.651236
	O357	O	1.227549	0.942713	1.079351
	H358	H	1.223278	0.922068	1.080383
	H359	H	1.238248	0.928939	1.094324
	O360	O	0.552577	0.499210	0.417665
	H361	H	0.560785	0.500054	0.418885
	H362	H	0.566336	0.491784	0.420257
	O363	O	1.031356	-0.060780	0.071477
	H364	H	1.024690	-0.064872	0.088436
	H365	H	1.042486	-0.063064	0.077835
	O366	O	1.472183	-0.292984	1.319404
	H367	H	1.458829	-0.284895	1.312004
	H368	H	1.478871	-0.280168	1.313847
	O369	O	0.344420	0.676902	-0.430827
	H370	H	0.329816	0.678042	-0.419879
	H371	H	0.358938	0.682662	-0.423421
	O372	O	0.290269	0.477770	0.742298
	H373	H	0.274751	0.469997	0.763973
	H374	H	0.286784	0.457691	0.725816
	O375	O	-0.235307	0.236839	1.263888
	H376	H	-0.229776	0.212792	1.255818
	H377	H	-0.218487	0.222369	1.244845
	O378	O	0.684747	0.611399	0.531612
	H379	H	0.688642	0.612721	0.525534
	H380	H	0.692230	0.623073	0.531425
	O381	O	1.185823	-0.204344	0.011907
	H382	H	1.172330	-0.195941	-0.028874
	H383	H	1.213590	-0.231282	0.005931
	O384	O	0.219941	0.033632	1.243857
	H385	H	0.219907	0.052372	1.241506
	H386	H	0.238492	0.038065	1.266566
	O387	O	0.079778	0.777740	1.062193
	H388	H	0.111549	0.766261	1.056242
	H389	H	0.089389	0.805825	1.053637
	O390	O	-0.077536	0.018124	1.065161
	H391	H	-0.082987	0.015980	1.062547
	H392	H	-0.069321	0.023274	1.065126
	O393	O	0.305487	0.301391	-0.276479
	H394	H	0.307552	0.305864	-0.315735
	H395	H	0.280547	0.279605	-0.262876
	O396	O	0.652139	0.473713	0.556333
	H397	H	0.653236	0.487920	0.551140
	H398	H	0.642744	0.480882	0.568168
	O399	O	1.162983	-0.090406	1.125214
	H400	H	1.177931	-0.073289	1.135472
	H401	H	1.159325	-0.090557	1.138236
	O402	O	0.017526	0.049478	0.814570
	H403	H	0.016610	0.035003	0.820188
	H404	H	0.022075	0.047215	0.806990
	O405	O	0.213928	0.103272	0.003527
	H406	H	0.207364	0.093402	0.030135
	H407	H	0.223558	0.118172	0.020421
	O408	O	0.967179	1.186242	-0.155312
	H409	H	0.978651	1.183746	-0.153489
	H410	H	0.976599	1.207199	-0.163748
	O411	O	-0.079375	0.906953	-0.113007
	H412	H	-0.084780	0.901529	-0.088604
	H413	H	-0.061536	0.884209	-0.107376
	O414	O	-0.216726	0.978139	0.244425
	H415	H	-0.232078	0.977073	0.260800
	H416	H	-0.214322	0.958197	0.246722
	O417	O	-0.217516	0.029496	0.813038
	H418	H	-0.200578	0.016049	0.801579
	H419	H	-0.234271	0.022750	0.790368
	O420	O	0.493494	0.655118	0.591807
	H421	H	0.493689	0.661201	0.596366
	H422	H	0.489117	0.650657	0.604146
	O423	O	-0.089614	1.217959	0.124166
	H424	H	-0.079727	1.215407	0.102067
	H425	H	-0.087369	1.205443	0.114133
	O426	O	0.286439	1.477193	0.558999
	H427	H	0.297531	1.473764	0.568553
	H428	H	0.276367	1.492491	0.536489
	O429	O	0.476835	0.531642	0.701927
	H430	H	0.456104	0.509496	0.704854
	H431	H	0.481812	0.533043	0.695734
	O432	O	0.523527	0.296275	0.326272
	H433	H	0.545991	0.297716	0.321421
	H434	H	0.531772	0.293950	0.310276
	O435	O	-0.529612	0.286559	-0.254446
	H436	H	-0.550947	0.274875	-0.246879
	H437	H	-0.545929	0.272020	-0.245303
	O438	O	0.993304	0.054548	-0.029225
	H439	H	0.999036	0.052597	-0.038823
	H440	H	0.985143	0.049737	-0.028402
	O441	O	0.915862	0.920437	0.228970
	H442	H	0.920587	0.909522	0.228303
	H443	H	0.921081	0.928929	0.232104
	O444	O	0.703629	0.287505	0.506796
	H445	H	0.706740	0.281993	0.499933
	H446	H	0.709906	0.277371	0.516890
	O447	O	0.525182	0.598892	0.620571
	H448	H	0.524759	0.579556	0.636066
	H449	H	0.495516	0.613802	0.617650
	O450	O	0.696500	0.362493	0.332144
	H451	H	0.705945	0.364186	0.342223
	H452	H	0.723172	0.334134	0.312993
	O453	O	1.019847	0.788021	-0.177845
	H454	H	1.016921	0.759830	-0.201934
	H455	H	0.999729	0.778667	-0.147889
	O456	O	0.875980	-0.102428	0.146709
	H457	H	0.881493	-0.105053	0.138204
	H458	H	0.874014	-0.108507	0.133220
	O459	O	0.638676	0.457299	0.609779
	H460	H	0.635007	0.447060	0.589956
	H461	H	0.624009	0.432958	0.620783
	O462	O	0.441916	0.542653	0.466647
	H463	H	0.447870	0.551828	0.460692
	H464	H	0.446424	0.537693	0.458890
	O465	O	1.028849	0.226479	0.003112
	H466	H	1.031819	0.225450	0.008200
	H467	H	1.036534	0.214305	-0.008629
