data_Molecule from HDF5

_cell_length_a		16.623582
_cell_length_b		16.487573
_cell_length_c		16.497395
_cell_angle_alpha	90.014481
_cell_angle_beta	89.970276
_cell_angle_gamma	89.952853
_symmetry_space_group_name_H-M	'P 1'
_symmetry_Int_Tables_number		1

loop_
	_symmetry_equiv_pos_as_xyz
	x,y,z

loop_
	_atom_site_label
	_atom_site_type_symbol
	_atom_site_fract_x
	_atom_site_fract_y
	_atom_site_fract_z
	H0	H	0.393508	0.869202	0.751134
	H1	H	0.601502	0.185730	0.755321
	H2	H	0.595484	0.868642	0.317155
	H3	H	0.393318	0.186128	0.311186
	H4	H	0.720667	0.418892	0.874755
	H5	H	0.714507	0.629639	0.187843
	H6	H	0.275949	0.632690	0.871332
	H7	H	0.276646	0.424799	0.188137
	H8	H	0.837373	0.744459	0.432135
	H9	H	0.153358	0.749022	0.635693
	H10	H	0.839918	0.305232	0.638173
	H11	H	0.152948	0.305236	0.426451
	H12	H	0.840204	0.420396	0.755638
	H13	H	0.153238	0.631378	0.751942
	H14	H	0.838062	0.628948	0.313089
	H15	H	0.153549	0.423065	0.310333
	H16	H	0.393261	0.747866	0.871869
	H17	H	0.595958	0.743173	0.189487
	H18	H	0.605419	0.302584	0.875293
	H19	H	0.394222	0.310404	0.188534
	H20	H	0.715057	0.870625	0.430047
	H21	H	0.717545	0.187120	0.638700
	H22	H	0.273944	0.871500	0.638953
	H23	H	0.274343	0.185508	0.426021
	H24	H	0.891390	0.370060	0.253284
	H25	H	0.096141	0.686711	0.248292
	H26	H	0.101773	0.370148	0.808638
	H27	H	0.892089	0.684400	0.810760
	H28	H	0.214787	0.926371	0.374518
	H29	H	0.220687	0.138083	0.689187
	H30	H	0.775347	0.136093	0.374069
	H31	H	0.777706	0.927294	0.689825
	H32	H	0.342036	0.254524	0.921003
	H33	H	0.652583	0.251410	0.137140
	H34	H	0.341230	0.806773	0.136363
	H35	H	0.653615	0.808486	0.929805
	H36	H	0.341626	0.924037	0.253676
	H37	H	0.653482	0.133269	0.252607
	H38	H	0.341398	0.136414	0.806555
	H39	H	0.652675	0.922867	0.809623
	H40	H	0.893263	0.249205	0.373501
	H41	H	0.102622	0.252443	0.689844
	H42	H	0.097659	0.811541	0.373477
	H43	H	0.892986	0.809726	0.689427
	H44	H	0.219563	0.371186	0.923197
	H45	H	0.214548	0.685779	0.133329
	H46	H	0.773102	0.370699	0.139116
	H47	H	0.775560	0.683800	0.927528
	H48	H	0.407958	0.139700	0.618733
	H49	H	0.582526	0.917228	0.621112
	H50	H	0.585087	0.142631	0.441019
	H51	H	0.400853	0.914244	0.444212
	H52	H	0.583876	0.438208	0.143619
	H53	H	0.584905	0.625312	0.914161
	H54	H	0.402726	0.617209	0.143661
	H55	H	0.404634	0.443772	0.917079
	H56	H	0.112504	0.627655	0.435941
	H57	H	0.882884	0.623052	0.623426
	H58	H	0.104496	0.442784	0.614992
	H59	H	0.885928	0.438015	0.445795
	H60	H	0.106801	0.443272	0.622864
	H61	H	0.885398	0.618547	0.617350
	H62	H	0.106207	0.619810	0.447516
	H63	H	0.886680	0.442021	0.442109
	H64	H	0.404381	0.618819	0.143052
	H65	H	0.594204	0.612405	0.915652
	H66	H	0.587363	0.440568	0.143008
	H67	H	0.412765	0.442668	0.920027
	H68	H	0.586988	0.142193	0.443125
	H69	H	0.589913	0.917527	0.616010
	H70	H	0.410861	0.138905	0.618857
	H71	H	0.405945	0.914333	0.437585
	H72	H	0.906523	0.639638	0.121006
	H73	H	0.088350	0.412968	0.123056
	H74	H	0.084203	0.638889	0.944994
	H75	H	0.898926	0.411333	0.943977
	H76	H	0.084955	0.944439	0.643373
	H77	H	0.081117	0.113958	0.423607
	H78	H	0.905255	0.114445	0.644120
	H79	H	0.899688	0.932822	0.414439
	H80	H	0.604047	0.111059	0.946497
	H81	H	0.385607	0.124623	0.113116
	H82	H	0.610512	0.934676	0.124248
	H83	H	0.385085	0.936653	0.945588
	H84	H	0.610009	0.935554	0.121330
	H85	H	0.388618	0.108413	0.120775
	H86	H	0.607505	0.114176	0.941793
	H87	H	0.386051	0.942835	0.942316
	H88	H	0.909594	0.116373	0.642493
	H89	H	0.084536	0.121474	0.420884
	H90	H	0.081795	0.936044	0.645810
	H91	H	0.901478	0.944552	0.418196
	H92	H	0.089266	0.640694	0.941705
	H93	H	0.082685	0.415581	0.119640
	H94	H	0.904066	0.639788	0.119426
	H95	H	0.915676	0.415090	0.936313
	H96	H	0.409492	0.138186	0.616592
	H97	H	0.590242	0.914016	0.623994
	H98	H	0.587866	0.143430	0.440502
	H99	H	0.407692	0.917862	0.444916
	H100	H	0.583823	0.441927	0.141615
	H101	H	0.578902	0.611945	0.920712
	H102	H	0.402236	0.619279	0.144356
	H103	H	0.408905	0.436318	0.916560
	H104	H	0.108831	0.613430	0.433864
	H105	H	0.884430	0.614926	0.624722
	H106	H	0.107793	0.436294	0.618990
	H107	H	0.884238	0.437901	0.440685
	H108	H	0.904224	0.640247	0.122002
	H109	H	0.089021	0.414643	0.116152
	H110	H	0.083529	0.640562	0.939080
	H111	H	0.912698	0.419199	0.954299
	H112	H	0.090499	0.938558	0.648000
	H113	H	0.089386	0.114056	0.421030
	H114	H	0.906588	0.119026	0.644383
	H115	H	0.911004	0.935938	0.418992
	H116	H	0.605374	0.117397	0.947162
	H117	H	0.381029	0.121651	0.130813
	H118	H	0.609941	0.937438	0.123224
	H119	H	0.383647	0.936718	0.938567
	C120	C	0.376420	0.035720	0.651938
	C121	C	0.618939	1.020495	0.653396
	C122	C	0.617388	0.037701	0.411030
	C123	C	0.374006	1.019803	0.410119
	C124	C	0.618396	0.406115	0.039518
	C125	C	0.616528	0.647328	1.021591
	C126	C	0.372910	0.649932	0.039011
	C127	C	0.376449	0.408420	1.021929
	C128	C	0.004452	0.649806	0.409656
	C129	C	0.987770	0.650291	0.653584
	C130	C	0.003848	0.407357	0.652670
	C131	C	0.988852	0.406419	0.410203
	C132	C	0.873914	0.535703	0.153412
	C133	C	0.116984	0.519321	0.151133
	C134	C	0.117846	0.536126	0.909171
	C135	C	0.875751	0.518488	0.911290
	C136	C	0.116655	0.908410	0.540877
	C137	C	0.118035	0.150386	0.525165
	C138	C	0.875495	0.149785	0.539707
	C139	C	0.873942	0.907483	0.522338
	C140	C	0.504182	0.149398	0.909984
	C141	C	0.488570	0.150216	0.153352
	C142	C	0.506334	0.905441	0.153809
	C143	C	0.488209	0.906535	0.910367
	C144	C	0.374328	0.917294	0.712215
	C145	C	0.620204	0.138877	0.714511
	C146	C	0.616347	0.917066	0.354706
	C147	C	0.373339	0.138593	0.350456
	C148	C	0.679870	0.401634	0.921656
	C149	C	0.674704	0.648141	0.140646
	C150	C	0.315291	0.651251	0.919131
	C151	C	0.316646	0.406481	0.140599
	C152	C	0.884929	0.705933	0.411753
	C153	C	0.106109	0.709380	0.654675
	C154	C	0.886770	0.345799	0.656360
	C155	C	0.106462	0.346012	0.408296
	C156	C	0.886960	0.403211	0.714670
	C157	C	0.106293	0.650517	0.712022
	C158	C	0.885251	0.648410	0.352769
	C159	C	0.106558	0.404422	0.350340
	C160	C	0.373504	0.708671	0.919360
	C161	C	0.615885	0.704730	0.141344
	C162	C	0.622613	0.343632	0.922101
	C163	C	0.375177	0.349591	0.141034
	C164	C	0.675661	0.918164	0.410847
	C165	C	0.677889	0.139531	0.656487
	C166	C	0.314925	0.918206	0.656189
	C167	C	0.314432	0.138360	0.407480
	C168	C	0.872287	0.417434	0.213682
	C169	C	0.116338	0.638911	0.209312
	C170	C	0.120150	0.417592	0.848754
	C171	C	0.873208	0.636929	0.850793
	C172	C	0.175192	0.907481	0.421886
	C173	C	0.179788	0.155146	0.642389
	C174	C	0.815622	0.153369	0.421249
	C175	C	0.816728	0.907927	0.642135
	C176	C	0.388327	0.212823	0.904447
	C177	C	0.605645	0.210779	0.155499
	C178	C	0.387960	0.846658	0.155385
	C179	C	0.606510	0.847567	0.909867
	C180	C	0.388406	0.904779	0.213559
	C181	C	0.606358	0.152092	0.213068
	C182	C	0.388225	0.154171	0.847122
	C183	C	0.606047	0.904500	0.850453
	C184	C	0.874488	0.209650	0.420871
	C185	C	0.120843	0.211947	0.642864
	C186	C	0.117157	0.850185	0.421430
	C187	C	0.873987	0.849347	0.641854
	C188	C	0.178647	0.418077	0.905635
	C189	C	0.174944	0.638610	0.152046
	C190	C	0.813678	0.417619	0.156663
	C191	C	0.815447	0.636845	0.908555
	C192	C	0.402069	0.117775	0.625568
	C193	C	0.594554	0.937918	0.627635
	C194	C	0.593597	0.121074	0.434652
	C195	C	0.397992	0.937016	0.434963
	C196	C	0.592460	0.432693	0.121505
	C197	C	0.592776	0.623433	0.938422
	C198	C	0.396326	0.625600	0.122049
	C199	C	0.401530	0.433663	0.939556
	C200	C	0.087593	0.626899	0.432541
	C201	C	0.905686	0.625913	0.629032
	C202	C	0.085177	0.433223	0.626487
	C203	C	0.907012	0.431923	0.435745
	C204	C	0.898062	0.618426	0.127982
	C205	C	0.093288	0.436188	0.126638
	C206	C	0.092735	0.618609	0.934952
	C207	C	0.901768	0.436459	0.937473
	C208	C	0.092681	0.932839	0.624081
	C209	C	0.092303	0.123969	0.443208
	C210	C	0.900154	0.124201	0.622170
	C211	C	0.897217	0.931132	0.438884
	C212	C	0.584643	0.122126	0.937418
	C213	C	0.406457	0.125266	0.128465
	C214	C	0.588764	0.929144	0.129664
	C215	C	0.406191	0.931612	0.935018
	Zn216	Zn	0.496596	0.027820	0.780786
	Zn217	Zn	0.496987	0.028397	0.282225
	Zn218	Zn	0.746372	0.526568	0.030927
	Zn219	Zn	0.246108	0.527721	0.029799
	Zn220	Zn	-0.003724	0.779010	0.531790
	Zn221	Zn	-0.003878	0.277933	0.532364
	Zn222	Zn	-0.004100	0.527618	0.781941
	Zn223	Zn	-0.003393	0.527352	0.280473
	Zn224	Zn	0.495942	0.776719	0.030786
	Zn225	Zn	0.496244	0.278845	0.030817
	Zn226	Zn	0.746103	0.030034	0.531417
	Zn227	Zn	0.246117	0.028625	0.533142
	N228	N	0.411772	0.991444	0.709567
	N229	N	0.584501	0.063749	0.712941
	N230	N	0.581036	0.992471	0.354566
	N231	N	0.409389	0.063633	0.351751
	N232	N	0.677506	0.439598	0.995804
	N233	N	0.675102	0.612928	0.065280
	N234	N	0.314787	0.615661	0.994371
	N235	N	0.317268	0.442343	0.065357
	N236	N	0.960139	0.707118	0.446100
	N237	N	0.031362	0.709390	0.619198
	N238	N	0.960422	0.348047	0.618523
	N239	N	0.032262	0.347211	0.444807
	N240	N	0.960755	0.440721	0.712419
	N241	N	0.031698	0.614720	0.711804
	N242	N	0.960716	0.614437	0.351055
	N243	N	0.032304	0.441007	0.351258
	N244	N	0.408255	0.708587	0.995045
	N245	N	0.580334	0.704411	0.066263
	N246	N	0.585010	0.346399	0.996314
	N247	N	0.411380	0.350416	0.066229
	N248	N	0.676543	0.994231	0.444938
	N249	N	0.677414	0.064829	0.619509
	N250	N	0.316084	0.992998	0.619413
	N251	N	0.314390	0.063313	0.443724
	N252	N	0.909037	0.491872	0.211590
	N253	N	0.081175	0.563630	0.208886
	N254	N	0.083165	0.492115	0.850756
	N255	N	0.909897	0.562306	0.852304
	N256	N	0.175076	0.942932	0.497228
	N257	N	0.178142	0.117676	0.568074
	N258	N	0.815875	0.117040	0.496186
	N259	N	0.816285	0.942982	0.566750
	N260	N	0.461587	0.210059	0.942867
	N261	N	0.531344	0.209708	0.119199
	N262	N	0.462160	0.846845	0.118824
	N263	N	0.532274	0.848720	0.946147
	N264	N	0.462761	0.940528	0.212663
	N265	N	0.532196	0.115243	0.212044
	N266	N	0.461235	0.115414	0.850470
	N267	N	0.531350	0.940313	0.850457
	N268	N	0.910916	0.207577	0.495731
	N269	N	0.083306	0.209202	0.568851
	N270	N	0.081473	0.850531	0.496631
	N271	N	0.908718	0.848693	0.566294
	N272	N	0.177259	0.492839	0.942539
	N273	N	0.175896	0.563076	0.117022
	N274	N	0.814436	0.492358	0.119861
	N275	N	0.816881	0.562056	0.945228
	O276	O	1.084086	1.126558	0.104877
	H277	H	1.079004	1.126679	0.093796
	H278	H	1.093345	1.130198	0.113844
	O279	O	-0.300133	-0.270487	0.733533
	H280	H	-0.268219	-0.239766	0.768114
	H281	H	-0.311614	-0.305857	0.741596
	O282	O	-0.186686	1.016175	0.245829
	H283	H	-0.200712	0.991943	0.249585
	H284	H	-0.187184	0.999998	0.262089
	O285	O	0.281443	0.740955	0.505067
	H286	H	0.276976	0.747920	0.481718
	H287	H	0.274155	0.755136	0.481174
	O288	O	0.498996	0.319595	0.387751
	H289	H	0.497384	0.314345	0.399024
	H290	H	0.512003	0.315195	0.384188
	O291	O	0.451475	0.733436	0.328056
	H292	H	0.473533	0.725284	0.334233
	H293	H	0.474779	0.733358	0.318417
	O294	O	-0.319023	0.711452	0.342404
	H295	H	-0.335379	0.694111	0.364242
	H296	H	-0.336896	0.692544	0.360645
	O297	O	1.040673	0.095190	-0.057732
	H298	H	1.034411	0.091508	-0.054260
	H299	H	1.040903	0.097053	-0.048845
	O300	O	-0.147886	0.170003	0.101566
	H301	H	-0.156849	0.175449	0.098258
	H302	H	-0.152296	0.174171	0.122022
	O303	O	0.116935	0.132546	0.003894
	H304	H	0.112531	0.131272	0.005047
	H305	H	0.109705	0.137282	0.011344
	O306	O	0.783937	0.239884	0.009260
	H307	H	0.778902	0.244836	0.009567
	H308	H	0.767253	0.231146	0.011847
	O309	O	1.130985	-0.009655	0.216777
	H310	H	1.113751	-0.018628	0.211393
	H311	H	1.138533	-0.010522	0.233284
	O312	O	0.292815	0.525227	0.682795
	H313	H	0.265159	0.516925	0.679002
	H314	H	0.289693	0.552985	0.669507
	O315	O	0.524862	0.572239	0.415623
	H316	H	0.534185	0.594978	0.428831
	H317	H	0.507526	0.576267	0.405664
	O318	O	1.060904	0.955540	0.109709
	H319	H	1.041089	0.954753	0.108300
	H320	H	1.058504	0.950763	0.096921
	O321	O	0.537631	0.543102	0.495117
	H322	H	0.534773	0.531745	0.494857
	H323	H	0.535715	0.543176	0.492686
	O324	O	0.306335	0.393943	1.724680
	H325	H	0.323999	0.395023	1.717309
	H326	H	0.312652	0.425347	1.730308
	O327	O	0.690221	0.335113	0.337500
	H328	H	0.698734	0.340598	0.340392
	H329	H	0.667232	0.333217	0.347719
	O330	O	0.194495	0.830441	-0.154798
	H331	H	0.181475	0.820044	-0.141328
	H332	H	0.203740	0.869900	-0.167227
	O333	O	0.498650	0.740535	-0.484458
	H334	H	0.503768	0.744810	-0.465465
	H335	H	0.484746	0.735530	-0.482606
	O336	O	0.988981	0.104593	0.241476
	H337	H	0.992003	0.090392	0.237827
	H338	H	0.983152	0.104945	0.240027
	O339	O	0.523913	0.331911	0.549600
	H340	H	0.527712	0.336673	0.536280
	H341	H	0.501623	0.332124	0.549679
	O342	O	0.190367	1.049149	-0.125532
	H343	H	0.191517	1.057084	-0.126242
	H344	H	0.190473	1.057707	-0.127881
	O345	O	0.327651	0.360384	0.338798
	H346	H	0.347161	0.366963	0.361824
	H347	H	0.323844	0.383561	0.340747
	O348	O	0.790853	-0.175408	0.069157
	H349	H	0.793248	-0.169245	0.053447
	H350	H	0.794279	-0.176145	0.054299
	O351	O	0.194761	-0.161084	1.222761
	H352	H	0.182849	-0.139710	1.203495
	H353	H	0.170734	-0.144334	1.204011
	O354	O	1.705764	-0.493563	1.325329
	H355	H	1.707318	-0.503532	1.317513
	H356	H	1.713572	-0.499369	1.325136
	O357	O	0.588357	0.425393	0.726888
	H358	H	0.593344	0.443195	0.724651
	H359	H	0.578639	0.450095	0.712640
	O360	O	0.487613	0.457150	0.605734
	H361	H	0.472875	0.446665	0.600714
	H362	H	0.488728	0.454157	0.605918
	O363	O	0.692943	0.323638	-0.494944
	H364	H	0.698385	0.305935	-0.485668
	H365	H	0.688153	0.320639	-0.504178
	O366	O	0.952823	0.051937	1.110875
	H367	H	0.935477	0.037468	1.114880
	H368	H	0.950821	0.061924	1.112038
	O369	O	-0.066844	-0.191630	0.963476
	H370	H	-0.048156	-0.192530	0.967733
	H371	H	-0.046954	-0.190519	0.968682
	O372	O	0.024718	1.189767	0.949406
	H373	H	0.024135	1.186099	0.969847
	H374	H	0.034147	1.194094	0.946387
	O375	O	1.036912	-0.181726	-0.181066
	H376	H	1.030482	-0.195792	-0.194929
	H377	H	1.051315	-0.179352	-0.184438
	O378	O	0.948707	0.815457	1.241201
	H379	H	0.907592	0.818365	1.230380
	H380	H	0.942450	0.783898	1.272663
	O381	O	0.286112	0.730713	0.331948
	H382	H	0.260496	0.766508	0.299172
	H383	H	0.341325	0.737802	0.324821
	O384	O	0.632313	0.564639	0.457348
	H385	H	0.628342	0.573262	0.454956
	H386	H	0.618485	0.560627	0.469132
	O387	O	0.213677	0.984076	0.941778
	H388	H	0.219497	0.998957	0.936156
	H389	H	0.204748	1.008117	0.944236
	O390	O	-0.199365	0.831086	0.836158
	H391	H	-0.187970	0.854681	0.857509
	H392	H	-0.177479	0.844090	0.856006
	O393	O	1.201316	-0.182994	0.002652
	H394	H	1.225470	-0.188907	0.002855
	H395	H	1.209480	-0.178669	-0.016198
	O396	O	0.639096	0.432657	0.593151
	H397	H	0.639858	0.437949	0.589579
	H398	H	0.627691	0.427852	0.566278
	O399	O	1.493600	0.360304	-0.256056
	H400	H	1.490031	0.336084	-0.242615
	H401	H	1.515333	0.386436	-0.246687
	O402	O	0.627529	-0.383724	1.732259
	H403	H	0.639296	-0.379066	1.738812
	H404	H	0.640315	-0.368108	1.734726
	O405	O	0.272572	0.561787	0.310715
	H406	H	0.252383	0.580869	0.288788
	H407	H	0.268400	0.597820	0.309821
	O408	O	0.802848	1.216819	0.843570
	H409	H	0.823471	1.215926	0.859363
	H410	H	0.809724	1.236569	0.845230
	O411	O	1.163288	1.238698	0.035518
	H412	H	1.179203	1.245086	0.050090
	H413	H	1.161481	1.238365	0.059045
	O414	O	-0.196851	-0.030607	-0.030634
	H415	H	-0.188420	-0.014604	-0.018005
	H416	H	-0.187482	-0.015125	-0.040571
	O417	O	0.291604	0.318306	0.611644
	H418	H	0.287380	0.300766	0.633975
	H419	H	0.280709	0.341998	0.625257
	O420	O	0.706827	-0.257408	0.560172
	H421	H	0.709602	-0.244583	0.587774
	H422	H	0.718409	-0.248582	0.584089
	O423	O	1.035203	0.832061	0.054888
	H424	H	1.055119	0.822723	0.042859
	H425	H	1.043905	0.853892	0.047898
	O426	O	0.033727	1.113393	0.252826
	H427	H	0.060214	1.114281	0.247971
	H428	H	0.029544	1.112077	0.269608
	O429	O	0.458256	0.580591	0.566764
	H430	H	0.439350	0.592095	0.570684
	H431	H	0.448008	0.561112	0.577488
	O432	O	0.780607	0.817869	0.242056
	H433	H	0.747321	0.782788	0.270639
	H434	H	0.772975	0.819210	0.196815
	O435	O	1.203710	0.235432	0.235429
	H436	H	1.211780	0.244189	0.252891
	H437	H	1.206251	0.213532	0.234345
	O438	O	0.271042	0.528787	0.544098
	H439	H	0.265483	0.547393	0.513557
	H440	H	0.273394	0.516730	0.539514
	O441	O	0.373859	0.695373	0.674855
	H442	H	0.384422	0.700623	0.662698
	H443	H	0.361017	0.699519	0.672104
	O444	O	1.210907	0.154275	0.100790
	H445	H	1.205319	0.159529	0.105375
	H446	H	1.228328	0.144714	0.119644
	O447	O	0.302445	0.427299	0.511258
	H448	H	0.282114	0.397524	0.513048
	H449	H	0.310866	0.439278	0.526692
	O450	O	0.776494	0.057180	-0.183940
	H451	H	0.762354	0.076316	-0.190341
	H452	H	0.770141	0.080284	-0.197714
	O453	O	1.033990	0.214852	0.085266
	H454	H	1.026750	0.211111	0.085473
	H455	H	1.026121	0.222857	0.105884
	O456	O	-0.226686	1.057489	1.135425
	H457	H	-0.214995	1.034885	1.142940
	H458	H	-0.241481	1.055518	1.152512
	O459	O	0.509148	-0.293649	0.721568
	H460	H	0.509286	-0.272159	0.733348
	H461	H	0.527257	-0.311163	0.728047
	O462	O	0.517317	0.545303	0.319278
	H463	H	0.513712	0.534247	0.324119
	H464	H	0.520147	0.524333	0.327246
	O465	O	1.003199	0.183877	-0.189667
	H466	H	1.005740	0.192978	-0.178388
	H467	H	1.009016	0.194111	-0.204914
	O468	O	-0.032038	0.975241	-0.131635
	H469	H	-0.030235	0.998288	-0.132892
	H470	H	-0.033229	0.974885	-0.132064
	O471	O	0.710694	0.522416	0.681219
	H472	H	0.712450	0.504954	0.672294
	H473	H	0.723404	0.510954	0.687528
	O474	O	-0.086320	0.013308	0.924512
	H475	H	-0.091769	0.014802	0.933054
	H476	H	-0.091414	0.007540	0.915461
	O477	O	0.488102	-0.626335	0.440907
	H478	H	0.470466	-0.632435	0.442655
	H479	H	0.477917	-0.621517	0.458128
