data_Molecule from HDF5

_cell_length_a		16.328013
_cell_length_b		16.266040
_cell_length_c		16.154324
_cell_angle_alpha	90.222547
_cell_angle_beta	89.835023
_cell_angle_gamma	90.351553
_symmetry_space_group_name_H-M	'P 1'
_symmetry_Int_Tables_number		1

loop_
	_symmetry_equiv_pos_as_xyz
	x,y,z

loop_
	_atom_site_label
	_atom_site_type_symbol
	_atom_site_fract_x
	_atom_site_fract_y
	_atom_site_fract_z
	H0	H	0.403940	0.837988	0.711098
	H1	H	0.599669	0.167515	0.711913
	H2	H	0.599284	0.838407	0.285167
	H3	H	0.407827	0.167299	0.286607
	H4	H	0.719037	0.403736	0.835764
	H5	H	0.717345	0.602750	0.164820
	H6	H	0.291151	0.600510	0.835549
	H7	H	0.287926	0.403165	0.164482
	H8	H	0.839781	0.716988	0.400399
	H9	H	0.166001	0.721444	0.599376
	H10	H	0.840079	0.287567	0.599019
	H11	H	0.166644	0.288702	0.399908
	H12	H	0.839775	0.404710	0.713971
	H13	H	0.167615	0.601996	0.711990
	H14	H	0.839297	0.598165	0.287828
	H15	H	0.167819	0.406975	0.285271
	H16	H	0.408033	0.712903	0.833906
	H17	H	0.602567	0.718781	0.164076
	H18	H	0.599976	0.291865	0.833977
	H19	H	0.405279	0.290269	0.164789
	H20	H	0.718419	0.840231	0.396589
	H21	H	0.720046	0.165825	0.600621
	H22	H	0.285760	0.839408	0.598399
	H23	H	0.288237	0.166406	0.399340
	H24	H	0.906839	0.338885	0.211150
	H25	H	0.102829	0.668094	0.214882
	H26	H	0.100580	0.339088	0.784696
	H27	H	0.909976	0.667699	0.788170
	H28	H	0.216742	0.903038	0.335595
	H29	H	0.216892	0.102714	0.664775
	H30	H	0.790553	0.099970	0.334542
	H31	H	0.785877	0.903546	0.663170
	H32	H	0.340278	0.217651	0.899831
	H33	H	0.667238	0.219673	0.097891
	H34	H	0.341053	0.786778	0.097055
	H35	H	0.667744	0.789336	0.898971
	H36	H	0.340556	0.902689	0.213753
	H37	H	0.668105	0.102178	0.212371
	H38	H	0.338764	0.096848	0.787973
	H39	H	0.667369	0.906517	0.783937
	H40	H	0.905604	0.215587	0.334233
	H41	H	0.101043	0.217686	0.665155
	H42	H	0.099874	0.790467	0.335405
	H43	H	0.902263	0.789721	0.664772
	H44	H	0.218663	0.339786	0.898996
	H45	H	0.220347	0.666960	0.100335
	H46	H	0.787970	0.340282	0.099531
	H47	H	0.791208	0.667110	0.901266
	H48	H	0.395975	0.124313	0.595756
	H49	H	0.605711	0.885646	0.582906
	H50	H	0.599455	0.120962	0.404177
	H51	H	0.401658	0.886980	0.416283
	H52	H	0.591065	0.412909	0.115765
	H53	H	0.602970	0.605843	0.878236
	H54	H	0.403695	0.589005	0.117731
	H55	H	0.418628	0.400619	0.881663
	H56	H	0.118570	0.596738	0.407898
	H57	H	0.889830	0.588059	0.591748
	H58	H	0.122414	0.407656	0.596378
	H59	H	0.887275	0.414311	0.402333
	H60	H	0.118884	0.406469	0.585832
	H61	H	0.883847	0.598443	0.602045
	H62	H	0.120228	0.598597	0.405737
	H63	H	0.884307	0.401170	0.402604
	H64	H	0.420463	0.591816	0.114267
	H65	H	0.605572	0.586738	0.882182
	H66	H	0.597621	0.406266	0.119380
	H67	H	0.398899	0.408261	0.878027
	H68	H	0.595242	0.119768	0.405968
	H69	H	0.594446	0.882417	0.602122
	H70	H	0.418546	0.120399	0.603186
	H71	H	0.403746	0.882060	0.396361
	H72	H	0.914959	0.621039	0.101171
	H73	H	0.101478	0.384761	0.093919
	H74	H	0.099404	0.621668	0.901942
	H75	H	0.907300	0.383897	0.901391
	H76	H	0.096121	0.915037	0.617424
	H77	H	0.099704	0.097683	0.380442
	H78	H	0.911346	0.102596	0.618357
	H79	H	0.913151	0.907832	0.382313
	H80	H	0.621498	0.100511	0.904330
	H81	H	0.390595	0.092936	0.087868
	H82	H	0.619940	0.912932	0.092538
	H83	H	0.385377	0.903662	0.902222
	H84	H	0.621152	0.908309	0.091991
	H85	H	0.386986	0.093323	0.097862
	H86	H	0.618880	0.097932	0.907730
	H87	H	0.387284	0.903724	0.907993
	H88	H	0.904147	0.092318	0.618384
	H89	H	0.097148	0.091225	0.383849
	H90	H	0.091496	0.911225	0.617494
	H91	H	0.906948	0.906608	0.380712
	H92	H	0.094963	0.618180	0.909358
	H93	H	0.090738	0.388556	0.094646
	H94	H	0.914273	0.618362	0.086667
	H95	H	0.917220	0.388170	0.907991
	H96	H	0.412261	0.114917	0.580635
	H97	H	0.584155	0.892110	0.583519
	H98	H	0.598700	0.119401	0.408669
	H99	H	0.420167	0.889320	0.406729
	H100	H	0.600877	0.415482	0.117269
	H101	H	0.588981	0.594484	0.884868
	H102	H	0.410966	0.605467	0.120625
	H103	H	0.414449	0.421215	0.887329
	H104	H	0.119496	0.599261	0.408801
	H105	H	0.887323	0.602571	0.586926
	H106	H	0.116942	0.416655	0.591360
	H107	H	0.888995	0.407756	0.413146
	H108	H	0.902245	0.623104	0.094181
	H109	H	0.096265	0.389424	0.084942
	H110	H	0.103912	0.620831	0.910085
	H111	H	0.906491	0.387464	0.913594
	H112	H	0.097184	0.909596	0.619526
	H113	H	0.092376	0.097223	0.383307
	H114	H	0.916131	0.091386	0.614133
	H115	H	0.909139	0.912377	0.382693
	H116	H	0.619830	0.095871	0.903480
	H117	H	0.386390	0.101248	0.091426
	H118	H	0.619716	0.911340	0.088894
	H119	H	0.388053	0.909455	0.905102
	C120	C	0.380374	0.011292	0.621095
	C121	C	0.624072	0.994805	0.619558
	C122	C	0.625108	0.011538	0.377424
	C123	C	0.381486	0.994566	0.377930
	C124	C	0.624716	0.382776	0.008391
	C125	C	0.626819	0.624638	0.990962
	C126	C	0.384116	0.622859	0.008248
	C127	C	0.381712	0.381272	0.991286
	C128	C	0.011227	0.625171	0.378877
	C129	C	0.995019	0.625711	0.621636
	C130	C	0.011726	0.381613	0.620669
	C131	C	0.995029	0.380377	0.377191
	C132	C	0.881923	0.512350	0.121920
	C133	C	0.125430	0.495512	0.121286
	C134	C	0.126626	0.511794	0.877765
	C135	C	0.883286	0.494951	0.879727
	C136	C	0.123206	0.883007	0.508775
	C137	C	0.124834	0.124843	0.491622
	C138	C	0.882422	0.123573	0.507926
	C139	C	0.880423	0.880948	0.490861
	C140	C	0.511706	0.125035	0.877494
	C141	C	0.496074	0.124717	0.120697
	C142	C	0.512486	0.881245	0.120253
	C143	C	0.495396	0.879403	0.876393
	C144	C	0.383176	0.887329	0.674411
	C145	C	0.621073	0.118359	0.674883
	C146	C	0.620710	0.887767	0.322559
	C147	C	0.386079	0.118242	0.323642
	C148	C	0.680568	0.384262	0.884736
	C149	C	0.680461	0.623027	0.115420
	C150	C	0.329166	0.620491	0.884351
	C151	C	0.326106	0.383319	0.115315
	C152	C	0.888492	0.679161	0.380644
	C153	C	0.117616	0.682248	0.619197
	C154	C	0.888787	0.325873	0.619296
	C155	C	0.117973	0.326104	0.379269
	C156	C	0.888675	0.384094	0.676334
	C157	C	0.118348	0.623157	0.675434
	C158	C	0.888276	0.620072	0.324626
	C159	C	0.118467	0.385129	0.322519
	C160	C	0.387470	0.676257	0.883664
	C161	C	0.623311	0.680498	0.115136
	C162	C	0.621425	0.328695	0.883725
	C163	C	0.384630	0.327196	0.115634
	C164	C	0.679576	0.888570	0.378512
	C165	C	0.680552	0.117465	0.619184
	C166	C	0.324201	0.888099	0.618583
	C167	C	0.326893	0.117848	0.379864
	C168	C	0.885653	0.388180	0.174819
	C169	C	0.122866	0.619163	0.176472
	C170	C	0.122214	0.388272	0.822452
	C171	C	0.888039	0.618791	0.825308
	C172	C	0.178628	0.883814	0.384641
	C173	C	0.179672	0.123059	0.615408
	C174	C	0.827960	0.120937	0.383846
	C175	C	0.824321	0.883492	0.614426
	C176	C	0.388966	0.179585	0.879668
	C177	C	0.618863	0.180968	0.117911
	C178	C	0.389535	0.825107	0.117667
	C179	C	0.618808	0.826480	0.878710
	C180	C	0.389328	0.882851	0.175528
	C181	C	0.619136	0.122557	0.175070
	C182	C	0.388178	0.119792	0.823912
	C183	C	0.618548	0.884654	0.821554
	C184	C	0.885278	0.177960	0.383580
	C185	C	0.121827	0.180109	0.615608
	C186	C	0.120142	0.827995	0.384570
	C187	C	0.882060	0.826734	0.615120
	C188	C	0.180189	0.388311	0.879731
	C189	C	0.181706	0.618495	0.119930
	C190	C	0.826379	0.389052	0.119390
	C191	C	0.829317	0.618406	0.881533
	C192	C	0.402481	0.097511	0.599667
	C193	C	0.601364	0.908846	0.596413
	C194	C	0.604014	0.097737	0.399653
	C195	C	0.402341	0.908480	0.400001
	C196	C	0.602764	0.404930	0.095101
	C197	C	0.605499	0.602314	0.904166
	C198	C	0.405416	0.601554	0.095017
	C199	C	0.403926	0.403495	0.904681
	C200	C	0.097310	0.604418	0.401006
	C201	C	0.909214	0.602988	0.599939
	C202	C	0.097231	0.403826	0.597992
	C203	C	0.909071	0.401389	0.399489
	C204	C	0.903766	0.598537	0.100476
	C205	C	0.102716	0.409612	0.098064
	C206	C	0.105766	0.598045	0.900430
	C207	C	0.904236	0.408821	0.901287
	C208	C	0.101263	0.905530	0.595689
	C209	C	0.102884	0.102096	0.404781
	C210	C	0.904021	0.101742	0.594658
	C211	C	0.903159	0.902509	0.404215
	C212	C	0.597804	0.104235	0.898824
	C213	C	0.410255	0.102281	0.098865
	C214	C	0.598105	0.904200	0.097792
	C215	C	0.409269	0.899624	0.898613
	Zn216	Zn	0.503094	0.002500	0.748553
	Zn217	Zn	0.503678	0.003098	0.249400
	Zn218	Zn	0.753917	0.503653	0.000291
	Zn219	Zn	0.254635	0.503130	0.000104
	Zn220	Zn	0.002463	0.754281	0.500306
	Zn221	Zn	0.002900	0.251690	0.499710
	Zn222	Zn	0.003777	0.503489	0.749948
	Zn223	Zn	0.003598	0.503851	0.249600
	Zn224	Zn	0.504794	0.751530	-0.001237
	Zn225	Zn	0.503568	0.254001	-0.000659
	Zn226	Zn	0.753579	0.002940	0.499021
	Zn227	Zn	0.252286	0.003079	0.499623
	N228	N	0.417535	0.964813	0.675984
	N229	N	0.586539	0.041073	0.675067
	N230	N	0.587491	0.965211	0.321878
	N231	N	0.419136	0.040677	0.322299
	N232	N	0.682709	0.417330	0.963243
	N233	N	0.682701	0.589286	0.037214
	N234	N	0.326852	0.587964	0.962765
	N235	N	0.324083	0.416068	0.036912
	N236	N	0.966035	0.682330	0.413697
	N237	N	0.039806	0.684066	0.586690
	N238	N	0.966185	0.324175	0.585427
	N239	N	0.040214	0.323164	0.412644
	N240	N	0.966000	0.418222	0.677362
	N241	N	0.041274	0.588572	0.676882
	N242	N	0.965625	0.587000	0.323697
	N243	N	0.041032	0.417933	0.320950
	N244	N	0.420984	0.677949	0.961660
	N245	N	0.590690	0.681679	0.036747
	N246	N	0.587108	0.327910	0.961528
	N247	N	0.418268	0.325683	0.037545
	N248	N	0.682428	0.966451	0.412043
	N249	N	0.682397	0.039700	0.585661
	N250	N	0.322617	0.966183	0.585896
	N251	N	0.323787	0.040005	0.412937
	N252	N	0.919652	0.465756	0.176368
	N253	N	0.088826	0.541565	0.177486
	N254	N	0.089226	0.465796	0.821447
	N255	N	0.921107	0.541216	0.824300
	N256	N	0.180760	0.917189	0.462963
	N257	N	0.181527	0.089354	0.537022
	N258	N	0.826262	0.087613	0.461970
	N259	N	0.823175	0.916340	0.536114
	N260	N	0.466616	0.182831	0.912239
	N261	N	0.541166	0.182705	0.085073
	N262	N	0.467014	0.824091	0.083930
	N263	N	0.541242	0.823142	0.912024
	N264	N	0.466558	0.917070	0.177154
	N265	N	0.541845	0.088320	0.176936
	N266	N	0.465557	0.086420	0.822581
	N267	N	0.540857	0.916776	0.819927
	N268	N	0.918481	0.179718	0.461776
	N269	N	0.088507	0.181085	0.537603
	N270	N	0.086569	0.827344	0.462796
	N271	N	0.915958	0.824906	0.537232
	N272	N	0.183340	0.466241	0.913213
	N273	N	0.183219	0.540717	0.086212
	N274	N	0.823909	0.467165	0.087243
	N275	N	0.826074	0.540411	0.914538
	O276	O	0.500314	0.490916	0.553090
	H277	H	0.496334	0.492635	0.555577
	H278	H	0.501015	0.483883	0.554090
	O279	O	0.104015	0.118183	0.036687
	H280	H	0.107659	0.134513	0.038591
	H281	H	0.103436	0.114621	0.041876
	O282	O	0.470562	0.536357	0.552016
	H283	H	0.468115	0.533204	0.546864
	H284	H	0.473359	0.545884	0.552104
	O285	O	0.466439	0.472193	0.522224
	H286	H	0.463055	0.473522	0.523979
	H287	H	0.451113	0.468076	0.516100
	O288	O	1.085093	0.071007	0.096536
	H289	H	1.085097	0.075686	0.091620
	H290	H	1.092727	0.069582	0.101455
	O291	O	-0.529382	0.510066	-0.449767
	H292	H	-0.522196	0.508769	-0.447002
	H293	H	-0.529166	0.510566	-0.449618
	O294	O	0.483839	0.515197	0.517997
	H295	H	0.488706	0.505769	0.523272
	H296	H	0.492193	0.513317	0.520073
	O297	O	0.065605	1.028419	0.038516
	H298	H	0.062368	1.033535	0.038997
	H299	H	0.067354	1.025603	0.041665
	O300	O	1.099985	0.097525	1.025517
	H301	H	1.101077	0.094217	1.020784
	H302	H	1.106811	0.097502	1.018684
	O303	O	0.522237	0.489919	0.506546
	H304	H	0.526897	0.490381	0.509189
	H305	H	0.509293	0.488545	0.512409
	O306	O	0.075833	1.065769	1.093597
	H307	H	0.073813	1.063392	1.105077
	H308	H	0.074906	1.060967	1.093631
	O309	O	0.481688	0.508481	0.539160
	H310	H	0.485498	0.512754	0.529760
	H311	H	0.483124	0.515988	0.542753
