data_Molecule from HDF5

_cell_length_a		16.512979
_cell_length_b		16.368261
_cell_length_c		16.569120
_cell_angle_alpha	89.955713
_cell_angle_beta	89.788754
_cell_angle_gamma	89.986371
_symmetry_space_group_name_H-M	'P 1'
_symmetry_Int_Tables_number		1

loop_
	_symmetry_equiv_pos_as_xyz
	x,y,z

loop_
	_atom_site_label
	_atom_site_type_symbol
	_atom_site_fract_x
	_atom_site_fract_y
	_atom_site_fract_z
	H0	H	0.393183	0.842264	0.722601
	H1	H	0.604186	0.158868	0.720003
	H2	H	0.604000	0.841283	0.279474
	H3	H	0.394246	0.158943	0.278656
	H4	H	0.721867	0.397308	0.842658
	H5	H	0.717642	0.602990	0.158444
	H6	H	0.277364	0.606383	0.842284
	H7	H	0.275749	0.392648	0.154324
	H8	H	0.842205	0.720240	0.397977
	H9	H	0.158228	0.720564	0.603420
	H10	H	0.841494	0.279705	0.604181
	H11	H	0.158286	0.279707	0.396797
	H12	H	0.843526	0.393224	0.724082
	H13	H	0.156548	0.606432	0.722640
	H14	H	0.843765	0.606438	0.278637
	H15	H	0.157289	0.393637	0.277718
	H16	H	0.396068	0.721937	0.841834
	H17	H	0.597827	0.717397	0.158562
	H18	H	0.605004	0.279562	0.841874
	H19	H	0.393799	0.277797	0.155519
	H20	H	0.721858	0.841648	0.393919
	H21	H	0.719576	0.158878	0.602982
	H22	H	0.277332	0.841588	0.606222
	H23	H	0.279946	0.159730	0.397368
	H24	H	0.896637	0.340436	0.219202
	H25	H	0.103906	0.658499	0.219013
	H26	H	0.108274	0.341383	0.776085
	H27	H	0.893880	0.657763	0.776852
	H28	H	0.222439	0.895379	0.343603
	H29	H	0.222234	0.107928	0.657799
	H30	H	0.777754	0.108139	0.344847
	H31	H	0.776246	0.892856	0.656148
	H32	H	0.341194	0.221579	0.896615
	H33	H	0.657831	0.220479	0.102519
	H34	H	0.340499	0.782152	0.101189
	H35	H	0.658398	0.780764	0.895561
	H36	H	0.342426	0.894651	0.221444
	H37	H	0.656291	0.107512	0.221855
	H38	H	0.341486	0.106929	0.777581
	H39	H	0.656184	0.891940	0.774114
	H40	H	0.896738	0.221130	0.343989
	H41	H	0.105734	0.224129	0.657551
	H42	H	0.103921	0.780751	0.342184
	H43	H	0.895784	0.779540	0.657951
	H44	H	0.223208	0.342005	0.892942
	H45	H	0.220389	0.658796	0.102232
	H46	H	0.780449	0.340366	0.102858
	H47	H	0.779199	0.659269	0.893876
	H48	H	0.406689	0.114686	0.587240
	H49	H	0.587863	0.887131	0.586452
	H50	H	0.591745	0.112854	0.412957
	H51	H	0.405555	0.884523	0.409005
	H52	H	0.594616	0.411456	0.113522
	H53	H	0.589070	0.586523	0.888117
	H54	H	0.407767	0.589709	0.111416
	H55	H	0.416251	0.413146	0.889086
	H56	H	0.112331	0.583755	0.406868
	H57	H	0.891143	0.579328	0.589329
	H58	H	0.113559	0.409776	0.589903
	H59	H	0.887308	0.412270	0.407450
	H60	H	0.109675	0.412400	0.582191
	H61	H	0.884035	0.591625	0.597721
	H62	H	0.115363	0.593227	0.406262
	H63	H	0.885912	0.408418	0.408228
	H64	H	0.409607	0.587190	0.109921
	H65	H	0.589599	0.593480	0.886267
	H66	H	0.587720	0.414182	0.109756
	H67	H	0.411716	0.410232	0.886267
	H68	H	0.589968	0.115391	0.406428
	H69	H	0.585805	0.887716	0.588009
	H70	H	0.412201	0.114407	0.593355
	H71	H	0.416959	0.887035	0.406996
	H72	H	0.906238	0.613998	0.087372
	H73	H	0.084670	0.387219	0.089167
	H74	H	0.088418	0.612722	0.911760
	H75	H	0.907176	0.385944	0.911689
	H76	H	0.092963	0.912245	0.614201
	H77	H	0.091557	0.094598	0.386869
	H78	H	0.909556	0.089924	0.613588
	H79	H	0.908955	0.915121	0.388596
	H80	H	0.610542	0.086685	0.910375
	H81	H	0.386331	0.095045	0.085688
	H82	H	0.614041	0.913695	0.095026
	H83	H	0.389303	0.916073	0.910354
	H84	H	0.614010	0.905415	0.089162
	H85	H	0.391086	0.081911	0.085971
	H86	H	0.610581	0.087685	0.906838
	H87	H	0.385555	0.910503	0.905406
	H88	H	0.907654	0.084672	0.612402
	H89	H	0.093762	0.084443	0.390472
	H90	H	0.087338	0.912748	0.610837
	H91	H	0.914311	0.909495	0.388625
	H92	H	0.086824	0.611780	0.910678
	H93	H	0.090409	0.386676	0.083976
	H94	H	0.906923	0.616472	0.094690
	H95	H	0.915346	0.386932	0.908404
	H96	H	0.414124	0.111154	0.585849
	H97	H	0.585794	0.887776	0.585726
	H98	H	0.584818	0.112201	0.410778
	H99	H	0.411731	0.889643	0.417064
	H100	H	0.588007	0.406286	0.113014
	H101	H	0.595344	0.589273	0.885628
	H102	H	0.411112	0.590396	0.110927
	H103	H	0.410772	0.416053	0.887722
	H104	H	0.111368	0.589986	0.414320
	H105	H	0.889300	0.594026	0.581964
	H106	H	0.109936	0.418326	0.589072
	H107	H	0.888012	0.410934	0.411093
	H108	H	0.913260	0.613179	0.091369
	H109	H	0.091542	0.384590	0.091592
	H110	H	0.087146	0.611206	0.912751
	H111	H	0.913525	0.390103	0.916924
	H112	H	0.088343	0.907336	0.613546
	H113	H	0.083928	0.088074	0.391380
	H114	H	0.912799	0.086527	0.611201
	H115	H	0.907253	0.908307	0.385795
	H116	H	0.611457	0.089974	0.909812
	H117	H	0.385346	0.087523	0.096684
	H118	H	0.610455	0.914245	0.086137
	H119	H	0.388043	0.908207	0.913107
	C120	C	0.377891	0.009018	0.621827
	C121	C	0.619362	0.991887	0.619461
	C122	C	0.621029	0.008336	0.377992
	C123	C	0.378941	0.992168	0.379153
	C124	C	0.622290	0.378243	0.008319
	C125	C	0.621285	0.621510	0.991355
	C126	C	0.377960	0.621975	0.007124
	C127	C	0.379254	0.379653	0.990919
	C128	C	0.008882	0.621106	0.378143
	C129	C	0.991681	0.621453	0.621869
	C130	C	0.007578	0.379739	0.620570
	C131	C	0.991392	0.378334	0.377763
	C132	C	0.878063	0.508711	0.121785
	C133	C	0.121020	0.491110	0.120006
	C134	C	0.121174	0.507721	0.878367
	C135	C	0.879712	0.492373	0.879769
	C136	C	0.121532	0.878944	0.508788
	C137	C	0.122020	0.122255	0.492753
	C138	C	0.878813	0.120466	0.509116
	C139	C	0.877902	0.878222	0.491519
	C140	C	0.507054	0.121359	0.877333
	C141	C	0.491371	0.121230	0.121017
	C142	C	0.508120	0.879336	0.121029
	C143	C	0.491608	0.878980	0.877395
	C144	C	0.375029	0.889448	0.682344
	C145	C	0.622011	0.111397	0.679630
	C146	C	0.622929	0.888842	0.318648
	C147	C	0.376466	0.111465	0.319217
	C148	C	0.682178	0.377269	0.889787
	C149	C	0.678302	0.622013	0.110876
	C150	C	0.318337	0.624545	0.888968
	C151	C	0.316973	0.375262	0.107894
	C152	C	0.889773	0.680687	0.378076
	C153	C	0.110653	0.681120	0.622804
	C154	C	0.889037	0.319096	0.623241
	C155	C	0.110577	0.319116	0.377210
	C156	C	0.890014	0.375779	0.682578
	C157	C	0.109842	0.624437	0.682042
	C158	C	0.890567	0.623984	0.318827
	C159	C	0.110135	0.375820	0.318027
	C160	C	0.377254	0.681856	0.888642
	C161	C	0.618978	0.678840	0.110933
	C162	C	0.624318	0.318785	0.889473
	C163	C	0.375824	0.318428	0.108712
	C164	C	0.681459	0.889281	0.375554
	C165	C	0.679618	0.111207	0.621644
	C166	C	0.317406	0.889462	0.624708
	C167	C	0.319767	0.112010	0.378339
	C168	C	0.877295	0.388372	0.179982
	C169	C	0.122758	0.610825	0.179399
	C170	C	0.125251	0.389076	0.816920
	C171	C	0.876348	0.610818	0.818091
	C172	C	0.181978	0.876983	0.390541
	C173	C	0.182502	0.125947	0.610272
	C174	C	0.818631	0.124800	0.391462
	C175	C	0.817152	0.875247	0.609470
	C176	C	0.388550	0.181874	0.876646
	C177	C	0.610269	0.181068	0.121726
	C178	C	0.388409	0.821135	0.120736
	C179	C	0.610686	0.819741	0.875958
	C180	C	0.389352	0.876962	0.180645
	C181	C	0.609430	0.124905	0.181214
	C182	C	0.388775	0.124809	0.817521
	C183	C	0.609457	0.875100	0.815615
	C184	C	0.877715	0.181318	0.391182
	C185	C	0.124343	0.183876	0.610286
	C186	C	0.123013	0.819925	0.389952
	C187	C	0.876631	0.818743	0.610148
	C188	C	0.182789	0.389091	0.874691
	C189	C	0.180749	0.611040	0.121565
	C190	C	0.819660	0.388409	0.122088
	C191	C	0.819260	0.611494	0.876612
	C192	C	0.403502	0.091730	0.596262
	C193	C	0.593860	0.909130	0.594102
	C194	C	0.596136	0.091833	0.402796
	C195	C	0.404185	0.908671	0.403988
	C196	C	0.597130	0.403137	0.090641
	C197	C	0.598161	0.596985	0.908449
	C198	C	0.402281	0.596418	0.089337
	C199	C	0.405308	0.405790	0.909109
	C200	C	0.091660	0.596147	0.402291
	C201	C	0.909443	0.595519	0.596878
	C202	C	0.089710	0.405866	0.594525
	C203	C	0.908569	0.403195	0.402123
	C204	C	0.902017	0.592510	0.098082
	C205	C	0.096077	0.407891	0.095104
	C206	C	0.095014	0.590303	0.904438
	C207	C	0.904796	0.409209	0.905149
	C208	C	0.096885	0.903837	0.591407
	C209	C	0.096834	0.096335	0.410872
	C210	C	0.903267	0.094563	0.591113
	C211	C	0.903016	0.903626	0.409146
	C212	C	0.589515	0.095338	0.901998
	C213	C	0.409057	0.095460	0.096449
	C214	C	0.591114	0.904008	0.096874
	C215	C	0.409097	0.904409	0.902537
	Zn216	Zn	0.499170	0.000072	0.748889
	Zn217	Zn	0.499605	-0.000073	0.250184
	Zn218	Zn	0.750592	0.500628	-0.000159
	Zn219	Zn	0.249309	0.499990	-0.001577
	Zn220	Zn	0.000193	0.749798	0.500138
	Zn221	Zn	-0.000234	0.249934	0.500784
	Zn222	Zn	0.000273	0.499788	0.750634
	Zn223	Zn	0.000000	0.499555	0.249119
	Zn224	Zn	0.499751	0.750851	-0.000628
	Zn225	Zn	0.499382	0.250124	-0.000523
	Zn226	Zn	0.749175	-0.000113	0.499532
	Zn227	Zn	0.250566	0.000195	0.500618
	N228	N	0.411777	0.964703	0.680800
	N229	N	0.585029	0.036233	0.678266
	N230	N	0.586221	0.964136	0.319989
	N231	N	0.412623	0.035777	0.319845
	N232	N	0.681195	0.413201	0.964637
	N233	N	0.680049	0.587382	0.035414
	N234	N	0.318696	0.588025	0.963508
	N235	N	0.318985	0.412638	0.033645
	N236	N	0.964456	0.679014	0.414160
	N237	N	0.036125	0.679558	0.586352
	N238	N	0.963073	0.321699	0.585264
	N239	N	0.035726	0.320242	0.413638
	N240	N	0.964650	0.412574	0.680915
	N241	N	0.034667	0.588410	0.681725
	N242	N	0.965646	0.587731	0.318676
	N243	N	0.034889	0.411701	0.318260
	N244	N	0.413420	0.680574	0.963219
	N245	N	0.584707	0.679053	0.035477
	N246	N	0.588026	0.318984	0.964265
	N247	N	0.414260	0.321487	0.035199
	N248	N	0.680363	0.964747	0.411832
	N249	N	0.678128	0.035872	0.585100
	N250	N	0.318942	0.964670	0.587972
	N251	N	0.321048	0.036642	0.414646
	N252	N	0.912563	0.464386	0.180222
	N253	N	0.086691	0.535197	0.178740
	N254	N	0.087726	0.463930	0.818990
	N255	N	0.913210	0.535727	0.819887
	N256	N	0.181319	0.912707	0.465645
	N257	N	0.181178	0.088457	0.536192
	N258	N	0.819219	0.087486	0.465664
	N259	N	0.817520	0.911222	0.534459
	N260	N	0.463273	0.179946	0.912880
	N261	N	0.535888	0.178817	0.084814
	N262	N	0.463295	0.822462	0.084555
	N263	N	0.536300	0.821766	0.913419
	N264	N	0.464821	0.912466	0.181020
	N265	N	0.534544	0.088468	0.181021
	N266	N	0.463583	0.088058	0.817971
	N267	N	0.534251	0.911065	0.816271
	N268	N	0.914539	0.178661	0.465116
	N269	N	0.087417	0.181704	0.536080
	N270	N	0.086291	0.820990	0.464444
	N271	N	0.913589	0.820473	0.535791
	N272	N	0.180296	0.463865	0.912253
	N273	N	0.180154	0.535383	0.085710
	N274	N	0.819695	0.464385	0.086943
	N275	N	0.821485	0.536738	0.914512
	O276	O	0.707615	0.392588	0.295108
	H277	H	0.688562	0.395326	0.303577
	H278	H	0.727375	0.392023	0.309467
	O279	O	0.385112	0.653140	0.366637
	H280	H	0.373713	0.664132	0.344823
	H281	H	0.368015	0.632999	0.352377
	O282	O	0.877607	0.798778	0.179033
	H283	H	0.857642	0.788375	0.182393
	H284	H	0.876531	0.798037	0.161351
	O285	O	0.492120	0.586731	0.287297
	H286	H	0.504763	0.596610	0.279839
	H287	H	0.482402	0.599631	0.281350
	O288	O	0.171106	-0.051822	0.084050
	H289	H	0.154358	-0.049456	0.094338
	H290	H	0.182549	-0.022183	0.073278
	O291	O	0.885050	0.976290	-0.028461
	H292	H	0.889815	0.969010	-0.038790
	H293	H	0.884995	0.958551	-0.023752
	O294	O	0.023779	0.934399	0.210192
	H295	H	0.013859	0.931830	0.212681
	H296	H	0.026236	0.936517	0.207447
	O297	O	0.528814	0.488953	0.476651
	H298	H	0.529166	0.483552	0.477122
	H299	H	0.524793	0.480778	0.477151
	O300	O	0.522853	0.380993	0.709893
	H301	H	0.497508	0.373628	0.714584
	H302	H	0.502385	0.384869	0.713654
	O303	O	0.351238	0.514976	0.698721
	H304	H	0.350195	0.530933	0.684473
	H305	H	0.364781	0.525174	0.684217
	O306	O	0.109658	0.910727	0.965293
	H307	H	0.116332	0.900540	0.956007
	H308	H	0.109420	0.907405	0.959277
	O309	O	0.713991	0.712349	0.522469
	H310	H	0.727560	0.723602	0.546801
	H311	H	0.725605	0.712604	0.548838
	O312	O	0.296947	0.769731	0.268510
	H313	H	0.285054	0.775081	0.247073
	H314	H	0.291806	0.785043	0.259883
	O315	O	0.095634	0.004920	0.927074
	H316	H	0.091118	0.002285	0.927761
	H317	H	0.084098	0.005393	0.921660
	O318	O	0.113610	0.860396	0.105026
	H319	H	0.113891	0.869601	0.119757
	H320	H	0.109614	0.862606	0.094125
	O321	O	0.295212	0.553911	0.537715
	H322	H	0.291010	0.564297	0.532488
	H323	H	0.302378	0.565769	0.516996
	O324	O	0.801733	0.196876	0.798885
	H325	H	0.779657	0.186888	0.780472
	H326	H	0.794034	0.203994	0.851311
	O327	O	0.896124	0.210025	0.860085
	H328	H	0.892672	0.232585	0.852403
	H329	H	0.867296	0.201178	0.876295
	O330	O	0.854895	-0.193606	0.206093
	H331	H	0.854044	-0.202016	0.190225
	H332	H	0.838886	-0.196063	0.217926
	O333	O	0.933964	0.996710	1.124034
	H334	H	0.925813	0.987362	1.120428
	H335	H	0.929974	0.979425	1.127907
	O336	O	1.022504	0.060178	0.805416
	H337	H	1.007363	0.055093	0.790051
	H338	H	1.009386	0.080522	0.793997
	O339	O	0.311504	0.318756	0.686392
	H340	H	0.303853	0.357698	0.688347
	H341	H	0.300812	0.319485	0.678526
	O342	O	0.571767	0.305370	0.567422
	H343	H	0.571713	0.305896	0.566425
	H344	H	0.545156	0.314904	0.565894
	O345	O	0.237091	0.278944	0.277743
	H346	H	0.219754	0.275821	0.277228
	H347	H	0.227805	0.277875	0.251397
	O348	O	1.185679	0.185433	0.966201
	H349	H	1.192038	0.181201	0.966573
	H350	H	1.162737	0.178278	0.959138
	O351	O	0.982383	0.780992	-0.017033
	H352	H	0.977203	0.771871	-0.013920
	H353	H	1.005305	0.779568	-0.023691
	O354	O	0.633984	0.287943	0.510459
	H355	H	0.628566	0.291299	0.531119
	H356	H	0.633555	0.270274	0.522502
	O357	O	0.791268	1.097910	1.085659
	H358	H	0.777297	1.099492	1.103858
	H359	H	0.789739	1.086896	1.089472
	O360	O	0.457094	0.285652	0.602645
	H361	H	0.446238	0.265336	0.607940
	H362	H	0.417016	0.287775	0.592638
	O363	O	0.716879	0.479042	0.394212
	H364	H	0.715544	0.461952	0.386522
	H365	H	0.721764	0.463426	0.381916
	O366	O	0.839317	-0.042250	0.790103
	H367	H	0.838395	-0.036453	0.778407
	H368	H	0.844661	-0.029507	0.784967
	O369	O	0.442296	0.489970	0.308387
	H370	H	0.440589	0.498056	0.298765
	H371	H	0.458576	0.474223	0.307872
	O372	O	0.635358	0.321050	0.554878
	H373	H	0.609752	0.320558	0.556420
	H374	H	0.631338	0.332946	0.575625
	O375	O	0.210867	0.954697	0.790826
	H376	H	0.202761	0.975286	0.786270
	H377	H	0.219472	0.965744	0.779030
	O378	O	0.716836	0.344314	0.402650
	H379	H	0.737983	0.351696	0.412498
	H380	H	0.721944	0.354477	0.400366
	O381	O	0.909823	0.080847	0.010409
	H382	H	0.904388	0.061141	0.010623
	H383	H	0.913219	0.083778	0.000846
	O384	O	0.068511	0.046022	0.783722
	H385	H	0.054511	0.070783	0.777091
	H386	H	0.047225	0.038672	0.787641
	O387	O	-0.006437	0.782188	0.829957
	H388	H	0.027537	0.776537	0.816427
	H389	H	0.014393	0.762288	0.827161
	O390	O	0.162026	-0.089341	0.927929
	H391	H	0.175254	-0.078983	0.919774
	H392	H	0.149044	-0.103417	0.927382
	O393	O	0.783059	0.808616	0.013878
	H394	H	0.774743	0.790286	0.008909
	H395	H	0.794367	0.803623	-0.002469
	O396	O	0.655538	0.646642	0.340118
	H397	H	0.659177	0.651935	0.357108
	H398	H	0.636703	0.625209	0.355522
	O399	O	0.364565	0.697198	0.636209
	H400	H	0.357653	0.686525	0.606170
	H401	H	0.379408	0.685267	0.624026
	O402	O	-0.042739	0.195854	1.045235
	H403	H	-0.043605	0.183200	1.040808
	H404	H	-0.053157	0.193990	1.041096
	O405	O	0.089172	0.178361	0.146864
	H406	H	0.076392	0.191623	0.150343
	H407	H	0.077161	0.157009	0.159127
	O408	O	0.544035	0.708723	0.711089
	H409	H	0.540021	0.737006	0.738673
	H410	H	0.516655	0.715392	0.675778
	O411	O	0.284742	0.712700	0.471590
	H412	H	0.272884	0.725480	0.446858
	H413	H	0.272185	0.721154	0.444876
	O414	O	0.297202	0.571464	0.294271
	H415	H	0.294608	0.550359	0.275803
	H416	H	0.309116	0.553076	0.287616
	O417	O	0.363352	0.459001	0.464673
	H418	H	0.363067	0.443903	0.460409
	H419	H	0.370433	0.449470	0.452448
	O420	O	0.546094	0.363886	0.293827
	H421	H	0.550648	0.358750	0.309971
	H422	H	0.557407	0.353501	0.283091
	O423	O	-0.010666	1.018673	0.104744
	H424	H	-0.003545	1.007595	0.096853
	H425	H	-0.005031	1.011743	0.105382
	O426	O	0.816388	0.978288	0.834621
	H427	H	0.802813	0.972559	0.822833
	H428	H	0.822925	0.967769	0.840187
	O429	O	0.483845	0.655063	0.446279
	H430	H	0.465995	0.666694	0.432030
	H431	H	0.493008	0.653235	0.442427
	O432	O	0.289369	0.295260	0.524662
	H433	H	0.285865	0.318362	0.537043
	H434	H	0.264028	0.269839	0.520330
	O435	O	0.198438	0.074386	0.192941
	H436	H	0.205861	0.076073	0.185521
	H437	H	0.183109	0.086241	0.198904
	O438	O	1.065306	0.191014	-0.014694
	H439	H	1.066685	0.183572	-0.013317
	H440	H	1.046801	0.194470	-0.021508
	O441	O	0.367647	0.375816	0.299726
	H442	H	0.384847	0.375936	0.281550
	H443	H	0.374550	0.363337	0.287452
	O444	O	0.197435	0.799006	0.883340
	H445	H	0.218741	0.805099	0.876458
	H446	H	0.208897	0.816148	0.879265
	O447	O	0.600067	0.534257	0.535652
	H448	H	0.575972	0.522930	0.532168
	H449	H	0.601189	0.531122	0.511999
	O450	O	0.540324	0.664815	0.433993
	H451	H	0.556213	0.648672	0.438146
	H452	H	0.545065	0.670802	0.439835
	O453	O	0.694561	0.670926	0.690137
	H454	H	0.656790	0.670936	0.698235
	H455	H	0.693584	0.635831	0.701286
	O456	O	0.805422	0.191236	0.063224
	H457	H	0.800068	0.174894	0.071823
	H458	H	0.808555	0.198260	0.072182
	O459	O	0.693270	0.510929	0.681236
	H460	H	0.674966	0.497066	0.695944
	H461	H	0.699364	0.495913	0.656775
	O462	O	0.406215	0.509244	0.718472
	H463	H	0.399884	0.516670	0.724401
	H464	H	0.420249	0.524947	0.715368
	O465	O	0.791594	-0.013628	0.205512
	H466	H	0.792108	-0.032965	0.198738
	H467	H	0.777740	-0.022727	0.224872
