data_Molecule from HDF5

_cell_length_a		16.657897
_cell_length_b		16.613893
_cell_length_c		16.611193
_cell_angle_alpha	89.997001
_cell_angle_beta	89.964920
_cell_angle_gamma	90.134604
_symmetry_space_group_name_H-M	'P 1'
_symmetry_Int_Tables_number		1

loop_
	_symmetry_equiv_pos_as_xyz
	x,y,z

loop_
	_atom_site_label
	_atom_site_type_symbol
	_atom_site_fract_x
	_atom_site_fract_y
	_atom_site_fract_z
	H0	H	0.402002	0.828937	0.706093
	H1	H	0.615144	0.139021	0.710060
	H2	H	0.608516	0.828738	0.267128
	H3	H	0.400686	0.139508	0.262455
	H4	H	0.729467	0.378218	0.831024
	H5	H	0.727320	0.589759	0.141204
	H6	H	0.288461	0.587521	0.828073
	H7	H	0.281800	0.377858	0.138288
	H8	H	0.848870	0.702920	0.382791
	H9	H	0.161562	0.704855	0.587990
	H10	H	0.850949	0.263595	0.589654
	H11	H	0.160129	0.261240	0.376750
	H12	H	0.851519	0.378410	0.706984
	H13	H	0.160594	0.590424	0.706068
	H14	H	0.849912	0.586916	0.264824
	H15	H	0.161971	0.381208	0.263189
	H16	H	0.405696	0.703680	0.827733
	H17	H	0.611315	0.705991	0.141512
	H18	H	0.614922	0.260248	0.832077
	H19	H	0.397015	0.260473	0.138620
	H20	H	0.725351	0.828751	0.382401
	H21	H	0.731537	0.139021	0.594686
	H22	H	0.285505	0.829778	0.590831
	H23	H	0.284105	0.139502	0.379038
	H24	H	0.899197	0.329848	0.207874
	H25	H	0.109433	0.641480	0.203101
	H26	H	0.113686	0.331441	0.760247
	H27	H	0.899602	0.638897	0.761903
	H28	H	0.228136	0.880690	0.330000
	H29	H	0.232094	0.094923	0.638882
	H30	H	0.785739	0.090225	0.330458
	H31	H	0.787047	0.881856	0.641045
	H32	H	0.353070	0.207419	0.878808
	H33	H	0.660512	0.210361	0.094335
	H34	H	0.351130	0.765022	0.088225
	H35	H	0.662967	0.764307	0.880750
	H36	H	0.351305	0.880371	0.206100
	H37	H	0.661523	0.091764	0.208578
	H38	H	0.352460	0.089659	0.763558
	H39	H	0.661414	0.879703	0.763229
	H40	H	0.901750	0.206813	0.330360
	H41	H	0.115910	0.210599	0.639109
	H42	H	0.110260	0.765829	0.328764
	H43	H	0.906464	0.768196	0.642338
	H44	H	0.230508	0.332216	0.874430
	H45	H	0.226508	0.640288	0.086992
	H46	H	0.780522	0.331389	0.094700
	H47	H	0.782338	0.639083	0.877871
	H48	H	0.415404	0.096748	0.570797
	H49	H	0.593055	0.874927	0.574041
	H50	H	0.597626	0.096948	0.398600
	H51	H	0.421616	0.871913	0.388777
	H52	H	0.588635	0.404951	0.091818
	H53	H	0.596523	0.573953	0.873197
	H54	H	0.413700	0.576227	0.098936
	H55	H	0.414323	0.404093	0.874865
	H56	H	0.117392	0.577244	0.394520
	H57	H	0.892204	0.577419	0.575040
	H58	H	0.116720	0.394723	0.568849
	H59	H	0.894056	0.394340	0.394458
	H60	H	0.113556	0.402700	0.569138
	H61	H	0.894408	0.575217	0.571987
	H62	H	0.118077	0.575280	0.392868
	H63	H	0.897133	0.395558	0.399810
	H64	H	0.415308	0.572864	0.096103
	H65	H	0.595226	0.574890	0.873622
	H66	H	0.588270	0.392524	0.096202
	H67	H	0.427741	0.398040	0.877856
	H68	H	0.597101	0.097877	0.395719
	H69	H	0.596523	0.874456	0.571846
	H70	H	0.419914	0.097415	0.577698
	H71	H	0.422468	0.877518	0.403749
	H72	H	0.920013	0.592882	0.067180
	H73	H	0.094571	0.374633	0.067920
	H74	H	0.096615	0.597222	0.895346
	H75	H	0.913263	0.372369	0.896825
	H76	H	0.092883	0.893565	0.596648
	H77	H	0.097387	0.070906	0.375044
	H78	H	0.918863	0.074302	0.597193
	H79	H	0.916483	0.896755	0.372430
	H80	H	0.618111	0.071688	0.895795
	H81	H	0.393905	0.070244	0.082146
	H82	H	0.615766	0.900610	0.072669
	H83	H	0.396087	0.896601	0.896799
	H84	H	0.619983	0.896745	0.082511
	H85	H	0.395249	0.080605	0.069091
	H86	H	0.616791	0.074515	0.901125
	H87	H	0.394488	0.894198	0.892477
	H88	H	0.917619	0.072980	0.597342
	H89	H	0.091401	0.069037	0.377388
	H90	H	0.098573	0.893000	0.598824
	H91	H	0.915956	0.891147	0.370792
	H92	H	0.094053	0.596266	0.895783
	H93	H	0.099151	0.370321	0.075077
	H94	H	0.909575	0.599420	0.074042
	H95	H	0.921868	0.373871	0.894420
	H96	H	0.423201	0.094095	0.571086
	H97	H	0.596533	0.872452	0.575299
	H98	H	0.594716	0.097444	0.397080
	H99	H	0.408388	0.871326	0.398143
	H100	H	0.598845	0.399765	0.097589
	H101	H	0.596350	0.575961	0.872788
	H102	H	0.417076	0.576728	0.096747
	H103	H	0.417077	0.389655	0.870548
	H104	H	0.118491	0.577383	0.392611
	H105	H	0.893676	0.573143	0.576258
	H106	H	0.118149	0.399875	0.575887
	H107	H	0.896283	0.400582	0.395486
	H108	H	0.921712	0.596864	0.080368
	H109	H	0.090177	0.373343	0.076332
	H110	H	0.096179	0.595495	0.897586
	H111	H	0.918902	0.376731	0.902762
	H112	H	0.096917	0.898676	0.596376
	H113	H	0.092555	0.075491	0.375159
	H114	H	0.918940	0.072709	0.596013
	H115	H	0.911195	0.894150	0.370388
	H116	H	0.615666	0.068481	0.900280
	H117	H	0.401682	0.065112	0.068590
	H118	H	0.619670	0.889641	0.073009
	H119	H	0.394512	0.891285	0.896645
	C120	C	0.386628	-0.006580	0.605997
	C121	C	0.628690	0.976399	0.607230
	C122	C	0.627514	-0.005900	0.365140
	C123	C	0.385313	0.976525	0.364337
	C124	C	0.626511	0.364680	-0.006242
	C125	C	0.628021	0.606670	0.976647
	C126	C	0.385404	0.606166	-0.006639
	C127	C	0.385009	0.363416	0.976248
	C128	C	0.014522	0.607119	0.362703
	C129	C	0.996867	0.606742	0.605933
	C130	C	0.014382	0.364980	0.604893
	C131	C	0.998354	0.364208	0.363254
	C132	C	0.884561	0.493375	0.106451
	C133	C	0.126924	0.476034	0.104889
	C134	C	0.128090	0.493945	0.862573
	C135	C	0.885331	0.476605	0.864875
	C136	C	0.127891	0.863640	0.494091
	C137	C	0.128164	0.106723	0.477366
	C138	C	0.885781	0.106220	0.494356
	C139	C	0.884702	0.863445	0.475700
	C140	C	0.515272	0.105175	0.865212
	C141	C	0.498627	0.106137	0.107056
	C142	C	0.515640	0.863398	0.107221
	C143	C	0.498436	0.863301	0.864024
	C144	C	0.383977	0.876024	0.666050
	C145	C	0.632721	0.092779	0.669152
	C146	C	0.627745	0.875848	0.306664
	C147	C	0.382770	0.093249	0.303473
	C148	C	0.688645	0.360429	0.877547
	C149	C	0.687303	0.608407	0.094464
	C150	C	0.327791	0.606776	0.875036
	C151	C	0.322601	0.359674	0.091989
	C152	C	0.896081	0.664152	0.362934
	C153	C	0.114565	0.665713	0.606908
	C154	C	0.897729	0.303746	0.607934
	C155	C	0.114421	0.302845	0.359524
	C156	C	0.898051	0.360971	0.666175
	C157	C	0.114016	0.608745	0.665550
	C158	C	0.896593	0.606572	0.304600
	C159	C	0.115201	0.362031	0.302966
	C160	C	0.385939	0.664319	0.874927
	C161	C	0.630154	0.666480	0.094337
	C162	C	0.631829	0.301770	0.877986
	C163	C	0.379964	0.301511	0.092290
	C164	C	0.685887	0.875895	0.363794
	C165	C	0.690525	0.092393	0.611695
	C166	C	0.325721	0.876471	0.608987
	C167	C	0.325032	0.093289	0.361439
	C168	C	0.881029	0.376703	0.167663
	C169	C	0.128456	0.594335	0.163674
	C170	C	0.131557	0.378166	0.800572
	C171	C	0.881414	0.592854	0.802795
	C172	C	0.187661	0.862308	0.376504
	C173	C	0.190876	0.111987	0.592748
	C174	C	0.825736	0.108645	0.377251
	C175	C	0.827141	0.863045	0.594406
	C176	C	0.399161	0.166623	0.861054
	C177	C	0.614309	0.168731	0.111499
	C178	C	0.398072	0.804343	0.107886
	C179	C	0.616043	0.804316	0.862194
	C180	C	0.398183	0.861624	0.166324
	C181	C	0.614877	0.110051	0.168475
	C182	C	0.398982	0.108185	0.803936
	C183	C	0.615372	0.861501	0.803780
	C184	C	0.883675	0.166112	0.376939
	C185	C	0.133026	0.169471	0.592702
	C186	C	0.129044	0.805341	0.375922
	C187	C	0.885910	0.806517	0.594934
	C188	C	0.189693	0.378292	0.857569
	C189	C	0.186641	0.593757	0.106334
	C190	C	0.822164	0.377362	0.111232
	C191	C	0.823486	0.592752	0.860347
	C192	C	0.412297	0.074695	0.580638
	C193	C	0.602550	0.895227	0.581197
	C194	C	0.603313	0.076077	0.389995
	C195	C	0.410406	0.894677	0.389729
	C196	C	0.599577	0.391484	0.074157
	C197	C	0.603112	0.581979	0.894612
	C198	C	0.408844	0.582244	0.075840
	C199	C	0.412075	0.389767	0.895557
	C200	C	0.096654	0.583486	0.386437
	C201	C	0.914740	0.582057	0.581544
	C202	C	0.095024	0.391388	0.578847
	C203	C	0.917028	0.389627	0.389278
	C204	C	0.909915	0.575044	0.081081
	C205	C	0.101876	0.394219	0.080175
	C206	C	0.102581	0.575250	0.889012
	C207	C	0.910847	0.395494	0.890705
	C208	C	0.103124	0.888101	0.575994
	C209	C	0.101424	0.079446	0.396795
	C210	C	0.911340	0.080680	0.575771
	C211	C	0.907881	0.887211	0.392855
	C212	C	0.595932	0.079127	0.891646
	C213	C	0.417885	0.079516	0.080617
	C214	C	0.597421	0.888370	0.083040
	C215	C	0.416400	0.887153	0.888467
	Zn216	Zn	0.507366	-0.014957	0.735442
	Zn217	Zn	0.506698	-0.014921	0.236200
	Zn218	Zn	0.755875	0.485024	-0.014270
	Zn219	Zn	0.256026	0.484735	-0.016108
	Zn220	Zn	0.005699	0.735588	0.484521
	Zn221	Zn	0.006989	0.235119	0.484934
	Zn222	Zn	0.005438	0.485415	0.735145
	Zn223	Zn	0.006489	0.484833	0.234101
	Zn224	Zn	0.507126	0.734566	-0.015023
	Zn225	Zn	0.506493	0.234943	-0.014187
	Zn226	Zn	0.756768	-0.015157	0.485481
	Zn227	Zn	0.256672	-0.014940	0.485744
	N228	N	0.420859	0.949922	0.664856
	N229	N	0.594683	0.019532	0.666447
	N230	N	0.592455	0.950437	0.307198
	N231	N	0.419434	0.019447	0.305142
	N232	N	0.685513	0.398820	0.950547
	N233	N	0.686346	0.572120	0.020141
	N234	N	0.327321	0.571331	0.949692
	N235	N	0.325504	0.397339	0.018643
	N236	N	0.970551	0.664847	0.398090
	N237	N	0.040450	0.664713	0.570733
	N238	N	0.971161	0.306008	0.570494
	N239	N	0.040537	0.303919	0.396371
	N240	N	0.971672	0.398318	0.664724
	N241	N	0.039665	0.572946	0.665292
	N242	N	0.971432	0.572196	0.303829
	N243	N	0.041905	0.399174	0.304988
	N244	N	0.420791	0.664442	0.949687
	N245	N	0.594318	0.665714	0.019859
	N246	N	0.593724	0.304283	0.951227
	N247	N	0.418129	0.303712	0.019130
	N248	N	0.686174	0.950611	0.399373
	N249	N	0.688301	0.018962	0.573859
	N250	N	0.326879	0.950434	0.572479
	N251	N	0.326471	0.019480	0.398375
	N252	N	0.919386	0.449905	0.164799
	N253	N	0.092210	0.520058	0.163220
	N254	N	0.093859	0.451339	0.803378
	N255	N	0.919149	0.519562	0.805416
	N256	N	0.187145	0.897934	0.451032
	N257	N	0.187978	0.073444	0.519763
	N258	N	0.826738	0.072096	0.451456
	N259	N	0.826017	0.897433	0.519238
	N260	N	0.472656	0.165009	0.898425
	N261	N	0.540917	0.166407	0.074065
	N262	N	0.472275	0.805083	0.071829
	N263	N	0.542354	0.805312	0.899014
	N264	N	0.472367	0.897617	0.166126
	N265	N	0.541714	0.071941	0.166131
	N266	N	0.472228	0.070800	0.806140
	N267	N	0.541327	0.897458	0.804820
	N268	N	0.920476	0.164639	0.450809
	N269	N	0.094751	0.166376	0.519792
	N270	N	0.092590	0.805920	0.449981
	N271	N	0.920577	0.806417	0.519904
	N272	N	0.187588	0.451471	0.895576
	N273	N	0.186089	0.519149	0.070626
	N274	N	0.824137	0.451099	0.073924
	N275	N	0.825669	0.519559	0.898388
	O276	O	-0.068837	0.820725	-0.041211
	H277	H	-0.059813	0.824594	-0.038380
	H278	H	-0.083152	0.821549	-0.028031
	O279	O	0.531961	0.267022	0.266809
	H280	H	0.544591	0.242710	0.238592
	H281	H	0.542169	0.285756	0.268985
	O282	O	1.119176	-0.005598	0.758924
	H283	H	1.129492	0.005171	0.755110
	H284	H	1.135370	-0.011224	0.754752
	O285	O	0.559320	0.636337	0.353799
	H286	H	0.551958	0.639276	0.357489
	H287	H	0.548887	0.643353	0.356153
	O288	O	0.241097	0.748502	0.751065
	H289	H	0.248713	0.742600	0.740935
	H290	H	0.216856	0.746235	0.744879
	O291	O	0.301862	0.622297	0.620498
	H292	H	0.324607	0.620786	0.606366
	H293	H	0.299124	0.613320	0.599000
	O294	O	1.228293	0.014450	1.211131
	H295	H	1.254131	0.029845	1.238254
	H296	H	1.226824	0.042463	1.206525
	O297	O	0.301041	0.691248	0.284460
	H298	H	0.270542	0.723028	0.249587
	H299	H	0.331776	0.673644	0.275150
	O300	O	0.229492	-0.074164	1.054216
	H301	H	0.234957	-0.059519	1.065667
	H302	H	0.230349	-0.053791	1.043786
	O303	O	0.717014	0.692350	0.692769
	H304	H	0.695663	0.688443	0.679764
	H305	H	0.747001	0.724032	0.723858
	O306	O	0.485824	0.575208	0.445930
	H307	H	0.477695	0.577991	0.452722
	H308	H	0.490431	0.579255	0.427866
	O309	O	0.111085	1.013842	1.039972
	H310	H	0.093341	1.006561	1.046972
	H311	H	0.115605	0.998710	1.037000
	O312	O	-0.004016	1.027698	0.999293
	H313	H	-0.004869	1.022018	0.987538
	H314	H	-0.004149	1.016292	0.993968
	O315	O	0.525714	0.256984	1.623629
	H316	H	0.527504	0.257352	1.626907
	H317	H	0.519793	0.258023	1.624418
	O318	O	0.560598	0.422688	0.716174
	H319	H	0.561013	0.425398	0.719383
	H320	H	0.569772	0.431003	0.714009
	O321	O	-0.213088	1.203009	0.962204
	H322	H	-0.198492	1.194265	0.952485
	H323	H	-0.238538	1.228520	0.958520
	O324	O	1.042737	0.963529	0.212507
	H325	H	1.064148	0.964511	0.205862
	H326	H	1.052109	0.958990	0.212720
	O327	O	-0.016994	-0.211024	1.213878
	H328	H	-0.027115	-0.239046	1.241650
	H329	H	-0.032894	-0.202080	1.209375
	O330	O	0.467746	0.579779	0.611323
	H331	H	0.478782	0.590260	0.605565
	H332	H	0.461433	0.582066	0.613824
	O333	O	0.799382	0.013791	0.785635
	H334	H	0.825527	0.022500	0.775316
	H335	H	0.790979	0.022425	0.773802
	O336	O	0.393104	0.426342	0.298312
	H337	H	0.400284	0.427113	0.317380
	H338	H	0.394903	0.436042	0.295852
	O339	O	0.326386	0.473842	0.541414
	H340	H	0.324665	0.484670	0.538700
	H341	H	0.340353	0.473971	0.528701
	O342	O	-0.085791	0.064339	0.206617
	H343	H	-0.076752	0.047130	0.194755
	H344	H	-0.070866	0.071287	0.206110
	O345	O	0.216200	1.191951	1.198243
	H346	H	0.197506	1.194859	1.174346
	H347	H	0.248474	1.226571	1.228340
	O348	O	-0.219559	0.022841	0.078948
	H349	H	-0.216030	0.035368	0.098592
	H350	H	-0.218131	0.039771	0.075639
	O351	O	0.560518	0.390240	0.600215
	H352	H	0.556373	0.389325	0.599174
	H353	H	0.559561	0.412314	0.590660
	O354	O	0.207039	-0.211899	1.181077
	H355	H	0.177570	-0.196785	1.170867
	H356	H	0.198948	-0.191711	1.151624
	O357	O	0.467348	0.289320	0.550497
	H358	H	0.467658	0.276930	0.544660
	H359	H	0.476794	0.307539	0.550907
	O360	O	0.609955	0.690920	0.367374
	H361	H	0.622245	0.681660	0.360850
	H362	H	0.608378	0.684244	0.353474
	O363	O	0.215798	-0.229451	-0.028449
	H364	H	0.210742	-0.221985	-0.046443
	H365	H	0.238354	-0.231837	-0.026010
	O366	O	0.624119	0.486588	0.442349
	H367	H	0.614472	0.491203	0.447680
	H368	H	0.622263	0.483698	0.460613
	O369	O	0.735527	0.258542	0.261403
	H370	H	0.742947	0.252356	0.253911
	H371	H	0.721335	0.258106	0.286611
	O372	O	0.769666	0.917872	-0.056559
	H373	H	0.764075	0.937981	-0.066857
	H374	H	0.774318	0.933254	-0.059776
	O375	O	0.815358	-0.206232	-0.205077
	H376	H	0.842520	-0.194266	-0.186481
	H377	H	0.826823	-0.179172	-0.194328
	O378	O	0.509054	0.553689	0.637448
	H379	H	0.514974	0.555411	0.626980
	H380	H	0.519254	0.572951	0.645620
	O381	O	0.038553	1.195415	1.202770
	H382	H	0.036441	1.197241	1.204082
	H383	H	0.056112	1.213287	1.210458
	O384	O	0.949451	0.205550	1.027665
	H385	H	0.955754	0.207187	1.027107
	H386	H	0.952306	0.201279	1.033089
	O387	O	1.194996	1.170812	-0.199125
	H388	H	1.188786	1.186475	-0.193968
	H389	H	1.211917	1.186615	-0.218696
	O390	O	0.709250	0.466599	0.269725
	H391	H	0.697078	0.456600	0.279847
	H392	H	0.735837	0.458070	0.265483
	O393	O	0.290673	0.519814	0.270478
	H394	H	0.284768	0.515258	0.263677
	H395	H	0.283553	0.535209	0.267079
	O396	O	0.045255	0.765482	0.770647
	H397	H	0.035033	0.760208	0.784332
	H398	H	0.050137	0.745356	0.754424
	O399	O	-0.065356	-0.073009	0.768281
	H400	H	-0.050582	-0.057475	0.766182
	H401	H	-0.045986	-0.076853	0.774023
	O402	O	0.286654	0.705496	0.454716
	H403	H	0.275371	0.726650	0.446004
	H404	H	0.281144	0.710805	0.413907
	O405	O	1.206112	-0.113915	0.788746
	H406	H	1.215888	-0.129527	0.806078
	H407	H	1.212422	-0.110825	0.785747
	O408	O	0.130805	0.152997	-0.071996
	H409	H	0.133016	0.168016	-0.068360
	H410	H	0.148209	0.150561	-0.075394
	O411	O	1.217626	1.203003	1.018576
	H412	H	1.243237	1.217579	1.020560
	H413	H	1.210763	1.196402	1.022005
	O414	O	0.728517	0.538858	0.421601
	H415	H	0.724347	0.558897	0.424599
	H416	H	0.738056	0.521363	0.434593
	O417	O	0.295891	0.449182	0.690658
	H418	H	0.286577	0.461962	0.684273
	H419	H	0.297131	0.464703	0.690802
	O420	O	0.527470	0.699608	0.515255
	H421	H	0.520704	0.713353	0.494489
	H422	H	0.563044	0.700010	0.512804
	O423	O	0.179797	0.001929	0.904065
	H424	H	0.190922	-0.005881	0.901632
	H425	H	0.176243	0.009836	0.901711
	O426	O	0.552510	0.659694	0.672132
	H427	H	0.551784	0.665290	0.681629
	H428	H	0.549147	0.668149	0.667472
	O429	O	1.054598	1.113145	0.958729
	H430	H	1.040815	1.107814	0.962023
	H431	H	1.055893	1.108799	0.963410
	O432	O	0.733178	0.262615	0.705798
	H433	H	0.760078	0.259713	0.714141
	H434	H	0.709603	0.274537	0.690794
	O435	O	0.317495	1.294687	0.293342
	H436	H	0.331131	1.314922	0.314460
	H437	H	0.341001	1.313192	0.304241
	O438	O	0.298031	0.271685	-0.300764
	H439	H	0.339880	0.275039	-0.302912
	H440	H	0.295462	0.313634	-0.312983
	O441	O	0.022608	-0.189579	0.096593
	H442	H	-0.007814	-0.195502	0.099158
	H443	H	0.020797	-0.202016	0.090162
	O444	O	0.731471	0.704260	0.525183
	H445	H	0.746012	0.727777	0.528384
	H446	H	0.731626	0.709295	0.538092
	O447	O	-0.025996	1.208096	0.768313
	H448	H	-0.016192	1.221675	0.757921
	H449	H	-0.036797	1.213526	0.777192
	O450	O	-0.157560	0.787739	1.179847
	H451	H	-0.153895	0.778579	1.150506
	H452	H	-0.162468	0.813665	1.171719
	O453	O	0.723459	0.511358	0.700531
	H454	H	0.745023	0.524100	0.719273
	H455	H	0.714121	0.533205	0.697538
	O456	O	-0.010725	0.031911	0.835610
	H457	H	-0.003862	0.046694	0.841382
	H458	H	-0.000736	0.031624	0.834770
	O459	O	0.792442	1.139281	-0.140414
	H460	H	0.789985	1.146854	-0.144301
	H461	H	0.813293	1.120671	-0.137241
	O462	O	0.465013	0.694536	0.268938
	H463	H	0.453937	0.692694	0.264473
	H464	H	0.479499	0.696966	0.255579
	O465	O	0.784901	-0.236353	0.014190
	H466	H	0.747930	-0.266243	0.013783
	H467	H	0.781381	-0.196333	0.003583
	O468	O	0.289519	0.458979	0.467178
	H469	H	0.298180	0.459034	0.463492
	H470	H	0.296441	0.453382	0.472096
	O471	O	0.446177	0.513458	0.509506
	H472	H	0.439486	0.512344	0.503964
	H473	H	0.449417	0.528474	0.513387
	O474	O	0.722930	0.268630	0.448676
	H475	H	0.718537	0.272189	0.456158
	H476	H	0.726923	0.244000	0.462347
	O477	O	0.287928	0.267096	1.504800
	H478	H	0.296857	0.272714	1.515733
	H479	H	0.263920	0.240089	1.522864
	O480	O	0.493261	0.435009	0.478147
	H481	H	0.502596	0.446900	0.477462
	H482	H	0.501216	0.446115	0.473293
	O483	O	0.729938	0.427766	0.534789
	H484	H	0.728058	0.424594	0.547756
	H485	H	0.737087	0.430803	0.534717
	O486	O	0.512460	0.251477	0.462812
	H487	H	0.509931	0.248713	0.461020
	H488	H	0.493423	0.256602	0.455722
	O489	O	0.784073	0.909648	0.206341
	H490	H	0.775172	0.927850	0.223283
	H491	H	0.780632	0.901380	0.217473
	O492	O	-0.134730	0.160980	0.129505
	H493	H	-0.148573	0.170022	0.127610
	H494	H	-0.109000	0.150467	0.136460
	O495	O	0.048235	0.967746	0.892049
	H496	H	0.052510	0.971961	0.893766
	H497	H	0.057610	0.977001	0.897167
	O498	O	1.026202	0.759440	0.970572
	H499	H	1.032143	0.771913	0.967684
	H500	H	1.035831	0.753837	0.964981
	O501	O	0.601392	0.446706	0.274206
	H502	H	0.610126	0.427809	0.290787
	H503	H	0.610566	0.456626	0.277706
