data_Molecule from HDF5

_cell_length_a		16.027742
_cell_length_b		16.236774
_cell_length_c		16.381987
_cell_angle_alpha	89.802203
_cell_angle_beta	89.769727
_cell_angle_gamma	90.165943
_symmetry_space_group_name_H-M	'P 1'
_symmetry_Int_Tables_number		1

loop_
	_symmetry_equiv_pos_as_xyz
	x,y,z

loop_
	_atom_site_label
	_atom_site_type_symbol
	_atom_site_fract_x
	_atom_site_fract_y
	_atom_site_fract_z
	H0	H	0.412908	0.846496	0.709121
	H1	H	0.616745	0.172884	0.706619
	H2	H	0.616919	0.846700	0.274001
	H3	H	0.412980	0.172236	0.273142
	H4	H	0.726902	0.414738	0.824455
	H5	H	0.728943	0.605896	0.152259
	H6	H	0.304323	0.607349	0.823831
	H7	H	0.297552	0.411899	0.151361
	H8	H	0.848520	0.722261	0.389982
	H9	H	0.180186	0.721024	0.584316
	H10	H	0.849806	0.294552	0.587833
	H11	H	0.181620	0.298182	0.389196
	H12	H	0.850586	0.406435	0.704642
	H13	H	0.179577	0.609759	0.700617
	H14	H	0.848357	0.608821	0.274586
	H15	H	0.178971	0.410003	0.271263
	H16	H	0.416116	0.727713	0.827621
	H17	H	0.615764	0.725116	0.152618
	H18	H	0.614826	0.294167	0.826958
	H19	H	0.413349	0.294243	0.152440
	H20	H	0.724785	0.842959	0.396138
	H21	H	0.728007	0.173933	0.586079
	H22	H	0.300627	0.844512	0.589161
	H23	H	0.305066	0.175243	0.396637
	H24	H	0.910362	0.346290	0.205011
	H25	H	0.115902	0.673210	0.203587
	H26	H	0.117201	0.346885	0.771243
	H27	H	0.913387	0.671972	0.769445
	H28	H	0.230150	0.913879	0.326841
	H29	H	0.225485	0.106128	0.653835
	H30	H	0.800603	0.105628	0.325921
	H31	H	0.801269	0.911125	0.653680
	H32	H	0.348633	0.222334	0.892972
	H33	H	0.680721	0.222657	0.088118
	H34	H	0.349164	0.794767	0.090970
	H35	H	0.681374	0.799475	0.893910
	H36	H	0.350046	0.907893	0.207098
	H37	H	0.680251	0.108659	0.203311
	H38	H	0.349883	0.110258	0.776433
	H39	H	0.679411	0.910448	0.775775
	H40	H	0.913981	0.225688	0.326723
	H41	H	0.114930	0.226649	0.650665
	H42	H	0.115472	0.794290	0.326370
	H43	H	0.912327	0.790038	0.650565
	H44	H	0.227035	0.344954	0.890651
	H45	H	0.226084	0.675527	0.080956
	H46	H	0.802219	0.344954	0.083492
	H47	H	0.803638	0.674870	0.890890
	H48	H	0.421330	0.126385	0.584242
	H49	H	0.609348	0.891804	0.583157
	H50	H	0.599009	0.121173	0.405743
	H51	H	0.425812	0.892701	0.395609
	H52	H	0.609088	0.410169	0.108235
	H53	H	0.602388	0.609132	0.874320
	H54	H	0.424579	0.596846	0.101908
	H55	H	0.423997	0.414516	0.872959
	H56	H	0.133462	0.601881	0.390787
	H57	H	0.895931	0.603364	0.574523
	H58	H	0.134229	0.413152	0.579409
	H59	H	0.897476	0.417817	0.400990
	H60	H	0.131796	0.421442	0.574496
	H61	H	0.897954	0.591538	0.579135
	H62	H	0.133567	0.605160	0.394873
	H63	H	0.895375	0.420536	0.392514
	H64	H	0.424165	0.608667	0.106084
	H65	H	0.612753	0.609023	0.870735
	H66	H	0.611378	0.420574	0.104727
	H67	H	0.421885	0.413300	0.871607
	H68	H	0.620609	0.129683	0.397773
	H69	H	0.606006	0.890177	0.590786
	H70	H	0.421299	0.127184	0.586650
	H71	H	0.425070	0.893615	0.401727
	H72	H	0.917051	0.629400	0.085257
	H73	H	0.101706	0.394225	0.079966
	H74	H	0.117361	0.628735	0.894617
	H75	H	0.918065	0.392907	0.900058
	H76	H	0.108242	0.911565	0.606039
	H77	H	0.109659	0.114101	0.370068
	H78	H	0.921309	0.098764	0.604285
	H79	H	0.931258	0.917925	0.377039
	H80	H	0.631845	0.096131	0.895527
	H81	H	0.395251	0.101046	0.087933
	H82	H	0.631895	0.917736	0.078035
	H83	H	0.392575	0.907841	0.898726
	H84	H	0.632311	0.922777	0.086335
	H85	H	0.395751	0.103412	0.081835
	H86	H	0.636035	0.106074	0.893020
	H87	H	0.399989	0.921348	0.908216
	H88	H	0.926405	0.103311	0.603696
	H89	H	0.117783	0.098262	0.370934
	H90	H	0.106295	0.916493	0.604995
	H91	H	0.919312	0.904865	0.369302
	H92	H	0.105116	0.629197	0.881320
	H93	H	0.106683	0.393648	0.080060
	H94	H	0.929533	0.626262	0.085926
	H95	H	0.919217	0.389153	0.887294
	H96	H	0.423473	0.126645	0.585461
	H97	H	0.601109	0.893814	0.585519
	H98	H	0.602356	0.128582	0.382872
	H99	H	0.420793	0.891956	0.398326
	H100	H	0.601033	0.416243	0.103373
	H101	H	0.608289	0.600597	0.874217
	H102	H	0.414592	0.601127	0.106392
	H103	H	0.421055	0.416200	0.872760
	H104	H	0.131970	0.598478	0.395729
	H105	H	0.892572	0.601498	0.586997
	H106	H	0.133783	0.421979	0.584361
	H107	H	0.894204	0.411822	0.394291
	H108	H	0.922988	0.624994	0.074660
	H109	H	0.104025	0.392829	0.083850
	H110	H	0.100459	0.623758	0.898398
	H111	H	0.929554	0.394828	0.894364
	H112	H	0.103516	0.912146	0.604891
	H113	H	0.100922	0.099864	0.376081
	H114	H	0.920539	0.105568	0.606401
	H115	H	0.912701	0.922527	0.373400
	H116	H	0.632863	0.103328	0.903986
	H117	H	0.397257	0.097715	0.081887
	H118	H	0.636185	0.913340	0.086195
	H119	H	0.394752	0.924815	0.891326
	C120	C	0.392450	0.018439	0.613971
	C121	C	0.635827	1.000581	0.613631
	C122	C	0.636203	0.017669	0.368295
	C123	C	0.394385	1.001108	0.369859
	C124	C	0.636240	0.387725	-0.002366
	C125	C	0.637083	0.633325	0.980964
	C126	C	0.393117	0.631659	-0.002916
	C127	C	0.392157	0.386534	0.980231
	C128	C	0.023453	0.630728	0.365835
	C129	C	1.005013	0.628861	0.608546
	C130	C	0.023929	0.388406	0.609073
	C131	C	1.005649	0.388292	0.366723
	C132	C	0.893054	0.518573	0.110265
	C133	C	0.134867	0.501838	0.109191
	C134	C	0.136601	0.518781	0.864149
	C135	C	0.893753	0.501112	0.865683
	C136	C	0.136388	0.886228	0.498003
	C137	C	0.136911	0.131924	0.480638
	C138	C	0.893060	0.130987	0.497302
	C139	C	0.892053	0.886248	0.480886
	C140	C	0.523530	0.130648	0.869745
	C141	C	0.505651	0.130259	0.111840
	C142	C	0.523955	0.888012	0.112630
	C143	C	0.505836	0.889502	0.870718
	C144	C	0.393361	0.894997	0.670152
	C145	C	0.635708	0.124074	0.668098
	C146	C	0.635689	0.894903	0.312915
	C147	C	0.394799	0.123951	0.313024
	C148	C	0.690250	0.392751	0.873929
	C149	C	0.691410	0.627733	0.103611
	C150	C	0.340653	0.628122	0.873367
	C151	C	0.335553	0.390457	0.102826
	C152	C	0.898324	0.685679	0.368942
	C153	C	0.130124	0.684248	0.605464
	C154	C	0.899304	0.332467	0.607384
	C155	C	0.131260	0.334448	0.368638
	C156	C	0.899772	0.388079	0.665684
	C157	C	0.129774	0.628976	0.663302
	C158	C	0.898153	0.629174	0.311747
	C159	C	0.130110	0.390441	0.310428
	C160	C	0.395490	0.688779	0.875394
	C161	C	0.635410	0.687096	0.103860
	C162	C	0.634820	0.332284	0.875239
	C163	C	0.393308	0.332074	0.103474
	C164	C	0.689268	0.893199	0.373648
	C165	C	0.690961	0.124658	0.608265
	C166	C	0.337953	0.893945	0.610457
	C167	C	0.340933	0.125538	0.374086
	C168	C	0.892107	0.395340	0.166470
	C169	C	0.134878	0.624640	0.164977
	C170	C	0.135793	0.395460	0.809467
	C171	C	0.894534	0.623468	0.808842
	C172	C	0.192059	0.891839	0.375337
	C173	C	0.189764	0.127961	0.604206
	C174	C	0.837954	0.127164	0.374767
	C175	C	0.837741	0.889253	0.604221
	C176	C	0.398527	0.185106	0.872359
	C177	C	0.630856	0.185598	0.108926
	C178	C	0.398958	0.832472	0.110856
	C179	C	0.631186	0.835585	0.872994
	C180	C	0.399159	0.888508	0.168717
	C181	C	0.630750	0.128661	0.165957
	C182	C	0.399195	0.129619	0.814280
	C183	C	0.630284	0.890992	0.814532
	C184	C	0.894180	0.186888	0.375144
	C185	C	0.134677	0.187925	0.602644
	C186	C	0.135445	0.832414	0.375159
	C187	C	0.893340	0.829197	0.602656
	C188	C	0.190580	0.394588	0.868950
	C189	C	0.189694	0.625906	0.104113
	C190	C	0.838235	0.394484	0.105885
	C191	C	0.839933	0.625061	0.869196
	C192	C	0.415192	0.104487	0.592026
	C193	C	0.612547	0.914329	0.592740
	C194	C	0.613905	0.104191	0.389210
	C195	C	0.417140	0.915074	0.392072
	C196	C	0.613807	0.409165	0.083225
	C197	C	0.614416	0.612615	0.895268
	C198	C	0.414730	0.609013	0.082543
	C199	C	0.415488	0.408019	0.894831
	C200	C	0.110514	0.608359	0.387350
	C201	C	0.918152	0.605574	0.586704
	C202	C	0.110857	0.412000	0.586038
	C203	C	0.918302	0.410139	0.389307
	C204	C	0.916377	0.604799	0.088319
	C205	C	0.111085	0.415749	0.087763
	C206	C	0.114166	0.604902	0.885197
	C207	C	0.915756	0.414611	0.887611
	C208	C	0.113121	0.907162	0.583405
	C209	C	0.115664	0.110438	0.394595
	C210	C	0.915902	0.108985	0.582752
	C211	C	0.914386	0.908600	0.395268
	C212	C	0.611100	0.108341	0.891428
	C213	C	0.418520	0.107584	0.090274
	C214	C	0.610871	0.911107	0.090189
	C215	C	0.418382	0.911539	0.893020
	Zn216	Zn	0.514589	0.009737	0.742517
	Zn217	Zn	0.514938	0.009320	0.239849
	Zn218	Zn	0.765103	0.510297	-0.011863
	Zn219	Zn	0.263472	0.509790	-0.013206
	Zn220	Zn	0.014059	0.756515	0.488242
	Zn221	Zn	0.015564	0.260975	0.487805
	Zn222	Zn	0.015002	0.509043	0.736476
	Zn223	Zn	0.013259	0.509624	0.239315
	Zn224	Zn	0.514800	0.761671	-0.009258
	Zn225	Zn	0.514638	0.257480	-0.009767
	Zn226	Zn	0.763462	0.008736	0.490325
	Zn227	Zn	0.265154	0.009736	0.490709
	N228	N	0.426640	0.973163	0.672556
	N229	N	0.602001	0.046053	0.671303
	N230	N	0.603269	0.973362	0.309491
	N231	N	0.427443	0.045452	0.310267
	N232	N	0.691359	0.426285	0.951026
	N233	N	0.692441	0.594903	0.026208
	N234	N	0.338811	0.593429	0.950181
	N235	N	0.334672	0.423480	0.025321
	N236	N	0.977098	0.686672	0.402093
	N237	N	0.051619	0.684496	0.572108
	N238	N	0.977567	0.332576	0.572689
	N239	N	0.052802	0.333228	0.403064
	N240	N	0.978325	0.422169	0.666678
	N241	N	0.050946	0.595135	0.665388
	N242	N	0.976821	0.595570	0.309766
	N243	N	0.051020	0.423105	0.309141
	N244	N	0.427557	0.690940	0.953107
	N245	N	0.602143	0.690582	0.026588
	N246	N	0.602079	0.329032	0.953025
	N247	N	0.427698	0.329456	0.026389
	N248	N	0.689949	0.970682	0.407126
	N249	N	0.690978	0.046959	0.574929
	N250	N	0.337265	0.971464	0.576122
	N251	N	0.340532	0.048294	0.408577
	N252	N	0.925624	0.473482	0.169246
	N253	N	0.101349	0.546462	0.168129
	N254	N	0.102712	0.473553	0.806444
	N255	N	0.927251	0.545261	0.806540
	N256	N	0.192960	0.924404	0.452679
	N257	N	0.191223	0.093808	0.527226
	N258	N	0.837159	0.093169	0.451857
	N259	N	0.836774	0.923923	0.527508
	N260	N	0.476972	0.185787	0.906007
	N261	N	0.552157	0.186605	0.075877
	N262	N	0.477563	0.831932	0.076872
	N263	N	0.552769	0.834702	0.907146
	N264	N	0.477859	0.922388	0.170102
	N265	N	0.551866	0.094924	0.167948
	N266	N	0.478195	0.096440	0.812564
	N267	N	0.551331	0.923954	0.813266
	N268	N	0.927843	0.189262	0.452169
	N269	N	0.102534	0.190407	0.524841
	N270	N	0.101518	0.828724	0.452496
	N271	N	0.926283	0.827180	0.524972
	N272	N	0.191241	0.472218	0.902236
	N273	N	0.189747	0.548502	0.070241
	N274	N	0.838749	0.471911	0.071510
	N275	N	0.839175	0.547821	0.903751
	O276	O	0.944489	1.073135	-0.010315
	H277	H	0.946974	1.067380	-0.017522
	H278	H	0.949585	1.080211	-0.008224
	O279	O	0.022964	-0.033687	0.986352
	H280	H	0.016737	-0.036485	0.990848
	H281	H	0.010653	-0.033341	0.987952
	O282	O	-0.016708	0.013829	-0.049333
	H283	H	-0.022299	0.011824	-0.045808
	H284	H	-0.013990	0.015586	-0.055715
	O285	O	0.451533	0.563699	0.487998
	H286	H	0.456215	0.559924	0.478552
	H287	H	0.450380	0.554366	0.501711
	O288	O	-0.923682	-0.999338	-0.019945
	H289	H	-0.913695	-1.007076	-0.014891
	H290	H	-0.930006	-1.003338	-0.025956
	O291	O	-0.059477	1.013962	0.041726
	H292	H	-0.072610	1.021557	0.048028
	H293	H	-0.048682	1.021541	0.040922
	O294	O	0.092362	1.046233	-0.030507
	H295	H	0.094821	1.045680	-0.030174
	H296	H	0.099201	1.049278	-0.031651
	O297	O	0.485551	0.566299	0.502998
	H298	H	0.483835	0.571955	0.500185
	H299	H	0.479220	0.564350	0.497956
	O300	O	0.529183	0.506193	0.502727
	H301	H	0.529047	0.523798	0.501620
	H302	H	0.531688	0.511178	0.509374
	O303	O	1.070166	-0.045486	0.991281
	H304	H	1.066291	-0.045713	1.000836
	H305	H	1.068911	-0.049180	0.991993
	O306	O	0.049310	0.998932	1.067948
	H307	H	0.049363	1.002573	1.063008
	H308	H	0.044953	1.002466	1.075175
	O309	O	-0.048732	0.969446	0.968088
	H310	H	-0.048494	0.974615	0.969789
	H311	H	-0.051320	0.979222	0.961666
	O312	O	-0.014866	0.022150	0.983953
	H313	H	-0.018157	0.034532	0.991062
	H314	H	-0.021792	0.023096	0.982502
	O315	O	0.501483	0.476315	0.475914
	H316	H	0.501095	0.478491	0.476019
	H317	H	0.504357	0.469713	0.481549
	O318	O	0.123067	0.005966	1.013826
	H319	H	0.117237	0.005534	1.018547
	H320	H	0.119399	0.009448	1.011764
	O321	O	0.477770	0.505758	0.495118
	H322	H	0.473194	0.520158	0.490024
	H323	H	0.467874	0.504755	0.493660
	O324	O	0.466124	-0.510107	1.477712
	H325	H	0.456766	-0.516971	1.478053
	H326	H	0.458416	-0.524387	1.481201
	O327	O	1.052645	0.998810	0.969178
	H328	H	1.058201	0.991675	0.966562
	H329	H	1.061460	0.992201	0.973900
	O330	O	0.059791	0.034761	1.004089
	H331	H	0.058059	0.036236	1.004570
	H332	H	0.062184	0.021899	1.007453
	O333	O	0.533827	0.558569	0.442044
	H334	H	0.529491	0.565461	0.433766
	H335	H	0.529997	0.562467	0.441102
	O336	O	0.508549	0.545908	0.484678
	H337	H	0.514223	0.545131	0.483068
	H338	H	0.506737	0.547029	0.484176
	O339	O	0.528891	0.554800	0.460344
	H340	H	0.517240	0.552758	0.449443
	H341	H	0.527245	0.551327	0.469229
	O342	O	0.485957	0.438971	0.469566
	H343	H	0.495661	0.439580	0.473686
	H344	H	0.492545	0.444240	0.469091
	O345	O	0.496687	0.423693	0.506990
	H346	H	0.490166	0.418847	0.505738
	H347	H	0.506886	0.425784	0.510130
