data_Molecule from HDF5

_cell_length_a		16.551177
_cell_length_b		16.512206
_cell_length_c		16.664429
_cell_angle_alpha	90.060759
_cell_angle_beta	89.804216
_cell_angle_gamma	89.986034
_symmetry_space_group_name_H-M	'P 1'
_symmetry_Int_Tables_number		1

loop_
	_symmetry_equiv_pos_as_xyz
	x,y,z

loop_
	_atom_site_label
	_atom_site_type_symbol
	_atom_site_fract_x
	_atom_site_fract_y
	_atom_site_fract_z
	H0	H	0.406733	0.844773	0.739163
	H1	H	0.621804	0.154836	0.735815
	H2	H	0.621435	0.841186	0.294945
	H3	H	0.414141	0.156427	0.294107
	H4	H	0.736610	0.397775	0.856589
	H5	H	0.735442	0.600737	0.171204
	H6	H	0.294468	0.608136	0.859235
	H7	H	0.293047	0.392206	0.168651
	H8	H	0.860691	0.719839	0.411269
	H9	H	0.174369	0.721242	0.616950
	H10	H	0.858850	0.284722	0.614147
	H11	H	0.176568	0.283320	0.414110
	H12	H	0.859888	0.399384	0.732961
	H13	H	0.174012	0.608405	0.735584
	H14	H	0.861043	0.604300	0.293558
	H15	H	0.175215	0.395773	0.294131
	H16	H	0.411121	0.723839	0.859717
	H17	H	0.618533	0.718265	0.170763
	H18	H	0.617499	0.282192	0.856450
	H19	H	0.412020	0.277985	0.170044
	H20	H	0.736854	0.841547	0.411064
	H21	H	0.735529	0.156169	0.616771
	H22	H	0.293735	0.843634	0.620998
	H23	H	0.296825	0.156157	0.409820
	H24	H	0.917109	0.340952	0.230717
	H25	H	0.123854	0.656367	0.235921
	H26	H	0.122664	0.343691	0.792720
	H27	H	0.913358	0.657084	0.794473
	H28	H	0.239420	0.894974	0.358049
	H29	H	0.241292	0.106984	0.668289
	H30	H	0.797136	0.104079	0.358459
	H31	H	0.795533	0.894761	0.668482
	H32	H	0.362776	0.223156	0.907293
	H33	H	0.674722	0.217157	0.115386
	H34	H	0.360162	0.777947	0.118337
	H35	H	0.674473	0.780665	0.911700
	H36	H	0.361182	0.891321	0.237470
	H37	H	0.673997	0.101855	0.232202
	H38	H	0.364072	0.109600	0.788525
	H39	H	0.671693	0.892263	0.790642
	H40	H	0.913878	0.221244	0.358293
	H41	H	0.120626	0.220326	0.670976
	H42	H	0.123187	0.777640	0.357717
	H43	H	0.912006	0.778301	0.668971
	H44	H	0.237415	0.343402	0.909289
	H45	H	0.238643	0.657084	0.118080
	H46	H	0.803226	0.339892	0.113220
	H47	H	0.800243	0.658018	0.914142
	H48	H	0.433112	0.113372	0.613450
	H49	H	0.608737	0.886635	0.596201
	H50	H	0.608511	0.111431	0.426129
	H51	H	0.430267	0.886571	0.423453
	H52	H	0.611565	0.411344	0.125897
	H53	H	0.616797	0.587648	0.899748
	H54	H	0.427087	0.591663	0.126406
	H55	H	0.429827	0.410434	0.903331
	H56	H	0.130365	0.591861	0.426012
	H57	H	0.906255	0.588967	0.601993
	H58	H	0.129332	0.413961	0.603711
	H59	H	0.906568	0.410858	0.425276
	H60	H	0.132195	0.410514	0.607664
	H61	H	0.906478	0.586098	0.603274
	H62	H	0.128118	0.584899	0.427810
	H63	H	0.904551	0.412003	0.419174
	H64	H	0.426019	0.580191	0.122551
	H65	H	0.604864	0.585630	0.904655
	H66	H	0.606482	0.405382	0.126789
	H67	H	0.428980	0.411364	0.903152
	H68	H	0.609589	0.113839	0.419802
	H69	H	0.609362	0.883055	0.608835
	H70	H	0.439478	0.104844	0.594831
	H71	H	0.429836	0.887992	0.427682
	H72	H	0.924340	0.616863	0.112575
	H73	H	0.106964	0.387721	0.101684
	H74	H	0.101354	0.612910	0.919313
	H75	H	0.927478	0.386396	0.923223
	H76	H	0.108051	0.912368	0.624943
	H77	H	0.106352	0.088302	0.403576
	H78	H	0.928057	0.094337	0.625768
	H79	H	0.933942	0.915483	0.405415
	H80	H	0.625877	0.082655	0.930811
	H81	H	0.405954	0.086841	0.101573
	H82	H	0.625289	0.913060	0.094568
	H83	H	0.406108	0.907937	0.933699
	H84	H	0.629827	0.916437	0.113652
	H85	H	0.404489	0.085372	0.107140
	H86	H	0.629911	0.083323	0.918380
	H87	H	0.406388	0.919742	0.925077
	H88	H	0.922625	0.092454	0.627718
	H89	H	0.106009	0.091617	0.403087
	H90	H	0.103517	0.913048	0.622753
	H91	H	0.930822	0.905287	0.400720
	H92	H	0.104399	0.609628	0.931495
	H93	H	0.106396	0.387947	0.104540
	H94	H	0.933270	0.611559	0.105449
	H95	H	0.927642	0.386220	0.921808
	H96	H	0.419695	0.112204	0.597091
	H97	H	0.598165	0.889029	0.604228
	H98	H	0.603316	0.111438	0.421633
	H99	H	0.426461	0.886847	0.425406
	H100	H	0.614099	0.403946	0.128840
	H101	H	0.607442	0.597313	0.899857
	H102	H	0.436288	0.586255	0.120740
	H103	H	0.429607	0.411485	0.903946
	H104	H	0.129875	0.586355	0.421185
	H105	H	0.905661	0.588699	0.605162
	H106	H	0.130531	0.408018	0.602503
	H107	H	0.903395	0.406200	0.421820
	H108	H	0.921657	0.613295	0.100880
	H109	H	0.104715	0.389105	0.103280
	H110	H	0.113071	0.616261	0.923731
	H111	H	0.929037	0.386856	0.922507
	H112	H	0.104437	0.908711	0.625612
	H113	H	0.109355	0.089931	0.402609
	H114	H	0.926478	0.088651	0.625673
	H115	H	0.922937	0.914116	0.401534
	H116	H	0.631315	0.093714	0.926486
	H117	H	0.402458	0.091249	0.105182
	H118	H	0.633194	0.898350	0.105501
	H119	H	0.401731	0.906816	0.920307
	C120	C	0.396060	0.007619	0.635358
	C121	C	0.637267	0.990011	0.634754
	C122	C	0.638477	0.007737	0.392284
	C123	C	0.396774	0.990841	0.393261
	C124	C	0.639854	0.377289	0.022592
	C125	C	0.639653	0.620679	1.005506
	C126	C	0.396702	0.620303	0.021651
	C127	C	0.396494	0.378346	1.006125
	C128	C	0.025935	0.620341	0.393439
	C129	C	1.009408	0.621304	0.635263
	C130	C	0.026027	0.380256	0.635299
	C131	C	1.009471	0.378557	0.392125
	C132	C	0.896973	0.508328	0.135579
	C133	C	0.138928	0.491678	0.135258
	C134	C	0.138749	0.509159	0.892598
	C135	C	0.896936	0.491036	0.892686
	C136	C	0.138534	0.878530	0.521820
	C137	C	0.138849	0.121846	0.506106
	C138	C	0.895054	0.122671	0.522889
	C139	C	0.896579	0.879042	0.505305
	C140	C	0.526157	0.120069	0.892792
	C141	C	0.508406	0.119567	0.135002
	C142	C	0.525506	0.877247	0.136140
	C143	C	0.508181	0.878567	0.893445
	C144	C	0.390282	0.891052	0.697520
	C145	C	0.639834	0.108080	0.695121
	C146	C	0.640180	0.888858	0.334052
	C147	C	0.395477	0.109263	0.333993
	C148	C	0.696861	0.378437	0.903610
	C149	C	0.696798	0.620811	0.123911
	C150	C	0.335163	0.625187	0.905668
	C151	C	0.334338	0.374778	0.122297
	C152	C	0.907554	0.680096	0.392089
	C153	C	0.127157	0.681757	0.636452
	C154	C	0.906483	0.323416	0.634204
	C155	C	0.128852	0.321522	0.393594
	C156	C	0.907003	0.380175	0.693116
	C157	C	0.126955	0.625356	0.695263
	C158	C	0.908045	0.622606	0.333815
	C159	C	0.128200	0.377579	0.334060
	C160	C	0.393177	0.682802	0.905879
	C161	C	0.638653	0.678949	0.123838
	C162	C	0.638120	0.320852	0.903535
	C163	C	0.393491	0.317911	0.123060
	C164	C	0.697427	0.888884	0.391870
	C165	C	0.696250	0.108824	0.636096
	C166	C	0.333845	0.890688	0.638861
	C167	C	0.336994	0.109189	0.391254
	C168	C	0.897612	0.388568	0.191985
	C169	C	0.141573	0.609676	0.195227
	C170	C	0.140850	0.390958	0.832696
	C171	C	0.895266	0.609975	0.834573
	C172	C	0.199277	0.876199	0.404683
	C173	C	0.199915	0.124625	0.622488
	C174	C	0.836785	0.123201	0.405138
	C175	C	0.835865	0.876609	0.622150
	C176	C	0.409500	0.182687	0.889017
	C177	C	0.627295	0.177880	0.134965
	C178	C	0.407422	0.817538	0.137608
	C179	C	0.626721	0.819293	0.891778
	C180	C	0.408050	0.873848	0.196857
	C181	C	0.626900	0.120672	0.192976
	C182	C	0.409973	0.125925	0.830307
	C183	C	0.625363	0.874837	0.831956
	C184	C	0.894638	0.181455	0.405293
	C185	C	0.140389	0.181274	0.623644
	C186	C	0.141381	0.818071	0.404568
	C187	C	0.893795	0.818693	0.622204
	C188	C	0.198000	0.390674	0.890664
	C189	C	0.198525	0.609951	0.136762
	C190	C	0.840889	0.388088	0.133625
	C191	C	0.838896	0.610398	0.893800
	C192	C	0.422919	0.089048	0.609238
	C193	C	0.612429	0.907620	0.610167
	C194	C	0.614131	0.090880	0.415763
	C195	C	0.421601	0.908496	0.418315
	C196	C	0.617305	0.400152	0.105521
	C197	C	0.616413	0.597040	0.922940
	C198	C	0.422568	0.593527	0.102494
	C199	C	0.422225	0.403776	0.924732
	C200	C	0.108023	0.595264	0.418131
	C201	C	0.927664	0.595347	0.610460
	C202	C	0.109150	0.403914	0.611635
	C203	C	0.926373	0.402612	0.415332
	C204	C	0.919945	0.592151	0.112883
	C205	C	0.113547	0.409682	0.110290
	C206	C	0.113350	0.591508	0.917685
	C207	C	0.921305	0.407979	0.915879
	C208	C	0.112786	0.904058	0.603185
	C209	C	0.114129	0.097037	0.424398
	C210	C	0.918929	0.098673	0.605101
	C211	C	0.922003	0.904456	0.423863
	C212	C	0.607811	0.093693	0.918113
	C213	C	0.425870	0.094947	0.111276
	C214	C	0.607926	0.902135	0.111449
	C215	C	0.426127	0.904163	0.919116
	Zn216	Zn	0.516626	-0.001355	0.764211
	Zn217	Zn	0.517710	-0.001391	0.264117
	Zn218	Zn	0.768915	0.498937	0.014454
	Zn219	Zn	0.267098	0.500098	0.013560
	Zn220	Zn	0.017423	0.749530	0.513709
	Zn221	Zn	0.017671	0.251099	0.514413
	Zn222	Zn	0.018390	0.501116	0.764441
	Zn223	Zn	0.017855	0.499867	0.263775
	Zn224	Zn	0.517221	0.749511	0.014038
	Zn225	Zn	0.517447	0.248034	0.014035
	Zn226	Zn	0.766551	-0.000191	0.513860
	Zn227	Zn	0.267906	-0.000191	0.514451
	N228	N	0.428437	0.964809	0.695509
	N229	N	0.603776	0.033259	0.694363
	N230	N	0.604433	0.963946	0.334050
	N231	N	0.431682	0.034554	0.334955
	N232	N	0.698340	0.412513	0.978752
	N233	N	0.697698	0.585569	0.049346
	N234	N	0.337259	0.586716	0.978779
	N235	N	0.335935	0.411638	0.048444
	N236	N	0.981927	0.678837	0.428297
	N237	N	0.052975	0.679557	0.599845
	N238	N	0.981624	0.323288	0.598952
	N239	N	0.053851	0.321983	0.428765
	N240	N	0.982541	0.414690	0.693989
	N241	N	0.052567	0.588680	0.694798
	N242	N	0.982686	0.586251	0.334357
	N243	N	0.052779	0.412159	0.332887
	N244	N	0.430958	0.679576	0.978890
	N245	N	0.603887	0.679070	0.049073
	N246	N	0.603630	0.319767	0.978574
	N247	N	0.431323	0.319860	0.049791
	N248	N	0.696710	0.964103	0.427324
	N249	N	0.695031	0.034366	0.599386
	N250	N	0.337625	0.964197	0.600651
	N251	N	0.337560	0.034440	0.427243
	N252	N	0.931392	0.464662	0.193693
	N253	N	0.105341	0.534956	0.194655
	N254	N	0.105095	0.465959	0.833514
	N255	N	0.930451	0.534819	0.833700
	N256	N	0.197948	0.912804	0.478746
	N257	N	0.199136	0.088400	0.548338
	N258	N	0.836832	0.087328	0.479462
	N259	N	0.837349	0.913433	0.548395
	N260	N	0.482734	0.179055	0.927135
	N261	N	0.552276	0.177795	0.100116
	N262	N	0.481550	0.819558	0.100569
	N263	N	0.552721	0.821432	0.929294
	N264	N	0.482580	0.910191	0.196068
	N265	N	0.551956	0.085067	0.193169
	N266	N	0.483520	0.087450	0.832640
	N267	N	0.550522	0.910590	0.832630
	N268	N	0.930111	0.181203	0.479518
	N269	N	0.103403	0.179910	0.550058
	N270	N	0.104763	0.819141	0.478620
	N271	N	0.930940	0.820241	0.548600
	N272	N	0.196944	0.465301	0.927165
	N273	N	0.197259	0.535548	0.100458
	N274	N	0.840031	0.463784	0.099641
	N275	N	0.839712	0.535405	0.929266
	O276	O	-0.174700	0.812223	-0.177950
	H277	H	-0.149873	0.827945	-0.162169
	H278	H	-0.164472	0.832482	-0.166789
	O279	O	0.205283	0.828412	0.183419
	H280	H	0.199831	0.834855	0.176885
	H281	H	0.191980	0.840594	0.161259
	O282	O	1.315460	0.538320	0.546538
	H283	H	1.305732	0.568690	0.542247
	H284	H	1.323865	0.524394	0.550312
	O285	O	0.579261	0.296913	0.551146
	H286	H	0.588818	0.296950	0.544855
	H287	H	0.585791	0.306115	0.536253
	O288	O	-0.200476	1.216385	-0.028957
	H289	H	-0.223251	1.242074	-0.035617
	H290	H	-0.195679	1.215032	-0.068135
	O291	O	0.287239	0.265259	0.749266
	H292	H	0.296453	0.271767	0.736720
	H293	H	0.326118	0.271591	0.734842
	O294	O	1.542788	-0.483019	0.308860
	H295	H	1.562734	-0.495223	0.308287
	H296	H	1.520710	-0.491282	0.305261
	O297	O	0.741499	0.462333	0.293276
	H298	H	0.750007	0.426890	0.285441
	H299	H	0.755110	0.445528	0.275869
	O300	O	-0.195380	0.209821	0.802012
	H301	H	-0.164348	0.197077	0.797467
	H302	H	-0.225735	0.242735	0.768413
	O303	O	0.547663	-0.407619	0.462317
	H304	H	0.531665	-0.427221	0.465157
	H305	H	0.542214	-0.407842	0.471160
	O306	O	0.519905	0.636687	0.728596
	H307	H	0.511651	0.632520	0.735009
	H308	H	0.519029	0.634768	0.723275
	O309	O	0.307837	0.465167	0.736445
	H310	H	0.306360	0.451841	0.741578
	H311	H	0.290674	0.460462	0.742611
	O312	O	0.605245	0.453249	0.733709
	H313	H	0.613881	0.480328	0.735478
	H314	H	0.613875	0.452085	0.733407
	O315	O	1.294668	0.723292	1.479525
	H316	H	1.271345	0.745601	1.460141
	H317	H	1.289700	0.726572	1.445501
	O318	O	0.725013	0.293495	0.309424
	H319	H	0.753827	0.258047	0.275598
	H320	H	0.670142	0.285165	0.300777
	O321	O	-0.207218	1.014532	0.880996
	H322	H	-0.208107	1.034795	0.881807
	H323	H	-0.222050	1.030218	0.880735
	O324	O	1.245195	1.056215	-0.038465
	H325	H	1.249817	1.057074	-0.028875
	H326	H	1.242524	1.072234	-0.031755
	O327	O	0.052922	0.058251	1.239848
	H328	H	0.033894	0.060744	1.240568
	H329	H	0.036924	0.050042	1.244359
	O330	O	0.735447	-0.280711	0.294217
	H331	H	0.728088	-0.301255	0.297323
	H332	H	0.717841	-0.293335	0.318592
	O333	O	0.728966	0.510316	0.493475
	H334	H	0.733791	0.522330	0.475813
	H335	H	0.740699	0.499608	0.492454
	O336	O	0.668301	0.717043	0.513662
	H337	H	0.677851	0.732433	0.521037
	H338	H	0.666081	0.712541	0.541473
	O339	O	0.804848	-0.212693	1.061443
	H340	H	0.801232	-0.219413	1.039260
	H341	H	0.807218	-0.218242	1.049158
	O342	O	-0.683636	-0.301752	0.315523
	H343	H	-0.699640	-0.297939	0.287812
	H344	H	-0.630524	-0.298494	0.312308
	O345	O	0.722570	1.643606	0.511695
	H346	H	0.733874	1.653377	0.506471
	H347	H	0.731926	1.645960	0.516494
	O348	O	-0.503938	0.297119	0.696874
	H349	H	-0.491669	0.287284	0.694084
	H350	H	-0.491192	0.304854	0.681620
	O351	O	0.704401	0.310637	0.699558
	H352	H	0.680096	0.312147	0.670395
	H353	H	0.694645	0.344788	0.687752
	O354	O	-0.094825	-0.003654	0.821107
	H355	H	-0.120695	0.003118	0.814755
	H356	H	-0.081868	-0.000495	0.825242
	O357	O	0.559805	0.284459	0.297577
	H358	H	0.540167	0.284767	0.292168
	H359	H	0.542391	0.293270	0.285828
	O360	O	0.159839	0.137624	0.854028
	H361	H	0.185461	0.152786	0.839837
	H362	H	0.158216	0.128659	0.859680
	O363	O	0.231196	-0.033735	0.085269
	H364	H	0.234140	-0.025930	0.099058
	H365	H	0.226396	-0.017762	0.093398
	O366	O	0.297797	0.532076	0.288785
	H367	H	0.301827	0.550866	0.301757
	H368	H	0.266208	0.538522	0.263606
	O369	O	1.241112	0.216878	0.043796
	H370	H	1.250825	0.235164	0.056245
	H371	H	1.242287	0.228908	0.053243
	O372	O	0.883872	0.914561	-0.060029
	H373	H	0.880169	0.914081	-0.051791
	H374	H	0.887482	0.929476	-0.070128
	O375	O	1.227699	0.205254	0.220215
	H376	H	1.224444	0.190359	0.230610
	H377	H	1.201948	0.213999	0.208034
	O378	O	-0.065304	-0.211947	0.958085
	H379	H	-0.047975	-0.200928	0.966581
	H380	H	-0.056712	-0.206306	0.931537
	O381	O	0.445938	0.536620	0.488901
	H382	H	0.445736	0.548552	0.497405
	H383	H	0.442367	0.542038	0.493657
	O384	O	0.479513	0.706130	0.304458
	H385	H	0.501946	0.701460	0.318734
	H386	H	0.494729	0.724122	0.305632
	O387	O	0.998857	0.993581	0.056059
	H388	H	0.993427	0.994752	0.069237
	H389	H	1.001929	0.993225	0.051101
	O390	O	0.329750	0.635795	0.653087
	H391	H	0.338388	0.621780	0.653473
	H392	H	0.320478	0.627930	0.643653
	O393	O	0.239706	1.034141	0.234100
	H394	H	0.241050	1.047523	0.242620
	H395	H	0.243623	1.032863	0.255294
	O396	O	0.217054	0.993094	0.795602
	H397	H	0.223501	0.988999	0.786592
	H398	H	0.232827	0.998810	0.794772
	O399	O	0.472032	0.412887	1.569979
	H400	H	0.503082	0.422990	1.565693
	H401	H	0.472166	0.420438	1.571032
	O402	O	-0.030729	-0.017356	0.847680
	H403	H	-0.021852	-0.013373	0.853717
	H404	H	-0.035092	-0.020556	0.852093
	O405	O	0.960787	-0.044486	1.090292
	H406	H	0.953773	-0.058251	1.090517
	H407	H	0.965555	-0.049838	1.078928
	O408	O	-0.152116	0.004144	0.241036
	H409	H	-0.140564	-0.030616	0.239854
	H410	H	-0.174345	-0.015985	0.262713
	O411	O	0.041844	0.785004	-0.202212
	H412	H	0.057063	0.794978	-0.206502
	H413	H	0.047792	0.775238	-0.221476
	O414	O	0.437186	0.474800	-0.433693
	H415	H	0.433341	0.477310	-0.430289
	H416	H	0.427859	0.476609	-0.420361
	O417	O	0.660941	0.479930	0.545484
	H418	H	0.673195	0.468374	0.549691
	H419	H	0.660395	0.487025	0.546386
	O420	O	0.733603	0.281012	0.482932
	H421	H	0.748704	0.269903	0.466368
	H422	H	0.744476	0.272750	0.447696
	O423	O	-0.012274	-0.215178	1.232900
	H424	H	-0.034495	-0.221952	1.236389
	H425	H	-0.027671	-0.230245	1.241019
	O426	O	1.019957	0.212025	-0.113641
	H427	H	1.002398	0.215024	-0.101319
	H428	H	1.023641	0.213658	-0.135924
	O429	O	1.069821	0.771334	1.074491
	H430	H	1.076572	0.770568	1.083901
	H431	H	1.059742	0.771246	1.069244
	O432	O	0.816674	-0.140948	0.227823
	H433	H	0.793699	-0.171441	0.230413
	H434	H	0.804334	-0.149387	0.199490
	O435	O	0.215926	0.798866	-0.009577
	H436	H	0.215279	0.804108	-0.009182
	H437	H	0.221162	0.809281	-0.005338
	O438	O	0.098796	-0.002430	-0.206433
	H439	H	0.123772	-0.009993	-0.207063
	H440	H	0.098062	0.014766	-0.203608
	O441	O	-0.170030	0.071212	0.063543
	H442	H	-0.176255	0.098359	0.057304
	H443	H	-0.170598	0.050269	0.065032
	O444	O	0.491079	0.314828	0.454050
	H445	H	0.497870	0.303757	0.448970
	H446	H	0.501132	0.332347	0.458592
	O447	O	-0.016908	1.183412	1.070134
	H448	H	-0.004777	1.181437	1.050598
	H449	H	-0.027878	1.197472	1.054506
	O450	O	-0.178266	1.189228	1.209188
	H451	H	-0.166002	1.167056	1.190843
	H452	H	-0.151818	1.172692	1.191511
	O453	O	0.725343	0.707518	0.723017
	H454	H	0.722333	0.724547	0.733083
	H455	H	0.717198	0.724892	0.735868
	O456	O	-0.766307	0.784197	0.808225
	H457	H	-0.777336	0.786770	0.803884
	H458	H	-0.751730	0.782207	0.825429
	O459	O	0.514411	0.457310	0.375456
	H460	H	0.501363	0.465710	0.376929
	H461	H	0.524033	0.468452	0.383461
	O462	O	0.356645	0.336008	0.330240
	H463	H	0.363988	0.343660	0.335090
	H464	H	0.358672	0.339055	0.337447
	O465	O	1.002207	0.140817	0.164814
	H466	H	1.011669	0.142492	0.158788
	H467	H	0.992742	0.121521	0.165246
	O468	O	0.345224	0.291891	0.521554
	H469	H	0.341230	0.285092	0.516313
	H470	H	0.342909	0.299223	0.514199
	O471	O	0.714902	0.522671	0.729185
	H472	H	0.726670	0.541707	0.719159
	H473	H	0.735956	0.541945	0.745213
	O474	O	0.390226	0.465527	0.372685
	H475	H	0.395537	0.468002	0.378744
	H476	H	0.380559	0.459493	0.367892
	O477	O	0.467937	0.722040	1.580639
	H478	H	0.446518	0.720238	1.586103
	H479	H	0.450632	0.719663	1.576069
	O480	O	0.009580	1.210545	-0.157217
	H481	H	0.038128	1.201885	-0.165267
	H482	H	0.016331	1.223954	-0.174291
	O483	O	0.502850	0.633643	0.733821
	H484	H	0.489386	0.628052	0.734443
	H485	H	0.502747	0.635599	0.734932
	O486	O	0.101302	0.966378	0.000577
	H487	H	0.099136	0.966262	-0.011582
	H488	H	0.105758	0.977005	0.009203
	O489	O	1.065242	1.115869	0.237169
	H490	H	1.061564	1.103072	0.235015
	H491	H	1.072507	1.127533	0.241673
