data_Molecule from HDF5

_cell_length_a		16.188623
_cell_length_b		16.319270
_cell_length_c		16.213384
_cell_angle_alpha	89.856211
_cell_angle_beta	89.871288
_cell_angle_gamma	89.965177
_symmetry_space_group_name_H-M	'P 1'
_symmetry_Int_Tables_number		1

loop_
	_symmetry_equiv_pos_as_xyz
	x,y,z

loop_
	_atom_site_label
	_atom_site_type_symbol
	_atom_site_fract_x
	_atom_site_fract_y
	_atom_site_fract_z
	H0	H	0.398385	0.817924	0.717535
	H1	H	0.595175	0.145117	0.715447
	H2	H	0.597108	0.818605	0.286975
	H3	H	0.399235	0.145645	0.287287
	H4	H	0.712451	0.383818	0.837810
	H5	H	0.711373	0.577527	0.166287
	H6	H	0.287456	0.578378	0.836623
	H7	H	0.286094	0.385022	0.165976
	H8	H	0.835175	0.697160	0.401102
	H9	H	0.162894	0.695186	0.600227
	H10	H	0.834256	0.266866	0.602588
	H11	H	0.163001	0.266285	0.403451
	H12	H	0.835269	0.381457	0.717996
	H13	H	0.164378	0.576885	0.712442
	H14	H	0.833885	0.579840	0.287916
	H15	H	0.164555	0.385032	0.290001
	H16	H	0.399518	0.696217	0.837426
	H17	H	0.599380	0.697291	0.165335
	H18	H	0.598162	0.266340	0.838205
	H19	H	0.398332	0.267543	0.166430
	H20	H	0.713003	0.818646	0.402900
	H21	H	0.710971	0.145685	0.598681
	H22	H	0.282630	0.817973	0.601414
	H23	H	0.282498	0.145273	0.404319
	H24	H	0.900360	0.317751	0.217317
	H25	H	0.097920	0.645401	0.216398
	H26	H	0.097953	0.317287	0.788533
	H27	H	0.901837	0.645123	0.786764
	H28	H	0.212415	0.883068	0.338189
	H29	H	0.210170	0.078579	0.666818
	H30	H	0.786190	0.079276	0.337106
	H31	H	0.784565	0.884135	0.666105
	H32	H	0.333331	0.196762	0.902781
	H33	H	0.662119	0.195130	0.100741
	H34	H	0.334238	0.766490	0.100930
	H35	H	0.662836	0.767992	0.901650
	H36	H	0.333250	0.882810	0.215847
	H37	H	0.662277	0.078565	0.213816
	H38	H	0.332400	0.079290	0.789479
	H39	H	0.661996	0.884224	0.786985
	H40	H	0.897435	0.197053	0.338898
	H41	H	0.097046	0.195544	0.665938
	H42	H	0.098669	0.766982	0.338149
	H43	H	0.897737	0.765633	0.665924
	H44	H	0.212991	0.317647	0.905455
	H45	H	0.212014	0.645897	0.097457
	H46	H	0.785531	0.317486	0.100115
	H47	H	0.784129	0.644869	0.902544
	H48	H	0.400986	0.098233	0.592280
	H49	H	0.590733	0.863963	0.600873
	H50	H	0.590230	0.098990	0.404217
	H51	H	0.399569	0.864803	0.411868
	H52	H	0.589050	0.387845	0.118373
	H53	H	0.587192	0.572835	0.887106
	H54	H	0.404254	0.573481	0.119457
	H55	H	0.404919	0.382837	0.881717
	H56	H	0.118242	0.578823	0.404791
	H57	H	0.881915	0.572698	0.593948
	H58	H	0.116650	0.390423	0.599747
	H59	H	0.878905	0.381945	0.409640
	H60	H	0.118693	0.380274	0.594651
	H61	H	0.881663	0.574469	0.595431
	H62	H	0.115227	0.577217	0.413215
	H63	H	0.884839	0.391385	0.416755
	H64	H	0.408408	0.574490	0.118174
	H65	H	0.591243	0.579521	0.883145
	H66	H	0.591327	0.383322	0.120504
	H67	H	0.402960	0.391234	0.884102
	H68	H	0.588626	0.097033	0.409676
	H69	H	0.584805	0.868654	0.591356
	H70	H	0.401496	0.099022	0.599401
	H71	H	0.405642	0.864574	0.403656
	H72	H	0.902893	0.598309	0.093816
	H73	H	0.090176	0.365550	0.097586
	H74	H	0.091509	0.597827	0.906104
	H75	H	0.906401	0.365186	0.908622
	H76	H	0.087209	0.891271	0.618123
	H77	H	0.092053	0.085397	0.380968
	H78	H	0.900843	0.065180	0.618224
	H79	H	0.911562	0.896889	0.389111
	H80	H	0.617099	0.081249	0.907182
	H81	H	0.380611	0.075004	0.092375
	H82	H	0.613516	0.900685	0.098580
	H83	H	0.382096	0.897872	0.906578
	H84	H	0.620095	0.879829	0.101807
	H85	H	0.379055	0.074479	0.097330
	H86	H	0.613087	0.073459	0.914909
	H87	H	0.375923	0.879868	0.903238
	H88	H	0.913374	0.076578	0.617730
	H89	H	0.098252	0.065509	0.384583
	H90	H	0.086858	0.884468	0.619496
	H91	H	0.911130	0.877663	0.383459
	H92	H	0.094200	0.598724	0.907988
	H93	H	0.093733	0.365985	0.093757
	H94	H	0.905721	0.598409	0.098344
	H95	H	0.908768	0.365684	0.909922
	H96	H	0.407214	0.096573	0.595531
	H97	H	0.596480	0.864647	0.590373
	H98	H	0.594597	0.098968	0.408171
	H99	H	0.409117	0.868267	0.412125
	H100	H	0.594808	0.387619	0.120600
	H101	H	0.594988	0.572352	0.884006
	H102	H	0.405621	0.577686	0.119933
	H103	H	0.410655	0.388169	0.885557
	H104	H	0.115718	0.569684	0.407768
	H105	H	0.880874	0.574803	0.593623
	H106	H	0.114197	0.389287	0.588381
	H107	H	0.881727	0.393403	0.404344
	H108	H	0.907324	0.596725	0.093654
	H109	H	0.094741	0.363804	0.098363
	H110	H	0.094255	0.598174	0.904785
	H111	H	0.905908	0.365953	0.910674
	H112	H	0.093503	0.887332	0.620472
	H113	H	0.078795	0.071715	0.389648
	H114	H	0.897777	0.081539	0.623197
	H115	H	0.895138	0.888903	0.381397
	H116	H	0.614726	0.070412	0.904090
	H117	H	0.378602	0.079184	0.095464
	H118	H	0.612628	0.886258	0.082067
	H119	H	0.382268	0.883979	0.920267
	C120	C	0.375051	-0.010204	0.624278
	C121	C	0.619104	0.973595	0.623015
	C122	C	0.620007	-0.009442	0.379003
	C123	C	0.375682	0.973523	0.380181
	C124	C	0.620345	0.358674	0.010964
	C125	C	0.620121	0.603225	0.993244
	C126	C	0.378006	0.603080	0.009889
	C127	C	0.377536	0.359840	0.993039
	C128	C	0.007359	0.603254	0.380196
	C129	C	0.990418	0.601950	0.622457
	C130	C	0.007553	0.358683	0.623719
	C131	C	0.990344	0.359804	0.380859
	C132	C	0.876880	0.489679	0.124117
	C133	C	0.120476	0.473483	0.123493
	C134	C	0.121473	0.489946	0.879194
	C135	C	0.878005	0.473491	0.880323
	C136	C	0.118995	0.859560	0.510857
	C137	C	0.118329	0.102160	0.493686
	C138	C	0.875889	0.103232	0.510925
	C139	C	0.876772	0.859379	0.493169
	C140	C	0.506168	0.103109	0.880404
	C141	C	0.488471	0.103606	0.123308
	C142	C	0.506611	0.859791	0.123260
	C143	C	0.489219	0.859450	0.880426
	C144	C	0.377894	0.866913	0.679471
	C145	C	0.615894	0.096525	0.677404
	C146	C	0.617780	0.867545	0.324372
	C147	C	0.378478	0.096869	0.325291
	C148	C	0.675236	0.362570	0.886924
	C149	C	0.674275	0.599170	0.117230
	C150	C	0.324377	0.599409	0.885921
	C151	C	0.323525	0.363969	0.117038
	C152	C	0.883864	0.658769	0.381593
	C153	C	0.114023	0.657276	0.620152
	C154	C	0.883513	0.304419	0.622248
	C155	C	0.113901	0.303988	0.382712
	C156	C	0.883887	0.361704	0.679483
	C157	C	0.114886	0.598488	0.675853
	C158	C	0.883290	0.600182	0.325535
	C159	C	0.114808	0.363041	0.326442
	C160	C	0.379936	0.658188	0.886456
	C161	C	0.618611	0.658411	0.116611
	C162	C	0.618252	0.304419	0.887141
	C163	C	0.379809	0.305989	0.117277
	C164	C	0.675150	0.867518	0.382193
	C165	C	0.673698	0.096646	0.619663
	C166	C	0.320211	0.866977	0.621732
	C167	C	0.320637	0.096688	0.383456
	C168	C	0.879916	0.366620	0.179218
	C169	C	0.118146	0.596832	0.178128
	C170	C	0.118751	0.366384	0.825437
	C171	C	0.881025	0.596306	0.824587
	C172	C	0.174673	0.862433	0.387226
	C173	C	0.173172	0.099103	0.617446
	C174	C	0.822240	0.100159	0.386669
	C175	C	0.821529	0.862382	0.616984
	C176	C	0.382392	0.158644	0.882591
	C177	C	0.612993	0.157459	0.120816
	C178	C	0.383354	0.804143	0.121654
	C179	C	0.613492	0.805445	0.881885
	C180	C	0.382744	0.862557	0.178287
	C181	C	0.612769	0.099766	0.177134
	C182	C	0.381871	0.099674	0.826658
	C183	C	0.613102	0.863279	0.824891
	C184	C	0.877662	0.159110	0.387553
	C185	C	0.116836	0.157169	0.617242
	C186	C	0.118161	0.804581	0.387222
	C187	C	0.877798	0.803545	0.616824
	C188	C	0.175749	0.366567	0.883724
	C189	C	0.175182	0.596881	0.119458
	C190	C	0.822906	0.366384	0.120905
	C191	C	0.822614	0.596218	0.882234
	C192	C	0.396885	0.075840	0.602202
	C193	C	0.596929	0.887805	0.600941
	C194	C	0.597689	0.076016	0.400901
	C195	C	0.398050	0.888008	0.402644
	C196	C	0.598339	0.380083	0.097486
	C197	C	0.597798	0.581341	0.907059
	C198	C	0.399813	0.581633	0.096761
	C199	C	0.399699	0.381007	0.906272
	C200	C	0.094010	0.581517	0.402252
	C201	C	0.903809	0.580286	0.600739
	C202	C	0.094245	0.380244	0.600901
	C203	C	0.903935	0.382362	0.403553
	C204	C	0.898661	0.575826	0.101831
	C205	C	0.099059	0.387411	0.102733
	C206	C	0.099770	0.575965	0.900071
	C207	C	0.900330	0.387740	0.903131
	C208	C	0.096021	0.881225	0.597175
	C209	C	0.096173	0.080576	0.407437
	C210	C	0.897554	0.081138	0.597212
	C211	C	0.899361	0.881471	0.406933
	C212	C	0.592665	0.081424	0.902320
	C213	C	0.401941	0.082566	0.101502
	C214	C	0.593084	0.882285	0.100748
	C215	C	0.402538	0.880757	0.903432
	Zn216	Zn	0.497418	-0.018703	0.752716
	Zn217	Zn	0.497689	-0.017940	0.250927
	Zn218	Zn	0.748236	0.481112	0.001861
	Zn219	Zn	0.249857	0.481791	0.001435
	Zn220	Zn	-0.001376	0.731151	0.502079
	Zn221	Zn	-0.002135	0.230938	0.502411
	Zn222	Zn	-0.000164	0.480659	0.750370
	Zn223	Zn	-0.000934	0.481675	0.252560
	Zn224	Zn	0.498573	0.731925	0.001764
	Zn225	Zn	0.497812	0.231091	0.002119
	Zn226	Zn	0.748446	-0.018360	0.501384
	Zn227	Zn	0.246302	-0.018775	0.502221
	N228	N	0.411311	0.944341	0.681069
	N229	N	0.582820	0.018888	0.679652
	N230	N	0.584217	0.944799	0.322350
	N231	N	0.411918	0.019346	0.323131
	N232	N	0.676354	0.395763	0.964798
	N233	N	0.675441	0.565568	0.039521
	N234	N	0.322851	0.565959	0.963897
	N235	N	0.321969	0.396749	0.038942
	N236	N	0.961946	0.660737	0.414760
	N237	N	0.035477	0.659607	0.587693
	N238	N	0.961422	0.302668	0.588159
	N239	N	0.035405	0.301847	0.415707
	N240	N	0.962167	0.394399	0.680615
	N241	N	0.037071	0.564747	0.677331
	N242	N	0.961191	0.566342	0.324540
	N243	N	0.037074	0.397020	0.325287
	N244	N	0.412782	0.660283	0.964667
	N245	N	0.585748	0.661133	0.038496
	N246	N	0.585140	0.301700	0.965261
	N247	N	0.412718	0.303264	0.038905
	N248	N	0.676743	0.945046	0.415591
	N249	N	0.675717	0.019198	0.586525
	N250	N	0.318746	0.944317	0.587798
	N251	N	0.318768	0.018984	0.416815
	N252	N	0.912686	0.444376	0.181432
	N253	N	0.084854	0.519293	0.180712
	N254	N	0.085600	0.443960	0.822479
	N255	N	0.914357	0.518785	0.823005
	N256	N	0.175303	0.895812	0.465118
	N257	N	0.173986	0.065348	0.539716
	N258	N	0.821071	0.066122	0.464353
	N259	N	0.820592	0.896101	0.539232
	N260	N	0.460642	0.160931	0.915359
	N261	N	0.534693	0.160176	0.088020
	N262	N	0.461424	0.802376	0.088174
	N263	N	0.535487	0.803111	0.915785
	N264	N	0.460679	0.896120	0.179582
	N265	N	0.534579	0.066894	0.178758
	N266	N	0.459856	0.066134	0.824952
	N267	N	0.534822	0.896043	0.823987
	N268	N	0.910547	0.161030	0.465753
	N269	N	0.083405	0.159211	0.539330
	N270	N	0.084424	0.802629	0.465265
	N271	N	0.911584	0.801671	0.538756
	N272	N	0.177566	0.444336	0.916348
	N273	N	0.176674	0.519284	0.086182
	N274	N	0.820835	0.444044	0.087386
	N275	N	0.820606	0.518808	0.916072
	O276	O	0.885824	0.998631	0.060668
	H277	H	0.881838	0.995296	0.046551
	H278	H	0.877787	0.994343	0.060597
	O279	O	-0.056872	-0.000469	-0.022639
	H280	H	-0.048488	-0.004807	-0.028064
	H281	H	-0.063195	0.006873	-0.018401
	O282	O	-0.053105	-0.039152	0.959654
	H283	H	-0.057538	-0.038664	0.959355
	H284	H	-0.050834	-0.054751	0.958902
	O285	O	1.545338	1.509822	0.502795
	H286	H	1.549942	1.513568	0.502283
	H287	H	1.544317	1.508039	0.496440
	O288	O	-0.053396	0.965054	0.044805
	H289	H	-0.060928	0.973900	0.049290
	H290	H	-0.064500	0.966450	0.046517
	O291	O	0.505526	0.527214	0.503371
	H292	H	0.511659	0.538976	0.501465
	H293	H	0.505604	0.531957	0.505954
	O294	O	-0.024905	0.022924	0.012439
	H295	H	-0.034387	0.030816	0.002320
	H296	H	-0.020806	0.026101	0.016619
	O297	O	-0.022219	1.002763	1.028272
	H298	H	-0.018834	1.007072	1.026949
	H299	H	-0.022016	1.000956	1.029746
	O300	O	-0.032820	0.945473	1.022363
	H301	H	-0.031512	0.957294	1.011862
	H302	H	-0.032739	0.946228	1.016754
	O303	O	0.572675	0.500557	0.516599
	H304	H	0.562765	0.516980	0.513185
	H305	H	0.570130	0.507432	0.513801
	O306	O	-0.005951	-0.010305	1.003503
	H307	H	0.001934	-0.011342	1.004911
	H308	H	-0.007541	-0.014927	1.011194
	O309	O	0.957011	0.977610	1.038934
	H310	H	0.957005	0.968549	1.051173
	H311	H	0.948868	0.971138	1.040018
	O312	O	0.571486	0.553766	0.493773
	H313	H	0.578333	0.556417	0.491185
	H314	H	0.584170	0.544947	0.497941
	O315	O	0.569889	0.515785	0.504532
	H316	H	0.557503	0.519539	0.498270
	H317	H	0.579595	0.502596	0.507182
	O318	O	0.584320	1.507792	-0.492470
	H319	H	0.582686	1.501515	-0.487530
	H320	H	0.581248	1.500026	-0.490476
	O321	O	0.971673	0.988275	-0.003642
	H322	H	0.967910	0.985605	0.000279
	H323	H	0.972162	0.992119	0.000763
