data_Molecule from HDF5

_cell_length_a		15.998464
_cell_length_b		16.390842
_cell_length_c		16.340182
_cell_angle_alpha	90.386267
_cell_angle_beta	90.465173
_cell_angle_gamma	90.022430
_symmetry_space_group_name_H-M	'P 1'
_symmetry_Int_Tables_number		1

loop_
	_symmetry_equiv_pos_as_xyz
	x,y,z

loop_
	_atom_site_label
	_atom_site_type_symbol
	_atom_site_fract_x
	_atom_site_fract_y
	_atom_site_fract_z
	H0	H	0.392324	0.838631	0.709551
	H1	H	0.596005	0.163137	0.716001
	H2	H	0.594526	0.839746	0.278181
	H3	H	0.388571	0.161865	0.277255
	H4	H	0.702719	0.402008	0.831405
	H5	H	0.704304	0.597817	0.159134
	H6	H	0.276638	0.594921	0.830692
	H7	H	0.280363	0.407828	0.161063
	H8	H	0.826590	0.715172	0.393146
	H9	H	0.157676	0.716834	0.596940
	H10	H	0.827444	0.286244	0.592579
	H11	H	0.157332	0.287022	0.393670
	H12	H	0.826192	0.403001	0.705762
	H13	H	0.156890	0.603156	0.712443
	H14	H	0.826312	0.600205	0.280839
	H15	H	0.157004	0.403085	0.282469
	H16	H	0.384866	0.718520	0.833134
	H17	H	0.594301	0.719881	0.156678
	H18	H	0.591616	0.280623	0.834159
	H19	H	0.388951	0.283807	0.157897
	H20	H	0.705063	0.838067	0.400341
	H21	H	0.706594	0.165666	0.593981
	H22	H	0.279704	0.837599	0.588458
	H23	H	0.278762	0.165030	0.398666
	H24	H	0.890194	0.339869	0.210330
	H25	H	0.093496	0.663160	0.214093
	H26	H	0.092337	0.340952	0.776813
	H27	H	0.887105	0.663526	0.777296
	H28	H	0.203328	0.905805	0.329833
	H29	H	0.206056	0.099071	0.658236
	H30	H	0.777294	0.096888	0.330752
	H31	H	0.782650	0.909447	0.660212
	H32	H	0.324842	0.211257	0.896609
	H33	H	0.656051	0.217332	0.099168
	H34	H	0.324540	0.789298	0.091613
	H35	H	0.657230	0.785106	0.896568
	H36	H	0.325823	0.902739	0.207799
	H37	H	0.657954	0.098521	0.209775
	H38	H	0.327222	0.098940	0.779936
	H39	H	0.658796	0.900928	0.783107
	H40	H	0.889701	0.217525	0.331371
	H41	H	0.097650	0.221995	0.654569
	H42	H	0.093166	0.782544	0.332569
	H43	H	0.889739	0.784158	0.656755
	H44	H	0.201365	0.337174	0.900269
	H45	H	0.204032	0.665482	0.092364
	H46	H	0.779092	0.337920	0.088397
	H47	H	0.775287	0.665255	0.899193
	H48	H	0.404422	0.116466	0.591354
	H49	H	0.583762	0.887809	0.586008
	H50	H	0.582299	0.118183	0.398671
	H51	H	0.397003	0.884329	0.398126
	H52	H	0.592043	0.402881	0.116024
	H53	H	0.578466	0.592059	0.880054
	H54	H	0.391046	0.596670	0.114117
	H55	H	0.404826	0.402442	0.881567
	H56	H	0.116997	0.597575	0.390937
	H57	H	0.876164	0.593193	0.578208
	H58	H	0.111155	0.411635	0.587225
	H59	H	0.869614	0.396787	0.404010
	H60	H	0.111504	0.411102	0.586277
	H61	H	0.873574	0.588833	0.590095
	H62	H	0.110382	0.603288	0.416295
	H63	H	0.878417	0.416742	0.411571
	H64	H	0.403747	0.589220	0.107668
	H65	H	0.579121	0.595518	0.878893
	H66	H	0.584083	0.418222	0.107605
	H67	H	0.391243	0.398794	0.876634
	H68	H	0.579695	0.116014	0.404515
	H69	H	0.591255	0.884701	0.589373
	H70	H	0.401359	0.116587	0.586958
	H71	H	0.401427	0.885563	0.398846
	H72	H	0.910471	0.614735	0.091871
	H73	H	0.080064	0.388968	0.084148
	H74	H	0.080456	0.617070	0.903953
	H75	H	0.892753	0.384393	0.898321
	H76	H	0.084364	0.908927	0.610297
	H77	H	0.084074	0.087877	0.379116
	H78	H	0.908383	0.094748	0.608071
	H79	H	0.888601	0.900237	0.374470
	H80	H	0.612414	0.093728	0.902542
	H81	H	0.369088	0.092723	0.097055
	H82	H	0.612086	0.897709	0.084080
	H83	H	0.370240	0.910851	0.888469
	H84	H	0.604442	0.917275	0.079612
	H85	H	0.371578	0.101534	0.082212
	H86	H	0.610281	0.096293	0.910367
	H87	H	0.371523	0.896734	0.906828
	H88	H	0.902991	0.104433	0.612074
	H89	H	0.076706	0.101591	0.378064
	H90	H	0.084110	0.906975	0.610594
	H91	H	0.898878	0.918776	0.382195
	H92	H	0.085161	0.617906	0.904210
	H93	H	0.093772	0.382353	0.090584
	H94	H	0.894216	0.616284	0.080544
	H95	H	0.901187	0.386157	0.893717
	H96	H	0.399461	0.117797	0.591564
	H97	H	0.584159	0.885257	0.594495
	H98	H	0.586684	0.117508	0.404258
	H99	H	0.399214	0.885661	0.402321
	H100	H	0.573156	0.402456	0.109767
	H101	H	0.581878	0.592924	0.878203
	H102	H	0.404679	0.604234	0.111643
	H103	H	0.394386	0.412578	0.880601
	H104	H	0.105263	0.578968	0.406686
	H105	H	0.870676	0.600447	0.587327
	H106	H	0.109433	0.412342	0.585914
	H107	H	0.870708	0.414412	0.390195
	H108	H	0.893648	0.622787	0.099008
	H109	H	0.080346	0.383312	0.098772
	H110	H	0.081926	0.618329	0.900354
	H111	H	0.899757	0.388409	0.903250
	H112	H	0.085539	0.907926	0.611365
	H113	H	0.091752	0.099641	0.374153
	H114	H	0.897259	0.094217	0.610840
	H115	H	0.910947	0.900217	0.380478
	H116	H	0.609215	0.088222	0.907648
	H117	H	0.375967	0.084571	0.083170
	H118	H	0.613090	0.912780	0.099425
	H119	H	0.379139	0.919058	0.908210
	C120	C	0.371611	0.009420	0.616992
	C121	C	0.615851	0.993414	0.619322
	C122	C	0.612979	0.009685	0.374083
	C123	C	0.369700	0.992716	0.372203
	C124	C	0.612085	0.378256	0.003722
	C125	C	0.611052	0.622612	0.986662
	C126	C	0.368617	0.623828	0.003452
	C127	C	0.368682	0.378014	0.987878
	C128	C	0.000789	0.621624	0.374866
	C129	C	0.982916	0.623278	0.615975
	C130	C	0.001143	0.381977	0.614473
	C131	C	0.982797	0.380564	0.373316
	C132	C	0.870125	0.510339	0.116844
	C133	C	0.113895	0.492725	0.119039
	C134	C	0.111641	0.510313	0.873959
	C135	C	0.867939	0.493610	0.871089
	C136	C	0.113388	0.879439	0.502733
	C137	C	0.114246	0.124652	0.485108
	C138	C	0.871594	0.124604	0.502605
	C139	C	0.870610	0.879208	0.486711
	C140	C	0.500784	0.120794	0.876491
	C141	C	0.482066	0.122213	0.117791
	C142	C	0.500141	0.880540	0.115697
	C143	C	0.483471	0.879754	0.873548
	C144	C	0.372842	0.887269	0.671406
	C145	C	0.615380	0.115080	0.676851
	C146	C	0.613271	0.887832	0.317296
	C147	C	0.369912	0.114109	0.316247
	C148	C	0.665988	0.380973	0.880762
	C149	C	0.667259	0.619532	0.109822
	C150	C	0.313024	0.617891	0.880140
	C151	C	0.315829	0.384583	0.111439
	C152	C	0.876024	0.676972	0.375042
	C153	C	0.107954	0.679024	0.616177
	C154	C	0.876547	0.325092	0.612482
	C155	C	0.107626	0.325388	0.375069
	C156	C	0.875844	0.383057	0.668677
	C157	C	0.107534	0.622807	0.673863
	C158	C	0.875918	0.620226	0.318560
	C159	C	0.107575	0.382860	0.319509
	C160	C	0.367552	0.678889	0.881233
	C161	C	0.612483	0.680101	0.108600
	C162	C	0.610748	0.320400	0.882083
	C163	C	0.369960	0.323039	0.109862
	C164	C	0.668058	0.886918	0.378266
	C165	C	0.670137	0.116412	0.616005
	C166	C	0.316176	0.886737	0.611644
	C167	C	0.315085	0.115705	0.376534
	C168	C	0.871022	0.388042	0.171606
	C169	C	0.113107	0.614926	0.175225
	C170	C	0.111162	0.388732	0.816588
	C171	C	0.867957	0.615557	0.815930
	C172	C	0.166837	0.883618	0.379098
	C173	C	0.169486	0.121085	0.608696
	C174	C	0.815018	0.119360	0.379626
	C175	C	0.817925	0.885518	0.610534
	C176	C	0.375053	0.174480	0.876747
	C177	C	0.606715	0.178421	0.117876
	C178	C	0.374622	0.826256	0.112623
	C179	C	0.607963	0.823261	0.875998
	C180	C	0.374956	0.882935	0.169864
	C181	C	0.607596	0.119740	0.173246
	C182	C	0.376292	0.118667	0.818866
	C183	C	0.608723	0.880802	0.819680
	C184	C	0.870934	0.179080	0.379952
	C185	C	0.115669	0.182226	0.606739
	C186	C	0.112257	0.822432	0.380509
	C187	C	0.871501	0.823556	0.608726
	C188	C	0.165340	0.386758	0.878006
	C189	C	0.168270	0.615977	0.115044
	C190	C	0.815958	0.387036	0.110870
	C191	C	0.812313	0.616366	0.876283
	C192	C	0.394835	0.094835	0.595996
	C193	C	0.593064	0.908125	0.596690
	C194	C	0.589779	0.094945	0.395984
	C195	C	0.392329	0.907366	0.393588
	C196	C	0.589851	0.401168	0.089123
	C197	C	0.586897	0.600033	0.901284
	C198	C	0.392781	0.602897	0.089043
	C199	C	0.390366	0.398595	0.901806
	C200	C	0.088483	0.599484	0.397878
	C201	C	0.895961	0.600858	0.592260
	C202	C	0.088038	0.404917	0.592778
	C203	C	0.895263	0.402892	0.395445
	C204	C	0.892662	0.595654	0.096406
	C205	C	0.091385	0.407087	0.097430
	C206	C	0.089186	0.595718	0.896315
	C207	C	0.891002	0.408603	0.892169
	C208	C	0.091172	0.901501	0.588442
	C209	C	0.091064	0.102576	0.399272
	C210	C	0.895692	0.103979	0.588142
	C211	C	0.892746	0.900421	0.401030
	C212	C	0.588186	0.099204	0.900038
	C213	C	0.394836	0.099691	0.094192
	C214	C	0.587207	0.902681	0.094073
	C215	C	0.396209	0.902389	0.894869
	Zn216	Zn	0.493335	0.001245	0.747572
	Zn217	Zn	0.491590	0.000592	0.244226
	Zn218	Zn	0.740527	0.501439	-0.005228
	Zn219	Zn	0.240846	0.500981	-0.004449
	Zn220	Zn	-0.008096	0.749527	0.494623
	Zn221	Zn	-0.007307	0.254247	0.493375
	Zn222	Zn	-0.008830	0.502591	0.743087
	Zn223	Zn	-0.008533	0.501209	0.247596
	Zn224	Zn	0.490584	0.752768	-0.005550
	Zn225	Zn	0.490421	0.249143	-0.003787
	Zn226	Zn	0.742700	0.002555	0.495683
	Zn227	Zn	0.241937	0.002143	0.494637
	N228	N	0.406404	0.964619	0.674936
	N229	N	0.582366	0.037551	0.679027
	N230	N	0.579779	0.965184	0.314737
	N231	N	0.403180	0.036571	0.313381
	N232	N	0.666966	0.416139	0.957335
	N233	N	0.666362	0.584468	0.033047
	N234	N	0.313726	0.584237	0.957055
	N235	N	0.315059	0.418169	0.034388
	N236	N	0.954771	0.677952	0.409445
	N237	N	0.029691	0.679099	0.580554
	N238	N	0.955459	0.324191	0.579593
	N239	N	0.028838	0.324157	0.408029
	N240	N	0.954174	0.417757	0.670179
	N241	N	0.028833	0.588683	0.673737
	N242	N	0.954553	0.586374	0.318599
	N243	N	0.028785	0.416564	0.318433
	N244	N	0.401192	0.682728	0.958995
	N245	N	0.578144	0.682014	0.031118
	N246	N	0.577840	0.318752	0.959716
	N247	N	0.401836	0.318826	0.031991
	N248	N	0.667862	0.963639	0.412980
	N249	N	0.670647	0.039816	0.581110
	N250	N	0.315443	0.963670	0.578564
	N251	N	0.314994	0.039333	0.410803
	N252	N	0.904140	0.465554	0.175504
	N253	N	0.080032	0.537366	0.177961
	N254	N	0.078574	0.466551	0.814011
	N255	N	0.901388	0.538210	0.812205
	N256	N	0.167750	0.918270	0.456082
	N257	N	0.168707	0.085839	0.531906
	N258	N	0.815307	0.086336	0.456904
	N259	N	0.817299	0.919469	0.533808
	N260	N	0.453462	0.175876	0.912008
	N261	N	0.527607	0.180197	0.084087
	N262	N	0.453581	0.824538	0.079644
	N263	N	0.528994	0.822308	0.908653
	N264	N	0.454050	0.915610	0.172228
	N265	N	0.529122	0.085450	0.173154
	N266	N	0.455441	0.085913	0.818650
	N267	N	0.530219	0.914943	0.817832
	N268	N	0.905645	0.182302	0.457398
	N269	N	0.082212	0.184616	0.528991
	N270	N	0.079967	0.819602	0.458392
	N271	N	0.903441	0.819439	0.530634
	N272	N	0.165594	0.463200	0.913010
	N273	N	0.168930	0.539077	0.080796
	N274	N	0.815322	0.463823	0.077530
	N275	N	0.812177	0.539617	0.909920
	O276	O	0.498803	0.429471	0.437767
	H277	H	0.510834	0.429592	0.444841
	H278	H	0.498092	0.420936	0.432226
	O279	O	0.505075	0.556255	0.529726
	H280	H	0.514591	0.559748	0.536829
	H281	H	0.506801	0.560263	0.539679
	O282	O	0.550386	0.425897	0.432287
	H283	H	0.552169	0.440372	0.435251
	H284	H	0.551778	0.424757	0.436175
	O285	O	0.527851	0.416170	1.525585
	H286	H	0.515785	0.412726	1.527003
	H287	H	0.516248	0.418736	1.531962
	O288	O	0.592938	0.482572	0.597641
	H289	H	0.585199	0.492379	0.610765
	H290	H	0.596067	0.487258	0.597520
	O291	O	-0.081440	0.018782	0.900790
	H292	H	-0.072421	0.013169	0.890590
	H293	H	-0.085203	0.014649	0.899153
	O294	O	1.002029	0.974010	0.899563
	H295	H	1.002354	0.971948	0.898550
	H296	H	0.998925	0.981609	0.903413
	O297	O	0.413811	0.525175	0.540089
	H298	H	0.404055	0.522409	0.537574
	H299	H	0.412620	0.519022	0.537352
	O300	O	0.555882	0.576832	0.525503
	H301	H	0.558183	0.576626	0.516641
	H302	H	0.560731	0.573866	0.538071
	O303	O	0.543777	0.513568	0.460560
	H304	H	0.542097	0.509109	0.466810
	H305	H	0.545572	0.512423	0.455283
	O306	O	1.423471	0.520505	0.428765
	H307	H	1.433682	0.519000	0.432217
	H308	H	1.426555	0.525880	0.421664
	O309	O	0.523321	0.589764	0.540184
	H310	H	0.529398	0.598144	0.540644
	H311	H	0.515741	0.584455	0.529452
	O312	O	0.503965	0.511598	0.542172
	H313	H	0.502667	0.501861	0.541680
	H314	H	0.496055	0.512495	0.528014
	O315	O	0.931412	0.031249	0.895760
	H316	H	0.938667	0.038624	0.894238
	H317	H	0.928432	0.022724	0.891702
	O318	O	-0.536382	-0.527321	0.489489
	H319	H	-0.543294	-0.535511	0.485776
	H320	H	-0.533911	-0.536211	0.477241
	O321	O	0.446018	0.512327	0.486216
	H322	H	0.449513	0.529124	0.482694
	H323	H	0.447296	0.512666	0.484290
	O324	O	0.970627	0.043087	-0.153180
	H325	H	0.966281	0.046037	-0.144811
	H326	H	0.976205	0.044637	-0.159001
	O327	O	0.972636	1.024314	-0.082783
	H328	H	0.965930	1.025953	-0.091164
	H329	H	0.967658	1.030593	-0.082444
	O330	O	0.543833	0.455215	0.548175
	H331	H	0.548159	0.458451	0.547621
	H332	H	0.541726	0.456854	0.551470
	O333	O	0.447767	0.575488	0.444633
	H334	H	0.454255	0.578420	0.449995
	H335	H	0.447600	0.585505	0.433998
