data_Molecule from HDF5

_cell_length_a		16.442095
_cell_length_b		16.487214
_cell_length_c		16.523790
_cell_angle_alpha	90.044684
_cell_angle_beta	90.190320
_cell_angle_gamma	90.030843
_symmetry_space_group_name_H-M	'P 1'
_symmetry_Int_Tables_number		1

loop_
	_symmetry_equiv_pos_as_xyz
	x,y,z

loop_
	_atom_site_label
	_atom_site_type_symbol
	_atom_site_fract_x
	_atom_site_fract_y
	_atom_site_fract_z
	H0	H	0.396278	0.842962	0.745182
	H1	H	0.601333	0.160275	0.743630
	H2	H	0.608442	0.844666	0.298351
	H3	H	0.388378	0.156048	0.300517
	H4	H	0.721652	0.393655	0.871515
	H5	H	0.722790	0.609905	0.183306
	H6	H	0.275759	0.604546	0.869257
	H7	H	0.274858	0.394269	0.183948
	H8	H	0.839158	0.723229	0.419256
	H9	H	0.153993	0.724954	0.634597
	H10	H	0.841387	0.276800	0.632037
	H11	H	0.154906	0.278222	0.419525
	H12	H	0.839581	0.395004	0.745992
	H13	H	0.153685	0.607640	0.750886
	H14	H	0.840724	0.610805	0.300840
	H15	H	0.154001	0.393300	0.302848
	H16	H	0.392838	0.720243	0.868544
	H17	H	0.608720	0.728006	0.181717
	H18	H	0.603556	0.279069	0.869978
	H19	H	0.388732	0.275677	0.182344
	H20	H	0.722495	0.844054	0.416364
	H21	H	0.718414	0.159222	0.628331
	H22	H	0.278620	0.841899	0.628369
	H23	H	0.272697	0.156144	0.417115
	H24	H	0.889115	0.345241	0.252308
	H25	H	0.105732	0.658434	0.250902
	H26	H	0.105207	0.344798	0.802422
	H27	H	0.890152	0.655768	0.803904
	H28	H	0.220198	0.892535	0.367519
	H29	H	0.216214	0.100420	0.683786
	H30	H	0.774914	0.109117	0.367502
	H31	H	0.779315	0.899123	0.682591
	H32	H	0.338188	0.220085	0.921234
	H33	H	0.653912	0.224879	0.134282
	H34	H	0.340416	0.776145	0.133983
	H35	H	0.654244	0.779376	0.920469
	H36	H	0.340728	0.891271	0.249839
	H37	H	0.653142	0.110922	0.251798
	H38	H	0.339157	0.104900	0.804122
	H39	H	0.655858	0.898215	0.806562
	H40	H	0.891589	0.225447	0.368746
	H41	H	0.103017	0.220694	0.683200
	H42	H	0.104128	0.775883	0.368128
	H43	H	0.895830	0.783875	0.682484
	H44	H	0.219274	0.343619	0.921374
	H45	H	0.220695	0.658126	0.133457
	H46	H	0.774082	0.343894	0.135569
	H47	H	0.775793	0.656562	0.921911
	H48	H	0.410236	0.112754	0.614695
	H49	H	0.591362	0.885806	0.622025
	H50	H	0.581011	0.111629	0.432599
	H51	H	0.414707	0.889004	0.434771
	H52	H	0.584892	0.419301	0.136251
	H53	H	0.589446	0.587076	0.914553
	H54	H	0.411498	0.588436	0.137864
	H55	H	0.397924	0.416869	0.912552
	H56	H	0.109496	0.590278	0.438008
	H57	H	0.886761	0.587535	0.610980
	H58	H	0.111507	0.409117	0.613954
	H59	H	0.884523	0.415470	0.435045
	H60	H	0.109192	0.415851	0.613989
	H61	H	0.882916	0.589006	0.622035
	H62	H	0.107946	0.588860	0.443048
	H63	H	0.886069	0.409803	0.442939
	H64	H	0.409830	0.590315	0.139489
	H65	H	0.582216	0.586095	0.917220
	H66	H	0.578507	0.409997	0.137545
	H67	H	0.415710	0.414837	0.918609
	H68	H	0.582305	0.108840	0.442712
	H69	H	0.582670	0.889608	0.614780
	H70	H	0.406832	0.113296	0.612013
	H71	H	0.410807	0.890417	0.441287
	H72	H	0.912168	0.612045	0.114038
	H73	H	0.081003	0.390499	0.117523
	H74	H	0.080287	0.611373	0.937737
	H75	H	0.908282	0.385707	0.936280
	H76	H	0.084774	0.909987	0.636256
	H77	H	0.082027	0.088075	0.414152
	H78	H	0.906471	0.085949	0.637271
	H79	H	0.908218	0.917558	0.412801
	H80	H	0.608004	0.084210	0.937758
	H81	H	0.388517	0.083724	0.108169
	H82	H	0.607732	0.912872	0.108699
	H83	H	0.383192	0.911965	0.933606
	H84	H	0.607109	0.918600	0.111584
	H85	H	0.384831	0.084247	0.113886
	H86	H	0.614735	0.093032	0.926664
	H87	H	0.382074	0.910729	0.934223
	H88	H	0.914643	0.089706	0.634774
	H89	H	0.085535	0.092600	0.411852
	H90	H	0.089814	0.909974	0.638581
	H91	H	0.915737	0.910945	0.412972
	H92	H	0.087718	0.612154	0.943357
	H93	H	0.086397	0.390398	0.111285
	H94	H	0.910984	0.611963	0.113414
	H95	H	0.911399	0.387489	0.936600
	H96	H	0.406320	0.115578	0.616127
	H97	H	0.593758	0.887740	0.610336
	H98	H	0.590249	0.113197	0.437545
	H99	H	0.407084	0.886691	0.435260
	H100	H	0.588913	0.410006	0.141385
	H101	H	0.584876	0.592868	0.915401
	H102	H	0.409092	0.587760	0.138875
	H103	H	0.406498	0.400447	0.910685
	H104	H	0.107717	0.585076	0.438973
	H105	H	0.882958	0.598029	0.614117
	H106	H	0.111911	0.412825	0.620222
	H107	H	0.889577	0.418819	0.442835
	H108	H	0.911154	0.612256	0.114860
	H109	H	0.087644	0.386634	0.118683
	H110	H	0.088041	0.615535	0.934377
	H111	H	0.909188	0.387727	0.939415
	H112	H	0.088241	0.914734	0.636206
	H113	H	0.088359	0.086731	0.412760
	H114	H	0.908092	0.095031	0.639209
	H115	H	0.906636	0.908386	0.409220
	H116	H	0.611895	0.098917	0.940805
	H117	H	0.385671	0.089534	0.110224
	H118	H	0.609706	0.913872	0.114409
	H119	H	0.383880	0.911648	0.935419
	C120	C	0.376896	0.009136	0.646017
	C121	C	0.620224	0.992593	0.646761
	C122	C	0.619223	0.008349	0.403318
	C123	C	0.376569	0.991649	0.403647
	C124	C	0.618042	0.379941	0.035254
	C125	C	0.619774	0.623016	1.018665
	C126	C	0.376636	0.621358	0.034973
	C127	C	0.374474	0.378333	1.017839
	C128	C	0.004791	0.621800	0.405840
	C129	C	0.988317	0.623473	0.648764
	C130	C	0.006514	0.379584	0.647636
	C131	C	0.989961	0.380811	0.406302
	C132	C	0.876697	0.509346	0.148588
	C133	C	0.118898	0.492892	0.148912
	C134	C	0.118359	0.509246	0.905595
	C135	C	0.876544	0.491186	0.905708
	C136	C	0.120165	0.877625	0.533389
	C137	C	0.118409	0.121094	0.516698
	C138	C	0.876655	0.123208	0.533303
	C139	C	0.877430	0.880802	0.515789
	C140	C	0.506459	0.123381	0.903223
	C141	C	0.488934	0.121306	0.146316
	C142	C	0.505288	0.879930	0.146445
	C143	C	0.488323	0.880060	0.903827
	C144	C	0.376193	0.889999	0.705320
	C145	C	0.620792	0.112031	0.705047
	C146	C	0.624916	0.891538	0.340014
	C147	C	0.371478	0.109263	0.341500
	C148	C	0.680391	0.376082	0.918053
	C149	C	0.682299	0.627402	0.136019
	C150	C	0.316182	0.622982	0.916365
	C151	C	0.314154	0.375350	0.136138
	C152	C	0.886467	0.682976	0.401829
	C153	C	0.106584	0.684450	0.652041
	C154	C	0.888065	0.318443	0.649728
	C155	C	0.107826	0.318938	0.402191
	C156	C	0.887283	0.377199	0.706465
	C157	C	0.106541	0.626447	0.710146
	C158	C	0.887288	0.626688	0.342880
	C159	C	0.107371	0.376395	0.344163
	C160	C	0.374187	0.680754	0.916106
	C161	C	0.625125	0.686158	0.135310
	C162	C	0.621560	0.319196	0.917226
	C163	C	0.371211	0.316653	0.135570
	C164	C	0.682089	0.891354	0.398677
	C165	C	0.678812	0.111886	0.647152
	C166	C	0.318165	0.889495	0.647212
	C167	C	0.313714	0.109126	0.399342
	C168	C	0.871834	0.391833	0.211372
	C169	C	0.123271	0.611065	0.210452
	C170	C	0.122506	0.391513	0.843641
	C171	C	0.872543	0.608919	0.844584
	C172	C	0.180236	0.874682	0.414830
	C173	C	0.177424	0.121152	0.636165
	C174	C	0.815422	0.126564	0.415043
	C175	C	0.818974	0.880370	0.634985
	C176	C	0.386416	0.181425	0.902003
	C177	C	0.606705	0.184127	0.151575
	C178	C	0.387640	0.817069	0.151077
	C179	C	0.607154	0.819855	0.902520
	C180	C	0.387856	0.874437	0.209153
	C181	C	0.606183	0.127347	0.210345
	C182	C	0.386932	0.124037	0.843740
	C183	C	0.607899	0.878766	0.845602
	C184	C	0.873075	0.184825	0.415537
	C185	C	0.121144	0.180646	0.635893
	C186	C	0.122299	0.816627	0.415138
	C187	C	0.876563	0.822756	0.635147
	C188	C	0.179158	0.390996	0.902818
	C189	C	0.180297	0.611114	0.151811
	C190	C	0.814544	0.391441	0.153191
	C191	C	0.816013	0.609575	0.903490
	C192	C	0.400889	0.092170	0.621329
	C193	C	0.596001	0.909355	0.622648
	C194	C	0.592177	0.089879	0.429982
	C195	C	0.403123	0.910158	0.429761
	C196	C	0.591624	0.405774	0.117080
	C197	C	0.593018	0.596423	0.937016
	C198	C	0.402654	0.596074	0.116990
	C199	C	0.399632	0.403624	0.935454
	C200	C	0.086892	0.595421	0.432409
	C201	C	0.905640	0.598353	0.623003
	C202	C	0.089256	0.405176	0.622979
	C203	C	0.908039	0.407279	0.432837
	C204	C	0.903602	0.590667	0.121858
	C205	C	0.092560	0.410829	0.123196
	C206	C	0.092594	0.591564	0.931234
	C207	C	0.902167	0.408584	0.930567
	C208	C	0.095070	0.903852	0.615524
	C209	C	0.092785	0.096510	0.434538
	C210	C	0.902380	0.097599	0.615505
	C211	C	0.902741	0.905299	0.433214
	C212	C	0.589744	0.099089	0.928065
	C213	C	0.407570	0.093660	0.118668
	C214	C	0.586919	0.907326	0.119427
	C215	C	0.404688	0.904559	0.927565
	Zn216	Zn	0.497872	0.001376	0.775033
	Zn217	Zn	0.497250	0.000202	0.274531
	Zn218	Zn	0.748156	0.500248	0.027481
	Zn219	Zn	0.246848	0.501066	0.027245
	Zn220	Zn	-0.002918	0.750660	0.525221
	Zn221	Zn	-0.001669	0.251155	0.525756
	Zn222	Zn	-0.002485	0.500300	0.776556
	Zn223	Zn	-0.002349	0.501443	0.277150
	Zn224	Zn	0.497073	0.751378	0.025750
	Zn225	Zn	0.496885	0.250485	0.026082
	Zn226	Zn	0.748525	0.001421	0.524417
	Zn227	Zn	0.247931	0.000069	0.524762
	N228	N	0.411822	0.965334	0.704758
	N229	N	0.585151	0.036708	0.704884
	N230	N	0.586430	0.965417	0.342630
	N231	N	0.409810	0.035361	0.343929
	N232	N	0.678309	0.413042	0.992499
	N233	N	0.679396	0.589075	0.062275
	N234	N	0.317314	0.587095	0.991377
	N235	N	0.315835	0.412711	0.061890
	N236	N	0.960615	0.679822	0.440347
	N237	N	0.032043	0.682626	0.614564
	N238	N	0.963432	0.319467	0.614071
	N239	N	0.033696	0.321601	0.439961
	N240	N	0.962049	0.414458	0.705310
	N241	N	0.031981	0.589035	0.708181
	N242	N	0.961880	0.589192	0.345358
	N243	N	0.032967	0.414144	0.346483
	N244	N	0.410765	0.680232	0.990992
	N245	N	0.587075	0.683849	0.061135
	N246	N	0.583689	0.321160	0.991177
	N247	N	0.407714	0.318030	0.060797
	N248	N	0.678649	0.965128	0.437255
	N249	N	0.678684	0.036525	0.611705
	N250	N	0.318574	0.964465	0.611060
	N251	N	0.316405	0.034962	0.437056
	N252	N	0.909694	0.466070	0.208721
	N253	N	0.086202	0.536233	0.209086
	N254	N	0.085284	0.466044	0.845466
	N255	N	0.909246	0.534175	0.845591
	N256	N	0.179128	0.911708	0.489444
	N257	N	0.176343	0.085146	0.561186
	N258	N	0.817363	0.089287	0.489495
	N259	N	0.819189	0.915394	0.559700
	N260	N	0.461836	0.181346	0.938110
	N261	N	0.532999	0.180311	0.112349
	N262	N	0.461792	0.820134	0.112982
	N263	N	0.531726	0.820492	0.938127
	N264	N	0.462151	0.912570	0.206366
	N265	N	0.531883	0.089040	0.207366
	N266	N	0.462790	0.088980	0.844070
	N267	N	0.532968	0.915472	0.846447
	N268	N	0.910372	0.182791	0.489992
	N269	N	0.085272	0.180727	0.560622
	N270	N	0.086032	0.818095	0.489979
	N271	N	0.912182	0.822818	0.560013
	N272	N	0.176499	0.465028	0.940817
	N273	N	0.177940	0.536619	0.114573
	N274	N	0.817332	0.465427	0.114915
	N275	N	0.818438	0.535305	0.940865
	O276	O	-0.148095	0.190778	-0.161469
	H277	H	-0.102731	0.198419	-0.168363
	H278	H	-0.144513	0.190506	-0.124818
	O279	O	1.284163	1.239734	0.380375
	H280	H	1.281640	1.239132	0.377149
	H281	H	1.284472	1.224849	0.381882
	O282	O	-0.046088	0.204367	0.173458
	H283	H	-0.059108	0.214482	0.168269
	H284	H	-0.036801	0.196393	0.172665
	O285	O	0.354002	0.516635	0.468597
	H286	H	0.362978	0.523993	0.478158
	H287	H	0.353165	0.505184	0.479502
	O288	O	-0.049230	-0.121603	0.002245
	H289	H	-0.036838	-0.120555	0.019742
	H290	H	-0.062737	-0.111523	-0.019059
	O291	O	0.846730	0.783048	0.027827
	H292	H	0.827612	0.771650	0.043142
	H293	H	0.852274	0.784960	0.047103
	O294	O	0.012928	0.791530	-0.178085
	H295	H	0.024473	0.805724	-0.182983
	H296	H	0.034916	0.775837	-0.194686
	O297	O	0.699289	0.706826	0.730674
	H298	H	0.697124	0.704908	0.715315
	H299	H	0.722829	0.710809	0.748814
	O300	O	0.365757	0.298732	0.596924
	H301	H	0.349475	0.286877	0.610117
	H302	H	0.358367	0.301996	0.608538
	O303	O	0.584555	0.695237	0.443684
	H304	H	0.580836	0.702135	0.439759
	H305	H	0.566402	0.688097	0.449068
	O306	O	-0.542293	1.342417	1.625684
	H307	H	-0.546469	1.358959	1.637918
	H308	H	-0.550706	1.339474	1.623032
	O309	O	0.980683	1.075714	0.198519
	H310	H	0.981954	1.079603	0.189795
	H311	H	0.959889	1.064999	0.196639
	O312	O	0.083708	1.035742	-0.176152
	H313	H	0.079738	1.016226	-0.180096
	H314	H	0.075435	1.047359	-0.159878
	O315	O	-0.191173	0.017726	0.808018
	H316	H	-0.224605	0.028994	0.787814
	H317	H	-0.186600	0.055183	0.821782
	O318	O	0.544444	0.545135	0.574303
	H319	H	0.543722	0.539181	0.579353
	H320	H	0.548447	0.531106	0.577622
	O321	O	0.499632	0.680033	0.548822
	H322	H	0.489602	0.689236	0.536030
	H323	H	0.515271	0.682094	0.559959
	O324	O	0.823805	1.041079	0.183407
	H325	H	0.824118	1.054974	0.181910
	H326	H	0.829716	1.029783	0.158138
	O327	O	1.155992	0.001395	1.142552
	H328	H	1.146547	-0.016511	1.145006
	H329	H	1.157368	0.011352	1.152011
	O330	O	0.463675	0.421193	-0.480973
	H331	H	0.477256	0.424146	-0.486839
	H332	H	0.458701	0.425834	-0.474241
	O333	O	1.212537	1.218864	1.053695
	H334	H	1.195713	1.219045	1.080321
	H335	H	1.243712	1.253671	1.061164
	O336	O	0.319879	-0.318475	0.347346
	H337	H	0.340431	-0.315670	0.354532
	H338	H	0.343992	-0.337609	0.338330
	O339	O	0.464604	0.587892	0.736356
	H340	H	0.477046	0.592458	0.745764
	H341	H	0.469229	0.578501	0.742059
	O342	O	0.945077	-0.176785	0.215451
	H343	H	0.957575	-0.184899	0.200466
	H344	H	0.966689	-0.181951	0.223592
	O345	O	0.346478	0.693488	0.673187
	H346	H	0.344751	0.679779	0.658360
	H347	H	0.362351	0.681669	0.670802
	O348	O	1.661407	-0.507287	1.528726
	H349	H	1.659565	-0.504099	1.522659
	H350	H	1.667158	-0.496143	1.537949
	O351	O	1.181071	1.101588	-0.095469
	H352	H	1.179748	1.099834	-0.075868
	H353	H	1.172132	1.102663	-0.080422
	O354	O	0.681364	0.529318	0.734953
	H355	H	0.697731	0.526370	0.758796
	H356	H	0.668741	0.537875	0.728381
	O357	O	1.025653	1.222039	1.006178
	H358	H	1.024456	1.220145	0.995315
	H359	H	1.012287	1.214420	1.022757
	O360	O	0.628032	0.447819	0.515466
	H361	H	0.634227	0.442973	0.526332
	H362	H	0.626930	0.432576	0.498638
	O363	O	0.969251	-0.060861	0.109586
	H364	H	0.983639	-0.060584	0.116796
	H365	H	0.964922	-0.073019	0.109539
	O366	O	1.477404	-0.282989	1.306927
	H367	H	1.501227	-0.304314	1.311357
	H368	H	1.479687	-0.250044	1.275428
	O369	O	0.278279	0.714629	-0.497050
	H370	H	0.248640	0.749245	-0.501064
	H371	H	0.293637	0.699687	-0.523586
	O372	O	0.355333	0.311148	0.720337
	H373	H	0.347142	0.340336	0.720049
	H374	H	0.386737	0.300430	0.733931
	O375	O	-0.322168	0.319585	1.346521
	H376	H	-0.336815	0.340924	1.339744
	H377	H	-0.349107	0.336545	1.337581
	O378	O	0.712689	0.720095	0.555775
	H379	H	0.723948	0.728226	0.555896
	H380	H	0.713894	0.732971	0.557682
	O381	O	1.011350	-0.104389	0.071849
	H382	H	1.036095	-0.101655	0.063358
	H383	H	0.998064	-0.096694	0.045875
	O384	O	0.200547	0.126461	1.225859
	H385	H	0.155006	0.114974	1.234764
	H386	H	0.220133	0.123793	1.252728
	O387	O	0.180969	0.786353	1.025479
	H388	H	0.198942	0.775722	1.000489
	H389	H	0.181152	0.777344	1.001115
	O390	O	0.088404	0.006747	0.991271
	H391	H	0.090581	-0.003925	1.002533
	H392	H	0.087588	0.011185	0.988805
	O393	O	0.463893	0.324546	-0.269090
	H394	H	0.476607	0.306429	-0.255319
	H395	H	0.474125	0.313363	-0.287681
	O396	O	0.571998	0.459554	0.665160
	H397	H	0.579585	0.469083	0.665728
	H398	H	0.575497	0.437216	0.671891
	O399	O	1.283114	-0.475339	1.308904
	H400	H	1.262359	-0.478332	1.286525
	H401	H	1.282028	-0.464653	1.320003
	O402	O	-0.003194	0.209374	0.859620
	H403	H	-0.002480	0.221812	0.850228
	H404	H	0.024616	0.203380	0.870636
	O405	O	0.208429	-0.209466	-0.138877
	H406	H	0.208899	-0.166011	-0.158158
	H407	H	0.240635	-0.239244	-0.163639
	O408	O	0.820987	0.807526	-0.154183
	H409	H	0.831512	0.809214	-0.145282
	H410	H	0.831589	0.830504	-0.141963
	O411	O	0.157740	0.912912	-0.153385
	H412	H	0.149263	0.924837	-0.160807
	H413	H	0.151111	0.933831	-0.153612
	O414	O	-0.220601	1.006065	0.006021
	H415	H	-0.220995	0.998693	0.004914
	H416	H	-0.223614	0.994961	0.001883
	O417	O	-0.178076	0.007544	1.233655
	H418	H	-0.210997	0.000295	1.260709
	H419	H	-0.172373	0.021792	1.214322
	O420	O	0.369183	0.371757	0.351329
	H421	H	0.373007	0.372598	0.364956
	H422	H	0.360002	0.383169	0.358440
	O423	O	-0.218067	1.213202	-0.044084
	H424	H	-0.222838	1.221817	-0.038288
	H425	H	-0.216336	1.233618	-0.050638
	O426	O	0.554206	1.290979	0.568195
	H427	H	0.568128	1.296206	0.568679
	H428	H	0.567104	1.292121	0.557018
	O429	O	0.300337	0.484517	0.717402
	H430	H	0.294253	0.491142	0.711816
	H431	H	0.304051	0.479852	0.705939
	O432	O	0.516436	0.292381	0.312570
	H433	H	0.496171	0.288967	0.323331
	H434	H	0.514471	0.264905	0.310410
	O435	O	-0.286450	0.285175	-0.495634
	H436	H	-0.278282	0.286767	-0.524237
	H437	H	-0.267578	0.274407	-0.516699
	O438	O	0.885164	0.154260	0.069420
	H439	H	0.875360	0.148860	0.060754
	H440	H	0.895458	0.148671	0.080616
	O441	O	1.135740	0.983491	0.049698
	H442	H	1.136225	0.966373	0.055385
	H443	H	1.140472	0.993702	0.057547
	O444	O	0.499542	0.506565	0.305366
	H445	H	0.510215	0.479735	0.306907
	H446	H	0.495950	0.506132	0.311042
	O447	O	0.273398	0.539503	0.559472
	H448	H	0.268808	0.551244	0.556654
	H449	H	0.274437	0.544469	0.544929
	O450	O	0.710714	0.477544	0.309617
	H451	H	0.740362	0.481007	0.284153
	H452	H	0.702036	0.494601	0.322424
	O453	O	1.086511	0.856361	0.041528
	H454	H	1.079768	0.842948	0.035138
	H455	H	1.084130	0.848347	0.024836
	O456	O	0.807630	-0.190744	0.152550
	H457	H	0.790725	-0.167073	0.162200
	H458	H	0.846378	-0.188528	0.156203
	O459	O	0.622952	0.542522	0.513438
	H460	H	0.615884	0.543873	0.525508
	H461	H	0.614834	0.542883	0.514977
	O462	O	0.512083	0.661514	0.686653
	H463	H	0.516481	0.676152	0.704139
	H464	H	0.532487	0.662862	0.692268
	O465	O	1.043578	0.032677	-0.036310
	H466	H	1.057784	0.031230	-0.025848
	H467	H	1.045646	0.022807	-0.046362
