data_Molecule from HDF5

_cell_length_a		16.247525
_cell_length_b		16.472499
_cell_length_c		16.102600
_cell_angle_alpha	90.002788
_cell_angle_beta	89.548750
_cell_angle_gamma	90.409444
_symmetry_space_group_name_H-M	'P 1'
_symmetry_Int_Tables_number		1

loop_
	_symmetry_equiv_pos_as_xyz
	x,y,z

loop_
	_atom_site_label
	_atom_site_type_symbol
	_atom_site_fract_x
	_atom_site_fract_y
	_atom_site_fract_z
	H0	H	0.395645	0.837403	0.714293
	H1	H	0.598686	0.160212	0.713932
	H2	H	0.599743	0.836832	0.280796
	H3	H	0.402510	0.159725	0.279795
	H4	H	0.716082	0.398522	0.834220
	H5	H	0.713168	0.598008	0.162952
	H6	H	0.288189	0.595373	0.832106
	H7	H	0.281007	0.395895	0.161732
	H8	H	0.837336	0.719378	0.392528
	H9	H	0.158152	0.723427	0.602257
	H10	H	0.837637	0.280486	0.604171
	H11	H	0.158611	0.280460	0.387645
	H12	H	0.835656	0.401373	0.712111
	H13	H	0.162441	0.600766	0.710439
	H14	H	0.836390	0.598920	0.282101
	H15	H	0.162786	0.404737	0.283133
	H16	H	0.396305	0.715760	0.835194
	H17	H	0.603138	0.718438	0.160384
	H18	H	0.606219	0.280058	0.835560
	H19	H	0.395544	0.279602	0.161471
	H20	H	0.717560	0.838834	0.394461
	H21	H	0.716647	0.160476	0.598537
	H22	H	0.274568	0.840881	0.601569
	H23	H	0.284139	0.160765	0.394303
	H24	H	0.899699	0.337865	0.215462
	H25	H	0.100247	0.661140	0.210868
	H26	H	0.098405	0.337625	0.777644
	H27	H	0.899863	0.660137	0.782403
	H28	H	0.214017	0.902096	0.333851
	H29	H	0.213458	0.103397	0.661164
	H30	H	0.787290	0.097005	0.331301
	H31	H	0.782165	0.901607	0.662151
	H32	H	0.338706	0.216213	0.894734
	H33	H	0.661227	0.217923	0.101263
	H34	H	0.338752	0.777205	0.103781
	H35	H	0.660858	0.781462	0.892579
	H36	H	0.337466	0.895879	0.215204
	H37	H	0.664604	0.096071	0.209464
	H38	H	0.335112	0.095450	0.786561
	H39	H	0.662576	0.902001	0.782125
	H40	H	0.895921	0.217963	0.333636
	H41	H	0.098353	0.218810	0.660234
	H42	H	0.103569	0.783502	0.335479
	H43	H	0.889504	0.779990	0.659260
	H44	H	0.216337	0.336740	0.893664
	H45	H	0.219695	0.658116	0.097764
	H46	H	0.780256	0.337714	0.101464
	H47	H	0.781721	0.658445	0.897356
	H48	H	0.397192	0.117075	0.590808
	H49	H	0.594847	0.885111	0.584475
	H50	H	0.590433	0.113256	0.403140
	H51	H	0.398249	0.886699	0.421984
	H52	H	0.580513	0.399358	0.115057
	H53	H	0.591791	0.591632	0.880052
	H54	H	0.399609	0.588492	0.117630
	H55	H	0.409536	0.406271	0.881031
	H56	H	0.118586	0.603027	0.401682
	H57	H	0.880113	0.590642	0.596920
	H58	H	0.113776	0.410468	0.579821
	H59	H	0.885367	0.410061	0.417193
	H60	H	0.113685	0.412818	0.586765
	H61	H	0.881173	0.599893	0.584051
	H62	H	0.111919	0.595966	0.417102
	H63	H	0.882309	0.413569	0.401488
	H64	H	0.412494	0.577713	0.110265
	H65	H	0.591915	0.588790	0.881487
	H66	H	0.596474	0.404892	0.118421
	H67	H	0.411401	0.405174	0.882161
	H68	H	0.593667	0.112397	0.406933
	H69	H	0.590494	0.882571	0.594623
	H70	H	0.411510	0.115460	0.598384
	H71	H	0.397070	0.879170	0.395318
	H72	H	0.907608	0.614405	0.095323
	H73	H	0.094501	0.384022	0.086093
	H74	H	0.091382	0.609747	0.909657
	H75	H	0.909267	0.385547	0.909061
	H76	H	0.082391	0.914655	0.612548
	H77	H	0.088183	0.086712	0.382561
	H78	H	0.917851	0.080944	0.606748
	H79	H	0.906917	0.907335	0.378961
	H80	H	0.614818	0.086648	0.904003
	H81	H	0.384598	0.087990	0.087226
	H82	H	0.618618	0.898854	0.086548
	H83	H	0.381637	0.909497	0.900103
	H84	H	0.613114	0.908958	0.081005
	H85	H	0.384682	0.088663	0.089540
	H86	H	0.617022	0.094538	0.904622
	H87	H	0.379979	0.894398	0.907791
	H88	H	0.914078	0.108365	0.617113
	H89	H	0.085228	0.098314	0.379049
	H90	H	0.082390	0.908704	0.614265
	H91	H	0.909347	0.912360	0.381012
	H92	H	0.101023	0.614724	0.906127
	H93	H	0.089666	0.382581	0.094233
	H94	H	0.910961	0.610998	0.086626
	H95	H	0.903774	0.382388	0.906163
	H96	H	0.409895	0.110885	0.582658
	H97	H	0.583835	0.887233	0.586419
	H98	H	0.595551	0.114387	0.402573
	H99	H	0.420334	0.889509	0.406059
	H100	H	0.585651	0.415660	0.111509
	H101	H	0.589257	0.589461	0.881394
	H102	H	0.416749	0.595427	0.114365
	H103	H	0.409587	0.404119	0.879806
	H104	H	0.114024	0.586224	0.401832
	H105	H	0.885756	0.585846	0.583523
	H106	H	0.116466	0.405466	0.585737
	H107	H	0.879779	0.398689	0.407535
	H108	H	0.901462	0.614276	0.087011
	H109	H	0.085231	0.386080	0.087088
	H110	H	0.092631	0.613446	0.898895
	H111	H	0.909010	0.384006	0.902389
	H112	H	0.087717	0.912243	0.614672
	H113	H	0.097109	0.093853	0.377121
	H114	H	0.890812	0.088478	0.618344
	H115	H	0.912488	0.907343	0.380908
	H116	H	0.614263	0.090166	0.912110
	H117	H	0.384017	0.089839	0.087421
	H118	H	0.617053	0.910005	0.093257
	H119	H	0.386286	0.907116	0.916847
	C120	C	0.374509	0.008333	0.620898
	C121	C	0.620366	0.991183	0.618963
	C122	C	0.622263	0.007091	0.374295
	C123	C	0.377307	0.991209	0.376262
	C124	C	0.619994	0.376986	0.007029
	C125	C	0.620944	0.619959	0.989364
	C126	C	0.379933	0.617423	0.005835
	C127	C	0.377995	0.374926	0.989208
	C128	C	0.007754	0.623585	0.375796
	C129	C	0.989461	0.622795	0.618925
	C130	C	0.007570	0.379274	0.616587
	C131	C	0.990111	0.378974	0.376583
	C132	C	0.876366	0.507347	0.120965
	C133	C	0.121074	0.490205	0.118461
	C134	C	0.123337	0.506631	0.873485
	C135	C	0.877740	0.490327	0.876432
	C136	C	0.117119	0.881392	0.506213
	C137	C	0.119680	0.123338	0.487924
	C138	C	0.877611	0.121811	0.505748
	C139	C	0.877040	0.878478	0.488535
	C140	C	0.508104	0.119556	0.877016
	C141	C	0.491786	0.118706	0.118149
	C142	C	0.508748	0.875581	0.118680
	C143	C	0.490217	0.875702	0.876311
	C144	C	0.374900	0.886456	0.677014
	C145	C	0.618670	0.112114	0.675413
	C146	C	0.620323	0.885545	0.318433
	C147	C	0.381097	0.111765	0.318217
	C148	C	0.677888	0.378630	0.883540
	C149	C	0.676124	0.618677	0.113381
	C150	C	0.324680	0.615883	0.882028
	C151	C	0.319563	0.375930	0.112455
	C152	C	0.885772	0.680201	0.374513
	C153	C	0.110780	0.682291	0.619819
	C154	C	0.885987	0.320328	0.620742
	C155	C	0.111249	0.320982	0.372193
	C156	C	0.884859	0.380511	0.674645
	C157	C	0.112691	0.621529	0.673902
	C158	C	0.885276	0.620282	0.319518
	C159	C	0.113185	0.382723	0.319881
	C160	C	0.378960	0.675684	0.883413
	C161	C	0.621257	0.678409	0.111815
	C162	C	0.622932	0.319574	0.884097
	C163	C	0.376752	0.318078	0.112392
	C164	C	0.678931	0.886433	0.374930
	C165	C	0.677509	0.112176	0.617980
	C166	C	0.314930	0.888049	0.620738
	C167	C	0.322226	0.112286	0.375463
	C168	C	0.878345	0.386180	0.177770
	C169	C	0.120198	0.612157	0.173336
	C170	C	0.119843	0.385858	0.815928
	C171	C	0.879522	0.611617	0.820235
	C172	C	0.175467	0.882347	0.382929
	C173	C	0.175498	0.122889	0.611759
	C174	C	0.823132	0.118672	0.381175
	C175	C	0.819467	0.880628	0.612322
	C176	C	0.386679	0.176926	0.876734
	C177	C	0.613323	0.177697	0.119156
	C178	C	0.386934	0.817005	0.121343
	C179	C	0.612289	0.819777	0.874153
	C180	C	0.386335	0.875853	0.176902
	C181	C	0.615069	0.116888	0.172937
	C182	C	0.384826	0.116689	0.822764
	C183	C	0.613425	0.880152	0.819491
	C184	C	0.877573	0.178669	0.382320
	C185	C	0.118594	0.180414	0.611217
	C186	C	0.120511	0.823009	0.384125
	C187	C	0.873336	0.820573	0.611018
	C188	C	0.178522	0.385301	0.873648
	C189	C	0.179524	0.610841	0.116877
	C190	C	0.819246	0.386149	0.120834
	C191	C	0.820712	0.610715	0.877528
	C192	C	0.399016	0.092333	0.597428
	C193	C	0.596707	0.906741	0.595511
	C194	C	0.599750	0.091379	0.397391
	C195	C	0.398985	0.907035	0.400654
	C196	C	0.594880	0.399930	0.092675
	C197	C	0.597997	0.596616	0.903472
	C198	C	0.403028	0.594172	0.091786
	C199	C	0.402921	0.398315	0.903369
	C200	C	0.092804	0.601535	0.399856
	C201	C	0.904391	0.599009	0.595234
	C202	C	0.092548	0.402736	0.591410
	C203	C	0.904839	0.400912	0.401503
	C204	C	0.899738	0.591524	0.096679
	C205	C	0.097013	0.406192	0.095895
	C206	C	0.101379	0.590829	0.897646
	C207	C	0.900652	0.405947	0.899318
	C208	C	0.091680	0.905134	0.591807
	C209	C	0.096911	0.099905	0.401936
	C210	C	0.900634	0.099159	0.591684
	C211	C	0.902248	0.902075	0.402600
	C212	C	0.593389	0.097044	0.900235
	C213	C	0.406574	0.095440	0.094975
	C214	C	0.593973	0.899046	0.094064
	C215	C	0.404725	0.897282	0.900948
	Zn216	Zn	0.498021	-0.001244	0.749072
	Zn217	Zn	0.500050	-0.002417	0.246125
	Zn218	Zn	0.747696	0.497567	-0.001366
	Zn219	Zn	0.251314	0.497237	-0.002871
	Zn220	Zn	-0.002443	0.751727	0.497517
	Zn221	Zn	-0.001870	0.250639	0.496352
	Zn222	Zn	-0.000918	0.499293	0.745348
	Zn223	Zn	-0.000380	0.499858	0.249085
	Zn224	Zn	0.499021	0.746985	-0.002474
	Zn225	Zn	0.500073	0.248063	-0.002119
	Zn226	Zn	0.750446	-0.000527	0.496767
	Zn227	Zn	0.246314	0.001441	0.497621
	N228	N	0.411384	0.962067	0.677213
	N229	N	0.583760	0.035767	0.676075
	N230	N	0.585826	0.961475	0.317906
	N231	N	0.414757	0.035409	0.318512
	N232	N	0.675972	0.413586	0.960981
	N233	N	0.675996	0.582960	0.036185
	N234	N	0.325089	0.580047	0.959197
	N235	N	0.320288	0.410521	0.034819
	N236	N	0.963103	0.682571	0.408611
	N237	N	0.033161	0.683309	0.586497
	N238	N	0.963287	0.319448	0.585154
	N239	N	0.033669	0.318605	0.406870
	N240	N	0.961396	0.416537	0.672204
	N241	N	0.036101	0.585474	0.673694
	N242	N	0.961913	0.585637	0.320275
	N243	N	0.036769	0.417939	0.322528
	N244	N	0.412593	0.676694	0.961437
	N245	N	0.587801	0.679545	0.033610
	N246	N	0.587432	0.318310	0.961952
	N247	N	0.412310	0.317352	0.034577
	N248	N	0.680173	0.962910	0.409228
	N249	N	0.678446	0.035905	0.583489
	N250	N	0.314253	0.964814	0.586954
	N251	N	0.319480	0.036300	0.410594
	N252	N	0.912962	0.462600	0.178173
	N253	N	0.084588	0.536260	0.174509
	N254	N	0.086731	0.462418	0.815292
	N255	N	0.914510	0.535939	0.819461
	N256	N	0.173534	0.918005	0.460096
	N257	N	0.176239	0.088111	0.534153
	N258	N	0.822779	0.084047	0.458890
	N259	N	0.821631	0.915877	0.534956
	N260	N	0.464581	0.178933	0.909635
	N261	N	0.535625	0.179058	0.085849
	N262	N	0.464147	0.816635	0.085783
	N263	N	0.534792	0.817124	0.908849
	N264	N	0.462898	0.911639	0.175353
	N265	N	0.538521	0.080745	0.172365
	N266	N	0.461313	0.081744	0.822822
	N267	N	0.536337	0.913973	0.820455
	N268	N	0.910561	0.180979	0.460687
	N269	N	0.084810	0.180948	0.533168
	N270	N	0.084594	0.822468	0.461695
	N271	N	0.908268	0.819173	0.533000
	N272	N	0.181158	0.461540	0.908467
	N273	N	0.180327	0.534007	0.083651
	N274	N	0.817779	0.462590	0.086596
	N275	N	0.819555	0.534281	0.911695
	O276	O	0.012980	-0.051193	0.111693
	H277	H	0.002201	-0.053903	0.110180
	H278	H	0.007168	-0.063053	0.113996
	O279	O	0.354049	0.358455	0.665057
	H280	H	0.354572	0.379424	0.668695
	H281	H	0.345328	0.352502	0.674822
	O282	O	1.070266	0.091887	-0.066954
	H283	H	1.070221	0.098389	-0.050683
	H284	H	1.058842	0.093976	-0.069805
	O285	O	0.004662	0.962531	0.010757
	H286	H	0.008687	0.948656	-0.007595
	H287	H	-0.000449	0.951001	0.014974
	O288	O	0.528293	0.570369	0.562104
	H289	H	0.535121	0.575333	0.563544
	H290	H	0.539089	0.575514	0.581483
	O291	O	0.555254	0.485930	0.621683
	H292	H	0.551391	0.488752	0.630987
	H293	H	0.565389	0.475545	0.605762
	O294	O	0.810371	0.835645	1.084682
	H295	H	0.786479	0.824841	1.084461
	H296	H	0.814632	0.832405	1.088599
	O297	O	0.147048	-0.026359	-0.035115
	H298	H	0.140012	-0.021574	-0.027100
	H299	H	0.151748	-0.016357	-0.033075
	O300	O	0.429274	0.486268	0.444806
	H301	H	0.428699	0.484158	0.434225
	H302	H	0.445200	0.479812	0.462851
	O303	O	-0.074295	0.917654	0.970954
	H304	H	-0.065650	0.925475	0.961643
	H305	H	-0.066213	0.921427	0.968512
	O306	O	0.437781	0.522510	0.392216
	H307	H	0.426389	0.520790	0.384219
	H308	H	0.442291	0.528006	0.385738
	O309	O	1.025358	-0.049904	-0.173230
	H310	H	1.045260	-0.044213	-0.159662
	H311	H	1.023417	-0.055385	-0.185263
	O312	O	0.160771	-0.059696	0.872385
	H313	H	0.175596	-0.059728	0.877709
	H314	H	0.160393	-0.051726	0.872934
	O315	O	0.433562	0.520030	0.352161
	H316	H	0.425533	0.528535	0.354811
	H317	H	0.442953	0.527890	0.339166
	O318	O	0.458953	0.479871	0.516846
	H319	H	0.455890	0.490771	0.508742
	H320	H	0.458174	0.482655	0.502408
	O321	O	0.426941	0.639534	0.309667
	H322	H	0.441809	0.653533	0.322627
	H323	H	0.424113	0.647180	0.317791
	O324	O	0.606235	0.565340	0.407742
	H325	H	0.598497	0.545706	0.410998
	H326	H	0.604583	0.559495	0.395645
	O327	O	-0.014334	1.088877	1.054397
	H328	H	-0.005346	1.086322	1.052306
	H329	H	-0.016712	1.083269	1.048594
	O330	O	0.534862	0.510581	0.534078
	H331	H	0.532386	0.501796	0.542451
	H332	H	0.538701	0.521036	0.518534
	O333	O	0.041343	0.908732	0.992467
	H334	H	0.044746	0.919939	0.985805
	H335	H	0.044317	0.892929	0.989347
	O336	O	0.930478	0.932469	1.126164
	H337	H	0.920278	0.933454	1.132469
	H338	H	0.936818	0.925626	1.130115
	O339	O	0.682659	0.364092	0.411021
	H340	H	0.676063	0.362673	0.418266
	H341	H	0.680326	0.359468	0.397463
	O342	O	1.022099	0.125224	0.013006
	H343	H	1.008109	0.120740	0.017429
	H344	H	1.024288	0.119509	0.014691
	O345	O	0.418943	0.511328	0.485761
	H346	H	0.408860	0.513204	0.470442
	H347	H	0.410873	0.501089	0.479954
	O348	O	1.047446	1.096296	1.000769
	H349	H	1.042948	1.082372	1.005134
	H350	H	1.031753	1.104925	1.004817
	O351	O	0.968230	0.953802	-0.130204
	H352	H	0.976963	0.949662	-0.122742
	H353	H	0.973104	0.943725	-0.136425
	O354	O	0.472641	0.493382	0.595437
	H355	H	0.472605	0.482959	0.605853
	H356	H	0.477766	0.501492	0.598176
	O357	O	0.417660	0.318703	0.550030
	H358	H	0.406923	0.323395	0.555984
	H359	H	0.407766	0.305885	0.547741
	O360	O	-0.088740	-0.146775	0.110802
	H361	H	-0.099899	-0.147560	0.100575
	H362	H	-0.089168	-0.149468	0.114649
	O363	O	0.550543	0.393977	0.377825
	H364	H	0.548672	0.385759	0.390437
	H365	H	0.543818	0.382363	0.376407
	O366	O	0.385269	0.497937	0.604193
	H367	H	0.376151	0.505231	0.615718
	H368	H	0.385541	0.514520	0.607166
	O369	O	0.416806	0.644569	0.452883
	H370	H	0.405828	0.637645	0.452531
	H371	H	0.425272	0.650592	0.457336
	O372	O	0.649961	0.461285	0.540781
	H373	H	0.658670	0.461078	0.542822
	H374	H	0.632613	0.443910	0.539699
	O375	O	0.623850	0.534346	0.474911
	H376	H	0.640499	0.542566	0.481502
	H377	H	0.630371	0.519044	0.477406
	O378	O	0.414355	0.433417	0.496694
	H379	H	0.399115	0.425863	0.502570
	H380	H	0.414444	0.437713	0.510792
	O381	O	0.528938	0.649824	0.469360
	H382	H	0.531543	0.635951	0.465651
	H383	H	0.552176	0.650987	0.468371
	O384	O	-0.098784	1.061632	0.019971
	H385	H	-0.104491	1.061301	0.015911
	H386	H	-0.099748	1.054147	0.009782
	O387	O	1.103021	-0.049379	1.052573
	H388	H	1.088248	-0.047077	1.049628
	H389	H	1.107401	-0.051065	1.065739
	O390	O	0.183878	1.105071	0.065400
	H391	H	0.184011	1.098208	0.083617
	H392	H	0.191142	1.123734	0.079482
	O393	O	1.051107	1.057344	0.030667
	H394	H	1.057333	1.056658	0.031048
	H395	H	1.060847	1.054653	0.042406
	O396	O	0.381481	0.430066	0.545374
	H397	H	0.385388	0.421981	0.560415
	H398	H	0.378274	0.419729	0.560610
	O399	O	-0.114064	1.011709	0.900042
	H400	H	-0.106468	1.005189	0.898770
	H401	H	-0.102094	1.016416	0.901327
	O402	O	0.904762	0.988628	0.986871
	H403	H	0.905183	0.983129	0.989673
	H404	H	0.905219	0.977883	0.981761
	O405	O	0.601270	0.574511	0.675920
	H406	H	0.598396	0.591040	0.689648
	H407	H	0.614381	0.577092	0.663517
