data_Molecule from HDF5

_cell_length_a		16.879456
_cell_length_b		16.501538
_cell_length_c		16.527677
_cell_angle_alpha	90.096095
_cell_angle_beta	89.841218
_cell_angle_gamma	90.080478
_symmetry_space_group_name_H-M	'P 1'
_symmetry_Int_Tables_number		1

loop_
	_symmetry_equiv_pos_as_xyz
	x,y,z

loop_
	_atom_site_label
	_atom_site_type_symbol
	_atom_site_fract_x
	_atom_site_fract_y
	_atom_site_fract_z
	H0	H	0.401347	0.828045	0.708881
	H1	H	0.608699	0.140903	0.707968
	H2	H	0.607613	0.827947	0.268954
	H3	H	0.400623	0.140603	0.266337
	H4	H	0.730356	0.374464	0.833630
	H5	H	0.728894	0.592556	0.141199
	H6	H	0.285309	0.591861	0.830510
	H7	H	0.285355	0.380785	0.142812
	H8	H	0.852170	0.707663	0.380126
	H9	H	0.156762	0.710880	0.592638
	H10	H	0.852313	0.264486	0.590036
	H11	H	0.161330	0.265940	0.383839
	H12	H	0.851774	0.381710	0.707526
	H13	H	0.155447	0.596404	0.712046
	H14	H	0.852737	0.590594	0.263620
	H15	H	0.160596	0.382606	0.266225
	H16	H	0.403123	0.704693	0.830269
	H17	H	0.610196	0.705217	0.143118
	H18	H	0.609206	0.264913	0.831341
	H19	H	0.404656	0.268857	0.145244
	H20	H	0.727604	0.829896	0.379330
	H21	H	0.726757	0.140637	0.594547
	H22	H	0.281185	0.830558	0.597207
	H23	H	0.283079	0.139035	0.380748
	H24	H	0.904803	0.326093	0.203208
	H25	H	0.103957	0.644347	0.201100
	H26	H	0.106045	0.328274	0.767732
	H27	H	0.901849	0.642833	0.767863
	H28	H	0.227257	0.879096	0.332577
	H29	H	0.226627	0.091947	0.643366
	H30	H	0.785129	0.091439	0.331128
	H31	H	0.783297	0.879405	0.641831
	H32	H	0.352616	0.206854	0.882474
	H33	H	0.659025	0.207725	0.093383
	H34	H	0.355172	0.759045	0.095899
	H35	H	0.658010	0.757667	0.876536
	H36	H	0.355586	0.875971	0.213695
	H37	H	0.658534	0.090852	0.210241
	H38	H	0.353028	0.090184	0.764884
	H39	H	0.658042	0.875211	0.760325
	H40	H	0.907116	0.200361	0.328056
	H41	H	0.107663	0.205068	0.643911
	H42	H	0.106234	0.768910	0.328366
	H43	H	0.903784	0.768185	0.643428
	H44	H	0.224203	0.328536	0.880985
	H45	H	0.223968	0.642500	0.089598
	H46	H	0.785304	0.328155	0.092796
	H47	H	0.782340	0.640135	0.878745
	H48	H	0.417367	0.098225	0.580783
	H49	H	0.593507	0.873842	0.570842
	H50	H	0.592808	0.096642	0.401952
	H51	H	0.414553	0.871687	0.399073
	H52	H	0.590789	0.394773	0.099695
	H53	H	0.590771	0.567678	0.877727
	H54	H	0.413395	0.569618	0.098914
	H55	H	0.412819	0.396146	0.872734
	H56	H	0.113523	0.568618	0.394046
	H57	H	0.894508	0.572706	0.579372
	H58	H	0.113645	0.397968	0.572485
	H59	H	0.893527	0.391421	0.391297
	H60	H	0.115476	0.399248	0.578982
	H61	H	0.894738	0.578483	0.575296
	H62	H	0.117980	0.581276	0.390302
	H63	H	0.895279	0.390322	0.397133
	H64	H	0.416447	0.571232	0.098049
	H65	H	0.594184	0.573730	0.873204
	H66	H	0.601506	0.395542	0.103331
	H67	H	0.414625	0.395799	0.873324
	H68	H	0.599523	0.097915	0.402290
	H69	H	0.597152	0.872238	0.572258
	H70	H	0.420670	0.093722	0.571740
	H71	H	0.419318	0.873132	0.400924
	H72	H	0.915868	0.596556	0.073727
	H73	H	0.098111	0.371208	0.074488
	H74	H	0.096864	0.598466	0.901531
	H75	H	0.918829	0.374817	0.900561
	H76	H	0.095353	0.901068	0.599345
	H77	H	0.086284	0.070153	0.379477
	H78	H	0.909613	0.072484	0.601317
	H79	H	0.912333	0.900807	0.373392
	H80	H	0.617148	0.070956	0.892931
	H81	H	0.396121	0.075564	0.075482
	H82	H	0.614153	0.900558	0.076746
	H83	H	0.396362	0.892828	0.899138
	H84	H	0.617218	0.894793	0.078129
	H85	H	0.396691	0.072179	0.079050
	H86	H	0.617176	0.080629	0.898089
	H87	H	0.400613	0.897741	0.904508
	H88	H	0.917227	0.070657	0.597614
	H89	H	0.099576	0.083380	0.369752
	H90	H	0.091247	0.898918	0.598283
	H91	H	0.917584	0.897734	0.374360
	H92	H	0.098016	0.599256	0.897340
	H93	H	0.098508	0.370319	0.076958
	H94	H	0.915900	0.596279	0.073156
	H95	H	0.914881	0.373839	0.901084
	H96	H	0.410626	0.097150	0.572297
	H97	H	0.593518	0.871979	0.574930
	H98	H	0.596084	0.098982	0.396382
	H99	H	0.414676	0.873051	0.404010
	H100	H	0.596444	0.404590	0.097667
	H101	H	0.598630	0.566682	0.875416
	H102	H	0.414558	0.572966	0.099621
	H103	H	0.413650	0.394521	0.872828
	H104	H	0.113623	0.579097	0.403328
	H105	H	0.897091	0.572019	0.572875
	H106	H	0.116767	0.393557	0.576209
	H107	H	0.895759	0.395870	0.394917
	H108	H	0.915126	0.597082	0.073469
	H109	H	0.096157	0.372131	0.076324
	H110	H	0.094619	0.597677	0.898379
	H111	H	0.916709	0.372647	0.897126
	H112	H	0.095297	0.896369	0.600616
	H113	H	0.105544	0.063651	0.375740
	H114	H	0.915346	0.078659	0.600833
	H115	H	0.913161	0.895094	0.371530
	H116	H	0.613272	0.071601	0.902877
	H117	H	0.394626	0.076420	0.079695
	H118	H	0.614595	0.895492	0.072306
	H119	H	0.398703	0.900216	0.896977
	C120	C	0.384161	-0.006749	0.608557
	C121	C	0.626637	0.975742	0.607062
	C122	C	0.626744	-0.005897	0.367418
	C123	C	0.384694	0.975916	0.367789
	C124	C	0.627544	0.364429	-0.003098
	C125	C	0.627159	0.604353	0.978045
	C126	C	0.384405	0.604808	-0.004514
	C127	C	0.383645	0.363852	0.977515
	C128	C	0.013634	0.607602	0.364022
	C129	C	0.995914	0.608432	0.608933
	C130	C	0.013866	0.364603	0.608078
	C131	C	0.997371	0.362113	0.363646
	C132	C	0.884793	0.493010	0.106638
	C133	C	0.127064	0.476025	0.106926
	C134	C	0.127024	0.494558	0.865672
	C135	C	0.884862	0.477142	0.867157
	C136	C	0.125695	0.865701	0.495865
	C137	C	0.127731	0.105753	0.478612
	C138	C	0.884743	0.105442	0.495526
	C139	C	0.883226	0.865080	0.477047
	C140	C	0.514293	0.106094	0.866136
	C141	C	0.497357	0.106996	0.109772
	C142	C	0.515075	0.862837	0.109330
	C143	C	0.498906	0.862769	0.865679
	C144	C	0.382027	0.875455	0.669190
	C145	C	0.627846	0.093721	0.668228
	C146	C	0.627032	0.875550	0.307861
	C147	C	0.382403	0.093439	0.306690
	C148	C	0.688904	0.358460	0.880045
	C149	C	0.687910	0.609730	0.095019
	C150	C	0.325303	0.608878	0.877755
	C151	C	0.325378	0.362582	0.096125
	C152	C	0.898049	0.667112	0.362061
	C153	C	0.110606	0.670375	0.611546
	C154	C	0.898234	0.304716	0.609267
	C155	C	0.114376	0.304920	0.363894
	C156	C	0.898106	0.362849	0.667614
	C157	C	0.110132	0.613428	0.670762
	C158	C	0.898269	0.608924	0.304086
	C159	C	0.114170	0.362857	0.305494
	C160	C	0.384018	0.665053	0.877613
	C161	C	0.628878	0.665476	0.095861
	C162	C	0.628639	0.304016	0.878861
	C163	C	0.384577	0.306923	0.097156
	C164	C	0.686743	0.876471	0.362615
	C165	C	0.686402	0.093593	0.611753
	C166	C	0.322703	0.876471	0.613612
	C167	C	0.324010	0.092836	0.363506
	C168	C	0.884967	0.374185	0.165177
	C169	C	0.125070	0.596203	0.163378
	C170	C	0.126287	0.375878	0.806631
	C171	C	0.883246	0.595327	0.807339
	C172	C	0.186170	0.862007	0.378445
	C173	C	0.186559	0.109580	0.596455
	C174	C	0.825967	0.108354	0.377593
	C175	C	0.823906	0.861972	0.595149
	C176	C	0.398678	0.166345	0.864280
	C177	C	0.612898	0.167334	0.111670
	C178	C	0.400866	0.800337	0.113611
	C179	C	0.612553	0.799315	0.859669
	C180	C	0.400885	0.858229	0.172089
	C181	C	0.612662	0.109444	0.169969
	C182	C	0.398836	0.108213	0.805875
	C183	C	0.612573	0.858008	0.802051
	C184	C	0.886448	0.162611	0.376186
	C185	C	0.127594	0.165705	0.596775
	C186	C	0.126230	0.807224	0.376857
	C187	C	0.883777	0.807065	0.596182
	C188	C	0.184855	0.375844	0.862970
	C189	C	0.184459	0.595164	0.107760
	C190	C	0.825377	0.375134	0.110261
	C191	C	0.823598	0.593856	0.862377
	C192	C	0.409238	0.075000	0.582313
	C193	C	0.601882	0.893928	0.580333
	C194	C	0.602813	0.076412	0.392924
	C195	C	0.409336	0.893965	0.393762
	C196	C	0.603029	0.390782	0.078822
	C197	C	0.601826	0.577120	0.896775
	C198	C	0.408103	0.578919	0.077463
	C199	C	0.407061	0.388285	0.894675
	C200	C	0.094039	0.583109	0.388643
	C201	C	0.916114	0.581833	0.583227
	C202	C	0.094412	0.389767	0.582974
	C203	C	0.915984	0.385670	0.387434
	C204	C	0.908604	0.575424	0.080766
	C205	C	0.104102	0.393047	0.082879
	C206	C	0.103554	0.577038	0.891561
	C207	C	0.909682	0.395176	0.892461
	C208	C	0.101180	0.891293	0.577915
	C209	C	0.103842	0.079764	0.396323
	C210	C	0.907490	0.081007	0.578246
	C211	C	0.907519	0.890460	0.394520
	C212	C	0.594810	0.081278	0.890897
	C213	C	0.416764	0.081725	0.085026
	C214	C	0.594588	0.889390	0.083082
	C215	C	0.419316	0.889370	0.892680
	Zn216	Zn	0.505621	-0.015922	0.735513
	Zn217	Zn	0.505951	-0.014992	0.239383
	Zn218	Zn	0.756115	0.484495	-0.012931
	Zn219	Zn	0.255649	0.484790	-0.014055
	Zn220	Zn	0.004442	0.737386	0.486063
	Zn221	Zn	0.006304	0.233619	0.486492
	Zn222	Zn	0.005237	0.486341	0.738160
	Zn223	Zn	0.005524	0.485219	0.234781
	Zn224	Zn	0.506630	0.732579	-0.013155
	Zn225	Zn	0.505860	0.236715	-0.012043
	Zn226	Zn	0.755566	-0.014240	0.486831
	Zn227	Zn	0.255534	-0.015400	0.488746
	N228	N	0.419511	0.949118	0.666184
	N229	N	0.591313	0.019368	0.665544
	N230	N	0.590522	0.949751	0.310460
	N231	N	0.419520	0.019622	0.309223
	N232	N	0.688599	0.395226	0.954546
	N233	N	0.687295	0.572565	0.020541
	N234	N	0.324977	0.572402	0.952314
	N235	N	0.324357	0.396924	0.020484
	N236	N	0.970751	0.666677	0.398649
	N237	N	0.038495	0.667455	0.573720
	N238	N	0.971459	0.305243	0.572985
	N239	N	0.040692	0.304213	0.399193
	N240	N	0.971060	0.399215	0.666998
	N241	N	0.038031	0.575307	0.669084
	N242	N	0.971165	0.572523	0.305036
	N243	N	0.040246	0.397608	0.304939
	N244	N	0.420015	0.662924	0.952106
	N245	N	0.592024	0.662426	0.022083
	N246	N	0.591309	0.307294	0.952685
	N247	N	0.419972	0.307248	0.022229
	N248	N	0.686975	0.951425	0.398814
	N249	N	0.685932	0.019020	0.574569
	N250	N	0.323865	0.950854	0.576729
	N251	N	0.325284	0.018699	0.400914
	N252	N	0.921168	0.448675	0.163418
	N253	N	0.090172	0.521059	0.163306
	N254	N	0.091134	0.450843	0.807943
	N255	N	0.920768	0.521608	0.809999
	N256	N	0.186130	0.897776	0.453611
	N257	N	0.186762	0.073019	0.521878
	N258	N	0.824546	0.073627	0.452927
	N259	N	0.823392	0.897245	0.519987
	N260	N	0.471520	0.165490	0.900874
	N261	N	0.540009	0.166154	0.075287
	N262	N	0.472775	0.803137	0.074956
	N263	N	0.540840	0.802353	0.899003
	N264	N	0.472836	0.896583	0.169450
	N265	N	0.539660	0.072759	0.169178
	N266	N	0.471735	0.071412	0.806818
	N267	N	0.540814	0.896841	0.805723
	N268	N	0.922336	0.161308	0.450645
	N269	N	0.091686	0.163587	0.522390
	N270	N	0.089247	0.809346	0.450804
	N271	N	0.919906	0.808758	0.521554
	N272	N	0.185766	0.450993	0.898680
	N273	N	0.186236	0.519365	0.073712
	N274	N	0.824856	0.450403	0.074739
	N275	N	0.824383	0.519220	0.898916
	O276	O	-0.088169	0.817363	-0.095786
	H277	H	-0.091122	0.807475	-0.079276
	H278	H	-0.094544	0.838804	-0.092714
	O279	O	0.531644	0.263479	0.268251
	H280	H	0.545088	0.253892	0.248404
	H281	H	0.562348	0.255521	0.265095
	O282	O	0.965362	-0.009387	0.814658
	H283	H	0.993032	-0.011348	0.810061
	H284	H	0.949278	-0.010544	0.806341
	O285	O	0.637011	0.690616	0.570070
	H286	H	0.610497	0.682792	0.570336
	H287	H	0.632838	0.691092	0.551553
	O288	O	0.306471	0.678073	0.678347
	H289	H	0.321005	0.671436	0.682397
	H290	H	0.315956	0.657708	0.658131
	O291	O	0.272226	0.436230	0.439211
	H292	H	0.276375	0.442456	0.409137
	H293	H	0.282141	0.438875	0.435275
	O294	O	1.225973	0.013294	1.201307
	H295	H	1.227730	0.010420	1.176415
	H296	H	1.249906	0.014455	1.219910
	O297	O	0.333246	0.732220	0.244244
	H298	H	0.315502	0.759571	0.224586
	H299	H	0.347685	0.720426	0.230374
	O300	O	0.038216	-0.005998	1.168294
	H301	H	0.055587	0.015952	1.162571
	H302	H	0.042197	0.002550	1.157802
	O303	O	0.713296	0.693953	0.700325
	H304	H	0.695106	0.678244	0.679638
	H305	H	0.715525	0.709573	0.710289
	O306	O	0.636313	0.337477	0.370686
	H307	H	0.635612	0.325701	0.368300
	H308	H	0.645844	0.318854	0.385855
	O309	O	0.212551	0.770612	0.972623
	H310	H	0.234558	0.754200	0.952500
	H311	H	0.210953	0.768693	0.946915
	O312	O	0.216573	0.780563	0.785768
	H313	H	0.228997	0.763482	0.757075
	H314	H	0.180738	0.785530	0.788947
	O315	O	0.695039	0.672511	1.301377
	H316	H	0.702542	0.681301	1.282361
	H317	H	0.699366	0.669898	1.298605
	O318	O	0.704590	0.293012	0.680544
	H319	H	0.702596	0.301413	0.670835
	H320	H	0.682359	0.313800	0.673309
	O321	O	-0.217895	1.204074	0.955810
	H322	H	-0.209683	1.205221	0.945136
	H323	H	-0.231685	1.224323	0.957909
	O324	O	0.780567	0.951152	0.198730
	H325	H	0.767638	0.952034	0.205855
	H326	H	0.791786	0.965321	0.211809
	O327	O	0.243633	-0.072336	1.052969
	H328	H	0.233775	-0.064349	1.036492
	H329	H	0.247681	-0.076471	1.037728
	O330	O	0.565068	0.268854	0.521601
	H331	H	0.562858	0.264957	0.515966
	H332	H	0.561902	0.268241	0.542727
	O333	O	0.795858	0.184872	0.783526
	H334	H	0.812772	0.187867	0.809272
	H335	H	0.774012	0.199492	0.761448
	O336	O	0.458041	0.253156	0.442895
	H337	H	0.469472	0.252125	0.428243
	H338	H	0.461007	0.247765	0.440406
	O339	O	0.545031	0.551340	0.458966
	H340	H	0.543779	0.538560	0.454216
	H341	H	0.555243	0.559215	0.450129
	O342	O	-0.185454	0.169304	0.174739
	H343	H	-0.156454	0.161945	0.153760
	H344	H	-0.181398	0.141746	0.154870
	O345	O	0.222499	1.188894	1.193753
	H346	H	0.204628	1.168614	1.195914
	H347	H	0.239119	1.203401	1.207301
	O348	O	-0.017167	-0.011787	0.207957
	H349	H	-0.011676	-0.010628	0.210640
	H350	H	-0.010084	-0.005318	0.208284
	O351	O	0.446876	0.695413	0.347993
	H352	H	0.448699	0.698599	0.351391
	H353	H	0.436240	0.703160	0.340596
	O354	O	0.093954	-0.026365	1.015159
	H355	H	0.113654	-0.014526	1.017576
	H356	H	0.103181	-0.022062	1.014588
	O357	O	0.419674	0.358155	0.639951
	H358	H	0.426729	0.350796	0.623446
	H359	H	0.430575	0.369952	0.637264
	O360	O	0.518737	0.430435	0.648406
	H361	H	0.523510	0.439517	0.645897
	H362	H	0.505261	0.430203	0.642000
	O363	O	0.032229	-0.041177	0.002489
	H364	H	0.033125	-0.028040	-0.010521
	H365	H	0.024262	-0.039006	0.004211
	O366	O	0.407746	0.460107	0.443308
	H367	H	0.411910	0.469043	0.440565
	H368	H	0.399907	0.465743	0.437346
	O369	O	0.718812	0.273963	0.271861
	H370	H	0.751411	0.240062	0.242301
	H371	H	0.725346	0.283393	0.305731
	O372	O	0.918405	1.022972	0.004718
	H373	H	0.915582	1.018369	0.009587
	H374	H	0.921999	1.021466	0.006194
	O375	O	0.851427	-0.162372	-0.234790
	H376	H	0.867263	-0.153721	-0.216465
	H377	H	0.843129	-0.162692	-0.243486
	O378	O	0.268332	0.549156	0.552670
	H379	H	0.262130	0.552096	0.533058
	H380	H	0.274326	0.547904	0.545415
	O381	O	0.020669	1.193466	1.173881
	H382	H	0.016598	1.220896	1.174555
	H383	H	0.024203	1.201850	1.166769
	O384	O	1.048834	0.169946	0.939783
	H385	H	1.077691	0.174418	0.941530
	H386	H	1.053860	0.156402	0.911755
	O387	O	1.192794	1.167077	-0.197184
	H388	H	1.186846	1.147449	-0.192835
	H389	H	1.196953	1.173462	-0.214067
	O390	O	0.731170	0.460232	0.267695
	H391	H	0.738226	0.450342	0.275386
	H392	H	0.749984	0.447479	0.254382
	O393	O	0.275751	0.520905	0.261486
	H394	H	0.269391	0.528096	0.241150
	H395	H	0.271461	0.550055	0.249781
	O396	O	0.039933	0.798684	0.792825
	H397	H	0.024194	0.794838	0.791177
	H398	H	0.027824	0.793029	0.792998
	O399	O	-0.213333	0.015776	0.771656
	H400	H	-0.207856	0.043326	0.780746
	H401	H	-0.238287	0.014828	0.749020
	O402	O	0.280937	0.706113	0.455519
	H403	H	0.287513	0.700319	0.431034
	H404	H	0.258454	0.730391	0.457869
	O405	O	0.955529	-0.150045	1.080381
	H406	H	0.970096	-0.144763	1.073453
	H407	H	0.961440	-0.162881	1.074913
	O408	O	0.062295	0.074084	-0.219412
	H409	H	0.062870	0.065187	-0.223032
	H410	H	0.047796	0.076605	-0.227138
	O411	O	1.015803	0.780373	0.989663
	H412	H	1.004947	0.779349	0.984108
	H413	H	1.017486	0.773192	0.989225
	O414	O	0.742904	0.422251	0.543512
	H415	H	0.746526	0.434392	0.544804
	H416	H	0.744163	0.439503	0.543347
	O417	O	0.273102	0.461780	0.706939
	H418	H	0.265646	0.466255	0.697327
	H419	H	0.249456	0.449913	0.721619
	O420	O	0.552880	0.675723	0.693121
	H421	H	0.552899	0.672559	0.692540
	H422	H	0.542144	0.672356	0.693012
	O423	O	0.230544	-0.044399	0.770049
	H424	H	0.225646	-0.071307	0.785298
	H425	H	0.259053	-0.047087	0.741537
	O426	O	0.546821	0.473146	0.334667
	H427	H	0.547229	0.450821	0.317829
	H428	H	0.562563	0.479427	0.328665
	O429	O	1.234097	1.205347	1.026088
	H430	H	1.259728	1.217324	1.015292
	H431	H	1.242154	1.212055	1.059024
	O432	O	0.501921	0.282220	0.703434
	H433	H	0.501774	0.271013	0.711405
	H434	H	0.490025	0.302819	0.710335
	O435	O	0.313566	1.292560	0.298581
	H436	H	0.324065	1.307837	0.297379
	H437	H	0.322827	1.291641	0.320620
	O438	O	0.286198	0.270619	-0.299259
	H439	H	0.289596	0.268603	-0.317813
	H440	H	0.300312	0.286341	-0.302766
	O441	O	0.076412	-0.214900	0.181814
	H442	H	0.085396	-0.185912	0.173592
	H443	H	0.075877	-0.225975	0.177863
	O444	O	0.732247	0.577309	0.481729
	H445	H	0.738265	0.600841	0.476834
	H446	H	0.728489	0.579323	0.486176
	O447	O	-0.040336	1.204336	0.767368
	H448	H	-0.042510	1.225224	0.752079
	H449	H	-0.052391	1.198713	0.762003
	O450	O	0.213462	1.079537	0.941029
	H451	H	0.204479	1.076738	0.948725
	H452	H	0.226354	1.093879	0.923784
	O453	O	0.725958	0.508802	0.702902
	H454	H	0.727636	0.527891	0.706278
	H455	H	0.728044	0.521672	0.713681
	O456	O	-0.234071	-0.072231	0.930004
	H457	H	-0.237675	-0.083763	0.927869
	H458	H	-0.236768	-0.074145	0.910082
	O459	O	0.991264	1.136256	0.046451
	H460	H	0.998561	1.137483	0.035821
	H461	H	0.982604	1.139031	0.021460
	O462	O	0.488718	0.705069	0.404394
	H463	H	0.483239	0.706192	0.388709
	H464	H	0.476601	0.705353	0.389881
	O465	O	0.776960	-0.237319	0.013978
	H466	H	0.749568	-0.265030	0.027551
	H467	H	0.776027	-0.227576	0.030896
	O468	O	0.420051	0.640288	0.502659
	H469	H	0.411935	0.643491	0.500878
	H470	H	0.431294	0.643134	0.501093
	O471	O	0.724150	0.694477	0.506083
	H472	H	0.729334	0.704865	0.502606
	H473	H	0.706765	0.705552	0.499326
	O474	O	0.658814	0.340831	0.454552
	H475	H	0.656247	0.327442	0.464753
	H476	H	0.664798	0.356123	0.451238
	O477	O	0.288359	0.271675	1.515686
	H478	H	0.278477	0.264206	1.509386
	H479	H	0.286840	0.279861	1.523255
	O480	O	0.474046	0.422568	0.298961
	H481	H	0.481241	0.414309	0.291468
	H482	H	0.477962	0.436254	0.296035
	O483	O	0.450485	0.582993	0.700796
	H484	H	0.443556	0.563299	0.701427
	H485	H	0.445436	0.579738	0.676004
	O486	O	0.521889	0.460949	0.645414
	H487	H	0.509828	0.463065	0.648930
	H488	H	0.532927	0.458851	0.627736
	O489	O	0.791085	0.781198	0.190875
	H490	H	0.842904	0.776412	0.191905
	H491	H	0.781719	0.818313	0.184247
	O492	O	0.185275	-0.218660	0.222647
	H493	H	0.196008	-0.203383	0.222665
	H494	H	0.175637	-0.202915	0.192595
	O495	O	-0.015473	1.021066	0.979011
	H496	H	-0.010487	1.033005	0.974794
	H497	H	-0.014486	1.014669	0.987775
	O498	O	0.863792	0.985369	0.992155
	H499	H	0.858271	0.963142	0.986030
	H500	H	0.855381	0.999598	0.975427
	O501	O	0.576209	0.549041	0.324128
	H502	H	0.591537	0.550841	0.325223
	H503	H	0.577004	0.542788	0.313350
