data_Molecule from HDF5

_cell_length_a		16.212119
_cell_length_b		16.273832
_cell_length_c		16.333203
_cell_angle_alpha	89.994974
_cell_angle_beta	90.132911
_cell_angle_gamma	90.031476
_symmetry_space_group_name_H-M	'P 1'
_symmetry_Int_Tables_number		1

loop_
	_symmetry_equiv_pos_as_xyz
	x,y,z

loop_
	_atom_site_label
	_atom_site_type_symbol
	_atom_site_fract_x
	_atom_site_fract_y
	_atom_site_fract_z
	H0	H	0.400457	0.836485	0.715560
	H1	H	0.599023	0.163357	0.715526
	H2	H	0.600314	0.837683	0.284068
	H3	H	0.400645	0.163198	0.284280
	H4	H	0.712584	0.404094	0.835728
	H5	H	0.715259	0.598242	0.163079
	H6	H	0.286606	0.597534	0.836053
	H7	H	0.286703	0.402840	0.163888
	H8	H	0.835103	0.712469	0.401887
	H9	H	0.164733	0.712058	0.596297
	H10	H	0.835594	0.287185	0.596778
	H11	H	0.164017	0.286216	0.402174
	H12	H	0.835142	0.402955	0.712950
	H13	H	0.164251	0.597749	0.714125
	H14	H	0.836028	0.598711	0.284264
	H15	H	0.164185	0.401566	0.286381
	H16	H	0.401487	0.714906	0.836738
	H17	H	0.599597	0.714374	0.162835
	H18	H	0.597803	0.285728	0.836550
	H19	H	0.401983	0.285457	0.163212
	H20	H	0.712058	0.835226	0.403951
	H21	H	0.713959	0.163880	0.597888
	H22	H	0.286624	0.835705	0.597238
	H23	H	0.286746	0.164086	0.402645
	H24	H	0.900932	0.336752	0.214618
	H25	H	0.100606	0.663122	0.215986
	H26	H	0.098008	0.336252	0.785727
	H27	H	0.901220	0.663823	0.784431
	H28	H	0.213248	0.902522	0.336187
	H29	H	0.214209	0.097369	0.663757
	H30	H	0.785143	0.097271	0.336310
	H31	H	0.787094	0.902675	0.663909
	H32	H	0.335682	0.213582	0.901537
	H33	H	0.664667	0.213616	0.097548
	H34	H	0.336117	0.785512	0.098757
	H35	H	0.664407	0.787461	0.903580
	H36	H	0.336796	0.901208	0.215074
	H37	H	0.664464	0.097525	0.213495
	H38	H	0.336289	0.098733	0.785575
	H39	H	0.663741	0.901722	0.786549
	H40	H	0.901072	0.214475	0.337317
	H41	H	0.098397	0.214567	0.663507
	H42	H	0.097585	0.785264	0.336835
	H43	H	0.901222	0.784492	0.662816
	H44	H	0.213046	0.336211	0.902900
	H45	H	0.212398	0.664632	0.096250
	H46	H	0.787846	0.335713	0.095974
	H47	H	0.788343	0.664410	0.903379
	H48	H	0.409151	0.115634	0.593524
	H49	H	0.597967	0.883000	0.588720
	H50	H	0.593302	0.115896	0.411921
	H51	H	0.418591	0.887189	0.407142
	H52	H	0.583167	0.404440	0.113387
	H53	H	0.596558	0.597799	0.881366
	H54	H	0.405083	0.591891	0.116234
	H55	H	0.399572	0.401273	0.880219
	H56	H	0.118674	0.589993	0.399985
	H57	H	0.880320	0.595207	0.597885
	H58	H	0.117851	0.402808	0.590275
	H59	H	0.881534	0.406088	0.405879
	H60	H	0.116006	0.412063	0.592203
	H61	H	0.882775	0.596181	0.589052
	H62	H	0.118463	0.600124	0.409048
	H63	H	0.882311	0.406460	0.407484
	H64	H	0.409172	0.593986	0.115709
	H65	H	0.595219	0.590243	0.883728
	H66	H	0.600519	0.398782	0.120237
	H67	H	0.404711	0.414877	0.885841
	H68	H	0.596508	0.118945	0.403865
	H69	H	0.595405	0.880524	0.601728
	H70	H	0.405587	0.116989	0.592304
	H71	H	0.399532	0.883902	0.415688
	H72	H	0.910868	0.614879	0.089639
	H73	H	0.089061	0.385576	0.090338
	H74	H	0.089984	0.615251	0.910817
	H75	H	0.905675	0.381353	0.903600
	H76	H	0.085822	0.905959	0.614343
	H77	H	0.098845	0.090422	0.383093
	H78	H	0.908691	0.093107	0.616211
	H79	H	0.901865	0.908926	0.382742
	H80	H	0.621073	0.100224	0.902163
	H81	H	0.383575	0.091757	0.091657
	H82	H	0.616582	0.908677	0.093895
	H83	H	0.378775	0.896577	0.904774
	H84	H	0.618726	0.906115	0.095532
	H85	H	0.382397	0.093126	0.095310
	H86	H	0.615375	0.095126	0.916710
	H87	H	0.387021	0.909284	0.918593
	H88	H	0.906050	0.094987	0.617366
	H89	H	0.087424	0.089998	0.386578
	H90	H	0.096917	0.897395	0.619568
	H91	H	0.908888	0.907910	0.384956
	H92	H	0.098649	0.618747	0.905335
	H93	H	0.098373	0.381952	0.091692
	H94	H	0.904212	0.617743	0.092093
	H95	H	0.907793	0.383785	0.905495
	H96	H	0.406981	0.117320	0.596782
	H97	H	0.585615	0.886095	0.594089
	H98	H	0.587882	0.115634	0.404398
	H99	H	0.403084	0.878918	0.395459
	H100	H	0.598057	0.416263	0.114521
	H101	H	0.589081	0.596025	0.884133
	H102	H	0.405658	0.596132	0.117485
	H103	H	0.414430	0.402653	0.884760
	H104	H	0.113920	0.587738	0.412676
	H105	H	0.883652	0.587821	0.593975
	H106	H	0.118936	0.406019	0.598592
	H107	H	0.882653	0.407789	0.406622
	H108	H	0.910686	0.617213	0.097163
	H109	H	0.092034	0.382298	0.099247
	H110	H	0.089868	0.617771	0.900176
	H111	H	0.905362	0.383018	0.906400
	H112	H	0.099163	0.911468	0.616149
	H113	H	0.091625	0.100106	0.382625
	H114	H	0.905293	0.092033	0.616702
	H115	H	0.905462	0.902074	0.382731
	H116	H	0.616088	0.084203	0.903827
	H117	H	0.382581	0.095182	0.091783
	H118	H	0.617566	0.905267	0.092084
	H119	H	0.382506	0.915952	0.899882
	C120	C	0.378514	0.008508	0.621891
	C121	C	0.621547	0.991385	0.622653
	C122	C	0.621385	0.008595	0.378586
	C123	C	0.378717	0.991491	0.377981
	C124	C	0.621695	0.378489	0.008041
	C125	C	0.622351	0.622325	0.991256
	C126	C	0.378145	0.622099	0.008203
	C127	C	0.378070	0.378015	0.991666
	C128	C	0.008546	0.621147	0.378394
	C129	C	0.991109	0.621041	0.621331
	C130	C	0.008506	0.379031	0.621382
	C131	C	0.991091	0.378556	0.378685
	C132	C	0.879253	0.508395	0.121421
	C133	C	0.122006	0.491452	0.121953
	C134	C	0.121081	0.508789	0.878107
	C135	C	0.878305	0.491415	0.877445
	C136	C	0.121691	0.877694	0.508301
	C137	C	0.121530	0.121860	0.491864
	C138	C	0.878247	0.121517	0.508661
	C139	C	0.878029	0.877903	0.491699
	C140	C	0.508653	0.121019	0.879028
	C141	C	0.491509	0.121241	0.121120
	C142	C	0.509016	0.878606	0.121713
	C143	C	0.491370	0.878809	0.879259
	C144	C	0.380652	0.885213	0.677089
	C145	C	0.619425	0.114641	0.677636
	C146	C	0.619484	0.885815	0.323233
	C147	C	0.380570	0.114496	0.322690
	C148	C	0.675305	0.382685	0.884698
	C149	C	0.677054	0.618573	0.114275
	C150	C	0.323507	0.618806	0.885288
	C151	C	0.324063	0.381787	0.114837
	C152	C	0.884306	0.675345	0.380984
	C153	C	0.115325	0.675245	0.617699
	C154	C	0.884577	0.324330	0.618313
	C155	C	0.115244	0.324039	0.381674
	C156	C	0.884529	0.381849	0.675629
	C157	C	0.115136	0.618643	0.676306
	C158	C	0.884670	0.618547	0.322919
	C159	C	0.115124	0.381623	0.324529
	C160	C	0.380685	0.677090	0.885417
	C161	C	0.619781	0.676566	0.114330
	C162	C	0.618258	0.324153	0.884981
	C163	C	0.381532	0.323551	0.114774
	C164	C	0.674909	0.884694	0.382796
	C165	C	0.676245	0.114963	0.619226
	C166	C	0.324127	0.884759	0.618328
	C167	C	0.323942	0.114923	0.381449
	C168	C	0.881416	0.385286	0.176204
	C169	C	0.119962	0.614584	0.177121
	C170	C	0.118494	0.384998	0.823797
	C171	C	0.881288	0.615071	0.823002
	C172	C	0.175801	0.881423	0.385207
	C173	C	0.176515	0.118541	0.614845
	C174	C	0.822767	0.118616	0.385465
	C175	C	0.824027	0.881272	0.614920
	C176	C	0.384915	0.175970	0.881235
	C177	C	0.615599	0.175936	0.118314
	C178	C	0.385039	0.823575	0.119063
	C179	C	0.615249	0.824516	0.882394
	C180	C	0.385447	0.880817	0.176854
	C181	C	0.615404	0.118774	0.175927
	C182	C	0.385134	0.118836	0.823619
	C183	C	0.614987	0.881510	0.824550
	C184	C	0.880244	0.177008	0.385814
	C185	C	0.119083	0.176699	0.614829
	C186	C	0.118471	0.823201	0.385324
	C187	C	0.880985	0.822720	0.614293
	C188	C	0.175409	0.384859	0.882068
	C189	C	0.175768	0.615489	0.117806
	C190	C	0.825103	0.384952	0.117328
	C191	C	0.824576	0.615471	0.881404
	C192	C	0.400534	0.094446	0.600388
	C193	C	0.599487	0.905287	0.601168
	C194	C	0.599173	0.094785	0.400228
	C195	C	0.400649	0.905329	0.399785
	C196	C	0.600334	0.399955	0.093896
	C197	C	0.600113	0.600913	0.905179
	C198	C	0.400213	0.600412	0.094363
	C199	C	0.399974	0.399605	0.905620
	C200	C	0.094724	0.599152	0.400491
	C201	C	0.904510	0.599518	0.599870
	C202	C	0.095303	0.400621	0.600095
	C203	C	0.904566	0.400251	0.400369
	C204	C	0.901723	0.594545	0.099491
	C205	C	0.099726	0.405245	0.100303
	C206	C	0.099205	0.594850	0.899125
	C207	C	0.899844	0.405131	0.898762
	C208	C	0.100213	0.898691	0.594527
	C209	C	0.099175	0.099986	0.406116
	C210	C	0.900385	0.099881	0.594564
	C211	C	0.899204	0.899808	0.405521
	C212	C	0.595277	0.099538	0.901239
	C213	C	0.405216	0.099659	0.099310
	C214	C	0.595468	0.900404	0.100376
	C215	C	0.404892	0.900707	0.901219
	Zn216	Zn	0.499770	0.000025	0.750820
	Zn217	Zn	0.500542	0.000315	0.249573
	Zn218	Zn	0.750791	0.500330	-0.000448
	Zn219	Zn	0.249625	0.500115	-0.000175
	Zn220	Zn	-0.000448	0.749040	0.499336
	Zn221	Zn	0.000236	0.250857	0.500123
	Zn222	Zn	-0.000128	0.499649	0.749595
	Zn223	Zn	-0.000163	0.499712	0.250264
	Zn224	Zn	0.500078	0.750843	0.000022
	Zn225	Zn	0.500034	0.249337	0.000169
	Zn226	Zn	0.749378	-0.000365	0.500217
	Zn227	Zn	0.250156	-0.000113	0.499807
	N228	N	0.413949	0.963023	0.679294
	N229	N	0.585826	0.036940	0.679592
	N230	N	0.586818	0.963913	0.320636
	N231	N	0.413965	0.036807	0.320451
	N232	N	0.677387	0.415884	0.962166
	N233	N	0.678717	0.585646	0.036798
	N234	N	0.321921	0.585361	0.962749
	N235	N	0.321845	0.414952	0.037230
	N236	N	0.962220	0.676921	0.414766
	N237	N	0.037310	0.676755	0.584272
	N238	N	0.962559	0.322620	0.585132
	N239	N	0.037096	0.321969	0.414568
	N240	N	0.962695	0.415130	0.677592
	N241	N	0.036987	0.585697	0.678797
	N242	N	0.962734	0.585501	0.321160
	N243	N	0.037040	0.414667	0.322403
	N244	N	0.413820	0.679411	0.963089
	N245	N	0.586278	0.678845	0.036765
	N246	N	0.585711	0.321195	0.962767
	N247	N	0.414373	0.321149	0.037202
	N248	N	0.676226	0.962212	0.416554
	N249	N	0.677828	0.037461	0.585706
	N250	N	0.322846	0.962187	0.584477
	N251	N	0.322820	0.037413	0.415208
	N252	N	0.914274	0.463098	0.178745
	N253	N	0.086944	0.536480	0.179741
	N254	N	0.085498	0.462818	0.821154
	N255	N	0.913994	0.537028	0.820406
	N256	N	0.177889	0.914425	0.462758
	N257	N	0.177848	0.084973	0.537553
	N258	N	0.821459	0.084776	0.462717
	N259	N	0.822112	0.914961	0.537727
	N260	N	0.462785	0.177591	0.914835
	N261	N	0.537594	0.177531	0.084789
	N262	N	0.462831	0.821952	0.085824
	N263	N	0.537469	0.823167	0.915888
	N264	N	0.463379	0.914621	0.178450
	N265	N	0.537315	0.085645	0.178085
	N266	N	0.463054	0.085541	0.822133
	N267	N	0.536798	0.914482	0.822333
	N268	N	0.914270	0.178730	0.463133
	N269	N	0.085555	0.178957	0.537341
	N270	N	0.085507	0.820762	0.462948
	N271	N	0.913799	0.820681	0.536621
	N272	N	0.177069	0.462695	0.915186
	N273	N	0.176966	0.537943	0.084099
	N274	N	0.823880	0.462541	0.083746
	N275	N	0.822814	0.537713	0.914658
