data_Molecule from HDF5

_cell_length_a		16.214298
_cell_length_b		16.428559
_cell_length_c		16.059066
_cell_angle_alpha	89.578368
_cell_angle_beta	89.920062
_cell_angle_gamma	90.194559
_symmetry_space_group_name_H-M	'P 1'
_symmetry_Int_Tables_number		1

loop_
	_symmetry_equiv_pos_as_xyz
	x,y,z

loop_
	_atom_site_label
	_atom_site_type_symbol
	_atom_site_fract_x
	_atom_site_fract_y
	_atom_site_fract_z
	H0	H	0.389099	0.834716	0.712360
	H1	H	0.585137	0.160848	0.707994
	H2	H	0.584645	0.834986	0.283589
	H3	H	0.391322	0.160482	0.280560
	H4	H	0.701820	0.401575	0.830574
	H5	H	0.697727	0.592648	0.163030
	H6	H	0.277410	0.596619	0.830485
	H7	H	0.275467	0.399351	0.162694
	H8	H	0.823949	0.714837	0.393608
	H9	H	0.149290	0.716497	0.598587
	H10	H	0.825031	0.279511	0.600578
	H11	H	0.152155	0.284183	0.397254
	H12	H	0.822897	0.401584	0.709491
	H13	H	0.153768	0.592762	0.704997
	H14	H	0.821786	0.594025	0.284850
	H15	H	0.153190	0.404726	0.284865
	H16	H	0.387486	0.715073	0.832614
	H17	H	0.589233	0.711818	0.160970
	H18	H	0.587818	0.285645	0.829713
	H19	H	0.385179	0.278810	0.159874
	H20	H	0.704408	0.836255	0.396208
	H21	H	0.704802	0.159286	0.595495
	H22	H	0.268892	0.836060	0.598727
	H23	H	0.272328	0.160213	0.395469
	H24	H	0.890127	0.335709	0.212302
	H25	H	0.083910	0.663311	0.207824
	H26	H	0.083488	0.334916	0.784712
	H27	H	0.892730	0.662046	0.781116
	H28	H	0.199219	0.902391	0.330648
	H29	H	0.199313	0.093487	0.662582
	H30	H	0.777244	0.095165	0.330141
	H31	H	0.774333	0.898981	0.662163
	H32	H	0.325121	0.214780	0.892685
	H33	H	0.650811	0.214253	0.096862
	H34	H	0.325023	0.779781	0.099212
	H35	H	0.650740	0.782244	0.895485
	H36	H	0.323262	0.899724	0.210063
	H37	H	0.653272	0.093197	0.207320
	H38	H	0.322095	0.093735	0.783601
	H39	H	0.652882	0.904374	0.785474
	H40	H	0.887197	0.214510	0.332046
	H41	H	0.088816	0.210852	0.662052
	H42	H	0.087321	0.784589	0.331826
	H43	H	0.885139	0.780517	0.660164
	H44	H	0.202814	0.335717	0.898030
	H45	H	0.205636	0.660603	0.094682
	H46	H	0.771615	0.335692	0.096869
	H47	H	0.772715	0.661072	0.895893
	H48	H	0.397789	0.113205	0.591960
	H49	H	0.581656	0.880652	0.593113
	H50	H	0.577252	0.111063	0.403659
	H51	H	0.400150	0.883850	0.403597
	H52	H	0.567858	0.402555	0.111023
	H53	H	0.576557	0.597574	0.876338
	H54	H	0.399593	0.588842	0.114777
	H55	H	0.397682	0.410418	0.880067
	H56	H	0.106811	0.594492	0.395851
	H57	H	0.872550	0.579130	0.591181
	H58	H	0.108656	0.398904	0.596297
	H59	H	0.869009	0.399332	0.405174
	H60	H	0.104772	0.399283	0.582676
	H61	H	0.865789	0.598574	0.595403
	H62	H	0.105606	0.600466	0.408687
	H63	H	0.872758	0.403849	0.412348
	H64	H	0.395284	0.591631	0.116042
	H65	H	0.585398	0.591127	0.875895
	H66	H	0.583132	0.395829	0.117897
	H67	H	0.399903	0.400834	0.878015
	H68	H	0.586077	0.113841	0.406132
	H69	H	0.578817	0.882119	0.589288
	H70	H	0.394084	0.110590	0.581989
	H71	H	0.390037	0.883929	0.412384
	H72	H	0.899426	0.612718	0.091187
	H73	H	0.082241	0.382515	0.094572
	H74	H	0.075983	0.612026	0.902178
	H75	H	0.890952	0.383443	0.906632
	H76	H	0.080539	0.898357	0.617904
	H77	H	0.084820	0.095125	0.376042
	H78	H	0.901203	0.094727	0.614886
	H79	H	0.900738	0.911022	0.381496
	H80	H	0.604583	0.090054	0.899607
	H81	H	0.370467	0.092634	0.085802
	H82	H	0.605052	0.897780	0.081798
	H83	H	0.369873	0.906168	0.903336
	H84	H	0.603719	0.910525	0.088432
	H85	H	0.372008	0.088292	0.084707
	H86	H	0.606890	0.096551	0.901367
	H87	H	0.369959	0.901199	0.905930
	H88	H	0.888823	0.090620	0.618051
	H89	H	0.079028	0.088777	0.379624
	H90	H	0.081681	0.910979	0.614838
	H91	H	0.899067	0.897990	0.376321
	H92	H	0.089152	0.614187	0.907758
	H93	H	0.076957	0.384954	0.091031
	H94	H	0.888294	0.613702	0.082730
	H95	H	0.892748	0.382219	0.901788
	H96	H	0.386931	0.115086	0.589766
	H97	H	0.584429	0.882276	0.588870
	H98	H	0.583698	0.115658	0.397190
	H99	H	0.388944	0.879470	0.399911
	H100	H	0.582248	0.412309	0.112443
	H101	H	0.576578	0.587083	0.880828
	H102	H	0.395250	0.585627	0.114450
	H103	H	0.390748	0.404121	0.875479
	H104	H	0.101974	0.586376	0.406582
	H105	H	0.872760	0.592893	0.575594
	H106	H	0.103589	0.410553	0.590051
	H107	H	0.871217	0.408618	0.404030
	H108	H	0.887311	0.617432	0.095572
	H109	H	0.083822	0.383907	0.087979
	H110	H	0.087009	0.617002	0.893282
	H111	H	0.896394	0.384972	0.905589
	H112	H	0.069757	0.904502	0.612817
	H113	H	0.077050	0.097345	0.376755
	H114	H	0.897651	0.082500	0.612592
	H115	H	0.888599	0.906978	0.374900
	H116	H	0.603710	0.092235	0.906701
	H117	H	0.370337	0.089161	0.089492
	H118	H	0.609045	0.898947	0.096270
	H119	H	0.371318	0.905069	0.908017
	C120	C	0.364295	0.005593	0.618057
	C121	C	0.610021	0.989206	0.618326
	C122	C	0.610353	0.006392	0.374128
	C123	C	0.365132	0.989332	0.374731
	C124	C	0.607863	0.376244	0.004061
	C125	C	0.608063	0.618926	0.987532
	C126	C	0.367794	0.618539	0.005813
	C127	C	0.366644	0.375813	0.987316
	C128	C	-0.004317	0.620970	0.374881
	C129	C	0.978946	0.618705	0.616379
	C130	C	-0.003010	0.374789	0.618926
	C131	C	0.979760	0.377046	0.377120
	C132	C	0.863905	0.507228	0.119521
	C133	C	0.109609	0.491165	0.118331
	C134	C	0.111323	0.506832	0.873649
	C135	C	0.865585	0.490628	0.874576
	C136	C	0.106878	0.877179	0.505317
	C137	C	0.109022	0.120254	0.487392
	C138	C	0.867329	0.118909	0.505403
	C139	C	0.866029	0.876001	0.487006
	C140	C	0.496515	0.120630	0.873073
	C141	C	0.479464	0.118555	0.115868
	C142	C	0.496938	0.874406	0.118463
	C143	C	0.479132	0.876748	0.876152
	C144	C	0.367432	0.883601	0.674669
	C145	C	0.606502	0.111970	0.671348
	C146	C	0.606380	0.883807	0.320208
	C147	C	0.369259	0.111676	0.318120
	C148	C	0.663824	0.380519	0.879789
	C149	C	0.662241	0.614804	0.112688
	C150	C	0.313999	0.616799	0.880487
	C151	C	0.311829	0.378078	0.112435
	C152	C	0.872609	0.676425	0.375091
	C153	C	0.101295	0.676343	0.616429
	C154	C	0.873687	0.318732	0.618865
	C155	C	0.103162	0.322324	0.377498
	C156	C	0.872720	0.378808	0.673673
	C157	C	0.103621	0.614796	0.669446
	C158	C	0.871494	0.616436	0.320875
	C159	C	0.103717	0.382660	0.322210
	C160	C	0.368592	0.675753	0.881525
	C161	C	0.607665	0.673547	0.111916
	C162	C	0.607346	0.322490	0.879620
	C163	C	0.366563	0.318306	0.111049
	C164	C	0.665783	0.884509	0.376342
	C165	C	0.666231	0.110987	0.615499
	C166	C	0.308089	0.884071	0.617765
	C167	C	0.310071	0.111623	0.375304
	C168	C	0.868090	0.384359	0.174792
	C169	C	0.105926	0.614086	0.171537
	C170	C	0.105967	0.383687	0.821084
	C171	C	0.870545	0.613349	0.818935
	C172	C	0.162182	0.881184	0.380498
	C173	C	0.162771	0.115305	0.612766
	C174	C	0.813729	0.116184	0.380185
	C175	C	0.810904	0.878127	0.612091
	C176	C	0.373485	0.176209	0.873578
	C177	C	0.602102	0.175406	0.116067
	C178	C	0.373751	0.818696	0.118000
	C179	C	0.602308	0.821441	0.876727
	C180	C	0.372858	0.877876	0.173493
	C181	C	0.603537	0.114982	0.170631
	C182	C	0.372009	0.116114	0.819408
	C183	C	0.603287	0.881828	0.821854
	C184	C	0.868673	0.175434	0.381115
	C185	C	0.107927	0.173800	0.612357
	C186	C	0.106421	0.822654	0.381081
	C187	C	0.866291	0.819540	0.611349
	C188	C	0.165414	0.384366	0.877118
	C189	C	0.165954	0.612900	0.114932
	C190	C	0.809455	0.384288	0.117140
	C191	C	0.811020	0.612909	0.876166
	C192	C	0.386396	0.090768	0.594747
	C193	C	0.587924	0.903707	0.596838
	C194	C	0.588755	0.091348	0.396025
	C195	C	0.386634	0.904612	0.398437
	C196	C	0.584390	0.397357	0.091326
	C197	C	0.585998	0.598147	0.900349
	C198	C	0.390107	0.595535	0.092560
	C199	C	0.389314	0.398434	0.900227
	C200	C	0.082450	0.600130	0.397192
	C201	C	0.892594	0.596611	0.594184
	C202	C	0.083239	0.396506	0.596227
	C203	C	0.893261	0.397888	0.400357
	C204	C	0.885258	0.592607	0.096586
	C205	C	0.087661	0.405882	0.097251
	C206	C	0.090297	0.592279	0.894634
	C207	C	0.886961	0.405539	0.897840
	C208	C	0.084115	0.898377	0.592676
	C209	C	0.086927	0.099875	0.400078
	C210	C	0.889562	0.096104	0.592557
	C211	C	0.889320	0.898699	0.399939
	C212	C	0.582688	0.099165	0.895826
	C213	C	0.393399	0.096605	0.093180
	C214	C	0.583554	0.896036	0.095593
	C215	C	0.392656	0.897897	0.899034
	Zn216	Zn	0.487516	-0.001843	0.746799
	Zn217	Zn	0.488030	-0.002867	0.245094
	Zn218	Zn	0.734998	0.498420	-0.003480
	Zn219	Zn	0.240420	0.498093	-0.003992
	Zn220	Zn	-0.013332	0.748744	0.496387
	Zn221	Zn	-0.011553	0.246727	0.497395
	Zn222	Zn	-0.011593	0.498197	0.745073
	Zn223	Zn	-0.012919	0.499507	0.248197
	Zn224	Zn	0.487759	0.746598	-0.002808
	Zn225	Zn	0.487634	0.247787	-0.005126
	Zn226	Zn	0.739633	-0.002036	0.496254
	Zn227	Zn	0.234555	-0.001787	0.496495
	N228	N	0.401948	0.960278	0.674676
	N229	N	0.572335	0.035197	0.673347
	N230	N	0.572384	0.960396	0.318712
	N231	N	0.402674	0.034839	0.317504
	N232	N	0.664259	0.413136	0.958351
	N233	N	0.662413	0.581218	0.034404
	N234	N	0.313410	0.581817	0.958627
	N235	N	0.311690	0.413109	0.034296
	N236	N	0.950922	0.679030	0.408456
	N237	N	0.022879	0.678726	0.584033
	N238	N	0.952051	0.315793	0.585973
	N239	N	0.025098	0.318900	0.411123
	N240	N	0.950297	0.412953	0.673959
	N241	N	0.026546	0.579545	0.669376
	N242	N	0.948959	0.582871	0.320603
	N243	N	0.025849	0.415846	0.321818
	N244	N	0.401465	0.676877	0.960376
	N245	N	0.574698	0.676447	0.033030
	N246	N	0.572951	0.320241	0.958044
	N247	N	0.399858	0.316891	0.032276
	N248	N	0.668252	0.961550	0.409210
	N249	N	0.668636	0.033568	0.583427
	N250	N	0.306027	0.960895	0.583380
	N251	N	0.307247	0.034679	0.409791
	N252	N	0.900906	0.461609	0.176497
	N253	N	0.071574	0.537525	0.173720
	N254	N	0.073174	0.460837	0.818648
	N255	N	0.903826	0.536456	0.817935
	N256	N	0.162304	0.914543	0.458791
	N257	N	0.163671	0.082618	0.534024
	N258	N	0.812716	0.081859	0.458512
	N259	N	0.810697	0.912479	0.533565
	N260	N	0.451949	0.179269	0.906231
	N261	N	0.524020	0.177598	0.082707
	N262	N	0.452133	0.816174	0.084965
	N263	N	0.523900	0.818114	0.909789
	N264	N	0.450430	0.911897	0.173710
	N265	N	0.526126	0.080275	0.170875
	N266	N	0.449471	0.082388	0.818776
	N267	N	0.525657	0.915278	0.821370
	N268	N	0.901053	0.177317	0.460307
	N269	N	0.074914	0.176617	0.533538
	N270	N	0.072697	0.820226	0.459721
	N271	N	0.899834	0.818160	0.532697
	N272	N	0.168872	0.461774	0.909133
	N273	N	0.168413	0.535498	0.082615
	N274	N	0.806733	0.461615	0.083485
	N275	N	0.807859	0.535638	0.910064
	O276	O	0.403473	0.476275	0.443669
	H277	H	0.405370	0.478079	0.441324
	H278	H	0.402520	0.466351	0.446145
	O279	O	0.516074	0.505170	0.431573
	H280	H	0.521678	0.508049	0.423573
	H281	H	0.522314	0.516690	0.433875
	O282	O	0.480755	0.551056	0.544796
	H283	H	0.489199	0.560623	0.554172
	H284	H	0.480494	0.557658	0.550640
	O285	O	0.519445	0.556187	1.516855
	H286	H	0.530671	0.575665	1.513566
	H287	H	0.517807	0.552766	1.504629
	O288	O	0.517488	0.441603	0.485479
	H289	H	0.512566	0.452967	0.477124
	H290	H	0.510439	0.429792	0.480541
	O291	O	0.044857	0.116518	0.980380
	H292	H	0.053805	0.120658	0.973602
	H293	H	0.042015	0.120596	0.988311
	O294	O	1.509390	1.490679	0.537808
	H295	H	1.499615	1.499822	0.539287
	H296	H	1.512807	1.483271	0.534815
	O297	O	0.482489	0.443217	0.467685
	H298	H	0.482463	0.439981	0.473513
	H299	H	0.486463	0.450709	0.475282
	O300	O	0.528055	0.424407	0.459332
	H301	H	0.530603	0.415205	0.452524
	H302	H	0.534757	0.434891	0.454710
	O303	O	0.440012	0.468120	0.522935
	H304	H	0.438913	0.452204	0.532722
	H305	H	0.435580	0.473405	0.532336
	O306	O	1.440846	0.403066	0.486545
	H307	H	1.441055	0.414070	0.481623
	H308	H	1.432355	0.398592	0.496640
	O309	O	0.534124	0.522554	0.506195
	H310	H	0.536321	0.514908	0.494519
	H311	H	0.531014	0.518595	0.504446
	O312	O	0.442241	0.529962	0.480435
	H313	H	0.438011	0.528855	0.472465
	H314	H	0.440453	0.519013	0.486305
	O315	O	1.039592	0.089439	0.997097
	H316	H	1.042217	0.089495	0.995572
	H317	H	1.040184	0.092781	0.993399
	O318	O	-0.523393	-0.478483	0.547809
	H319	H	-0.530867	-0.482724	0.544941
	H320	H	-0.520556	-0.479409	0.550141
	O321	O	0.424591	0.485996	0.483425
	H322	H	0.418572	0.479386	0.494411
	H323	H	0.412966	0.479528	0.477878
	O324	O	1.071316	0.117889	0.026102
	H325	H	1.074041	0.117903	0.024034
	H326	H	1.070339	0.118114	0.023553
	O327	O	1.011354	1.097040	-0.023241
	H328	H	1.007282	1.102693	-0.019354
	H329	H	1.015866	1.097789	-0.015288
	O330	O	0.544610	0.479947	0.449940
	H331	H	0.551098	0.478467	0.452759
	H332	H	0.553644	0.485221	0.446041
	O333	O	0.508055	0.462650	0.458291
	H334	H	0.508460	0.455105	0.468118
	H335	H	0.508322	0.462860	0.461011
