data_Molecule from HDF5

_cell_length_a		16.391149
_cell_length_b		16.431687
_cell_length_c		16.473975
_cell_angle_alpha	90.019129
_cell_angle_beta	89.861293
_cell_angle_gamma	89.938254
_symmetry_space_group_name_H-M	'P 1'
_symmetry_Int_Tables_number		1

loop_
	_symmetry_equiv_pos_as_xyz
	x,y,z

loop_
	_atom_site_label
	_atom_site_type_symbol
	_atom_site_fract_x
	_atom_site_fract_y
	_atom_site_fract_z
	H0	H	0.400364	0.858747	0.726257
	H1	H	0.608315	0.177016	0.727778
	H2	H	0.605531	0.859666	0.288553
	H3	H	0.396650	0.176718	0.285007
	H4	H	0.724391	0.411852	0.846753
	H5	H	0.720167	0.617098	0.165759
	H6	H	0.282856	0.621721	0.847568
	H7	H	0.279565	0.410701	0.163130
	H8	H	0.844042	0.737420	0.402995
	H9	H	0.161839	0.738151	0.610872
	H10	H	0.844722	0.295298	0.612622
	H11	H	0.161889	0.296699	0.400637
	H12	H	0.844617	0.409675	0.729822
	H13	H	0.159825	0.624920	0.729496
	H14	H	0.843857	0.621917	0.286135
	H15	H	0.161881	0.411746	0.284149
	H16	H	0.399891	0.738257	0.847822
	H17	H	0.606602	0.736819	0.164648
	H18	H	0.608343	0.294885	0.847166
	H19	H	0.394951	0.293594	0.162710
	H20	H	0.721041	0.858601	0.405677
	H21	H	0.725176	0.176714	0.612826
	H22	H	0.283701	0.858374	0.610322
	H23	H	0.280769	0.176331	0.400996
	H24	H	0.899358	0.358350	0.225030
	H25	H	0.106363	0.675784	0.226248
	H26	H	0.109485	0.360884	0.782138
	H27	H	0.895169	0.675569	0.783675
	H28	H	0.221970	0.916882	0.346854
	H29	H	0.222737	0.122637	0.665181
	H30	H	0.784219	0.119532	0.348101
	H31	H	0.783313	0.914749	0.665934
	H32	H	0.344748	0.237296	0.902850
	H33	H	0.662283	0.236548	0.108706
	H34	H	0.344037	0.797868	0.110325
	H35	H	0.663983	0.798686	0.903250
	H36	H	0.343545	0.914376	0.227382
	H37	H	0.661970	0.121390	0.226104
	H38	H	0.345127	0.123700	0.785444
	H39	H	0.663280	0.913589	0.785556
	H40	H	0.899516	0.237387	0.347834
	H41	H	0.108510	0.240600	0.663952
	H42	H	0.105459	0.799977	0.346781
	H43	H	0.897708	0.796177	0.664629
	H44	H	0.225775	0.360678	0.898182
	H45	H	0.221631	0.676539	0.109078
	H46	H	0.785198	0.357489	0.107867
	H47	H	0.782557	0.676821	0.903421
	H48	H	0.412348	0.131734	0.595926
	H49	H	0.596780	0.904365	0.594561
	H50	H	0.589977	0.132376	0.414335
	H51	H	0.408168	0.904165	0.419241
	H52	H	0.592733	0.436788	0.114625
	H53	H	0.590467	0.610740	0.892286
	H54	H	0.408536	0.606182	0.120320
	H55	H	0.413688	0.427163	0.892708
	H56	H	0.114611	0.602901	0.418119
	H57	H	0.892304	0.602624	0.589049
	H58	H	0.115684	0.434358	0.599335
	H59	H	0.887137	0.422540	0.417135
	H60	H	0.116895	0.424270	0.592580
	H61	H	0.888109	0.603648	0.600207
	H62	H	0.118222	0.606771	0.410688
	H63	H	0.892189	0.430833	0.420695
	H64	H	0.415112	0.605170	0.117066
	H65	H	0.596816	0.606916	0.891654
	H66	H	0.582613	0.420313	0.117537
	H67	H	0.414767	0.431999	0.895367
	H68	H	0.592895	0.131729	0.420463
	H69	H	0.591910	0.903595	0.600448
	H70	H	0.414896	0.131544	0.597872
	H71	H	0.414365	0.903962	0.411473
	H72	H	0.907554	0.630837	0.091529
	H73	H	0.094118	0.403656	0.093072
	H74	H	0.099019	0.632436	0.919528
	H75	H	0.908886	0.403713	0.919506
	H76	H	0.097574	0.928261	0.620411
	H77	H	0.093477	0.109174	0.391915
	H78	H	0.920991	0.110455	0.618955
	H79	H	0.918096	0.925265	0.394165
	H80	H	0.617876	0.105067	0.912829
	H81	H	0.388764	0.108398	0.093388
	H82	H	0.618588	0.921988	0.096672
	H83	H	0.390252	0.926790	0.917505
	H84	H	0.614980	0.930600	0.092397
	H85	H	0.391104	0.103046	0.094718
	H86	H	0.617520	0.109140	0.917585
	H87	H	0.390820	0.929003	0.916496
	H88	H	0.908796	0.109874	0.622916
	H89	H	0.092845	0.105049	0.394262
	H90	H	0.091133	0.929091	0.618407
	H91	H	0.906936	0.923717	0.390338
	H92	H	0.086709	0.632267	0.909696
	H93	H	0.092550	0.402614	0.097806
	H94	H	0.910484	0.634191	0.102757
	H95	H	0.915478	0.402253	0.910193
	H96	H	0.414617	0.129855	0.594409
	H97	H	0.589720	0.907425	0.593823
	H98	H	0.596542	0.134487	0.414962
	H99	H	0.417291	0.907843	0.420203
	H100	H	0.602394	0.421389	0.122325
	H101	H	0.591391	0.603431	0.894640
	H102	H	0.413292	0.611602	0.119591
	H103	H	0.419088	0.428387	0.894781
	H104	H	0.117301	0.611060	0.418238
	H105	H	0.888234	0.613232	0.593194
	H106	H	0.111287	0.434205	0.588120
	H107	H	0.888377	0.431107	0.411213
	H108	H	0.918309	0.628499	0.095679
	H109	H	0.089161	0.404622	0.094258
	H110	H	0.085603	0.626505	0.924453
	H111	H	0.919520	0.407136	0.919672
	H112	H	0.092086	0.923294	0.621399
	H113	H	0.089409	0.108198	0.394239
	H114	H	0.914217	0.099983	0.617682
	H115	H	0.910726	0.933790	0.394993
	H116	H	0.616553	0.103312	0.918668
	H117	H	0.387756	0.106257	0.098730
	H118	H	0.617082	0.930699	0.102233
	H119	H	0.390043	0.927616	0.914974
	C120	C	0.381922	0.025870	0.627920
	C121	C	0.624825	1.009832	0.628399
	C122	C	0.624257	0.027435	0.385927
	C123	C	0.381159	1.010017	0.385228
	C124	C	0.624740	0.394691	0.013424
	C125	C	0.624418	0.638383	0.997431
	C126	C	0.381044	0.639737	0.014444
	C127	C	0.382024	0.396176	0.997873
	C128	C	0.011597	0.638610	0.384478
	C129	C	0.994097	0.639392	0.627351
	C130	C	0.010565	0.397238	0.626960
	C131	C	0.994455	0.396317	0.384257
	C132	C	0.881022	0.525955	0.127623
	C133	C	0.123766	0.508741	0.126707
	C134	C	0.123743	0.526405	0.884444
	C135	C	0.881499	0.509256	0.884572
	C136	C	0.124784	0.896259	0.514913
	C137	C	0.124025	0.139693	0.497996
	C138	C	0.882227	0.138771	0.515281
	C139	C	0.880563	0.895901	0.498064
	C140	C	0.512052	0.138144	0.884956
	C141	C	0.494138	0.138357	0.127293
	C142	C	0.511564	0.896421	0.128320
	C143	C	0.495436	0.896098	0.884615
	C144	C	0.380856	0.906564	0.686985
	C145	C	0.626954	0.129475	0.688086
	C146	C	0.624742	0.907431	0.327733
	C147	C	0.378423	0.129019	0.325056
	C148	C	0.684516	0.393238	0.894338
	C149	C	0.681774	0.637748	0.117702
	C150	C	0.322350	0.640827	0.895131
	C151	C	0.320288	0.393071	0.115894
	C152	C	0.891845	0.698049	0.383592
	C153	C	0.113603	0.698989	0.629485
	C154	C	0.892145	0.335598	0.630623
	C155	C	0.114104	0.336431	0.382286
	C156	C	0.892151	0.392880	0.688867
	C157	C	0.112758	0.642636	0.688634
	C158	C	0.891598	0.640164	0.325779
	C159	C	0.114116	0.394020	0.324542
	C160	C	0.380627	0.698754	0.895325
	C161	C	0.625393	0.697233	0.117196
	C162	C	0.626459	0.335154	0.894335
	C163	C	0.377926	0.334644	0.115663
	C164	C	0.681803	0.906705	0.386313
	C165	C	0.685394	0.129025	0.631302
	C166	C	0.323012	0.906441	0.629121
	C167	C	0.320926	0.129110	0.383131
	C168	C	0.880232	0.406096	0.186046
	C169	C	0.125307	0.628356	0.186188
	C170	C	0.127213	0.408023	0.822893
	C171	C	0.878041	0.628459	0.824759
	C172	C	0.182718	0.896910	0.394531
	C173	C	0.183168	0.141193	0.617475
	C174	C	0.823360	0.139218	0.395656
	C175	C	0.822337	0.895188	0.618106
	C176	C	0.392361	0.197896	0.883917
	C177	C	0.614482	0.197036	0.127970
	C178	C	0.391593	0.837493	0.129310
	C179	C	0.615752	0.837498	0.883812
	C180	C	0.391313	0.895416	0.187404
	C181	C	0.614167	0.140227	0.186470
	C182	C	0.392570	0.141135	0.825701
	C183	C	0.615414	0.894858	0.825310
	C184	C	0.880463	0.197870	0.395700
	C185	C	0.126419	0.200350	0.616774
	C186	C	0.124717	0.838923	0.394542
	C187	C	0.879369	0.836322	0.617313
	C188	C	0.184928	0.407870	0.880798
	C189	C	0.182830	0.628598	0.128100
	C190	C	0.823795	0.405414	0.127439
	C191	C	0.821765	0.628914	0.883972
	C192	C	0.406809	0.109393	0.603162
	C193	C	0.600034	0.926863	0.603479
	C194	C	0.600261	0.111076	0.409646
	C195	C	0.405964	0.926872	0.409964
	C196	C	0.599660	0.419238	0.096688
	C197	C	0.600076	0.614010	0.914468
	C198	C	0.405335	0.614753	0.097409
	C199	C	0.408324	0.421905	0.915660
	C200	C	0.095033	0.613930	0.408727
	C201	C	0.911182	0.613872	0.601713
	C202	C	0.093138	0.423570	0.600881
	C203	C	0.910918	0.421161	0.409064
	C204	C	0.904979	0.609385	0.103563
	C205	C	0.099006	0.425439	0.102188
	C206	C	0.097710	0.608955	0.910231
	C207	C	0.907194	0.426130	0.909200
	C208	C	0.100675	0.919895	0.598218
	C209	C	0.099264	0.114632	0.415096
	C210	C	0.907451	0.114099	0.598103
	C211	C	0.904742	0.920493	0.414819
	C212	C	0.595693	0.113146	0.909335
	C213	C	0.410974	0.113237	0.102742
	C214	C	0.595063	0.920702	0.104170
	C215	C	0.412005	0.920711	0.909327
	Zn216	Zn	0.503627	0.018298	0.756353
	Zn217	Zn	0.502682	0.018548	0.256775
	Zn218	Zn	0.752991	0.516460	0.006202
	Zn219	Zn	0.252306	0.517800	0.005706
	Zn220	Zn	0.003015	0.767742	0.505819
	Zn221	Zn	0.002860	0.268540	0.506078
	Zn222	Zn	0.002193	0.518213	0.755821
	Zn223	Zn	0.002490	0.517014	0.255846
	Zn224	Zn	0.503523	0.768184	0.006291
	Zn225	Zn	0.503246	0.266183	0.005695
	Zn226	Zn	0.752612	0.018397	0.507424
	Zn227	Zn	0.252966	0.018117	0.506953
	N228	N	0.416529	0.982195	0.686410
	N229	N	0.590083	0.054395	0.686503
	N230	N	0.589693	0.983461	0.327217
	N231	N	0.415282	0.053947	0.326410
	N232	N	0.683527	0.429514	0.969475
	N233	N	0.681543	0.602093	0.042420
	N234	N	0.322450	0.604899	0.970265
	N235	N	0.322759	0.430726	0.041506
	N236	N	0.967442	0.697279	0.419260
	N237	N	0.038802	0.697086	0.592092
	N238	N	0.966854	0.338111	0.592812
	N239	N	0.038660	0.337698	0.418891
	N240	N	0.966863	0.430603	0.686559
	N241	N	0.037251	0.606355	0.687381
	N242	N	0.967154	0.604129	0.326016
	N243	N	0.038510	0.430333	0.325650
	N244	N	0.416379	0.698106	0.970587
	N245	N	0.590524	0.697909	0.041358
	N246	N	0.590128	0.336076	0.969476
	N247	N	0.415890	0.336613	0.041331
	N248	N	0.681785	0.982421	0.421627
	N249	N	0.684120	0.053760	0.594880
	N250	N	0.323471	0.982055	0.593430
	N251	N	0.322322	0.053946	0.419629
	N252	N	0.915140	0.481909	0.186297
	N253	N	0.089208	0.552972	0.185342
	N254	N	0.089761	0.482842	0.824998
	N255	N	0.914188	0.552982	0.824857
	N256	N	0.183073	0.931514	0.470378
	N257	N	0.182140	0.104517	0.542610
	N258	N	0.824237	0.103456	0.471050
	N259	N	0.822829	0.931388	0.542961
	N260	N	0.467870	0.196122	0.919929
	N261	N	0.538878	0.196230	0.092196
	N262	N	0.467402	0.837755	0.093460
	N263	N	0.540110	0.838098	0.919841
	N264	N	0.466908	0.931187	0.186983
	N265	N	0.538389	0.104497	0.186308
	N266	N	0.468152	0.104964	0.826071
	N267	N	0.539585	0.930661	0.825618
	N268	N	0.916113	0.198028	0.471181
	N269	N	0.090569	0.199525	0.541409
	N270	N	0.089640	0.838196	0.470395
	N271	N	0.914800	0.836717	0.541545
	N272	N	0.182850	0.482434	0.918347
	N273	N	0.182129	0.553087	0.092132
	N274	N	0.823780	0.481108	0.092014
	N275	N	0.823776	0.553663	0.920344
	O276	O	-0.183390	0.152892	0.132542
	H277	H	-0.166354	0.147785	0.119437
	H278	H	-0.176204	0.134959	0.122111
	O279	O	0.996001	-0.173904	1.084713
	H280	H	0.982175	-0.163658	1.086881
	H281	H	0.981951	-0.171847	1.100728
	O282	O	0.326976	0.476462	0.631713
	H283	H	0.316886	0.465496	0.624456
	H284	H	0.325742	0.476822	0.635298
	O285	O	0.450938	0.669295	0.566776
	H286	H	0.432879	0.661047	0.569901
	H287	H	0.451381	0.686761	0.574700
	O288	O	0.993885	0.988461	-0.143996
	H289	H	1.000627	0.993651	-0.145340
	H290	H	1.013012	0.993285	-0.153611
	O291	O	0.416133	0.343461	0.364190
	H292	H	0.410701	0.338335	0.375740
	H293	H	0.410948	0.350749	0.363145
	O294	O	0.016433	0.016168	1.046253
	H295	H	0.010724	0.025758	1.038138
	H296	H	0.023416	0.023066	1.043176
	O297	O	0.623703	0.597984	0.339486
	H298	H	0.630034	0.578938	0.336763
	H299	H	0.610015	0.576238	0.335313
	O300	O	0.460179	0.427033	0.659477
	H301	H	0.466202	0.432236	0.644449
	H302	H	0.434212	0.418758	0.655280
	O303	O	0.500178	0.586717	0.417324
	H304	H	0.498860	0.586432	0.421635
	H305	H	0.500178	0.582951	0.412727
	O306	O	0.704078	0.631336	0.565574
	H307	H	0.707951	0.639961	0.549970
	H308	H	0.684028	0.643122	0.555564
	O309	O	0.581596	0.530611	0.604520
	H310	H	0.586008	0.530981	0.604661
	H311	H	0.585891	0.537647	0.602020
	O312	O	0.203648	0.954964	0.802049
	H313	H	0.216532	0.924840	0.797069
	H314	H	0.212204	0.940801	0.800845
	O315	O	0.593075	0.620924	0.583259
	H316	H	0.606287	0.614150	0.576262
	H317	H	0.561834	0.624550	0.582072
	O318	O	1.001185	-0.161168	0.216739
	H319	H	0.978364	-0.170889	0.221414
	H320	H	0.982200	-0.165383	0.221504
	O321	O	-0.142193	0.213584	-0.139676
	H322	H	-0.150349	0.207285	-0.152830
	H323	H	-0.132519	0.200768	-0.160013
	O324	O	0.358544	0.562531	0.385721
	H325	H	0.348512	0.557202	0.398076
	H326	H	0.351506	0.552372	0.386017
	O327	O	0.713563	0.317407	0.489171
	H328	H	0.715264	0.331290	0.486253
	H329	H	0.737114	0.309138	0.487396
	O330	O	0.175448	1.137527	-0.049757
	H331	H	0.179081	1.152350	-0.051938
	H332	H	0.182616	1.135650	-0.046253
	O333	O	0.546074	0.440906	0.489317
	H334	H	0.553371	0.434706	0.487590
	H335	H	0.547858	0.445350	0.475893
	O336	O	-0.008061	0.138717	-0.020822
	H337	H	0.003884	0.150009	-0.021259
	H338	H	-0.005198	0.136820	0.000713
	O339	O	0.176945	0.819210	0.949994
	H340	H	0.149857	0.810295	0.966236
	H341	H	0.180141	0.808800	0.970016
	O342	O	0.046676	1.087094	1.133660
	H343	H	0.047778	1.091665	1.122090
	H344	H	0.032830	1.092561	1.120327
	O345	O	0.674382	0.623807	-0.341337
	H346	H	0.667113	0.657000	-0.339214
	H347	H	0.687038	0.632718	-0.338814
	O348	O	0.579469	0.552504	0.553197
	H349	H	0.584113	0.562729	0.560787
	H350	H	0.588629	0.552207	0.557157
	O351	O	-0.043151	0.858578	0.968692
	H352	H	-0.032637	0.861212	0.953123
	H353	H	-0.038534	0.863917	0.958927
	O354	O	0.123111	1.057012	0.156444
	H355	H	0.134515	1.050877	0.139847
	H356	H	0.108621	1.039458	0.157160
	O357	O	0.140061	0.208480	1.082546
	H358	H	0.124400	0.216398	1.094972
	H359	H	0.135014	0.193756	1.096112
	O360	O	0.441697	0.390097	0.584442
	H361	H	0.436612	0.382706	0.589801
	H362	H	0.453412	0.400838	0.595598
	O363	O	-0.088989	0.077809	0.806230
	H364	H	-0.080582	0.051483	0.809883
	H365	H	-0.067573	0.084413	0.801621
	O366	O	0.040778	0.074366	0.989488
	H367	H	0.027190	0.077540	0.993281
	H368	H	0.061991	0.071650	0.988898
	O369	O	0.478068	0.662073	0.631976
	H370	H	0.482431	0.667386	0.604873
	H371	H	0.477518	0.665611	0.629705
	O372	O	1.144296	0.050375	0.938250
	H373	H	1.154246	0.069685	0.927506
	H374	H	1.147812	0.065002	0.934874
	O375	O	0.646278	0.507241	0.619930
	H376	H	0.647490	0.525526	0.615183
	H377	H	0.656692	0.506785	0.635656
	O378	O	0.321588	0.469889	0.479964
	H379	H	0.314619	0.483463	0.482194
	H380	H	0.327964	0.470022	0.475808
	O381	O	0.991993	0.149984	0.137824
	H382	H	0.984970	0.149655	0.127906
	H383	H	0.986621	0.163761	0.128063
	O384	O	0.611911	0.317350	0.362265
	H385	H	0.596330	0.302665	0.354308
	H386	H	0.621755	0.300721	0.354977
	O387	O	0.288350	-0.272407	0.467221
	H388	H	0.278946	-0.257733	0.445009
	H389	H	0.278011	-0.259670	0.445495
	O390	O	0.180694	-0.129644	0.107952
	H391	H	0.170886	-0.120034	0.102694
	H392	H	0.176960	-0.110853	0.097995
	O393	O	0.828896	1.085493	0.905315
	H394	H	0.834984	1.071134	0.898677
	H395	H	0.821303	1.077080	0.889530
	O396	O	1.193800	0.098971	0.119867
	H397	H	1.186070	0.114159	0.120498
	H398	H	1.202265	0.077648	0.125667
	O399	O	0.845938	0.091982	0.934830
	H400	H	0.852771	0.093842	0.909420
	H401	H	0.839724	0.089411	0.932278
	O402	O	1.306180	0.702899	0.736523
	H403	H	1.315974	0.684477	0.732214
	H404	H	1.317796	0.696509	0.735118
	O405	O	1.031992	0.886308	-0.203961
	H406	H	1.046289	0.883021	-0.210558
	H407	H	1.067005	0.883183	-0.209536
	O408	O	1.143105	-0.197932	-0.134569
	H409	H	1.151153	-0.198579	-0.106457
	H410	H	1.157132	-0.214450	-0.134992
	O411	O	1.007668	1.176127	0.206365
	H412	H	1.012305	1.178311	0.211812
	H413	H	1.024187	1.174024	0.195494
	O414	O	0.366558	0.312199	0.710181
	H415	H	0.386776	0.324178	0.714380
	H416	H	0.391519	0.311216	0.699064
	O417	O	0.458498	0.696269	0.301865
	H418	H	0.444049	0.700972	0.298248
	H419	H	0.471525	0.680703	0.286901
	O420	O	0.371451	0.412113	0.519172
	H421	H	0.375922	0.418281	0.531589
	H422	H	0.380158	0.405207	0.509409
	O423	O	0.535281	0.334604	0.307757
	H424	H	0.552813	0.336250	0.307901
	H425	H	0.533363	0.313999	0.302173
	O426	O	0.700958	0.453926	0.314081
	H427	H	0.712261	0.433483	0.309886
	H428	H	0.710829	0.439139	0.316360
	O429	O	0.692566	0.642313	0.373512
	H430	H	0.670651	0.637850	0.379626
	H431	H	0.684665	0.626152	0.373457
	O432	O	0.520180	0.455424	0.617576
	H433	H	0.533565	0.441116	0.623980
	H434	H	0.538176	0.470573	0.618901
	O435	O	0.308140	0.716552	0.310085
	H436	H	0.319961	0.700923	0.303365
	H437	H	0.312016	0.722888	0.289569
	O438	O	-0.194013	-0.183012	0.202747
	H439	H	-0.206794	-0.199027	0.194760
	H440	H	-0.211797	-0.194095	0.187275
	O441	O	0.801512	0.011436	0.206499
	H442	H	0.798332	0.006721	0.218350
	H443	H	0.806542	-0.012181	0.204052
	O444	O	-0.189829	0.838399	1.067899
	H445	H	-0.197944	0.839516	1.052441
	H446	H	-0.198631	0.834756	1.060806
	O447	O	0.496277	0.593037	0.407954
	H448	H	0.487211	0.580212	0.398205
	H449	H	0.491657	0.574154	0.416206
	O450	O	0.321001	0.383204	0.620352
	H451	H	0.324780	0.402851	0.634776
	H452	H	0.329588	0.361071	0.631526
	O453	O	-0.051408	0.118078	0.836771
	H454	H	-0.038880	0.125593	0.846033
	H455	H	-0.035589	0.120374	0.832935
