data_Molecule from HDF5

_cell_length_a		16.011823
_cell_length_b		16.387521
_cell_length_c		16.246705
_cell_angle_alpha	90.051341
_cell_angle_beta	90.132311
_cell_angle_gamma	89.911248
_symmetry_space_group_name_H-M	'P 1'
_symmetry_Int_Tables_number		1

loop_
	_symmetry_equiv_pos_as_xyz
	x,y,z

loop_
	_atom_site_label
	_atom_site_type_symbol
	_atom_site_fract_x
	_atom_site_fract_y
	_atom_site_fract_z
	H0	H	0.406505	0.840836	0.707221
	H1	H	0.609074	0.165190	0.708982
	H2	H	0.606781	0.841495	0.274755
	H3	H	0.404389	0.165529	0.273119
	H4	H	0.718454	0.408642	0.825692
	H5	H	0.719135	0.599699	0.156718
	H6	H	0.293903	0.600535	0.826948
	H7	H	0.297207	0.409801	0.156713
	H8	H	0.841325	0.716860	0.391961
	H9	H	0.170636	0.718854	0.594523
	H10	H	0.840845	0.290266	0.591862
	H11	H	0.171815	0.288636	0.391757
	H12	H	0.839771	0.405685	0.703836
	H13	H	0.172081	0.601434	0.705129
	H14	H	0.841869	0.601499	0.278813
	H15	H	0.173349	0.405201	0.280460
	H16	H	0.405897	0.720305	0.828314
	H17	H	0.609241	0.721250	0.154569
	H18	H	0.611251	0.285848	0.828800
	H19	H	0.406026	0.287421	0.153297
	H20	H	0.719651	0.839797	0.395073
	H21	H	0.720106	0.167026	0.587309
	H22	H	0.294365	0.839101	0.586817
	H23	H	0.292448	0.167330	0.394038
	H24	H	0.907242	0.340780	0.207495
	H25	H	0.108729	0.666070	0.209375
	H26	H	0.107016	0.341291	0.776158
	H27	H	0.904162	0.665506	0.774489
	H28	H	0.215612	0.908964	0.326447
	H29	H	0.219742	0.099573	0.656520
	H30	H	0.794300	0.099004	0.326324
	H31	H	0.795939	0.909128	0.656147
	H32	H	0.342862	0.219530	0.888854
	H33	H	0.673010	0.218327	0.091886
	H34	H	0.341982	0.790041	0.091297
	H35	H	0.672786	0.790267	0.891667
	H36	H	0.340237	0.907097	0.201379
	H37	H	0.672406	0.102317	0.206097
	H38	H	0.341050	0.101993	0.778166
	H39	H	0.672995	0.905857	0.779003
	H40	H	0.904654	0.220941	0.329075
	H41	H	0.108987	0.221008	0.655030
	H42	H	0.109442	0.785271	0.330431
	H43	H	0.903975	0.787037	0.653747
	H44	H	0.220544	0.340752	0.895082
	H45	H	0.220503	0.668134	0.088075
	H46	H	0.793314	0.340166	0.087925
	H47	H	0.793635	0.668116	0.895710
	H48	H	0.409316	0.117206	0.572704
	H49	H	0.597950	0.889146	0.583904
	H50	H	0.610578	0.124431	0.392020
	H51	H	0.420174	0.888997	0.391958
	H52	H	0.601163	0.412920	0.108066
	H53	H	0.603186	0.601740	0.871984
	H54	H	0.416791	0.605256	0.110119
	H55	H	0.416284	0.409103	0.873667
	H56	H	0.124278	0.590079	0.404139
	H57	H	0.886697	0.601572	0.577299
	H58	H	0.126458	0.408775	0.586570
	H59	H	0.886969	0.413283	0.393880
	H60	H	0.124351	0.409999	0.580680
	H61	H	0.889796	0.589577	0.581439
	H62	H	0.128904	0.596518	0.395952
	H63	H	0.886551	0.406038	0.400081
	H64	H	0.410565	0.598126	0.110350
	H65	H	0.598984	0.594657	0.875912
	H66	H	0.595687	0.411444	0.106448
	H67	H	0.413740	0.410370	0.873175
	H68	H	0.588380	0.118556	0.389700
	H69	H	0.604881	0.885920	0.585402
	H70	H	0.407297	0.123773	0.594842
	H71	H	0.411208	0.888418	0.402209
	H72	H	0.909285	0.622870	0.093236
	H73	H	0.097583	0.389084	0.086086
	H74	H	0.089632	0.615538	0.903873
	H75	H	0.911119	0.386372	0.896116
	H76	H	0.105796	0.915210	0.610466
	H77	H	0.101613	0.096979	0.373837
	H78	H	0.900948	0.102267	0.614123
	H79	H	0.903849	0.919134	0.373118
	H80	H	0.625253	0.096181	0.902546
	H81	H	0.382772	0.106970	0.089660
	H82	H	0.627470	0.908258	0.083340
	H83	H	0.389639	0.917043	0.899509
	H84	H	0.624293	0.912933	0.079907
	H85	H	0.391630	0.100848	0.067673
	H86	H	0.625694	0.092953	0.898639
	H87	H	0.385604	0.909315	0.893397
	H88	H	0.918199	0.086506	0.604147
	H89	H	0.094543	0.096375	0.376311
	H90	H	0.091588	0.912953	0.605185
	H91	H	0.929042	0.911589	0.378710
	H92	H	0.109813	0.622117	0.902364
	H93	H	0.105331	0.387706	0.083743
	H94	H	0.923347	0.616962	0.088338
	H95	H	0.915663	0.387581	0.894251
	H96	H	0.427949	0.115342	0.586912
	H97	H	0.599840	0.885926	0.591296
	H98	H	0.598781	0.116115	0.409433
	H99	H	0.407780	0.884851	0.389850
	H100	H	0.599111	0.407169	0.108899
	H101	H	0.594096	0.602265	0.874258
	H102	H	0.419487	0.595295	0.106883
	H103	H	0.415884	0.411375	0.874647
	H104	H	0.126073	0.601324	0.406887
	H105	H	0.884768	0.598754	0.590013
	H106	H	0.125044	0.414074	0.585160
	H107	H	0.889405	0.414708	0.403708
	H108	H	0.910927	0.618726	0.078489
	H109	H	0.102717	0.386087	0.091759
	H110	H	0.097199	0.623136	0.885624
	H111	H	0.914308	0.388908	0.898914
	H112	H	0.098836	0.902131	0.612098
	H113	H	0.096428	0.103075	0.374027
	H114	H	0.925121	0.109588	0.609138
	H115	H	0.911343	0.894518	0.368530
	H116	H	0.627866	0.097185	0.897957
	H117	H	0.390526	0.084600	0.085347
	H118	H	0.626546	0.914096	0.086860
	H119	H	0.387624	0.906668	0.903507
	C120	C	0.385399	0.011256	0.613336
	C121	C	0.629790	0.994608	0.614702
	C122	C	0.628271	0.011886	0.368942
	C123	C	0.383822	0.995331	0.367367
	C124	C	0.628474	0.382263	-0.000574
	C125	C	0.628446	0.627073	0.982485
	C126	C	0.386220	0.626994	0.000232
	C127	C	0.386365	0.382386	0.982518
	C128	C	0.016747	0.624391	0.372043
	C129	C	0.996952	0.624803	0.612626
	C130	C	0.015132	0.382820	0.612823
	C131	C	0.997585	0.382585	0.371010
	C132	C	0.885367	0.511797	0.114356
	C133	C	0.130396	0.495604	0.114759
	C134	C	0.128300	0.512450	0.869465
	C135	C	0.884224	0.495460	0.868655
	C136	C	0.127842	0.882121	0.500924
	C137	C	0.127855	0.126681	0.483074
	C138	C	0.885213	0.126766	0.500461
	C139	C	0.886166	0.881703	0.482232
	C140	C	0.516864	0.124990	0.869966
	C141	C	0.498094	0.125407	0.111263
	C142	C	0.516316	0.883237	0.111851
	C143	C	0.497791	0.883048	0.870513
	C144	C	0.387503	0.889002	0.668265
	C145	C	0.628482	0.116886	0.670103
	C146	C	0.626417	0.889783	0.313475
	C147	C	0.384698	0.117302	0.311708
	C148	C	0.682237	0.386613	0.875439
	C149	C	0.682459	0.621864	0.107063
	C150	C	0.330855	0.622665	0.876330
	C151	C	0.332922	0.387123	0.106818
	C152	C	0.891311	0.679453	0.372581
	C153	C	0.121522	0.680179	0.612748
	C154	C	0.890312	0.327956	0.610962
	C155	C	0.122543	0.326890	0.372584
	C156	C	0.889829	0.385533	0.666768
	C157	C	0.122273	0.621681	0.667801
	C158	C	0.891513	0.621974	0.316340
	C159	C	0.123433	0.384810	0.317238
	C160	C	0.386362	0.682073	0.877162
	C161	C	0.628181	0.682403	0.106027
	C162	C	0.629223	0.325360	0.876957
	C163	C	0.387156	0.326285	0.105121
	C164	C	0.682710	0.888921	0.373239
	C165	C	0.683793	0.117814	0.609737
	C166	C	0.331104	0.888383	0.608604
	C167	C	0.329005	0.118012	0.371833
	C168	C	0.887925	0.389179	0.168735
	C169	C	0.128609	0.617893	0.170414
	C170	C	0.126403	0.389840	0.814641
	C171	C	0.885261	0.617464	0.813479
	C172	C	0.180711	0.886590	0.376293
	C173	C	0.182974	0.121949	0.607047
	C174	C	0.830924	0.121419	0.376031
	C175	C	0.832482	0.886770	0.606762
	C176	C	0.392045	0.181059	0.870022
	C177	C	0.623219	0.180472	0.111163
	C178	C	0.391465	0.828075	0.110545
	C179	C	0.623117	0.827850	0.872061
	C180	C	0.390503	0.886214	0.165323
	C181	C	0.623006	0.123128	0.167904
	C182	C	0.391373	0.122733	0.814815
	C183	C	0.623226	0.885357	0.816029
	C184	C	0.885320	0.182207	0.377267
	C185	C	0.127669	0.182083	0.606378
	C186	C	0.127585	0.825247	0.378308
	C187	C	0.885821	0.825836	0.605362
	C188	C	0.183167	0.389549	0.873705
	C189	C	0.184204	0.618858	0.110233
	C190	C	0.830570	0.389049	0.109709
	C191	C	0.830046	0.618692	0.873604
	C192	C	0.408225	0.096847	0.591362
	C193	C	0.607461	0.909159	0.593188
	C194	C	0.605775	0.097605	0.390603
	C195	C	0.406409	0.909500	0.388491
	C196	C	0.605365	0.404000	0.085622
	C197	C	0.605678	0.605909	0.896281
	C198	C	0.408912	0.605777	0.086741
	C199	C	0.408657	0.404098	0.896269
	C200	C	0.103786	0.602398	0.395416
	C201	C	0.909525	0.603033	0.589771
	C202	C	0.102714	0.404433	0.590689
	C203	C	0.910340	0.404938	0.392780
	C204	C	0.907830	0.597402	0.093040
	C205	C	0.108502	0.409746	0.093451
	C206	C	0.105609	0.598184	0.891113
	C207	C	0.906813	0.409643	0.890166
	C208	C	0.105307	0.903701	0.587003
	C209	C	0.104411	0.105153	0.397007
	C210	C	0.908054	0.105839	0.586613
	C211	C	0.908289	0.902326	0.395958
	C212	C	0.603751	0.102389	0.893028
	C213	C	0.411033	0.103669	0.087854
	C214	C	0.603650	0.905209	0.089758
	C215	C	0.410410	0.904803	0.892309
	Zn216	Zn	0.506898	0.003693	0.743364
	Zn217	Zn	0.506085	0.003646	0.238537
	Zn218	Zn	0.755987	0.503911	-0.008776
	Zn219	Zn	0.258547	0.504579	-0.008618
	Zn220	Zn	0.006891	0.752886	0.492312
	Zn221	Zn	0.006525	0.255913	0.491861
	Zn222	Zn	0.006024	0.503830	0.739706
	Zn223	Zn	0.008106	0.503740	0.244439
	Zn224	Zn	0.507194	0.755752	-0.008551
	Zn225	Zn	0.508211	0.253061	-0.009731
	Zn226	Zn	0.758007	0.003284	0.491381
	Zn227	Zn	0.255781	0.003467	0.491265
	N228	N	0.420354	0.966632	0.671207
	N229	N	0.595533	0.039424	0.673176
	N230	N	0.593210	0.967318	0.310696
	N231	N	0.418109	0.039929	0.308873
	N232	N	0.682024	0.421195	0.952581
	N233	N	0.682797	0.588170	0.029446
	N234	N	0.330856	0.588959	0.953873
	N235	N	0.332346	0.421241	0.029562
	N236	N	0.970130	0.681157	0.406684
	N237	N	0.042628	0.682375	0.579246
	N238	N	0.969442	0.326044	0.578166
	N239	N	0.043236	0.325194	0.405029
	N240	N	0.968557	0.419037	0.667975
	N241	N	0.043671	0.587863	0.667798
	N242	N	0.970350	0.588220	0.316075
	N243	N	0.044798	0.418859	0.316126
	N244	N	0.419771	0.685015	0.955259
	N245	N	0.595149	0.685750	0.027710
	N246	N	0.596183	0.322856	0.955134
	N247	N	0.419933	0.323432	0.026792
	N248	N	0.684100	0.965945	0.406924
	N249	N	0.684805	0.040829	0.575927
	N250	N	0.330039	0.965474	0.574975
	N251	N	0.328694	0.041191	0.405825
	N252	N	0.921114	0.466697	0.172002
	N253	N	0.095930	0.540316	0.173393
	N254	N	0.093332	0.467336	0.811623
	N255	N	0.918129	0.539824	0.810414
	N256	N	0.180992	0.921253	0.453483
	N257	N	0.183187	0.088184	0.529461
	N258	N	0.830520	0.087776	0.453713
	N259	N	0.832310	0.920737	0.529298
	N260	N	0.470958	0.182618	0.903646
	N261	N	0.544638	0.182076	0.076704
	N262	N	0.470526	0.826181	0.077743
	N263	N	0.544132	0.826251	0.905437
	N264	N	0.469205	0.919901	0.166300
	N265	N	0.544325	0.089491	0.168245
	N266	N	0.469889	0.088426	0.814635
	N267	N	0.544461	0.919001	0.814908
	N268	N	0.918334	0.185563	0.455474
	N269	N	0.094181	0.185160	0.528308
	N270	N	0.095514	0.822159	0.456822
	N271	N	0.918544	0.822510	0.527135
	N272	N	0.184438	0.466779	0.907180
	N273	N	0.185307	0.541787	0.076296
	N274	N	0.828897	0.466298	0.076737
	N275	N	0.829251	0.541636	0.907274
	O276	O	1.031175	1.065168	0.041815
	H277	H	1.020577	1.065381	0.040617
	H278	H	1.025905	1.063390	0.044529
	O279	O	-0.005751	0.028833	0.987032
	H280	H	-0.007741	0.028857	0.983834
	H281	H	-0.011700	0.032028	0.990275
	O282	O	-0.038576	0.014208	0.016223
	H283	H	-0.034778	-0.000112	0.015711
	H284	H	-0.040266	0.013324	0.012416
	O285	O	0.479117	0.471834	0.591750
	H286	H	0.484214	0.473211	0.586767
	H287	H	0.482753	0.469374	0.591519
	O288	O	-0.206714	-0.299506	0.220716
	H289	H	-0.206226	-0.304611	0.220626
	H290	H	-0.206002	-0.304377	0.223291
	O291	O	0.042060	1.011392	-0.046911
	H292	H	0.033570	1.015541	-0.043734
	H293	H	0.048497	1.014452	-0.049810
	O294	O	0.021295	0.997919	-0.037041
	H295	H	0.024225	1.001528	-0.026631
	H296	H	0.019938	1.003432	-0.036598
	O297	O	0.503200	0.438797	0.470065
	H298	H	0.508249	0.447722	0.470707
	H299	H	0.489797	0.441192	0.474399
	O300	O	0.505183	0.530467	0.444120
	H301	H	0.505922	0.528459	0.448214
	H302	H	0.501972	0.540829	0.449703
	O303	O	0.958314	0.003333	0.987486
	H304	H	0.959218	0.002658	0.984844
	H305	H	0.969244	0.005100	0.984723
	O306	O	0.057241	0.994962	0.978135
	H307	H	0.056372	0.999911	0.987267
	H308	H	0.050550	0.993603	0.981146
	O309	O	0.000867	1.042847	1.021370
	H310	H	0.001662	1.046429	1.023671
	H311	H	0.011075	1.037860	1.022068
	O312	O	0.047556	0.017857	1.006602
	H313	H	0.048340	0.022600	1.013641
	H314	H	0.044798	0.021145	1.004856
	O315	O	0.486836	0.534244	0.448197
	H316	H	0.493150	0.540172	0.437340
	H317	H	0.487240	0.536106	0.443171
	O318	O	-0.061944	0.039043	0.944324
	H319	H	-0.060709	0.036742	0.941641
	H320	H	-0.061660	0.031015	0.934041
	O321	O	0.511310	0.472181	0.395918
	H322	H	0.506317	0.472776	0.391355
	H323	H	0.513150	0.470311	0.409429
	O324	O	0.554057	-0.455825	1.527649
	H325	H	0.554688	-0.457869	1.528665
	H326	H	0.554688	-0.463832	1.534990
	O327	O	0.981677	0.900667	0.985947
	H328	H	0.984125	0.904706	0.980904
	H329	H	0.979157	0.901214	0.991681
	O330	O	0.518242	0.494224	0.498669
	H331	H	0.511329	0.495298	0.500737
	H332	H	0.523074	0.494179	0.497338
	O333	O	0.512976	0.452924	0.477932
	H334	H	0.515330	0.447389	0.466690
	H335	H	0.517954	0.442558	0.480046
	O336	O	0.521684	0.438133	0.457351
	H337	H	0.525635	0.433464	0.440398
	H338	H	0.517275	0.433483	0.452270
	O339	O	0.557489	0.444608	0.483252
	H340	H	0.562853	0.434915	0.480595
	H341	H	0.549607	0.453506	0.483989
	O342	O	0.501978	0.429642	0.470021
	H343	H	0.500488	0.424998	0.459298
	H344	H	0.502008	0.424270	0.482616
	O345	O	0.488338	0.496594	0.519736
	H346	H	0.485862	0.500056	0.520723
	H347	H	0.501192	0.497574	0.516789
