data_Molecule from HDF5

_cell_length_a		16.403195
_cell_length_b		16.514155
_cell_length_c		16.525189
_cell_angle_alpha	90.020939
_cell_angle_beta	90.051742
_cell_angle_gamma	89.905165
_symmetry_space_group_name_H-M	'P 1'
_symmetry_Int_Tables_number		1

loop_
	_symmetry_equiv_pos_as_xyz
	x,y,z

loop_
	_atom_site_label
	_atom_site_type_symbol
	_atom_site_fract_x
	_atom_site_fract_y
	_atom_site_fract_z
	H0	H	0.388859	0.848971	0.749082
	H1	H	0.606879	0.160230	0.747204
	H2	H	0.603250	0.847824	0.300233
	H3	H	0.387921	0.160149	0.298724
	H4	H	0.719212	0.399549	0.865270
	H5	H	0.718263	0.608145	0.179802
	H6	H	0.272967	0.613279	0.867284
	H7	H	0.274400	0.398396	0.179343
	H8	H	0.842601	0.726680	0.416110
	H9	H	0.155924	0.729588	0.632390
	H10	H	0.841775	0.283216	0.627782
	H11	H	0.156374	0.280015	0.414542
	H12	H	0.842348	0.399047	0.743689
	H13	H	0.156285	0.614021	0.747865
	H14	H	0.842158	0.610078	0.301067
	H15	H	0.157045	0.396646	0.299089
	H16	H	0.388021	0.730148	0.866638
	H17	H	0.606811	0.729608	0.176845
	H18	H	0.604256	0.281990	0.866215
	H19	H	0.391161	0.282611	0.179665
	H20	H	0.718781	0.846868	0.418176
	H21	H	0.722320	0.159654	0.631161
	H22	H	0.276868	0.845908	0.629170
	H23	H	0.273454	0.159816	0.416452
	H24	H	0.892542	0.347901	0.245133
	H25	H	0.106817	0.660791	0.247391
	H26	H	0.108870	0.348626	0.797780
	H27	H	0.892161	0.661775	0.800438
	H28	H	0.222593	0.894376	0.366581
	H29	H	0.222270	0.110411	0.679220
	H30	H	0.775855	0.109353	0.365644
	H31	H	0.775050	0.896857	0.679369
	H32	H	0.339206	0.226865	0.917332
	H33	H	0.656348	0.224780	0.127330
	H34	H	0.341307	0.780694	0.129945
	H35	H	0.654804	0.780948	0.913040
	H36	H	0.340458	0.896849	0.244363
	H37	H	0.654829	0.110773	0.245421
	H38	H	0.339928	0.114033	0.798459
	H39	H	0.655605	0.899171	0.800639
	H40	H	0.891331	0.227258	0.366077
	H41	H	0.108129	0.228040	0.679082
	H42	H	0.107662	0.779050	0.367140
	H43	H	0.889630	0.778717	0.678321
	H44	H	0.222777	0.347897	0.915904
	H45	H	0.221326	0.661884	0.129866
	H46	H	0.778616	0.346933	0.125830
	H47	H	0.778451	0.662715	0.918825
	H48	H	0.409846	0.115335	0.610498
	H49	H	0.584486	0.892282	0.613423
	H50	H	0.585433	0.116966	0.434285
	H51	H	0.405585	0.889004	0.431315
	H52	H	0.592287	0.416810	0.135902
	H53	H	0.592774	0.591781	0.908118
	H54	H	0.408603	0.588718	0.133446
	H55	H	0.406830	0.415124	0.908973
	H56	H	0.110406	0.587167	0.438426
	H57	H	0.887696	0.590453	0.609460
	H58	H	0.111877	0.418256	0.608806
	H59	H	0.889785	0.422225	0.436761
	H60	H	0.113329	0.416413	0.611913
	H61	H	0.887239	0.591652	0.611450
	H62	H	0.113974	0.590830	0.431556
	H63	H	0.884226	0.416300	0.427079
	H64	H	0.416814	0.592190	0.131414
	H65	H	0.583113	0.590872	0.911430
	H66	H	0.584859	0.416831	0.133577
	H67	H	0.411531	0.422289	0.913662
	H68	H	0.586063	0.116703	0.433784
	H69	H	0.583677	0.893170	0.610210
	H70	H	0.412496	0.114405	0.609637
	H71	H	0.415236	0.891653	0.428872
	H72	H	0.908510	0.618984	0.115761
	H73	H	0.089868	0.390286	0.116443
	H74	H	0.077098	0.614807	0.930141
	H75	H	0.914455	0.392339	0.929098
	H76	H	0.083845	0.914650	0.634038
	H77	H	0.088850	0.096859	0.408540
	H78	H	0.909324	0.093506	0.635073
	H79	H	0.906664	0.916758	0.410645
	H80	H	0.613382	0.091907	0.924895
	H81	H	0.384404	0.094759	0.107639
	H82	H	0.610857	0.917530	0.111483
	H83	H	0.385010	0.918968	0.933955
	H84	H	0.610104	0.916794	0.108373
	H85	H	0.385148	0.090804	0.110479
	H86	H	0.611648	0.102417	0.939309
	H87	H	0.385266	0.916212	0.936306
	H88	H	0.910884	0.092408	0.633601
	H89	H	0.087780	0.085627	0.412695
	H90	H	0.087416	0.916151	0.635245
	H91	H	0.912537	0.918330	0.412959
	H92	H	0.084381	0.612320	0.943886
	H93	H	0.077312	0.396088	0.111127
	H94	H	0.912217	0.617163	0.112477
	H95	H	0.910263	0.393529	0.937326
	H96	H	0.410270	0.114624	0.607995
	H97	H	0.586374	0.892033	0.610608
	H98	H	0.585610	0.116876	0.433263
	H99	H	0.411951	0.893085	0.438177
	H100	H	0.587988	0.411274	0.136816
	H101	H	0.586311	0.599739	0.907505
	H102	H	0.410612	0.597769	0.135586
	H103	H	0.415512	0.413768	0.912105
	H104	H	0.113086	0.595191	0.438844
	H105	H	0.887886	0.592845	0.609189
	H106	H	0.113059	0.414679	0.609138
	H107	H	0.886448	0.409662	0.437993
	H108	H	0.907349	0.617603	0.111167
	H109	H	0.089817	0.395245	0.103139
	H110	H	0.092452	0.619146	0.932094
	H111	H	0.905534	0.390109	0.930397
	H112	H	0.085367	0.918616	0.632955
	H113	H	0.078218	0.093057	0.413810
	H114	H	0.911520	0.094014	0.634686
	H115	H	0.911727	0.912643	0.410783
	H116	H	0.605942	0.085334	0.939593
	H117	H	0.382806	0.095383	0.112645
	H118	H	0.609703	0.919483	0.109399
	H119	H	0.387113	0.918670	0.936574
	C120	C	0.377329	0.011742	0.643451
	C121	C	0.618809	0.995669	0.644563
	C122	C	0.618516	0.012870	0.401434
	C123	C	0.375995	0.994948	0.400114
	C124	C	0.620495	0.382609	0.031593
	C125	C	0.620056	0.626516	1.012791
	C126	C	0.377378	0.626413	0.030671
	C127	C	0.377150	0.384016	1.014812
	C128	C	0.008282	0.624384	0.402805
	C129	C	0.991243	0.625931	0.644016
	C130	C	0.008205	0.383881	0.642799
	C131	C	0.991028	0.382789	0.400924
	C132	C	0.877503	0.513550	0.144663
	C133	C	0.119650	0.496855	0.144022
	C134	C	0.120208	0.512818	0.901118
	C135	C	0.877202	0.495992	0.900375
	C136	C	0.119827	0.882151	0.531222
	C137	C	0.119555	0.125156	0.514815
	C138	C	0.876576	0.126406	0.531114
	C139	C	0.876794	0.882190	0.514445
	C140	C	0.506090	0.126584	0.901304
	C141	C	0.488517	0.126207	0.143726
	C142	C	0.506306	0.884369	0.142580
	C143	C	0.489376	0.884281	0.901418
	C144	C	0.372389	0.895132	0.706746
	C145	C	0.623667	0.113482	0.706055
	C146	C	0.621404	0.894853	0.340708
	C147	C	0.371187	0.113045	0.339511
	C148	C	0.679885	0.380924	0.912838
	C149	C	0.679197	0.627686	0.131985
	C150	C	0.314458	0.630456	0.913591
	C151	C	0.315323	0.380669	0.132431
	C152	C	0.889575	0.685733	0.399071
	C153	C	0.108859	0.688487	0.649254
	C154	C	0.889438	0.323382	0.646042
	C155	C	0.109456	0.320767	0.397155
	C156	C	0.889298	0.381181	0.703408
	C157	C	0.109098	0.630670	0.706694
	C158	C	0.889508	0.627977	0.341642
	C159	C	0.109412	0.378784	0.339449
	C160	C	0.371723	0.688907	0.913649
	C161	C	0.623717	0.688022	0.130624
	C162	C	0.622477	0.322535	0.913205
	C163	C	0.373252	0.322805	0.132608
	C164	C	0.678758	0.894361	0.399486
	C165	C	0.681145	0.113070	0.648101
	C166	C	0.316400	0.893626	0.646999
	C167	C	0.314039	0.112717	0.398059
	C168	C	0.874365	0.395092	0.204913
	C169	C	0.123970	0.614225	0.206263
	C170	C	0.125606	0.395562	0.838947
	C171	C	0.874288	0.614390	0.840428
	C172	C	0.181980	0.877314	0.413699
	C173	C	0.182105	0.128741	0.632005
	C174	C	0.815873	0.128457	0.413051
	C175	C	0.815258	0.878651	0.631995
	C176	C	0.387077	0.187459	0.898513
	C177	C	0.608242	0.185684	0.146286
	C178	C	0.388348	0.822023	0.146952
	C179	C	0.607468	0.821947	0.896413
	C180	C	0.387847	0.879895	0.204056
	C181	C	0.607474	0.128801	0.204914
	C182	C	0.387422	0.130991	0.839488
	C183	C	0.608085	0.880884	0.840305
	C184	C	0.873353	0.187020	0.413143
	C185	C	0.125027	0.187458	0.631993
	C186	C	0.124576	0.819761	0.414056
	C187	C	0.872519	0.819876	0.631508
	C188	C	0.182128	0.395076	0.898140
	C189	C	0.180950	0.614775	0.147717
	C190	C	0.817869	0.394490	0.145492
	C191	C	0.817751	0.615069	0.899446
	C192	C	0.403492	0.093520	0.617051
	C193	C	0.592234	0.913946	0.618830
	C194	C	0.593003	0.095351	0.426549
	C195	C	0.403053	0.912702	0.425450
	C196	C	0.595348	0.407607	0.113998
	C197	C	0.594654	0.601354	0.930541
	C198	C	0.404449	0.600311	0.112299
	C199	C	0.403617	0.409693	0.932875
	C200	C	0.090788	0.598606	0.428795
	C201	C	0.909206	0.599212	0.617589
	C202	C	0.090967	0.409265	0.617185
	C203	C	0.908261	0.408847	0.426678
	C204	C	0.902316	0.596154	0.120346
	C205	C	0.093270	0.415151	0.117570
	C206	C	0.092648	0.594301	0.927708
	C207	C	0.902783	0.413662	0.925136
	C208	C	0.093078	0.908836	0.612724
	C209	C	0.092584	0.099150	0.433065
	C210	C	0.902927	0.100751	0.613072
	C211	C	0.902705	0.908436	0.432757
	C212	C	0.588524	0.100648	0.927065
	C213	C	0.405676	0.100868	0.117936
	C214	C	0.588607	0.910493	0.116973
	C215	C	0.407274	0.910589	0.927882
	Zn216	Zn	0.497596	0.004887	0.773337
	Zn217	Zn	0.497381	0.004550	0.271462
	Zn218	Zn	0.749172	0.504694	0.022346
	Zn219	Zn	0.248459	0.505043	0.023126
	Zn220	Zn	-0.000735	0.753774	0.522500
	Zn221	Zn	-0.000766	0.254698	0.522500
	Zn222	Zn	-0.000837	0.504516	0.771915
	Zn223	Zn	-0.000373	0.504515	0.273319
	Zn224	Zn	0.498321	0.755855	0.021999
	Zn225	Zn	0.497668	0.254559	0.023065
	Zn226	Zn	0.747714	0.004255	0.522966
	Zn227	Zn	0.247829	0.002621	0.522677
	N228	N	0.409440	0.969643	0.704783
	N229	N	0.585658	0.039570	0.703993
	N230	N	0.584874	0.969811	0.341587
	N231	N	0.408639	0.038581	0.340415
	N232	N	0.679081	0.417502	0.987602
	N233	N	0.677184	0.590358	0.057755
	N234	N	0.317725	0.592336	0.987446
	N235	N	0.317841	0.418134	0.058240
	N236	N	0.964333	0.683691	0.436411
	N237	N	0.034545	0.685704	0.611030
	N238	N	0.964406	0.324917	0.609117
	N239	N	0.034649	0.323079	0.434614
	N240	N	0.964342	0.418078	0.701691
	N241	N	0.034842	0.592343	0.703659
	N242	N	0.964247	0.590388	0.343905
	N243	N	0.034720	0.416464	0.341787
	N244	N	0.410236	0.686445	0.987488
	N245	N	0.587845	0.687659	0.055366
	N246	N	0.586389	0.323367	0.988112
	N247	N	0.410709	0.324586	0.058265
	N248	N	0.677256	0.968841	0.436370
	N249	N	0.678541	0.038713	0.610616
	N250	N	0.319543	0.967137	0.608154
	N251	N	0.316686	0.038133	0.434785
	N252	N	0.910571	0.469963	0.204668
	N253	N	0.086678	0.539890	0.204156
	N254	N	0.087787	0.469909	0.840587
	N255	N	0.910633	0.539300	0.840798
	N256	N	0.179039	0.915612	0.487470
	N257	N	0.178972	0.090719	0.558171
	N258	N	0.817644	0.091663	0.487524
	N259	N	0.817613	0.916610	0.558169
	N260	N	0.461855	0.185042	0.935951
	N261	N	0.533239	0.184190	0.109121
	N262	N	0.462980	0.824532	0.109425
	N263	N	0.532590	0.823588	0.933448
	N264	N	0.462189	0.918267	0.201374
	N265	N	0.531835	0.092895	0.203702
	N266	N	0.462655	0.093996	0.840727
	N267	N	0.533546	0.918825	0.843242
	N268	N	0.910310	0.185970	0.487777
	N269	N	0.086853	0.185218	0.557890
	N270	N	0.086675	0.822743	0.488129
	N271	N	0.910006	0.821964	0.557354
	N272	N	0.178835	0.469092	0.936022
	N273	N	0.178544	0.540648	0.109805
	N274	N	0.819452	0.469207	0.108759
	N275	N	0.819394	0.540484	0.936048
	O276	O	0.185603	0.194757	0.210832
	H277	H	0.167530	0.193366	0.214945
	H278	H	0.188696	0.182922	0.200280
	O279	O	0.974502	0.795373	0.236140
	H280	H	0.954612	0.778128	0.248534
	H281	H	0.953098	0.799831	0.236866
	O282	O	0.598256	0.386037	0.593730
	H283	H	0.606223	0.374570	0.584637
	H284	H	0.607717	0.400308	0.584377
	O285	O	0.337060	0.326257	0.694508
	H286	H	0.326661	0.365839	0.710829
	H287	H	0.372725	0.325724	0.701210
	O288	O	0.214148	0.020981	-0.006652
	H289	H	0.218829	0.010885	0.001500
	H290	H	0.216420	0.031248	0.024312
	O291	O	1.214153	1.029758	0.244347
	H292	H	1.250593	1.033166	0.281835
	H293	H	1.194279	1.026423	0.235513
	O294	O	0.025467	1.101627	-0.178469
	H295	H	0.016620	1.101753	-0.164247
	H296	H	0.046079	1.093259	-0.179722
	O297	O	0.486660	0.287437	0.718959
	H298	H	0.493085	0.282290	0.711341
	H299	H	0.495053	0.272980	0.736811
	O300	O	0.440477	0.445855	0.347361
	H301	H	0.441357	0.447348	0.352963
	H302	H	0.456820	0.436850	0.358569
	O303	O	0.600180	0.704742	0.560302
	H304	H	0.594060	0.709110	0.551446
	H305	H	0.597161	0.711654	0.572242
	O306	O	0.037442	0.936719	1.197535
	H307	H	0.037398	0.942025	1.182280
	H308	H	0.031861	0.922515	1.210607
	O309	O	0.493580	0.676213	0.316001
	H310	H	0.499781	0.670650	0.303018
	H311	H	0.503168	0.669199	0.328420
	O312	O	0.011673	0.867507	-0.011146
	H313	H	0.013365	0.876984	-0.009882
	H314	H	0.010567	0.873459	-0.018067
	O315	O	-0.172421	-0.140123	0.914121
	H316	H	-0.177702	-0.128123	0.921072
	H317	H	-0.159711	-0.130100	0.907954
	O318	O	0.293427	0.636490	0.550656
	H319	H	0.297917	0.645557	0.543629
	H320	H	0.293704	0.643200	0.533597
	O321	O	0.676777	0.512942	0.735131
	H322	H	0.688664	0.526957	0.739668
	H323	H	0.687419	0.506687	0.737566
	O324	O	0.792347	0.215422	0.810936
	H325	H	0.820261	0.216753	0.821786
	H326	H	0.807063	0.192854	0.824596
	O327	O	1.197743	0.221100	1.052302
	H328	H	1.219969	0.244682	1.047186
	H329	H	1.180009	0.211962	1.065977
	O330	O	0.288687	0.471016	-0.264100
	H331	H	0.281119	0.494553	-0.275031
	H332	H	0.264360	0.479851	-0.256524
	O333	O	1.067955	0.949594	1.027324
	H334	H	1.057564	0.945210	1.019896
	H335	H	1.082032	0.943376	1.029493
	O336	O	0.518318	-0.492427	0.708518
	H337	H	0.532788	-0.516464	0.700251
	H338	H	0.515689	-0.500301	0.715739
	O339	O	0.581206	0.583924	0.314719
	H340	H	0.568665	0.574668	0.323034
	H341	H	0.564132	0.582597	0.325773
	O342	O	0.789316	0.210852	0.165190
	H343	H	0.790841	0.240410	0.169508
	H344	H	0.775723	0.197211	0.161134
	O345	O	0.613168	0.642200	0.522519
	H346	H	0.622000	0.661544	0.522974
	H347	H	0.596689	0.630790	0.522245
	O348	O	1.187624	-0.183036	0.831779
	H349	H	1.196409	-0.189779	0.884179
	H350	H	1.168479	-0.156180	0.822922
	O351	O	1.014814	1.060123	0.063556
	H352	H	1.010151	1.064869	0.077946
	H353	H	1.014931	1.053699	0.064727
	O354	O	0.497638	0.594979	0.490871
	H355	H	0.489609	0.591294	0.480478
	H356	H	0.496985	0.598812	0.498531
	O357	O	0.902638	1.071689	1.189956
	H358	H	0.909460	1.060712	1.194298
	H359	H	0.899833	1.056833	1.201170
	O360	O	0.289772	0.526985	0.309679
	H361	H	0.281441	0.520534	0.321515
	H362	H	0.289219	0.517042	0.290525
	O363	O	0.967939	-0.023119	0.099400
	H364	H	0.965780	-0.016742	0.101815
	H365	H	0.973134	-0.031550	0.097595
	O366	O	0.799840	0.213601	0.990669
	H367	H	0.787055	0.213933	0.996565
	H368	H	0.796939	0.213671	0.990913
	O369	O	0.674731	0.567028	-0.323215
	H370	H	0.679515	0.546670	-0.304757
	H371	H	0.660456	0.550537	-0.324363
	O372	O	0.523424	0.288962	0.306259
	H373	H	0.502478	0.278008	0.326345
	H374	H	0.519462	0.260550	0.292377
	O375	O	-0.293072	0.801156	1.277753
	H376	H	-0.305237	0.774762	1.282475
	H377	H	-0.295136	0.791036	1.289323
	O378	O	0.310331	0.691068	0.338563
	H379	H	0.333411	0.680434	0.335772
	H380	H	0.322965	0.666359	0.333470
	O381	O	1.212780	-0.019619	-0.193787
	H382	H	1.204482	-0.023892	-0.170930
	H383	H	1.246233	-0.018688	-0.218553
	O384	O	-0.012069	0.217466	0.837471
	H385	H	0.001494	0.215497	0.820050
	H386	H	-0.008799	0.221499	0.839065
	O387	O	-0.113645	0.972247	1.016380
	H388	H	-0.105309	0.987078	1.018267
	H389	H	-0.125686	0.970839	1.025249
	O390	O	-0.202670	0.071567	1.211706
	H391	H	-0.202250	0.062311	1.217089
	H392	H	-0.199468	0.059185	1.223479
	O393	O	0.714467	0.616847	-0.489668
	H394	H	0.712551	0.617652	-0.461090
	H395	H	0.723805	0.628415	-0.477900
	O396	O	0.714498	0.511691	0.380405
	H397	H	0.722852	0.513171	0.392350
	H398	H	0.717778	0.521942	0.385940
	O399	O	0.348015	0.650113	0.605343
	H400	H	0.350219	0.640484	0.586480
	H401	H	0.325057	0.672602	0.598026
	O402	O	-0.058782	-0.056827	0.793182
	H403	H	-0.051686	-0.066273	0.788108
	H404	H	-0.054130	-0.057404	0.796863
	O405	O	0.172600	-0.092841	0.119502
	H406	H	0.161352	-0.084926	0.121980
	H407	H	0.168179	-0.091292	0.136670
	O408	O	0.799925	0.805234	0.223910
	H409	H	0.798029	0.797467	0.176794
	H410	H	0.775289	0.782862	0.249702
	O411	O	-0.032590	1.184402	0.064257
	H412	H	-0.036364	1.182728	0.061895
	H413	H	-0.038212	1.197004	0.071387
	O414	O	0.400030	0.463376	0.481986
	H415	H	0.403341	0.448334	0.476660
	H416	H	0.398441	0.468093	0.478651
	O417	O	0.368542	0.721861	0.542027
	H418	H	0.372729	0.713928	0.541216
	H419	H	0.337104	0.732390	0.537311
	O420	O	0.494062	0.321639	0.478711
	H421	H	0.493532	0.320604	0.511352
	H422	H	0.484323	0.314344	0.498095
	O423	O	0.195201	0.799655	-0.006510
	H424	H	0.169971	0.800844	0.015409
	H425	H	0.208020	0.778296	0.007877
	O426	O	1.104663	1.188383	0.947767
	H427	H	1.117237	1.178371	0.952883
	H428	H	1.100847	1.180365	0.955133
	O429	O	0.712944	0.282723	0.501720
	H430	H	0.716030	0.278660	0.464801
	H431	H	0.735230	0.271057	0.485391
	O432	O	0.698964	0.387043	0.327137
	H433	H	0.688989	0.397963	0.342169
	H434	H	0.701434	0.406702	0.308482
	O435	O	0.019768	0.201395	0.222985
	H436	H	0.017054	0.190635	0.220100
	H437	H	0.028804	0.212028	0.236223
	O438	O	1.021972	-0.205041	-0.187392
	H439	H	1.032329	-0.205352	-0.188214
	H440	H	1.025648	-0.214173	-0.200250
	O441	O	0.786892	0.790880	0.057858
	H442	H	0.776246	0.795999	0.045440
	H443	H	0.773538	0.792167	0.041433
	O444	O	0.502306	0.510540	0.706908
	H445	H	0.514027	0.500877	0.699072
	H446	H	0.495964	0.497509	0.710747
	O447	O	0.505325	0.416813	0.550214
	H448	H	0.507725	0.423967	0.565869
	H449	H	0.523412	0.412971	0.548297
	O450	O	0.521374	0.717453	0.734831
	H451	H	0.509623	0.720898	0.750597
	H452	H	0.502933	0.706698	0.751900
	O453	O	0.646966	0.456658	0.610444
	H454	H	0.652329	0.431667	0.628038
	H455	H	0.637225	0.456388	0.604898
	O456	O	0.865592	-0.078656	0.035110
	H457	H	0.852703	-0.083483	0.037737
	H458	H	0.859314	-0.067221	0.015818
	O459	O	0.345954	0.454185	0.415389
	H460	H	0.343564	0.460958	0.440100
	H461	H	0.354908	0.427984	0.428678
	O462	O	0.292842	0.291195	0.538220
	H463	H	0.277042	0.278345	0.557587
	H464	H	0.295252	0.285118	0.565567
	O465	O	0.790474	0.035637	-0.182493
	H466	H	0.787992	0.046965	-0.195219
	H467	H	0.799548	0.031739	-0.192122
