data_Molecule from HDF5

_cell_length_a		16.292452
_cell_length_b		16.382011
_cell_length_c		16.486431
_cell_angle_alpha	89.927361
_cell_angle_beta	90.032132
_cell_angle_gamma	89.791727
_symmetry_space_group_name_H-M	'P 1'
_symmetry_Int_Tables_number		1

loop_
	_symmetry_equiv_pos_as_xyz
	x,y,z

loop_
	_atom_site_label
	_atom_site_type_symbol
	_atom_site_fract_x
	_atom_site_fract_y
	_atom_site_fract_z
	H0	H	0.389548	0.844102	0.717388
	H1	H	0.602706	0.161136	0.719426
	H2	H	0.603982	0.844962	0.274016
	H3	H	0.383924	0.159372	0.270433
	H4	H	0.715269	0.397673	0.838354
	H5	H	0.715435	0.607886	0.154640
	H6	H	0.272298	0.608745	0.836967
	H7	H	0.272239	0.399038	0.154718
	H8	H	0.834140	0.727143	0.391076
	H9	H	0.153891	0.722167	0.600524
	H10	H	0.834264	0.283918	0.601433
	H11	H	0.152804	0.283141	0.391636
	H12	H	0.834009	0.398589	0.717771
	H13	H	0.152202	0.608506	0.718079
	H14	H	0.834267	0.612249	0.274090
	H15	H	0.151912	0.395585	0.274682
	H16	H	0.386952	0.727461	0.838920
	H17	H	0.601463	0.726190	0.154214
	H18	H	0.598955	0.281653	0.838751
	H19	H	0.384942	0.278409	0.152965
	H20	H	0.718331	0.845774	0.391645
	H21	H	0.712789	0.164183	0.599553
	H22	H	0.276438	0.842972	0.598770
	H23	H	0.273459	0.162007	0.390730
	H24	H	0.885226	0.346591	0.221712
	H25	H	0.100055	0.662333	0.218291
	H26	H	0.098990	0.345873	0.775654
	H27	H	0.885787	0.663133	0.776083
	H28	H	0.215181	0.898767	0.337264
	H29	H	0.214470	0.106575	0.654767
	H30	H	0.770872	0.112736	0.338355
	H31	H	0.774124	0.901769	0.655649
	H32	H	0.333470	0.223115	0.891645
	H33	H	0.653840	0.223698	0.101215
	H34	H	0.334733	0.782806	0.101757
	H35	H	0.654989	0.782346	0.892737
	H36	H	0.336999	0.893932	0.219606
	H37	H	0.653888	0.109495	0.217997
	H38	H	0.334468	0.106997	0.775829
	H39	H	0.655449	0.897189	0.776347
	H40	H	0.886730	0.228915	0.339079
	H41	H	0.097719	0.223591	0.655400
	H42	H	0.100133	0.781181	0.338643
	H43	H	0.887275	0.782560	0.654963
	H44	H	0.213645	0.344577	0.891906
	H45	H	0.211111	0.664238	0.097629
	H46	H	0.775824	0.343131	0.100495
	H47	H	0.773349	0.663929	0.894665
	H48	H	0.408436	0.115869	0.585019
	H49	H	0.580657	0.890902	0.587327
	H50	H	0.578174	0.116799	0.405628
	H51	H	0.407509	0.889449	0.407758
	H52	H	0.583554	0.417202	0.109512
	H53	H	0.572882	0.595787	0.885962
	H54	H	0.406657	0.600849	0.110765
	H55	H	0.392839	0.415993	0.880527
	H56	H	0.108004	0.592215	0.406477
	H57	H	0.876503	0.597041	0.589825
	H58	H	0.106357	0.417563	0.584424
	H59	H	0.878475	0.421324	0.402714
	H60	H	0.108680	0.416957	0.591642
	H61	H	0.879187	0.594819	0.583095
	H62	H	0.107270	0.593986	0.408688
	H63	H	0.879429	0.411618	0.411911
	H64	H	0.395463	0.591328	0.110607
	H65	H	0.589003	0.598410	0.879969
	H66	H	0.579294	0.411923	0.108130
	H67	H	0.409819	0.421041	0.888092
	H68	H	0.579810	0.115182	0.408610
	H69	H	0.585445	0.890042	0.582572
	H70	H	0.403342	0.117430	0.584743
	H71	H	0.405105	0.889386	0.406610
	H72	H	0.901290	0.620518	0.092320
	H73	H	0.081037	0.389237	0.086485
	H74	H	0.085743	0.617666	0.912142
	H75	H	0.909285	0.390831	0.905902
	H76	H	0.083960	0.907024	0.611626
	H77	H	0.079180	0.094055	0.384178
	H78	H	0.897312	0.092743	0.610932
	H79	H	0.902143	0.915520	0.383115
	H80	H	0.607846	0.094627	0.910275
	H81	H	0.380093	0.091223	0.084216
	H82	H	0.613874	0.904312	0.089231
	H83	H	0.377876	0.914140	0.898090
	H84	H	0.603781	0.915459	0.072615
	H85	H	0.382008	0.090103	0.082190
	H86	H	0.607911	0.088482	0.906945
	H87	H	0.381566	0.909138	0.913904
	H88	H	0.909235	0.088216	0.605548
	H89	H	0.084359	0.097386	0.382234
	H90	H	0.090316	0.914953	0.611274
	H91	H	0.908633	0.921473	0.386925
	H92	H	0.084004	0.620700	0.899771
	H93	H	0.081207	0.390293	0.086588
	H94	H	0.913497	0.614127	0.086185
	H95	H	0.903009	0.391242	0.911135
	H96	H	0.406290	0.117648	0.588895
	H97	H	0.586799	0.888419	0.588832
	H98	H	0.582291	0.117856	0.405875
	H99	H	0.406940	0.889110	0.405040
	H100	H	0.585855	0.410925	0.110959
	H101	H	0.584461	0.582452	0.886841
	H102	H	0.408579	0.586981	0.105214
	H103	H	0.407202	0.403100	0.881085
	H104	H	0.106758	0.591083	0.409054
	H105	H	0.878942	0.590441	0.588767
	H106	H	0.109506	0.411059	0.586385
	H107	H	0.883672	0.423757	0.414182
	H108	H	0.900979	0.616536	0.078225
	H109	H	0.081327	0.390111	0.086734
	H110	H	0.074297	0.616419	0.906567
	H111	H	0.902352	0.388195	0.903910
	H112	H	0.081809	0.915794	0.607174
	H113	H	0.084726	0.090711	0.383186
	H114	H	0.908084	0.101674	0.610452
	H115	H	0.911073	0.912129	0.384302
	H116	H	0.610965	0.094256	0.904207
	H117	H	0.381304	0.088107	0.084251
	H118	H	0.607312	0.925484	0.092267
	H119	H	0.384853	0.925134	0.908527
	C120	C	0.374107	0.011587	0.617673
	C121	C	0.615945	0.995139	0.617742
	C122	C	0.615102	0.012029	0.374493
	C123	C	0.372613	0.993646	0.373572
	C124	C	0.615559	0.381039	0.005258
	C125	C	0.614789	0.624639	0.988385
	C126	C	0.371741	0.625727	0.004496
	C127	C	0.371162	0.381211	0.987570
	C128	C	0.002105	0.625947	0.375211
	C129	C	0.984268	0.625394	0.618360
	C130	C	0.002366	0.383103	0.619188
	C131	C	0.985321	0.384733	0.376702
	C132	C	0.872399	0.512132	0.118305
	C133	C	0.114086	0.495219	0.117972
	C134	C	0.113755	0.512856	0.874935
	C135	C	0.871865	0.495532	0.875193
	C136	C	0.116689	0.881005	0.504960
	C137	C	0.115387	0.125712	0.487739
	C138	C	0.872154	0.127251	0.504528
	C139	C	0.873857	0.884002	0.488947
	C140	C	0.503161	0.124588	0.874771
	C141	C	0.486433	0.123109	0.116536
	C142	C	0.503588	0.881600	0.117784
	C143	C	0.486764	0.882596	0.875018
	C144	C	0.371932	0.891762	0.677240
	C145	C	0.619339	0.114240	0.678442
	C146	C	0.620411	0.892711	0.314427
	C147	C	0.367558	0.112243	0.311725
	C148	C	0.675498	0.379286	0.886013
	C149	C	0.675692	0.626808	0.107248
	C150	C	0.311840	0.627648	0.885076
	C151	C	0.311330	0.379594	0.106856
	C152	C	0.881972	0.686948	0.372733
	C153	C	0.105411	0.683381	0.619597
	C154	C	0.882162	0.323279	0.620359
	C155	C	0.105017	0.323243	0.373688
	C156	C	0.882065	0.380501	0.678199
	C157	C	0.104512	0.626770	0.678103
	C158	C	0.882099	0.629797	0.314443
	C159	C	0.104515	0.379556	0.315506
	C160	C	0.368817	0.686773	0.885963
	C161	C	0.618374	0.685297	0.107039
	C162	C	0.617718	0.321275	0.886304
	C163	C	0.367782	0.319799	0.106018
	C164	C	0.677666	0.893109	0.372732
	C165	C	0.674060	0.115799	0.618489
	C166	C	0.315477	0.891185	0.618152
	C167	C	0.312321	0.113714	0.371542
	C168	C	0.868537	0.393432	0.179855
	C169	C	0.117377	0.614866	0.177897
	C170	C	0.116426	0.393166	0.815746
	C171	C	0.868242	0.615403	0.815970
	C172	C	0.175709	0.879919	0.385362
	C173	C	0.174894	0.125867	0.607162
	C174	C	0.811272	0.130423	0.385844
	C175	C	0.813646	0.882704	0.608049
	C176	C	0.381942	0.183807	0.872846
	C177	C	0.606119	0.183728	0.119245
	C178	C	0.383197	0.821795	0.119999
	C179	C	0.607138	0.822326	0.873768
	C180	C	0.384365	0.877160	0.179021
	C181	C	0.606203	0.126505	0.177299
	C182	C	0.382602	0.126236	0.815043
	C183	C	0.607259	0.879408	0.815924
	C184	C	0.869073	0.188393	0.386115
	C185	C	0.116798	0.184158	0.607574
	C186	C	0.118141	0.821469	0.385811
	C187	C	0.870243	0.823429	0.607681
	C188	C	0.173689	0.392698	0.873576
	C189	C	0.172772	0.615741	0.118005
	C190	C	0.813443	0.391964	0.119875
	C191	C	0.812086	0.615870	0.874784
	C192	C	0.398856	0.095339	0.593298
	C193	C	0.591482	0.911587	0.593333
	C194	C	0.588088	0.094700	0.399648
	C195	C	0.398797	0.910933	0.398986
	C196	C	0.590258	0.406216	0.087831
	C197	C	0.589328	0.599471	0.905643
	C198	C	0.396576	0.600436	0.087256
	C199	C	0.396261	0.406163	0.904696
	C200	C	0.085493	0.599760	0.400698
	C201	C	0.900127	0.601219	0.594116
	C202	C	0.086364	0.408135	0.594543
	C203	C	0.902179	0.411306	0.402298
	C204	C	0.897878	0.595412	0.092917
	C205	C	0.088609	0.411763	0.093709
	C206	C	0.088576	0.596578	0.899150
	C207	C	0.897514	0.411961	0.899769
	C208	C	0.092403	0.905528	0.588246
	C209	C	0.089991	0.101303	0.404833
	C210	C	0.897604	0.101599	0.587332
	C211	C	0.900033	0.909207	0.406243
	C212	C	0.587103	0.099636	0.899913
	C213	C	0.402868	0.097036	0.091026
	C214	C	0.586765	0.907405	0.092123
	C215	C	0.403207	0.908628	0.899735
	Zn216	Zn	0.495669	0.003144	0.746470
	Zn217	Zn	0.494489	0.002766	0.245588
	Zn218	Zn	0.744104	0.503309	-0.003000
	Zn219	Zn	0.242117	0.503624	-0.003601
	Zn220	Zn	-0.006613	0.753477	0.497386
	Zn221	Zn	-0.006004	0.256204	0.496518
	Zn222	Zn	-0.007559	0.504632	0.746809
	Zn223	Zn	-0.006649	0.503996	0.246891
	Zn224	Zn	0.494400	0.754266	-0.003745
	Zn225	Zn	0.493790	0.252765	-0.003878
	Zn226	Zn	0.744066	0.004847	0.496263
	Zn227	Zn	0.245260	0.003675	0.496066
	N228	N	0.407528	0.967702	0.677080
	N229	N	0.583801	0.038261	0.678019
	N230	N	0.582541	0.967690	0.315246
	N231	N	0.404117	0.036568	0.312557
	N232	N	0.674560	0.415683	0.961148
	N233	N	0.673518	0.589642	0.032644
	N234	N	0.313337	0.590414	0.959881
	N235	N	0.313540	0.417296	0.032379
	N236	N	0.957669	0.684743	0.409757
	N237	N	0.029597	0.682608	0.583303
	N238	N	0.958182	0.324739	0.584541
	N239	N	0.029855	0.326338	0.411173
	N240	N	0.957879	0.416934	0.677621
	N241	N	0.028058	0.591433	0.677455
	N242	N	0.957832	0.592624	0.315855
	N243	N	0.029149	0.417207	0.317371
	N244	N	0.405259	0.685794	0.961131
	N245	N	0.581246	0.684039	0.032121
	N246	N	0.581291	0.322220	0.961330
	N247	N	0.404227	0.320683	0.030814
	N248	N	0.674709	0.968376	0.409200
	N249	N	0.671958	0.040856	0.581077
	N250	N	0.316769	0.966717	0.581676
	N251	N	0.315444	0.039190	0.409387
	N252	N	0.904098	0.469390	0.179290
	N253	N	0.081734	0.538800	0.178111
	N254	N	0.079805	0.468942	0.816621
	N255	N	0.904609	0.539604	0.816225
	N256	N	0.174807	0.916573	0.460364
	N257	N	0.174153	0.090178	0.531662
	N258	N	0.813102	0.093053	0.460455
	N259	N	0.815764	0.919672	0.533157
	N260	N	0.458173	0.183205	0.908831
	N261	N	0.530504	0.181754	0.082329
	N262	N	0.458365	0.824362	0.082687
	N263	N	0.531176	0.824184	0.910037
	N264	N	0.460220	0.913667	0.177788
	N265	N	0.530354	0.089726	0.175817
	N266	N	0.459019	0.090545	0.815875
	N267	N	0.531323	0.916212	0.816642
	N268	N	0.906252	0.186356	0.460977
	N269	N	0.080551	0.184207	0.532366
	N270	N	0.082422	0.821904	0.461293
	N271	N	0.907016	0.824309	0.532572
	N272	N	0.172183	0.468154	0.909745
	N273	N	0.170963	0.540461	0.081641
	N274	N	0.815710	0.466901	0.082457
	N275	N	0.813778	0.539985	0.910544
	O276	O	0.030972	0.159557	1.194371
	H277	H	0.008621	0.136399	1.191047
	H278	H	0.029374	0.178246	1.197629
	O279	O	1.191403	-0.194112	0.887183
	H280	H	1.213728	-0.216467	0.901433
	H281	H	1.167011	-0.199224	0.903879
	O282	O	0.494758	0.457090	0.462169
	H283	H	0.492522	0.455157	0.454485
	H284	H	0.483448	0.452115	0.473964
	O285	O	0.627843	1.315700	-0.693585
	H286	H	0.642140	1.317307	-0.687184
	H287	H	0.644738	1.332902	-0.681198
	O288	O	0.292296	0.351956	0.629473
	H289	H	0.298740	0.345392	0.605747
	H290	H	0.284308	0.371217	0.622498
	O291	O	0.335948	0.514741	0.519724
	H292	H	0.334731	0.502639	0.508592
	H293	H	0.333011	0.517551	0.501895
	O294	O	1.140545	0.831119	0.876157
	H295	H	1.149010	0.830913	0.876121
	H296	H	1.149771	0.837475	0.896901
	O297	O	0.636576	0.408925	0.383738
	H298	H	0.647900	0.413305	0.386605
	H299	H	0.644176	0.397442	0.393506
	O300	O	0.913599	0.011750	0.801072
	H301	H	0.915163	0.009689	0.817147
	H302	H	0.921745	-0.011232	0.799420
	O303	O	0.400602	0.515819	0.335567
	H304	H	0.410629	0.514224	0.341858
	H305	H	0.386429	0.517536	0.332131
	O306	O	-0.075399	-0.086941	0.957334
	H307	H	-0.071755	-0.081860	0.955593
	H308	H	-0.078387	-0.071016	0.952845
	O309	O	0.908392	-0.089451	0.147729
	H310	H	0.900804	-0.072579	0.132162
	H311	H	0.900893	-0.099103	0.156920
	O312	O	0.627937	0.525495	0.408719
	H313	H	0.632615	0.534026	0.425542
	H314	H	0.617627	0.524696	0.417231
	O315	O	0.483912	0.292649	0.323955
	H316	H	0.500755	0.273737	0.306194
	H317	H	0.525239	0.297940	0.333170
	O318	O	-0.135199	0.105582	0.045121
	H319	H	-0.155919	0.104996	0.041806
	H320	H	-0.125979	0.106221	0.050469
	O321	O	0.342444	0.507230	0.705796
	H322	H	0.331998	0.509753	0.712989
	H323	H	0.332102	0.515979	0.686261
	O324	O	0.792246	-0.071424	1.202551
	H325	H	0.773994	-0.086742	1.206679
	H326	H	0.791850	-0.098393	1.197279
	O327	O	0.304223	0.354911	0.532930
	H328	H	0.299038	0.354901	0.517198
	H329	H	0.317065	0.343478	0.518764
	O330	O	-0.132333	0.879480	1.127642
	H331	H	-0.124529	0.874347	1.105628
	H332	H	-0.107966	0.873916	1.115954
	O333	O	0.350240	0.624239	-0.340349
	H334	H	0.360733	0.634009	-0.356118
	H335	H	0.349185	0.619482	-0.358633
	O336	O	1.197755	1.044999	0.202063
	H337	H	1.221987	1.046293	0.217837
	H338	H	1.190242	1.037570	0.190837
	O339	O	0.154385	1.192943	1.176584
	H340	H	0.120287	1.199692	1.175063
	H341	H	0.161239	1.164917	1.181161
	O342	O	0.139626	1.022407	-0.046730
	H343	H	0.146089	1.048734	-0.038475
	H344	H	0.138101	1.025601	-0.054739
	O345	O	0.076840	-0.033294	1.139519
	H346	H	0.072888	-0.026361	1.123262
	H347	H	0.069159	-0.013019	1.137426
	O348	O	0.300512	0.609224	0.370829
	H349	H	0.309996	0.611613	0.359979
	H350	H	0.316863	0.592225	0.365763
	O351	O	1.189682	1.208227	0.012782
	H352	H	1.205343	1.224441	0.007642
	H353	H	1.186940	1.204499	0.026927
	O354	O	0.992210	0.905568	0.904163
	H355	H	0.988282	0.904637	0.897163
	H356	H	1.010526	0.894410	0.890934
	O357	O	-0.145047	0.085157	-0.142479
	H358	H	-0.143886	0.060945	-0.135719
	H359	H	-0.130314	0.088798	-0.149969
	O360	O	0.487210	0.415625	0.565038
	H361	H	0.486353	0.427985	0.573867
	H362	H	0.473383	0.409212	0.551515
	O363	O	0.517109	-0.688729	-0.452449
	H364	H	0.512045	-0.693532	-0.443166
	H365	H	0.516908	-0.692496	-0.462187
	O366	O	-0.107490	0.055134	0.814273
	H367	H	-0.105143	0.049015	0.806518
	H368	H	-0.111647	0.048805	0.812015
	O369	O	0.914343	-0.076520	1.210076
	H370	H	0.916974	-0.091258	1.227968
	H371	H	0.900983	-0.080285	1.212458
	O372	O	0.493360	0.693781	0.475453
	H373	H	0.469685	0.696977	0.459224
	H374	H	0.507153	0.686524	0.454871
	O375	O	0.656271	0.508789	1.489384
	H376	H	0.646282	0.497151	1.495445
	H377	H	0.655552	0.511689	1.499441
	O378	O	0.528202	0.468630	0.715852
	H379	H	0.520602	0.472762	0.713401
	H380	H	0.522802	0.483763	0.720950
	O381	O	-0.077506	1.169512	-0.019712
	H382	H	-0.077193	1.169286	-0.017031
	H383	H	-0.071030	1.168080	-0.021961
	O384	O	0.698342	0.353370	0.484916
	H385	H	0.697743	0.341461	0.492991
	H386	H	0.699629	0.355027	0.516822
	O387	O	0.345528	0.407109	0.338480
	H388	H	0.358529	0.396064	0.331201
	H389	H	0.355194	0.406979	0.340808
	O390	O	0.521753	0.703479	0.327139
	H391	H	0.527537	0.683890	0.324327
	H392	H	0.537048	0.712884	0.324446
	O393	O	0.799453	0.096325	0.971741
	H394	H	0.800966	0.101556	0.974482
	H395	H	0.797268	0.116522	0.971963
	O396	O	0.660750	0.512337	0.312074
	H397	H	0.673474	0.503255	0.306884
	H398	H	0.658929	0.519848	0.315802
	O399	O	1.069943	1.059484	-0.081461
	H400	H	1.075177	1.068346	-0.085290
	H401	H	1.077094	1.054643	-0.086081
	O402	O	1.165223	0.923693	0.083767
	H403	H	1.164339	0.940670	0.071988
	H404	H	1.163001	0.933007	0.090683
	O405	O	0.459705	0.299540	0.702151
	H406	H	0.466521	0.306085	0.722825
	H407	H	0.433804	0.290176	0.702981
	O408	O	0.510766	0.704005	0.676943
	H409	H	0.507176	0.709497	0.675124
	H410	H	0.502347	0.714680	0.672482
	O411	O	1.100840	0.955032	0.805318
	H412	H	1.103340	0.926880	0.807963
	H413	H	1.128984	0.946715	0.787470
	O414	O	0.658657	0.683462	0.677523
	H415	H	0.622155	0.681059	0.690093
	H416	H	0.673662	0.664641	0.668036
	O417	O	0.051106	0.822532	1.065305
	H418	H	0.044723	0.819655	1.078865
	H419	H	0.047546	0.831269	1.066918
	O420	O	-0.176088	1.010432	0.923877
	H421	H	-0.175037	1.024382	0.913915
	H422	H	-0.173124	1.016519	0.900150
	O423	O	-0.017755	1.196895	-0.098618
	H424	H	0.004215	1.194234	-0.088556
	H425	H	-0.009853	1.207407	-0.115971
	O426	O	0.363823	0.659255	0.296141
	H427	H	0.379890	0.659181	0.301615
	H428	H	0.374214	0.665910	0.280224
	O429	O	0.364882	0.713554	0.484627
	H430	H	0.369827	0.709258	0.456695
	H431	H	0.348429	0.727933	0.471110
	O432	O	0.698431	0.519004	0.697588
	H433	H	0.688699	0.520314	0.694565
	H434	H	0.712974	0.516539	0.721326
	O435	O	0.406289	-0.551485	0.480912
	H436	H	0.398201	-0.540890	0.478248
	H437	H	0.394300	-0.556992	0.506253
	O438	O	0.070972	0.937852	0.822221
	H439	H	0.071600	0.934284	0.807541
	H440	H	0.077887	0.932126	0.842518
	O441	O	0.690148	0.693910	0.526027
	H442	H	0.707186	0.710784	0.536463
	H443	H	0.682739	0.676525	0.533506
