data_Molecule from HDF5

_cell_length_a		16.213611
_cell_length_b		16.367009
_cell_length_c		16.165436
_cell_angle_alpha	90.121327
_cell_angle_beta	89.938616
_cell_angle_gamma	90.233396
_symmetry_space_group_name_H-M	'P 1'
_symmetry_Int_Tables_number		1

loop_
	_symmetry_equiv_pos_as_xyz
	x,y,z

loop_
	_atom_site_label
	_atom_site_type_symbol
	_atom_site_fract_x
	_atom_site_fract_y
	_atom_site_fract_z
	H0	H	0.406243	0.846633	0.718418
	H1	H	0.604067	0.172247	0.720916
	H2	H	0.600486	0.846929	0.290727
	H3	H	0.405071	0.173697	0.290123
	H4	H	0.717449	0.414471	0.840204
	H5	H	0.717262	0.608477	0.170327
	H6	H	0.292678	0.607247	0.840305
	H7	H	0.291624	0.413539	0.170845
	H8	H	0.840537	0.724901	0.404313
	H9	H	0.166934	0.727388	0.605771
	H10	H	0.840292	0.295423	0.604617
	H11	H	0.166987	0.294310	0.402639
	H12	H	0.839289	0.412188	0.718189
	H13	H	0.168440	0.608765	0.718615
	H14	H	0.840133	0.607310	0.291432
	H15	H	0.169551	0.413634	0.292103
	H16	H	0.405539	0.723508	0.840678
	H17	H	0.604480	0.726883	0.168746
	H18	H	0.605008	0.295988	0.841709
	H19	H	0.403927	0.295771	0.169991
	H20	H	0.716950	0.846839	0.407863
	H21	H	0.718640	0.173658	0.604076
	H22	H	0.287518	0.847627	0.605302
	H23	H	0.288889	0.172939	0.406559
	H24	H	0.906943	0.347076	0.218472
	H25	H	0.103858	0.673923	0.220556
	H26	H	0.101757	0.346953	0.789546
	H27	H	0.907518	0.674015	0.792721
	H28	H	0.217446	0.913231	0.340235
	H29	H	0.218033	0.109637	0.670448
	H30	H	0.791996	0.105826	0.340563
	H31	H	0.791978	0.913484	0.671006
	H32	H	0.340689	0.225562	0.905877
	H33	H	0.668434	0.226330	0.105706
	H34	H	0.340861	0.794909	0.104472
	H35	H	0.667738	0.796454	0.904188
	H36	H	0.339286	0.913687	0.217681
	H37	H	0.669440	0.107851	0.217821
	H38	H	0.339325	0.106541	0.792520
	H39	H	0.668662	0.914464	0.792988
	H40	H	0.904099	0.223913	0.340523
	H41	H	0.104004	0.227007	0.669359
	H42	H	0.104933	0.794838	0.341022
	H43	H	0.904745	0.796423	0.669163
	H44	H	0.219463	0.347372	0.905393
	H45	H	0.220354	0.674717	0.104045
	H46	H	0.789131	0.348028	0.103833
	H47	H	0.790813	0.673776	0.907420
	H48	H	0.413393	0.125251	0.598958
	H49	H	0.591153	0.894320	0.602372
	H50	H	0.595660	0.123299	0.420420
	H51	H	0.408077	0.895803	0.418337
	H52	H	0.601295	0.424152	0.122974
	H53	H	0.599756	0.603076	0.886887
	H54	H	0.423532	0.605209	0.119882
	H55	H	0.411442	0.419356	0.888447
	H56	H	0.121123	0.602455	0.413659
	H57	H	0.889078	0.596701	0.595715
	H58	H	0.117607	0.426067	0.591753
	H59	H	0.885878	0.422141	0.402813
	H60	H	0.123073	0.419366	0.605200
	H61	H	0.883950	0.605736	0.606050
	H62	H	0.122126	0.605427	0.413240
	H63	H	0.883571	0.406028	0.411587
	H64	H	0.406901	0.612426	0.126933
	H65	H	0.594974	0.602710	0.888384
	H66	H	0.589659	0.419639	0.120328
	H67	H	0.414637	0.415983	0.888217
	H68	H	0.609116	0.129513	0.410969
	H69	H	0.599255	0.895419	0.591475
	H70	H	0.411194	0.125742	0.597268
	H71	H	0.406473	0.892581	0.406052
	H72	H	0.912854	0.625747	0.097898
	H73	H	0.092046	0.396086	0.101211
	H74	H	0.093165	0.622570	0.918382
	H75	H	0.902880	0.391131	0.909102
	H76	H	0.095755	0.917444	0.622565
	H77	H	0.091305	0.099506	0.390635
	H78	H	0.908931	0.097646	0.622159
	H79	H	0.912347	0.909275	0.385592
	H80	H	0.618041	0.097149	0.917838
	H81	H	0.385690	0.110926	0.094981
	H82	H	0.618929	0.918168	0.088587
	H83	H	0.383503	0.912320	0.906055
	H84	H	0.621118	0.925207	0.102178
	H85	H	0.390553	0.099136	0.092331
	H86	H	0.624249	0.103812	0.903574
	H87	H	0.387363	0.911290	0.920448
	H88	H	0.919795	0.104577	0.621229
	H89	H	0.095746	0.109208	0.387210
	H90	H	0.096829	0.918794	0.622770
	H91	H	0.904006	0.918804	0.385939
	H92	H	0.109635	0.628348	0.914290
	H93	H	0.099384	0.397213	0.091417
	H94	H	0.909505	0.627179	0.097820
	H95	H	0.917345	0.394737	0.907362
	H96	H	0.411493	0.126851	0.599965
	H97	H	0.604212	0.890514	0.603060
	H98	H	0.592925	0.127544	0.403749
	H99	H	0.417896	0.896465	0.410422
	H100	H	0.597912	0.411277	0.125712
	H101	H	0.596628	0.606487	0.886756
	H102	H	0.407935	0.594537	0.121347
	H103	H	0.410116	0.414918	0.886897
	H104	H	0.120125	0.604111	0.415978
	H105	H	0.886184	0.610978	0.592368
	H106	H	0.121640	0.410834	0.591675
	H107	H	0.890658	0.420690	0.421243
	H108	H	0.912140	0.627500	0.101065
	H109	H	0.103831	0.392415	0.101851
	H110	H	0.096188	0.628578	0.901928
	H111	H	0.910858	0.397196	0.920570
	H112	H	0.095179	0.919101	0.622375
	H113	H	0.101702	0.100017	0.387477
	H114	H	0.909103	0.110500	0.625150
	H115	H	0.916116	0.921204	0.389899
	H116	H	0.622455	0.112264	0.917694
	H117	H	0.385848	0.102042	0.104490
	H118	H	0.624509	0.910480	0.100906
	H119	H	0.388576	0.923536	0.912576
	C120	C	0.382522	0.018562	0.627597
	C121	C	0.626644	1.001300	0.627627
	C122	C	0.626382	0.018509	0.383225
	C123	C	0.382347	1.002254	0.383285
	C124	C	0.625716	0.389817	0.014339
	C125	C	0.626129	0.632734	0.996235
	C126	C	0.384263	0.631806	0.013771
	C127	C	0.383485	0.388866	0.997093
	C128	C	0.012604	0.632054	0.384681
	C129	C	0.994847	0.632684	0.626672
	C130	C	0.012373	0.389888	0.625474
	C131	C	0.995407	0.388576	0.383120
	C132	C	0.882610	0.519237	0.127392
	C133	C	0.127194	0.502882	0.127313
	C134	C	0.127464	0.518475	0.882355
	C135	C	0.882561	0.502244	0.883964
	C136	C	0.125117	0.889580	0.513685
	C137	C	0.125880	0.132540	0.496980
	C138	C	0.883249	0.131760	0.513978
	C139	C	0.882698	0.888808	0.496568
	C140	C	0.512951	0.132370	0.884113
	C141	C	0.495885	0.132646	0.126651
	C142	C	0.512815	0.889168	0.126231
	C143	C	0.495320	0.888380	0.883857
	C144	C	0.384998	0.895670	0.681879
	C145	C	0.624214	0.123795	0.682733
	C146	C	0.621963	0.895787	0.328358
	C147	C	0.384762	0.124959	0.328377
	C148	C	0.680304	0.393163	0.889681
	C149	C	0.680661	0.630099	0.120544
	C150	C	0.329896	0.628043	0.889484
	C151	C	0.328575	0.392405	0.121309
	C152	C	0.889355	0.686890	0.385250
	C153	C	0.118262	0.688907	0.625539
	C154	C	0.889146	0.333624	0.624373
	C155	C	0.118605	0.333050	0.383622
	C156	C	0.888503	0.391764	0.680639
	C157	C	0.119015	0.629930	0.681520
	C158	C	0.889093	0.628201	0.329218
	C159	C	0.119673	0.392414	0.328607
	C160	C	0.385989	0.685898	0.889666
	C161	C	0.624141	0.688268	0.119897
	C162	C	0.624341	0.334367	0.890409
	C163	C	0.384962	0.334097	0.121089
	C164	C	0.679940	0.895696	0.386390
	C165	C	0.681490	0.124336	0.624706
	C166	C	0.325766	0.896241	0.625632
	C167	C	0.326828	0.124566	0.385906
	C168	C	0.885745	0.395996	0.181342
	C169	C	0.124751	0.625326	0.182843
	C170	C	0.123143	0.395769	0.827466
	C171	C	0.886238	0.625163	0.829552
	C172	C	0.180027	0.892268	0.389535
	C173	C	0.180829	0.130219	0.620950
	C174	C	0.829108	0.127423	0.389678
	C175	C	0.828345	0.892254	0.621039
	C176	C	0.389526	0.187311	0.885990
	C177	C	0.619480	0.188227	0.125469
	C178	C	0.389519	0.833400	0.124530
	C179	C	0.618783	0.834068	0.884618
	C180	C	0.388863	0.892477	0.180875
	C181	C	0.620216	0.129161	0.180937
	C182	C	0.388689	0.127898	0.829940
	C183	C	0.619330	0.892991	0.829652
	C184	C	0.885091	0.185933	0.389628
	C185	C	0.124363	0.188754	0.620299
	C186	C	0.123994	0.833418	0.390156
	C187	C	0.884249	0.833860	0.620301
	C188	C	0.182022	0.396074	0.884748
	C189	C	0.182681	0.625700	0.125045
	C190	C	0.827150	0.396598	0.124370
	C191	C	0.828497	0.625073	0.886829
	C192	C	0.405377	0.103915	0.605498
	C193	C	0.604697	0.915346	0.605514
	C194	C	0.605265	0.104501	0.405127
	C195	C	0.404301	0.917052	0.405223
	C196	C	0.603025	0.411863	0.100650
	C197	C	0.603845	0.610535	0.909539
	C198	C	0.406464	0.610615	0.100460
	C199	C	0.405759	0.410129	0.910459
	C200	C	0.098815	0.610487	0.407560
	C201	C	0.908686	0.610880	0.604595
	C202	C	0.098382	0.412407	0.603081
	C203	C	0.909037	0.409989	0.405413
	C204	C	0.904970	0.604806	0.105399
	C205	C	0.104999	0.417358	0.104805
	C206	C	0.106098	0.604373	0.904909
	C207	C	0.904110	0.416427	0.905788
	C208	C	0.102600	0.912010	0.600306
	C209	C	0.103068	0.109646	0.410733
	C210	C	0.905770	0.110526	0.600507
	C211	C	0.904390	0.910176	0.409685
	C212	C	0.599245	0.110890	0.906452
	C213	C	0.409767	0.110622	0.104000
	C214	C	0.599198	0.911270	0.103710
	C215	C	0.408823	0.909473	0.906494
	Zn216	Zn	0.504131	0.009774	0.756429
	Zn217	Zn	0.504096	0.011463	0.254021
	Zn218	Zn	0.753605	0.511124	0.005213
	Zn219	Zn	0.256402	0.510795	0.005289
	Zn220	Zn	0.003285	0.761156	0.504960
	Zn221	Zn	0.003969	0.260898	0.504600
	Zn222	Zn	0.003503	0.510261	0.754335
	Zn223	Zn	0.004845	0.510604	0.256219
	Zn224	Zn	0.504443	0.760563	0.004321
	Zn225	Zn	0.504917	0.261047	0.005663
	Zn226	Zn	0.755295	0.010229	0.505916
	Zn227	Zn	0.253930	0.010261	0.505510
	N228	N	0.419427	0.972591	0.683244
	N229	N	0.590852	0.046561	0.684576
	N230	N	0.589510	0.973316	0.326387
	N231	N	0.418583	0.048130	0.326597
	N232	N	0.681082	0.426965	0.967603
	N233	N	0.681695	0.596060	0.042606
	N234	N	0.328788	0.594867	0.967690
	N235	N	0.327601	0.425620	0.043293
	N236	N	0.967141	0.689051	0.419096
	N237	N	0.040280	0.690778	0.592223
	N238	N	0.967140	0.332274	0.590669
	N239	N	0.040370	0.330306	0.416544
	N240	N	0.965899	0.426198	0.681452
	N241	N	0.041511	0.595462	0.682257
	N242	N	0.966874	0.594723	0.328682
	N243	N	0.042085	0.426251	0.328157
	N244	N	0.419180	0.688318	0.967871
	N245	N	0.591059	0.690171	0.041508
	N246	N	0.591193	0.331980	0.968902
	N247	N	0.418237	0.331617	0.042701
	N248	N	0.682807	0.973038	0.419796
	N249	N	0.683103	0.047026	0.591084
	N250	N	0.324293	0.973464	0.592340
	N251	N	0.325184	0.047217	0.419340
	N252	N	0.919652	0.473346	0.183392
	N253	N	0.090996	0.548139	0.184315
	N254	N	0.090206	0.473094	0.825671
	N255	N	0.919343	0.547727	0.827719
	N256	N	0.180779	0.926385	0.467347
	N257	N	0.182259	0.096217	0.543063
	N258	N	0.827646	0.094665	0.467845
	N259	N	0.827353	0.925723	0.543006
	N260	N	0.467772	0.190110	0.918766
	N261	N	0.541402	0.190260	0.092344
	N262	N	0.467679	0.831315	0.091421
	N263	N	0.540728	0.831271	0.917758
	N264	N	0.466595	0.926368	0.181948
	N265	N	0.542311	0.095424	0.181935
	N266	N	0.466370	0.094308	0.828734
	N267	N	0.541530	0.926164	0.829134
	N268	N	0.918356	0.188573	0.467931
	N269	N	0.090777	0.190110	0.542270
	N270	N	0.090523	0.831657	0.468521
	N271	N	0.917353	0.831804	0.541999
	N272	N	0.184463	0.473399	0.918413
	N273	N	0.184232	0.548444	0.091072
	N274	N	0.825129	0.474161	0.091810
	N275	N	0.825949	0.547725	0.919672
	O276	O	0.459159	0.435456	0.470360
	H277	H	0.456647	0.432191	0.476946
	H278	H	0.456441	0.430733	0.475132
	O279	O	-0.005119	0.034118	0.050863
	H280	H	0.002723	0.029403	0.050043
	H281	H	-0.001435	0.034699	0.054747
	O282	O	0.424724	0.414067	0.512283
	H283	H	0.424548	0.412071	0.505294
	H284	H	0.422696	0.408283	0.515165
	O285	O	0.489881	0.454547	0.532496
	H286	H	0.488969	0.446842	0.535624
	H287	H	0.488688	0.455676	0.522776
	O288	O	1.398317	-0.565944	-0.457492
	H289	H	1.400155	-0.569083	-0.468785
	H290	H	1.391878	-0.562365	-0.462416
	O291	O	-0.517734	0.460140	-0.483605
	H292	H	-0.522167	0.462718	-0.492621
	H293	H	-0.519461	0.459159	-0.478848
	O294	O	0.455472	0.471404	0.452072
	H295	H	0.461432	0.476628	0.458041
	H296	H	0.466768	0.476771	0.447925
	O297	O	0.022139	1.004857	0.045963
	H298	H	0.022049	1.000198	0.049597
	H299	H	0.013476	1.012531	0.046060
	O300	O	1.015017	0.026502	1.056885
	H301	H	1.016272	0.033902	1.062597
	H302	H	1.010188	0.027534	1.055368
	O303	O	0.493470	0.477003	0.418438
	H304	H	0.492121	0.483683	0.422223
	H305	H	0.501211	0.471811	0.430215
	O306	O	0.005836	1.016054	1.044776
	H307	H	0.004945	1.010108	1.047199
	H308	H	0.008785	1.010943	1.042789
	O309	O	0.452197	0.534739	0.519963
	H310	H	0.446988	0.533829	0.525099
	H311	H	0.439070	0.534408	0.527799
