data_Molecule from HDF5

_cell_length_a		16.668947
_cell_length_b		16.591561
_cell_length_c		16.645996
_cell_angle_alpha	90.155421
_cell_angle_beta	89.901382
_cell_angle_gamma	89.914942
_symmetry_space_group_name_H-M	'P 1'
_symmetry_Int_Tables_number		1

loop_
	_symmetry_equiv_pos_as_xyz
	x,y,z

loop_
	_atom_site_label
	_atom_site_type_symbol
	_atom_site_fract_x
	_atom_site_fract_y
	_atom_site_fract_z
	H0	H	0.400625	0.832750	0.707887
	H1	H	0.607352	0.145526	0.705770
	H2	H	0.607728	0.832649	0.267813
	H3	H	0.401750	0.143874	0.268090
	H4	H	0.726056	0.384170	0.831846
	H5	H	0.723586	0.590202	0.144497
	H6	H	0.286533	0.594728	0.829988
	H7	H	0.278880	0.378390	0.138371
	H8	H	0.850020	0.706548	0.384298
	H9	H	0.157577	0.714625	0.596120
	H10	H	0.850847	0.268136	0.592287
	H11	H	0.162039	0.268429	0.383690
	H12	H	0.851864	0.382441	0.710177
	H13	H	0.158220	0.598121	0.711444
	H14	H	0.850742	0.589623	0.268148
	H15	H	0.161499	0.382697	0.265408
	H16	H	0.406600	0.706768	0.829328
	H17	H	0.608160	0.707816	0.143878
	H18	H	0.608936	0.269527	0.831008
	H19	H	0.394956	0.262883	0.138595
	H20	H	0.724044	0.832185	0.383796
	H21	H	0.724296	0.144636	0.589882
	H22	H	0.283613	0.833705	0.594255
	H23	H	0.285884	0.144944	0.385763
	H24	H	0.905387	0.330902	0.204533
	H25	H	0.113096	0.643741	0.209953
	H26	H	0.114757	0.335342	0.762123
	H27	H	0.899554	0.643602	0.766879
	H28	H	0.231077	0.880605	0.334472
	H29	H	0.227558	0.096452	0.642329
	H30	H	0.783153	0.095872	0.332881
	H31	H	0.785447	0.886215	0.642657
	H32	H	0.352184	0.212273	0.881449
	H33	H	0.658844	0.213107	0.096501
	H34	H	0.351501	0.765716	0.094708
	H35	H	0.663133	0.771623	0.886677
	H36	H	0.350826	0.882612	0.210046
	H37	H	0.658032	0.098612	0.213614
	H38	H	0.352497	0.096107	0.764089
	H39	H	0.661781	0.885505	0.768164
	H40	H	0.898925	0.212248	0.333159
	H41	H	0.110155	0.211490	0.642315
	H42	H	0.112034	0.767618	0.331454
	H43	H	0.901087	0.768435	0.641799
	H44	H	0.233164	0.337312	0.875570
	H45	H	0.228626	0.644533	0.093539
	H46	H	0.788130	0.331197	0.089680
	H47	H	0.786672	0.644726	0.886118
	H48	H	0.420998	0.099433	0.578465
	H49	H	0.600924	0.874760	0.577942
	H50	H	0.589005	0.100674	0.396557
	H51	H	0.417713	0.878419	0.404817
	H52	H	0.596001	0.403183	0.098843
	H53	H	0.594582	0.574327	0.877789
	H54	H	0.420798	0.568930	0.092739
	H55	H	0.423036	0.396900	0.875823
	H56	H	0.119475	0.581473	0.396798
	H57	H	0.894185	0.579088	0.575356
	H58	H	0.117543	0.402493	0.576572
	H59	H	0.895972	0.397983	0.401237
	H60	H	0.117323	0.399506	0.573280
	H61	H	0.896097	0.576035	0.572222
	H62	H	0.118007	0.577313	0.398667
	H63	H	0.897177	0.404590	0.396680
	H64	H	0.422982	0.585006	0.098582
	H65	H	0.596385	0.586529	0.873477
	H66	H	0.593810	0.395549	0.100337
	H67	H	0.415109	0.405498	0.875828
	H68	H	0.595358	0.099517	0.405510
	H69	H	0.595725	0.874024	0.581682
	H70	H	0.415690	0.099644	0.572872
	H71	H	0.412944	0.874338	0.397464
	H72	H	0.915839	0.599427	0.073909
	H73	H	0.093966	0.378232	0.075371
	H74	H	0.093025	0.598044	0.906116
	H75	H	0.916626	0.376943	0.899934
	H76	H	0.093592	0.903566	0.597169
	H77	H	0.096670	0.078529	0.375794
	H78	H	0.914573	0.078690	0.598932
	H79	H	0.911758	0.903418	0.375280
	H80	H	0.616713	0.077127	0.900414
	H81	H	0.397847	0.075645	0.070282
	H82	H	0.617161	0.898554	0.080484
	H83	H	0.393852	0.897604	0.898178
	H84	H	0.616996	0.896817	0.076468
	H85	H	0.397344	0.071223	0.076216
	H86	H	0.617114	0.076292	0.895778
	H87	H	0.393869	0.899607	0.896425
	H88	H	0.915231	0.078201	0.598021
	H89	H	0.096081	0.073259	0.377319
	H90	H	0.091005	0.903879	0.596748
	H91	H	0.920593	0.898190	0.375908
	H92	H	0.099190	0.603786	0.897154
	H93	H	0.092152	0.379589	0.070866
	H94	H	0.910570	0.602838	0.080252
	H95	H	0.913963	0.374731	0.895378
	H96	H	0.413007	0.101533	0.580624
	H97	H	0.595369	0.876201	0.575827
	H98	H	0.599623	0.104052	0.396599
	H99	H	0.422184	0.877327	0.396608
	H100	H	0.601374	0.398407	0.101629
	H101	H	0.606206	0.577566	0.872706
	H102	H	0.408021	0.577240	0.100583
	H103	H	0.425600	0.407421	0.880753
	H104	H	0.119724	0.577505	0.394434
	H105	H	0.896087	0.574874	0.577124
	H106	H	0.115300	0.403553	0.572779
	H107	H	0.893429	0.398664	0.393771
	H108	H	0.919008	0.601081	0.082077
	H109	H	0.096676	0.377839	0.071344
	H110	H	0.088196	0.599704	0.894939
	H111	H	0.919581	0.375703	0.895355
	H112	H	0.092325	0.901340	0.596928
	H113	H	0.091807	0.076853	0.377794
	H114	H	0.915714	0.079501	0.598765
	H115	H	0.911915	0.893929	0.371422
	H116	H	0.618111	0.079946	0.897785
	H117	H	0.394554	0.077861	0.076203
	H118	H	0.616212	0.901434	0.077320
	H119	H	0.392658	0.896879	0.895961
	C120	C	0.384424	-0.002845	0.609500
	C121	C	0.627474	0.979287	0.608840
	C122	C	0.626261	-0.002318	0.366685
	C123	C	0.385191	0.979951	0.368040
	C124	C	0.627857	0.367345	-0.003358
	C125	C	0.628297	0.609637	0.978896
	C126	C	0.385982	0.609570	-0.005684
	C127	C	0.385848	0.368558	0.978402
	C128	C	0.015460	0.609372	0.365517
	C129	C	0.996893	0.610527	0.608316
	C130	C	0.014854	0.368415	0.607902
	C131	C	0.998080	0.367239	0.365461
	C132	C	0.885523	0.496633	0.108690
	C133	C	0.127306	0.480864	0.106500
	C134	C	0.127734	0.498561	0.864973
	C135	C	0.885139	0.479686	0.866293
	C136	C	0.126636	0.868163	0.495563
	C137	C	0.126503	0.109279	0.479293
	C138	C	0.883442	0.111164	0.495960
	C139	C	0.883535	0.867232	0.477586
	C140	C	0.514824	0.110333	0.865748
	C141	C	0.497370	0.109457	0.108629
	C142	C	0.514103	0.866918	0.109810
	C143	C	0.497325	0.867457	0.866314
	C144	C	0.382249	0.879911	0.668820
	C145	C	0.627259	0.098026	0.666769
	C146	C	0.627395	0.879769	0.307187
	C147	C	0.383288	0.097726	0.308626
	C148	C	0.686718	0.365625	0.878736
	C149	C	0.685007	0.609757	0.097330
	C150	C	0.326892	0.612259	0.876865
	C151	C	0.321272	0.362350	0.092676
	C152	C	0.897322	0.667435	0.364910
	C153	C	0.111695	0.673301	0.613252
	C154	C	0.897743	0.308160	0.610625
	C155	C	0.115154	0.307904	0.364581
	C156	C	0.898283	0.364975	0.669359
	C157	C	0.112067	0.615171	0.670448
	C158	C	0.897759	0.609356	0.307255
	C159	C	0.115134	0.364854	0.306024
	C160	C	0.386123	0.668436	0.876591
	C161	C	0.627744	0.668128	0.096963
	C162	C	0.628483	0.308590	0.878483
	C163	C	0.378856	0.304620	0.092783
	C164	C	0.685000	0.879575	0.365001
	C165	C	0.685115	0.097796	0.609239
	C166	C	0.323637	0.880499	0.612453
	C167	C	0.325629	0.097963	0.366575
	C168	C	0.885809	0.378109	0.165924
	C169	C	0.130937	0.597251	0.168924
	C170	C	0.132388	0.382371	0.802690
	C171	C	0.882300	0.597175	0.807237
	C172	C	0.189458	0.863540	0.380092
	C173	C	0.186845	0.113420	0.595942
	C174	C	0.823225	0.113913	0.379531
	C175	C	0.825014	0.866792	0.595530
	C176	C	0.398339	0.171394	0.863304
	C177	C	0.612690	0.172235	0.113851
	C178	C	0.397873	0.806234	0.112343
	C179	C	0.615666	0.810143	0.866504
	C180	C	0.397470	0.864508	0.169729
	C181	C	0.612132	0.115384	0.172191
	C182	C	0.398581	0.113666	0.805148
	C183	C	0.615093	0.866806	0.807931
	C184	C	0.880919	0.171692	0.379596
	C185	C	0.128735	0.170821	0.595846
	C186	C	0.130465	0.807162	0.378960
	C187	C	0.882392	0.808465	0.595228
	C188	C	0.191099	0.382935	0.859178
	C189	C	0.188274	0.597689	0.110871
	C190	C	0.827603	0.378245	0.108939
	C191	C	0.826212	0.597625	0.866377
	C192	C	0.409580	0.079089	0.584421
	C193	C	0.604045	0.896532	0.585183
	C194	C	0.601613	0.079968	0.392023
	C195	C	0.410348	0.898079	0.392588
	C196	C	0.603881	0.391861	0.078742
	C197	C	0.605543	0.586025	0.896216
	C198	C	0.410260	0.584371	0.076033
	C199	C	0.413668	0.395623	0.898322
	C200	C	0.097660	0.585784	0.389679
	C201	C	0.916359	0.584157	0.582160
	C202	C	0.095577	0.394331	0.581789
	C203	C	0.916702	0.392993	0.390233
	C204	C	0.908437	0.579374	0.085373
	C205	C	0.101617	0.399718	0.080010
	C206	C	0.101062	0.579457	0.891895
	C207	C	0.909704	0.397350	0.889939
	C208	C	0.099898	0.895378	0.576199
	C209	C	0.101737	0.083517	0.398174
	C210	C	0.908154	0.086042	0.577573
	C211	C	0.907682	0.891582	0.395669
	C212	C	0.596335	0.085039	0.890856
	C213	C	0.417505	0.082376	0.081677
	C214	C	0.595702	0.891858	0.085050
	C215	C	0.415032	0.891182	0.889972
	Zn216	Zn	0.506063	-0.011734	0.737376
	Zn217	Zn	0.505200	-0.011007	0.237987
	Zn218	Zn	0.756797	0.488029	-0.012017
	Zn219	Zn	0.256270	0.489711	-0.013863
	Zn220	Zn	0.005962	0.738889	0.486483
	Zn221	Zn	0.006364	0.238966	0.486774
	Zn222	Zn	0.005915	0.489552	0.737334
	Zn223	Zn	0.007495	0.487705	0.236135
	Zn224	Zn	0.506759	0.738807	-0.012510
	Zn225	Zn	0.506364	0.238776	-0.012339
	Zn226	Zn	0.755228	-0.010799	0.486197
	Zn227	Zn	0.256033	-0.011160	0.488619
	N228	N	0.419040	0.953750	0.667412
	N229	N	0.592446	0.023128	0.666991
	N230	N	0.591925	0.954532	0.307783
	N231	N	0.419411	0.023428	0.309325
	N232	N	0.686671	0.401223	0.953214
	N233	N	0.685759	0.574318	0.022760
	N234	N	0.326320	0.576900	0.951335
	N235	N	0.325350	0.401590	0.020305
	N236	N	0.971749	0.667686	0.400282
	N237	N	0.039083	0.670369	0.575235
	N238	N	0.971147	0.309932	0.573148
	N239	N	0.041263	0.309071	0.400595
	N240	N	0.972093	0.401585	0.668256
	N241	N	0.039425	0.576785	0.667747
	N242	N	0.972401	0.574348	0.306962
	N243	N	0.041193	0.400996	0.306311
	N244	N	0.422052	0.667315	0.950760
	N245	N	0.593383	0.668419	0.022133
	N246	N	0.592793	0.309043	0.952984
	N247	N	0.418577	0.308484	0.020665
	N248	N	0.684438	0.954090	0.400970
	N249	N	0.685883	0.022719	0.574397
	N250	N	0.324802	0.954673	0.576192
	N251	N	0.326549	0.023629	0.402649
	N252	N	0.921096	0.452785	0.165982
	N253	N	0.093718	0.523432	0.166527
	N254	N	0.093827	0.455426	0.806016
	N255	N	0.918041	0.522717	0.806830
	N256	N	0.187677	0.900437	0.453892
	N257	N	0.185757	0.075740	0.522512
	N258	N	0.824577	0.077086	0.453106
	N259	N	0.825485	0.902567	0.521333
	N260	N	0.471921	0.169623	0.900025
	N261	N	0.540229	0.169069	0.074933
	N262	N	0.471619	0.807587	0.075573
	N263	N	0.541420	0.810367	0.902150
	N264	N	0.470996	0.901383	0.168417
	N265	N	0.539486	0.076969	0.169072
	N266	N	0.472116	0.076376	0.806582
	N267	N	0.540316	0.901610	0.807462
	N268	N	0.917609	0.170355	0.453149
	N269	N	0.091763	0.168316	0.522471
	N270	N	0.092162	0.809729	0.452076
	N271	N	0.917807	0.808224	0.520745
	N272	N	0.188401	0.456408	0.897189
	N273	N	0.186311	0.524253	0.072931
	N274	N	0.827088	0.452986	0.074070
	N275	N	0.827380	0.523390	0.902076
	O276	O	-0.032301	0.764357	0.212172
	H277	H	-0.031888	0.733882	0.236625
	H278	H	-0.027834	0.766789	0.196042
	O279	O	0.528239	0.276315	0.273408
	H280	H	0.542650	0.264887	0.267054
	H281	H	0.553347	0.272658	0.265147
	O282	O	1.127237	-0.020787	0.812495
	H283	H	1.140516	0.000547	0.803166
	H284	H	1.116830	-0.012841	0.836109
	O285	O	0.552016	0.707020	0.705104
	H286	H	0.529716	0.710036	0.704428
	H287	H	0.535044	0.712368	0.710653
	O288	O	0.319072	0.675209	0.669776
	H289	H	0.351249	0.672221	0.649030
	H290	H	0.307650	0.655355	0.651491
	O291	O	0.497894	0.375426	0.387202
	H292	H	0.487368	0.373615	0.383675
	H293	H	0.482404	0.365005	0.390691
	O294	O	1.129365	0.039124	0.878554
	H295	H	1.126969	0.055177	0.887021
	H296	H	1.144391	0.051123	0.875174
	O297	O	0.462306	0.691680	0.278049
	H298	H	0.477049	0.703444	0.272438
	H299	H	0.491534	0.683158	0.277627
	O300	O	-0.078624	0.042433	1.203052
	H301	H	-0.076320	0.035723	1.190987
	H302	H	-0.090109	0.033470	1.205527
	O303	O	0.717858	0.692576	0.694134
	H304	H	0.745759	0.727582	0.728796
	H305	H	0.663985	0.699939	0.702053
	O306	O	0.437683	0.685035	0.541591
	H307	H	0.440954	0.681627	0.511183
	H308	H	0.457172	0.680332	0.540486
	O309	O	0.230544	0.760320	0.957005
	H310	H	0.226587	0.771408	0.927209
	H311	H	0.260965	0.733173	0.953890
	O312	O	0.221354	0.770812	0.775499
	H313	H	0.224758	0.769322	0.755211
	H314	H	0.230677	0.783158	0.773782
	O315	O	0.702388	0.686086	1.288245
	H316	H	0.729680	0.697719	1.269736
	H317	H	0.706330	0.672606	1.280053
	O318	O	0.695563	0.295535	0.675684
	H319	H	0.680158	0.320420	0.659639
	H320	H	0.670965	0.305002	0.655737
	O321	O	-0.006965	1.029601	0.868991
	H322	H	0.005367	1.039188	0.872068
	H323	H	-0.002931	1.031949	0.869486
	O324	O	1.028199	0.908014	0.184543
	H325	H	1.032643	0.895428	0.188471
	H326	H	1.017571	0.913434	0.171930
	O327	O	0.214554	0.208830	1.004224
	H328	H	0.234536	0.208756	1.013788
	H329	H	0.225023	0.193437	1.009441
	O330	O	0.715468	0.277939	0.321008
	H331	H	0.726657	0.267694	0.320199
	H332	H	0.729884	0.275907	0.298681
	O333	O	0.794104	0.199911	0.776530
	H334	H	0.825010	0.189717	0.772052
	H335	H	0.762535	0.231298	0.742317
	O336	O	0.321125	0.543085	0.508637
	H337	H	0.324792	0.531206	0.505609
	H338	H	0.315935	0.537018	0.508456
	O339	O	0.438244	0.347501	0.533767
	H340	H	0.440870	0.337807	0.539767
	H341	H	0.446705	0.348743	0.526297
	O342	O	0.030279	0.097278	0.153663
	H343	H	0.048903	0.111880	0.158339
	H344	H	0.038772	0.081995	0.155543
	O345	O	0.226246	1.203481	1.206311
	H346	H	0.259616	1.235601	1.236533
	H347	H	0.222439	1.181716	1.191570
	O348	O	-0.057691	0.215241	0.023778
	H349	H	-0.062074	0.212187	0.040311
	H350	H	-0.076857	0.209212	0.031219
	O351	O	0.732087	0.537400	0.430931
	H352	H	0.731995	0.530647	0.453033
	H353	H	0.734700	0.561532	0.435010
	O354	O	-0.222139	0.208041	0.953272
	H355	H	-0.237860	0.227248	0.933334
	H356	H	-0.225680	0.216369	0.928449
	O357	O	0.691583	0.654982	0.526513
	H358	H	0.703687	0.658492	0.549747
	H359	H	0.706180	0.661501	0.538089
	O360	O	0.470019	0.273025	0.703048
	H361	H	0.465555	0.269189	0.709517
	H362	H	0.476557	0.268542	0.715137
	O363	O	0.017357	-0.203463	-0.118149
	H364	H	0.021831	-0.201563	-0.131100
	H365	H	0.015956	-0.190895	-0.118171
	O366	O	0.291895	0.273686	0.521032
	H367	H	0.297688	0.284134	0.538869
	H368	H	0.268925	0.257131	0.519664
	O369	O	0.792317	0.199807	0.198999
	H370	H	0.813533	0.187215	0.173807
	H371	H	0.811956	0.189737	0.189013
	O372	O	0.930933	0.974424	0.033166
	H373	H	0.930894	0.962661	0.026293
	H374	H	0.930209	0.978482	0.026644
	O375	O	1.020276	-0.227371	-0.228451
	H376	H	1.042182	-0.210963	-0.238498
	H377	H	1.038270	-0.242645	-0.247979
	O378	O	0.602787	0.360849	0.453468
	H379	H	0.608553	0.366790	0.436711
	H380	H	0.606211	0.355018	0.452598
	O381	O	0.063202	1.228925	0.919238
	H382	H	0.066537	1.234251	0.934075
	H383	H	0.059519	1.231668	0.940804
	O384	O	1.077483	-0.231597	1.057567
	H385	H	1.090112	-0.231408	1.048554
	H386	H	1.078051	-0.234645	1.054317
	O387	O	0.825137	1.005247	-0.076706
	H388	H	0.815011	1.018246	-0.091663
	H389	H	0.838463	1.025477	-0.078531
	O390	O	0.721918	0.452792	0.276473
	H391	H	0.735435	0.448752	0.287222
	H392	H	0.716822	0.455537	0.269165
	O393	O	0.282618	0.518207	0.261894
	H394	H	0.277252	0.547615	0.252991
	H395	H	0.265517	0.542717	0.246252
	O396	O	0.069301	0.987885	1.062034
	H397	H	0.080482	0.981467	1.058086
	H398	H	0.062811	0.977014	1.071124
	O399	O	-0.220760	0.024111	0.762926
	H400	H	-0.236314	0.041681	0.739931
	H401	H	-0.213293	0.035457	0.752282
	O402	O	0.283802	0.700390	0.458594
	H403	H	0.277841	0.695922	0.470456
	H404	H	0.279684	0.720146	0.453435
	O405	O	1.036245	-0.028431	0.903726
	H406	H	1.044550	-0.016275	0.922595
	H407	H	1.030632	-0.032735	0.904979
	O408	O	0.191761	0.007707	0.195577
	H409	H	0.189779	0.016450	0.190283
	H410	H	0.196581	0.006308	0.220623
	O411	O	0.811290	0.795708	0.794575
	H412	H	0.827125	0.816941	0.819510
	H413	H	0.836501	0.813594	0.802223
	O414	O	0.485134	0.480081	0.578909
	H415	H	0.498541	0.477843	0.560849
	H416	H	0.479013	0.456619	0.561022
	O417	O	0.305493	0.453652	0.678832
	H418	H	0.307768	0.444670	0.674362
	H419	H	0.295067	0.461150	0.697164
	O420	O	0.639571	0.516693	0.553915
	H421	H	0.638699	0.526211	0.534781
	H422	H	0.649339	0.522178	0.566759
	O423	O	0.216801	0.030199	0.893635
	H424	H	0.204624	0.021794	0.898105
	H425	H	0.224860	0.023874	0.878580
	O426	O	0.490310	0.549714	0.697335
	H427	H	0.497875	0.541138	0.694230
	H428	H	0.489520	0.558910	0.678267
	O429	O	1.154553	0.998416	0.947959
	H430	H	1.159451	0.999322	0.955346
	H431	H	1.157085	0.974755	0.950638
	O432	O	0.735197	0.517969	0.709790
	H433	H	0.738524	0.556900	0.714704
	H434	H	0.751573	0.531078	0.734271
	O435	O	0.328501	1.302437	0.300312
	H436	H	0.362943	1.305974	0.307366
	H437	H	0.331650	1.328132	0.329027
	O438	O	0.194187	0.177796	-0.201195
	H439	H	0.189951	0.174547	-0.193497
	H440	H	0.187944	0.186526	-0.189384
	O441	O	0.029376	0.204104	0.211055
	H442	H	0.031842	0.210968	0.237587
	H443	H	0.059396	0.211742	0.211810
	O444	O	0.607871	0.548309	0.456622
	H445	H	0.602168	0.552741	0.459126
	H446	H	0.621724	0.561699	0.453356
	O447	O	-0.026997	1.207644	0.769351
	H448	H	-0.025628	1.223891	0.763678
	H449	H	-0.023709	1.220728	0.778180
	O450	O	0.231708	0.924050	1.033855
	H451	H	0.237662	0.917749	1.051650
	H452	H	0.231154	0.912591	1.022792
	O453	O	0.378674	0.532571	0.536049
	H454	H	0.389408	0.536762	0.527974
	H455	H	0.378738	0.528808	0.545488
	O456	O	-0.203686	0.039077	1.080838
	H457	H	-0.206436	0.044957	1.063826
	H458	H	-0.201355	0.032555	1.055877
	O459	O	0.788359	0.956571	0.209178
	H460	H	0.756108	0.960985	0.233616
	H461	H	0.786032	0.964219	0.174837
	O462	O	0.577671	0.571927	0.270944
	H463	H	0.573027	0.565187	0.266066
	H464	H	0.594531	0.553824	0.267797
	O465	O	0.797479	-0.228024	0.031869
	H466	H	0.780505	-0.239607	0.023078
	H467	H	0.803812	-0.228594	0.028127
	O468	O	0.278256	0.457343	0.443750
	H469	H	0.295353	0.467090	0.447594
	H470	H	0.270335	0.462966	0.420217
	O471	O	0.677735	0.378626	0.506258
	H472	H	0.679349	0.373054	0.528028
	H473	H	0.679290	0.358624	0.506537
	O474	O	0.300656	0.690332	0.283166
	H475	H	0.307030	0.706455	0.284237
	H476	H	0.329878	0.698489	0.297919
	O477	O	0.300339	0.285303	1.690756
	H478	H	0.283564	0.296784	1.698168
	H479	H	0.329573	0.295108	1.686279
	O480	O	0.442448	0.442528	0.248957
	H481	H	0.441732	0.432532	0.240721
	H482	H	0.413550	0.447412	0.252905
	O483	O	0.562037	0.710149	0.433996
	H484	H	0.588690	0.713530	0.428019
	H485	H	0.586805	0.704515	0.433487
	O486	O	0.579312	0.396111	0.676181
	H487	H	0.577365	0.413717	0.679264
	H488	H	0.591481	0.411363	0.668205
	O489	O	0.804507	0.787010	0.191084
	H490	H	0.801461	0.804540	0.162803
	H491	H	0.833168	0.800807	0.194270
	O492	O	0.190752	-0.188092	0.174500
	H493	H	0.188588	-0.183070	0.166906
	H494	H	0.175092	-0.188822	0.166898
	O495	O	-0.046967	0.948597	0.758779
	H496	H	-0.042403	0.968672	0.764410
	H497	H	-0.035374	0.952843	0.755506
	O498	O	0.856759	0.845069	0.932487
	H499	H	0.854205	0.863223	0.920792
	H500	H	0.852954	0.851136	0.932822
	O501	O	0.586703	0.303901	0.479352
	H502	H	0.585186	0.316008	0.480192
	H503	H	0.601518	0.307015	0.465110
