data_Molecule from HDF5

_cell_length_a		16.369663
_cell_length_b		16.194625
_cell_length_c		16.220033
_cell_angle_alpha	90.264984
_cell_angle_beta	90.097858
_cell_angle_gamma	89.839759
_symmetry_space_group_name_H-M	'P 1'
_symmetry_Int_Tables_number		1

loop_
	_symmetry_equiv_pos_as_xyz
	x,y,z

loop_
	_atom_site_label
	_atom_site_type_symbol
	_atom_site_fract_x
	_atom_site_fract_y
	_atom_site_fract_z
	H0	H	0.408761	0.833577	0.714341
	H1	H	0.601603	0.163214	0.717811
	H2	H	0.602444	0.834416	0.289971
	H3	H	0.406298	0.164058	0.292734
	H4	H	0.718977	0.397425	0.839850
	H5	H	0.718623	0.599696	0.167177
	H6	H	0.287821	0.598638	0.840602
	H7	H	0.288596	0.399564	0.166770
	H8	H	0.840997	0.713922	0.407193
	H9	H	0.167391	0.712154	0.602797
	H10	H	0.840409	0.285597	0.601126
	H11	H	0.166843	0.284566	0.405045
	H12	H	0.840297	0.401996	0.717127
	H13	H	0.167250	0.595694	0.718314
	H14	H	0.840758	0.598677	0.289236
	H15	H	0.166007	0.398852	0.288053
	H16	H	0.406803	0.709964	0.838373
	H17	H	0.600809	0.712921	0.168341
	H18	H	0.601303	0.284326	0.839170
	H19	H	0.406991	0.287080	0.167882
	H20	H	0.719906	0.835251	0.403184
	H21	H	0.719329	0.162568	0.605371
	H22	H	0.290360	0.835062	0.601718
	H23	H	0.288611	0.162421	0.404607
	H24	H	0.906007	0.334572	0.216507
	H25	H	0.099758	0.663452	0.217907
	H26	H	0.100163	0.333875	0.791488
	H27	H	0.906029	0.664038	0.791783
	H28	H	0.217877	0.899567	0.340108
	H29	H	0.218835	0.098580	0.667662
	H30	H	0.788673	0.098607	0.340232
	H31	H	0.789877	0.901021	0.667925
	H32	H	0.340559	0.211666	0.906593
	H33	H	0.666903	0.213288	0.101846
	H34	H	0.340258	0.787336	0.100227
	H35	H	0.666472	0.783236	0.905851
	H36	H	0.340884	0.902218	0.217774
	H37	H	0.667476	0.096634	0.218409
	H38	H	0.341072	0.095456	0.789771
	H39	H	0.666653	0.898740	0.788862
	H40	H	0.906896	0.211940	0.339314
	H41	H	0.100262	0.212394	0.668741
	H42	H	0.100600	0.785683	0.339260
	H43	H	0.908527	0.788780	0.669488
	H44	H	0.220050	0.335524	0.902949
	H45	H	0.217850	0.663147	0.105221
	H46	H	0.787846	0.335664	0.103047
	H47	H	0.786810	0.662721	0.903879
	H48	H	0.417249	0.114323	0.595099
	H49	H	0.602196	0.880142	0.595366
	H50	H	0.593596	0.116293	0.407167
	H51	H	0.421416	0.883244	0.408394
	H52	H	0.603630	0.415228	0.120340
	H53	H	0.606097	0.584913	0.885477
	H54	H	0.407590	0.589088	0.120637
	H55	H	0.407203	0.401352	0.883714
	H56	H	0.114898	0.579719	0.414475
	H57	H	0.886691	0.602000	0.593207
	H58	H	0.118770	0.408344	0.600444
	H59	H	0.891907	0.412028	0.417712
	H60	H	0.121315	0.402099	0.599081
	H61	H	0.890595	0.585731	0.595454
	H62	H	0.123727	0.592873	0.399280
	H63	H	0.887062	0.410250	0.401887
	H64	H	0.414238	0.593434	0.119208
	H65	H	0.586981	0.584259	0.891518
	H66	H	0.587294	0.408926	0.117405
	H67	H	0.407554	0.412164	0.886541
	H68	H	0.595246	0.114742	0.417936
	H69	H	0.596657	0.881599	0.598276
	H70	H	0.406219	0.116879	0.591785
	H71	H	0.406556	0.883303	0.420312
	H72	H	0.915166	0.615146	0.098720
	H73	H	0.099044	0.381872	0.093143
	H74	H	0.098030	0.618588	0.906571
	H75	H	0.914697	0.383793	0.912490
	H76	H	0.108905	0.921931	0.620010
	H77	H	0.093556	0.086400	0.389666
	H78	H	0.906946	0.095784	0.622707
	H79	H	0.912055	0.902918	0.386166
	H80	H	0.619248	0.092263	0.914388
	H81	H	0.382175	0.109593	0.101344
	H82	H	0.623074	0.895817	0.097709
	H83	H	0.388763	0.909484	0.906301
	H84	H	0.616099	0.908994	0.089579
	H85	H	0.392677	0.088776	0.084471
	H86	H	0.619832	0.088169	0.909460
	H87	H	0.384886	0.901771	0.905739
	H88	H	0.910311	0.087383	0.619665
	H89	H	0.094851	0.097119	0.384943
	H90	H	0.082136	0.906402	0.617224
	H91	H	0.907210	0.906314	0.385634
	H92	H	0.092107	0.614713	0.913647
	H93	H	0.100007	0.380200	0.097907
	H94	H	0.908790	0.615475	0.090961
	H95	H	0.906470	0.381529	0.914460
	H96	H	0.409176	0.118548	0.602631
	H97	H	0.597240	0.882225	0.592569
	H98	H	0.603947	0.118658	0.411385
	H99	H	0.404151	0.876765	0.402352
	H100	H	0.599846	0.398282	0.123735
	H101	H	0.594886	0.601594	0.883051
	H102	H	0.407576	0.597073	0.123213
	H103	H	0.416638	0.405569	0.888744
	H104	H	0.119554	0.600474	0.419353
	H105	H	0.884073	0.595227	0.607914
	H106	H	0.118680	0.406157	0.594035
	H107	H	0.885183	0.397504	0.412297
	H108	H	0.905905	0.618594	0.099644
	H109	H	0.095254	0.381774	0.096527
	H110	H	0.100959	0.616807	0.916380
	H111	H	0.908984	0.379980	0.906664
	H112	H	0.107037	0.891437	0.628549
	H113	H	0.103970	0.089931	0.384938
	H114	H	0.915506	0.095021	0.620429
	H115	H	0.911911	0.909216	0.388627
	H116	H	0.622045	0.094217	0.908243
	H117	H	0.386524	0.083049	0.111747
	H118	H	0.620863	0.910811	0.105695
	H119	H	0.388964	0.905020	0.913196
	C120	C	0.383154	0.007581	0.624333
	C121	C	0.626197	0.990303	0.624774
	C122	C	0.625842	0.007668	0.383057
	C123	C	0.382711	0.990023	0.382887
	C124	C	0.625565	0.377589	0.011915
	C125	C	0.624614	0.620223	0.994967
	C126	C	0.381709	0.621043	0.012473
	C127	C	0.382405	0.378177	0.994677
	C128	C	0.012002	0.620431	0.382485
	C129	C	0.995373	0.621554	0.627155
	C130	C	0.011790	0.377528	0.625799
	C131	C	0.995338	0.377214	0.381737
	C132	C	0.881611	0.508076	0.124833
	C133	C	0.125364	0.490310	0.125227
	C134	C	0.125436	0.507588	0.882930
	C135	C	0.881523	0.490538	0.882607
	C136	C	0.126584	0.877412	0.512696
	C137	C	0.125695	0.120302	0.495369
	C138	C	0.882524	0.120966	0.512612
	C139	C	0.882694	0.878091	0.495493
	C140	C	0.512629	0.120044	0.881962
	C141	C	0.495281	0.121697	0.126728
	C142	C	0.512231	0.877490	0.125330
	C143	C	0.495263	0.876515	0.881018
	C144	C	0.387091	0.883203	0.677948
	C145	C	0.622541	0.113921	0.680345
	C146	C	0.622750	0.883713	0.327759
	C147	C	0.385575	0.114473	0.329367
	C148	C	0.680911	0.378308	0.888662
	C149	C	0.680180	0.619180	0.118425
	C150	C	0.326104	0.618472	0.889336
	C151	C	0.327459	0.380342	0.118277
	C152	C	0.889488	0.675822	0.386060
	C153	C	0.118278	0.675500	0.624139
	C154	C	0.889148	0.323175	0.621901
	C155	C	0.117934	0.321995	0.384284
	C156	C	0.889053	0.380852	0.679905
	C157	C	0.118305	0.617499	0.681556
	C158	C	0.889361	0.618451	0.327598
	C159	C	0.117572	0.378813	0.326160
	C160	C	0.384980	0.674338	0.888265
	C161	C	0.621618	0.675451	0.118867
	C162	C	0.622531	0.321910	0.888249
	C163	C	0.385941	0.324261	0.118722
	C164	C	0.681258	0.884053	0.383845
	C165	C	0.680937	0.113703	0.624136
	C166	C	0.328458	0.883854	0.622015
	C167	C	0.326771	0.113549	0.384895
	C168	C	0.884869	0.383802	0.179369
	C169	C	0.121131	0.614407	0.180496
	C170	C	0.121835	0.383413	0.828317
	C171	C	0.884996	0.614883	0.829013
	C172	C	0.180180	0.879362	0.389091
	C173	C	0.180482	0.118685	0.618995
	C174	C	0.827263	0.118441	0.388827
	C175	C	0.828298	0.881065	0.619223
	C176	C	0.389514	0.174209	0.885393
	C177	C	0.618224	0.175780	0.123040
	C178	C	0.389107	0.824236	0.121483
	C179	C	0.617923	0.821315	0.884892
	C180	C	0.389455	0.881398	0.179925
	C181	C	0.618577	0.117730	0.180683
	C182	C	0.389867	0.116881	0.826976
	C183	C	0.618084	0.878531	0.826740
	C184	C	0.885471	0.175069	0.388467
	C185	C	0.121687	0.175086	0.619412
	C186	C	0.122009	0.822676	0.388844
	C187	C	0.887017	0.825168	0.620029
	C188	C	0.181095	0.384157	0.883993
	C189	C	0.179559	0.614311	0.124298
	C190	C	0.826136	0.384342	0.123101
	C191	C	0.825754	0.614057	0.884446
	C192	C	0.404511	0.094055	0.602751
	C193	C	0.605031	0.903539	0.602074
	C194	C	0.604092	0.094367	0.405574
	C195	C	0.404449	0.903486	0.404011
	C196	C	0.603437	0.400743	0.098161
	C197	C	0.602583	0.597115	0.908927
	C198	C	0.403619	0.599761	0.098789
	C199	C	0.404061	0.399901	0.908592
	C200	C	0.097363	0.597797	0.404447
	C201	C	0.909263	0.600434	0.605334
	C202	C	0.097540	0.399276	0.604273
	C203	C	0.909986	0.400010	0.404090
	C204	C	0.903448	0.594016	0.102917
	C205	C	0.104377	0.403664	0.102512
	C206	C	0.103575	0.594353	0.905555
	C207	C	0.903538	0.404068	0.904583
	C208	C	0.105670	0.900031	0.599594
	C209	C	0.104052	0.097718	0.408877
	C210	C	0.904357	0.099073	0.598499
	C211	C	0.904200	0.899526	0.409098
	C212	C	0.598296	0.098144	0.904261
	C213	C	0.409387	0.100353	0.105436
	C214	C	0.597942	0.898780	0.103920
	C215	C	0.409614	0.898755	0.902127
	Zn216	Zn	0.504423	-0.001439	0.752476
	Zn217	Zn	0.504232	-0.000856	0.255315
	Zn218	Zn	0.753049	0.498921	0.003558
	Zn219	Zn	0.253843	0.499399	0.004239
	Zn220	Zn	0.004443	0.749976	0.504794
	Zn221	Zn	0.004042	0.248515	0.503520
	Zn222	Zn	0.003505	0.499062	0.755362
	Zn223	Zn	0.003630	0.498702	0.252680
	Zn224	Zn	0.503417	0.748466	0.003738
	Zn225	Zn	0.503906	0.249906	0.003554
	Zn226	Zn	0.754068	-0.000837	0.503736
	Zn227	Zn	0.254523	-0.000961	0.503856
	N228	N	0.420525	0.961110	0.679599
	N229	N	0.589134	0.036028	0.680686
	N230	N	0.589077	0.961621	0.327149
	N231	N	0.419762	0.036829	0.327845
	N232	N	0.682895	0.412065	0.966776
	N233	N	0.681977	0.585273	0.040515
	N234	N	0.324168	0.585884	0.967369
	N235	N	0.325065	0.413201	0.040246
	N236	N	0.966801	0.677272	0.419566
	N237	N	0.040933	0.677936	0.590862
	N238	N	0.966594	0.320857	0.589218
	N239	N	0.040970	0.320919	0.418269
	N240	N	0.966208	0.414420	0.681919
	N241	N	0.040751	0.584766	0.683619
	N242	N	0.966463	0.584550	0.325486
	N243	N	0.040329	0.412559	0.324334
	N244	N	0.418813	0.676102	0.965867
	N245	N	0.587681	0.676011	0.041275
	N246	N	0.588735	0.321590	0.965824
	N247	N	0.419524	0.322681	0.041000
	N248	N	0.683238	0.962222	0.417556
	N249	N	0.683199	0.035809	0.590226
	N250	N	0.325916	0.962092	0.589590
	N251	N	0.324660	0.035202	0.417251
	N252	N	0.918940	0.461382	0.180468
	N253	N	0.088074	0.536419	0.181050
	N254	N	0.088034	0.461279	0.827594
	N255	N	0.919118	0.537097	0.827939
	N256	N	0.183024	0.912539	0.467237
	N257	N	0.182955	0.085251	0.540971
	N258	N	0.825107	0.085606	0.466838
	N259	N	0.825422	0.913067	0.540856
	N260	N	0.466764	0.176223	0.918943
	N261	N	0.540641	0.178415	0.090234
	N262	N	0.466283	0.821661	0.088250
	N263	N	0.540658	0.819715	0.917733
	N264	N	0.467003	0.913703	0.182415
	N265	N	0.541222	0.084871	0.183181
	N266	N	0.467434	0.084012	0.824846
	N267	N	0.540989	0.912248	0.824165
	N268	N	0.919142	0.176804	0.466133
	N269	N	0.088425	0.176145	0.541374
	N270	N	0.089337	0.821433	0.466881
	N271	N	0.920390	0.823373	0.542188
	N272	N	0.183275	0.462456	0.917396
	N273	N	0.182405	0.536095	0.090819
	N274	N	0.823977	0.462351	0.089973
	N275	N	0.823736	0.535974	0.917313
	O276	O	-0.490351	0.476132	1.479157
	H277	H	-0.493926	0.474625	1.471259
	H278	H	-0.484637	0.471648	1.479387
	O279	O	0.555653	0.513654	0.435861
	H280	H	0.556579	0.515779	0.440273
	H281	H	0.561523	0.517163	0.430832
	O282	O	0.483503	0.504097	-0.528774
	H283	H	0.486202	0.508671	-0.533567
	H284	H	0.485702	0.504345	-0.532671
	O285	O	0.476247	0.522002	0.496719
	H286	H	0.476207	0.518486	0.491372
	H287	H	0.477905	0.517350	0.494916
	O288	O	0.528059	0.464953	0.441616
	H289	H	0.532824	0.471935	0.441194
	H290	H	0.523978	0.464663	0.444380
	O291	O	-0.516762	1.458451	0.455991
	H292	H	-0.516384	1.456981	0.448534
	H293	H	-0.528814	1.456123	0.468178
	O294	O	0.523124	0.510181	0.433545
	H295	H	0.521486	0.510617	0.431133
	H296	H	0.521383	0.511345	0.434915
	O297	O	1.515994	-0.496825	0.492397
	H298	H	1.518820	-0.496239	0.495475
	H299	H	1.515064	-0.498730	0.493734
