data_Molecule from HDF5

_cell_length_a		16.392047
_cell_length_b		16.237047
_cell_length_c		16.105124
_cell_angle_alpha	89.860691
_cell_angle_beta	89.695078
_cell_angle_gamma	90.144525
_symmetry_space_group_name_H-M	'P 1'
_symmetry_Int_Tables_number		1

loop_
	_symmetry_equiv_pos_as_xyz
	x,y,z

loop_
	_atom_site_label
	_atom_site_type_symbol
	_atom_site_fract_x
	_atom_site_fract_y
	_atom_site_fract_z
	H0	H	0.398051	0.821301	0.719186
	H1	H	0.591392	0.152467	0.716213
	H2	H	0.591354	0.821863	0.293291
	H3	H	0.400896	0.151791	0.292956
	H4	H	0.713202	0.386941	0.842451
	H5	H	0.710906	0.587891	0.170243
	H6	H	0.282755	0.588837	0.840666
	H7	H	0.279952	0.385939	0.169555
	H8	H	0.833576	0.702865	0.404735
	H9	H	0.158373	0.704218	0.603354
	H10	H	0.833466	0.270789	0.604934
	H11	H	0.158512	0.272029	0.403619
	H12	H	0.833188	0.388009	0.721145
	H13	H	0.159817	0.584965	0.716907
	H14	H	0.832453	0.583416	0.291825
	H15	H	0.159708	0.391674	0.290582
	H16	H	0.400202	0.700429	0.840579
	H17	H	0.593319	0.698889	0.171662
	H18	H	0.595308	0.275115	0.840634
	H19	H	0.398694	0.274920	0.171290
	H20	H	0.711526	0.823507	0.403040
	H21	H	0.713061	0.149751	0.606557
	H22	H	0.277951	0.823586	0.607203
	H23	H	0.281011	0.149765	0.404324
	H24	H	0.899503	0.322828	0.218055
	H25	H	0.091516	0.652553	0.215028
	H26	H	0.093894	0.322774	0.791261
	H27	H	0.900925	0.652609	0.791770
	H28	H	0.211542	0.887580	0.340314
	H29	H	0.210943	0.087540	0.669409
	H30	H	0.782927	0.085802	0.339909
	H31	H	0.779308	0.885620	0.668511
	H32	H	0.333119	0.202798	0.907841
	H33	H	0.658471	0.202855	0.105135
	H34	H	0.334256	0.770047	0.106540
	H35	H	0.659620	0.771639	0.905570
	H36	H	0.332656	0.889002	0.220069
	H37	H	0.659776	0.082506	0.217564
	H38	H	0.332126	0.084723	0.791692
	H39	H	0.659360	0.889176	0.789318
	H40	H	0.899682	0.198998	0.338438
	H41	H	0.092899	0.199525	0.670376
	H42	H	0.092524	0.776866	0.338328
	H43	H	0.896594	0.772916	0.669708
	H44	H	0.213106	0.324353	0.903274
	H45	H	0.212069	0.650483	0.104430
	H46	H	0.778002	0.324985	0.109889
	H47	H	0.781147	0.651808	0.904642
	H48	H	0.403988	0.103246	0.600082
	H49	H	0.584113	0.872392	0.593709
	H50	H	0.584742	0.101657	0.414864
	H51	H	0.399324	0.867988	0.412436
	H52	H	0.590331	0.393944	0.125100
	H53	H	0.584835	0.571733	0.891165
	H54	H	0.399637	0.577855	0.123675
	H55	H	0.408959	0.396299	0.889431
	H56	H	0.113256	0.584997	0.407724
	H57	H	0.880133	0.575675	0.602101
	H58	H	0.113352	0.390593	0.599194
	H59	H	0.880108	0.395683	0.409305
	H60	H	0.111319	0.391708	0.594063
	H61	H	0.878634	0.585351	0.598369
	H62	H	0.111143	0.582717	0.414689
	H63	H	0.878707	0.388211	0.410194
	H64	H	0.403893	0.576117	0.122780
	H65	H	0.586708	0.585776	0.887491
	H66	H	0.589338	0.397002	0.123828
	H67	H	0.402499	0.390270	0.884844
	H68	H	0.596742	0.104710	0.416672
	H69	H	0.594213	0.869955	0.593784
	H70	H	0.402403	0.102232	0.594522
	H71	H	0.405759	0.869991	0.412290
	H72	H	0.903065	0.604192	0.094539
	H73	H	0.096721	0.367443	0.099014
	H74	H	0.090957	0.604881	0.908910
	H75	H	0.905188	0.371409	0.913726
	H76	H	0.089132	0.898949	0.622338
	H77	H	0.089899	0.077357	0.387915
	H78	H	0.907192	0.072716	0.619627
	H79	H	0.909342	0.893987	0.388121
	H80	H	0.610295	0.073879	0.908804
	H81	H	0.384173	0.074971	0.093019
	H82	H	0.608870	0.898012	0.093248
	H83	H	0.378009	0.882090	0.913939
	H84	H	0.614567	0.895197	0.107581
	H85	H	0.378566	0.077469	0.107655
	H86	H	0.612901	0.087024	0.907855
	H87	H	0.385881	0.897170	0.923864
	H88	H	0.905186	0.083670	0.623306
	H89	H	0.088663	0.082418	0.386780
	H90	H	0.083378	0.896310	0.621531
	H91	H	0.899066	0.888039	0.382592
	H92	H	0.089126	0.603344	0.913985
	H93	H	0.084107	0.370464	0.101895
	H94	H	0.900614	0.604970	0.097569
	H95	H	0.903017	0.372495	0.917478
	H96	H	0.398747	0.104341	0.598339
	H97	H	0.587920	0.868498	0.602191
	H98	H	0.591933	0.106652	0.405284
	H99	H	0.401752	0.871380	0.418065
	H100	H	0.586704	0.394434	0.124205
	H101	H	0.596678	0.576527	0.886512
	H102	H	0.403137	0.580425	0.124489
	H103	H	0.400172	0.399477	0.887237
	H104	H	0.111515	0.578257	0.409346
	H105	H	0.882988	0.578727	0.592484
	H106	H	0.111198	0.395611	0.597807
	H107	H	0.880760	0.393010	0.416551
	H108	H	0.904030	0.605117	0.099065
	H109	H	0.088654	0.371885	0.089395
	H110	H	0.094521	0.604876	0.913100
	H111	H	0.900970	0.371288	0.914150
	H112	H	0.088103	0.892286	0.623870
	H113	H	0.094005	0.080233	0.385518
	H114	H	0.897282	0.076201	0.623748
	H115	H	0.898589	0.900075	0.386767
	H116	H	0.609527	0.081909	0.919065
	H117	H	0.378688	0.088614	0.096635
	H118	H	0.613833	0.883848	0.096264
	H119	H	0.380244	0.898922	0.905139
	C120	C	0.372835	-0.004926	0.627435
	C121	C	0.617189	0.978624	0.625932
	C122	C	0.618116	-0.004657	0.383790
	C123	C	0.374808	0.978082	0.384976
	C124	C	0.618071	0.366273	0.015110
	C125	C	0.617450	0.607480	0.997424
	C126	C	0.374801	0.607769	0.014234
	C127	C	0.375213	0.366307	0.996785
	C128	C	0.004286	0.609681	0.382191
	C129	C	0.988027	0.609175	0.626428
	C130	C	0.004460	0.364002	0.627100
	C131	C	0.987712	0.365106	0.382987
	C132	C	0.874006	0.496468	0.127014
	C133	C	0.117873	0.478390	0.125603
	C134	C	0.119066	0.495827	0.882991
	C135	C	0.874852	0.479838	0.884781
	C136	C	0.115987	0.867135	0.513370
	C137	C	0.118592	0.108654	0.495941
	C138	C	0.875346	0.106645	0.512899
	C139	C	0.873426	0.864728	0.495097
	C140	C	0.503561	0.109367	0.883672
	C141	C	0.487808	0.108932	0.127624
	C142	C	0.504636	0.864246	0.127742
	C143	C	0.488509	0.864313	0.883720
	C144	C	0.376305	0.871025	0.682566
	C145	C	0.613300	0.102864	0.679940
	C146	C	0.613160	0.871177	0.330137
	C147	C	0.379323	0.102201	0.330239
	C148	C	0.674830	0.367139	0.891525
	C149	C	0.672508	0.606737	0.121421
	C150	C	0.320657	0.607338	0.890045
	C151	C	0.318685	0.366857	0.120536
	C152	C	0.881909	0.664458	0.384849
	C153	C	0.110091	0.665481	0.623585
	C154	C	0.882080	0.308663	0.625638
	C155	C	0.110295	0.310470	0.384356
	C156	C	0.881968	0.367352	0.683142
	C157	C	0.111017	0.606010	0.679914
	C158	C	0.881475	0.605278	0.328527
	C159	C	0.110822	0.369702	0.327767
	C160	C	0.378988	0.663096	0.889956
	C161	C	0.614116	0.661881	0.122116
	C162	C	0.616274	0.311387	0.890659
	C163	C	0.377722	0.311608	0.121586
	C164	C	0.672851	0.872186	0.384750
	C165	C	0.673367	0.101529	0.624979
	C166	C	0.316597	0.872154	0.627015
	C167	C	0.319730	0.101332	0.385410
	C168	C	0.877716	0.372222	0.181525
	C169	C	0.113328	0.602950	0.178673
	C170	C	0.115077	0.372094	0.828426
	C171	C	0.879019	0.603346	0.829194
	C172	C	0.172749	0.868108	0.389299
	C173	C	0.172758	0.106846	0.620376
	C174	C	0.820585	0.105727	0.388961
	C175	C	0.817911	0.866329	0.619468
	C176	C	0.381502	0.164691	0.886959
	C177	C	0.610034	0.164611	0.125336
	C178	C	0.382426	0.808698	0.126287
	C179	C	0.610956	0.809615	0.885420
	C180	C	0.381692	0.867725	0.182820
	C181	C	0.610767	0.104806	0.181201
	C182	C	0.380933	0.105885	0.829373
	C183	C	0.610777	0.867960	0.827468
	C184	C	0.878819	0.161704	0.388148
	C185	C	0.114183	0.162636	0.620741
	C186	C	0.113517	0.813407	0.388224
	C187	C	0.876235	0.810214	0.620165
	C188	C	0.174401	0.372807	0.883932
	C189	C	0.173308	0.601799	0.123746
	C190	C	0.817584	0.373431	0.127361
	C191	C	0.819460	0.602798	0.885102
	C192	C	0.395016	0.081227	0.604436
	C193	C	0.595178	0.892497	0.603317
	C194	C	0.597293	0.081917	0.405932
	C195	C	0.395874	0.891906	0.407778
	C196	C	0.595407	0.388528	0.101973
	C197	C	0.595770	0.584753	0.910869
	C198	C	0.395951	0.584906	0.101243
	C199	C	0.397511	0.388640	0.909854
	C200	C	0.089847	0.588430	0.404045
	C201	C	0.902560	0.586647	0.604213
	C202	C	0.089758	0.386032	0.603979
	C203	C	0.902055	0.386260	0.405426
	C204	C	0.896038	0.582453	0.103892
	C205	C	0.096218	0.392214	0.103283
	C206	C	0.097846	0.582203	0.905419
	C207	C	0.896565	0.393924	0.908261
	C208	C	0.093546	0.889333	0.600203
	C209	C	0.097243	0.086588	0.409088
	C210	C	0.897021	0.084204	0.599708
	C211	C	0.895747	0.887389	0.408219
	C212	C	0.588885	0.087355	0.905551
	C213	C	0.402493	0.086796	0.105657
	C214	C	0.590250	0.885904	0.105571
	C215	C	0.403263	0.886329	0.907234
	Zn216	Zn	0.495828	-0.013042	0.754272
	Zn217	Zn	0.496098	-0.013461	0.256356
	Zn218	Zn	0.745278	0.487903	0.006305
	Zn219	Zn	0.247010	0.486762	0.004578
	Zn220	Zn	-0.004097	0.738688	0.504199
	Zn221	Zn	-0.004256	0.235280	0.504202
	Zn222	Zn	-0.003150	0.487315	0.755629
	Zn223	Zn	-0.004025	0.487589	0.253798
	Zn224	Zn	0.497064	0.734646	0.006210
	Zn225	Zn	0.496347	0.239049	0.005859
	Zn226	Zn	0.746676	-0.013255	0.504424
	Zn227	Zn	0.244997	-0.013545	0.505005
	N228	N	0.410421	0.948601	0.682974
	N229	N	0.579200	0.025320	0.680835
	N230	N	0.579891	0.948789	0.329335
	N231	N	0.412703	0.024575	0.329627
	N232	N	0.676074	0.400498	0.969886
	N233	N	0.674568	0.573561	0.042919
	N234	N	0.318160	0.573607	0.968380
	N235	N	0.317053	0.400094	0.041938
	N236	N	0.959218	0.667187	0.417685
	N237	N	0.032688	0.667471	0.590953
	N238	N	0.959175	0.306411	0.591521
	N239	N	0.032864	0.307277	0.417755
	N240	N	0.959102	0.401141	0.683889
	N241	N	0.034039	0.571824	0.681732
	N242	N	0.958515	0.571934	0.326914
	N243	N	0.033731	0.403134	0.327009
	N244	N	0.412148	0.663390	0.968180
	N245	N	0.580502	0.662538	0.043993
	N246	N	0.581772	0.310807	0.968627
	N247	N	0.412262	0.311283	0.043610
	N248	N	0.675821	0.950384	0.417604
	N249	N	0.676128	0.023204	0.592431
	N250	N	0.314114	0.950214	0.593784
	N251	N	0.317083	0.023167	0.419003
	N252	N	0.912064	0.449527	0.181541
	N253	N	0.079645	0.525210	0.180148
	N254	N	0.081475	0.449656	0.827688
	N255	N	0.912799	0.525936	0.828962
	N256	N	0.174199	0.900877	0.468048
	N257	N	0.175596	0.074029	0.541669
	N258	N	0.818273	0.072377	0.467387
	N259	N	0.816051	0.899282	0.540751
	N260	N	0.458964	0.167257	0.919559
	N261	N	0.532708	0.167263	0.092778
	N262	N	0.459783	0.806345	0.092831
	N263	N	0.533915	0.807371	0.919846
	N264	N	0.458648	0.901671	0.183654
	N265	N	0.533712	0.070974	0.182822
	N266	N	0.457713	0.072092	0.827415
	N267	N	0.533659	0.901292	0.826327
	N268	N	0.912233	0.162403	0.466401
	N269	N	0.081225	0.163944	0.542387
	N270	N	0.078868	0.812544	0.466284
	N271	N	0.910032	0.809179	0.541781
	N272	N	0.176969	0.450833	0.917110
	N273	N	0.176195	0.523547	0.091340
	N274	N	0.815075	0.451671	0.094110
	N275	N	0.816600	0.524808	0.918954
	O276	O	0.944851	0.991707	-0.065924
	H277	H	0.936095	0.988679	-0.076850
	H278	H	0.942244	1.000745	-0.068269
	O279	O	0.050350	-0.036203	-0.075641
	H280	H	0.042393	-0.039150	-0.075657
	H281	H	0.053903	-0.038914	-0.073839
	O282	O	0.045192	-0.075500	0.941641
	H283	H	0.046368	-0.081424	0.938267
	H284	H	0.036217	-0.082923	0.940729
	O285	O	1.545631	1.488911	0.592881
	H286	H	1.543922	1.495527	0.600195
	H287	H	1.534659	1.481999	0.589984
	O288	O	-0.016757	1.032500	-0.058733
	H289	H	-0.024664	1.042361	-0.052616
	H290	H	-0.005581	1.030727	-0.063000
	O291	O	0.493651	0.500724	0.552699
	H292	H	0.501297	0.506124	0.548371
	H293	H	0.500043	0.501091	0.556948
	O294	O	0.008712	0.029074	-0.028963
	H295	H	-0.002473	0.027354	-0.037640
	H296	H	0.013726	0.031426	-0.020534
	O297	O	0.532519	0.493279	0.547958
	H298	H	0.534927	0.496759	0.548806
	H299	H	0.526166	0.487265	0.555653
	O300	O	-0.060950	1.045879	0.920503
	H301	H	-0.048115	1.050507	0.916118
	H302	H	-0.057488	1.038765	0.912411
	O303	O	0.466145	0.506515	0.553169
	H304	H	0.470040	0.508397	0.561265
	H305	H	0.468179	0.515303	0.553394
	O306	O	0.040413	-0.032216	0.908318
	H307	H	0.030611	-0.037720	0.908950
	H308	H	0.047495	-0.029540	0.897422
	O309	O	0.972462	0.981317	0.980153
	H310	H	0.968457	0.992898	0.981490
	H311	H	0.971639	0.980904	0.980167
	O312	O	0.450740	0.427340	0.555677
	H313	H	0.446608	0.416699	0.556793
	H314	H	0.444046	0.427266	0.554060
	O315	O	0.527590	0.516201	0.603001
	H316	H	0.529767	0.525388	0.603409
	H317	H	0.530532	0.498432	0.604505
	O318	O	0.157420	1.226571	-0.208134
	H319	H	0.159807	1.215368	-0.203386
	H320	H	0.163885	1.231814	-0.203103
	O321	O	1.090620	1.020376	-0.050503
	H322	H	1.085950	1.022938	-0.055025
	H323	H	1.104554	1.005693	-0.047860
