data_Molecule from HDF5

_cell_length_a		16.431249
_cell_length_b		16.462484
_cell_length_c		16.678228
_cell_angle_alpha	90.013862
_cell_angle_beta	89.956305
_cell_angle_gamma	89.937706
_symmetry_space_group_name_H-M	'P 1'
_symmetry_Int_Tables_number		1

loop_
	_symmetry_equiv_pos_as_xyz
	x,y,z

loop_
	_atom_site_label
	_atom_site_type_symbol
	_atom_site_fract_x
	_atom_site_fract_y
	_atom_site_fract_z
	H0	H	0.397253	0.848286	0.729216
	H1	H	0.612030	0.160640	0.726682
	H2	H	0.613086	0.848796	0.282585
	H3	H	0.398571	0.160492	0.281079
	H4	H	0.725808	0.401529	0.846690
	H5	H	0.724601	0.605894	0.161212
	H6	H	0.281424	0.612431	0.848910
	H7	H	0.286042	0.400589	0.160488
	H8	H	0.847521	0.722978	0.403439
	H9	H	0.166018	0.725952	0.608078
	H10	H	0.848962	0.286245	0.608373
	H11	H	0.161980	0.279077	0.395223
	H12	H	0.850567	0.400856	0.725406
	H13	H	0.163317	0.616611	0.730072
	H14	H	0.848105	0.608834	0.285779
	H15	H	0.161361	0.394569	0.278991
	H16	H	0.397058	0.730316	0.849622
	H17	H	0.610187	0.725512	0.159723
	H18	H	0.607228	0.286935	0.845872
	H19	H	0.401953	0.283478	0.159873
	H20	H	0.722288	0.845946	0.403959
	H21	H	0.726282	0.161639	0.608332
	H22	H	0.286991	0.845210	0.608322
	H23	H	0.285361	0.161418	0.401101
	H24	H	0.900388	0.346220	0.225578
	H25	H	0.111385	0.661770	0.225735
	H26	H	0.117454	0.349704	0.778535
	H27	H	0.901642	0.662316	0.784509
	H28	H	0.229093	0.899111	0.349662
	H29	H	0.230952	0.112145	0.660820
	H30	H	0.782901	0.111562	0.349395
	H31	H	0.783820	0.901612	0.659014
	H32	H	0.346294	0.224740	0.900396
	H33	H	0.665667	0.223027	0.105647
	H34	H	0.350239	0.782431	0.111021
	H35	H	0.664491	0.785932	0.902113
	H36	H	0.352029	0.895286	0.229454
	H37	H	0.664199	0.111474	0.225018
	H38	H	0.348317	0.113081	0.780763
	H39	H	0.663684	0.902320	0.785242
	H40	H	0.898579	0.230428	0.350873
	H41	H	0.114962	0.229406	0.660680
	H42	H	0.110771	0.785674	0.347438
	H43	H	0.901984	0.783835	0.659195
	H44	H	0.226688	0.345864	0.899971
	H45	H	0.226844	0.661544	0.109816
	H46	H	0.789570	0.344393	0.105926
	H47	H	0.788489	0.662912	0.903846
	H48	H	0.420829	0.115675	0.596420
	H49	H	0.589836	0.892686	0.592504
	H50	H	0.591565	0.117500	0.417269
	H51	H	0.415957	0.890992	0.417312
	H52	H	0.600418	0.414272	0.116272
	H53	H	0.593547	0.595958	0.892717
	H54	H	0.415734	0.581319	0.110991
	H55	H	0.416401	0.413779	0.891848
	H56	H	0.119558	0.595098	0.417326
	H57	H	0.892748	0.598426	0.596018
	H58	H	0.120594	0.417259	0.590980
	H59	H	0.889770	0.409081	0.414925
	H60	H	0.118916	0.419795	0.587821
	H61	H	0.896215	0.593344	0.591833
	H62	H	0.119025	0.589256	0.413192
	H63	H	0.898811	0.420236	0.426851
	H64	H	0.428360	0.598423	0.112462
	H65	H	0.598858	0.594973	0.891297
	H66	H	0.594390	0.413473	0.115348
	H67	H	0.415449	0.417017	0.892266
	H68	H	0.597834	0.119817	0.413857
	H69	H	0.597843	0.891314	0.592299
	H70	H	0.421854	0.114559	0.590966
	H71	H	0.421023	0.891003	0.410709
	H72	H	0.912281	0.620579	0.099985
	H73	H	0.098108	0.388481	0.098133
	H74	H	0.090461	0.614858	0.918539
	H75	H	0.916794	0.391464	0.917322
	H76	H	0.093616	0.912488	0.616477
	H77	H	0.090569	0.092609	0.397150
	H78	H	0.915913	0.098577	0.617486
	H79	H	0.910933	0.908388	0.389007
	H80	H	0.616508	0.085235	0.913090
	H81	H	0.393235	0.092369	0.094408
	H82	H	0.617202	0.918345	0.087848
	H83	H	0.395870	0.919531	0.921271
	H84	H	0.619550	0.921161	0.096660
	H85	H	0.393775	0.093267	0.093677
	H86	H	0.622119	0.097671	0.905766
	H87	H	0.392653	0.921141	0.912175
	H88	H	0.912990	0.088773	0.615847
	H89	H	0.096269	0.092318	0.395263
	H90	H	0.098517	0.913566	0.617225
	H91	H	0.913120	0.921148	0.392225
	H92	H	0.094470	0.615850	0.918694
	H93	H	0.085519	0.394044	0.095379
	H94	H	0.920141	0.616836	0.098140
	H95	H	0.915339	0.388929	0.909769
	H96	H	0.416552	0.117470	0.592319
	H97	H	0.593724	0.889573	0.598946
	H98	H	0.591386	0.119480	0.410205
	H99	H	0.423640	0.894027	0.417425
	H100	H	0.598077	0.408999	0.117630
	H101	H	0.596198	0.590965	0.893902
	H102	H	0.408858	0.599312	0.119356
	H103	H	0.418701	0.415968	0.892958
	H104	H	0.122588	0.595363	0.410359
	H105	H	0.894022	0.591506	0.599059
	H106	H	0.118724	0.421133	0.592111
	H107	H	0.895132	0.426642	0.409987
	H108	H	0.913406	0.616243	0.092096
	H109	H	0.095737	0.393847	0.085986
	H110	H	0.092527	0.617268	0.915390
	H111	H	0.922883	0.391615	0.911904
	H112	H	0.095369	0.917181	0.615891
	H113	H	0.093757	0.087487	0.397879
	H114	H	0.921827	0.092140	0.612902
	H115	H	0.923000	0.911598	0.392810
	H116	H	0.617635	0.098750	0.920107
	H117	H	0.393472	0.091999	0.093151
	H118	H	0.621713	0.912485	0.093404
	H119	H	0.390929	0.912776	0.916588
	C120	C	0.385615	0.012603	0.626264
	C121	C	0.626523	0.995377	0.625979
	C122	C	0.626253	0.014225	0.383048
	C123	C	0.386165	0.995535	0.382770
	C124	C	0.628239	0.381869	0.012295
	C125	C	0.627554	0.625087	0.995870
	C126	C	0.383853	0.626524	0.012098
	C127	C	0.384276	0.382902	0.995357
	C128	C	0.015174	0.625083	0.383465
	C129	C	0.998632	0.627683	0.627158
	C130	C	0.015505	0.386191	0.623770
	C131	C	0.997411	0.383443	0.383078
	C132	C	0.884363	0.512872	0.126834
	C133	C	0.126495	0.495806	0.125939
	C134	C	0.127503	0.513150	0.883168
	C135	C	0.886425	0.495682	0.882957
	C136	C	0.128413	0.882450	0.513468
	C137	C	0.127966	0.125627	0.498235
	C138	C	0.883888	0.126623	0.513084
	C139	C	0.883874	0.882712	0.494853
	C140	C	0.513922	0.126200	0.881719
	C141	C	0.497965	0.125222	0.124825
	C142	C	0.515747	0.883532	0.125688
	C143	C	0.497044	0.884684	0.884026
	C144	C	0.380773	0.894707	0.687773
	C145	C	0.629653	0.113806	0.686044
	C146	C	0.629886	0.895591	0.323260
	C147	C	0.381490	0.113556	0.321953
	C148	C	0.686584	0.382000	0.894159
	C149	C	0.685598	0.625551	0.113872
	C150	C	0.321789	0.630514	0.895678
	C151	C	0.325252	0.381555	0.113139
	C152	C	0.895375	0.683719	0.383931
	C153	C	0.117973	0.687031	0.627711
	C154	C	0.896699	0.325990	0.626637
	C155	C	0.114945	0.320352	0.378174
	C156	C	0.897455	0.382997	0.684849
	C157	C	0.116784	0.632371	0.688290
	C158	C	0.895594	0.626944	0.325333
	C159	C	0.114445	0.377608	0.320034
	C160	C	0.379645	0.688924	0.895720
	C161	C	0.628519	0.684834	0.113231
	C162	C	0.627324	0.325200	0.893375
	C163	C	0.382828	0.323162	0.112904
	C164	C	0.684076	0.894136	0.383752
	C165	C	0.686323	0.114249	0.627216
	C166	C	0.326000	0.893208	0.627544
	C167	C	0.325327	0.114020	0.381571
	C168	C	0.882542	0.393750	0.185680
	C169	C	0.129468	0.614149	0.185889
	C170	C	0.133674	0.396015	0.820229
	C171	C	0.884051	0.614963	0.824581
	C172	C	0.188914	0.880685	0.396354
	C173	C	0.190129	0.129919	0.614348
	C174	C	0.822898	0.130111	0.396166
	C175	C	0.824192	0.882018	0.612407
	C176	C	0.394540	0.185931	0.880751
	C177	C	0.617504	0.184071	0.124748
	C178	C	0.397656	0.822273	0.129117
	C179	C	0.616876	0.825488	0.882869
	C180	C	0.398455	0.878893	0.187599
	C181	C	0.616830	0.128595	0.184413
	C182	C	0.395404	0.130119	0.821315
	C183	C	0.616397	0.883138	0.825077
	C184	C	0.880497	0.188941	0.396909
	C185	C	0.132351	0.188539	0.614067
	C186	C	0.129800	0.824149	0.395232
	C187	C	0.882630	0.823756	0.612668
	C188	C	0.187960	0.394195	0.880832
	C189	C	0.187057	0.614128	0.128090
	C190	C	0.827202	0.392517	0.126081
	C191	C	0.827499	0.615045	0.883709
	C192	C	0.412115	0.094407	0.600687
	C193	C	0.601110	0.912704	0.601637
	C194	C	0.601044	0.097494	0.406997
	C195	C	0.412427	0.913491	0.407953
	C196	C	0.604355	0.405345	0.095007
	C197	C	0.603239	0.600770	0.913990
	C198	C	0.410067	0.600542	0.092949
	C199	C	0.409631	0.408150	0.913627
	C200	C	0.098590	0.600340	0.406915
	C201	C	0.915978	0.602046	0.602553
	C202	C	0.098102	0.412036	0.597725
	C203	C	0.915772	0.410679	0.409787
	C204	C	0.908418	0.596240	0.103387
	C205	C	0.100650	0.413417	0.100515
	C206	C	0.100286	0.594670	0.909703
	C207	C	0.911360	0.412535	0.906310
	C208	C	0.103225	0.907422	0.595293
	C209	C	0.101231	0.098568	0.417697
	C210	C	0.909528	0.100685	0.594196
	C211	C	0.908624	0.906727	0.412774
	C212	C	0.597086	0.101143	0.906012
	C213	C	0.415184	0.099815	0.100703
	C214	C	0.598065	0.909814	0.099840
	C215	C	0.414632	0.910338	0.909244
	Zn216	Zn	0.505268	0.004720	0.754697
	Zn217	Zn	0.507077	0.004852	0.253858
	Zn218	Zn	0.757468	0.503349	0.004326
	Zn219	Zn	0.254827	0.504281	0.004282
	Zn220	Zn	0.007045	0.753921	0.504008
	Zn221	Zn	0.006704	0.255705	0.505127
	Zn222	Zn	0.008124	0.505282	0.753927
	Zn223	Zn	0.005590	0.504164	0.254638
	Zn224	Zn	0.506081	0.755518	0.004260
	Zn225	Zn	0.505500	0.253546	0.003405
	Zn226	Zn	0.754337	0.004873	0.503643
	Zn227	Zn	0.257742	0.003969	0.505397
	N228	N	0.416787	0.969960	0.687248
	N229	N	0.593172	0.038794	0.685354
	N230	N	0.594675	0.971380	0.322699
	N231	N	0.418509	0.038700	0.322514
	N232	N	0.687448	0.416178	0.969321
	N233	N	0.685303	0.589239	0.039820
	N234	N	0.324224	0.592483	0.968919
	N235	N	0.326024	0.417742	0.038992
	N236	N	0.970908	0.682885	0.419136
	N237	N	0.043332	0.684340	0.590452
	N238	N	0.971246	0.327859	0.589363
	N239	N	0.041070	0.323699	0.416598
	N240	N	0.972566	0.419535	0.683341
	N241	N	0.041556	0.596059	0.688004
	N242	N	0.971169	0.591390	0.324666
	N243	N	0.040375	0.416272	0.323055
	N244	N	0.417599	0.686725	0.969032
	N245	N	0.593199	0.684877	0.038690
	N246	N	0.591941	0.324839	0.968047
	N247	N	0.418655	0.323704	0.038367
	N248	N	0.682125	0.969056	0.419956
	N249	N	0.684374	0.039691	0.590406
	N250	N	0.328618	0.967596	0.590153
	N251	N	0.328134	0.039655	0.418716
	N252	N	0.917086	0.469598	0.186520
	N253	N	0.092741	0.539302	0.184930
	N254	N	0.096889	0.471043	0.821433
	N255	N	0.919859	0.539534	0.823714
	N256	N	0.188222	0.916240	0.470888
	N257	N	0.187660	0.091640	0.541268
	N258	N	0.824804	0.092149	0.469461
	N259	N	0.825057	0.917806	0.538111
	N260	N	0.469266	0.183652	0.917599
	N261	N	0.542457	0.182259	0.088218
	N262	N	0.471563	0.825257	0.091022
	N263	N	0.541554	0.825992	0.918607
	N264	N	0.473007	0.916431	0.185522
	N265	N	0.541458	0.092895	0.184915
	N266	N	0.470757	0.093885	0.821818
	N267	N	0.540761	0.918655	0.825342
	N268	N	0.917580	0.186999	0.470527
	N269	N	0.094315	0.186010	0.540651
	N270	N	0.093138	0.824948	0.469259
	N271	N	0.918904	0.823907	0.538521
	N272	N	0.184364	0.467943	0.919173
	N273	N	0.185349	0.539372	0.091472
	N274	N	0.827890	0.467693	0.090265
	N275	N	0.828644	0.539790	0.918954
	O276	O	0.968431	0.790398	0.005476
	H277	H	0.949963	0.778861	0.017640
	H278	H	0.960720	0.809114	-0.001148
	O279	O	0.084623	0.073514	0.794783
	H280	H	0.080816	0.087902	0.801179
	H281	H	0.092324	0.086790	0.789046
	O282	O	0.691808	0.516086	0.713052
	H283	H	0.699979	0.535085	0.739125
	H284	H	0.694570	0.548205	0.714289
	O285	O	0.637059	0.483647	0.567091
	H286	H	0.643078	0.502346	0.573397
	H287	H	0.634663	0.502865	0.570338
	O288	O	1.084237	0.064396	0.910427
	H289	H	1.081404	0.064838	0.932062
	H290	H	1.076032	0.065325	0.891071
	O291	O	0.723399	0.536933	0.490668
	H292	H	0.719953	0.532761	0.472517
	H293	H	0.717365	0.530384	0.499116
	O294	O	-0.202893	-0.102424	-0.029493
	H295	H	-0.208667	-0.089808	-0.023580
	H296	H	-0.211778	-0.100783	-0.007986
	O297	O	1.214249	-0.203560	-0.017213
	H298	H	1.210860	-0.211632	-0.028329
	H299	H	1.227679	-0.213453	-0.004779
	O300	O	0.221649	0.029406	0.224156
	H301	H	0.232826	0.049606	0.220441
	H302	H	0.244689	0.037737	0.231073
	O303	O	-0.050877	-0.047698	-0.218866
	H304	H	-0.024485	-0.025578	-0.214011
	H305	H	-0.046046	-0.063729	-0.224237
	O306	O	0.906949	0.088645	0.181690
	H307	H	0.893569	0.088623	0.172252
	H308	H	0.928121	0.076655	0.189939
	O309	O	0.619410	0.308253	0.611157
	H310	H	0.628375	0.302999	0.580737
	H311	H	0.602410	0.320509	0.593210
	O312	O	0.300673	0.393389	0.393462
	H313	H	0.311903	0.413092	0.412754
	H314	H	0.305447	0.380841	0.416047
	O315	O	0.451536	0.385879	0.374226
	H316	H	0.430899	0.391096	0.385892
	H317	H	0.430597	0.383157	0.369273
	O318	O	0.828859	1.065558	-0.139446
	H319	H	0.822165	1.078656	-0.147745
	H320	H	0.826169	1.055520	-0.148139
	O321	O	0.289130	0.342779	0.492185
	H322	H	0.275304	0.335647	0.514456
	H323	H	0.287877	0.336154	0.515756
	O324	O	0.701465	0.302829	1.303985
	H325	H	0.723793	0.280088	1.308626
	H326	H	0.679524	0.305514	1.315196
	O327	O	0.301123	0.581279	0.566531
	H328	H	0.318032	0.594790	0.569769
	H329	H	0.291746	0.597467	0.558124
	O330	O	0.030248	0.804529	0.203292
	H331	H	0.056047	0.810975	0.198067
	H332	H	0.029475	0.797382	0.217732
	O333	O	0.494205	0.529488	0.536933
	H334	H	0.475106	0.548234	0.525733
	H335	H	0.495152	0.527984	0.537550
	O336	O	0.439164	0.493031	0.409743
	H337	H	0.441125	0.508306	0.405050
	H338	H	0.442624	0.504580	0.402289
	O339	O	0.287441	0.717839	0.471070
	H340	H	0.304057	0.727025	0.467346
	H341	H	0.263898	0.748738	0.461767
	O342	O	0.215748	0.944234	0.017969
	H343	H	0.215044	0.945342	0.025389
	H344	H	0.216472	0.933953	0.007360
	O345	O	0.417573	0.647432	0.669517
	H346	H	0.429922	0.636755	0.664649
	H347	H	0.430007	0.644957	0.676042
	O348	O	0.494589	0.337370	0.577352
	H349	H	0.494457	0.348718	0.586733
	H350	H	0.489603	0.327483	0.562650
	O351	O	-0.095848	0.022707	1.048697
	H352	H	-0.100079	0.022316	1.050510
	H353	H	-0.091511	0.020574	1.065844
	O354	O	0.894698	0.054081	0.951552
	H355	H	0.886889	0.068127	0.958612
	H356	H	0.886339	0.051779	0.945043
	O357	O	0.552317	0.666334	0.595719
	H358	H	0.548648	0.685495	0.616639
	H359	H	0.575285	0.655475	0.597947
	O360	O	0.535100	0.551364	0.292551
	H361	H	0.513029	0.526892	0.293336
	H362	H	0.557284	0.543996	0.284991
	O363	O	0.831226	0.134818	0.145847
	H364	H	0.833310	0.131577	0.144143
	H365	H	0.853100	0.121527	0.136662
	O366	O	1.144140	0.130654	0.901587
	H367	H	1.137835	0.122804	0.903044
	H368	H	1.131337	0.128026	0.905683
	O369	O	0.030015	-0.211769	1.031810
	H370	H	0.038848	-0.209356	1.023931
	H371	H	0.012813	-0.209640	1.029127
	O372	O	-0.067499	1.168316	0.783148
	H373	H	-0.077168	1.186693	0.773101
	H374	H	-0.084317	1.172673	0.780931
	O375	O	1.047777	-0.044132	0.175472
	H376	H	1.060890	-0.035386	0.177892
	H377	H	1.059003	-0.036363	0.171997
	O378	O	0.630524	0.381578	0.284237
	H379	H	0.637620	0.349740	0.278046
	H380	H	0.662669	0.374591	0.270267
	O381	O	0.228424	1.179023	0.048027
	H382	H	0.248071	1.185318	0.034730
	H383	H	0.230568	1.176866	0.023214
	O384	O	0.448966	0.521516	0.544306
	H385	H	0.453793	0.513133	0.544043
	H386	H	0.445049	0.541152	0.530141
	O387	O	0.032949	0.793081	0.788791
	H388	H	0.033935	0.788684	0.811037
	H389	H	0.034967	0.768610	0.764977
	O390	O	0.123624	1.060684	1.036782
	H391	H	0.123857	1.043356	1.029729
	H392	H	0.127356	1.062352	1.038877
	O393	O	1.210593	0.210599	0.214039
	H394	H	1.216686	0.219026	0.180085
	H395	H	1.195289	0.206961	0.224112
	O396	O	0.515347	0.390670	0.637120
	H397	H	0.528502	0.389429	0.617900
	H398	H	0.516817	0.382438	0.648293
	O399	O	0.704275	0.713813	0.716799
	H400	H	0.710310	0.728268	0.705029
	H401	H	0.713871	0.742271	0.732655
	O402	O	0.889758	0.211507	0.845763
	H403	H	0.871413	0.229568	0.842258
	H404	H	0.890848	0.204622	0.860424
	O405	O	0.764223	0.621022	0.256480
	H406	H	0.784046	0.608488	0.261619
	H407	H	0.765082	0.599920	0.262601
	O408	O	0.788297	1.224118	0.966636
	H409	H	0.779571	1.224844	0.950755
	H410	H	0.768294	1.241380	0.956661
	O411	O	0.817192	0.822637	0.157951
	H412	H	0.797051	0.817506	0.164241
	H413	H	0.810701	0.802417	0.164051
	O414	O	0.001788	0.175667	0.220607
	H415	H	-0.002594	0.171140	0.233298
	H416	H	-0.003794	0.178754	0.233411
	O417	O	0.527308	0.288356	0.423441
	H418	H	0.519232	0.277372	0.392771
	H419	H	0.505706	0.284495	0.441020
	O420	O	0.817320	-0.181342	0.811457
	H421	H	0.834607	-0.152039	0.820495
	H422	H	0.836550	-0.170134	0.836955
	O423	O	0.862513	1.031688	0.212916
	H424	H	0.860459	1.014466	0.208311
	H425	H	0.842637	1.011270	0.216866
	O426	O	0.218041	0.800679	0.214382
	H427	H	0.228510	0.808852	0.209558
	H428	H	0.206797	0.810011	0.204523
	O429	O	0.304991	0.303213	0.627479
	H430	H	0.317728	0.291758	0.635733
	H431	H	0.310169	0.332042	0.647781
	O432	O	0.742475	0.264658	0.740574
	H433	H	0.720253	0.271140	0.712930
	H434	H	0.750873	0.274525	0.732770
	O435	O	0.481274	0.398505	0.343984
	H436	H	0.478724	0.391832	0.341322
	H437	H	0.473079	0.386710	0.331601
	O438	O	0.289412	0.531123	0.293474
	H439	H	0.278939	0.521671	0.296081
	H440	H	0.275229	0.529789	0.294369
	O441	O	0.718511	0.714910	0.550361
	H442	H	0.717236	0.694873	0.546578
	H443	H	0.744573	0.734979	0.549467
	O444	O	0.331441	0.676928	0.336967
	H445	H	0.313659	0.683023	0.325618
	H446	H	0.330606	0.664013	0.339551
	O447	O	0.494141	0.497419	0.726195
	H448	H	0.483202	0.499556	0.722003
	H449	H	0.492732	0.480842	0.727564
	O450	O	1.032013	0.200242	0.073276
	H451	H	1.035903	0.191582	0.091982
	H452	H	1.050255	0.205653	0.082214
	O453	O	0.292492	0.505343	0.717544
	H454	H	0.282794	0.491467	0.722554
	H455	H	0.282609	0.518466	0.712633
	O456	O	0.199809	0.837795	0.809272
	H457	H	0.206327	0.862083	0.816367
	H458	H	0.183248	0.828145	0.805666
	O459	O	0.712486	0.295841	0.467279
	H460	H	0.716040	0.321169	0.472857
	H461	H	0.730586	0.273950	0.474889
	O462	O	0.489836	0.708111	0.302323
	H463	H	0.482117	0.701964	0.290336
	H464	H	0.484139	0.704908	0.302390
	O465	O	0.571941	0.713765	0.433791
	H466	H	0.584717	0.710773	0.457908
	H467	H	0.561262	0.700900	0.436493
	O468	O	-0.145171	0.807839	0.042934
	H469	H	-0.151980	0.802236	0.071186
	H470	H	-0.158868	0.816234	0.055279
	O471	O	0.589037	0.678132	0.725353
	H472	H	0.589028	0.699597	0.744599
	H473	H	0.598444	0.669521	0.742591
	O474	O	0.797206	0.869505	0.218129
	H475	H	0.778134	0.841763	0.234898
	H476	H	0.812116	0.860632	0.228093
	O477	O	0.216599	-0.005683	0.835763
	H478	H	0.213968	-0.008594	0.813594
	H479	H	0.229155	0.008980	0.845254
