data_Molecule from HDF5

_cell_length_a		16.672651
_cell_length_b		16.626872
_cell_length_c		16.624167
_cell_angle_alpha	89.874301
_cell_angle_beta	89.823795
_cell_angle_gamma	89.968567
_symmetry_space_group_name_H-M	'P 1'
_symmetry_Int_Tables_number		1

loop_
	_symmetry_equiv_pos_as_xyz
	x,y,z

loop_
	_atom_site_label
	_atom_site_type_symbol
	_atom_site_fract_x
	_atom_site_fract_y
	_atom_site_fract_z
	H0	H	0.403076	0.829534	0.711585
	H1	H	0.608343	0.144008	0.710675
	H2	H	0.616724	0.832684	0.266775
	H3	H	0.401167	0.140363	0.270336
	H4	H	0.727104	0.381493	0.834953
	H5	H	0.725746	0.589387	0.147445
	H6	H	0.287703	0.589006	0.834635
	H7	H	0.285548	0.381258	0.147416
	H8	H	0.848817	0.705520	0.389558
	H9	H	0.161584	0.705096	0.594079
	H10	H	0.853228	0.259938	0.602773
	H11	H	0.161769	0.267819	0.390039
	H12	H	0.851876	0.378831	0.715913
	H13	H	0.161857	0.588262	0.709768
	H14	H	0.849226	0.589479	0.272870
	H15	H	0.160871	0.383186	0.272715
	H16	H	0.403617	0.705584	0.835027
	H17	H	0.609917	0.705659	0.146743
	H18	H	0.610106	0.267168	0.834107
	H19	H	0.402346	0.265626	0.147569
	H20	H	0.730875	0.832402	0.383920
	H21	H	0.727500	0.142001	0.597330
	H22	H	0.287421	0.829470	0.594576
	H23	H	0.284324	0.140181	0.386446
	H24	H	0.901683	0.330640	0.213341
	H25	H	0.108993	0.642777	0.210097
	H26	H	0.110565	0.329295	0.771650
	H27	H	0.904241	0.642486	0.772723
	H28	H	0.228894	0.880413	0.337562
	H29	H	0.227618	0.091154	0.647294
	H30	H	0.781511	0.096461	0.340302
	H31	H	0.782074	0.878881	0.647403
	H32	H	0.348629	0.202791	0.892570
	H33	H	0.660488	0.209176	0.098174
	H34	H	0.353106	0.763386	0.098088
	H35	H	0.660685	0.764007	0.884389
	H36	H	0.353393	0.878781	0.215447
	H37	H	0.658867	0.094871	0.216254
	H38	H	0.347444	0.086776	0.776689
	H39	H	0.661407	0.883442	0.771123
	H40	H	0.898426	0.211315	0.339052
	H41	H	0.113161	0.208682	0.646876
	H42	H	0.109777	0.767069	0.336176
	H43	H	0.898759	0.763404	0.647882
	H44	H	0.225767	0.329213	0.888274
	H45	H	0.224408	0.642394	0.091980
	H46	H	0.787499	0.329305	0.095665
	H47	H	0.786771	0.642128	0.886962
	H48	H	0.415163	0.097123	0.578874
	H49	H	0.591766	0.878996	0.574959
	H50	H	0.595506	0.095900	0.406954
	H51	H	0.421350	0.873047	0.399886
	H52	H	0.600556	0.390646	0.105921
	H53	H	0.593426	0.570557	0.882294
	H54	H	0.415629	0.580436	0.105082
	H55	H	0.421124	0.395605	0.880631
	H56	H	0.120734	0.580781	0.395128
	H57	H	0.891739	0.577609	0.586124
	H58	H	0.119292	0.394291	0.584504
	H59	H	0.894928	0.397950	0.404629
	H60	H	0.114932	0.394797	0.574656
	H61	H	0.895554	0.577885	0.575580
	H62	H	0.117286	0.581573	0.406069
	H63	H	0.894129	0.398522	0.403878
	H64	H	0.411219	0.569909	0.103484
	H65	H	0.593892	0.580273	0.878534
	H66	H	0.599738	0.402644	0.101825
	H67	H	0.413930	0.391823	0.878316
	H68	H	0.591791	0.096759	0.402198
	H69	H	0.600699	0.873521	0.581304
	H70	H	0.409792	0.100919	0.584484
	H71	H	0.420209	0.877091	0.408757
	H72	H	0.917208	0.598943	0.084665
	H73	H	0.098617	0.373523	0.079445
	H74	H	0.091880	0.595140	0.901002
	H75	H	0.916544	0.372464	0.898537
	H76	H	0.094227	0.899903	0.602448
	H77	H	0.102360	0.070673	0.380570
	H78	H	0.918848	0.071630	0.601537
	H79	H	0.918727	0.899496	0.383195
	H80	H	0.618297	0.077154	0.900123
	H81	H	0.396847	0.072492	0.080646
	H82	H	0.618977	0.899116	0.084740
	H83	H	0.394795	0.895575	0.902850
	H84	H	0.618445	0.892286	0.074518
	H85	H	0.394550	0.075377	0.082646
	H86	H	0.618673	0.077552	0.899012
	H87	H	0.394267	0.896092	0.902065
	H88	H	0.919721	0.072887	0.602974
	H89	H	0.089018	0.072460	0.384862
	H90	H	0.093563	0.893008	0.604766
	H91	H	0.918709	0.896170	0.381370
	H92	H	0.101129	0.597598	0.904916
	H93	H	0.097197	0.372512	0.085614
	H94	H	0.919193	0.595945	0.078183
	H95	H	0.923219	0.376599	0.904344
	H96	H	0.418304	0.099139	0.587260
	H97	H	0.589733	0.875593	0.586574
	H98	H	0.590413	0.093250	0.407014
	H99	H	0.412983	0.872763	0.404255
	H100	H	0.589721	0.395172	0.100916
	H101	H	0.602093	0.573942	0.877674
	H102	H	0.421664	0.572582	0.099313
	H103	H	0.413808	0.399695	0.880953
	H104	H	0.115603	0.572297	0.399926
	H105	H	0.896761	0.568549	0.581987
	H106	H	0.114727	0.403927	0.580971
	H107	H	0.894243	0.397280	0.404176
	H108	H	0.912373	0.598221	0.079120
	H109	H	0.092824	0.374663	0.081578
	H110	H	0.098690	0.600311	0.895238
	H111	H	0.914232	0.374743	0.907725
	H112	H	0.100167	0.896630	0.605427
	H113	H	0.095496	0.083136	0.378254
	H114	H	0.918248	0.073057	0.602591
	H115	H	0.915660	0.898549	0.381217
	H116	H	0.618907	0.078399	0.900297
	H117	H	0.395200	0.075464	0.078551
	H118	H	0.613896	0.903420	0.074494
	H119	H	0.394403	0.894862	0.902161
	C120	C	0.384018	-0.005110	0.614077
	C121	C	0.626427	0.978736	0.613241
	C122	C	0.627551	-0.005817	0.370905
	C123	C	0.385752	0.976936	0.371325
	C124	C	0.628098	0.364265	-0.000315
	C125	C	0.627319	0.606411	0.982669
	C126	C	0.385167	0.606475	-0.000589
	C127	C	0.384916	0.364517	0.983249
	C128	C	0.014111	0.608663	0.370074
	C129	C	0.997559	0.606564	0.612801
	C130	C	0.014924	0.363686	0.614513
	C131	C	0.997367	0.366098	0.372330
	C132	C	0.885172	0.494302	0.112590
	C133	C	0.126871	0.477610	0.112388
	C134	C	0.128411	0.494091	0.869536
	C135	C	0.886278	0.477388	0.871239
	C136	C	0.127743	0.864663	0.501015
	C137	C	0.127771	0.107571	0.483780
	C138	C	0.885233	0.107316	0.501131
	C139	C	0.884631	0.865458	0.484481
	C140	C	0.514317	0.107421	0.870616
	C141	C	0.497761	0.107289	0.112837
	C142	C	0.515612	0.864665	0.112340
	C143	C	0.497380	0.864206	0.870048
	C144	C	0.383833	0.876650	0.672297
	C145	C	0.627626	0.096675	0.671816
	C146	C	0.633229	0.879007	0.308154
	C147	C	0.383030	0.093740	0.310605
	C148	C	0.687396	0.362993	0.882094
	C149	C	0.685903	0.607694	0.100403
	C150	C	0.327132	0.607898	0.881479
	C151	C	0.325660	0.362990	0.100732
	C152	C	0.896064	0.666356	0.370297
	C153	C	0.114864	0.665263	0.612985
	C154	C	0.899341	0.301270	0.619702
	C155	C	0.114665	0.307400	0.371265
	C156	C	0.898593	0.360210	0.676075
	C157	C	0.115312	0.607225	0.670445
	C158	C	0.896208	0.608966	0.312174
	C159	C	0.114320	0.364446	0.312721
	C160	C	0.384741	0.665648	0.881905
	C161	C	0.628381	0.665640	0.099950
	C162	C	0.629114	0.305955	0.881845
	C163	C	0.383658	0.305453	0.100762
	C164	C	0.690408	0.878893	0.366083
	C165	C	0.686652	0.095633	0.615328
	C166	C	0.326373	0.876567	0.614301
	C167	C	0.325079	0.093685	0.368220
	C168	C	0.883143	0.377261	0.173130
	C169	C	0.127857	0.595624	0.170479
	C170	C	0.129075	0.376273	0.811234
	C171	C	0.885217	0.595438	0.812206
	C172	C	0.188165	0.862577	0.383885
	C173	C	0.187536	0.109440	0.600680
	C174	C	0.822631	0.112963	0.386173
	C175	C	0.822934	0.861471	0.600876
	C176	C	0.395530	0.164134	0.872601
	C177	C	0.613959	0.168544	0.115863
	C178	C	0.399370	0.803620	0.116315
	C179	C	0.614318	0.804699	0.867026
	C180	C	0.399769	0.860826	0.174567
	C181	C	0.613434	0.111539	0.174483
	C182	C	0.395205	0.106385	0.815009
	C183	C	0.614691	0.863844	0.810583
	C184	C	0.880693	0.170234	0.385714
	C185	C	0.130540	0.167784	0.600650
	C186	C	0.129224	0.806109	0.383369
	C187	C	0.881063	0.804115	0.601151
	C188	C	0.186607	0.376249	0.869062
	C189	C	0.185306	0.595525	0.112237
	C190	C	0.826552	0.376545	0.114545
	C191	C	0.826848	0.594975	0.869201
	C192	C	0.407726	0.077463	0.590257
	C193	C	0.601355	0.897338	0.588148
	C194	C	0.600414	0.074423	0.397892
	C195	C	0.410984	0.895535	0.396923
	C196	C	0.603597	0.388921	0.081731
	C197	C	0.603359	0.581947	0.900698
	C198	C	0.409234	0.581320	0.081242
	C199	C	0.409142	0.388892	0.901215
	C200	C	0.096452	0.584910	0.393477
	C201	C	0.915984	0.581711	0.588484
	C202	C	0.095378	0.390173	0.587670
	C203	C	0.915782	0.390719	0.397139
	C204	C	0.909429	0.576263	0.087831
	C205	C	0.103132	0.395231	0.088767
	C206	C	0.104204	0.576223	0.893733
	C207	C	0.911114	0.395786	0.896407
	C208	C	0.102934	0.889485	0.582775
	C209	C	0.102728	0.082593	0.402337
	C210	C	0.911630	0.080322	0.581468
	C211	C	0.910347	0.890978	0.402957
	C212	C	0.596941	0.084395	0.893257
	C213	C	0.416745	0.081602	0.087850
	C214	C	0.596117	0.890861	0.085486
	C215	C	0.415856	0.888570	0.895288
	Zn216	Zn	0.505162	-0.013079	0.742071
	Zn217	Zn	0.507159	-0.014120	0.241979
	Zn218	Zn	0.756649	0.485601	-0.008520
	Zn219	Zn	0.256230	0.485780	-0.008700
	Zn220	Zn	0.005602	0.736651	0.492493
	Zn221	Zn	0.005870	0.235999	0.492889
	Zn222	Zn	0.006503	0.485603	0.742054
	Zn223	Zn	0.005770	0.486562	0.241729
	Zn224	Zn	0.506556	0.735736	-0.008547
	Zn225	Zn	0.506196	0.236337	-0.008366
	Zn226	Zn	0.755595	-0.013586	0.492276
	Zn227	Zn	0.256122	-0.014318	0.492211
	N228	N	0.418734	0.951433	0.672500
	N229	N	0.590890	0.022717	0.670935
	N230	N	0.594664	0.951832	0.311088
	N231	N	0.419969	0.020098	0.312253
	N232	N	0.687214	0.398401	0.956582
	N233	N	0.685564	0.571530	0.026240
	N234	N	0.327139	0.571652	0.955739
	N235	N	0.326065	0.398973	0.026475
	N236	N	0.970556	0.666732	0.405168
	N237	N	0.040551	0.665148	0.577984
	N238	N	0.972912	0.302927	0.582374
	N239	N	0.040674	0.308012	0.407402
	N240	N	0.971530	0.398305	0.673001
	N241	N	0.041109	0.571480	0.670631
	N242	N	0.970863	0.573813	0.311596
	N243	N	0.040157	0.400168	0.312986
	N244	N	0.420113	0.665010	0.956274
	N245	N	0.592637	0.664951	0.025748
	N246	N	0.593070	0.306259	0.956247
	N247	N	0.419825	0.306406	0.026837
	N248	N	0.686998	0.951657	0.404590
	N249	N	0.686452	0.021167	0.579958
	N250	N	0.326075	0.951376	0.579121
	N251	N	0.326264	0.019879	0.405059
	N252	N	0.918919	0.451611	0.172151
	N253	N	0.092466	0.521102	0.170972
	N254	N	0.093896	0.450871	0.811035
	N255	N	0.921315	0.521155	0.812989
	N256	N	0.187306	0.898426	0.458147
	N257	N	0.186089	0.072601	0.526906
	N258	N	0.825496	0.074188	0.458745
	N259	N	0.825144	0.898995	0.527229
	N260	N	0.470709	0.165337	0.906187
	N261	N	0.540942	0.166246	0.078241
	N262	N	0.472417	0.805775	0.078376
	N263	N	0.540218	0.804585	0.903142
	N264	N	0.473138	0.898230	0.172360
	N265	N	0.540159	0.074160	0.172850
	N266	N	0.470163	0.072310	0.813216
	N267	N	0.540867	0.900131	0.812176
	N268	N	0.919091	0.166897	0.458314
	N269	N	0.093831	0.166648	0.526943
	N270	N	0.092447	0.807049	0.457275
	N271	N	0.918815	0.806282	0.527695
	N272	N	0.186475	0.450639	0.904526
	N273	N	0.185097	0.520962	0.077133
	N274	N	0.827393	0.450459	0.077591
	N275	N	0.827154	0.520551	0.905040
	O276	O	-0.204835	0.768868	0.202408
	H277	H	-0.203709	0.794540	0.191046
	H278	H	-0.237805	0.739865	0.233678
	O279	O	0.546342	0.302406	0.318224
	H280	H	0.551353	0.293870	0.319882
	H281	H	0.558149	0.294330	0.312177
	O282	O	1.220390	-0.049140	0.768324
	H283	H	1.229343	-0.035696	0.781387
	H284	H	1.239104	-0.039682	0.758774
	O285	O	0.558171	0.706956	0.700175
	H286	H	0.536630	0.689451	0.702741
	H287	H	0.554809	0.723788	0.721966
	O288	O	0.345524	0.613447	0.559652
	H289	H	0.364214	0.598828	0.555611
	H290	H	0.342087	0.597762	0.548334
	O291	O	0.526812	0.430726	0.460907
	H292	H	0.514191	0.410712	0.457251
	H293	H	0.519230	0.418594	0.462737
	O294	O	1.049283	0.053681	0.883819
	H295	H	1.051452	0.059826	0.886470
	H296	H	1.054937	0.056208	0.894615
	O297	O	0.510799	0.713077	0.328656
	H298	H	0.504521	0.706760	0.342078
	H299	H	0.507439	0.730740	0.313254
	O300	O	-0.078405	0.193641	1.066958
	H301	H	-0.075280	0.192605	1.052895
	H302	H	-0.073006	0.179434	1.048799
	O303	O	0.719498	0.688662	0.694440
	H304	H	0.736806	0.720761	0.725954
	H305	H	0.685012	0.687294	0.688244
	O306	O	0.381947	0.558144	0.461690
	H307	H	0.381173	0.537554	0.462151
	H308	H	0.362148	0.579286	0.458358
	O309	O	0.219091	0.780603	0.856197
	H310	H	0.209438	0.783287	0.865662
	H311	H	0.233348	0.791882	0.846802
	O312	O	0.265948	0.724073	0.727272
	H313	H	0.259562	0.725838	0.728237
	H314	H	0.277864	0.746238	0.701178
	O315	O	0.864415	0.931679	1.072535
	H316	H	0.868505	0.918583	1.063419
	H317	H	0.870930	0.922755	1.076366
	O318	O	0.593953	0.273889	0.588463
	H319	H	0.609042	0.254403	0.609940
	H320	H	0.587958	0.289192	0.603884
	O321	O	-0.010953	0.938982	0.796932
	H322	H	-0.009234	0.933966	0.790496
	H323	H	-0.013930	0.942764	0.808165
	O324	O	0.978188	0.764636	0.213423
	H325	H	0.952314	0.758984	0.225294
	H326	H	0.967880	0.749903	0.220881
	O327	O	0.227596	0.206822	1.027176
	H328	H	0.234051	0.212996	1.050873
	H329	H	0.245949	0.223093	1.053505
	O330	O	0.700894	0.273784	0.455349
	H331	H	0.704426	0.277506	0.467487
	H332	H	0.708200	0.274679	0.451154
	O333	O	0.530781	0.291185	0.678506
	H334	H	0.524483	0.287566	0.664847
	H335	H	0.516228	0.288170	0.699984
	O336	O	0.659339	0.334736	0.329338
	H337	H	0.660785	0.356145	0.336761
	H338	H	0.646958	0.343394	0.358112
	O339	O	0.464351	0.396740	0.390024
	H340	H	0.475257	0.394011	0.395291
	H341	H	0.487231	0.384549	0.391910
	O342	O	0.035722	-0.082818	0.172371
	H343	H	0.033490	-0.086645	0.176611
	H344	H	0.054122	-0.069639	0.181705
	O345	O	0.218747	1.194429	1.202163
	H346	H	0.247389	1.228817	1.236439
	H347	H	0.168935	1.197253	1.210962
	O348	O	-0.037074	0.144153	0.080739
	H349	H	-0.022843	0.167880	0.072435
	H350	H	-0.028203	0.127359	0.075647
	O351	O	0.717772	0.473938	0.488689
	H352	H	0.710654	0.471270	0.504501
	H353	H	0.720325	0.481265	0.511905
	O354	O	-0.208616	0.205575	0.953026
	H355	H	-0.211713	0.193561	0.971718
	H356	H	-0.221286	0.222019	0.965540
	O357	O	0.720573	0.704370	0.516961
	H358	H	0.710334	0.701904	0.536008
	H359	H	0.741392	0.727293	0.536698
	O360	O	0.351214	0.266732	0.705874
	H361	H	0.328092	0.236231	0.740906
	H362	H	0.354434	0.309423	0.705712
	O363	O	0.000121	-0.194971	0.041862
	H364	H	-0.006043	-0.188865	0.037944
	H365	H	-0.003575	-0.209044	0.045128
	O366	O	0.425255	0.269847	0.396109
	H367	H	0.441469	0.267336	0.403306
	H368	H	0.427881	0.254503	0.401299
	O369	O	0.778713	0.212098	0.214661
	H370	H	0.792918	0.184425	0.198048
	H371	H	0.763249	0.251657	0.234459
	O372	O	1.016688	1.004379	0.095836
	H373	H	1.020747	1.004285	0.099725
	H374	H	1.015259	1.010212	0.090865
	O375	O	1.041430	-0.237564	-0.229546
	H376	H	1.062255	-0.251815	-0.245668
	H377	H	1.058190	-0.235125	-0.239254
	O378	O	0.418221	0.393743	0.489613
	H379	H	0.425045	0.380010	0.480763
	H380	H	0.401026	0.389296	0.482912
	O381	O	0.060657	1.134578	0.968685
	H382	H	0.055571	1.150508	0.968969
	H383	H	0.059935	1.126854	0.968671
	O384	O	1.039385	-0.114925	1.007652
	H385	H	1.060795	-0.112258	1.005890
	H386	H	1.026635	-0.115023	1.006335
	O387	O	0.778761	1.063786	0.046390
	H388	H	0.781748	1.059689	0.068542
	H389	H	0.780881	1.044988	0.044893
	O390	O	0.711632	0.444458	0.275006
	H391	H	0.713997	0.468649	0.285231
	H392	H	0.725833	0.451940	0.273194
	O393	O	0.281634	0.520214	0.266679
	H394	H	0.258170	0.534019	0.245779
	H395	H	0.281834	0.554386	0.264404
	O396	O	0.182116	0.785382	0.990855
	H397	H	0.193775	0.787232	0.985216
	H398	H	0.177592	0.765107	1.004122
	O399	O	-0.215945	0.018463	0.766012
	H400	H	-0.212482	0.047874	0.774494
	H401	H	-0.238979	0.016026	0.740790
	O402	O	0.288280	0.700128	0.459975
	H403	H	0.266180	0.715382	0.459252
	H404	H	0.293543	0.692696	0.449692
	O405	O	0.808415	0.179626	0.793137
	H406	H	0.800279	0.171639	0.827282
	H407	H	0.836825	0.189195	0.802511
	O408	O	0.233087	0.015442	0.215240
	H409	H	0.240634	0.035496	0.225189
	H410	H	0.247225	0.042229	0.231640
	O411	O	0.818925	0.802662	0.809430
	H412	H	0.835005	0.818984	0.826887
	H413	H	0.832194	0.821978	0.829444
	O414	O	0.374084	0.515394	0.651702
	H415	H	0.389414	0.509911	0.638488
	H416	H	0.381200	0.521701	0.649126
	O417	O	0.502984	0.360827	0.529237
	H418	H	0.492534	0.357098	0.517555
	H419	H	0.497566	0.358483	0.523138
	O420	O	0.628430	0.482519	0.647208
	H421	H	0.623803	0.453828	0.652949
	H422	H	0.633729	0.492259	0.642601
	O423	O	0.079210	0.031089	0.849137
	H424	H	0.056253	0.019595	0.851350
	H425	H	0.090382	0.020175	0.850990
	O426	O	0.452551	0.691026	0.595855
	H427	H	0.456437	0.676840	0.604840
	H428	H	0.464912	0.688804	0.578114
	O429	O	1.026620	0.869598	0.933969
	H430	H	1.022861	0.875516	0.948077
	H431	H	1.012074	0.866932	0.923517
	O432	O	0.739670	0.500468	0.686338
	H433	H	0.767881	0.505504	0.718534
	H434	H	0.733431	0.538389	0.685731
	O435	O	0.313557	1.294596	0.303359
	H436	H	0.324117	1.301658	0.342940
	H437	H	0.345773	1.318382	0.299469
	O438	O	0.180641	0.032440	-0.100564
	H439	H	0.181755	0.033825	-0.089744
	H440	H	0.177439	0.034607	-0.090563
	O441	O	0.019795	0.200326	0.160729
	H442	H	0.008194	0.194617	0.138379
	H443	H	-0.003570	0.205263	0.173044
	O444	O	0.668472	0.528350	0.440044
	H445	H	0.661671	0.537360	0.454508
	H446	H	0.658759	0.520286	0.436563
	O447	O	-0.023071	1.204842	0.770178
	H448	H	-0.015103	1.203956	0.747077
	H449	H	-0.035210	1.207026	0.753589
	O450	O	0.239962	0.962329	1.020296
	H451	H	0.233800	0.953621	1.031023
	H452	H	0.239608	0.988416	1.035350
	O453	O	0.283245	0.445557	0.708292
	H454	H	0.268701	0.453796	0.733579
	H455	H	0.295366	0.463000	0.700907
	O456	O	-0.009572	0.114007	1.233671
	H457	H	-0.029532	0.120027	1.231172
	H458	H	-0.008209	0.109982	1.240711
	O459	O	0.785269	0.966352	0.210864
	H460	H	0.757572	0.959870	0.238281
	H461	H	0.813812	0.958911	0.204642
	O462	O	0.691360	0.673533	0.303019
	H463	H	0.672625	0.654227	0.317977
	H464	H	0.677427	0.652368	0.324701
	O465	O	0.781512	-0.234570	0.021244
	H466	H	0.787423	-0.231832	0.038873
	H467	H	0.764438	-0.251029	0.025116
	O468	O	0.328671	0.483583	0.415531
	H469	H	0.330287	0.465187	0.424570
	H470	H	0.312626	0.485128	0.399034
	O471	O	0.650159	0.376031	0.637932
	H472	H	0.631625	0.372071	0.626254
	H473	H	0.655684	0.372937	0.641208
	O474	O	0.298246	0.691546	0.284222
	H475	H	0.268271	0.726936	0.252639
	H476	H	0.327088	0.698179	0.301725
	O477	O	0.294783	0.269767	1.570698
	H478	H	0.275552	0.268964	1.587760
	H479	H	0.305128	0.273125	1.589015
	O480	O	0.496530	0.573582	0.266334
	H481	H	0.501254	0.570947	0.264386
	H482	H	0.489282	0.579344	0.267962
	O483	O	0.576439	0.674265	0.478762
	H484	H	0.572148	0.676014	0.476699
	H485	H	0.574014	0.676404	0.468528
	O486	O	0.530268	0.528019	0.657391
	H487	H	0.530450	0.542293	0.639946
	H488	H	0.541930	0.543519	0.668061
	O489	O	1.010569	0.871359	-0.036432
	H490	H	0.997037	0.878758	-0.030148
	H491	H	1.004866	0.861843	-0.055834
	O492	O	0.203090	-0.205220	0.185924
	H493	H	0.185118	-0.183614	0.169828
	H494	H	0.185985	-0.188359	0.161818
	O495	O	0.114394	1.134211	0.830574
	H496	H	0.098318	1.109486	0.823818
	H497	H	0.112486	1.127314	0.858597
	O498	O	0.793626	0.923183	0.937328
	H499	H	0.786027	0.927131	0.921142
	H500	H	0.811757	0.923912	0.948129
	O501	O	0.399534	0.506144	0.351324
	H502	H	0.385028	0.494370	0.350233
	H503	H	0.397875	0.493152	0.334356
