data_Molecule from HDF5

_cell_length_a		16.482867
_cell_length_b		16.378488
_cell_length_c		16.292342
_cell_angle_alpha	90.065678
_cell_angle_beta	90.148395
_cell_angle_gamma	90.071623
_symmetry_space_group_name_H-M	'P 1'
_symmetry_Int_Tables_number		1

loop_
	_symmetry_equiv_pos_as_xyz
	x,y,z

loop_
	_atom_site_label
	_atom_site_type_symbol
	_atom_site_fract_x
	_atom_site_fract_y
	_atom_site_fract_z
	H0	H	0.386224	0.842646	0.714357
	H1	H	0.598298	0.159426	0.717801
	H2	H	0.595173	0.843076	0.272329
	H3	H	0.384494	0.160499	0.270477
	H4	H	0.715305	0.395019	0.838290
	H5	H	0.716256	0.614717	0.153297
	H6	H	0.265804	0.611306	0.838048
	H7	H	0.268583	0.393992	0.154040
	H8	H	0.835197	0.725262	0.388241
	H9	H	0.148717	0.728745	0.607036
	H10	H	0.836058	0.277399	0.602458
	H11	H	0.151397	0.277858	0.389041
	H12	H	0.834313	0.396683	0.716488
	H13	H	0.149278	0.611184	0.721784
	H14	H	0.834343	0.607043	0.274080
	H15	H	0.150944	0.395536	0.274015
	H16	H	0.385458	0.720006	0.834153
	H17	H	0.596372	0.725213	0.153890
	H18	H	0.597477	0.280573	0.836574
	H19	H	0.381119	0.276843	0.152620
	H20	H	0.715365	0.844877	0.383197
	H21	H	0.715162	0.159171	0.602114
	H22	H	0.268598	0.845250	0.602266
	H23	H	0.266762	0.159229	0.384475
	H24	H	0.889258	0.341174	0.213684
	H25	H	0.098325	0.659470	0.220264
	H26	H	0.097882	0.342774	0.774231
	H27	H	0.888879	0.661431	0.775913
	H28	H	0.213319	0.895357	0.335911
	H29	H	0.217531	0.110606	0.653096
	H30	H	0.768695	0.110946	0.335913
	H31	H	0.769953	0.896380	0.653361
	H32	H	0.332057	0.223067	0.889648
	H33	H	0.649027	0.226422	0.102164
	H34	H	0.332404	0.779811	0.098758
	H35	H	0.647358	0.776774	0.885521
	H36	H	0.331848	0.898487	0.213805
	H37	H	0.648915	0.108243	0.216050
	H38	H	0.332180	0.105781	0.772403
	H39	H	0.649321	0.897762	0.773279
	H40	H	0.888144	0.222258	0.335069
	H41	H	0.097342	0.219670	0.656866
	H42	H	0.098311	0.778883	0.337373
	H43	H	0.887799	0.783362	0.655743
	H44	H	0.213558	0.343429	0.889123
	H45	H	0.214900	0.659756	0.105256
	H46	H	0.769445	0.343954	0.103348
	H47	H	0.770723	0.660373	0.889534
	H48	H	0.405404	0.114029	0.580266
	H49	H	0.587046	0.886156	0.582932
	H50	H	0.579786	0.114739	0.407462
	H51	H	0.400121	0.888502	0.406168
	H52	H	0.578552	0.417100	0.108094
	H53	H	0.589763	0.591877	0.877629
	H54	H	0.400958	0.586025	0.108044
	H55	H	0.406423	0.422300	0.885949
	H56	H	0.103790	0.588892	0.411122
	H57	H	0.878196	0.591922	0.588803
	H58	H	0.105436	0.414553	0.586645
	H59	H	0.882086	0.410311	0.411809
	H60	H	0.106872	0.409363	0.586489
	H61	H	0.880288	0.595220	0.582846
	H62	H	0.104380	0.588489	0.409840
	H63	H	0.880829	0.414309	0.404228
	H64	H	0.407291	0.590936	0.108606
	H65	H	0.579748	0.579756	0.885420
	H66	H	0.577500	0.414451	0.109345
	H67	H	0.406867	0.407356	0.880693
	H68	H	0.581610	0.115880	0.406159
	H69	H	0.577087	0.888251	0.586593
	H70	H	0.403292	0.115621	0.581120
	H71	H	0.402754	0.887553	0.402973
	H72	H	0.905206	0.613499	0.082309
	H73	H	0.077550	0.393983	0.071355
	H74	H	0.080583	0.614091	0.911670
	H75	H	0.906098	0.390249	0.910425
	H76	H	0.079674	0.917459	0.608309
	H77	H	0.079357	0.085090	0.383706
	H78	H	0.909079	0.089202	0.607064
	H79	H	0.902209	0.909733	0.378765
	H80	H	0.604049	0.091267	0.905477
	H81	H	0.382876	0.083425	0.076925
	H82	H	0.601727	0.914652	0.080163
	H83	H	0.377854	0.913054	0.904889
	H84	H	0.602737	0.913288	0.083240
	H85	H	0.375900	0.090627	0.089296
	H86	H	0.603561	0.092439	0.906458
	H87	H	0.377118	0.910914	0.902709
	H88	H	0.900447	0.093344	0.611288
	H89	H	0.077711	0.094198	0.380466
	H90	H	0.080939	0.915159	0.609495
	H91	H	0.901708	0.917927	0.381356
	H92	H	0.080328	0.615455	0.908051
	H93	H	0.093013	0.384433	0.084759
	H94	H	0.900101	0.616302	0.084200
	H95	H	0.898164	0.386990	0.910221
	H96	H	0.405304	0.115684	0.582230
	H97	H	0.579491	0.891073	0.576537
	H98	H	0.579043	0.115548	0.404723
	H99	H	0.403396	0.890658	0.406191
	H100	H	0.580522	0.415446	0.110105
	H101	H	0.573310	0.595412	0.881150
	H102	H	0.400297	0.593358	0.111718
	H103	H	0.393960	0.415716	0.878779
	H104	H	0.103605	0.590314	0.409997
	H105	H	0.881437	0.588355	0.583788
	H106	H	0.105210	0.411871	0.582163
	H107	H	0.878091	0.406137	0.404916
	H108	H	0.905287	0.616949	0.087585
	H109	H	0.072402	0.387978	0.092684
	H110	H	0.077031	0.613441	0.909456
	H111	H	0.902885	0.386322	0.902905
	H112	H	0.082007	0.917368	0.609423
	H113	H	0.086062	0.090518	0.378910
	H114	H	0.900152	0.083570	0.607278
	H115	H	0.908728	0.913879	0.382138
	H116	H	0.602730	0.091610	0.906779
	H117	H	0.378271	0.098678	0.075332
	H118	H	0.603474	0.911661	0.079559
	H119	H	0.378088	0.910412	0.905589
	C120	C	0.371065	0.010746	0.614725
	C121	C	0.613603	0.992902	0.615714
	C122	C	0.612994	0.010752	0.372206
	C123	C	0.369109	0.993288	0.371772
	C124	C	0.612320	0.382025	0.004376
	C125	C	0.613281	0.623802	0.986325
	C126	C	0.369612	0.622839	0.004200
	C127	C	0.370029	0.381756	0.986870
	C128	C	0.000276	0.622379	0.375906
	C129	C	0.983876	0.625135	0.618923
	C130	C	0.001239	0.379930	0.617295
	C131	C	0.984825	0.378473	0.374120
	C132	C	0.871015	0.510539	0.117192
	C133	C	0.113921	0.492909	0.117734
	C134	C	0.113006	0.510079	0.875388
	C135	C	0.870674	0.493238	0.875266
	C136	C	0.113383	0.881970	0.504255
	C137	C	0.114090	0.122813	0.486691
	C138	C	0.870701	0.122640	0.503326
	C139	C	0.871533	0.881752	0.486291
	C140	C	0.498982	0.123659	0.873111
	C141	C	0.482614	0.124534	0.115397
	C142	C	0.498488	0.880749	0.114109
	C143	C	0.482199	0.879185	0.871974
	C144	C	0.368126	0.890887	0.674872
	C145	C	0.616460	0.112067	0.677041
	C146	C	0.614698	0.891288	0.311472
	C147	C	0.366376	0.112693	0.310532
	C148	C	0.674298	0.377687	0.885397
	C149	C	0.674965	0.630253	0.105784
	C150	C	0.307143	0.627552	0.885096
	C151	C	0.308550	0.376896	0.106098
	C152	C	0.882276	0.684237	0.371073
	C153	C	0.101775	0.687437	0.623742
	C154	C	0.882927	0.318458	0.620197
	C155	C	0.103838	0.318159	0.371166
	C156	C	0.882042	0.377911	0.676884
	C157	C	0.102224	0.628396	0.680657
	C158	C	0.881877	0.625108	0.314218
	C159	C	0.103455	0.376697	0.313605
	C160	C	0.366860	0.681834	0.883116
	C161	C	0.615072	0.685435	0.105953
	C162	C	0.615522	0.320806	0.884524
	C163	C	0.365135	0.318722	0.105563
	C164	C	0.674489	0.892132	0.366932
	C165	C	0.674664	0.112012	0.619652
	C166	C	0.309654	0.891980	0.618730
	C167	C	0.307783	0.112024	0.367461
	C168	C	0.869698	0.389990	0.175808
	C169	C	0.116372	0.612168	0.179567
	C170	C	0.116028	0.390848	0.813889
	C171	C	0.869672	0.613394	0.815570
	C172	C	0.173418	0.877812	0.384011
	C173	C	0.176198	0.127195	0.605903
	C174	C	0.809693	0.127332	0.383744
	C175	C	0.810508	0.878769	0.605892
	C176	C	0.379624	0.183263	0.870791
	C177	C	0.601360	0.185863	0.119514
	C178	C	0.379618	0.820197	0.116903
	C179	C	0.600440	0.817710	0.868116
	C180	C	0.379508	0.879231	0.174144
	C181	C	0.601506	0.126935	0.176243
	C182	C	0.379510	0.124675	0.812866
	C183	C	0.601592	0.877927	0.812457
	C184	C	0.869229	0.182900	0.383209
	C185	C	0.116214	0.181463	0.607952
	C186	C	0.116461	0.819542	0.384731
	C187	C	0.869452	0.822619	0.607163
	C188	C	0.173712	0.391102	0.871210
	C189	C	0.174475	0.612310	0.122426
	C190	C	0.810139	0.391203	0.120395
	C191	C	0.810802	0.613047	0.872095
	C192	C	0.397160	0.093364	0.588729
	C193	C	0.588322	0.910191	0.589590
	C194	C	0.587561	0.093740	0.398694
	C195	C	0.394718	0.910449	0.397499
	C196	C	0.586416	0.408398	0.087373
	C197	C	0.588274	0.596649	0.903159
	C198	C	0.395466	0.597364	0.087801
	C199	C	0.395337	0.407805	0.903574
	C200	C	0.082575	0.596685	0.402692
	C201	C	0.901413	0.599362	0.592682
	C202	C	0.084113	0.404795	0.592291
	C203	C	0.901990	0.403325	0.399589
	C204	C	0.896167	0.593814	0.092014
	C205	C	0.088202	0.410362	0.090790
	C206	C	0.087185	0.592883	0.902115
	C207	C	0.895158	0.409771	0.900603
	C208	C	0.088169	0.908818	0.587380
	C209	C	0.088264	0.097592	0.402749
	C210	C	0.895766	0.096260	0.586727
	C211	C	0.896813	0.906678	0.402712
	C212	C	0.581709	0.098945	0.898762
	C213	C	0.400403	0.098457	0.088392
	C214	C	0.581204	0.905922	0.088340
	C215	C	0.399303	0.904237	0.897094
	Zn216	Zn	0.491107	0.001773	0.743459
	Zn217	Zn	0.491241	0.002001	0.243794
	Zn218	Zn	0.741988	0.502737	-0.003170
	Zn219	Zn	0.241931	0.502441	-0.004326
	Zn220	Zn	-0.007836	0.753377	0.496212
	Zn221	Zn	-0.006594	0.249947	0.496302
	Zn222	Zn	-0.007775	0.501601	0.746623
	Zn223	Zn	-0.007835	0.500982	0.245796
	Zn224	Zn	0.489980	0.750127	-0.006155
	Zn225	Zn	0.490795	0.253692	-0.005063
	Zn226	Zn	0.741387	0.001465	0.493317
	Zn227	Zn	0.242192	0.002632	0.494771
	N228	N	0.406047	0.965609	0.672258
	N229	N	0.579340	0.037098	0.674868
	N230	N	0.577162	0.966022	0.314847
	N231	N	0.403957	0.037943	0.313217
	N232	N	0.672363	0.415059	0.960901
	N233	N	0.674117	0.592604	0.030321
	N234	N	0.308680	0.591509	0.961307
	N235	N	0.311526	0.415563	0.031265
	N236	N	0.956791	0.682582	0.409050
	N237	N	0.027080	0.685478	0.586022
	N238	N	0.958021	0.319479	0.583996
	N239	N	0.028936	0.318861	0.408009
	N240	N	0.956729	0.415245	0.675241
	N241	N	0.027907	0.590207	0.677716
	N242	N	0.956277	0.587371	0.317068
	N243	N	0.028485	0.413284	0.315360
	N244	N	0.405108	0.678904	0.958097
	N245	N	0.577588	0.681711	0.030695
	N246	N	0.577397	0.323691	0.959374
	N247	N	0.402873	0.321727	0.030514
	N248	N	0.673617	0.967588	0.403991
	N249	N	0.672936	0.036907	0.582046
	N250	N	0.311261	0.967461	0.581992
	N251	N	0.309257	0.036849	0.404808
	N252	N	0.906822	0.465047	0.173883
	N253	N	0.079449	0.536997	0.176781
	N254	N	0.079307	0.466098	0.816135
	N255	N	0.905955	0.537794	0.817150
	N256	N	0.171971	0.915579	0.459421
	N257	N	0.175137	0.091621	0.529364
	N258	N	0.810330	0.090618	0.459491
	N259	N	0.811417	0.914625	0.529535
	N260	N	0.454847	0.182806	0.907345
	N261	N	0.526323	0.184619	0.082602
	N262	N	0.454636	0.821047	0.080230
	N263	N	0.525188	0.818435	0.904352
	N264	N	0.454404	0.916131	0.172397
	N265	N	0.526869	0.089418	0.173709
	N266	N	0.454865	0.088665	0.813828
	N267	N	0.527070	0.915418	0.814640
	N268	N	0.906558	0.180154	0.458753
	N269	N	0.078553	0.179000	0.532612
	N270	N	0.079940	0.821901	0.460399
	N271	N	0.906599	0.824372	0.531816
	N272	N	0.171924	0.466343	0.908590
	N273	N	0.173124	0.537264	0.084657
	N274	N	0.810462	0.467485	0.085161
	N275	N	0.811307	0.537402	0.908514
	O276	O	0.452547	0.423694	0.446518
	H277	H	0.451806	0.425844	0.444042
	H278	H	0.464522	0.432752	0.447023
	O279	O	0.466590	0.713836	0.528713
	H280	H	0.481731	0.722143	0.540880
	H281	H	0.476603	0.700592	0.536846
	O282	O	0.698840	0.708405	0.574292
	H283	H	0.676107	0.709182	0.606690
	H284	H	0.719915	0.706900	0.588999
	O285	O	1.084766	0.993344	-0.166867
	H286	H	1.087483	0.999446	-0.161969
	H287	H	1.074767	0.997233	-0.170240
	O288	O	0.435575	0.542397	0.695235
	H289	H	0.432549	0.518363	0.689290
	H290	H	0.419533	0.536986	0.690833
	O291	O	0.489440	0.681182	0.452586
	H292	H	0.499906	0.680799	0.466725
	H293	H	0.498666	0.681916	0.448526
	O294	O	0.847525	0.876406	1.167153
	H295	H	0.827730	0.877446	1.162161
	H296	H	0.852963	0.906619	1.162993
	O297	O	0.703216	0.516389	0.486830
	H298	H	0.706832	0.534922	0.470456
	H299	H	0.708259	0.528201	0.479500
	O300	O	0.980182	-0.101113	0.899560
	H301	H	0.974783	-0.098476	0.908840
	H302	H	0.969656	-0.104191	0.903814
	O303	O	0.487235	0.288548	0.708321
	H304	H	0.440479	0.304446	0.695268
	H305	H	0.480719	0.260309	0.738330
	O306	O	-0.212340	-0.015329	0.883522
	H307	H	-0.214784	-0.005637	0.880179
	H308	H	-0.209909	-0.006424	0.890545
	O309	O	0.853708	0.037276	0.039024
	H310	H	0.850410	0.034913	0.043481
	H311	H	0.857826	0.040632	0.039244
	O312	O	0.463974	0.605069	0.303958
	H313	H	0.494456	0.593972	0.297573
	H314	H	0.459631	0.621549	0.320006
	O315	O	0.456146	0.320894	0.483724
	H316	H	0.476459	0.327690	0.497779
	H317	H	0.448533	0.329435	0.468273
	O318	O	0.009630	-0.044010	-0.134840
	H319	H	0.016914	-0.045243	-0.133630
	H320	H	0.016013	-0.052251	-0.143942
	O321	O	0.588322	0.297440	0.589598
	H322	H	0.568076	0.311068	0.600259
	H323	H	0.568619	0.307471	0.591826
	O324	O	1.178648	0.129660	1.052433
	H325	H	1.175399	0.126088	1.038739
	H326	H	1.178856	0.117508	1.061369
	O327	O	0.617404	0.669513	0.420223
	H328	H	0.629098	0.655332	0.420053
	H329	H	0.638879	0.679828	0.444492
	O330	O	0.061033	0.851813	0.803570
	H331	H	0.080745	0.838228	0.790949
	H332	H	0.061649	0.861510	0.792704
	O333	O	-0.009302	1.204424	0.174586
	H334	H	0.010560	1.220635	0.185357
	H335	H	0.012529	1.211592	0.166312
	O336	O	1.112434	1.066692	0.160827
	H337	H	1.119164	1.057433	0.169543
	H338	H	1.111658	1.048030	0.135898
	O339	O	-0.102163	0.797170	0.947334
	H340	H	-0.109506	0.792258	0.939798
	H341	H	-0.096764	0.794856	0.937738
	O342	O	0.284972	0.704243	0.445247
	H343	H	0.276866	0.723113	0.434475
	H344	H	0.303333	0.722339	0.448246
	O345	O	-0.155318	0.121457	1.052757
	H346	H	-0.157539	0.125175	1.045633
	H347	H	-0.151455	0.117904	1.050511
	O348	O	0.313890	0.324599	0.679173
	H349	H	0.300641	0.317452	0.638685
	H350	H	0.298556	0.368374	0.683943
	O351	O	0.847517	1.109069	-0.175985
	H352	H	0.829427	1.111903	-0.181109
	H353	H	0.844362	1.104090	-0.168230
	O354	O	1.124200	0.892416	0.830862
	H355	H	1.129092	0.917399	0.837537
	H356	H	1.114831	0.895565	0.842128
	O357	O	-0.079864	-0.148173	0.146178
	H358	H	-0.102045	-0.142989	0.153302
	H359	H	-0.090824	-0.161266	0.134461
	O360	O	0.284363	0.527350	0.289023
	H361	H	0.262121	0.530339	0.282647
	H362	H	0.280769	0.556291	0.292586
	O363	O	0.700267	-0.705797	-0.520923
	H364	H	0.673871	-0.715496	-0.502721
	H365	H	0.713855	-0.717104	-0.511780
	O366	O	0.074617	-0.110485	1.087539
	H367	H	0.076539	-0.136294	1.098487
	H368	H	0.056326	-0.099903	1.076611
	O369	O	1.126161	0.116523	0.960729
	H370	H	1.130028	0.128665	0.957160
	H371	H	1.111440	0.119794	0.943555
	O372	O	0.518726	0.519108	0.468928
	H373	H	0.517639	0.543465	0.474405
	H374	H	0.539553	0.529207	0.474264
	O375	O	0.705172	0.483366	1.636971
	H376	H	0.700053	0.466976	1.640051
	H377	H	0.702959	0.484066	1.617262
	O378	O	0.278953	0.317729	0.505522
	H379	H	0.306352	0.312413	0.483039
	H380	H	0.253881	0.288180	0.497106
	O381	O	-0.079347	0.953460	-0.049057
	H382	H	-0.089618	0.955953	-0.041299
	H383	H	-0.098196	0.951626	-0.047929
	O384	O	0.360398	0.666254	0.300522
	H385	H	0.385768	0.669969	0.285286
	H386	H	0.378174	0.662337	0.320979
	O387	O	0.578667	0.430654	0.698307
	H388	H	0.578849	0.423042	0.696556
	H389	H	0.568980	0.421911	0.695263
	O390	O	0.682025	0.692322	0.310058
	H391	H	0.675742	0.682142	0.307137
	H392	H	0.698781	0.681706	0.310753
	O393	O	1.108006	-0.185254	1.060896
	H394	H	1.110350	-0.198707	1.064871
	H395	H	1.096778	-0.178914	1.062114
	O396	O	0.672111	0.324318	0.316468
	H397	H	0.684326	0.311686	0.369594
	H398	H	0.619058	0.309629	0.308228
	O399	O	0.907943	1.017127	0.110910
	H400	H	0.918185	1.017099	0.130404
	H401	H	0.918555	1.028842	0.113981
	O402	O	0.861854	1.041502	-0.134285
	H403	H	0.862582	1.024223	-0.132936
	H404	H	0.848808	1.037086	-0.133032
	O405	O	0.529735	0.680206	0.704349
	H406	H	0.517099	0.672988	0.724254
	H407	H	0.525271	0.674322	0.710969
	O408	O	0.512001	0.288463	0.286811
	H409	H	0.498910	0.296793	0.264239
	H410	H	0.496268	0.298017	0.266434
	O411	O	1.049239	1.179290	0.875009
	H412	H	1.036403	1.172412	0.871112
	H413	H	1.040977	1.168483	0.858251
	O414	O	0.279635	0.607616	0.554847
	H415	H	0.281652	0.613513	0.533084
	H416	H	0.279892	0.624920	0.538249
	O417	O	0.049847	1.008278	0.961227
	H418	H	0.044421	1.011133	0.973824
	H419	H	0.044694	1.006149	0.962851
	O420	O	0.001029	1.066676	1.007662
	H421	H	0.011249	1.065850	1.016539
	H422	H	0.004976	1.061703	1.018198
	O423	O	0.193397	0.972081	0.098220
	H424	H	0.207038	0.967033	0.103901
	H425	H	0.170087	0.958356	0.115211
	O426	O	0.277954	0.486920	0.696062
	H427	H	0.256370	0.497727	0.692862
	H428	H	0.257146	0.505404	0.690428
	O429	O	0.690791	0.628256	0.690379
	H430	H	0.698503	0.598384	0.684910
	H431	H	0.693613	0.623969	0.709698
	O432	O	0.710945	0.479203	0.275751
	H433	H	0.738375	0.461692	0.249425
	H434	H	0.706740	0.436978	0.280656
	O435	O	0.432705	-0.580477	0.330937
	H436	H	0.435518	-0.573967	0.317626
	H437	H	0.431903	-0.576990	0.346074
	O438	O	-0.151208	1.022813	1.136526
	H439	H	-0.142627	1.029310	1.143740
	H440	H	-0.146658	1.032850	1.141000
	O441	O	0.279695	0.469108	0.465073
	H442	H	0.287381	0.475279	0.451214
	H443	H	0.284974	0.447318	0.472453
