data_Molecule from HDF5

_cell_length_a		16.465749
_cell_length_b		16.404202
_cell_length_c		16.573021
_cell_angle_alpha	90.041100
_cell_angle_beta	90.053739
_cell_angle_gamma	89.964420
_symmetry_space_group_name_H-M	'P 1'
_symmetry_Int_Tables_number		1

loop_
	_symmetry_equiv_pos_as_xyz
	x,y,z

loop_
	_atom_site_label
	_atom_site_type_symbol
	_atom_site_fract_x
	_atom_site_fract_y
	_atom_site_fract_z
	H0	H	0.393717	0.847398	0.737033
	H1	H	0.606805	0.160934	0.738419
	H2	H	0.604372	0.846745	0.293240
	H3	H	0.389724	0.161569	0.290635
	H4	H	0.719729	0.402022	0.859282
	H5	H	0.720952	0.610017	0.173893
	H6	H	0.276419	0.610476	0.859858
	H7	H	0.273841	0.393826	0.171351
	H8	H	0.843200	0.725752	0.410544
	H9	H	0.157883	0.725131	0.620979
	H10	H	0.841471	0.286397	0.616950
	H11	H	0.157079	0.278375	0.408277
	H12	H	0.842346	0.401198	0.734846
	H13	H	0.157818	0.610183	0.738529
	H14	H	0.845286	0.612586	0.290934
	H15	H	0.156024	0.391329	0.289033
	H16	H	0.395680	0.724521	0.858728
	H17	H	0.603621	0.726219	0.173950
	H18	H	0.604597	0.283616	0.859283
	H19	H	0.392407	0.279519	0.172687
	H20	H	0.718601	0.845138	0.410623
	H21	H	0.719025	0.163063	0.617829
	H22	H	0.278335	0.846991	0.620165
	H23	H	0.277094	0.162445	0.408424
	H24	H	0.893686	0.346321	0.238657
	H25	H	0.110000	0.660048	0.241994
	H26	H	0.106138	0.345409	0.794943
	H27	H	0.896022	0.661435	0.795636
	H28	H	0.222861	0.896691	0.358885
	H29	H	0.221530	0.108695	0.672498
	H30	H	0.777263	0.110473	0.358173
	H31	H	0.781160	0.902279	0.673317
	H32	H	0.343002	0.228971	0.907961
	H33	H	0.657525	0.224941	0.120155
	H34	H	0.342147	0.780474	0.122250
	H35	H	0.659109	0.788037	0.915367
	H36	H	0.342336	0.894738	0.239878
	H37	H	0.655702	0.111841	0.238414
	H38	H	0.343094	0.113116	0.791282
	H39	H	0.656927	0.900643	0.795497
	H40	H	0.894598	0.226361	0.358453
	H41	H	0.102719	0.223078	0.674474
	H42	H	0.106818	0.779943	0.359044
	H43	H	0.898463	0.786330	0.673706
	H44	H	0.222237	0.346151	0.910022
	H45	H	0.222767	0.662218	0.123428
	H46	H	0.779999	0.345632	0.120788
	H47	H	0.780548	0.662944	0.913026
	H48	H	0.411627	0.117625	0.603210
	H49	H	0.590161	0.891554	0.598959
	H50	H	0.588547	0.118871	0.423674
	H51	H	0.408177	0.892056	0.430026
	H52	H	0.587994	0.413857	0.128953
	H53	H	0.593813	0.599682	0.901256
	H54	H	0.405982	0.587944	0.128096
	H55	H	0.422717	0.422778	0.912111
	H56	H	0.110300	0.590102	0.434776
	H57	H	0.887148	0.594512	0.607513
	H58	H	0.113956	0.416904	0.604774
	H59	H	0.887837	0.408735	0.430678
	H60	H	0.115420	0.413779	0.610837
	H61	H	0.887031	0.593063	0.606571
	H62	H	0.110131	0.584786	0.428464
	H63	H	0.893539	0.423216	0.433071
	H64	H	0.418661	0.589732	0.124810
	H65	H	0.594043	0.591819	0.903475
	H66	H	0.592128	0.415143	0.129041
	H67	H	0.412788	0.404770	0.902593
	H68	H	0.583921	0.116760	0.426562
	H69	H	0.595146	0.886780	0.609319
	H70	H	0.412876	0.117568	0.603929
	H71	H	0.414501	0.891422	0.421997
	H72	H	0.908249	0.619142	0.108347
	H73	H	0.085606	0.391398	0.108474
	H74	H	0.090866	0.619416	0.923240
	H75	H	0.913384	0.388906	0.921723
	H76	H	0.095463	0.913247	0.629702
	H77	H	0.087791	0.095915	0.402916
	H78	H	0.912508	0.093556	0.625657
	H79	H	0.907751	0.914375	0.402437
	H80	H	0.617392	0.106972	0.927539
	H81	H	0.386260	0.087169	0.107354
	H82	H	0.610569	0.915006	0.099368
	H83	H	0.386696	0.918529	0.925199
	H84	H	0.609975	0.921872	0.106866
	H85	H	0.385837	0.097222	0.101897
	H86	H	0.604070	0.084725	0.939143
	H87	H	0.384783	0.914195	0.922860
	H88	H	0.907699	0.098308	0.630300
	H89	H	0.091614	0.087534	0.403968
	H90	H	0.088404	0.922198	0.624072
	H91	H	0.909958	0.915463	0.402351
	H92	H	0.082474	0.615141	0.926306
	H93	H	0.080564	0.395114	0.099692
	H94	H	0.917808	0.616556	0.107221
	H95	H	0.910393	0.391072	0.930058
	H96	H	0.413429	0.117482	0.602875
	H97	H	0.583281	0.891880	0.609748
	H98	H	0.589152	0.116661	0.428779
	H99	H	0.417385	0.895708	0.430619
	H100	H	0.588898	0.417194	0.128215
	H101	H	0.587836	0.596383	0.905061
	H102	H	0.411400	0.599323	0.129855
	H103	H	0.401303	0.424113	0.904108
	H104	H	0.114674	0.592525	0.427245
	H105	H	0.886715	0.593489	0.608180
	H106	H	0.115005	0.410548	0.605268
	H107	H	0.887172	0.419216	0.418923
	H108	H	0.911110	0.614642	0.100159
	H109	H	0.090781	0.392021	0.098902
	H110	H	0.089628	0.616348	0.932372
	H111	H	0.904579	0.387786	0.923813
	H112	H	0.083368	0.911127	0.626523
	H113	H	0.082950	0.089135	0.407072
	H114	H	0.905109	0.091033	0.627863
	H115	H	0.910238	0.912908	0.402293
	H116	H	0.613471	0.083377	0.912740
	H117	H	0.390680	0.088187	0.096835
	H118	H	0.613376	0.912372	0.109028
	H119	H	0.385911	0.914272	0.928209
	C120	C	0.379507	0.013294	0.635938
	C121	C	0.621295	0.994939	0.637220
	C122	C	0.620067	0.012826	0.394016
	C123	C	0.378482	0.996460	0.393655
	C124	C	0.621204	0.383694	0.024987
	C125	C	0.622717	0.627368	1.007728
	C126	C	0.379166	0.625094	0.024121
	C127	C	0.378346	0.382661	1.008907
	C128	C	0.008537	0.623374	0.396112
	C129	C	0.991636	0.625664	0.638864
	C130	C	0.009547	0.382863	0.637098
	C131	C	0.992355	0.382011	0.393873
	C132	C	0.879601	0.512630	0.137612
	C133	C	0.120610	0.496182	0.136778
	C134	C	0.121193	0.512436	0.894879
	C135	C	0.878649	0.494941	0.894585
	C136	C	0.122240	0.882005	0.523730
	C137	C	0.120551	0.124736	0.507724
	C138	C	0.876746	0.126441	0.523917
	C139	C	0.878791	0.883171	0.506633
	C140	C	0.508110	0.126027	0.893439
	C141	C	0.490714	0.124649	0.135919
	C142	C	0.507559	0.882740	0.137972
	C143	C	0.490583	0.884014	0.894654
	C144	C	0.375949	0.894633	0.696534
	C145	C	0.623836	0.114034	0.697103
	C146	C	0.622308	0.894036	0.333671
	C147	C	0.373252	0.114409	0.331704
	C148	C	0.680586	0.382499	0.906578
	C149	C	0.681591	0.628855	0.126507
	C150	C	0.317602	0.627969	0.906522
	C151	C	0.315598	0.377346	0.125190
	C152	C	0.890548	0.685221	0.392387
	C153	C	0.110579	0.685347	0.639897
	C154	C	0.889407	0.325064	0.636847
	C155	C	0.109937	0.319080	0.390171
	C156	C	0.889826	0.382117	0.695399
	C157	C	0.110441	0.628365	0.698416
	C158	C	0.891542	0.628649	0.333193
	C159	C	0.109582	0.375742	0.331086
	C160	C	0.376876	0.684754	0.905881
	C161	C	0.623194	0.686688	0.126448
	C162	C	0.623160	0.323852	0.906516
	C163	C	0.374663	0.320189	0.125741
	C164	C	0.679286	0.893289	0.391998
	C165	C	0.680057	0.114913	0.637584
	C166	C	0.318560	0.894246	0.638730
	C167	C	0.317228	0.115017	0.390794
	C168	C	0.876297	0.393635	0.198069
	C169	C	0.126417	0.613630	0.199955
	C170	C	0.124234	0.393099	0.834842
	C171	C	0.877257	0.614201	0.835559
	C172	C	0.182831	0.878803	0.405959
	C173	C	0.181324	0.127354	0.625601
	C174	C	0.816940	0.128970	0.405680
	C175	C	0.820712	0.883046	0.625929
	C176	C	0.389988	0.187816	0.890159
	C177	C	0.609583	0.185430	0.138812
	C178	C	0.389254	0.821123	0.140671
	C179	C	0.610699	0.826017	0.895008
	C180	C	0.389498	0.878140	0.199029
	C181	C	0.608694	0.129037	0.197618
	C182	C	0.390344	0.130714	0.831540
	C183	C	0.609771	0.882298	0.835714
	C184	C	0.875566	0.186466	0.405689
	C185	C	0.122271	0.184189	0.626533
	C186	C	0.124835	0.820727	0.405994
	C187	C	0.879009	0.825395	0.626143
	C188	C	0.181721	0.393308	0.892595
	C189	C	0.182617	0.614635	0.140888
	C190	C	0.819527	0.393246	0.139664
	C191	C	0.820063	0.614940	0.893905
	C192	C	0.405093	0.095978	0.610562
	C193	C	0.596526	0.911619	0.612947
	C194	C	0.594561	0.096045	0.419236
	C195	C	0.405521	0.914320	0.419973
	C196	C	0.596639	0.408377	0.107340
	C197	C	0.598796	0.603010	0.924830
	C198	C	0.404802	0.599655	0.106186
	C199	C	0.404850	0.409543	0.927322
	C200	C	0.090417	0.596504	0.422633
	C201	C	0.908549	0.600805	0.614537
	C202	C	0.093005	0.406796	0.613695
	C203	C	0.910791	0.409332	0.420050
	C204	C	0.905187	0.595129	0.112611
	C205	C	0.093735	0.414291	0.109972
	C206	C	0.095190	0.595164	0.920104
	C207	C	0.902606	0.411153	0.918433
	C208	C	0.096392	0.908076	0.605475
	C209	C	0.094736	0.098616	0.425850
	C210	C	0.901479	0.101548	0.606398
	C211	C	0.902457	0.907222	0.423826
	C212	C	0.590313	0.099490	0.919161
	C213	C	0.409060	0.098353	0.109529
	C214	C	0.589662	0.908918	0.112506
	C215	C	0.407361	0.908561	0.918549
	Zn216	Zn	0.498962	0.004284	0.765616
	Zn217	Zn	0.498802	0.004863	0.265672
	Zn218	Zn	0.750965	0.504467	0.017053
	Zn219	Zn	0.249211	0.504139	0.016234
	Zn220	Zn	0.000265	0.753361	0.515978
	Zn221	Zn	0.000206	0.254221	0.515761
	Zn222	Zn	0.000713	0.503879	0.766609
	Zn223	Zn	0.001131	0.503658	0.265635
	Zn224	Zn	0.499250	0.754912	0.015879
	Zn225	Zn	0.499553	0.253602	0.015755
	Zn226	Zn	0.748794	0.003424	0.514533
	Zn227	Zn	0.250732	0.004412	0.515252
	N228	N	0.413020	0.969578	0.694963
	N229	N	0.587951	0.038471	0.697021
	N230	N	0.586331	0.969604	0.334698
	N231	N	0.410701	0.039652	0.333533
	N232	N	0.679675	0.418775	0.981261
	N233	N	0.681695	0.592979	0.051551
	N234	N	0.318779	0.591698	0.981260
	N235	N	0.318080	0.415549	0.051627
	N236	N	0.964251	0.681850	0.431103
	N237	N	0.035643	0.683864	0.603536
	N238	N	0.964874	0.325138	0.601695
	N239	N	0.036233	0.322940	0.428580
	N240	N	0.965649	0.417162	0.695944
	N241	N	0.035479	0.591786	0.697642
	N242	N	0.965989	0.590957	0.335529
	N243	N	0.035286	0.413990	0.333032
	N244	N	0.414130	0.683097	0.980037
	N245	N	0.587553	0.685972	0.051529
	N246	N	0.586874	0.324366	0.981018
	N247	N	0.413100	0.323579	0.052115
	N248	N	0.678018	0.968402	0.428783
	N249	N	0.678585	0.039732	0.601037
	N250	N	0.320778	0.969016	0.601525
	N251	N	0.320412	0.040497	0.428787
	N252	N	0.912643	0.468839	0.197199
	N253	N	0.088885	0.538954	0.197640
	N254	N	0.087205	0.468255	0.836080
	N255	N	0.912774	0.538447	0.835809
	N256	N	0.181336	0.916298	0.480134
	N257	N	0.180465	0.091344	0.550739
	N258	N	0.817365	0.092634	0.480336
	N259	N	0.820283	0.918073	0.550650
	N260	N	0.464258	0.185042	0.927847
	N261	N	0.535228	0.183006	0.101277
	N262	N	0.463627	0.823565	0.103337
	N263	N	0.535675	0.827142	0.931191
	N264	N	0.463982	0.915861	0.197347
	N265	N	0.533872	0.092041	0.196193
	N266	N	0.464937	0.093158	0.833475
	N267	N	0.533976	0.917264	0.835167
	N268	N	0.911823	0.185195	0.480318
	N269	N	0.085667	0.183025	0.551945
	N270	N	0.087952	0.822518	0.480364
	N271	N	0.914236	0.825040	0.551018
	N272	N	0.179853	0.468384	0.929206
	N273	N	0.179188	0.540447	0.102368
	N274	N	0.821118	0.468290	0.102823
	N275	N	0.820623	0.539703	0.929899
	O276	O	0.172651	0.182534	0.183327
	H277	H	0.187613	0.161635	0.171498
	H278	H	0.163136	0.153418	0.171414
	O279	O	0.666330	0.740054	0.277101
	H280	H	0.666808	0.755907	0.292525
	H281	H	0.667731	0.746700	0.279722
	O282	O	0.399499	0.558607	0.562477
	H283	H	0.393974	0.557569	0.566802
	H284	H	0.421080	0.550660	0.551637
	O285	O	0.294892	0.297910	0.593223
	H286	H	0.289267	0.335884	0.575825
	H287	H	0.266690	0.271779	0.582075
	O288	O	-0.035424	0.221892	-0.200548
	H289	H	-0.058908	0.235978	-0.214263
	H290	H	-0.064269	0.233637	-0.213456
	O291	O	1.121716	1.032189	0.110750
	H292	H	1.142584	1.025142	0.113954
	H293	H	1.115242	1.025088	0.096435
	O294	O	-0.060799	0.873967	0.016414
	H295	H	-0.042185	0.885268	0.021027
	H296	H	-0.047547	0.871047	0.030134
	O297	O	0.503972	0.346916	0.502697
	H298	H	0.489165	0.348110	0.500627
	H299	H	0.494137	0.344265	0.501217
	O300	O	0.538413	0.597201	0.557288
	H301	H	0.538434	0.598845	0.556032
	H302	H	0.506955	0.582609	0.566636
	O303	O	0.434748	0.479985	0.347259
	H304	H	0.440951	0.484136	0.341853
	H305	H	0.418295	0.477533	0.349202
	O306	O	-0.109527	1.005849	1.233229
	H307	H	-0.091156	1.007916	1.227108
	H308	H	-0.118990	1.020997	1.250192
	O309	O	0.416801	0.444448	0.334734
	H310	H	0.396630	0.448531	0.325514
	H311	H	0.402399	0.437323	0.338789
	O312	O	-0.140849	0.853420	-0.178708
	H313	H	-0.126085	0.862437	-0.166694
	H314	H	-0.122622	0.865717	-0.164702
	O315	O	0.027131	-0.039952	0.834089
	H316	H	0.044686	-0.050451	0.832570
	H317	H	0.023476	-0.026914	0.826523
	O318	O	0.327788	0.687632	0.611200
	H319	H	0.328389	0.692469	0.603656
	H320	H	0.350385	0.676931	0.618187
	O321	O	0.704476	0.541139	0.722311
	H322	H	0.711122	0.521406	0.720210
	H323	H	0.699113	0.520925	0.726859
	O324	O	0.797110	0.207115	0.813419
	H325	H	0.788973	0.168025	0.819548
	H326	H	0.763857	0.226689	0.782505
	O327	O	1.202856	0.212446	1.030168
	H328	H	1.180506	0.211274	1.037570
	H329	H	1.217922	0.238934	1.035920
	O330	O	0.565849	0.452686	-0.263799
	H331	H	0.552596	0.438861	-0.261121
	H332	H	0.546562	0.457747	-0.267478
	O333	O	0.874287	1.195519	1.149458
	H334	H	0.898650	1.196687	1.130674
	H335	H	0.886029	1.180851	1.153158
	O336	O	0.500988	-0.304794	0.388378
	H337	H	0.514249	-0.332640	0.382218
	H338	H	0.524753	-0.290647	0.390007
	O339	O	0.513427	0.550851	0.524545
	H340	H	0.519963	0.541700	0.539865
	H341	H	0.511112	0.551651	0.517147
	O342	O	0.688049	0.314631	0.322222
	H343	H	0.708126	0.333515	0.301981
	H344	H	0.661992	0.320336	0.323200
	O345	O	0.716632	0.717478	0.543671
	H346	H	0.727972	0.740961	0.556475
	H347	H	0.716690	0.722214	0.583687
	O348	O	1.200470	-0.198863	0.813038
	H349	H	1.190696	-0.196872	0.797592
	H350	H	1.204541	-0.192170	0.801810
	O351	O	0.828849	0.984374	0.153253
	H352	H	0.825513	0.991191	0.168176
	H353	H	0.840198	1.003183	0.147448
	O354	O	0.456625	0.518604	0.574108
	H355	H	0.455221	0.542295	0.574832
	H356	H	0.459744	0.518154	0.572944
	O357	O	1.217886	0.983936	1.143520
	H358	H	1.227394	0.976941	1.144054
	H359	H	1.217980	0.962517	1.125217
	O360	O	0.277945	0.522353	0.296109
	H361	H	0.251595	0.543071	0.274449
	H362	H	0.280569	0.560446	0.298775
	O363	O	0.965813	-0.129938	-0.079403
	H364	H	0.982595	-0.136454	-0.065454
	H365	H	0.943951	-0.109197	-0.071430
	O366	O	1.090899	0.081415	0.875432
	H367	H	1.090727	0.085905	0.870389
	H368	H	1.085237	0.079661	0.879396
	O369	O	0.789589	0.838861	0.013044
	H370	H	0.796222	0.822355	0.014548
	H371	H	0.785773	0.832927	0.019441
	O372	O	0.481675	0.361094	0.337952
	H373	H	0.481805	0.362723	0.332413
	H374	H	0.504492	0.359494	0.330011
	O375	O	0.044931	0.867700	1.142852
	H376	H	0.060496	0.871034	1.140046
	H377	H	0.030353	0.870861	1.147890
	O378	O	0.312498	0.683548	0.334618
	H379	H	0.326327	0.700032	0.353076
	H380	H	0.338277	0.694854	0.350599
	O381	O	1.201539	-0.014326	-0.186895
	H382	H	1.215213	-0.010595	-0.192167
	H383	H	1.196573	-0.010790	-0.176968
	O384	O	-0.115144	0.133222	1.106234
	H385	H	-0.102539	0.150755	1.089874
	H386	H	-0.123037	0.136102	1.098624
	O387	O	0.053050	0.971645	1.098798
	H388	H	0.029541	0.959342	1.103114
	H389	H	0.060730	0.980145	1.088425
	O390	O	0.035537	0.201129	0.940490
	H391	H	0.034556	0.207575	0.924930
	H392	H	0.029615	0.201165	0.920783
	O393	O	0.703647	0.711936	-0.282151
	H394	H	0.725714	0.734193	-0.253420
	H395	H	0.706409	0.667111	-0.274117
	O396	O	0.707825	0.437702	0.566181
	H397	H	0.715407	0.437024	0.547207
	H398	H	0.698461	0.421039	0.551721
	O399	O	0.674327	0.321737	0.694040
	H400	H	0.664286	0.335282	0.670661
	H401	H	0.649201	0.339227	0.685491
	O402	O	-0.202177	-0.006531	1.008121
	H403	H	-0.199413	-0.011856	1.020458
	H404	H	-0.190694	-0.011319	1.011008
	O405	O	0.213010	0.018611	-0.001415
	H406	H	0.199145	0.021826	0.002925
	H407	H	0.213892	0.030863	0.003057
	O408	O	0.544845	0.696540	0.447381
	H409	H	0.556970	0.678705	0.461892
	H410	H	0.547121	0.700148	0.455004
	O411	O	0.069349	0.971700	0.102684
	H412	H	0.071785	0.962330	0.108551
	H413	H	0.045579	0.982357	0.102467
	O414	O	0.472703	0.292722	0.653722
	H415	H	0.467619	0.286184	0.652151
	H416	H	0.484720	0.275110	0.633772
	O417	O	0.341857	0.692059	0.591837
	H418	H	0.351959	0.688948	0.590880
	H419	H	0.351282	0.686670	0.587998
	O420	O	0.708218	0.479400	0.306925
	H421	H	0.724085	0.489090	0.319282
	H422	H	0.713724	0.486338	0.302875
	O423	O	0.215665	0.791365	-0.012159
	H424	H	0.225144	0.777745	-0.040366
	H425	H	0.218172	0.778754	-0.022788
	O426	O	0.784811	1.207843	0.989322
	H427	H	0.765909	1.235268	0.982668
	H428	H	0.796494	1.207540	0.963019
	O429	O	0.463652	0.295814	0.533906
	H430	H	0.448466	0.290764	0.521283
	H431	H	0.485597	0.303354	0.516250
	O432	O	0.374631	0.307127	0.676739
	H433	H	0.360373	0.301374	0.643267
	H434	H	0.392306	0.294327	0.682973
	O435	O	0.018178	0.216371	0.227536
	H436	H	0.026005	0.236672	0.248982
	H437	H	0.050440	0.214227	0.216008
	O438	O	1.048562	-0.191445	-0.134311
	H439	H	1.045495	-0.194274	-0.117543
	H440	H	1.065578	-0.206253	-0.137902
	O441	O	0.795439	0.799276	0.157930
	H442	H	0.774595	0.786563	0.146335
	H443	H	0.804774	0.822462	0.176064
	O444	O	0.733190	0.562733	0.460879
	H445	H	0.742010	0.576868	0.468167
	H446	H	0.730569	0.580634	0.476084
	O447	O	0.716937	0.284737	0.482053
	H448	H	0.750267	0.250185	0.475325
	H449	H	0.700236	0.286921	0.449618
	O450	O	0.526983	0.705532	0.715128
	H451	H	0.530925	0.709524	0.727869
	H452	H	0.557862	0.708114	0.714358
	O453	O	0.419561	0.508208	0.486780
	H454	H	0.420249	0.508317	0.493006
	H455	H	0.421462	0.503007	0.481517
	O456	O	1.013422	-0.186620	0.207685
	H457	H	0.997266	-0.177384	0.200258
	H458	H	1.011697	-0.201030	0.224253
	O459	O	0.286400	0.499119	0.677118
	H460	H	0.268867	0.492674	0.698353
	H461	H	0.291116	0.468331	0.662405
	O462	O	0.334813	0.417117	0.493988
	H463	H	0.342212	0.418641	0.491022
	H464	H	0.322665	0.427834	0.483597
	O465	O	0.796318	0.035976	-0.190803
	H466	H	0.794453	0.016836	-0.187977
	H467	H	0.794574	0.025802	-0.185435
