data_Molecule from HDF5

_cell_length_a		16.457140
_cell_length_b		16.466804
_cell_length_c		16.517832
_cell_angle_alpha	90.145339
_cell_angle_beta	89.924110
_cell_angle_gamma	90.118506
_symmetry_space_group_name_H-M	'P 1'
_symmetry_Int_Tables_number		1

loop_
	_symmetry_equiv_pos_as_xyz
	x,y,z

loop_
	_atom_site_label
	_atom_site_type_symbol
	_atom_site_fract_x
	_atom_site_fract_y
	_atom_site_fract_z
	H0	H	0.399151	0.841422	0.747527
	H1	H	0.611767	0.155645	0.752833
	H2	H	0.613513	0.843833	0.302042
	H3	H	0.395077	0.154505	0.303442
	H4	H	0.727971	0.388410	0.871193
	H5	H	0.730346	0.609194	0.182036
	H6	H	0.283212	0.602387	0.869677
	H7	H	0.280746	0.394103	0.184647
	H8	H	0.845980	0.725116	0.417204
	H9	H	0.159926	0.720099	0.628244
	H10	H	0.846187	0.274985	0.634799
	H11	H	0.160032	0.279698	0.421077
	H12	H	0.845092	0.391950	0.749933
	H13	H	0.160359	0.603688	0.744527
	H14	H	0.845239	0.609219	0.301375
	H15	H	0.158990	0.395287	0.304754
	H16	H	0.400976	0.718121	0.869825
	H17	H	0.615989	0.726225	0.181693
	H18	H	0.611747	0.271893	0.872131
	H19	H	0.397721	0.278667	0.185476
	H20	H	0.729731	0.844908	0.417445
	H21	H	0.725819	0.156988	0.636022
	H22	H	0.281270	0.842296	0.631570
	H23	H	0.283323	0.156708	0.423793
	H24	H	0.892345	0.343172	0.252339
	H25	H	0.108602	0.657480	0.248845
	H26	H	0.105320	0.343022	0.805910
	H27	H	0.894797	0.657720	0.803405
	H28	H	0.227517	0.892439	0.370818
	H29	H	0.221848	0.102678	0.685015
	H30	H	0.776277	0.109620	0.372941
	H31	H	0.778000	0.891371	0.684146
	H32	H	0.347040	0.217998	0.924334
	H33	H	0.659184	0.226405	0.139232
	H34	H	0.346953	0.775200	0.133665
	H35	H	0.660833	0.774077	0.918254
	H36	H	0.347467	0.890290	0.251519
	H37	H	0.659455	0.111202	0.255626
	H38	H	0.347338	0.102206	0.807408
	H39	H	0.660526	0.888329	0.801450
	H40	H	0.894084	0.223537	0.371275
	H41	H	0.107298	0.221336	0.683533
	H42	H	0.109174	0.777753	0.369306
	H43	H	0.894748	0.775708	0.683164
	H44	H	0.220052	0.341276	0.924172
	H45	H	0.224170	0.657209	0.132251
	H46	H	0.778554	0.341716	0.134733
	H47	H	0.779204	0.656601	0.919659
	H48	H	0.418137	0.111219	0.617782
	H49	H	0.588393	0.888716	0.613308
	H50	H	0.591593	0.112580	0.439406
	H51	H	0.416587	0.886308	0.438831
	H52	H	0.590798	0.413292	0.138243
	H53	H	0.595570	0.580569	0.916660
	H54	H	0.416800	0.586676	0.138979
	H55	H	0.413058	0.412052	0.915896
	H56	H	0.110332	0.585074	0.444747
	H57	H	0.889546	0.590188	0.608285
	H58	H	0.115283	0.411739	0.615674
	H59	H	0.890174	0.417483	0.436830
	H60	H	0.115008	0.411108	0.616113
	H61	H	0.890314	0.581011	0.616062
	H62	H	0.115100	0.584320	0.430435
	H63	H	0.888005	0.407257	0.437915
	H64	H	0.414395	0.588955	0.140501
	H65	H	0.584517	0.582385	0.919788
	H66	H	0.589172	0.414133	0.137578
	H67	H	0.416539	0.402676	0.914154
	H68	H	0.582984	0.109135	0.440660
	H69	H	0.592525	0.887725	0.614670
	H70	H	0.409435	0.114472	0.616191
	H71	H	0.415883	0.886890	0.440308
	H72	H	0.918928	0.610764	0.118498
	H73	H	0.085759	0.387774	0.116396
	H74	H	0.094684	0.614080	0.937272
	H75	H	0.912130	0.390379	0.947878
	H76	H	0.090885	0.906140	0.640926
	H77	H	0.091644	0.092755	0.413274
	H78	H	0.919963	0.086544	0.637117
	H79	H	0.914637	0.909354	0.414939
	H80	H	0.617594	0.086395	0.939219
	H81	H	0.392304	0.079514	0.122731
	H82	H	0.614223	0.914877	0.112289
	H83	H	0.392065	0.907367	0.939676
	H84	H	0.615578	0.914128	0.115945
	H85	H	0.388672	0.094412	0.117771
	H86	H	0.616354	0.085167	0.943037
	H87	H	0.392358	0.911243	0.938009
	H88	H	0.915192	0.091010	0.640134
	H89	H	0.097818	0.089288	0.411727
	H90	H	0.096059	0.911519	0.639961
	H91	H	0.912256	0.918693	0.417120
	H92	H	0.095366	0.615927	0.933886
	H93	H	0.094936	0.387386	0.111558
	H94	H	0.922160	0.605701	0.109080
	H95	H	0.909029	0.383601	0.929811
	H96	H	0.413234	0.114670	0.624376
	H97	H	0.589294	0.887361	0.617321
	H98	H	0.588576	0.108817	0.447573
	H99	H	0.414954	0.886072	0.439129
	H100	H	0.589387	0.411945	0.138080
	H101	H	0.590101	0.590459	0.914893
	H102	H	0.413502	0.585441	0.139238
	H103	H	0.406756	0.405133	0.912193
	H104	H	0.116225	0.596769	0.438433
	H105	H	0.886063	0.591505	0.619793
	H106	H	0.115432	0.411448	0.615238
	H107	H	0.891692	0.413189	0.446016
	H108	H	0.911977	0.610599	0.110325
	H109	H	0.094540	0.384099	0.121265
	H110	H	0.091897	0.615092	0.935073
	H111	H	0.926914	0.391136	0.934502
	H112	H	0.089241	0.912757	0.637533
	H113	H	0.092717	0.085324	0.414477
	H114	H	0.913322	0.084601	0.638672
	H115	H	0.921168	0.915638	0.419326
	H116	H	0.616485	0.082409	0.939871
	H117	H	0.396680	0.084124	0.107850
	H118	H	0.614716	0.911175	0.113057
	H119	H	0.390969	0.908548	0.936097
	C120	C	0.381876	0.008511	0.650083
	C121	C	0.624262	0.990926	0.649281
	C122	C	0.623583	0.008032	0.406966
	C123	C	0.382580	0.990178	0.406278
	C124	C	0.624828	0.377362	0.035666
	C125	C	0.625547	0.620253	1.018772
	C126	C	0.382548	0.619590	0.035805
	C127	C	0.381139	0.376486	1.018646
	C128	C	0.010726	0.622690	0.403695
	C129	C	0.993291	0.620444	0.646497
	C130	C	0.011127	0.378106	0.648357
	C131	C	0.994079	0.379692	0.406636
	C132	C	0.882451	0.506448	0.147454
	C133	C	0.123832	0.490979	0.148730
	C134	C	0.123981	0.509713	0.905029
	C135	C	0.881486	0.491691	0.904239
	C136	C	0.124499	0.878126	0.535225
	C137	C	0.124845	0.120819	0.517660
	C138	C	0.881657	0.121150	0.535818
	C139	C	0.881450	0.879425	0.519530
	C140	C	0.512818	0.117603	0.908283
	C141	C	0.495461	0.120966	0.150780
	C142	C	0.511766	0.878578	0.147812
	C143	C	0.495713	0.876126	0.904618
	C144	C	0.380201	0.888908	0.708260
	C145	C	0.629079	0.108704	0.711858
	C146	C	0.630229	0.890725	0.343280
	C147	C	0.378220	0.107839	0.344678
	C148	C	0.687250	0.371515	0.918213
	C149	C	0.689636	0.626567	0.135127
	C150	C	0.322911	0.621522	0.917216
	C151	C	0.320858	0.375318	0.137169
	C152	C	0.892963	0.684583	0.399375
	C153	C	0.112689	0.680116	0.647515
	C154	C	0.893149	0.315954	0.652095
	C155	C	0.112371	0.319364	0.403112
	C156	C	0.892685	0.374444	0.709414
	C157	C	0.112750	0.622457	0.705282
	C158	C	0.892669	0.626728	0.341799
	C159	C	0.111993	0.376765	0.345087
	C160	C	0.381476	0.679008	0.917305
	C161	C	0.632067	0.684558	0.135184
	C162	C	0.629714	0.313058	0.919065
	C163	C	0.379454	0.318071	0.137914
	C164	C	0.687866	0.891371	0.401028
	C165	C	0.685720	0.109709	0.653463
	C166	C	0.322075	0.889386	0.650465
	C167	C	0.322344	0.108833	0.404271
	C168	C	0.875866	0.389724	0.210978
	C169	C	0.126676	0.609671	0.208879
	C170	C	0.124352	0.390346	0.845852
	C171	C	0.877059	0.610080	0.843233
	C172	C	0.186119	0.875023	0.417448
	C173	C	0.183103	0.121989	0.637121
	C174	C	0.818467	0.125928	0.419113
	C175	C	0.819096	0.874184	0.636855
	C176	C	0.394072	0.177917	0.905881
	C177	C	0.612723	0.184281	0.155607
	C178	C	0.394240	0.815856	0.151720
	C179	C	0.613834	0.814550	0.900779
	C180	C	0.394226	0.873391	0.210071
	C181	C	0.612654	0.126973	0.213831
	C182	C	0.394316	0.120259	0.848048
	C183	C	0.613462	0.871607	0.842451
	C184	C	0.877000	0.183069	0.418409
	C185	C	0.125948	0.180789	0.636540
	C186	C	0.126983	0.818151	0.416525
	C187	C	0.877247	0.816550	0.636482
	C188	C	0.181294	0.389532	0.904652
	C189	C	0.184543	0.609705	0.151035
	C190	C	0.819193	0.389056	0.152138
	C191	C	0.819804	0.609489	0.901442
	C192	C	0.406653	0.091819	0.626305
	C193	C	0.597706	0.909183	0.622759
	C194	C	0.595710	0.088900	0.434549
	C195	C	0.408629	0.907899	0.432124
	C196	C	0.597715	0.405184	0.116668
	C197	C	0.598036	0.592309	0.938040
	C198	C	0.407736	0.594333	0.118116
	C199	C	0.405381	0.399936	0.935622
	C200	C	0.092474	0.596162	0.430197
	C201	C	0.910345	0.595159	0.621799
	C202	C	0.093880	0.404117	0.622865
	C203	C	0.911651	0.405345	0.432679
	C204	C	0.909880	0.587720	0.120395
	C205	C	0.098531	0.408021	0.123632
	C206	C	0.100811	0.593229	0.928746
	C207	C	0.908204	0.409741	0.930120
	C208	C	0.099027	0.902887	0.617865
	C209	C	0.100831	0.096200	0.434751
	C210	C	0.908504	0.094906	0.617273
	C211	C	0.908247	0.906588	0.438260
	C212	C	0.595392	0.091951	0.933613
	C213	C	0.413923	0.093748	0.123893
	C214	C	0.593523	0.905596	0.121419
	C215	C	0.413385	0.902026	0.930405
	Zn216	Zn	0.504551	-0.001471	0.777618
	Zn217	Zn	0.503852	-0.001135	0.277921
	Zn218	Zn	0.753784	0.499021	0.026313
	Zn219	Zn	0.252359	0.499373	0.027500
	Zn220	Zn	0.001822	0.749758	0.526067
	Zn221	Zn	0.003186	0.249675	0.526501
	Zn222	Zn	0.002044	0.500830	0.775853
	Zn223	Zn	0.001842	0.499987	0.277248
	Zn224	Zn	0.504682	0.749075	0.026933
	Zn225	Zn	0.503381	0.248139	0.028020
	Zn226	Zn	0.752294	0.000383	0.528595
	Zn227	Zn	0.253867	-0.000521	0.527411
	N228	N	0.416554	0.964150	0.708145
	N229	N	0.591910	0.033901	0.709510
	N230	N	0.591208	0.964303	0.346727
	N231	N	0.414580	0.032888	0.345768
	N232	N	0.684391	0.410793	0.991659
	N233	N	0.685653	0.587208	0.061808
	N234	N	0.323506	0.585208	0.991941
	N235	N	0.321360	0.410766	0.061953
	N236	N	0.967297	0.682429	0.436913
	N237	N	0.037304	0.679147	0.611852
	N238	N	0.967773	0.318275	0.614721
	N239	N	0.037963	0.321088	0.440747
	N240	N	0.967140	0.412347	0.707320
	N241	N	0.037390	0.586412	0.704917
	N242	N	0.967056	0.589006	0.344323
	N243	N	0.037179	0.413475	0.347131
	N244	N	0.417771	0.677900	0.992107
	N245	N	0.592860	0.680854	0.061895
	N246	N	0.591854	0.316507	0.993190
	N247	N	0.415937	0.318245	0.063038
	N248	N	0.684016	0.965147	0.440013
	N249	N	0.683062	0.035416	0.615311
	N250	N	0.322866	0.964749	0.615111
	N251	N	0.324665	0.034495	0.441699
	N252	N	0.914298	0.463822	0.208347
	N253	N	0.089858	0.534759	0.207670
	N254	N	0.089560	0.466016	0.845849
	N255	N	0.914552	0.535629	0.844745
	N256	N	0.184714	0.911566	0.492250
	N257	N	0.182737	0.085627	0.562178
	N258	N	0.821387	0.088007	0.492856
	N259	N	0.821291	0.912238	0.562939
	N260	N	0.468799	0.176180	0.942884
	N261	N	0.538870	0.180726	0.117044
	N262	N	0.468466	0.818896	0.113818
	N263	N	0.539628	0.817268	0.938822
	N264	N	0.468347	0.911689	0.207850
	N265	N	0.538660	0.088168	0.210739
	N266	N	0.469196	0.083568	0.849369
	N267	N	0.538999	0.909239	0.844745
	N268	N	0.915679	0.180298	0.492022
	N269	N	0.090676	0.180384	0.561225
	N270	N	0.089355	0.819853	0.490845
	N271	N	0.915292	0.819653	0.562378
	N272	N	0.181194	0.464740	0.940965
	N273	N	0.182980	0.534745	0.114325
	N274	N	0.823202	0.462752	0.113334
	N275	N	0.822390	0.534905	0.938477
	O276	O	-0.068946	0.156629	0.187436
	H277	H	-0.093738	0.165174	0.170922
	H278	H	-0.067202	0.169484	0.213797
	O279	O	1.213662	1.018417	0.236794
	H280	H	1.239278	1.015884	0.242640
	H281	H	1.216867	1.000397	0.222011
	O282	O	0.268457	0.302251	0.336761
	H283	H	0.263184	0.304619	0.339381
	H284	H	0.249769	0.291172	0.334633
	O285	O	0.628673	0.433788	0.683421
	H286	H	0.615827	0.446160	0.678465
	H287	H	0.643765	0.435472	0.706344
	O288	O	0.004676	-0.014922	0.026264
	H289	H	0.010764	-0.008329	0.041416
	H290	H	0.004785	-0.025934	0.008857
	O291	O	0.782451	0.956283	0.243755
	H292	H	0.787257	0.922523	0.245244
	H293	H	0.759295	0.932270	0.266364
	O294	O	0.034048	0.781741	-0.189408
	H295	H	0.049549	0.774277	-0.206305
	H296	H	0.017686	0.792482	-0.208871
	O297	O	0.311545	0.537188	0.581996
	H298	H	0.309013	0.541162	0.574118
	H299	H	0.314720	0.530577	0.570937
	O300	O	0.316639	0.685444	0.341567
	H301	H	0.333654	0.694033	0.366960
	H302	H	0.307867	0.664253	0.323495
	O303	O	0.306451	0.517165	0.314843
	H304	H	0.300824	0.510405	0.311585
	H305	H	0.298025	0.515881	0.312223
	O306	O	-0.289307	1.289882	1.506894
	H307	H	-0.280383	1.287973	1.521050
	H308	H	-0.271413	1.308428	1.525062
	O309	O	0.541569	0.592586	0.494978
	H310	H	0.545214	0.597286	0.498291
	H311	H	0.535671	0.576067	0.481576
	O312	O	-0.026682	0.818815	-0.021401
	H313	H	-0.024441	0.827377	-0.028861
	H314	H	-0.021127	0.813109	-0.027840
	O315	O	-0.077513	0.212466	1.116882
	H316	H	-0.081315	0.201366	1.107515
	H317	H	-0.091193	0.207730	1.102269
	O318	O	0.449782	0.540887	0.752079
	H319	H	0.443798	0.536272	0.762708
	H320	H	0.437779	0.522486	0.741089
	O321	O	0.516437	0.315364	0.319394
	H322	H	0.513522	0.304496	0.309471
	H323	H	0.503767	0.296776	0.328259
	O324	O	0.834296	0.843704	0.188059
	H325	H	0.865179	0.832010	0.180751
	H326	H	0.840349	0.832307	0.157126
	O327	O	0.978283	-0.213679	1.239936
	H328	H	0.979559	-0.237121	1.274467
	H329	H	1.004137	-0.189092	1.240074
	O330	O	0.509726	0.477861	-0.643081
	H331	H	0.509338	0.457093	-0.635185
	H332	H	0.507024	0.473961	-0.645368
	O333	O	1.033061	0.818846	1.056439
	H334	H	1.035367	0.814307	1.040117
	H335	H	1.037853	0.835015	1.039402
	O336	O	0.294264	-0.529593	0.742095
	H337	H	0.269288	-0.529091	0.747702
	H338	H	0.292476	-0.557614	0.735344
	O339	O	0.328130	0.686610	0.712498
	H340	H	0.337105	0.669472	0.688783
	H341	H	0.347564	0.668047	0.701226
	O342	O	1.195825	0.188797	-0.162605
	H343	H	1.170696	0.175262	-0.147404
	H344	H	1.183181	0.167584	-0.138461
	O345	O	0.716726	0.714455	0.540697
	H346	H	0.737284	0.735670	0.545397
	H347	H	0.696902	0.711936	0.554926
	O348	O	1.683472	-0.529734	1.466368
	H349	H	1.695829	-0.521007	1.448555
	H350	H	1.685054	-0.546419	1.481390
	O351	O	0.842656	1.086663	0.060231
	H352	H	0.842059	1.076698	0.089765
	H353	H	0.858317	1.066518	0.056212
	O354	O	0.511530	0.345388	0.650586
	H355	H	0.481841	0.362621	0.649464
	H356	H	0.528031	0.343976	0.653040
	O357	O	0.993566	0.913436	1.032562
	H358	H	0.990840	0.897023	1.019942
	H359	H	0.995603	0.917498	1.041777
	O360	O	0.477067	0.716044	0.310930
	H361	H	0.474559	0.729246	0.286881
	H362	H	0.477213	0.707823	0.304774
	O363	O	0.828921	0.177790	-0.156582
	H364	H	0.817170	0.188794	-0.108826
	H365	H	0.828800	0.145614	-0.162902
	O366	O	1.133689	0.186819	1.212656
	H367	H	1.095367	0.200067	1.225585
	H368	H	1.131540	0.146953	1.218553
	O369	O	0.362046	0.711432	-0.459637
	H370	H	0.370188	0.710347	-0.488805
	H371	H	0.375371	0.720586	-0.450349
	O372	O	0.300086	0.295759	0.731800
	H373	H	0.269503	0.262831	0.765772
	H374	H	0.324823	0.302913	0.725373
	O375	O	-0.549082	0.388855	1.527727
	H376	H	-0.542903	0.383094	1.526376
	H377	H	-0.551268	0.399804	1.550236
	O378	O	0.450994	0.376257	0.364862
	H379	H	0.445440	0.380626	0.365052
	H380	H	0.462658	0.369728	0.386748
	O381	O	1.220032	-0.205643	-0.000931
	H382	H	1.204494	-0.206008	-0.012814
	H383	H	1.234639	-0.230522	-0.008255
	O384	O	-0.031946	0.028203	1.252366
	H385	H	-0.058982	0.021898	1.257393
	H386	H	-0.041045	0.041570	1.256296
	O387	O	0.054237	1.021878	0.856338
	H388	H	0.050964	1.030218	0.855628
	H389	H	0.066523	1.027510	0.850660
	O390	O	-0.203835	-0.203353	1.043371
	H391	H	-0.184866	-0.193130	1.028614
	H392	H	-0.223439	-0.229068	1.047870
	O393	O	0.289101	0.285940	-0.439648
	H394	H	0.277633	0.272590	-0.432555
	H395	H	0.281583	0.282882	-0.418209
	O396	O	0.458149	0.510666	0.490007
	H397	H	0.457414	0.498288	0.489212
	H398	H	0.467011	0.509619	0.467371
	O399	O	0.990671	0.202914	0.822341
	H400	H	0.977189	0.203597	0.841163
	H401	H	0.973170	0.216863	0.806351
	O402	O	0.214785	-0.025294	0.816617
	H403	H	0.228287	-0.030373	0.800789
	H404	H	0.225745	-0.047730	0.823432
	O405	O	0.056293	0.211129	-0.019212
	H406	H	0.057060	0.209965	-0.011173
	H407	H	0.058287	0.211030	-0.013194
	O408	O	1.203433	0.802508	-0.172710
	H409	H	1.185627	0.795421	-0.161741
	H410	H	1.224270	0.784265	-0.195269
	O411	O	-0.209834	0.929999	-0.050893
	H412	H	-0.186445	0.941431	-0.044975
	H413	H	-0.220804	0.924066	-0.042542
	O414	O	0.250895	0.789827	0.312842
	H415	H	0.251698	0.805476	0.313170
	H416	H	0.252831	0.793044	0.305617
	O417	O	-0.209408	0.016572	0.817791
	H418	H	-0.218345	0.015932	0.846996
	H419	H	-0.233952	0.018567	0.795018
	O420	O	0.525613	0.701076	0.725400
	H421	H	0.500718	0.692840	0.724333
	H422	H	0.522807	0.704633	0.728506
	O423	O	-0.211935	1.210411	0.003019
	H424	H	-0.245522	1.229926	0.008078
	H425	H	-0.216134	1.185653	0.028354
	O426	O	0.408957	1.494018	0.421163
	H427	H	0.420262	1.479935	0.427342
	H428	H	0.401193	1.503224	0.410420
	O429	O	0.604167	0.656728	0.473760
	H430	H	0.608141	0.666264	0.446172
	H431	H	0.591316	0.644370	0.458493
	O432	O	0.685965	0.315617	0.344321
	H433	H	0.660430	0.306749	0.363103
	H434	H	0.681725	0.318821	0.369906
	O435	O	-0.476146	0.300789	-0.275507
	H436	H	-0.474662	0.294065	-0.272569
	H437	H	-0.462539	0.306955	-0.278662
	O438	O	1.220500	0.048677	-0.024794
	H439	H	1.208911	0.054022	-0.020328
	H440	H	1.224948	0.053819	-0.030989
	O441	O	0.990077	0.970402	0.234097
	H442	H	0.976197	0.981742	0.229444
	H443	H	0.995645	0.981342	0.248138
	O444	O	0.533352	0.407495	0.554112
	H445	H	0.528538	0.398045	0.559300
	H446	H	0.524794	0.404907	0.536219
	O447	O	0.679725	0.668169	0.694074
	H448	H	0.665029	0.670360	0.664882
	H449	H	0.648502	0.658307	0.704130
	O450	O	0.617100	0.460779	0.363098
	H451	H	0.619228	0.444788	0.354075
	H452	H	0.626349	0.449800	0.363323
	O453	O	1.218045	1.211244	0.054234
	H454	H	1.238760	1.233065	0.066075
	H455	H	1.210880	1.205120	0.079202
	O456	O	0.973033	-0.046658	-0.195445
	H457	H	0.989043	-0.032476	-0.196418
	H458	H	0.955164	-0.037507	-0.199312
	O459	O	0.659245	0.542646	0.424529
	H460	H	0.648793	0.532617	0.403695
	H461	H	0.666878	0.542106	0.421175
	O462	O	0.719218	0.518956	0.744493
	H463	H	0.717214	0.549617	0.737505
	H464	H	0.737719	0.516633	0.770953
	O465	O	1.182775	-0.023711	0.089843
	H466	H	1.182288	-0.032953	0.074207
	H467	H	1.191963	-0.025686	0.075060
