data_Molecule from HDF5

_cell_length_a		16.340786
_cell_length_b		16.138416
_cell_length_c		16.239908
_cell_angle_alpha	90.004938
_cell_angle_beta	89.761730
_cell_angle_gamma	89.803339
_symmetry_space_group_name_H-M	'P 1'
_symmetry_Int_Tables_number		1

loop_
	_symmetry_equiv_pos_as_xyz
	x,y,z

loop_
	_atom_site_label
	_atom_site_type_symbol
	_atom_site_fract_x
	_atom_site_fract_y
	_atom_site_fract_z
	H0	H	0.399611	0.829426	0.717510
	H1	H	0.594606	0.159063	0.717707
	H2	H	0.596398	0.829284	0.291883
	H3	H	0.400180	0.159855	0.292233
	H4	H	0.714022	0.392527	0.841167
	H5	H	0.710384	0.592869	0.167757
	H6	H	0.282748	0.595320	0.839884
	H7	H	0.279826	0.393696	0.167324
	H8	H	0.833632	0.711024	0.407368
	H9	H	0.161155	0.708185	0.599995
	H10	H	0.832137	0.284085	0.601334
	H11	H	0.160121	0.280907	0.405520
	H12	H	0.833492	0.399046	0.718802
	H13	H	0.159801	0.595898	0.719154
	H14	H	0.832777	0.595234	0.290007
	H15	H	0.159840	0.396572	0.287515
	H16	H	0.400009	0.708857	0.839809
	H17	H	0.592294	0.706207	0.169203
	H18	H	0.594553	0.280491	0.839355
	H19	H	0.399572	0.281891	0.169010
	H20	H	0.713021	0.830975	0.403705
	H21	H	0.709619	0.159930	0.602516
	H22	H	0.282362	0.831036	0.604118
	H23	H	0.283621	0.159873	0.404728
	H24	H	0.899195	0.330924	0.216907
	H25	H	0.092610	0.661214	0.215580
	H26	H	0.096636	0.330324	0.789340
	H27	H	0.898734	0.660800	0.793014
	H28	H	0.214338	0.895047	0.341127
	H29	H	0.212196	0.096892	0.667632
	H30	H	0.781708	0.095829	0.340038
	H31	H	0.780807	0.895479	0.667102
	H32	H	0.333551	0.208177	0.908280
	H33	H	0.660664	0.207873	0.101462
	H34	H	0.333113	0.780528	0.103607
	H35	H	0.660765	0.780115	0.907089
	H36	H	0.334263	0.896043	0.221446
	H37	H	0.661207	0.091698	0.217626
	H38	H	0.334937	0.094895	0.789950
	H39	H	0.660170	0.894202	0.789096
	H40	H	0.900442	0.208755	0.339385
	H41	H	0.091772	0.208661	0.668509
	H42	H	0.094720	0.783475	0.339562
	H43	H	0.901110	0.784328	0.669203
	H44	H	0.213051	0.331122	0.903084
	H45	H	0.210037	0.659731	0.102114
	H46	H	0.783947	0.329790	0.103022
	H47	H	0.781215	0.659310	0.905121
	H48	H	0.395831	0.115402	0.596824
	H49	H	0.594425	0.873752	0.599901
	H50	H	0.581063	0.110660	0.409198
	H51	H	0.408591	0.878501	0.415099
	H52	H	0.595324	0.398499	0.123870
	H53	H	0.595276	0.593621	0.883640
	H54	H	0.406294	0.585258	0.119467
	H55	H	0.398921	0.403032	0.886105
	H56	H	0.116180	0.602340	0.410048
	H57	H	0.881302	0.593713	0.593918
	H58	H	0.113152	0.402815	0.599082
	H59	H	0.877052	0.398698	0.404453
	H60	H	0.113215	0.400090	0.595285
	H61	H	0.881637	0.584972	0.600089
	H62	H	0.107595	0.580833	0.419728
	H63	H	0.881314	0.399887	0.418021
	H64	H	0.401040	0.591017	0.122586
	H65	H	0.595097	0.579300	0.887699
	H66	H	0.590894	0.407451	0.119781
	H67	H	0.407482	0.406228	0.889663
	H68	H	0.593085	0.111139	0.419901
	H69	H	0.584755	0.878694	0.597554
	H70	H	0.408757	0.113737	0.604457
	H71	H	0.400461	0.876453	0.414915
	H72	H	0.895253	0.615627	0.095750
	H73	H	0.092932	0.379249	0.085974
	H74	H	0.086303	0.614484	0.903734
	H75	H	0.896317	0.375767	0.914119
	H76	H	0.087983	0.902562	0.621136
	H77	H	0.095733	0.080223	0.388088
	H78	H	0.902854	0.085241	0.620106
	H79	H	0.907108	0.900672	0.387231
	H80	H	0.612755	0.091280	0.918102
	H81	H	0.381476	0.089721	0.095926
	H82	H	0.612550	0.896498	0.091419
	H83	H	0.379824	0.904217	0.906768
	H84	H	0.611483	0.906049	0.099566
	H85	H	0.382478	0.083924	0.099036
	H86	H	0.611458	0.077627	0.909841
	H87	H	0.380518	0.897087	0.911739
	H88	H	0.904005	0.091890	0.621365
	H89	H	0.083605	0.088346	0.388837
	H90	H	0.092910	0.900183	0.622796
	H91	H	0.900509	0.901738	0.384792
	H92	H	0.085893	0.609050	0.918701
	H93	H	0.094755	0.373961	0.102982
	H94	H	0.903799	0.614667	0.102055
	H95	H	0.907388	0.375146	0.902476
	H96	H	0.408219	0.109542	0.590413
	H97	H	0.592437	0.877992	0.590180
	H98	H	0.595840	0.116827	0.405274
	H99	H	0.404716	0.874787	0.407773
	H100	H	0.585281	0.398645	0.120104
	H101	H	0.583364	0.587629	0.888752
	H102	H	0.398273	0.582712	0.120505
	H103	H	0.406747	0.396553	0.885790
	H104	H	0.115260	0.581479	0.395610
	H105	H	0.877671	0.594190	0.603797
	H106	H	0.112074	0.404432	0.595364
	H107	H	0.882685	0.411367	0.408599
	H108	H	0.904160	0.611262	0.091505
	H109	H	0.079353	0.380180	0.096964
	H110	H	0.098710	0.614680	0.912569
	H111	H	0.910887	0.381047	0.917765
	H112	H	0.092996	0.905487	0.621420
	H113	H	0.095866	0.094162	0.383712
	H114	H	0.897793	0.088638	0.622417
	H115	H	0.903756	0.907002	0.387867
	H116	H	0.617020	0.090353	0.903337
	H117	H	0.380108	0.089069	0.101684
	H118	H	0.616327	0.895252	0.103273
	H119	H	0.382887	0.905575	0.915502
	C120	C	0.375866	0.003975	0.625616
	C121	C	0.618199	0.985898	0.624537
	C122	C	0.619257	0.003700	0.382491
	C123	C	0.376490	0.986081	0.383912
	C124	C	0.619109	0.372421	0.012666
	C125	C	0.618060	0.614989	0.995632
	C126	C	0.374390	0.616053	0.012549
	C127	C	0.375018	0.372813	0.995523
	C128	C	0.005024	0.617704	0.381035
	C129	C	0.988630	0.618402	0.626489
	C130	C	0.004851	0.374190	0.625771
	C131	C	0.988285	0.374080	0.381443
	C132	C	0.874066	0.504574	0.125040
	C133	C	0.117272	0.486891	0.123830
	C134	C	0.119095	0.503820	0.881984
	C135	C	0.876171	0.486625	0.883478
	C136	C	0.119730	0.874049	0.513099
	C137	C	0.118646	0.116743	0.495450
	C138	C	0.874298	0.117346	0.512300
	C139	C	0.876125	0.874761	0.495282
	C140	C	0.505898	0.116069	0.882388
	C141	C	0.489113	0.115929	0.126651
	C142	C	0.505644	0.871785	0.126746
	C143	C	0.488876	0.872417	0.882386
	C144	C	0.379107	0.879023	0.680008
	C145	C	0.614951	0.110045	0.679674
	C146	C	0.616520	0.878988	0.328823
	C147	C	0.379458	0.110543	0.329414
	C148	C	0.675115	0.373183	0.889541
	C149	C	0.672344	0.612962	0.119123
	C150	C	0.320680	0.614402	0.888834
	C151	C	0.318593	0.374051	0.118539
	C152	C	0.882222	0.672945	0.385847
	C153	C	0.112075	0.671558	0.621629
	C154	C	0.881647	0.320617	0.622649
	C155	C	0.111220	0.318516	0.384286
	C156	C	0.882270	0.377426	0.681264
	C157	C	0.111245	0.615574	0.680852
	C158	C	0.881920	0.615735	0.327317
	C159	C	0.111045	0.375825	0.325515
	C160	C	0.378650	0.671110	0.888832
	C161	C	0.613514	0.669124	0.119762
	C162	C	0.615901	0.317672	0.888869
	C163	C	0.378362	0.318738	0.119573
	C164	C	0.674808	0.879879	0.384206
	C165	C	0.672014	0.110578	0.622328
	C166	C	0.320627	0.879954	0.623896
	C167	C	0.321632	0.110519	0.385747
	C168	C	0.878126	0.380054	0.179782
	C169	C	0.113807	0.611655	0.178263
	C170	C	0.116533	0.379871	0.826676
	C171	C	0.878317	0.611215	0.829768
	C172	C	0.175923	0.875313	0.389813
	C173	C	0.173588	0.115846	0.618796
	C174	C	0.819768	0.115878	0.389047
	C175	C	0.820245	0.876498	0.618619
	C176	C	0.382851	0.171306	0.886604
	C177	C	0.612084	0.170286	0.122708
	C178	C	0.382229	0.817797	0.124514
	C179	C	0.611802	0.817265	0.885895
	C180	C	0.382867	0.874961	0.183072
	C181	C	0.612373	0.112359	0.180470
	C182	C	0.383364	0.114797	0.827928
	C183	C	0.611524	0.873924	0.826968
	C184	C	0.878848	0.171679	0.388551
	C185	C	0.114079	0.171540	0.619331
	C186	C	0.116375	0.819962	0.388975
	C187	C	0.879780	0.821084	0.619641
	C188	C	0.174577	0.380063	0.883082
	C189	C	0.172326	0.610826	0.122135
	C190	C	0.820815	0.379630	0.123352
	C191	C	0.819954	0.610383	0.885717
	C192	C	0.397801	0.090506	0.603773
	C193	C	0.596769	0.899152	0.602241
	C194	C	0.596724	0.090604	0.404774
	C195	C	0.398275	0.899028	0.406082
	C196	C	0.596938	0.394940	0.098959
	C197	C	0.597401	0.593180	0.909104
	C198	C	0.395502	0.592914	0.098579
	C199	C	0.397664	0.395296	0.909470
	C200	C	0.090797	0.594889	0.402099
	C201	C	0.902641	0.597311	0.605497
	C202	C	0.090645	0.396046	0.603212
	C203	C	0.902523	0.396775	0.403831
	C204	C	0.894932	0.591209	0.103068
	C205	C	0.095379	0.400320	0.101730
	C206	C	0.096746	0.590621	0.904903
	C207	C	0.898445	0.399673	0.905057
	C208	C	0.097737	0.896144	0.599243
	C209	C	0.097804	0.094241	0.409243
	C210	C	0.895361	0.095049	0.598851
	C211	C	0.897558	0.896748	0.408928
	C212	C	0.591566	0.093319	0.904198
	C213	C	0.403454	0.094000	0.105257
	C214	C	0.591350	0.892945	0.104668
	C215	C	0.403130	0.895482	0.904659
	Zn216	Zn	0.497028	-0.005600	0.753453
	Zn217	Zn	0.497438	-0.005834	0.255934
	Zn218	Zn	0.747132	0.493869	0.003974
	Zn219	Zn	0.246558	0.494536	0.003710
	Zn220	Zn	-0.002290	0.746202	0.503890
	Zn221	Zn	-0.003324	0.244766	0.503800
	Zn222	Zn	-0.002918	0.496084	0.755332
	Zn223	Zn	-0.003978	0.495841	0.251711
	Zn224	Zn	0.496149	0.743424	0.004321
	Zn225	Zn	0.497573	0.244611	0.004385
	Zn226	Zn	0.746500	-0.004455	0.503289
	Zn227	Zn	0.247913	-0.004229	0.504363
	N228	N	0.412679	0.957169	0.681438
	N229	N	0.582181	0.031741	0.681256
	N230	N	0.582619	0.957142	0.327623
	N231	N	0.412934	0.032288	0.328324
	N232	N	0.677239	0.406319	0.967571
	N233	N	0.675214	0.579816	0.041107
	N234	N	0.317820	0.580902	0.966850
	N235	N	0.316668	0.407087	0.040437
	N236	N	0.959810	0.674400	0.418472
	N237	N	0.034926	0.673165	0.588268
	N238	N	0.958974	0.318428	0.588690
	N239	N	0.033885	0.317267	0.418086
	N240	N	0.959839	0.410068	0.683265
	N241	N	0.033413	0.583314	0.684155
	N242	N	0.959248	0.582128	0.324249
	N243	N	0.033590	0.409742	0.323767
	N244	N	0.410987	0.672308	0.966702
	N245	N	0.580362	0.670313	0.042041
	N246	N	0.581743	0.317222	0.966445
	N247	N	0.412940	0.317844	0.042159
	N248	N	0.676550	0.958408	0.416957
	N249	N	0.674332	0.032212	0.588754
	N250	N	0.318501	0.958340	0.591022
	N251	N	0.319831	0.032143	0.419128
	N252	N	0.910504	0.458589	0.181314
	N253	N	0.080211	0.533713	0.179449
	N254	N	0.083045	0.458344	0.825803
	N255	N	0.912758	0.533540	0.828572
	N256	N	0.178082	0.908167	0.467975
	N257	N	0.176519	0.082671	0.540771
	N258	N	0.817077	0.082711	0.467000
	N259	N	0.817636	0.909104	0.540339
	N260	N	0.460246	0.172129	0.919833
	N261	N	0.534668	0.172716	0.090125
	N262	N	0.459401	0.815662	0.090310
	N263	N	0.534445	0.816413	0.919746
	N264	N	0.460391	0.907806	0.184574
	N265	N	0.534732	0.079409	0.183149
	N266	N	0.460628	0.080974	0.825401
	N267	N	0.534057	0.907623	0.824825
	N268	N	0.911813	0.172809	0.466351
	N269	N	0.080697	0.172187	0.541806
	N270	N	0.082274	0.818837	0.466542
	N271	N	0.913703	0.819583	0.542017
	N272	N	0.176062	0.458038	0.916939
	N273	N	0.174479	0.532291	0.089035
	N274	N	0.818201	0.457791	0.089919
	N275	N	0.818396	0.531718	0.918485
	O276	O	1.026059	0.973892	0.010300
	H277	H	1.028429	0.967821	0.015202
	H278	H	1.017417	0.976636	0.013415
	O279	O	0.011368	0.012811	0.004671
	H280	H	0.022787	0.011383	0.007943
	H281	H	0.000778	0.018720	0.000354
	O282	O	0.036037	-0.036810	0.997412
	H283	H	0.033244	-0.040070	0.996004
	H284	H	0.036573	-0.039434	0.988639
	O285	O	1.024482	1.034039	-0.118265
	H286	H	1.037801	1.034261	-0.113084
	H287	H	1.021386	1.031190	-0.130045
	O288	O	0.464496	0.525417	0.487480
	H289	H	0.462863	0.529768	0.490987
	H290	H	0.470461	0.527118	0.494374
	O291	O	0.474214	0.443434	0.520240
	H292	H	0.481343	0.434540	0.513449
	H293	H	0.470249	0.436220	0.504446
	O294	O	-0.003548	-0.066942	0.011315
	H295	H	-0.001657	-0.075511	0.016200
	H296	H	-0.010263	-0.064121	0.013536
	O297	O	0.481283	0.498618	0.492044
	H298	H	0.488078	0.496544	0.490410
	H299	H	0.478539	0.490205	0.490478
	O300	O	0.012483	0.987985	0.992291
	H301	H	0.015596	0.988171	1.002453
	H302	H	0.010264	0.985598	0.991354
	O303	O	0.516129	0.490963	0.454670
	H304	H	0.515434	0.496843	0.459901
	H305	H	0.516832	0.492860	0.450332
	O306	O	0.010983	-0.027710	0.997436
	H307	H	0.009632	-0.031856	0.995663
	H308	H	0.008045	-0.020721	0.994413
	O309	O	1.035570	1.037688	0.977886
	H310	H	1.035329	1.035124	0.977947
	H311	H	1.047470	1.035727	0.975141
	O312	O	0.493916	0.455682	0.478375
	H313	H	0.494568	0.465606	0.481517
	H314	H	0.484121	0.450239	0.466962
	O315	O	0.506299	0.510755	0.459824
	H316	H	0.503487	0.510018	0.462521
	H317	H	0.502304	0.516858	0.460586
	O318	O	-0.013663	1.035883	0.042663
	H319	H	-0.010011	1.033550	0.042028
	H320	H	-0.019085	1.046931	0.044764
	O321	O	1.040374	1.024620	0.028554
	H322	H	1.031962	1.026739	0.022888
	H323	H	1.046463	1.023248	0.018262
