data_Molecule from HDF5

_cell_length_a		16.352518
_cell_length_b		16.397061
_cell_length_c		16.070991
_cell_angle_alpha	89.913027
_cell_angle_beta	90.299979
_cell_angle_gamma	90.138949
_symmetry_space_group_name_H-M	'P 1'
_symmetry_Int_Tables_number		1

loop_
	_symmetry_equiv_pos_as_xyz
	x,y,z

loop_
	_atom_site_label
	_atom_site_type_symbol
	_atom_site_fract_x
	_atom_site_fract_y
	_atom_site_fract_z
	H0	H	0.400421	0.832069	0.713141
	H1	H	0.600891	0.155742	0.711390
	H2	H	0.599505	0.831482	0.279751
	H3	H	0.398869	0.153955	0.275916
	H4	H	0.716089	0.394220	0.829828
	H5	H	0.718856	0.597371	0.157033
	H6	H	0.284671	0.595916	0.829472
	H7	H	0.282857	0.391762	0.157310
	H8	H	0.840631	0.714406	0.387469
	H9	H	0.160395	0.712063	0.600794
	H10	H	0.839247	0.273513	0.598806
	H11	H	0.158769	0.271798	0.389285
	H12	H	0.837951	0.394279	0.708536
	H13	H	0.163458	0.590360	0.707646
	H14	H	0.838301	0.594243	0.276091
	H15	H	0.162040	0.392621	0.278783
	H16	H	0.399709	0.711466	0.830918
	H17	H	0.605343	0.710381	0.158494
	H18	H	0.602767	0.277051	0.831005
	H19	H	0.397338	0.276129	0.156967
	H20	H	0.719842	0.833457	0.391412
	H21	H	0.723517	0.152846	0.603538
	H22	H	0.279924	0.833461	0.601013
	H23	H	0.279989	0.152466	0.389184
	H24	H	0.899560	0.332185	0.210424
	H25	H	0.101458	0.655877	0.211389
	H26	H	0.096603	0.331691	0.782272
	H27	H	0.902605	0.656548	0.777650
	H28	H	0.217827	0.888369	0.332511
	H29	H	0.217530	0.093793	0.659067
	H30	H	0.782415	0.093789	0.332272
	H31	H	0.784312	0.890598	0.660309
	H32	H	0.340728	0.214056	0.888160
	H33	H	0.661037	0.215797	0.101468
	H34	H	0.341358	0.773285	0.098798
	H35	H	0.663232	0.776661	0.892979
	H36	H	0.339142	0.891736	0.209430
	H37	H	0.663249	0.093056	0.211663
	H38	H	0.339078	0.094680	0.777423
	H39	H	0.664096	0.897115	0.782332
	H40	H	0.893661	0.211085	0.333009
	H41	H	0.101586	0.208535	0.659173
	H42	H	0.102117	0.774609	0.332569
	H43	H	0.899754	0.775289	0.659761
	H44	H	0.219805	0.334975	0.888057
	H45	H	0.218666	0.655585	0.095815
	H46	H	0.778615	0.335725	0.099341
	H47	H	0.784347	0.656924	0.891398
	H48	H	0.403344	0.109742	0.584195
	H49	H	0.593927	0.877813	0.589247
	H50	H	0.591563	0.109241	0.400605
	H51	H	0.404008	0.876942	0.404385
	H52	H	0.586879	0.408357	0.108605
	H53	H	0.590473	0.593116	0.874155
	H54	H	0.409101	0.586153	0.112402
	H55	H	0.406211	0.404995	0.875715
	H56	H	0.116978	0.583447	0.398182
	H57	H	0.883256	0.585837	0.587644
	H58	H	0.116540	0.400936	0.591247
	H59	H	0.886475	0.402015	0.406718
	H60	H	0.117053	0.394235	0.585621
	H61	H	0.884855	0.587317	0.579818
	H62	H	0.116166	0.592300	0.407987
	H63	H	0.884874	0.402414	0.401302
	H64	H	0.407995	0.583738	0.111906
	H65	H	0.597488	0.584048	0.875174
	H66	H	0.588782	0.402050	0.111157
	H67	H	0.411917	0.407124	0.879005
	H68	H	0.587234	0.105298	0.407606
	H69	H	0.590614	0.879987	0.586638
	H70	H	0.412310	0.107838	0.588333
	H71	H	0.410100	0.878482	0.401640
	H72	H	0.904277	0.613120	0.089603
	H73	H	0.092859	0.381424	0.078534
	H74	H	0.094058	0.611850	0.897921
	H75	H	0.902831	0.379598	0.905545
	H76	H	0.089847	0.905593	0.610815
	H77	H	0.089680	0.082940	0.377810
	H78	H	0.910901	0.084461	0.613021
	H79	H	0.904189	0.900297	0.376795
	H80	H	0.617259	0.092965	0.908305
	H81	H	0.388184	0.082824	0.081116
	H82	H	0.617042	0.899664	0.085805
	H83	H	0.382354	0.896971	0.896884
	H84	H	0.616313	0.903643	0.085146
	H85	H	0.385150	0.085220	0.086228
	H86	H	0.613318	0.083627	0.908683
	H87	H	0.387663	0.896269	0.915912
	H88	H	0.910506	0.081450	0.613102
	H89	H	0.088945	0.082349	0.377946
	H90	H	0.088298	0.900061	0.612286
	H91	H	0.910284	0.909276	0.382086
	H92	H	0.090608	0.609317	0.902927
	H93	H	0.095886	0.378007	0.087533
	H94	H	0.918600	0.607247	0.086591
	H95	H	0.906035	0.377733	0.899559
	H96	H	0.410915	0.105399	0.578676
	H97	H	0.594713	0.879018	0.584329
	H98	H	0.595942	0.108405	0.408873
	H99	H	0.409923	0.879888	0.407928
	H100	H	0.593425	0.407688	0.111008
	H101	H	0.586551	0.583728	0.878832
	H102	H	0.411161	0.584552	0.111493
	H103	H	0.411310	0.399966	0.876096
	H104	H	0.112045	0.579796	0.409984
	H105	H	0.886765	0.579875	0.583251
	H106	H	0.113885	0.401931	0.582995
	H107	H	0.884175	0.397558	0.404172
	H108	H	0.907276	0.606712	0.075915
	H109	H	0.086632	0.381241	0.085719
	H110	H	0.097005	0.610957	0.903519
	H111	H	0.909579	0.381437	0.903995
	H112	H	0.094028	0.901980	0.613914
	H113	H	0.089311	0.083638	0.378386
	H114	H	0.912894	0.082629	0.612256
	H115	H	0.915046	0.898601	0.379916
	H116	H	0.617690	0.086806	0.899763
	H117	H	0.385509	0.088340	0.081844
	H118	H	0.617465	0.901517	0.089565
	H119	H	0.389656	0.911902	0.905842
	C120	C	0.378674	0.001664	0.616381
	C121	C	0.623765	0.985074	0.617809
	C122	C	0.621617	0.001525	0.374655
	C123	C	0.377375	0.984106	0.372355
	C124	C	0.620705	0.374979	0.002341
	C125	C	0.622238	0.616206	0.984928
	C126	C	0.379913	0.615221	0.003189
	C127	C	0.378819	0.372974	0.984903
	C128	C	0.008700	0.615448	0.373298
	C129	C	0.991588	0.613967	0.615200
	C130	C	0.008741	0.370213	0.616506
	C131	C	0.991272	0.370186	0.372719
	C132	C	0.878693	0.503051	0.115443
	C133	C	0.122649	0.486291	0.115460
	C134	C	0.122366	0.503626	0.872007
	C135	C	0.877510	0.486188	0.871766
	C136	C	0.121300	0.871473	0.504397
	C137	C	0.120267	0.113184	0.486497
	C138	C	0.879114	0.113669	0.504847
	C139	C	0.878923	0.871522	0.487413
	C140	C	0.509520	0.117311	0.873309
	C141	C	0.492377	0.116193	0.116090
	C142	C	0.510221	0.871060	0.116810
	C143	C	0.493218	0.872583	0.875084
	C144	C	0.380077	0.880648	0.674801
	C145	C	0.621960	0.107015	0.674167
	C146	C	0.620295	0.880217	0.317455
	C147	C	0.378834	0.105399	0.314659
	C148	C	0.677677	0.374841	0.879198
	C149	C	0.680075	0.616114	0.108427
	C150	C	0.323340	0.615139	0.878955
	C151	C	0.321231	0.372747	0.108173
	C152	C	0.888196	0.674152	0.370157
	C153	C	0.112720	0.672270	0.617930
	C154	C	0.887595	0.312737	0.617122
	C155	C	0.111410	0.311952	0.371586
	C156	C	0.886715	0.372933	0.671849
	C157	C	0.114337	0.611543	0.671027
	C158	C	0.887124	0.614411	0.314630
	C159	C	0.112932	0.371852	0.316308
	C160	C	0.380649	0.672474	0.879696
	C161	C	0.623434	0.672520	0.108971
	C162	C	0.621421	0.316358	0.879793
	C163	C	0.378377	0.315232	0.108083
	C164	C	0.680105	0.881127	0.373206
	C165	C	0.682711	0.105506	0.619932
	C166	C	0.320276	0.881190	0.618730
	C167	C	0.319593	0.104787	0.370885
	C168	C	0.878975	0.381231	0.172678
	C169	C	0.121433	0.607401	0.172852
	C170	C	0.118466	0.380920	0.818133
	C171	C	0.881076	0.607869	0.815024
	C172	C	0.178621	0.870396	0.381258
	C173	C	0.178583	0.113068	0.609922
	C174	C	0.820550	0.113527	0.381535
	C175	C	0.823063	0.871921	0.611176
	C176	C	0.388685	0.174928	0.870490
	C177	C	0.613263	0.175275	0.118925
	C178	C	0.389357	0.812658	0.117308
	C179	C	0.614657	0.815794	0.874336
	C180	C	0.388108	0.871888	0.172300
	C181	C	0.614527	0.114075	0.173622
	C182	C	0.387623	0.115325	0.815463
	C183	C	0.615289	0.875714	0.819163
	C184	C	0.876562	0.171298	0.381552
	C185	C	0.121227	0.170481	0.609789
	C186	C	0.121248	0.813552	0.381460
	C187	C	0.879903	0.813980	0.610842
	C188	C	0.179884	0.382754	0.870901
	C189	C	0.180015	0.607351	0.115505
	C190	C	0.819082	0.382822	0.117115
	C191	C	0.822353	0.608217	0.871901
	C192	C	0.402081	0.085923	0.591188
	C193	C	0.600037	0.900771	0.593815
	C194	C	0.598440	0.085772	0.398802
	C195	C	0.401081	0.900256	0.397334
	C196	C	0.596609	0.398932	0.087964
	C197	C	0.598324	0.593566	0.898468
	C198	C	0.402750	0.591650	0.089433
	C199	C	0.402753	0.397019	0.899357
	C200	C	0.093001	0.591956	0.398184
	C201	C	0.907003	0.591037	0.590702
	C202	C	0.093780	0.392483	0.593399
	C203	C	0.906872	0.393802	0.397017
	C204	C	0.902877	0.587183	0.091081
	C205	C	0.098859	0.401995	0.091107
	C206	C	0.100172	0.588609	0.894623
	C207	C	0.899565	0.401523	0.895943
	C208	C	0.097625	0.895578	0.590069
	C209	C	0.096063	0.089812	0.400415
	C210	C	0.903998	0.089830	0.590463
	C211	C	0.902774	0.895666	0.401797
	C212	C	0.594029	0.094404	0.898372
	C213	C	0.408207	0.092618	0.090595
	C214	C	0.595043	0.894706	0.093391
	C215	C	0.408510	0.895114	0.899105
	Zn216	Zn	0.501295	-0.005813	0.745984
	Zn217	Zn	0.500723	-0.007045	0.244366
	Zn218	Zn	0.748810	0.495842	-0.005900
	Zn219	Zn	0.251582	0.494582	-0.006990
	Zn220	Zn	0.000378	0.743545	0.495805
	Zn221	Zn	-0.000537	0.241242	0.494805
	Zn222	Zn	0.000886	0.493733	0.743629
	Zn223	Zn	0.000423	0.493155	0.244659
	Zn224	Zn	0.502057	0.742333	-0.004334
	Zn225	Zn	0.500776	0.245832	-0.005681
	Zn226	Zn	0.751661	-0.006365	0.496329
	Zn227	Zn	0.248524	-0.007281	0.494530
	N228	N	0.415730	0.956667	0.673525
	N229	N	0.585880	0.031288	0.673047
	N230	N	0.584763	0.956078	0.318182
	N231	N	0.413763	0.029362	0.315306
	N232	N	0.677230	0.410672	0.956397
	N233	N	0.679322	0.581795	0.030472
	N234	N	0.322761	0.580222	0.956780
	N235	N	0.321256	0.407874	0.030360
	N236	N	0.964792	0.675080	0.405741
	N237	N	0.035606	0.673649	0.583825
	N238	N	0.964448	0.311036	0.583258
	N239	N	0.034587	0.311029	0.406058
	N240	N	0.963153	0.407869	0.671808
	N241	N	0.038096	0.575807	0.669542
	N242	N	0.963012	0.578471	0.316386
	N243	N	0.037105	0.407446	0.316881
	N244	N	0.415202	0.672620	0.957905
	N245	N	0.587883	0.672565	0.031160
	N246	N	0.586380	0.316549	0.957471
	N247	N	0.413251	0.315081	0.030501
	N248	N	0.681259	0.957554	0.408095
	N249	N	0.683797	0.028762	0.585646
	N250	N	0.319339	0.957393	0.583068
	N251	N	0.318510	0.028346	0.406203
	N252	N	0.915343	0.456821	0.171825
	N253	N	0.086580	0.530894	0.172956
	N254	N	0.083268	0.457005	0.818647
	N255	N	0.914628	0.531036	0.814827
	N256	N	0.178801	0.905960	0.458718
	N257	N	0.178358	0.078503	0.532023
	N258	N	0.821976	0.078779	0.459179
	N259	N	0.822156	0.906704	0.533324
	N260	N	0.465573	0.176356	0.905473
	N261	N	0.536319	0.176760	0.083935
	N262	N	0.466448	0.811747	0.083945
	N263	N	0.537774	0.813778	0.908399
	N264	N	0.464302	0.907629	0.172069
	N265	N	0.538299	0.078331	0.172226
	N266	N	0.463861	0.080249	0.816913
	N267	N	0.538720	0.910586	0.819444
	N268	N	0.912238	0.171656	0.459344
	N269	N	0.085912	0.170702	0.532008
	N270	N	0.086423	0.814068	0.459013
	N271	N	0.913966	0.813577	0.532737
	N272	N	0.182239	0.459889	0.904095
	N273	N	0.180883	0.530975	0.080495
	N274	N	0.818899	0.459599	0.082162
	N275	N	0.819905	0.531456	0.906304
	O276	O	-0.012342	0.119425	-0.080590
	H277	H	-0.029606	0.131172	-0.090491
	H278	H	-0.027833	0.115930	-0.077809
	O279	O	1.174204	0.140495	1.143101
	H280	H	1.176292	0.143080	1.135032
	H281	H	1.184075	0.150659	1.148822
	O282	O	0.976798	0.031317	-0.094096
	H283	H	0.977518	0.021872	-0.097400
	H284	H	0.969502	0.047660	-0.069500
	O285	O	-0.134404	0.928616	0.039935
	H286	H	-0.136688	0.949617	0.033415
	H287	H	-0.133952	0.923963	0.052147
	O288	O	0.419893	0.458909	0.648762
	H289	H	0.435658	0.481521	0.648897
	H290	H	0.437542	0.457463	0.653663
	O291	O	0.521945	0.660728	0.390418
	H292	H	0.521774	0.664341	0.378049
	H293	H	0.520774	0.659839	0.387369
	O294	O	0.990813	1.037662	1.039083
	H295	H	0.992611	1.041828	1.032008
	H296	H	0.998648	1.034921	1.041125
	O297	O	0.113740	-0.077778	-0.038878
	H298	H	0.106427	-0.084269	-0.037477
	H299	H	0.111735	-0.095296	-0.046688
	O300	O	0.462747	0.396808	0.550868
	H301	H	0.461715	0.405546	0.562963
	H302	H	0.465726	0.400740	0.558564
	O303	O	-0.096627	1.058890	1.029053
	H304	H	-0.085703	1.059915	1.024313
	H305	H	-0.088620	1.063981	1.035072
	O306	O	0.370083	0.527537	0.383917
	H307	H	0.372915	0.512422	0.380330
	H308	H	0.356496	0.520510	0.393978
	O309	O	0.903609	0.156148	0.025483
	H310	H	0.919429	0.153869	0.019556
	H311	H	0.911162	0.165062	0.038391
	O312	O	0.172732	0.056112	1.070826
	H313	H	0.180072	0.072159	1.069610
	H314	H	0.184424	0.066398	1.084047
	O315	O	0.431097	0.672309	0.330109
	H316	H	0.429537	0.643685	0.325260
	H317	H	0.429319	0.680436	0.320165
	O318	O	0.453185	0.492028	0.594574
	H319	H	0.452677	0.489807	0.601086
	H320	H	0.469615	0.492810	0.589031
	O321	O	0.654811	0.587117	0.390587
	H322	H	0.648078	0.583152	0.392173
	H323	H	0.653237	0.588536	0.393703
	O324	O	0.394138	0.365037	0.417232
	H325	H	0.383768	0.346557	0.430110
	H326	H	0.395463	0.378933	0.429065
	O327	O	0.063052	1.096515	1.105865
	H328	H	0.081516	1.093448	1.095568
	H329	H	0.072543	1.110116	1.128844
	O330	O	0.395371	0.568871	0.492944
	H331	H	0.388754	0.548344	0.496824
	H332	H	0.409294	0.574228	0.495483
	O333	O	-0.159423	1.098378	0.975553
	H334	H	-0.143051	1.095507	0.982562
	H335	H	-0.175424	1.106521	0.985229
	O336	O	1.068276	0.851094	0.903688
	H337	H	1.067400	0.851813	0.899088
	H338	H	1.066254	0.857914	0.913363
	O339	O	0.360981	0.573027	0.516790
	H340	H	0.369674	0.590893	0.519080
	H341	H	0.369310	0.576835	0.521045
	O342	O	1.098004	0.055743	-0.094397
	H343	H	1.090380	0.045223	-0.100006
	H344	H	1.098833	0.046872	-0.094353
	O345	O	0.473427	0.304392	0.657995
	H346	H	0.465783	0.292267	0.682643
	H347	H	0.479039	0.328744	0.660442
	O348	O	1.121976	0.986644	1.041982
	H349	H	1.126380	0.983835	1.043048
	H350	H	1.117717	0.984591	1.044224
	O351	O	0.896910	0.974611	0.056236
	H352	H	0.906044	0.976823	0.056554
	H353	H	0.886310	0.974574	0.063574
	O354	O	0.645352	0.299584	0.491906
	H355	H	0.649330	0.285552	0.486109
	H356	H	0.629587	0.283443	0.494345
	O357	O	0.677763	0.500368	0.495867
	H358	H	0.681010	0.517920	0.497599
	H359	H	0.676477	0.505404	0.505713
	O360	O	-0.489157	0.381021	-0.452792
	H361	H	-0.502629	0.371653	-0.452184
	H362	H	-0.484835	0.371809	-0.450233
	O363	O	0.524403	0.577916	0.587115
	H364	H	0.521596	0.572927	0.573726
	H365	H	0.530223	0.577057	0.592358
	O366	O	0.460072	0.509940	0.331947
	H367	H	0.459323	0.507490	0.331286
	H368	H	0.455565	0.516619	0.327521
	O369	O	0.550562	0.481308	0.594185
	H370	H	0.560656	0.486987	0.589272
	H371	H	0.547463	0.471826	0.567622
	O372	O	0.444927	0.292344	0.412070
	H373	H	0.454668	0.286552	0.410654
	H374	H	0.435842	0.279675	0.411745
	O375	O	0.563200	0.568731	0.439307
	H376	H	0.561897	0.575736	0.438170
	H377	H	0.579999	0.554275	0.439174
	O378	O	0.672639	0.472450	0.514198
	H379	H	0.682202	0.489027	0.516942
	H380	H	0.663584	0.472267	0.511366
	O381	O	0.641907	0.323504	0.318933
	H382	H	0.646794	0.333661	0.322661
	H383	H	0.641271	0.310451	0.320418
	O384	O	-0.079291	0.899541	0.068063
	H385	H	-0.074299	0.893655	0.065980
	H386	H	-0.075777	0.912876	0.055760
	O387	O	1.055959	-0.001225	1.118144
	H388	H	1.054190	-0.005376	1.113493
	H389	H	1.050982	-0.000789	1.117099
	O390	O	-0.608141	0.479668	0.532199
	H391	H	-0.620336	0.502716	0.533764
	H392	H	-0.593851	0.498639	0.531172
	O393	O	0.933609	0.940677	0.005159
	H394	H	0.956564	0.947959	0.006576
	H395	H	0.934005	0.950871	0.003823
	O396	O	0.646936	0.665516	0.560497
	H397	H	0.648997	0.657784	0.569816
	H398	H	0.648043	0.664858	0.554405
	O399	O	0.044000	0.978309	1.021875
	H400	H	0.030960	0.977791	1.015430
	H401	H	0.037772	0.961232	1.022278
	O402	O	1.012168	0.931953	0.877028
	H403	H	1.023840	0.926026	0.887944
	H404	H	0.994183	0.919074	0.868645
	O405	O	0.364836	1.602533	0.475731
	H406	H	0.369359	1.592549	0.466015
	H407	H	0.349029	1.604119	0.466646
