data_Molecule from HDF5

_cell_length_a		16.316144
_cell_length_b		16.256816
_cell_length_c		16.235438
_cell_angle_alpha	90.015624
_cell_angle_beta	89.944402
_cell_angle_gamma	90.224346
_symmetry_space_group_name_H-M	'P 1'
_symmetry_Int_Tables_number		1

loop_
	_symmetry_equiv_pos_as_xyz
	x,y,z

loop_
	_atom_site_label
	_atom_site_type_symbol
	_atom_site_fract_x
	_atom_site_fract_y
	_atom_site_fract_z
	H0	H	0.396768	0.833935	0.710673
	H1	H	0.599968	0.159403	0.711546
	H2	H	0.600212	0.833489	0.278639
	H3	H	0.401022	0.159804	0.278768
	H4	H	0.716077	0.391860	0.832634
	H5	H	0.713899	0.593856	0.157798
	H6	H	0.281781	0.597505	0.832146
	H7	H	0.278419	0.389850	0.156717
	H8	H	0.836517	0.714268	0.392713
	H9	H	0.160163	0.717730	0.597079
	H10	H	0.837495	0.277412	0.599568
	H11	H	0.160952	0.279394	0.392504
	H12	H	0.836025	0.396885	0.711402
	H13	H	0.161233	0.600563	0.712975
	H14	H	0.836467	0.598062	0.277824
	H15	H	0.160376	0.394295	0.276242
	H16	H	0.398832	0.711438	0.831921
	H17	H	0.603547	0.712725	0.156070
	H18	H	0.597030	0.282329	0.830760
	H19	H	0.399337	0.280395	0.159309
	H20	H	0.715079	0.834084	0.394155
	H21	H	0.715017	0.159531	0.596976
	H22	H	0.279814	0.835861	0.596854
	H23	H	0.283845	0.159808	0.392025
	H24	H	0.898777	0.333411	0.212739
	H25	H	0.101160	0.659862	0.211009
	H26	H	0.099917	0.335068	0.777487
	H27	H	0.899295	0.659939	0.781381
	H28	H	0.213753	0.897552	0.330915
	H29	H	0.217390	0.100107	0.657052
	H30	H	0.782675	0.099129	0.332204
	H31	H	0.780572	0.896002	0.657240
	H32	H	0.336340	0.211456	0.893910
	H33	H	0.662390	0.211622	0.094041
	H34	H	0.337084	0.776904	0.095422
	H35	H	0.661583	0.778043	0.890795
	H36	H	0.335974	0.895742	0.209382
	H37	H	0.662981	0.094218	0.208390
	H38	H	0.335820	0.095458	0.779009
	H39	H	0.660501	0.894362	0.774958
	H40	H	0.901685	0.211029	0.331333
	H41	H	0.100207	0.213694	0.658404
	H42	H	0.099107	0.781035	0.331704
	H43	H	0.896164	0.781888	0.657561
	H44	H	0.212634	0.333231	0.893526
	H45	H	0.219512	0.656651	0.099010
	H46	H	0.781841	0.332338	0.096851
	H47	H	0.780931	0.657409	0.893457
	H48	H	0.408685	0.111446	0.584063
	H49	H	0.597143	0.877049	0.588737
	H50	H	0.595341	0.114697	0.400267
	H51	H	0.408780	0.880121	0.399627
	H52	H	0.590827	0.395577	0.114548
	H53	H	0.596479	0.585483	0.876647
	H54	H	0.405353	0.578420	0.108226
	H55	H	0.399971	0.412465	0.880328
	H56	H	0.116196	0.588796	0.397523
	H57	H	0.882734	0.588035	0.589975
	H58	H	0.115896	0.405148	0.593096
	H59	H	0.882057	0.406591	0.399873
	H60	H	0.114687	0.401078	0.580787
	H61	H	0.881821	0.591279	0.588804
	H62	H	0.114735	0.596118	0.408243
	H63	H	0.882947	0.400186	0.407261
	H64	H	0.414950	0.584285	0.108278
	H65	H	0.588003	0.580543	0.879652
	H66	H	0.597521	0.407099	0.112139
	H67	H	0.416229	0.402005	0.882253
	H68	H	0.587084	0.113269	0.398027
	H69	H	0.579746	0.882557	0.588931
	H70	H	0.405088	0.114744	0.586554
	H71	H	0.406674	0.881115	0.406855
	H72	H	0.898970	0.614158	0.086936
	H73	H	0.098459	0.378851	0.079372
	H74	H	0.095745	0.617227	0.898124
	H75	H	0.903228	0.378757	0.904950
	H76	H	0.074326	0.910224	0.605199
	H77	H	0.090312	0.080208	0.382080
	H78	H	0.900700	0.086252	0.612517
	H79	H	0.898640	0.906211	0.375243
	H80	H	0.615704	0.090769	0.900207
	H81	H	0.383273	0.090938	0.085880
	H82	H	0.616684	0.898611	0.086180
	H83	H	0.380031	0.900462	0.892797
	H84	H	0.614121	0.905022	0.083201
	H85	H	0.384643	0.085297	0.085564
	H86	H	0.613667	0.089890	0.906691
	H87	H	0.384985	0.893021	0.913690
	H88	H	0.910072	0.084637	0.609399
	H89	H	0.084205	0.094824	0.379393
	H90	H	0.095338	0.893276	0.616334
	H91	H	0.909495	0.913149	0.381394
	H92	H	0.084315	0.611544	0.903648
	H93	H	0.086907	0.377365	0.097352
	H94	H	0.911729	0.612090	0.092692
	H95	H	0.908367	0.379488	0.899408
	H96	H	0.409215	0.114009	0.589173
	H97	H	0.589650	0.883939	0.574490
	H98	H	0.590127	0.110766	0.406648
	H99	H	0.400821	0.879253	0.401657
	H100	H	0.585187	0.406584	0.108337
	H101	H	0.587223	0.590996	0.876924
	H102	H	0.405812	0.588914	0.112177
	H103	H	0.400419	0.393980	0.874491
	H104	H	0.110491	0.584497	0.408090
	H105	H	0.884144	0.589012	0.586911
	H106	H	0.111251	0.413133	0.584426
	H107	H	0.886178	0.409180	0.408553
	H108	H	0.909696	0.608085	0.078947
	H109	H	0.078594	0.385938	0.080385
	H110	H	0.095617	0.611881	0.912021
	H111	H	0.910412	0.381367	0.906602
	H112	H	0.099777	0.920513	0.609977
	H113	H	0.098915	0.091475	0.375427
	H114	H	0.907187	0.094186	0.613357
	H115	H	0.910821	0.899679	0.377216
	H116	H	0.613853	0.084295	0.901950
	H117	H	0.381498	0.087658	0.090023
	H118	H	0.615693	0.904750	0.090912
	H119	H	0.389067	0.915135	0.907534
	C120	C	0.377252	0.005678	0.616188
	C121	C	0.619631	0.988156	0.615504
	C122	C	0.620459	0.005175	0.372789
	C123	C	0.377214	0.988261	0.372707
	C124	C	0.620241	0.373893	0.003562
	C125	C	0.621057	0.615969	0.985185
	C126	C	0.378518	0.614846	0.002853
	C127	C	0.375845	0.372579	0.986652
	C128	C	0.006737	0.619169	0.373934
	C129	C	0.990022	0.620514	0.618241
	C130	C	0.007349	0.375423	0.617517
	C131	C	0.990676	0.375163	0.374243
	C132	C	0.876682	0.504274	0.117139
	C133	C	0.119814	0.487541	0.116559
	C134	C	0.120828	0.505788	0.873639
	C135	C	0.877637	0.487578	0.874280
	C136	C	0.119421	0.877466	0.503008
	C137	C	0.121495	0.119665	0.486184
	C138	C	0.877221	0.118440	0.503782
	C139	C	0.876122	0.876114	0.486019
	C140	C	0.506937	0.117195	0.873399
	C141	C	0.490839	0.117692	0.116280
	C142	C	0.508005	0.872771	0.116403
	C143	C	0.491336	0.872953	0.872789
	C144	C	0.377267	0.882951	0.672598
	C145	C	0.619211	0.110757	0.672961
	C146	C	0.619755	0.882427	0.316675
	C147	C	0.380011	0.110818	0.316344
	C148	C	0.677111	0.373559	0.880970
	C149	C	0.677095	0.614641	0.108270
	C150	C	0.320694	0.616076	0.880672
	C151	C	0.318346	0.372291	0.108552
	C152	C	0.884971	0.675634	0.373674
	C153	C	0.111800	0.678697	0.616903
	C154	C	0.885955	0.316727	0.618281
	C155	C	0.112395	0.317968	0.373603
	C156	C	0.885192	0.376357	0.673997
	C157	C	0.112468	0.620277	0.674478
	C158	C	0.884899	0.617530	0.316545
	C159	C	0.111961	0.375236	0.315503
	C160	C	0.379044	0.672650	0.880530
	C161	C	0.621695	0.673463	0.107703
	C162	C	0.617863	0.318818	0.880223
	C163	C	0.378017	0.316868	0.109507
	C164	C	0.676849	0.882827	0.374132
	C165	C	0.676814	0.110804	0.616016
	C166	C	0.319013	0.883843	0.615936
	C167	C	0.322123	0.110925	0.373237
	C168	C	0.878045	0.381887	0.174365
	C169	C	0.120537	0.610392	0.173266
	C170	C	0.119224	0.383387	0.816343
	C171	C	0.879198	0.610820	0.819244
	C172	C	0.175730	0.877830	0.379930
	C173	C	0.178732	0.119416	0.608525
	C174	C	0.821025	0.118388	0.380939
	C175	C	0.819496	0.876904	0.608561
	C176	C	0.384919	0.173213	0.874459
	C177	C	0.613514	0.173725	0.114361
	C178	C	0.385777	0.815515	0.115344
	C179	C	0.612954	0.816210	0.871782
	C180	C	0.385016	0.874949	0.171856
	C181	C	0.613887	0.115028	0.170922
	C182	C	0.384661	0.115493	0.817117
	C183	C	0.612329	0.874528	0.814239
	C184	C	0.880233	0.174136	0.380648
	C185	C	0.120386	0.175941	0.609235
	C186	C	0.118395	0.820255	0.380302
	C187	C	0.876851	0.819888	0.608694
	C188	C	0.175801	0.382686	0.873513
	C189	C	0.179219	0.608910	0.117261
	C190	C	0.820041	0.381380	0.116788
	C191	C	0.820083	0.609264	0.874648
	C192	C	0.400743	0.091033	0.593175
	C193	C	0.595908	0.903199	0.591142
	C194	C	0.597519	0.090729	0.395104
	C195	C	0.399062	0.902376	0.396069
	C196	C	0.597687	0.396588	0.089445
	C197	C	0.597496	0.592441	0.899956
	C198	C	0.401794	0.590856	0.087517
	C199	C	0.398779	0.396181	0.900945
	C200	C	0.091734	0.596425	0.397731
	C201	C	0.905018	0.596680	0.595282
	C202	C	0.092026	0.399488	0.593338
	C203	C	0.905750	0.398404	0.398392
	C204	C	0.899931	0.589487	0.093256
	C205	C	0.095145	0.402853	0.092656
	C206	C	0.098397	0.591375	0.897563
	C207	C	0.900828	0.402055	0.897000
	C208	C	0.096514	0.901167	0.588203
	C209	C	0.098034	0.095878	0.401191
	C210	C	0.899419	0.095101	0.589562
	C211	C	0.899467	0.899471	0.400231
	C212	C	0.592334	0.094803	0.896292
	C213	C	0.405410	0.094613	0.093778
	C214	C	0.593261	0.895997	0.093586
	C215	C	0.406613	0.896079	0.897561
	Zn216	Zn	0.498541	-0.003802	0.744143
	Zn217	Zn	0.499064	-0.004493	0.244862
	Zn218	Zn	0.748315	0.494652	-0.005542
	Zn219	Zn	0.247854	0.495236	-0.005200
	Zn220	Zn	-0.002264	0.748869	0.494726
	Zn221	Zn	-0.000791	0.246858	0.495551
	Zn222	Zn	-0.000586	0.497442	0.746537
	Zn223	Zn	-0.001086	0.496925	0.245511
	Zn224	Zn	0.500173	0.743801	-0.005639
	Zn225	Zn	0.499356	0.246311	-0.005516
	Zn226	Zn	0.748077	-0.002491	0.494468
	Zn227	Zn	0.249090	-0.002287	0.494129
	N228	N	0.412616	0.959678	0.672924
	N229	N	0.584399	0.033550	0.672984
	N230	N	0.585335	0.959609	0.315623
	N231	N	0.413245	0.033308	0.315629
	N232	N	0.678778	0.407042	0.958730
	N233	N	0.677001	0.579868	0.031004
	N234	N	0.320213	0.580611	0.957544
	N235	N	0.316737	0.406115	0.030906
	N236	N	0.961659	0.676621	0.408688
	N237	N	0.034666	0.678943	0.582587
	N238	N	0.962816	0.316248	0.583427
	N239	N	0.035859	0.317946	0.409553
	N240	N	0.961791	0.412306	0.673608
	N241	N	0.035772	0.584839	0.675469
	N242	N	0.961792	0.583103	0.316585
	N243	N	0.035467	0.410144	0.316083
	N244	N	0.414324	0.672186	0.957411
	N245	N	0.587633	0.674578	0.030238
	N246	N	0.583052	0.319025	0.957405
	N247	N	0.412847	0.316749	0.032372
	N248	N	0.677456	0.960100	0.408367
	N249	N	0.677424	0.033587	0.581232
	N250	N	0.318793	0.961140	0.581549
	N251	N	0.320267	0.033476	0.407538
	N252	N	0.912406	0.459225	0.174584
	N253	N	0.084380	0.533890	0.173167
	N254	N	0.085902	0.461046	0.816123
	N255	N	0.914209	0.533949	0.818565
	N256	N	0.176683	0.912794	0.457161
	N257	N	0.179580	0.085192	0.531229
	N258	N	0.818853	0.084680	0.458604
	N259	N	0.818848	0.911255	0.531163
	N260	N	0.462092	0.174264	0.908844
	N261	N	0.536001	0.175426	0.081040
	N262	N	0.463214	0.814122	0.081800
	N263	N	0.536635	0.815268	0.907570
	N264	N	0.462092	0.909676	0.172808
	N265	N	0.536537	0.080930	0.172497
	N266	N	0.461629	0.081408	0.816287
	N267	N	0.535548	0.908981	0.814655
	N268	N	0.914234	0.174515	0.458097
	N269	N	0.085447	0.176185	0.532180
	N270	N	0.084287	0.819640	0.457746
	N271	N	0.911407	0.819474	0.531381
	N272	N	0.176823	0.459769	0.908517
	N273	N	0.179038	0.531568	0.082684
	N274	N	0.818999	0.458477	0.081957
	N275	N	0.819342	0.531754	0.908306
	O276	O	-0.001264	-0.003081	0.047780
	H277	H	0.007439	-0.007518	0.038568
	H278	H	-0.008944	-0.002454	0.037783
	O279	O	0.857328	-0.074170	0.990908
	H280	H	0.859714	-0.076017	0.978946
	H281	H	0.853732	-0.077891	0.989709
	O282	O	1.054228	0.096317	-0.015198
	H283	H	1.071600	0.102836	-0.005582
	H284	H	1.050478	0.098860	-0.001310
	O285	O	0.002907	0.897902	-0.012550
	H286	H	-0.001620	0.894779	-0.008981
	H287	H	0.001078	0.897798	-0.021040
	O288	O	0.618334	0.388399	0.472884
	H289	H	0.623612	0.377982	0.471265
	H290	H	0.613815	0.404935	0.472852
	O291	O	0.373840	0.490496	0.529627
	H292	H	0.384380	0.492270	0.531238
	H293	H	0.377103	0.497047	0.536000
	O294	O	0.926747	1.012624	0.964873
	H295	H	0.933239	1.011169	0.958125
	H296	H	0.931143	1.019797	0.973417
	O297	O	-0.016488	0.054954	-0.084005
	H298	H	-0.015787	0.048966	-0.074308
	H299	H	-0.017528	0.054311	-0.092186
	O300	O	0.535391	0.612935	0.577864
	H301	H	0.545141	0.620741	0.575384
	H302	H	0.531192	0.609862	0.581335
	O303	O	-0.028204	0.936755	1.046128
	H304	H	-0.032948	0.948981	1.051666
	H305	H	-0.029909	0.937409	1.048538
	O306	O	0.455110	0.463539	0.511962
	H307	H	0.434160	0.447366	0.505752
	H308	H	0.471704	0.472597	0.514929
	O309	O	1.007098	0.002814	0.019238
	H310	H	1.013604	-0.008523	0.005486
	H311	H	1.008191	-0.001667	0.024167
	O312	O	-0.019384	0.070881	0.974133
	H313	H	-0.014086	0.075023	0.983332
	H314	H	-0.022448	0.061723	0.967715
	O315	O	0.480789	0.508293	0.518740
	H316	H	0.483016	0.509137	0.509852
	H317	H	0.473492	0.515341	0.518021
	O318	O	0.482188	0.456533	0.662012
	H319	H	0.484293	0.460536	0.651045
	H320	H	0.467774	0.443792	0.668899
	O321	O	0.539366	0.537902	0.397652
	H322	H	0.543523	0.522277	0.404660
	H323	H	0.535148	0.539431	0.409611
	O324	O	0.510446	0.568644	0.351027
	H325	H	0.485430	0.566938	0.360321
	H326	H	0.519658	0.581083	0.332081
	O327	O	0.085454	1.095859	1.152742
	H328	H	0.083590	1.090617	1.157929
	H329	H	0.085138	1.081813	1.159439
	O330	O	0.376496	0.326598	0.537834
	H331	H	0.375292	0.329213	0.532678
	H332	H	0.367625	0.326648	0.539329
	O333	O	0.069668	1.051287	0.955102
	H334	H	0.075636	1.049032	0.965032
	H335	H	0.056937	1.058182	0.955934
	O336	O	1.039760	0.978177	0.912564
	H337	H	1.045397	0.990250	0.908368
	H338	H	1.039274	0.984532	0.907672
	O339	O	0.343001	0.519565	0.458389
	H340	H	0.341833	0.523312	0.439655
	H341	H	0.345031	0.516393	0.459303
	O342	O	1.071808	0.082253	0.004576
	H343	H	1.070928	0.074748	0.003506
	H344	H	1.064310	0.072921	0.002561
	O345	O	0.545560	0.533182	0.363350
	H346	H	0.533813	0.532944	0.353604
	H347	H	0.548239	0.536019	0.348535
	O348	O	1.005880	1.083170	1.019070
	H349	H	1.011791	1.096091	1.015261
	H350	H	0.997436	1.082802	1.031034
	O351	O	0.970722	0.931376	-0.021513
	H352	H	0.979082	0.920605	-0.038724
	H353	H	0.962605	0.935719	-0.011835
	O354	O	0.511388	0.388533	0.407881
	H355	H	0.533200	0.389692	0.414803
	H356	H	0.513848	0.396230	0.400621
	O357	O	0.651816	0.606136	0.586581
	H358	H	0.638673	0.604505	0.584738
	H359	H	0.662024	0.606763	0.577198
	O360	O	-0.181767	0.047535	-0.166237
	H361	H	-0.180695	0.058900	-0.166835
	H362	H	-0.188898	0.065289	-0.175729
	O363	O	0.664651	0.570949	0.606491
	H364	H	0.655580	0.563965	0.607352
	H365	H	0.658974	0.573887	0.605915
	O366	O	0.624729	0.471218	0.348217
	H367	H	0.626431	0.465107	0.349674
	H368	H	0.618212	0.469647	0.348210
	O369	O	0.448736	0.400935	0.451261
	H370	H	0.456217	0.407349	0.440840
	H371	H	0.461021	0.405668	0.448398
	O372	O	0.469566	0.425815	0.515590
	H373	H	0.468011	0.422679	0.524065
	H374	H	0.482003	0.426225	0.514961
	O375	O	0.374083	0.678796	0.383581
	H376	H	0.372032	0.669819	0.379205
	H377	H	0.362501	0.680330	0.401181
	O378	O	0.396315	0.405579	0.514046
	H379	H	0.396752	0.401388	0.489221
	H380	H	0.397534	0.412781	0.507881
	O381	O	0.471565	0.598431	0.509503
	H382	H	0.485483	0.584863	0.506854
	H383	H	0.475092	0.589943	0.510529
	O384	O	0.092323	0.877158	0.023600
	H385	H	0.095608	0.875515	0.021881
	H386	H	0.080354	0.864292	0.011695
	O387	O	1.058190	-0.022112	0.929514
	H388	H	1.081043	-0.024089	0.934132
	H389	H	1.062537	-0.019020	0.929984
	O390	O	-0.360857	0.521283	0.406504
	H391	H	-0.363971	0.522904	0.401301
	H392	H	-0.353029	0.517670	0.422794
	O393	O	1.005236	0.929625	-0.139407
	H394	H	1.016063	0.935965	-0.153660
	H395	H	0.994292	0.941200	-0.148899
	O396	O	0.622375	0.631694	0.584650
	H397	H	0.619151	0.630904	0.591846
	H398	H	0.632396	0.635879	0.602119
	O399	O	-0.040370	0.868256	1.069618
	H400	H	-0.051722	0.848359	1.074219
	H401	H	-0.044002	0.859717	1.067389
	O402	O	0.965238	1.017520	0.974943
	H403	H	0.986686	1.021666	0.973023
	H404	H	0.950058	1.017766	0.983824
	O405	O	0.370839	1.579436	0.536888
	H406	H	0.364861	1.578704	0.545684
	H407	H	0.385214	1.583507	0.544459
