data_Molecule from HDF5

_cell_length_a		16.176043
_cell_length_b		16.255878
_cell_length_c		16.458355
_cell_angle_alpha	89.889121
_cell_angle_beta	89.976836
_cell_angle_gamma	90.155542
_symmetry_space_group_name_H-M	'P 1'
_symmetry_Int_Tables_number		1

loop_
	_symmetry_equiv_pos_as_xyz
	x,y,z

loop_
	_atom_site_label
	_atom_site_type_symbol
	_atom_site_fract_x
	_atom_site_fract_y
	_atom_site_fract_z
	H0	H	0.379150	0.830979	0.706084
	H1	H	0.588280	0.153630	0.703540
	H2	H	0.594280	0.832570	0.265741
	H3	H	0.379060	0.150707	0.263908
	H4	H	0.703519	0.391252	0.824847
	H5	H	0.706065	0.593705	0.144824
	H6	H	0.271181	0.591112	0.824455
	H7	H	0.264671	0.386163	0.146080
	H8	H	0.821398	0.706384	0.385054
	H9	H	0.148267	0.708178	0.585334
	H10	H	0.819838	0.277566	0.584692
	H11	H	0.146489	0.274091	0.383676
	H12	H	0.824015	0.386617	0.705897
	H13	H	0.148489	0.594052	0.701341
	H14	H	0.824248	0.598779	0.264966
	H15	H	0.146985	0.388289	0.267031
	H16	H	0.384203	0.710460	0.825668
	H17	H	0.594846	0.713259	0.144341
	H18	H	0.588409	0.273062	0.824770
	H19	H	0.382480	0.270990	0.146779
	H20	H	0.698667	0.829637	0.387706
	H21	H	0.699025	0.155395	0.585834
	H22	H	0.267723	0.830163	0.586994
	H23	H	0.268515	0.154375	0.383419
	H24	H	0.877064	0.334099	0.208580
	H25	H	0.094194	0.651884	0.205314
	H26	H	0.093192	0.331709	0.764732
	H27	H	0.880528	0.651806	0.764204
	H28	H	0.206721	0.887825	0.327615
	H29	H	0.203335	0.095647	0.645976
	H30	H	0.764128	0.094561	0.326204
	H31	H	0.768430	0.892543	0.647611
	H32	H	0.322871	0.209925	0.884781
	H33	H	0.649752	0.207152	0.087117
	H34	H	0.324543	0.770032	0.089834
	H35	H	0.649937	0.778077	0.885762
	H36	H	0.326533	0.880223	0.210003
	H37	H	0.646726	0.098098	0.207968
	H38	H	0.323455	0.097145	0.766817
	H39	H	0.647279	0.889987	0.767396
	H40	H	0.876881	0.213217	0.326559
	H41	H	0.087321	0.212289	0.645001
	H42	H	0.090142	0.771298	0.325885
	H43	H	0.880670	0.771171	0.645585
	H44	H	0.203092	0.329899	0.884650
	H45	H	0.206270	0.652796	0.087449
	H46	H	0.768444	0.330912	0.088585
	H47	H	0.769513	0.653524	0.883322
	H48	H	0.395834	0.107476	0.578108
	H49	H	0.577695	0.874046	0.581504
	H50	H	0.570901	0.111263	0.384914
	H51	H	0.396723	0.879714	0.405618
	H52	H	0.574127	0.393000	0.100741
	H53	H	0.580721	0.586053	0.869269
	H54	H	0.398747	0.574881	0.097446
	H55	H	0.408463	0.389931	0.873205
	H56	H	0.101582	0.588502	0.400911
	H57	H	0.870620	0.580374	0.569361
	H58	H	0.101636	0.400357	0.576950
	H59	H	0.864611	0.400330	0.385968
	H60	H	0.100202	0.401704	0.574289
	H61	H	0.870386	0.573866	0.580973
	H62	H	0.097847	0.573384	0.397448
	H63	H	0.869672	0.398447	0.403989
	H64	H	0.401678	0.584355	0.099460
	H65	H	0.577927	0.578916	0.872193
	H66	H	0.584074	0.399000	0.102327
	H67	H	0.382194	0.394232	0.866790
	H68	H	0.564952	0.103259	0.402261
	H69	H	0.570966	0.875981	0.581435
	H70	H	0.395239	0.108052	0.576881
	H71	H	0.390070	0.873238	0.394256
	H72	H	0.902136	0.605537	0.072862
	H73	H	0.070459	0.378631	0.074343
	H74	H	0.083987	0.609537	0.894071
	H75	H	0.890934	0.374860	0.895672
	H76	H	0.067628	0.898633	0.597995
	H77	H	0.071892	0.089254	0.370718
	H78	H	0.895526	0.081775	0.598335
	H79	H	0.886525	0.900197	0.370090
	H80	H	0.600321	0.083754	0.897902
	H81	H	0.368464	0.080650	0.078974
	H82	H	0.601148	0.906824	0.079399
	H83	H	0.370166	0.897820	0.901223
	H84	H	0.602323	0.900873	0.076391
	H85	H	0.371896	0.080030	0.072337
	H86	H	0.600265	0.075654	0.893015
	H87	H	0.371163	0.907877	0.896573
	H88	H	0.893120	0.087882	0.601773
	H89	H	0.080346	0.081615	0.370793
	H90	H	0.078132	0.897421	0.601560
	H91	H	0.894597	0.903678	0.373865
	H92	H	0.073871	0.608469	0.886431
	H93	H	0.077927	0.376678	0.073890
	H94	H	0.892619	0.608259	0.073424
	H95	H	0.899602	0.375540	0.889649
	H96	H	0.394698	0.108915	0.578215
	H97	H	0.574953	0.877247	0.575461
	H98	H	0.583317	0.109353	0.399773
	H99	H	0.403564	0.878192	0.393044
	H100	H	0.574763	0.404375	0.097330
	H101	H	0.573590	0.585756	0.871496
	H102	H	0.392020	0.581147	0.101331
	H103	H	0.396450	0.414547	0.877954
	H104	H	0.104902	0.582435	0.385862
	H105	H	0.865516	0.586896	0.579953
	H106	H	0.101683	0.403696	0.577116
	H107	H	0.872861	0.415549	0.395465
	H108	H	0.898693	0.609460	0.080807
	H109	H	0.073684	0.376049	0.080546
	H110	H	0.072510	0.605083	0.898760
	H111	H	0.899929	0.378813	0.900062
	H112	H	0.075022	0.907072	0.596650
	H113	H	0.070095	0.078276	0.374916
	H114	H	0.888834	0.082215	0.600147
	H115	H	0.893736	0.894171	0.371419
	H116	H	0.604051	0.084372	0.889055
	H117	H	0.372145	0.074640	0.076979
	H118	H	0.599841	0.905661	0.073417
	H119	H	0.366988	0.898857	0.890767
	C120	C	0.363280	0.001433	0.608574
	C121	C	0.604968	0.983627	0.608009
	C122	C	0.605081	0.000870	0.365604
	C123	C	0.364359	0.983006	0.364981
	C124	C	0.608423	0.368970	-0.006072
	C125	C	0.609462	0.614228	0.976557
	C126	C	0.365942	0.611687	-0.006186
	C127	C	0.363635	0.368128	0.978301
	C128	C	-0.005791	0.613422	0.363502
	C129	C	0.976663	0.612111	0.606631
	C130	C	-0.006579	0.370746	0.606907
	C131	C	0.975960	0.372328	0.364291
	C132	C	0.865152	0.501553	0.107142
	C133	C	0.107080	0.483330	0.107084
	C134	C	0.107777	0.500726	0.863329
	C135	C	0.865718	0.482949	0.864011
	C136	C	0.106119	0.870036	0.493946
	C137	C	0.105577	0.114207	0.477446
	C138	C	0.861328	0.114504	0.494449
	C139	C	0.861376	0.869152	0.477624
	C140	C	0.494260	0.113004	0.863857
	C141	C	0.477570	0.110881	0.107319
	C142	C	0.494935	0.870170	0.108411
	C143	C	0.476865	0.871216	0.865088
	C144	C	0.361381	0.879475	0.666455
	C145	C	0.606051	0.105386	0.664553
	C146	C	0.609335	0.880161	0.306503
	C147	C	0.361652	0.103368	0.304595
	C148	C	0.665319	0.370661	0.873021
	C149	C	0.667425	0.613693	0.096794
	C150	C	0.308851	0.611421	0.872954
	C151	C	0.304526	0.367311	0.098345
	C152	C	0.871220	0.669676	0.364660
	C153	C	0.099401	0.669437	0.605107
	C154	C	0.869818	0.314720	0.605303
	C155	C	0.097840	0.313142	0.363921
	C156	C	0.871692	0.369278	0.665468
	C157	C	0.099367	0.612768	0.663003
	C158	C	0.872542	0.615849	0.304753
	C159	C	0.098072	0.370315	0.305981
	C160	C	0.365433	0.670754	0.873566
	C161	C	0.611684	0.673026	0.096579
	C162	C	0.607913	0.311868	0.873169
	C163	C	0.363319	0.309869	0.098786
	C164	C	0.662275	0.878874	0.366837
	C165	C	0.661443	0.106157	0.605957
	C166	C	0.305912	0.878868	0.607425
	C167	C	0.306530	0.105135	0.364064
	C168	C	0.860965	0.381314	0.167684
	C169	C	0.111143	0.604224	0.165837
	C170	C	0.110279	0.379537	0.804826
	C171	C	0.863044	0.603945	0.804320
	C172	C	0.166514	0.868898	0.374595
	C173	C	0.164478	0.114565	0.597654
	C174	C	0.802945	0.114121	0.373972
	C175	C	0.805524	0.871232	0.598883
	C176	C	0.371649	0.171323	0.864853
	C177	C	0.600335	0.169043	0.107269
	C178	C	0.373398	0.809655	0.109286
	C179	C	0.600341	0.815534	0.865531
	C180	C	0.374155	0.864854	0.169144
	C181	C	0.598924	0.114571	0.167328
	C182	C	0.372012	0.115443	0.805988
	C183	C	0.598968	0.871503	0.806730
	C184	C	0.859285	0.173372	0.374288
	C185	C	0.106445	0.172690	0.597522
	C186	C	0.108385	0.810942	0.374046
	C187	C	0.861602	0.811052	0.597852
	C188	C	0.165470	0.378662	0.864069
	C189	C	0.167103	0.604488	0.107130
	C190	C	0.806509	0.379842	0.107959
	C191	C	0.807824	0.604954	0.863688
	C192	C	0.387814	0.085962	0.584699
	C193	C	0.581591	0.898039	0.585833
	C194	C	0.579997	0.085858	0.388771
	C195	C	0.389313	0.898944	0.390317
	C196	C	0.584682	0.392086	0.078380
	C197	C	0.584700	0.590517	0.892761
	C198	C	0.390269	0.587351	0.077627
	C199	C	0.388376	0.392354	0.894478
	C200	C	0.079422	0.588641	0.387602
	C201	C	0.890972	0.587730	0.583510
	C202	C	0.079042	0.394861	0.583148
	C203	C	0.890977	0.397563	0.388251
	C204	C	0.890527	0.585732	0.082685
	C205	C	0.081251	0.399011	0.083220
	C206	C	0.083739	0.585410	0.886518
	C207	C	0.889952	0.398564	0.888267
	C208	C	0.080871	0.894049	0.577137
	C209	C	0.081069	0.089964	0.393845
	C210	C	0.885622	0.090951	0.578227
	C211	C	0.884852	0.892472	0.393608
	C212	C	0.579424	0.088544	0.886826
	C213	C	0.393052	0.085673	0.083245
	C214	C	0.579108	0.896852	0.083630
	C215	C	0.391638	0.894577	0.889171
	Zn216	Zn	0.484559	-0.007998	0.736397
	Zn217	Zn	0.485922	-0.008699	0.236994
	Zn218	Zn	0.737435	0.492184	-0.014486
	Zn219	Zn	0.235296	0.491355	-0.014574
	Zn220	Zn	-0.015568	0.739956	0.485322
	Zn221	Zn	-0.016731	0.243939	0.485251
	Zn222	Zn	-0.013741	0.491271	0.735544
	Zn223	Zn	-0.014354	0.493177	0.235538
	Zn224	Zn	0.486829	0.742675	-0.013912
	Zn225	Zn	0.486212	0.239208	-0.013520
	Zn226	Zn	0.732401	-0.007551	0.486403
	Zn227	Zn	0.235696	-0.007642	0.486007
	N228	N	0.396053	0.956685	0.667581
	N229	N	0.571507	0.028029	0.665924
	N230	N	0.574493	0.957265	0.305607
	N231	N	0.396456	0.026407	0.304701
	N232	N	0.666020	0.405165	0.949401
	N233	N	0.666171	0.577936	0.021205
	N234	N	0.308824	0.575703	0.948913
	N235	N	0.304986	0.402856	0.022632
	N236	N	0.948087	0.668492	0.400449
	N237	N	0.021933	0.669294	0.570872
	N238	N	0.946785	0.315635	0.569702
	N239	N	0.020852	0.314291	0.399256
	N240	N	0.949515	0.403377	0.666455
	N241	N	0.021703	0.577915	0.664156
	N242	N	0.950278	0.581781	0.303799
	N243	N	0.021064	0.406225	0.305927
	N244	N	0.399857	0.671318	0.949932
	N245	N	0.576245	0.673469	0.020748
	N246	N	0.573561	0.310596	0.949580
	N247	N	0.399177	0.310120	0.022846
	N248	N	0.659830	0.954969	0.402899
	N249	N	0.660876	0.029277	0.571219
	N250	N	0.306724	0.955590	0.572229
	N251	N	0.308064	0.029139	0.400960
	N252	N	0.896800	0.457969	0.167292
	N253	N	0.074578	0.527868	0.165934
	N254	N	0.075198	0.456479	0.804046
	N255	N	0.898187	0.527151	0.804244
	N256	N	0.165129	0.905038	0.449820
	N257	N	0.164057	0.078755	0.521905
	N258	N	0.804101	0.078281	0.449464
	N259	N	0.804940	0.906419	0.522960
	N260	N	0.448629	0.169929	0.900182
	N261	N	0.523958	0.167130	0.070716
	N262	N	0.449443	0.812663	0.072372
	N263	N	0.523480	0.815156	0.901197
	N264	N	0.450866	0.901538	0.168956
	N265	N	0.521676	0.078844	0.167367
	N266	N	0.449065	0.079853	0.805363
	N267	N	0.521070	0.905303	0.806350
	N268	N	0.895149	0.173610	0.450065
	N269	N	0.070698	0.172820	0.521841
	N270	N	0.071190	0.811651	0.449115
	N271	N	0.895668	0.809628	0.521370
	N272	N	0.163829	0.454836	0.900015
	N273	N	0.164621	0.528424	0.071184
	N274	N	0.808950	0.455560	0.070793
	N275	N	0.809082	0.528716	0.900082
	O276	O	0.344904	0.447972	0.372943
	H277	H	0.353999	0.440500	0.365150
	H278	H	0.352050	0.431247	0.390471
	O279	O	1.050725	1.054616	1.197339
	H280	H	1.061208	1.056906	1.228368
	H281	H	1.054287	1.070995	1.184643
	O282	O	1.012929	0.102652	0.858855
	H283	H	1.004903	0.090315	0.854261
	H284	H	1.024817	0.094687	0.854840
	O285	O	1.048160	0.130725	1.033233
	H286	H	1.064566	0.126880	1.039179
	H287	H	1.059937	0.140603	1.035952
	O288	O	0.983107	1.068876	0.816371
	H289	H	0.991950	1.077383	0.812173
	H290	H	0.992824	1.069860	0.824106
	O291	O	-0.183436	1.018141	0.036349
	H292	H	-0.188539	1.013162	0.043303
	H293	H	-0.158232	1.020464	0.044947
	O294	O	0.597644	0.446615	0.503796
	H295	H	0.603068	0.459550	0.490033
	H296	H	0.594355	0.430689	0.498416
	O297	O	1.004626	1.026992	0.994050
	H298	H	0.991198	1.013603	0.993030
	H299	H	1.002814	1.030585	0.994599
	O300	O	0.418091	0.595566	0.328725
	H301	H	0.408930	0.610698	0.316834
	H302	H	0.400727	0.581959	0.342696
	O303	O	0.528117	0.495764	0.541415
	H304	H	0.534114	0.511819	0.541762
	H305	H	0.519736	0.489674	0.554029
	O306	O	0.609297	0.502736	0.395455
	H307	H	0.622966	0.514587	0.399308
	H308	H	0.614105	0.509220	0.397049
	O309	O	0.505035	0.391823	0.612767
	H310	H	0.514936	0.395136	0.599209
	H311	H	0.498406	0.385109	0.621674
	O312	O	0.157313	-0.079268	-0.038137
	H313	H	0.170689	-0.087031	-0.044453
	H314	H	0.151343	-0.058008	-0.048722
	O315	O	0.582039	0.466413	0.334787
	H316	H	0.589048	0.468726	0.316834
	H317	H	0.581737	0.475802	0.331667
	O318	O	-0.180389	0.856944	1.038448
	H319	H	-0.187389	0.851489	1.032699
	H320	H	-0.186449	0.867205	1.047917
	O321	O	0.422782	0.624359	0.530105
	H322	H	0.425248	0.614989	0.526653
	H323	H	0.440897	0.614802	0.545212
	O324	O	-0.673323	1.521064	-0.560478
	H325	H	-0.680226	1.510076	-0.556205
	H326	H	-0.674810	1.509460	-0.565871
	O327	O	0.573394	0.590877	0.445619
	H328	H	0.562137	0.585490	0.452976
	H329	H	0.576396	0.600805	0.434408
	O330	O	0.106916	-0.099281	0.812422
	H331	H	0.134307	-0.098987	0.802943
	H332	H	0.108010	-0.109118	0.804727
	O333	O	-0.582350	0.521923	1.463892
	H334	H	-0.595277	0.537205	1.458685
	H335	H	-0.597787	0.530638	1.471918
	O336	O	0.454367	0.487802	0.373461
	H337	H	0.451480	0.473040	0.371994
	H338	H	0.445053	0.495037	0.373986
	O339	O	0.814036	-0.029399	0.073884
	H340	H	0.808774	-0.021361	0.058287
	H341	H	0.807670	-0.025347	0.093960
	O342	O	0.033686	0.136139	-0.019151
	H343	H	0.019596	0.133980	-0.019639
	H344	H	0.027602	0.142281	-0.026677
	O345	O	0.908997	-0.015135	0.896544
	H346	H	0.894567	-0.014891	0.890704
	H347	H	0.908870	-0.017661	0.900114
	O348	O	1.071340	0.813704	-0.141029
	H349	H	1.076062	0.815424	-0.125331
	H350	H	1.079223	0.817893	-0.143172
	O351	O	0.460157	0.296155	0.399621
	H352	H	0.447818	0.284675	0.403461
	H353	H	0.458681	0.302795	0.408951
	O354	O	1.113596	0.152667	1.138151
	H355	H	1.108694	0.134394	1.129333
	H356	H	1.115451	0.173202	1.129011
	O357	O	0.121943	-0.154241	0.891538
	H358	H	0.119824	-0.171102	0.893520
	H359	H	0.114131	-0.159902	0.892263
	O360	O	0.532321	0.579958	0.650043
	H361	H	0.553446	0.593606	0.658418
	H362	H	0.531165	0.575937	0.639239
	O363	O	-0.113726	0.819211	1.156644
	H364	H	-0.121253	0.811055	1.163168
	H365	H	-0.106027	0.817093	1.155937
	O366	O	1.057208	1.131417	0.095999
	H367	H	1.074139	1.149044	0.098883
	H368	H	1.063388	1.117419	0.098643
	O369	O	-0.054359	-0.084415	0.796213
	H370	H	-0.059425	-0.070073	0.800819
	H371	H	-0.057286	-0.101181	0.794518
	O372	O	0.486156	0.447332	0.595985
	H373	H	0.498335	0.452582	0.596243
	H374	H	0.477456	0.446191	0.596414
	O375	O	0.507320	0.445999	0.647156
	H376	H	0.517960	0.445350	0.645383
	H377	H	0.510328	0.456163	0.658857
	O378	O	1.118812	0.949124	0.152690
	H379	H	1.143120	0.952991	0.151378
	H380	H	1.124036	0.946466	0.142785
	O381	O	0.866708	-0.046515	-0.127133
	H382	H	0.857601	-0.050263	-0.126719
	H383	H	0.858528	-0.049653	-0.113353
	O384	O	1.381152	0.477746	0.568477
	H385	H	1.387700	0.490548	0.560597
	H386	H	1.385405	0.479994	0.573888
	O387	O	0.128842	0.071013	0.041147
	H388	H	0.123300	0.047060	0.035158
	H389	H	0.130612	0.078241	0.035476
	O390	O	0.543042	1.542160	0.499000
	H391	H	0.529179	1.548248	0.488144
	H392	H	0.555782	1.551724	0.514099
	O393	O	0.905122	0.886248	1.027341
	H394	H	0.881657	0.866365	1.038830
	H395	H	0.906986	0.890270	1.017407
	O396	O	0.513261	0.473236	0.581768
	H397	H	0.503893	0.476460	0.576113
	H398	H	0.526086	0.472535	0.586819
	O399	O	0.414609	0.526467	1.476813
	H400	H	0.433682	0.521580	1.459799
	H401	H	0.396421	0.531179	1.471943
	O402	O	0.423194	0.654303	0.467634
	H403	H	0.419457	0.647017	0.477153
	H404	H	0.415327	0.636264	0.466794
	O405	O	0.942883	0.963105	-0.033131
	H406	H	0.936136	0.969175	-0.028241
	H407	H	0.943474	0.971890	-0.029165
	O408	O	1.009211	0.911055	0.157458
	H409	H	1.008544	0.922825	0.163399
	H410	H	1.031744	0.898743	0.169201
	O411	O	0.957294	0.163203	0.910506
	H412	H	0.942145	0.171996	0.922663
	H413	H	0.951234	0.179200	0.924652
	O414	O	0.867156	0.137453	-0.115800
	H415	H	0.870941	0.132417	-0.107746
	H416	H	0.867121	0.159738	-0.116557
	O417	O	0.581580	0.369732	0.389816
	H418	H	0.582136	0.368344	0.396934
	H419	H	0.590201	0.372472	0.379197
