data_Molecule from HDF5

_cell_length_a		16.395649
_cell_length_b		16.205066
_cell_length_c		16.198467
_cell_angle_alpha	90.144548
_cell_angle_beta	90.044385
_cell_angle_gamma	90.115331
_symmetry_space_group_name_H-M	'P 1'
_symmetry_Int_Tables_number		1

loop_
	_symmetry_equiv_pos_as_xyz
	x,y,z

loop_
	_atom_site_label
	_atom_site_type_symbol
	_atom_site_fract_x
	_atom_site_fract_y
	_atom_site_fract_z
	H0	H	0.402751	0.835504	0.708210
	H1	H	0.596145	0.165197	0.710847
	H2	H	0.594995	0.835623	0.285289
	H3	H	0.402729	0.165539	0.284540
	H4	H	0.713742	0.401256	0.832756
	H5	H	0.715204	0.601362	0.159858
	H6	H	0.285280	0.599497	0.832444
	H7	H	0.283796	0.401503	0.160149
	H8	H	0.836080	0.715554	0.398163
	H9	H	0.161927	0.716978	0.594328
	H10	H	0.836341	0.287706	0.593502
	H11	H	0.161793	0.285324	0.397481
	H12	H	0.837201	0.402640	0.711191
	H13	H	0.161879	0.600820	0.711961
	H14	H	0.836132	0.599203	0.281897
	H15	H	0.162459	0.403942	0.282024
	H16	H	0.402673	0.712656	0.831591
	H17	H	0.596777	0.714239	0.161524
	H18	H	0.596154	0.287792	0.831906
	H19	H	0.403119	0.288857	0.162014
	H20	H	0.713583	0.837294	0.397502
	H21	H	0.714676	0.164775	0.598839
	H22	H	0.283523	0.837776	0.596440
	H23	H	0.284401	0.165029	0.397780
	H24	H	0.901609	0.336987	0.209212
	H25	H	0.097130	0.666901	0.209229
	H26	H	0.095221	0.336517	0.783427
	H27	H	0.902450	0.665889	0.783886
	H28	H	0.214455	0.900693	0.333297
	H29	H	0.213571	0.101393	0.661678
	H30	H	0.783916	0.101085	0.332799
	H31	H	0.785826	0.902398	0.661528
	H32	H	0.336616	0.214941	0.898534
	H33	H	0.662434	0.216224	0.095915
	H34	H	0.335778	0.787788	0.093432
	H35	H	0.661708	0.785783	0.899455
	H36	H	0.336643	0.903335	0.210841
	H37	H	0.662270	0.099693	0.212467
	H38	H	0.336529	0.097596	0.782139
	H39	H	0.662289	0.902632	0.782258
	H40	H	0.904040	0.212234	0.331482
	H41	H	0.096031	0.214835	0.661747
	H42	H	0.094526	0.789321	0.331583
	H43	H	0.902191	0.788420	0.661501
	H44	H	0.214213	0.337754	0.895141
	H45	H	0.213886	0.665630	0.095608
	H46	H	0.784578	0.337501	0.095277
	H47	H	0.783120	0.664420	0.895740
	H48	H	0.407245	0.121391	0.601257
	H49	H	0.600349	0.882035	0.586073
	H50	H	0.590397	0.117158	0.405213
	H51	H	0.410475	0.886674	0.410148
	H52	H	0.582424	0.415836	0.109081
	H53	H	0.590083	0.581306	0.883773
	H54	H	0.408621	0.600992	0.115107
	H55	H	0.392594	0.404624	0.874158
	H56	H	0.116885	0.597369	0.399052
	H57	H	0.886390	0.584755	0.590739
	H58	H	0.117728	0.403819	0.590911
	H59	H	0.882964	0.412397	0.394480
	H60	H	0.113515	0.408725	0.585790
	H61	H	0.879939	0.599791	0.598052
	H62	H	0.114609	0.597740	0.405667
	H63	H	0.880882	0.398230	0.400480
	H64	H	0.397406	0.591941	0.116280
	H65	H	0.583436	0.600481	0.879300
	H66	H	0.591669	0.396906	0.117528
	H67	H	0.409583	0.420294	0.884300
	H68	H	0.594589	0.117761	0.407725
	H69	H	0.593040	0.881542	0.596298
	H70	H	0.415215	0.113888	0.583652
	H71	H	0.397275	0.882408	0.407075
	H72	H	0.906959	0.616116	0.082128
	H73	H	0.100206	0.382524	0.088133
	H74	H	0.092873	0.620530	0.897896
	H75	H	0.910114	0.382474	0.895499
	H76	H	0.096685	0.912234	0.614605
	H77	H	0.084306	0.091765	0.383287
	H78	H	0.907536	0.099231	0.615363
	H79	H	0.904009	0.909707	0.379535
	H80	H	0.615646	0.096468	0.902123
	H81	H	0.380423	0.097519	0.100204
	H82	H	0.616266	0.902793	0.087892
	H83	H	0.380799	0.903068	0.898136
	H84	H	0.613686	0.911241	0.088665
	H85	H	0.384050	0.101160	0.083304
	H86	H	0.614146	0.093720	0.906381
	H87	H	0.384196	0.904317	0.906021
	H88	H	0.900096	0.094363	0.615907
	H89	H	0.095866	0.100638	0.376928
	H90	H	0.088099	0.912340	0.611827
	H91	H	0.905697	0.909056	0.379839
	H92	H	0.088250	0.616675	0.907553
	H93	H	0.088088	0.384097	0.095296
	H94	H	0.900680	0.621042	0.090025
	H95	H	0.910065	0.387502	0.911235
	H96	H	0.395576	0.119655	0.584302
	H97	H	0.588208	0.885458	0.585540
	H98	H	0.593731	0.119837	0.402681
	H99	H	0.407692	0.882498	0.397191
	H100	H	0.604382	0.415520	0.115708
	H101	H	0.602350	0.595195	0.874996
	H102	H	0.409849	0.587577	0.110956
	H103	H	0.415362	0.397329	0.879231
	H104	H	0.113982	0.591823	0.402300
	H105	H	0.884605	0.599437	0.581114
	H106	H	0.115200	0.411791	0.593341
	H107	H	0.886831	0.409756	0.409440
	H108	H	0.911118	0.618322	0.091973
	H109	H	0.088162	0.387622	0.081440
	H110	H	0.099496	0.619593	0.907662
	H111	H	0.897186	0.382090	0.904372
	H112	H	0.091731	0.904751	0.615593
	H113	H	0.098909	0.085459	0.380406
	H114	H	0.907547	0.090437	0.612604
	H115	H	0.903896	0.907735	0.379093
	H116	H	0.615590	0.092039	0.901872
	H117	H	0.386972	0.085102	0.089727
	H118	H	0.616446	0.907117	0.095905
	H119	H	0.383717	0.910977	0.901160
	C120	C	0.377851	0.009805	0.618139
	C121	C	0.621465	0.992039	0.618434
	C122	C	0.620715	0.009495	0.376123
	C123	C	0.377330	0.992511	0.376090
	C124	C	0.620899	0.379904	0.005536
	C125	C	0.620588	0.621690	0.988155
	C126	C	0.377645	0.621799	0.005059
	C127	C	0.377552	0.379038	0.987842
	C128	C	0.007371	0.623448	0.374206
	C129	C	0.990891	0.623770	0.618557
	C130	C	0.007884	0.379531	0.618325
	C131	C	0.991248	0.378836	0.373880
	C132	C	0.877825	0.510110	0.117124
	C133	C	0.120527	0.493206	0.117212
	C134	C	0.120920	0.510058	0.875182
	C135	C	0.877616	0.492633	0.875172
	C136	C	0.120353	0.880596	0.505197
	C137	C	0.121246	0.122542	0.488837
	C138	C	0.877302	0.122866	0.505503
	C139	C	0.876998	0.880209	0.488404
	C140	C	0.507736	0.122002	0.875322
	C141	C	0.491438	0.122908	0.119201
	C142	C	0.507692	0.878925	0.118668
	C143	C	0.490530	0.877918	0.874081
	C144	C	0.381193	0.885190	0.671761
	C145	C	0.617348	0.115955	0.673448
	C146	C	0.616688	0.885176	0.321958
	C147	C	0.381330	0.116437	0.321662
	C148	C	0.676031	0.380747	0.881752
	C149	C	0.676558	0.620637	0.111249
	C150	C	0.322790	0.619726	0.881316
	C151	C	0.322420	0.381596	0.111425
	C152	C	0.884832	0.678107	0.377005
	C153	C	0.113316	0.679281	0.615659
	C154	C	0.885100	0.325244	0.614548
	C155	C	0.113679	0.324071	0.377338
	C156	C	0.885368	0.382448	0.672989
	C157	C	0.113383	0.621382	0.673598
	C158	C	0.884814	0.620140	0.319278
	C159	C	0.113872	0.382675	0.319696
	C160	C	0.381382	0.675645	0.880894
	C161	C	0.617714	0.676707	0.111950
	C162	C	0.617298	0.324894	0.881295
	C163	C	0.381909	0.325921	0.112585
	C164	C	0.675473	0.886039	0.377863
	C165	C	0.675975	0.115676	0.617387
	C166	C	0.322160	0.886287	0.616343
	C167	C	0.322369	0.116004	0.377865
	C168	C	0.881003	0.386070	0.171625
	C169	C	0.117820	0.617320	0.172183
	C170	C	0.116746	0.385893	0.820493
	C171	C	0.881392	0.616668	0.821381
	C172	C	0.176118	0.881375	0.382106
	C173	C	0.176114	0.121519	0.612404
	C174	C	0.822330	0.120654	0.381862
	C175	C	0.822988	0.882227	0.612181
	C176	C	0.385177	0.176784	0.878090
	C177	C	0.613825	0.178165	0.116623
	C178	C	0.384633	0.825107	0.114694
	C179	C	0.613252	0.823388	0.877906
	C180	C	0.385154	0.882339	0.173097
	C181	C	0.613826	0.120212	0.174422
	C182	C	0.384854	0.118535	0.820510
	C183	C	0.613505	0.881426	0.820033
	C184	C	0.881706	0.176080	0.381167
	C185	C	0.117478	0.177448	0.612560
	C186	C	0.116421	0.826132	0.380961
	C187	C	0.881071	0.825619	0.612309
	C188	C	0.175559	0.386396	0.876211
	C189	C	0.176164	0.616626	0.115817
	C190	C	0.822855	0.386250	0.115131
	C191	C	0.821692	0.615693	0.876386
	C192	C	0.399644	0.095960	0.596193
	C193	C	0.600075	0.905329	0.596017
	C194	C	0.599227	0.096018	0.398630
	C195	C	0.398818	0.906033	0.398233
	C196	C	0.599214	0.402511	0.091699
	C197	C	0.598533	0.598881	0.901665
	C198	C	0.398913	0.599868	0.091707
	C199	C	0.399284	0.400922	0.901566
	C200	C	0.092984	0.602023	0.396020
	C201	C	0.905664	0.601338	0.596515
	C202	C	0.093402	0.401528	0.596471
	C203	C	0.905752	0.400200	0.395286
	C204	C	0.899662	0.596194	0.094662
	C205	C	0.098743	0.406949	0.094703
	C206	C	0.099701	0.596455	0.897706
	C207	C	0.899318	0.406265	0.897314
	C208	C	0.098625	0.903150	0.591677
	C209	C	0.099487	0.099347	0.402379
	C210	C	0.898744	0.101083	0.592237
	C211	C	0.898422	0.902232	0.401749
	C212	C	0.592987	0.100497	0.897063
	C213	C	0.405831	0.100897	0.097545
	C214	C	0.593425	0.900538	0.097098
	C215	C	0.404967	0.899664	0.895474
	Zn216	Zn	0.499335	0.000260	0.745812
	Zn217	Zn	0.499336	0.000802	0.248166
	Zn218	Zn	0.749310	0.500755	-0.003758
	Zn219	Zn	0.249249	0.500833	-0.003888
	Zn220	Zn	-0.001151	0.752446	0.496350
	Zn221	Zn	-0.000411	0.250033	0.497001
	Zn222	Zn	-0.000585	0.501321	0.747428
	Zn223	Zn	-0.000639	0.501673	0.245023
	Zn224	Zn	0.498813	0.749426	-0.003462
	Zn225	Zn	0.499822	0.251768	-0.002920
	Zn226	Zn	0.748943	0.001073	0.497287
	Zn227	Zn	0.249335	0.001466	0.497891
	N228	N	0.415454	0.962789	0.672804
	N229	N	0.584019	0.037940	0.673968
	N230	N	0.583267	0.962974	0.320862
	N231	N	0.414521	0.038675	0.320471
	N232	N	0.678429	0.414284	0.959833
	N233	N	0.678569	0.587333	0.033080
	N234	N	0.320412	0.586702	0.959571
	N235	N	0.319646	0.413808	0.032987
	N236	N	0.961922	0.680191	0.410525
	N237	N	0.036264	0.680718	0.581864
	N238	N	0.962250	0.323378	0.581390
	N239	N	0.036378	0.321547	0.410119
	N240	N	0.962759	0.415335	0.675511
	N241	N	0.036378	0.587644	0.675640
	N242	N	0.962009	0.586893	0.317418
	N243	N	0.036892	0.416057	0.317335
	N244	N	0.414561	0.677039	0.958791
	N245	N	0.583605	0.677414	0.034326
	N246	N	0.583855	0.324017	0.959280
	N247	N	0.415314	0.323959	0.034689
	N248	N	0.678028	0.964347	0.410841
	N249	N	0.678586	0.037537	0.584044
	N250	N	0.320047	0.964525	0.583659
	N251	N	0.319802	0.037900	0.410988
	N252	N	0.914552	0.464051	0.173035
	N253	N	0.083844	0.539681	0.173067
	N254	N	0.083531	0.463847	0.819803
	N255	N	0.915163	0.539141	0.820250
	N256	N	0.178547	0.914535	0.460408
	N257	N	0.178784	0.088280	0.534156
	N258	N	0.819302	0.088176	0.460352
	N259	N	0.820489	0.915473	0.534084
	N260	N	0.462444	0.179057	0.911387
	N261	N	0.536735	0.180169	0.083356
	N262	N	0.461946	0.822819	0.081590
	N263	N	0.535808	0.821074	0.910665
	N264	N	0.462420	0.915268	0.175442
	N265	N	0.536601	0.086577	0.176165
	N266	N	0.461951	0.085328	0.818344
	N267	N	0.536231	0.914478	0.817384
	N268	N	0.914981	0.177559	0.459031
	N269	N	0.084061	0.178032	0.534715
	N270	N	0.082460	0.825573	0.458589
	N271	N	0.913902	0.824167	0.534219
	N272	N	0.178416	0.464568	0.909351
	N273	N	0.178155	0.538463	0.082551
	N274	N	0.820944	0.464229	0.081763
	N275	N	0.819253	0.537469	0.909170
	O276	O	-0.476987	0.488440	1.492125
	H277	H	-0.477695	0.488212	1.491030
	H278	H	-0.481436	0.489637	1.490596
	O279	O	0.495339	0.446095	0.525597
	H280	H	0.495039	0.438637	0.517095
	H281	H	0.490005	0.447097	0.517742
	O282	O	1.037217	0.087091	0.067913
	H283	H	1.043246	0.090322	0.067073
	H284	H	1.038475	0.088294	0.073464
	O285	O	0.528728	0.501875	0.494533
	H286	H	0.536303	0.509006	0.497507
	H287	H	0.535089	0.491381	0.513156
	O288	O	0.560797	0.460307	0.476588
	H289	H	0.566035	0.467908	0.476760
	H290	H	0.562992	0.460651	0.476762
	O291	O	0.059792	1.087386	1.090662
	H292	H	0.058160	1.085944	1.094849
	H293	H	0.060342	1.088997	1.094421
	O294	O	0.507966	0.488534	0.528397
	H295	H	0.509707	0.480771	0.523599
	H296	H	0.505208	0.482523	0.530017
	O297	O	1.062977	0.093258	0.121351
	H298	H	1.069625	0.094772	0.126380
	H299	H	1.064308	0.093848	0.124815
