data_Molecule from HDF5

_cell_length_a		16.280123
_cell_length_b		16.263460
_cell_length_c		16.161088
_cell_angle_alpha	89.687434
_cell_angle_beta	90.472322
_cell_angle_gamma	90.123792
_symmetry_space_group_name_H-M	'P 1'
_symmetry_Int_Tables_number		1

loop_
	_symmetry_equiv_pos_as_xyz
	x,y,z

loop_
	_atom_site_label
	_atom_site_type_symbol
	_atom_site_fract_x
	_atom_site_fract_y
	_atom_site_fract_z
	H0	H	0.392973	0.839366	0.716089
	H1	H	0.592954	0.165751	0.712657
	H2	H	0.587688	0.837764	0.286509
	H3	H	0.393181	0.165749	0.282581
	H4	H	0.712679	0.404695	0.837110
	H5	H	0.714007	0.602469	0.165846
	H6	H	0.278792	0.603167	0.838719
	H7	H	0.288053	0.400517	0.167136
	H8	H	0.831106	0.714815	0.398654
	H9	H	0.156938	0.718432	0.604804
	H10	H	0.831289	0.282247	0.605419
	H11	H	0.156356	0.283188	0.404434
	H12	H	0.833359	0.398973	0.720435
	H13	H	0.160896	0.596937	0.715680
	H14	H	0.833804	0.599794	0.282702
	H15	H	0.159662	0.400340	0.292539
	H16	H	0.397923	0.714617	0.834886
	H17	H	0.600842	0.720020	0.164045
	H18	H	0.596683	0.289531	0.835059
	H19	H	0.400398	0.285701	0.163698
	H20	H	0.709187	0.839046	0.397744
	H21	H	0.711894	0.163588	0.601165
	H22	H	0.278805	0.838078	0.599459
	H23	H	0.275456	0.164454	0.395369
	H24	H	0.899512	0.336955	0.216448
	H25	H	0.096908	0.664196	0.217923
	H26	H	0.095971	0.336649	0.790146
	H27	H	0.897990	0.663155	0.784506
	H28	H	0.205647	0.901364	0.335425
	H29	H	0.211391	0.099458	0.663593
	H30	H	0.779540	0.100560	0.335927
	H31	H	0.776262	0.898285	0.664113
	H32	H	0.333090	0.222379	0.894694
	H33	H	0.659868	0.213999	0.098235
	H34	H	0.333278	0.783567	0.097423
	H35	H	0.659214	0.787881	0.897635
	H36	H	0.329244	0.903722	0.208779
	H37	H	0.656422	0.101341	0.217293
	H38	H	0.330443	0.101615	0.782595
	H39	H	0.657666	0.904101	0.783203
	H40	H	0.889933	0.218973	0.339472
	H41	H	0.093863	0.211827	0.666149
	H42	H	0.089556	0.786263	0.335963
	H43	H	0.892513	0.782830	0.665568
	H44	H	0.212007	0.336646	0.905946
	H45	H	0.215785	0.663410	0.104605
	H46	H	0.779980	0.339432	0.106144
	H47	H	0.781651	0.664145	0.898373
	H48	H	0.393728	0.117853	0.581014
	H49	H	0.582069	0.887734	0.589466
	H50	H	0.579323	0.116961	0.404609
	H51	H	0.404370	0.886552	0.405839
	H52	H	0.592570	0.400786	0.120741
	H53	H	0.595708	0.599142	0.881302
	H54	H	0.402921	0.596769	0.120962
	H55	H	0.398307	0.408535	0.880610
	H56	H	0.113273	0.598730	0.411485
	H57	H	0.878351	0.590590	0.597113
	H58	H	0.114270	0.403391	0.601852
	H59	H	0.876645	0.403342	0.406595
	H60	H	0.110831	0.400563	0.591939
	H61	H	0.879459	0.592817	0.591610
	H62	H	0.109630	0.592797	0.416747
	H63	H	0.880164	0.408262	0.415558
	H64	H	0.407776	0.587122	0.116539
	H65	H	0.590213	0.587327	0.885606
	H66	H	0.596586	0.414476	0.117165
	H67	H	0.401991	0.418570	0.884697
	H68	H	0.586689	0.115692	0.415329
	H69	H	0.586386	0.885478	0.588989
	H70	H	0.398484	0.121834	0.598544
	H71	H	0.393585	0.884524	0.410202
	H72	H	0.906854	0.620405	0.101230
	H73	H	0.086642	0.383358	0.105126
	H74	H	0.094262	0.617436	0.914617
	H75	H	0.903879	0.384228	0.912130
	H76	H	0.082399	0.909448	0.615542
	H77	H	0.090638	0.090559	0.381483
	H78	H	0.905006	0.095388	0.618736
	H79	H	0.895852	0.912799	0.383530
	H80	H	0.605522	0.087824	0.915000
	H81	H	0.375913	0.092176	0.098468
	H82	H	0.611688	0.909121	0.092572
	H83	H	0.374558	0.907859	0.893360
	H84	H	0.610374	0.914186	0.092739
	H85	H	0.375782	0.105982	0.085786
	H86	H	0.612856	0.091280	0.893962
	H87	H	0.379195	0.896900	0.915445
	H88	H	0.895403	0.090147	0.621112
	H89	H	0.077614	0.088659	0.386003
	H90	H	0.088226	0.904779	0.619263
	H91	H	0.905278	0.909206	0.386484
	H92	H	0.090412	0.618392	0.905486
	H93	H	0.092456	0.386042	0.089822
	H94	H	0.915417	0.613184	0.089601
	H95	H	0.908375	0.386317	0.913093
	H96	H	0.410688	0.114480	0.587085
	H97	H	0.584490	0.884903	0.593228
	H98	H	0.591313	0.120619	0.404479
	H99	H	0.394736	0.882216	0.398317
	H100	H	0.583011	0.409284	0.115377
	H101	H	0.583072	0.598585	0.885319
	H102	H	0.414214	0.596920	0.116669
	H103	H	0.409125	0.409463	0.883299
	H104	H	0.111904	0.591453	0.409086
	H105	H	0.880350	0.587805	0.591836
	H106	H	0.109309	0.411024	0.594992
	H107	H	0.878683	0.413801	0.406625
	H108	H	0.899821	0.617855	0.086977
	H109	H	0.102645	0.379772	0.102194
	H110	H	0.084393	0.614473	0.912524
	H111	H	0.904213	0.385640	0.916674
	H112	H	0.089533	0.912364	0.617063
	H113	H	0.081659	0.101551	0.382302
	H114	H	0.904151	0.084245	0.616529
	H115	H	0.898628	0.901637	0.381944
	H116	H	0.614090	0.107694	0.908806
	H117	H	0.382229	0.088950	0.081539
	H118	H	0.612261	0.910965	0.095947
	H119	H	0.384119	0.920446	0.912456
	C120	C	0.371819	0.010399	0.619547
	C121	C	0.614820	0.993333	0.620433
	C122	C	0.613613	0.010004	0.378736
	C123	C	0.369232	0.993162	0.375662
	C124	C	0.619250	0.380711	0.009201
	C125	C	0.620039	0.624474	0.992331
	C126	C	0.376813	0.623147	0.009743
	C127	C	0.376406	0.381435	0.992028
	C128	C	0.004053	0.622632	0.380618
	C129	C	0.987024	0.620634	0.623651
	C130	C	0.003781	0.376193	0.625888
	C131	C	0.986319	0.379137	0.381995
	C132	C	0.877296	0.509580	0.123225
	C133	C	0.122083	0.491302	0.127387
	C134	C	0.118757	0.508738	0.882567
	C135	C	0.875771	0.492465	0.881585
	C136	C	0.114399	0.879359	0.508788
	C137	C	0.114066	0.121519	0.492086
	C138	C	0.871670	0.120968	0.510352
	C139	C	0.870493	0.877847	0.492274
	C140	C	0.503206	0.125148	0.876038
	C141	C	0.486059	0.124196	0.119873
	C142	C	0.503453	0.880799	0.121045
	C143	C	0.486977	0.880382	0.877595
	C144	C	0.373160	0.887963	0.677198
	C145	C	0.613615	0.116510	0.675663
	C146	C	0.609718	0.886830	0.323441
	C147	C	0.372116	0.116515	0.320175
	C148	C	0.674871	0.383862	0.885725
	C149	C	0.676234	0.622697	0.116474
	C150	C	0.318280	0.622234	0.887073
	C151	C	0.323966	0.381622	0.116802
	C152	C	0.880709	0.677332	0.379662
	C153	C	0.109107	0.678737	0.623974
	C154	C	0.880633	0.320386	0.624863
	C155	C	0.108375	0.322449	0.385129
	C156	C	0.881756	0.378367	0.682490
	C157	C	0.111135	0.618085	0.678864
	C158	C	0.881920	0.620076	0.321981
	C159	C	0.109850	0.380796	0.329174
	C160	C	0.377699	0.677836	0.885131
	C161	C	0.619862	0.681275	0.115446
	C162	C	0.616893	0.326545	0.884936
	C163	C	0.380066	0.324213	0.115255
	C164	C	0.669734	0.887291	0.379159
	C165	C	0.672608	0.115423	0.620100
	C166	C	0.316442	0.887264	0.619229
	C167	C	0.313641	0.115743	0.376257
	C168	C	0.879268	0.386192	0.178865
	C169	C	0.118703	0.614984	0.181387
	C170	C	0.116436	0.385485	0.827766
	C171	C	0.878012	0.614740	0.823607
	C172	C	0.168320	0.881106	0.384743
	C173	C	0.172176	0.119168	0.614954
	C174	C	0.816491	0.120475	0.385929
	C175	C	0.814779	0.878766	0.615577
	C176	C	0.381123	0.182794	0.875946
	C177	C	0.610065	0.177510	0.118630
	C178	C	0.381238	0.822895	0.117608
	C179	C	0.610218	0.825764	0.878496
	C180	C	0.379384	0.882414	0.173227
	C181	C	0.608360	0.121451	0.177943
	C182	C	0.379732	0.122770	0.820243
	C183	C	0.609199	0.883599	0.821408
	C184	C	0.871120	0.179588	0.387689
	C185	C	0.113639	0.175084	0.616413
	C186	C	0.110346	0.824136	0.385049
	C187	C	0.872678	0.821300	0.616295
	C188	C	0.173881	0.385622	0.885523
	C189	C	0.177361	0.614710	0.124765
	C190	C	0.819476	0.387633	0.124117
	C191	C	0.819937	0.615268	0.880006
	C192	C	0.394457	0.095916	0.595853
	C193	C	0.591170	0.908085	0.597261
	C194	C	0.592006	0.095590	0.401509
	C195	C	0.391075	0.906847	0.398186
	C196	C	0.597286	0.402014	0.095584
	C197	C	0.596551	0.601645	0.906404
	C198	C	0.401166	0.600323	0.095866
	C199	C	0.397064	0.405231	0.905174
	C200	C	0.089403	0.600793	0.405344
	C201	C	0.901780	0.597310	0.600504
	C202	C	0.089450	0.398377	0.602821
	C203	C	0.900605	0.401887	0.403398
	C204	C	0.900454	0.595132	0.099598
	C205	C	0.100354	0.405329	0.105594
	C206	C	0.096302	0.594671	0.904393
	C207	C	0.898815	0.407253	0.906803
	C208	C	0.093123	0.902135	0.595109
	C209	C	0.090233	0.100068	0.405643
	C210	C	0.894778	0.096962	0.596365
	C211	C	0.893260	0.901038	0.406482
	C212	C	0.588537	0.102297	0.899195
	C213	C	0.400166	0.102189	0.095751
	C214	C	0.589129	0.904448	0.099880
	C215	C	0.401470	0.901986	0.900414
	Zn216	Zn	0.493705	0.001859	0.748464
	Zn217	Zn	0.491923	0.002189	0.248958
	Zn218	Zn	0.747803	0.501974	0.002485
	Zn219	Zn	0.248523	0.500871	0.003764
	Zn220	Zn	-0.006304	0.750380	0.502090
	Zn221	Zn	-0.007495	0.248661	0.502556
	Zn222	Zn	-0.003293	0.499506	0.753569
	Zn223	Zn	-0.002662	0.500251	0.252971
	Zn224	Zn	0.497960	0.751806	-0.000401
	Zn225	Zn	0.496295	0.253443	-0.001348
	Zn226	Zn	0.743698	0.000808	0.500082
	Zn227	Zn	0.242603	0.000949	0.498642
	N228	N	0.406915	0.965521	0.677575
	N229	N	0.578290	0.039622	0.676187
	N230	N	0.575224	0.963946	0.323245
	N231	N	0.405943	0.039118	0.319569
	N232	N	0.676551	0.416750	0.964013
	N233	N	0.676564	0.588131	0.038890
	N234	N	0.317648	0.588946	0.965430
	N235	N	0.321691	0.416507	0.039049
	N236	N	0.957628	0.679096	0.415387
	N237	N	0.031141	0.680510	0.590357
	N238	N	0.957639	0.318995	0.590326
	N239	N	0.030504	0.321088	0.417431
	N240	N	0.959215	0.412242	0.683301
	N241	N	0.034275	0.582710	0.678965
	N242	N	0.959648	0.586879	0.322323
	N243	N	0.032872	0.415475	0.327020
	N244	N	0.413526	0.678460	0.962554
	N245	N	0.585674	0.682581	0.037394
	N246	N	0.583396	0.324333	0.962724
	N247	N	0.411867	0.323886	0.036583
	N248	N	0.672314	0.964855	0.412625
	N249	N	0.673508	0.037870	0.586684
	N250	N	0.315716	0.964363	0.583898
	N251	N	0.311760	0.037925	0.409902
	N252	N	0.914669	0.463065	0.178356
	N253	N	0.085408	0.537220	0.183486
	N254	N	0.082642	0.463010	0.825819
	N255	N	0.911935	0.537345	0.824507
	N256	N	0.170983	0.914658	0.462682
	N257	N	0.172561	0.086694	0.536521
	N258	N	0.816528	0.084966	0.463338
	N259	N	0.813013	0.912842	0.537457
	N260	N	0.458897	0.184519	0.909833
	N261	N	0.533044	0.179138	0.083146
	N262	N	0.459531	0.821597	0.085866
	N263	N	0.533332	0.823698	0.912771
	N264	N	0.456119	0.917822	0.175351
	N265	N	0.530123	0.089183	0.178853
	N266	N	0.456470	0.087564	0.819980
	N267	N	0.531472	0.916803	0.820643
	N268	N	0.904747	0.180069	0.466056
	N269	N	0.078093	0.176693	0.538906
	N270	N	0.077735	0.822734	0.463291
	N271	N	0.906652	0.820708	0.538692
	N272	N	0.175403	0.463282	0.918777
	N273	N	0.179575	0.536884	0.091974
	N274	N	0.818057	0.465372	0.090327
	N275	N	0.818620	0.538113	0.915492
	O276	O	0.924545	0.153183	1.028203
	H277	H	0.928589	0.160282	1.028212
	H278	H	0.912194	0.159331	1.031121
	O279	O	0.478434	0.533612	0.543060
	H280	H	0.466594	0.542065	0.538596
	H281	H	0.480709	0.536812	0.543050
	O282	O	0.515843	0.438097	0.592200
	H283	H	0.514972	0.429174	0.616048
	H284	H	0.519403	0.444491	0.600013
	O285	O	0.467978	0.494060	0.435272
	H286	H	0.474773	0.503776	0.431467
	H287	H	0.464676	0.499138	0.420405
	O288	O	0.469024	0.562885	0.496396
	H289	H	0.467077	0.567225	0.500037
	H290	H	0.471879	0.559457	0.483208
	O291	O	-0.052384	-0.031221	0.990796
	H292	H	-0.041791	-0.034061	0.992378
	H293	H	-0.045734	-0.043766	0.997005
	O294	O	0.941353	0.971749	0.127721
	H295	H	0.946229	0.971671	0.134260
	H296	H	0.944873	0.965319	0.130361
	O297	O	1.108707	1.013706	0.030583
	H298	H	1.101473	1.010286	0.031468
	H299	H	1.097100	1.013870	0.032356
	O300	O	0.504309	0.389186	0.465122
	H301	H	0.502875	0.386204	0.454054
	H302	H	0.511818	0.394206	0.459124
	O303	O	0.575668	0.565047	0.429603
	H304	H	0.588420	0.571206	0.435065
	H305	H	0.577317	0.556433	0.440043
	O306	O	0.557948	0.519802	0.365823
	H307	H	0.567440	0.510502	0.374332
	H308	H	0.564189	0.522718	0.364038
	O309	O	0.527155	0.443495	0.629890
	H310	H	0.515425	0.433495	0.630012
	H311	H	0.526745	0.434679	0.624249
	O312	O	1.094843	0.961622	0.984860
	H313	H	1.089320	0.960400	0.984380
	H314	H	1.098172	0.970173	0.984281
	O315	O	0.943348	0.927884	0.054029
	H316	H	0.945053	0.929617	0.065970
	H317	H	0.927021	0.914579	0.055378
	O318	O	0.554683	0.523323	0.410257
	H319	H	0.550672	0.530151	0.401043
	H320	H	0.548244	0.520621	0.414615
	O321	O	0.549625	0.420948	0.430065
	H322	H	0.542459	0.427162	0.426291
	H323	H	0.537920	0.423982	0.426419
	O324	O	0.015068	1.107925	0.870384
	H325	H	0.012520	1.118016	0.869602
	H326	H	0.011504	1.098286	0.875730
	O327	O	0.150854	1.078303	1.081392
	H328	H	0.157269	1.091075	1.083032
	H329	H	0.137474	1.082184	1.086170
	O330	O	0.075680	-0.070532	0.110015
	H331	H	0.074685	-0.064079	0.103375
	H332	H	0.080232	-0.052336	0.105042
	O333	O	0.420214	0.408601	0.468447
	H334	H	0.422906	0.409640	0.465157
	H335	H	0.411383	0.410334	0.467866
	O336	O	-0.070747	-0.094807	0.010219
	H337	H	-0.071933	-0.098280	0.018454
	H338	H	-0.065947	-0.087335	0.005169
	O339	O	0.134370	-0.114891	-0.049874
	H340	H	0.139204	-0.102953	-0.045136
	H341	H	0.144685	-0.106396	-0.056763
	O342	O	0.426686	0.689177	0.520002
	H343	H	0.429780	0.693943	0.525497
	H344	H	0.430455	0.703755	0.512451
	O345	O	-0.054587	1.065916	0.863890
	H346	H	-0.066742	1.062473	0.864575
	H347	H	-0.061024	1.058049	0.866207
	O348	O	0.418405	0.517896	0.551792
	H349	H	0.419377	0.527218	0.539472
	H350	H	0.421488	0.523418	0.549252
	O351	O	0.507027	0.576434	0.445847
	H352	H	0.519439	0.581074	0.450562
	H353	H	0.495635	0.577286	0.441135
	O354	O	0.067401	0.985657	-0.073571
	H355	H	0.071044	0.979629	-0.065516
	H356	H	0.065294	0.991113	-0.071017
	O357	O	0.469283	0.608404	0.515221
	H358	H	0.474562	0.606389	0.510013
	H359	H	0.472155	0.617046	0.506036
	O360	O	1.038030	0.063832	1.005587
	H361	H	1.035838	0.062335	0.999036
	H362	H	1.038749	0.067206	0.998361
	O363	O	0.617299	0.556283	0.524023
	H364	H	0.617120	0.551658	0.526860
	H365	H	0.629140	0.552654	0.535922
	O366	O	0.546050	0.548649	0.572015
	H367	H	0.543097	0.553224	0.567041
	H368	H	0.537198	0.531040	0.580558
	O369	O	0.893525	-0.100546	-0.042958
	H370	H	0.893169	-0.106183	-0.060591
	H371	H	0.894988	-0.115665	-0.035332
	O372	O	0.536876	0.544172	0.471258
	H373	H	0.532425	0.535828	0.470523
	H374	H	0.535343	0.536843	0.482510
	O375	O	1.040883	-0.080272	1.071616
	H376	H	1.049855	-0.073401	1.073335
	H377	H	1.054036	-0.075938	1.078572
	O378	O	-0.154149	1.066770	-0.059880
	H379	H	-0.166688	1.062973	-0.065478
	H380	H	-0.150228	1.082867	-0.068135
	O381	O	0.460112	0.355053	0.525378
	H382	H	0.445764	0.359313	0.536186
	H383	H	0.446938	0.343442	0.539418
	O384	O	0.934554	1.079333	0.004498
	H385	H	0.932461	1.077681	-0.001059
	H386	H	0.913886	1.075766	0.008642
	O387	O	0.951525	-0.032507	0.994130
	H388	H	0.960509	-0.043035	0.988020
	H389	H	0.957634	-0.029241	0.998639
	O390	O	0.876234	1.123139	-0.019613
	H391	H	0.866601	1.112559	-0.024875
	H392	H	0.873788	1.126542	-0.026430
	O393	O	0.418140	0.453766	0.531009
	H394	H	0.407859	0.455184	0.531507
	H395	H	0.418610	0.462344	0.525876
