data_Molecule from HDF5

_cell_length_a		16.300449
_cell_length_b		16.275402
_cell_length_c		16.205955
_cell_angle_alpha	90.079352
_cell_angle_beta	90.039797
_cell_angle_gamma	90.027155
_symmetry_space_group_name_H-M	'P 1'
_symmetry_Int_Tables_number		1

loop_
	_symmetry_equiv_pos_as_xyz
	x,y,z

loop_
	_atom_site_label
	_atom_site_type_symbol
	_atom_site_fract_x
	_atom_site_fract_y
	_atom_site_fract_z
	H0	H	0.402422	0.835989	0.713504
	H1	H	0.597564	0.164103	0.714141
	H2	H	0.597730	0.835472	0.286652
	H3	H	0.402866	0.163730	0.286527
	H4	H	0.712478	0.402711	0.835198
	H5	H	0.714001	0.598493	0.164678
	H6	H	0.285810	0.598934	0.835798
	H7	H	0.284781	0.401170	0.164013
	H8	H	0.835774	0.713978	0.402031
	H9	H	0.164151	0.713897	0.598398
	H10	H	0.836314	0.285032	0.597871
	H11	H	0.163167	0.284770	0.400436
	H12	H	0.835535	0.403666	0.712576
	H13	H	0.164153	0.597499	0.714044
	H14	H	0.835314	0.595867	0.287027
	H15	H	0.163917	0.403094	0.286691
	H16	H	0.403780	0.712221	0.835703
	H17	H	0.597406	0.713749	0.164896
	H18	H	0.596376	0.287120	0.834710
	H19	H	0.402271	0.286993	0.164787
	H20	H	0.714397	0.836598	0.401014
	H21	H	0.714670	0.163538	0.599519
	H22	H	0.285748	0.836373	0.598189
	H23	H	0.285720	0.163792	0.401003
	H24	H	0.904079	0.334857	0.211398
	H25	H	0.097330	0.664322	0.214546
	H26	H	0.096156	0.335780	0.786758
	H27	H	0.904011	0.664923	0.787528
	H28	H	0.213533	0.902655	0.335370
	H29	H	0.213776	0.097878	0.664826
	H30	H	0.785701	0.098896	0.336177
	H31	H	0.785885	0.901890	0.664226
	H32	H	0.336345	0.214361	0.901098
	H33	H	0.663710	0.214570	0.098157
	H34	H	0.336001	0.786220	0.097635
	H35	H	0.663727	0.785194	0.901486
	H36	H	0.335442	0.902598	0.212926
	H37	H	0.663864	0.097003	0.213964
	H38	H	0.335765	0.096596	0.787129
	H39	H	0.664197	0.903683	0.787275
	H40	H	0.903199	0.212763	0.334595
	H41	H	0.098940	0.214434	0.664652
	H42	H	0.097443	0.787165	0.334858
	H43	H	0.902305	0.786494	0.664429
	H44	H	0.213567	0.336305	0.901027
	H45	H	0.214977	0.663699	0.099617
	H46	H	0.785900	0.336448	0.097472
	H47	H	0.785120	0.664065	0.901562
	H48	H	0.401001	0.117667	0.591568
	H49	H	0.592617	0.883192	0.594407
	H50	H	0.605901	0.119041	0.410668
	H51	H	0.410225	0.883943	0.406202
	H52	H	0.588499	0.409596	0.115232
	H53	H	0.584592	0.588428	0.886462
	H54	H	0.404713	0.592815	0.117997
	H55	H	0.404319	0.407507	0.881909
	H56	H	0.117379	0.595783	0.405672
	H57	H	0.883740	0.592358	0.592860
	H58	H	0.116870	0.403741	0.592563
	H59	H	0.884042	0.412113	0.401777
	H60	H	0.115625	0.407469	0.591694
	H61	H	0.882863	0.594501	0.595785
	H62	H	0.115593	0.594103	0.409347
	H63	H	0.879661	0.398483	0.403302
	H64	H	0.407470	0.592244	0.117365
	H65	H	0.593138	0.604369	0.879726
	H66	H	0.592917	0.401396	0.118807
	H67	H	0.407307	0.408766	0.882728
	H68	H	0.590546	0.119441	0.394799
	H69	H	0.593588	0.883965	0.591355
	H70	H	0.408263	0.117842	0.598252
	H71	H	0.404151	0.883802	0.410481
	H72	H	0.913559	0.617493	0.101231
	H73	H	0.106528	0.380166	0.092625
	H74	H	0.098099	0.617985	0.909322
	H75	H	0.903206	0.385283	0.915151
	H76	H	0.091441	0.899459	0.619064
	H77	H	0.085381	0.105437	0.381231
	H78	H	0.914919	0.091893	0.614749
	H79	H	0.900648	0.897505	0.377879
	H80	H	0.614349	0.091893	0.912805
	H81	H	0.387652	0.088311	0.083582
	H82	H	0.614269	0.911117	0.092271
	H83	H	0.381147	0.901199	0.902581
	H84	H	0.618771	0.905083	0.099059
	H85	H	0.382203	0.087195	0.104146
	H86	H	0.617087	0.090664	0.901381
	H87	H	0.384401	0.904096	0.913243
	H88	H	0.905019	0.101155	0.620094
	H89	H	0.107965	0.091590	0.379055
	H90	H	0.100880	0.908427	0.618945
	H91	H	0.902070	0.916536	0.383627
	H92	H	0.093431	0.618259	0.902137
	H93	H	0.087463	0.381412	0.104024
	H94	H	0.908850	0.613165	0.083650
	H95	H	0.900656	0.380239	0.900877
	H96	H	0.410018	0.114658	0.589348
	H97	H	0.595493	0.882530	0.593528
	H98	H	0.585095	0.111950	0.415189
	H99	H	0.403649	0.881229	0.403631
	H100	H	0.598050	0.409746	0.118167
	H101	H	0.603674	0.587662	0.881870
	H102	H	0.406743	0.594827	0.118428
	H103	H	0.407184	0.405341	0.882881
	H104	H	0.116558	0.591739	0.404848
	H105	H	0.883582	0.596415	0.592911
	H106	H	0.117262	0.407157	0.594843
	H107	H	0.885265	0.405752	0.414349
	H108	H	0.896095	0.620718	0.095101
	H109	H	0.088062	0.387969	0.082248
	H110	H	0.090096	0.614955	0.909683
	H111	H	0.914076	0.384895	0.904275
	H112	H	0.089004	0.912007	0.614230
	H113	H	0.085586	0.080147	0.389466
	H114	H	0.901263	0.087562	0.616815
	H115	H	0.917894	0.904677	0.385701
	H116	H	0.618246	0.100526	0.906483
	H117	H	0.379655	0.105588	0.093734
	H118	H	0.616952	0.901949	0.089801
	H119	H	0.384682	0.912188	0.904488
	C120	C	0.378260	0.008509	0.621447
	C121	C	0.621904	0.991690	0.621738
	C122	C	0.621855	0.008258	0.378333
	C123	C	0.378121	0.991413	0.378538
	C124	C	0.621260	0.378800	0.008436
	C125	C	0.621677	0.621654	0.991619
	C126	C	0.378525	0.621317	0.008942
	C127	C	0.378123	0.378808	0.991487
	C128	C	0.007990	0.621656	0.378277
	C129	C	0.991891	0.622108	0.621791
	C130	C	0.008202	0.378016	0.621211
	C131	C	0.991271	0.377917	0.378134
	C132	C	0.878407	0.508555	0.121267
	C133	C	0.121629	0.491820	0.121541
	C134	C	0.121703	0.508533	0.878532
	C135	C	0.878123	0.492046	0.878556
	C136	C	0.121638	0.878722	0.508453
	C137	C	0.121744	0.121281	0.491860
	C138	C	0.879019	0.121236	0.508331
	C139	C	0.878933	0.878475	0.491405
	C140	C	0.508279	0.121903	0.878435
	C141	C	0.491617	0.121257	0.121836
	C142	C	0.508355	0.878114	0.121698
	C143	C	0.491610	0.878133	0.878499
	C144	C	0.381634	0.884854	0.675887
	C145	C	0.618097	0.115212	0.676045
	C146	C	0.618532	0.884756	0.323846
	C147	C	0.381781	0.115024	0.324044
	C148	C	0.675471	0.381839	0.884334
	C149	C	0.676065	0.618878	0.115826
	C150	C	0.324283	0.618453	0.884813
	C151	C	0.323328	0.381222	0.115314
	C152	C	0.884531	0.676031	0.381401
	C153	C	0.115251	0.676381	0.618740
	C154	C	0.884950	0.323138	0.618671
	C155	C	0.114622	0.323249	0.380616
	C156	C	0.884934	0.381719	0.675745
	C157	C	0.115469	0.618418	0.676117
	C158	C	0.884348	0.617564	0.324256
	C159	C	0.114844	0.381549	0.323835
	C160	C	0.382333	0.675212	0.884786
	C161	C	0.618180	0.675724	0.115920
	C162	C	0.617999	0.324289	0.884201
	C163	C	0.381495	0.324366	0.115431
	C164	C	0.676524	0.885156	0.380899
	C165	C	0.676794	0.114869	0.619534
	C166	C	0.323605	0.885071	0.618806
	C167	C	0.323666	0.114906	0.380942
	C168	C	0.882281	0.384563	0.174861
	C169	C	0.117924	0.615417	0.176446
	C170	C	0.117625	0.384849	0.824215
	C171	C	0.881998	0.615536	0.824280
	C172	C	0.176298	0.881719	0.384487
	C173	C	0.176478	0.118920	0.615676
	C174	C	0.823694	0.118939	0.384698
	C175	C	0.824101	0.881598	0.615183
	C176	C	0.385105	0.176475	0.880851
	C177	C	0.614973	0.176081	0.118745
	C178	C	0.384856	0.823698	0.118480
	C179	C	0.615032	0.823321	0.881195
	C180	C	0.384565	0.881788	0.175595
	C181	C	0.615015	0.118055	0.176612
	C182	C	0.384660	0.118060	0.824256
	C183	C	0.615229	0.881891	0.824267
	C184	C	0.881868	0.175435	0.384164
	C185	C	0.119096	0.176523	0.615598
	C186	C	0.118334	0.824689	0.384170
	C187	C	0.881918	0.824385	0.615560
	C188	C	0.176152	0.385171	0.880794
	C189	C	0.176205	0.615105	0.119269
	C190	C	0.823866	0.384876	0.118121
	C191	C	0.823498	0.615330	0.881373
	C192	C	0.400096	0.094545	0.599572
	C193	C	0.600297	0.905427	0.599690
	C194	C	0.600241	0.094869	0.400334
	C195	C	0.399524	0.905167	0.400380
	C196	C	0.599534	0.400614	0.095118
	C197	C	0.600331	0.599854	0.905061
	C198	C	0.399981	0.599599	0.095675
	C199	C	0.399844	0.400778	0.904823
	C200	C	0.094167	0.600186	0.400188
	C201	C	0.905524	0.600679	0.600294
	C202	C	0.094320	0.399674	0.599416
	C203	C	0.905082	0.399177	0.400045
	C204	C	0.899861	0.594828	0.099568
	C205	C	0.100267	0.405350	0.099526
	C206	C	0.100262	0.594788	0.900625
	C207	C	0.899483	0.405665	0.900290
	C208	C	0.100161	0.900342	0.595211
	C209	C	0.099533	0.099014	0.405421
	C210	C	0.900642	0.099713	0.594859
	C211	C	0.900577	0.900092	0.404808
	C212	C	0.594249	0.100484	0.900342
	C213	C	0.405397	0.100083	0.100259
	C214	C	0.594437	0.899588	0.100082
	C215	C	0.405606	0.899584	0.900306
	Zn216	Zn	0.499826	0.000123	0.749840
	Zn217	Zn	0.499792	-0.000417	0.250782
	Zn218	Zn	0.749558	0.500179	0.000291
	Zn219	Zn	0.250625	0.500238	-0.000154
	Zn220	Zn	0.000258	0.750399	0.499950
	Zn221	Zn	0.000239	0.249382	0.499636
	Zn222	Zn	0.000076	0.499980	0.749832
	Zn223	Zn	-0.000275	0.499650	0.249765
	Zn224	Zn	0.500221	0.749294	0.000231
	Zn225	Zn	0.499751	0.250652	-0.000381
	Zn226	Zn	0.750638	0.000063	0.499599
	Zn227	Zn	0.249544	0.000238	0.500239
	N228	N	0.415052	0.962483	0.677529
	N229	N	0.584634	0.037533	0.677487
	N230	N	0.584998	0.962424	0.322452
	N231	N	0.414988	0.037254	0.322504
	N232	N	0.677699	0.414842	0.962627
	N233	N	0.678153	0.585728	0.037641
	N234	N	0.321691	0.585769	0.963178
	N235	N	0.321331	0.414387	0.037234
	N236	N	0.962636	0.678951	0.413927
	N237	N	0.037421	0.678933	0.585896
	N238	N	0.962634	0.320631	0.585547
	N239	N	0.036750	0.320923	0.413836
	N240	N	0.962514	0.415120	0.677327
	N241	N	0.037746	0.585381	0.678293
	N242	N	0.961935	0.584413	0.322445
	N243	N	0.037460	0.414942	0.322480
	N244	N	0.415407	0.676843	0.962927
	N245	N	0.585323	0.677796	0.037692
	N246	N	0.584870	0.322414	0.962309
	N247	N	0.414827	0.322751	0.037366
	N248	N	0.678573	0.962974	0.414030
	N249	N	0.678966	0.037105	0.586156
	N250	N	0.321579	0.962864	0.585662
	N251	N	0.321144	0.037072	0.413932
	N252	N	0.915750	0.462203	0.176608
	N253	N	0.084736	0.537508	0.177917
	N254	N	0.084322	0.462520	0.822790
	N255	N	0.915363	0.537899	0.822638
	N256	N	0.178302	0.914763	0.462683
	N257	N	0.178053	0.085401	0.537836
	N258	N	0.821894	0.085961	0.462913
	N259	N	0.822122	0.914480	0.537059
	N260	N	0.462692	0.178770	0.913968
	N261	N	0.537177	0.178460	0.085524
	N262	N	0.462764	0.821277	0.085742
	N263	N	0.537297	0.821033	0.914274
	N264	N	0.462292	0.914917	0.177782
	N265	N	0.537497	0.084650	0.178499
	N266	N	0.462363	0.084889	0.822502
	N267	N	0.537610	0.915295	0.822505
	N268	N	0.915763	0.176796	0.461897
	N269	N	0.085633	0.178021	0.537468
	N270	N	0.085043	0.822721	0.462248
	N271	N	0.915163	0.822279	0.537555
	N272	N	0.178774	0.463093	0.913910
	N273	N	0.178574	0.537357	0.085793
	N274	N	0.821284	0.462966	0.085551
	N275	N	0.821063	0.537542	0.914304
