data_Molecule from HDF5

_cell_length_a		16.088512
_cell_length_b		16.241089
_cell_length_c		16.545298
_cell_angle_alpha	89.936434
_cell_angle_beta	90.005983
_cell_angle_gamma	90.206449
_symmetry_space_group_name_H-M	'P 1'
_symmetry_Int_Tables_number		1

loop_
	_symmetry_equiv_pos_as_xyz
	x,y,z

loop_
	_atom_site_label
	_atom_site_type_symbol
	_atom_site_fract_x
	_atom_site_fract_y
	_atom_site_fract_z
	H0	H	0.400643	0.841023	0.708471
	H1	H	0.616188	0.162395	0.709896
	H2	H	0.613933	0.842038	0.267541
	H3	H	0.400628	0.162205	0.266468
	H4	H	0.728553	0.397203	0.829894
	H5	H	0.727722	0.604199	0.148425
	H6	H	0.289665	0.600725	0.828028
	H7	H	0.288955	0.399019	0.148598
	H8	H	0.844022	0.719215	0.387442
	H9	H	0.171471	0.720797	0.590477
	H10	H	0.844479	0.284440	0.591966
	H11	H	0.173477	0.292750	0.393671
	H12	H	0.845290	0.395981	0.709953
	H13	H	0.168983	0.610438	0.710977
	H14	H	0.847016	0.609202	0.267769
	H15	H	0.170173	0.397571	0.271124
	H16	H	0.402630	0.721564	0.828992
	H17	H	0.613207	0.723527	0.146781
	H18	H	0.610873	0.282418	0.829287
	H19	H	0.402728	0.279496	0.146676
	H20	H	0.724077	0.840283	0.387277
	H21	H	0.722181	0.166088	0.586955
	H22	H	0.291862	0.838956	0.585839
	H23	H	0.297460	0.167922	0.391873
	H24	H	0.900389	0.341619	0.211320
	H25	H	0.114006	0.663562	0.208724
	H26	H	0.111395	0.342084	0.769856
	H27	H	0.897847	0.661647	0.767356
	H28	H	0.222506	0.906089	0.326756
	H29	H	0.224895	0.101782	0.650117
	H30	H	0.790624	0.105444	0.327946
	H31	H	0.790640	0.903065	0.649747
	H32	H	0.342792	0.213713	0.889442
	H33	H	0.672258	0.216093	0.085945
	H34	H	0.343637	0.785542	0.087447
	H35	H	0.673239	0.788057	0.889751
	H36	H	0.344339	0.897066	0.206214
	H37	H	0.669602	0.108691	0.207491
	H38	H	0.344922	0.103381	0.771177
	H39	H	0.670041	0.896493	0.768313
	H40	H	0.908406	0.221739	0.328209
	H41	H	0.109908	0.220871	0.649822
	H42	H	0.109611	0.785313	0.328435
	H43	H	0.902186	0.781684	0.647433
	H44	H	0.218459	0.337533	0.893069
	H45	H	0.222544	0.665502	0.086044
	H46	H	0.793205	0.337646	0.087699
	H47	H	0.792476	0.664310	0.890986
	H48	H	0.419365	0.117675	0.580674
	H49	H	0.592989	0.887497	0.580557
	H50	H	0.589553	0.116134	0.395062
	H51	H	0.409104	0.885032	0.400642
	H52	H	0.596726	0.405500	0.102371
	H53	H	0.597951	0.587408	0.877934
	H54	H	0.410988	0.597484	0.104818
	H55	H	0.415468	0.405932	0.873909
	H56	H	0.121699	0.590363	0.402734
	H57	H	0.894218	0.586392	0.575658
	H58	H	0.121823	0.421436	0.581869
	H59	H	0.890685	0.414424	0.396941
	H60	H	0.126971	0.412608	0.587483
	H61	H	0.890460	0.588791	0.584539
	H62	H	0.125114	0.590266	0.393872
	H63	H	0.890189	0.412255	0.398383
	H64	H	0.414967	0.586889	0.099532
	H65	H	0.594338	0.597248	0.876309
	H66	H	0.601712	0.410703	0.102594
	H67	H	0.412045	0.407171	0.873379
	H68	H	0.599588	0.117642	0.401871
	H69	H	0.595917	0.887862	0.576137
	H70	H	0.416762	0.118546	0.582157
	H71	H	0.416444	0.883257	0.386996
	H72	H	0.923197	0.614774	0.077704
	H73	H	0.098410	0.384536	0.084900
	H74	H	0.095241	0.618297	0.896194
	H75	H	0.908452	0.382150	0.896073
	H76	H	0.098619	0.913928	0.601101
	H77	H	0.103257	0.101078	0.373519
	H78	H	0.911959	0.090953	0.602662
	H79	H	0.911860	0.911414	0.373193
	H80	H	0.628947	0.093060	0.888009
	H81	H	0.390669	0.090462	0.079311
	H82	H	0.622203	0.919412	0.078624
	H83	H	0.392760	0.914311	0.897705
	H84	H	0.626562	0.912217	0.085483
	H85	H	0.390821	0.089627	0.077680
	H86	H	0.625378	0.097643	0.903764
	H87	H	0.389564	0.911800	0.894709
	H88	H	0.921227	0.094242	0.600138
	H89	H	0.102238	0.097981	0.374451
	H90	H	0.096641	0.910216	0.601921
	H91	H	0.919518	0.917213	0.377859
	H92	H	0.095964	0.617571	0.899641
	H93	H	0.093885	0.385388	0.085666
	H94	H	0.914305	0.618485	0.079540
	H95	H	0.927242	0.386173	0.888317
	H96	H	0.419636	0.118927	0.583655
	H97	H	0.599066	0.886419	0.580580
	H98	H	0.599936	0.120576	0.390956
	H99	H	0.424560	0.890266	0.398492
	H100	H	0.595425	0.412580	0.099580
	H101	H	0.604343	0.594384	0.873462
	H102	H	0.423281	0.596278	0.100129
	H103	H	0.414268	0.408713	0.874565
	H104	H	0.126205	0.598295	0.399143
	H105	H	0.891065	0.595799	0.577479
	H106	H	0.124381	0.411454	0.577211
	H107	H	0.890721	0.414157	0.399968
	H108	H	0.921634	0.617655	0.085767
	H109	H	0.096639	0.386162	0.082146
	H110	H	0.099205	0.618958	0.898060
	H111	H	0.923399	0.389951	0.907330
	H112	H	0.101373	0.910851	0.603344
	H113	H	0.100564	0.099822	0.375261
	H114	H	0.913661	0.100238	0.604175
	H115	H	0.921541	0.907160	0.376098
	H116	H	0.620942	0.082319	0.898326
	H117	H	0.391203	0.088179	0.079576
	H118	H	0.624250	0.909574	0.074804
	H119	H	0.391321	0.909237	0.898297
	C120	C	0.386612	0.010933	0.610983
	C121	C	0.628168	0.993958	0.609526
	C122	C	0.628523	0.011251	0.366071
	C123	C	0.386407	0.993722	0.366307
	C124	C	0.629184	0.379100	-0.003510
	C125	C	0.630713	0.624194	0.980672
	C126	C	0.385342	0.623571	-0.003557
	C127	C	0.383842	0.377593	0.979622
	C128	C	0.016727	0.623936	0.367720
	C129	C	0.998985	0.623463	0.610489
	C130	C	0.016536	0.382396	0.612219
	C131	C	0.999257	0.383282	0.369470
	C132	C	0.887475	0.510157	0.111106
	C133	C	0.128776	0.492764	0.112572
	C134	C	0.127509	0.511252	0.868307
	C135	C	0.886660	0.492774	0.867181
	C136	C	0.129011	0.882163	0.496371
	C137	C	0.131321	0.127278	0.480637
	C138	C	0.885933	0.125875	0.496436
	C139	C	0.885269	0.880701	0.480826
	C140	C	0.516868	0.121576	0.866947
	C141	C	0.498982	0.121722	0.108865
	C142	C	0.516350	0.881634	0.109674
	C143	C	0.499212	0.881119	0.866962
	C144	C	0.383185	0.889168	0.668643
	C145	C	0.632139	0.114461	0.669257
	C146	C	0.631036	0.889874	0.307740
	C147	C	0.384326	0.115104	0.307630
	C148	C	0.688533	0.378461	0.877193
	C149	C	0.688662	0.623735	0.100581
	C150	C	0.327911	0.621675	0.875996
	C151	C	0.326977	0.378558	0.100212
	C152	C	0.893609	0.681422	0.367708
	C153	C	0.121973	0.682575	0.610627
	C154	C	0.893599	0.323138	0.611420
	C155	C	0.123628	0.328869	0.372441
	C156	C	0.893891	0.378746	0.670151
	C157	C	0.120878	0.627470	0.670405
	C158	C	0.894890	0.626372	0.308378
	C159	C	0.121894	0.381286	0.311633
	C160	C	0.384739	0.681219	0.876385
	C161	C	0.631576	0.683060	0.099862
	C162	C	0.630345	0.320854	0.877066
	C163	C	0.383936	0.319164	0.099192
	C164	C	0.686364	0.889320	0.367162
	C165	C	0.684923	0.116748	0.607854
	C166	C	0.328907	0.888356	0.607947
	C167	C	0.332527	0.117781	0.369757
	C168	C	0.883602	0.389205	0.170525
	C169	C	0.131060	0.615293	0.168875
	C170	C	0.129334	0.389831	0.809938
	C171	C	0.882337	0.613871	0.808165
	C172	C	0.184854	0.884917	0.375181
	C173	C	0.187062	0.123301	0.601936
	C174	C	0.828888	0.125284	0.376119
	C175	C	0.827861	0.882000	0.601113
	C176	C	0.392565	0.176883	0.869056
	C177	C	0.622542	0.178909	0.107027
	C178	C	0.393107	0.823642	0.108040
	C179	C	0.623216	0.824871	0.868852
	C180	C	0.393422	0.879049	0.167182
	C181	C	0.621089	0.125118	0.167391
	C182	C	0.393438	0.121539	0.810415
	C183	C	0.622012	0.879145	0.808769
	C184	C	0.887782	0.183175	0.376281
	C185	C	0.129690	0.182355	0.601834
	C186	C	0.128666	0.824831	0.375892
	C187	C	0.883927	0.821801	0.600206
	C188	C	0.182475	0.387578	0.871267
	C189	C	0.185248	0.616236	0.107935
	C190	C	0.830210	0.387193	0.109105
	C191	C	0.829626	0.615019	0.869434
	C192	C	0.411525	0.096170	0.588780
	C193	C	0.603068	0.909201	0.585793
	C194	C	0.603458	0.095979	0.389172
	C195	C	0.409930	0.908488	0.388607
	C196	C	0.605056	0.402926	0.079848
	C197	C	0.606171	0.599994	0.897543
	C198	C	0.409415	0.600262	0.079957
	C199	C	0.407144	0.400788	0.895588
	C200	C	0.102216	0.599849	0.391593
	C201	C	0.914081	0.597717	0.586383
	C202	C	0.102046	0.407861	0.589030
	C203	C	0.912896	0.406837	0.391816
	C204	C	0.912399	0.594982	0.087826
	C205	C	0.103839	0.407490	0.090729
	C206	C	0.103735	0.596496	0.891179
	C207	C	0.912395	0.407913	0.890292
	C208	C	0.105641	0.904765	0.580082
	C209	C	0.108621	0.105868	0.396335
	C210	C	0.908895	0.102195	0.580577
	C211	C	0.910237	0.904988	0.397288
	C212	C	0.602776	0.098060	0.889865
	C213	C	0.412926	0.096484	0.085747
	C214	C	0.602089	0.906648	0.086572
	C215	C	0.413486	0.904889	0.890190
	Zn216	Zn	0.508355	0.001108	0.738960
	Zn217	Zn	0.506958	0.002094	0.237925
	Zn218	Zn	0.759571	0.500694	-0.011056
	Zn219	Zn	0.255450	0.501016	-0.011035
	Zn220	Zn	0.007461	0.751402	0.488808
	Zn221	Zn	0.008665	0.256527	0.489368
	Zn222	Zn	0.007282	0.503133	0.739395
	Zn223	Zn	0.008084	0.502282	0.240756
	Zn224	Zn	0.508121	0.753543	-0.012155
	Zn225	Zn	0.507644	0.249021	-0.012131
	Zn226	Zn	0.755982	0.003218	0.488083
	Zn227	Zn	0.259562	0.003738	0.487877
	N228	N	0.418262	0.966466	0.670821
	N229	N	0.597387	0.036828	0.670644
	N230	N	0.595802	0.966845	0.306775
	N231	N	0.416990	0.036917	0.305135
	N232	N	0.688096	0.413991	0.952529
	N233	N	0.688134	0.587647	0.025383
	N234	N	0.328264	0.586440	0.951573
	N235	N	0.326982	0.414187	0.024906
	N236	N	0.970432	0.679864	0.403985
	N237	N	0.045432	0.680135	0.573931
	N238	N	0.970873	0.325381	0.575850
	N239	N	0.046276	0.329878	0.407554
	N240	N	0.971302	0.414923	0.670770
	N241	N	0.043387	0.591412	0.670550
	N242	N	0.972392	0.591219	0.308242
	N243	N	0.043291	0.414446	0.309621
	N244	N	0.419684	0.682749	0.952276
	N245	N	0.596223	0.683285	0.024398
	N246	N	0.593642	0.321564	0.952036
	N247	N	0.418559	0.318333	0.023068
	N248	N	0.684753	0.965826	0.402893
	N249	N	0.682618	0.040985	0.571297
	N250	N	0.330552	0.965123	0.572951
	N251	N	0.333573	0.041387	0.405534
	N252	N	0.918303	0.466628	0.172119
	N253	N	0.096886	0.537436	0.171910
	N254	N	0.095796	0.467615	0.808175
	N255	N	0.916902	0.536470	0.806473
	N256	N	0.185353	0.919609	0.450877
	N257	N	0.188195	0.089853	0.525730
	N258	N	0.827884	0.090389	0.451926
	N259	N	0.828752	0.917925	0.525777
	N260	N	0.470268	0.177095	0.903544
	N261	N	0.545394	0.176882	0.071225
	N262	N	0.470502	0.824966	0.073086
	N263	N	0.545852	0.826073	0.904311
	N264	N	0.471377	0.914243	0.168458
	N265	N	0.542977	0.090413	0.168512
	N266	N	0.471836	0.088088	0.808787
	N267	N	0.543919	0.913163	0.807255
	N268	N	0.922302	0.184027	0.452335
	N269	N	0.095987	0.185194	0.525450
	N270	N	0.094707	0.822745	0.452289
	N271	N	0.918630	0.820704	0.524200
	N272	N	0.181378	0.464073	0.906980
	N273	N	0.183961	0.539132	0.073690
	N274	N	0.832092	0.463525	0.073095
	N275	N	0.831985	0.538733	0.905186
	O276	O	0.024442	-0.048553	-0.163843
	H277	H	0.020647	-0.061244	-0.178135
	H278	H	0.035057	-0.044848	-0.163202
	O279	O	1.094555	0.005003	0.993296
	H280	H	1.101683	0.008768	0.993000
	H281	H	1.091436	0.003520	0.994706
	O282	O	1.098621	-0.030848	-0.065204
	H283	H	1.093275	-0.019925	-0.063253
	H284	H	1.101120	-0.025660	-0.066653
	O285	O	0.024484	0.884210	0.000815
	H286	H	0.032810	0.891523	-0.005991
	H287	H	0.023200	0.872119	-0.010193
	O288	O	0.447415	0.425629	0.649900
	H289	H	0.447167	0.437241	0.652639
	H290	H	0.437024	0.428719	0.632564
	O291	O	0.367854	0.624958	0.464456
	H292	H	0.388253	0.625247	0.459338
	H293	H	0.358295	0.632947	0.467668
	O294	O	0.961630	0.969028	1.072362
	H295	H	0.960275	0.960633	1.065453
	H296	H	0.951261	0.967994	1.074908
	O297	O	-0.054485	-0.025397	-0.055731
	H298	H	-0.048472	-0.024682	-0.057806
	H299	H	-0.048359	-0.026475	-0.049847
	O300	O	0.674249	0.425097	0.433066
	H301	H	0.662954	0.415687	0.434760
	H302	H	0.665782	0.444001	0.426186
	O303	O	0.062297	1.011577	1.019668
	H304	H	0.073154	1.010507	1.019128
	H305	H	0.066857	1.014427	1.020281
	O306	O	0.612485	0.547253	0.641307
	H307	H	0.600212	0.542887	0.641372
	H308	H	0.632368	0.538353	0.645164
	O309	O	0.945150	0.048497	-0.063261
	H310	H	0.940066	0.051196	-0.062600
	H311	H	0.942010	0.049372	-0.075616
	O312	O	0.070668	0.003046	1.036324
	H313	H	0.069174	0.002364	1.041605
	H314	H	0.067168	-0.002031	1.036914
	O315	O	0.325991	0.573941	0.286786
	H316	H	0.317915	0.561977	0.265250
	H317	H	0.328138	0.588121	0.280142
	O318	O	0.515417	0.492821	0.560417
	H319	H	0.507276	0.507763	0.570707
	H320	H	0.540182	0.468094	0.568706
	O321	O	0.498488	0.418017	0.654492
	H322	H	0.497087	0.389667	0.650218
	H323	H	0.499586	0.432314	0.651765
	O324	O	0.440484	0.421021	0.642744
	H325	H	0.429306	0.427873	0.650103
	H326	H	0.437085	0.406847	0.650373
	O327	O	-0.006599	1.019525	1.079120
	H328	H	-0.001042	1.022067	1.073526
	H329	H	-0.009452	1.020583	1.085590
	O330	O	0.643040	0.543752	0.573641
	H331	H	0.643347	0.545910	0.546662
	H332	H	0.662647	0.523761	0.579208
	O333	O	-0.406654	0.575291	1.367899
	H334	H	-0.391063	0.560179	1.363891
	H335	H	-0.407400	0.584386	1.364238
	O336	O	1.014922	1.101449	1.001043
	H337	H	1.013521	1.090139	1.008417
	H338	H	1.020900	1.106353	1.005547
	O339	O	0.545812	0.612221	0.545526
	H340	H	0.552035	0.609608	0.544492
	H341	H	0.540296	0.623310	0.562529
	O342	O	0.917632	-0.117802	0.111856
	H343	H	0.918815	-0.109573	0.108583
	H344	H	0.915157	-0.128485	0.100675
	O345	O	0.421584	0.390578	0.572012
	H346	H	0.421040	0.384037	0.564622
	H347	H	0.421888	0.387730	0.584355
	O348	O	0.977746	1.007611	0.972248
	H349	H	0.973341	1.003856	0.975710
	H350	H	0.977300	1.020447	0.965718
	O351	O	0.997659	0.951341	-0.037058
	H352	H	0.999789	0.941356	-0.040731
	H353	H	1.003472	0.945142	-0.039840
	O354	O	0.636077	0.480826	0.415933
	H355	H	0.645473	0.476984	0.409962
	H356	H	0.629644	0.476747	0.414925
	O357	O	0.623605	0.545570	0.419106
	H358	H	0.626880	0.555005	0.425459
	H359	H	0.616302	0.534759	0.413059
	O360	O	-0.484022	0.586678	-0.571259
	H361	H	-0.473076	0.601714	-0.574933
	H362	H	-0.483740	0.583001	-0.553335
	O363	O	0.526548	0.611605	0.424669
	H364	H	0.518178	0.608241	0.423208
	H365	H	0.522611	0.625934	0.434033
	O366	O	0.474010	0.570170	0.325476
	H367	H	0.464684	0.586388	0.320686
	H368	H	0.465762	0.579263	0.338327
	O369	O	0.334179	0.349339	0.483142
	H370	H	0.344522	0.348912	0.484600
	H371	H	0.332291	0.358633	0.489247
	O372	O	0.604037	0.590580	0.512999
	H373	H	0.606141	0.579910	0.485232
	H374	H	0.601895	0.609547	0.513932
	O375	O	-0.500703	0.680948	1.650161
	H376	H	-0.475617	0.673105	1.646832
	H377	H	-0.492923	0.694961	1.656658
	O378	O	0.552618	0.415013	0.327821
	H379	H	0.558673	0.404885	0.332125
	H380	H	0.555371	0.416755	0.321539
	O381	O	0.309615	0.611133	0.456383
	H382	H	0.293599	0.616201	0.447741
	H383	H	0.315582	0.611665	0.475381
	O384	O	0.530978	0.341044	-0.647602
	H385	H	0.533352	0.351959	-0.652816
	H386	H	0.530672	0.341510	-0.648372
	O387	O	1.029996	-0.001885	1.014486
	H388	H	1.028015	0.007807	1.017163
	H389	H	1.025675	-0.006840	1.009220
	O390	O	-0.845191	0.206647	0.767446
	H391	H	-0.842255	0.199800	0.780770
	H392	H	-0.842349	0.215712	0.764476
	O393	O	1.040657	0.940497	-0.010672
	H394	H	1.035124	0.947156	-0.010928
	H395	H	1.038805	0.935945	-0.009310
	O396	O	0.414912	0.523325	0.381081
	H397	H	0.410720	0.522992	0.392324
	H398	H	0.415264	0.509519	0.388412
	O399	O	-0.001438	1.035064	1.025551
	H400	H	-0.009766	1.028696	1.033364
	H401	H	0.009952	1.045887	1.029098
	O402	O	0.983001	1.014711	0.973803
	H403	H	0.990823	1.017474	0.974793
	H404	H	0.978006	1.011824	0.983348
	O405	O	0.646702	1.386910	0.552820
	H406	H	0.636207	1.383816	0.521829
	H407	H	0.638617	1.362035	0.563448
