data_Molecule from HDF5

_cell_length_a		16.454773
_cell_length_b		16.408098
_cell_length_c		16.423375
_cell_angle_alpha	89.987911
_cell_angle_beta	90.053134
_cell_angle_gamma	90.055620
_symmetry_space_group_name_H-M	'P 1'
_symmetry_Int_Tables_number		1

loop_
	_symmetry_equiv_pos_as_xyz
	x,y,z

loop_
	_atom_site_label
	_atom_site_type_symbol
	_atom_site_fract_x
	_atom_site_fract_y
	_atom_site_fract_z
	H0	H	0.397503	0.852081	0.721811
	H1	H	0.613648	0.167600	0.726498
	H2	H	0.609024	0.852065	0.280851
	H3	H	0.396031	0.166997	0.274356
	H4	H	0.730852	0.396958	0.842858
	H5	H	0.726065	0.613583	0.156030
	H6	H	0.278774	0.619355	0.842177
	H7	H	0.279563	0.400168	0.155720
	H8	H	0.846860	0.732153	0.394090
	H9	H	0.160876	0.737652	0.609379
	H10	H	0.848481	0.286877	0.608366
	H11	H	0.161671	0.287611	0.391423
	H12	H	0.848093	0.402815	0.723421
	H13	H	0.161497	0.621655	0.724721
	H14	H	0.847950	0.615513	0.277441
	H15	H	0.162276	0.404287	0.277602
	H16	H	0.394954	0.734517	0.842126
	H17	H	0.609255	0.728479	0.157013
	H18	H	0.612723	0.283671	0.842200
	H19	H	0.396897	0.285944	0.156471
	H20	H	0.727371	0.854209	0.394647
	H21	H	0.728074	0.169808	0.609026
	H22	H	0.277918	0.855593	0.610305
	H23	H	0.281141	0.168599	0.391050
	H24	H	0.897849	0.352401	0.223686
	H25	H	0.111177	0.668640	0.220900
	H26	H	0.114490	0.354756	0.772141
	H27	H	0.896626	0.668764	0.777133
	H28	H	0.229255	0.903315	0.343794
	H29	H	0.229411	0.122273	0.656632
	H30	H	0.780602	0.121665	0.342448
	H31	H	0.780945	0.904846	0.656960
	H32	H	0.348269	0.233128	0.890930
	H33	H	0.661059	0.234192	0.109110
	H34	H	0.346743	0.787524	0.104340
	H35	H	0.663623	0.788825	0.895789
	H36	H	0.346429	0.904206	0.220879
	H37	H	0.661479	0.116793	0.223380
	H38	H	0.348156	0.117255	0.775363
	H39	H	0.663187	0.902378	0.777804
	H40	H	0.897941	0.234327	0.341960
	H41	H	0.110612	0.234589	0.657536
	H42	H	0.110399	0.790366	0.342535
	H43	H	0.894926	0.786353	0.656388
	H44	H	0.229149	0.353847	0.887554
	H45	H	0.228410	0.666796	0.105406
	H46	H	0.783371	0.350356	0.106482
	H47	H	0.780266	0.666732	0.891976
	H48	H	0.424188	0.122074	0.590791
	H49	H	0.595038	0.897631	0.588488
	H50	H	0.592421	0.124538	0.410928
	H51	H	0.414377	0.899313	0.417616
	H52	H	0.596827	0.423397	0.111599
	H53	H	0.595236	0.598083	0.883768
	H54	H	0.418766	0.596187	0.110381
	H55	H	0.422031	0.427895	0.889763
	H56	H	0.116490	0.601177	0.415723
	H57	H	0.892451	0.593790	0.593364
	H58	H	0.115749	0.427510	0.586402
	H59	H	0.896423	0.432292	0.415917
	H60	H	0.117747	0.423607	0.587477
	H61	H	0.888603	0.607551	0.589290
	H62	H	0.119139	0.596652	0.407367
	H63	H	0.889299	0.424448	0.402334
	H64	H	0.415709	0.599260	0.111616
	H65	H	0.592612	0.594245	0.885776
	H66	H	0.590251	0.423376	0.109663
	H67	H	0.420192	0.416815	0.886555
	H68	H	0.591111	0.124598	0.411250
	H69	H	0.592484	0.898676	0.588412
	H70	H	0.418604	0.120871	0.581592
	H71	H	0.412520	0.895857	0.410333
	H72	H	0.918103	0.619064	0.080252
	H73	H	0.092038	0.396977	0.085020
	H74	H	0.094495	0.623620	0.911440
	H75	H	0.917669	0.396471	0.908349
	H76	H	0.101440	0.933536	0.613418
	H77	H	0.091015	0.100689	0.386901
	H78	H	0.913480	0.100764	0.613706
	H79	H	0.917240	0.922191	0.386764
	H80	H	0.616728	0.093890	0.910972
	H81	H	0.393183	0.097131	0.084680
	H82	H	0.617319	0.921535	0.090510
	H83	H	0.392540	0.928208	0.905316
	H84	H	0.619571	0.917724	0.092972
	H85	H	0.392317	0.094106	0.087998
	H86	H	0.617776	0.099116	0.913725
	H87	H	0.388883	0.912930	0.907723
	H88	H	0.916786	0.096598	0.611309
	H89	H	0.095099	0.100441	0.386347
	H90	H	0.080323	0.931300	0.606959
	H91	H	0.913457	0.924342	0.386637
	H92	H	0.089865	0.622268	0.911540
	H93	H	0.093203	0.396463	0.088711
	H94	H	0.908882	0.624832	0.087587
	H95	H	0.921102	0.399120	0.911456
	H96	H	0.414076	0.125329	0.590279
	H97	H	0.594220	0.899090	0.585947
	H98	H	0.592063	0.124542	0.412556
	H99	H	0.420030	0.899610	0.411229
	H100	H	0.592795	0.417675	0.112250
	H101	H	0.590606	0.598801	0.885466
	H102	H	0.414392	0.594678	0.111336
	H103	H	0.411659	0.424292	0.885849
	H104	H	0.120557	0.606729	0.408555
	H105	H	0.895786	0.598129	0.579885
	H106	H	0.115378	0.423569	0.583903
	H107	H	0.890961	0.415409	0.417309
	H108	H	0.920813	0.622350	0.092381
	H109	H	0.089739	0.397890	0.088207
	H110	H	0.093086	0.621444	0.915665
	H111	H	0.916214	0.397526	0.913071
	H112	H	0.091300	0.913927	0.616387
	H113	H	0.092815	0.097326	0.388179
	H114	H	0.919633	0.102114	0.612585
	H115	H	0.916889	0.925931	0.388088
	H116	H	0.614958	0.094044	0.916800
	H117	H	0.391098	0.098080	0.088379
	H118	H	0.618469	0.917062	0.087643
	H119	H	0.395419	0.921420	0.919887
	C120	C	0.384084	0.019151	0.621339
	C121	C	0.627053	1.002744	0.621776
	C122	C	0.625183	0.019928	0.379206
	C123	C	0.382443	1.002063	0.378415
	C124	C	0.626953	0.386696	0.007664
	C125	C	0.625180	0.629204	0.989965
	C126	C	0.382822	0.630609	0.007274
	C127	C	0.383582	0.388365	0.990814
	C128	C	0.014284	0.633344	0.377638
	C129	C	0.995767	0.634301	0.621715
	C130	C	0.013027	0.390452	0.620358
	C131	C	0.996276	0.390291	0.378506
	C132	C	0.883211	0.517902	0.120509
	C133	C	0.125714	0.501264	0.120369
	C134	C	0.126700	0.519398	0.876847
	C135	C	0.883279	0.501565	0.877626
	C136	C	0.125329	0.891619	0.508911
	C137	C	0.126502	0.133455	0.491044
	C138	C	0.883138	0.133671	0.508624
	C139	C	0.882782	0.890994	0.491187
	C140	C	0.513328	0.130091	0.878723
	C141	C	0.495788	0.130607	0.121036
	C142	C	0.513684	0.886777	0.122209
	C143	C	0.496740	0.887641	0.878269
	C144	C	0.379632	0.900276	0.682142
	C145	C	0.630791	0.120640	0.684856
	C146	C	0.627775	0.900232	0.319895
	C147	C	0.378710	0.120011	0.315411
	C148	C	0.689530	0.380899	0.889888
	C149	C	0.685733	0.631600	0.108871
	C150	C	0.320239	0.635789	0.889222
	C151	C	0.321108	0.383867	0.108704
	C152	C	0.894734	0.692357	0.375668
	C153	C	0.113733	0.697089	0.626367
	C154	C	0.895364	0.327837	0.625132
	C155	C	0.114447	0.328373	0.374515
	C156	C	0.895362	0.385712	0.682738
	C157	C	0.113800	0.639076	0.684009
	C158	C	0.895126	0.634691	0.317457
	C159	C	0.114856	0.386551	0.317547
	C160	C	0.378192	0.693514	0.889304
	C161	C	0.627837	0.689013	0.109120
	C162	C	0.630434	0.324321	0.889584
	C163	C	0.379450	0.326528	0.109189
	C164	C	0.686483	0.901181	0.376698
	C165	C	0.687962	0.121884	0.626350
	C166	C	0.320043	0.901954	0.626425
	C167	C	0.321453	0.120899	0.373728
	C168	C	0.880426	0.399435	0.182381
	C169	C	0.129593	0.620445	0.181314
	C170	C	0.131626	0.402020	0.813000
	C171	C	0.878979	0.620570	0.816858
	C172	C	0.188116	0.886476	0.390909
	C173	C	0.188372	0.138530	0.609555
	C174	C	0.821333	0.137977	0.389803
	C175	C	0.820892	0.887099	0.609687
	C176	C	0.395433	0.192365	0.873713
	C177	C	0.613906	0.193146	0.125776
	C178	C	0.394471	0.826931	0.123458
	C179	C	0.615762	0.827777	0.876301
	C180	C	0.394313	0.884898	0.181559
	C181	C	0.614181	0.134498	0.182813
	C182	C	0.395666	0.134812	0.815905
	C183	C	0.615470	0.884712	0.817862
	C184	C	0.879852	0.194480	0.389572
	C185	C	0.129430	0.195100	0.609726
	C186	C	0.129075	0.829969	0.390204
	C187	C	0.877743	0.828007	0.609125
	C188	C	0.188943	0.401370	0.870782
	C189	C	0.187666	0.619692	0.123566
	C190	C	0.823256	0.398254	0.123967
	C191	C	0.820351	0.619404	0.873774
	C192	C	0.411238	0.101315	0.595052
	C193	C	0.601437	0.920101	0.595269
	C194	C	0.599336	0.102811	0.404292
	C195	C	0.408151	0.919760	0.405366
	C196	C	0.600772	0.413780	0.089845
	C197	C	0.600077	0.604269	0.906759
	C198	C	0.408915	0.604296	0.089558
	C199	C	0.410353	0.415068	0.908704
	C200	C	0.097016	0.608592	0.403013
	C201	C	0.913710	0.607613	0.595200
	C202	C	0.094945	0.417219	0.593614
	C203	C	0.913847	0.416621	0.404515
	C204	C	0.908602	0.600578	0.094063
	C205	C	0.099321	0.418824	0.094718
	C206	C	0.099905	0.601212	0.904611
	C207	C	0.910436	0.419129	0.903517
	C208	C	0.098771	0.918662	0.590730
	C209	C	0.100577	0.107047	0.408654
	C210	C	0.909209	0.107514	0.591070
	C211	C	0.908605	0.916772	0.408818
	C212	C	0.595288	0.103424	0.905884
	C213	C	0.413729	0.104264	0.094538
	C214	C	0.596746	0.911728	0.097416
	C215	C	0.413796	0.913466	0.903600
	Zn216	Zn	0.504892	0.009184	0.750021
	Zn217	Zn	0.504158	0.009648	0.250175
	Zn218	Zn	0.754972	0.508414	-0.000975
	Zn219	Zn	0.254019	0.509283	-0.001714
	Zn220	Zn	0.004444	0.762254	0.499646
	Zn221	Zn	0.004716	0.261475	0.499046
	Zn222	Zn	0.004730	0.511777	0.749127
	Zn223	Zn	0.005012	0.510244	0.249560
	Zn224	Zn	0.504794	0.759000	-0.001087
	Zn225	Zn	0.504337	0.258922	-0.000517
	Zn226	Zn	0.754632	0.013194	0.499517
	Zn227	Zn	0.254580	0.012742	0.500789
	N228	N	0.418851	0.974150	0.679043
	N229	N	0.593705	0.045504	0.682259
	N230	N	0.590352	0.975000	0.321403
	N231	N	0.415606	0.044987	0.318030
	N232	N	0.687555	0.418883	0.964378
	N233	N	0.684139	0.594966	0.033820
	N234	N	0.323120	0.597236	0.963410
	N235	N	0.323409	0.421514	0.033784
	N236	N	0.969906	0.691808	0.412271
	N237	N	0.039241	0.694378	0.588539
	N238	N	0.969537	0.330657	0.587016
	N239	N	0.039702	0.330535	0.411714
	N240	N	0.969578	0.424022	0.679997
	N241	N	0.039690	0.600552	0.681065
	N242	N	0.970406	0.598762	0.318464
	N243	N	0.040393	0.424242	0.320072
	N244	N	0.416802	0.690177	0.963606
	N245	N	0.590742	0.687569	0.034053
	N246	N	0.592453	0.327424	0.964006
	N247	N	0.417297	0.329002	0.034802
	N248	N	0.685060	0.976718	0.412736
	N249	N	0.685763	0.047494	0.587975
	N250	N	0.322621	0.977039	0.589442
	N251	N	0.323446	0.046588	0.412198
	N252	N	0.917039	0.474759	0.180329
	N253	N	0.091756	0.545683	0.179570
	N254	N	0.093599	0.476481	0.816673
	N255	N	0.917508	0.546240	0.819179
	N256	N	0.186154	0.924059	0.465755
	N257	N	0.186998	0.101447	0.534637
	N258	N	0.823026	0.100962	0.464925
	N259	N	0.823799	0.925623	0.535397
	N260	N	0.469785	0.189634	0.911937
	N261	N	0.539249	0.190974	0.088216
	N262	N	0.469956	0.827647	0.087734
	N263	N	0.540584	0.829217	0.912704
	N264	N	0.469482	0.921230	0.181067
	N265	N	0.539787	0.096492	0.180201
	N266	N	0.470077	0.096969	0.818796
	N267	N	0.540218	0.921037	0.818916
	N268	N	0.917283	0.192044	0.464417
	N269	N	0.091715	0.192043	0.535130
	N270	N	0.091088	0.832768	0.464571
	N271	N	0.915408	0.830279	0.534602
	N272	N	0.186184	0.475439	0.909645
	N273	N	0.185514	0.544598	0.086794
	N274	N	0.824982	0.472908	0.086004
	N275	N	0.822649	0.544015	0.910397
	O276	O	0.448389	0.299593	0.457180
	H277	H	0.429694	0.290001	0.443239
	H278	H	0.438039	0.310970	0.466380
	O279	O	0.825648	0.189247	0.815258
	H280	H	0.832990	0.202580	0.849798
	H281	H	0.861234	0.200038	0.820024
	O282	O	0.484492	0.297187	0.713836
	H283	H	0.504641	0.292165	0.699012
	H284	H	0.491560	0.266955	0.726379
	O285	O	0.639815	0.700788	0.359251
	H286	H	0.638430	0.696272	0.388177
	H287	H	0.621188	0.683865	0.357036
	O288	O	1.126596	1.030945	-0.033349
	H289	H	1.122862	1.045608	-0.050108
	H290	H	1.117862	1.027772	-0.039025
	O291	O	0.355706	0.482652	0.374708
	H292	H	0.360586	0.494770	0.382717
	H293	H	0.348340	0.477249	0.380506
	O294	O	0.074363	0.213530	0.991412
	H295	H	0.090356	0.228818	1.014707
	H296	H	0.075469	0.205484	1.015321
	O297	O	0.417713	0.464736	0.346437
	H298	H	0.406964	0.463805	0.333779
	H299	H	0.420079	0.444094	0.351889
	O300	O	0.530390	0.306860	0.296711
	H301	H	0.540658	0.294120	0.284124
	H302	H	0.531404	0.305279	0.293156
	O303	O	0.526126	0.526516	0.337943
	H304	H	0.526478	0.513299	0.362034
	H305	H	0.531643	0.505531	0.332820
	O306	O	0.287365	0.291844	0.519840
	H307	H	0.275608	0.282658	0.547642
	H308	H	0.278037	0.277439	0.541389
	O309	O	0.320091	0.512469	0.372829
	H310	H	0.316435	0.505586	0.361574
	H311	H	0.326352	0.498810	0.376733
	O312	O	0.215396	0.899613	0.875165
	H313	H	0.212500	0.883670	0.883252
	H314	H	0.222457	0.892817	0.864680
	O315	O	0.706144	0.503307	0.302080
	H316	H	0.713374	0.503155	0.302394
	H317	H	0.692928	0.513830	0.300839
	O318	O	0.796553	-0.008979	0.213467
	H319	H	0.785597	-0.019200	0.234805
	H320	H	0.800470	-0.032039	0.225196
	O321	O	-0.205648	0.219753	-0.021649
	H322	H	-0.212376	0.204545	-0.002088
	H323	H	-0.233352	0.231692	-0.013672
	O324	O	0.514546	0.431640	0.592745
	H325	H	0.526297	0.432908	0.595452
	H326	H	0.495086	0.427419	0.601128
	O327	O	0.604946	0.414970	0.533704
	H328	H	0.587255	0.410977	0.521394
	H329	H	0.615812	0.433410	0.530318
	O330	O	-0.001660	0.860188	0.045854
	H331	H	-0.008616	0.885567	0.029753
	H332	H	-0.014476	0.864044	0.078788
	O333	O	0.680932	0.521336	0.499469
	H334	H	0.670572	0.543933	0.505592
	H335	H	0.695547	0.508434	0.530563
	O336	O	-0.011412	0.218282	-0.207554
	H337	H	-0.002502	0.228944	-0.215147
	H338	H	0.003581	0.227101	-0.193600
	O339	O	0.182197	0.829982	0.823645
	H340	H	0.173369	0.831363	0.842803
	H341	H	0.192003	0.851573	0.848485
	O342	O	-0.024439	0.797683	1.214290
	H343	H	-0.046066	0.788110	1.224476
	H344	H	-0.041802	0.791032	1.228625
	O345	O	0.813371	0.805056	0.022498
	H346	H	0.818457	0.798337	0.006079
	H347	H	0.813491	0.811952	0.006288
	O348	O	0.326456	0.683153	0.327572
	H349	H	0.325577	0.692577	0.315535
	H350	H	0.327162	0.651343	0.340846
	O351	O	0.023758	0.794728	0.782538
	H352	H	0.038880	0.807245	0.776743
	H353	H	0.040842	0.771378	0.754424
	O354	O	0.166821	0.897960	0.062562
	H355	H	0.148559	0.891675	0.070213
	H356	H	0.175264	0.905436	0.060882
	O357	O	-0.015374	-0.112318	0.895457
	H358	H	-0.008445	-0.126339	0.878766
	H359	H	-0.018939	-0.116924	0.898976
	O360	O	0.649237	0.379975	0.557629
	H361	H	0.638462	0.353088	0.532955
	H362	H	0.657690	0.400145	0.577675
	O363	O	0.110932	0.010437	0.856243
	H364	H	0.101761	0.014156	0.841969
	H365	H	0.120491	0.024008	0.844166
	O366	O	0.136768	0.182620	0.903808
	H367	H	0.136967	0.196444	0.907732
	H368	H	0.129949	0.173707	0.901458
	O369	O	0.527564	0.729259	0.717640
	H370	H	0.538236	0.745059	0.745629
	H371	H	0.524147	0.715041	0.728124
	O372	O	1.005322	0.007601	0.789730
	H373	H	0.988518	-0.008336	0.795369
	H374	H	0.978377	0.033480	0.789640
	O375	O	0.323562	0.330251	0.679560
	H376	H	0.317977	0.381870	0.690820
	H377	H	0.370057	0.319100	0.686884
	O378	O	0.682288	0.688238	0.676329
	H379	H	0.694445	0.684874	0.639237
	H380	H	0.651876	0.676950	0.684852
	O381	O	0.708858	0.686140	0.500288
	H382	H	0.699106	0.684111	0.500151
	H383	H	0.711556	0.684410	0.494878
	O384	O	0.677129	0.334720	0.318829
	H385	H	0.683068	0.380592	0.309581
	H386	H	0.663167	0.323512	0.343310
	O387	O	0.492006	-0.439050	0.519464
	H388	H	0.471034	-0.433756	0.517400
	H389	H	0.478197	-0.423996	0.523309
	O390	O	0.166030	0.052317	0.211401
	H391	H	0.166977	0.033440	0.218393
	H392	H	0.162707	0.053164	0.229048
	O393	O	0.789012	1.031427	0.782201
	H394	H	0.802897	1.081851	0.793358
	H395	H	0.750814	1.034376	0.746342
	O396	O	1.104794	-0.073908	0.150339
	H397	H	1.111589	-0.079225	0.142038
	H398	H	1.086709	-0.066539	0.152869
	O399	O	1.022828	0.214088	1.200690
	H400	H	1.026088	0.200144	1.202117
	H401	H	1.013344	0.228434	1.204455
	O402	O	0.849090	0.909401	0.931612
	H403	H	0.857168	0.900055	0.932050
	H404	H	0.844354	0.916643	0.891295
	O405	O	0.925250	1.025902	-0.019558
	H406	H	0.918751	1.021740	-0.026376
	H407	H	0.924125	1.017550	-0.020150
	O408	O	0.788647	0.050859	0.029417
	H409	H	0.788061	0.036305	0.033565
	H410	H	0.789396	0.033856	0.031570
	O411	O	0.809174	0.816511	0.195054
	H412	H	0.806488	0.819442	0.159208
	H413	H	0.787557	0.790952	0.207265
	O414	O	0.293396	0.492492	0.714619
	H415	H	0.280229	0.517163	0.673708
	H416	H	0.256135	0.491375	0.741941
	O417	O	0.499489	0.713188	0.494325
	H418	H	0.492031	0.715308	0.494464
	H419	H	0.487844	0.712711	0.496556
	O420	O	0.207987	0.214459	0.063266
	H421	H	0.216607	0.237174	0.064703
	H422	H	0.200948	0.195752	0.080498
	O423	O	0.491015	0.529412	0.714241
	H424	H	0.477878	0.522809	0.715531
	H425	H	0.467524	0.508079	0.705441
	O426	O	0.716355	0.296989	0.477918
	H427	H	0.750100	0.266189	0.473983
	H428	H	0.701389	0.313280	0.472516
	O429	O	0.289252	0.723328	0.482961
	H430	H	0.266288	0.757359	0.467219
	H431	H	0.315586	0.726480	0.475189
	O432	O	0.283075	0.564622	0.558999
	H433	H	0.285878	0.587897	0.537005
	H434	H	0.284038	0.562140	0.530572
	O435	O	0.718903	0.529614	0.715446
	H436	H	0.715036	0.530650	0.733712
	H437	H	0.723291	0.537746	0.734855
	O438	O	-0.069646	0.107921	0.166754
	H439	H	-0.082333	0.104614	0.161767
	H440	H	-0.077831	0.090144	0.159563
	O441	O	1.089120	0.166269	0.110108
	H442	H	1.074512	0.161803	0.120352
	H443	H	1.085489	0.153943	0.095915
	O444	O	0.181933	0.980766	1.063922
	H445	H	0.190003	0.993860	1.064380
	H446	H	0.178450	0.980580	1.054115
	O447	O	0.479399	0.719924	0.286573
	H448	H	0.454564	0.730481	0.274100
	H449	H	0.478926	0.718655	0.271991
	O450	O	0.519340	0.678877	0.549675
	H451	H	0.527100	0.659344	0.557217
	H452	H	0.529994	0.696268	0.552994
	O453	O	0.063795	-0.046035	1.085395
	H454	H	0.056899	-0.026787	1.074337
	H455	H	0.059107	-0.053867	1.073488
