data_Molecule from HDF5

_cell_length_a		16.517681
_cell_length_b		16.584543
_cell_length_c		16.641082
_cell_angle_alpha	90.043512
_cell_angle_beta	90.000349
_cell_angle_gamma	90.099648
_symmetry_space_group_name_H-M	'P 1'
_symmetry_Int_Tables_number		1

loop_
	_symmetry_equiv_pos_as_xyz
	x,y,z

loop_
	_atom_site_label
	_atom_site_type_symbol
	_atom_site_fract_x
	_atom_site_fract_y
	_atom_site_fract_z
	H0	H	0.398689	0.838866	0.739798
	H1	H	0.611264	0.150095	0.736928
	H2	H	0.614186	0.838424	0.294010
	H3	H	0.403156	0.149256	0.294432
	H4	H	0.728928	0.387577	0.860689
	H5	H	0.725450	0.595044	0.173092
	H6	H	0.283090	0.600655	0.861815
	H7	H	0.286945	0.389704	0.173635
	H8	H	0.850345	0.713388	0.413893
	H9	H	0.163509	0.719119	0.625231
	H10	H	0.851714	0.273442	0.620774
	H11	H	0.166044	0.275737	0.413616
	H12	H	0.853315	0.387402	0.738768
	H13	H	0.163381	0.603465	0.741366
	H14	H	0.849501	0.596619	0.298129
	H15	H	0.165661	0.391829	0.297446
	H16	H	0.398160	0.719172	0.861959
	H17	H	0.612777	0.715365	0.170466
	H18	H	0.610524	0.272447	0.860197
	H19	H	0.402012	0.271985	0.172518
	H20	H	0.729342	0.837667	0.412182
	H21	H	0.725883	0.151535	0.618628
	H22	H	0.285572	0.837609	0.621257
	H23	H	0.287032	0.149488	0.410784
	H24	H	0.907045	0.335161	0.233262
	H25	H	0.111797	0.650802	0.235839
	H26	H	0.112080	0.337675	0.795978
	H27	H	0.900645	0.649137	0.794238
	H28	H	0.227484	0.891342	0.359603
	H29	H	0.229695	0.099435	0.671415
	H30	H	0.787116	0.098311	0.360618
	H31	H	0.786959	0.889900	0.673338
	H32	H	0.350440	0.213938	0.910957
	H33	H	0.663205	0.214397	0.119409
	H34	H	0.353127	0.768938	0.123566
	H35	H	0.664397	0.773678	0.912797
	H36	H	0.354256	0.882600	0.241920
	H37	H	0.665126	0.096939	0.234867
	H38	H	0.351005	0.099391	0.794186
	H39	H	0.663493	0.888953	0.795119
	H40	H	0.904538	0.214353	0.360081
	H41	H	0.113294	0.215756	0.672265
	H42	H	0.112419	0.772852	0.360651
	H43	H	0.899756	0.770628	0.671106
	H44	H	0.226459	0.336853	0.914682
	H45	H	0.226964	0.651293	0.119349
	H46	H	0.791230	0.334725	0.116103
	H47	H	0.786353	0.649790	0.912804
	H48	H	0.419745	0.103442	0.599651
	H49	H	0.593133	0.883034	0.605245
	H50	H	0.600501	0.108407	0.423279
	H51	H	0.419309	0.879778	0.422907
	H52	H	0.594481	0.409456	0.125346
	H53	H	0.591321	0.581608	0.905617
	H54	H	0.424331	0.584402	0.125674
	H55	H	0.420231	0.408932	0.907363
	H56	H	0.120758	0.583250	0.425044
	H57	H	0.901658	0.575898	0.596973
	H58	H	0.123175	0.400000	0.605399
	H59	H	0.891285	0.403806	0.414515
	H60	H	0.117869	0.408492	0.598897
	H61	H	0.896124	0.576255	0.611137
	H62	H	0.121206	0.584908	0.425942
	H63	H	0.893233	0.394484	0.429541
	H64	H	0.417180	0.582851	0.126975
	H65	H	0.598508	0.588707	0.901572
	H66	H	0.593581	0.394585	0.129299
	H67	H	0.421322	0.397842	0.904312
	H68	H	0.594784	0.106110	0.424263
	H69	H	0.600273	0.880850	0.603135
	H70	H	0.416694	0.107272	0.608440
	H71	H	0.425202	0.884258	0.429388
	H72	H	0.915993	0.608072	0.111784
	H73	H	0.096877	0.381049	0.104718
	H74	H	0.099737	0.608783	0.923088
	H75	H	0.915498	0.380721	0.929779
	H76	H	0.091624	0.905692	0.626028
	H77	H	0.098657	0.087938	0.403220
	H78	H	0.918075	0.081596	0.627800
	H79	H	0.920116	0.904724	0.406605
	H80	H	0.620768	0.085457	0.928902
	H81	H	0.396817	0.076912	0.104671
	H82	H	0.620249	0.907906	0.106579
	H83	H	0.397151	0.903529	0.934231
	H84	H	0.620705	0.903000	0.104820
	H85	H	0.392806	0.081727	0.110693
	H86	H	0.617989	0.080068	0.929123
	H87	H	0.398491	0.911970	0.927806
	H88	H	0.921284	0.087482	0.628262
	H89	H	0.100170	0.082417	0.404963
	H90	H	0.098314	0.902417	0.629893
	H91	H	0.918072	0.904288	0.404365
	H92	H	0.087921	0.603469	0.926603
	H93	H	0.099063	0.380717	0.108298
	H94	H	0.917845	0.606080	0.107790
	H95	H	0.918575	0.380847	0.921933
	H96	H	0.425921	0.103146	0.607138
	H97	H	0.597661	0.879628	0.610237
	H98	H	0.599309	0.105576	0.428511
	H99	H	0.415883	0.881732	0.431869
	H100	H	0.607020	0.402921	0.131291
	H101	H	0.601747	0.578689	0.903649
	H102	H	0.421065	0.577216	0.124590
	H103	H	0.411110	0.403310	0.902876
	H104	H	0.120223	0.583263	0.426795
	H105	H	0.895515	0.588803	0.602013
	H106	H	0.120834	0.410906	0.610097
	H107	H	0.898098	0.411281	0.428736
	H108	H	0.913326	0.607577	0.107627
	H109	H	0.095223	0.381753	0.108585
	H110	H	0.097943	0.603982	0.935443
	H111	H	0.923130	0.384374	0.928471
	H112	H	0.098503	0.909895	0.627293
	H113	H	0.094560	0.084126	0.404941
	H114	H	0.914575	0.086822	0.629836
	H115	H	0.918245	0.907004	0.406238
	H116	H	0.620106	0.082246	0.923521
	H117	H	0.394197	0.084913	0.102768
	H118	H	0.619054	0.906409	0.101679
	H119	H	0.393091	0.903757	0.924503
	C120	C	0.386804	0.002077	0.637775
	C121	C	0.628647	0.985104	0.637795
	C122	C	0.630229	0.002928	0.394345
	C123	C	0.387571	0.985024	0.395088
	C124	C	0.629273	0.371254	0.024935
	C125	C	0.628979	0.614326	1.006942
	C126	C	0.386322	0.615260	0.023916
	C127	C	0.385960	0.372106	1.008555
	C128	C	0.016569	0.615407	0.395109
	C129	C	0.999871	0.615368	0.638021
	C130	C	0.017330	0.373290	0.637276
	C131	C	0.999135	0.372660	0.394197
	C132	C	0.886115	0.502131	0.138141
	C133	C	0.128458	0.485304	0.137807
	C134	C	0.127795	0.501993	0.896322
	C135	C	0.886536	0.485027	0.894995
	C136	C	0.128458	0.873595	0.524338
	C137	C	0.129834	0.116174	0.507406
	C138	C	0.886500	0.116501	0.525046
	C139	C	0.886750	0.873351	0.508555
	C140	C	0.515901	0.114501	0.894776
	C141	C	0.498663	0.113581	0.136940
	C142	C	0.516965	0.871613	0.137806
	C143	C	0.498988	0.872972	0.895595
	C144	C	0.382185	0.885300	0.698888
	C145	C	0.630005	0.103203	0.697038
	C146	C	0.632559	0.885194	0.334374
	C147	C	0.384832	0.102312	0.334460
	C148	C	0.688636	0.369165	0.907440
	C149	C	0.687116	0.614884	0.125389
	C150	C	0.323985	0.618743	0.907988
	C151	C	0.326429	0.370733	0.126220
	C152	C	0.897491	0.673651	0.394990
	C153	C	0.116561	0.678265	0.642658
	C154	C	0.899215	0.313102	0.639475
	C155	C	0.118532	0.315110	0.394456
	C156	C	0.899914	0.369705	0.698194
	C157	C	0.116743	0.620450	0.700253
	C158	C	0.897221	0.615665	0.337421
	C159	C	0.118322	0.372476	0.336501
	C160	C	0.381201	0.677583	0.908072
	C161	C	0.631189	0.674614	0.124239
	C162	C	0.629891	0.311966	0.907202
	C163	C	0.383693	0.312282	0.125967
	C164	C	0.689763	0.884782	0.392904
	C165	C	0.686796	0.104024	0.638152
	C166	C	0.325503	0.884747	0.640176
	C167	C	0.327135	0.102544	0.392365
	C168	C	0.887316	0.382625	0.194395
	C169	C	0.129811	0.603942	0.196100
	C170	C	0.130206	0.384456	0.836263
	C171	C	0.883259	0.602636	0.834988
	C172	C	0.187827	0.872250	0.406632
	C173	C	0.189711	0.118024	0.624781
	C174	C	0.827244	0.117241	0.407435
	C175	C	0.826599	0.871178	0.625975
	C176	C	0.397749	0.174272	0.892610
	C177	C	0.616664	0.174136	0.138374
	C178	C	0.399969	0.809752	0.141437
	C179	C	0.617240	0.813280	0.893603
	C180	C	0.400486	0.866393	0.200212
	C181	C	0.617515	0.115733	0.195476
	C182	C	0.398126	0.117066	0.834470
	C183	C	0.616945	0.870703	0.835592
	C184	C	0.885643	0.174920	0.407159
	C185	C	0.131676	0.175765	0.625069
	C186	C	0.130731	0.813398	0.407118
	C187	C	0.882783	0.811793	0.624898
	C188	C	0.186924	0.383902	0.895335
	C189	C	0.187062	0.604133	0.137993
	C190	C	0.830221	0.382085	0.135826
	C191	C	0.826402	0.602721	0.893726
	C192	C	0.413180	0.083429	0.612103
	C193	C	0.604093	0.902545	0.613277
	C194	C	0.605404	0.085135	0.418466
	C195	C	0.412822	0.903282	0.420668
	C196	C	0.605275	0.395295	0.107165
	C197	C	0.604218	0.589921	0.924829
	C198	C	0.413086	0.588949	0.104495
	C199	C	0.410591	0.396444	0.926313
	C200	C	0.099194	0.591123	0.419115
	C201	C	0.918845	0.588060	0.611025
	C202	C	0.099390	0.399156	0.612103
	C203	C	0.916104	0.396434	0.417607
	C204	C	0.909020	0.585545	0.115735
	C205	C	0.104119	0.402777	0.113966
	C206	C	0.102546	0.584102	0.921147
	C207	C	0.911893	0.403344	0.919556
	C208	C	0.103291	0.898755	0.606473
	C209	C	0.105135	0.091709	0.425555
	C210	C	0.910991	0.092139	0.607390
	C211	C	0.911776	0.898264	0.426871
	C212	C	0.598240	0.089707	0.920118
	C213	C	0.416150	0.088383	0.112824
	C214	C	0.598629	0.898210	0.111680
	C215	C	0.417351	0.898816	0.921511
	Zn216	Zn	0.507270	-0.006612	0.766629
	Zn217	Zn	0.508353	-0.006856	0.265809
	Zn218	Zn	0.757614	0.492992	0.016365
	Zn219	Zn	0.257789	0.494029	0.017080
	Zn220	Zn	0.007634	0.743768	0.516858
	Zn221	Zn	0.008763	0.245385	0.516450
	Zn222	Zn	0.008162	0.494273	0.766326
	Zn223	Zn	0.007694	0.494103	0.266638
	Zn224	Zn	0.508034	0.743762	0.015350
	Zn225	Zn	0.506771	0.242856	0.016373
	Zn226	Zn	0.757570	-0.005930	0.516845
	Zn227	Zn	0.258815	-0.006083	0.516332
	N228	N	0.419508	0.959373	0.697698
	N229	N	0.594980	0.028079	0.697160
	N230	N	0.596493	0.959643	0.334897
	N231	N	0.421410	0.028062	0.335901
	N232	N	0.688781	0.404841	0.981757
	N233	N	0.685983	0.578274	0.051414
	N234	N	0.327166	0.580784	0.981095
	N235	N	0.327688	0.407214	0.052097
	N236	N	0.972760	0.673725	0.429965
	N237	N	0.042806	0.675139	0.604591
	N238	N	0.973270	0.315304	0.602289
	N239	N	0.043174	0.314678	0.429283
	N240	N	0.974466	0.406558	0.697005
	N241	N	0.043202	0.581844	0.697534
	N242	N	0.972355	0.580322	0.337036
	N243	N	0.043175	0.407452	0.336190
	N244	N	0.419315	0.675504	0.981150
	N245	N	0.595688	0.674428	0.049505
	N246	N	0.593832	0.312864	0.981440
	N247	N	0.419780	0.312738	0.051583
	N248	N	0.688486	0.959176	0.429330
	N249	N	0.686226	0.029326	0.602300
	N250	N	0.328110	0.958500	0.602905
	N251	N	0.328505	0.028467	0.429181
	N252	N	0.921144	0.458406	0.196264
	N253	N	0.094114	0.529243	0.196152
	N254	N	0.094382	0.459073	0.836779
	N255	N	0.919874	0.528468	0.835532
	N256	N	0.186505	0.908709	0.480713
	N257	N	0.188858	0.081779	0.550536
	N258	N	0.827502	0.081843	0.482003
	N259	N	0.828786	0.908889	0.552705
	N260	N	0.472008	0.172801	0.929785
	N261	N	0.541665	0.172970	0.102791
	N262	N	0.473481	0.812914	0.103265
	N263	N	0.542833	0.814548	0.929993
	N264	N	0.474445	0.904461	0.197931
	N265	N	0.543088	0.078834	0.194845
	N266	N	0.472694	0.080687	0.835908
	N267	N	0.542392	0.907013	0.836496
	N268	N	0.921485	0.174813	0.481507
	N269	N	0.095307	0.175006	0.551000
	N270	N	0.094930	0.813737	0.481700
	N271	N	0.919481	0.812897	0.550877
	N272	N	0.185684	0.458156	0.931765
	N273	N	0.186479	0.529436	0.102526
	N274	N	0.828998	0.457552	0.102026
	N275	N	0.828091	0.528545	0.930314
	O276	O	0.019281	0.980701	-0.024566
	H277	H	0.014501	0.979773	-0.007598
	H278	H	0.021460	0.973100	-0.008056
	O279	O	0.467721	0.408996	0.580767
	H280	H	0.472971	0.422319	0.576161
	H281	H	0.455885	0.411583	0.587335
	O282	O	1.712803	0.288131	0.310634
	H283	H	1.715140	0.273847	0.299682
	H284	H	1.691476	0.281407	0.337562
	O285	O	0.510463	0.672854	0.301183
	H286	H	0.495315	0.686324	0.292824
	H287	H	0.507837	0.667203	0.312208
	O288	O	-0.192777	1.116584	0.116157
	H289	H	-0.181365	1.105294	0.127918
	H290	H	-0.196746	1.126377	0.101855
	O291	O	0.540839	0.709416	0.733739
	H292	H	0.533283	0.713948	0.750493
	H293	H	0.521541	0.710597	0.733453
	O294	O	1.204953	-0.199143	0.821305
	H295	H	1.182145	-0.195586	0.815275
	H296	H	1.201384	-0.205659	0.852345
	O297	O	0.314945	0.508776	0.568336
	H298	H	0.310728	0.508495	0.563450
	H299	H	0.300600	0.509632	0.576148
	O300	O	-0.200872	0.197350	0.806471
	H301	H	-0.164502	0.203865	0.818413
	H302	H	-0.229403	0.232786	0.774000
	O303	O	0.474969	0.589595	0.698700
	H304	H	0.469126	0.574756	0.698844
	H305	H	0.468210	0.582795	0.706629
	O306	O	0.606883	0.339483	0.584254
	H307	H	0.592086	0.356326	0.589373
	H308	H	0.617505	0.340053	0.563602
	O309	O	0.725193	0.510216	0.733077
	H310	H	0.721195	0.531492	0.721288
	H311	H	0.741656	0.527662	0.753768
	O312	O	0.521515	0.354907	0.306366
	H313	H	0.514908	0.365714	0.317139
	H314	H	0.519843	0.351206	0.287998
	O315	O	0.998115	1.086446	1.120656
	H316	H	1.005584	1.081429	1.128872
	H317	H	0.994717	1.084949	1.126662
	O318	O	0.310814	0.637368	0.654389
	H319	H	0.308638	0.633652	0.663521
	H320	H	0.326351	0.622971	0.646999
	O321	O	0.217443	1.057161	0.962746
	H322	H	0.208001	1.055249	0.963825
	H323	H	0.205629	1.066517	0.963211
	O324	O	1.058144	0.883514	0.171800
	H325	H	1.076603	0.895727	0.186699
	H326	H	1.050708	0.853557	0.178588
	O327	O	0.237318	-0.060819	1.077011
	H328	H	0.241261	-0.030693	1.094082
	H329	H	0.232375	-0.042943	1.067583
	O330	O	1.047267	0.197740	0.234103
	H331	H	1.026762	0.199929	0.244767
	H332	H	1.036619	0.197881	0.246371
	O333	O	0.540803	0.540776	0.358431
	H334	H	0.539403	0.543240	0.358636
	H335	H	0.547907	0.543899	0.357651
	O336	O	0.475459	0.409077	0.434180
	H337	H	0.473794	0.377261	0.421201
	H338	H	0.470805	0.418822	0.452696
	O339	O	1.220318	-0.030609	0.803321
	H340	H	1.234535	-0.036433	0.800061
	H341	H	1.224622	-0.052868	0.802634
	O342	O	-0.304309	-0.313687	0.320966
	H343	H	-0.311155	-0.334558	0.351011
	H344	H	-0.336322	-0.327635	0.329871
	O345	O	0.446873	1.280769	0.727623
	H346	H	0.454183	1.285568	0.733926
	H347	H	0.465399	1.274015	0.728383
	O348	O	-0.076833	0.061208	0.234983
	H349	H	-0.070934	0.043144	0.245061
	H350	H	-0.096173	0.035746	0.231733
	O351	O	0.505219	0.533348	0.449780
	H352	H	0.506476	0.528342	0.438200
	H353	H	0.508588	0.541653	0.452954
	O354	O	-0.117484	-0.072392	1.040613
	H355	H	-0.116566	-0.058283	1.044261
	H356	H	-0.126739	-0.072568	1.039002
	O357	O	0.557505	0.598129	0.633333
	H358	H	0.540709	0.599730	0.628413
	H359	H	0.561057	0.610724	0.641284
	O360	O	-0.042573	-0.223363	1.239928
	H361	H	-0.052815	-0.259091	1.273806
	H362	H	-0.081192	-0.218430	1.218333
	O363	O	-0.212298	0.025764	-0.204120
	H364	H	-0.216198	0.066158	-0.205651
	H365	H	-0.240419	0.033977	-0.222854
	O366	O	0.291751	0.524687	0.292774
	H367	H	0.283051	0.547748	0.281929
	H368	H	0.280290	0.538399	0.287513
	O369	O	0.799214	-0.213212	0.204273
	H370	H	0.764784	-0.246355	0.226663
	H371	H	0.797642	-0.218751	0.159530
	O372	O	1.036892	0.786285	-0.196392
	H373	H	1.030888	0.790547	-0.207520
	H374	H	1.027640	0.789625	-0.214269
	O375	O	1.010326	0.182215	-0.071485
	H376	H	1.003796	0.188384	-0.073781
	H377	H	1.010730	0.187387	-0.066785
	O378	O	0.548289	0.413805	0.744640
	H379	H	0.559578	0.423143	0.741633
	H380	H	0.551367	0.417091	0.731400
	O381	O	0.292730	0.277798	0.547476
	H382	H	0.280759	0.268333	0.580483
	H383	H	0.278229	0.275292	0.557008
	O384	O	0.718448	0.709346	0.532140
	H385	H	0.727268	0.704262	0.559931
	H386	H	0.736611	0.711371	0.551038
	O387	O	0.858490	0.917285	0.052668
	H388	H	0.853069	0.927789	0.050633
	H389	H	0.847770	0.929904	0.072629
	O390	O	0.468742	0.473996	0.366653
	H391	H	0.455772	0.483336	0.361729
	H392	H	0.469575	0.485880	0.379128
	O393	O	0.688882	0.530762	0.416657
	H394	H	0.684706	0.530567	0.406837
	H395	H	0.688829	0.526226	0.413569
	O396	O	0.196018	1.180287	0.830566
	H397	H	0.179979	1.159400	0.848576
	H398	H	0.179508	1.163019	0.850927
	O399	O	0.317481	0.412885	1.405493
	H400	H	0.317967	0.414092	1.416491
	H401	H	0.314362	0.425462	1.402972
	O402	O	0.291404	0.306506	0.729691
	H403	H	0.311840	0.294856	0.742175
	H404	H	0.286350	0.277112	0.752051
	O405	O	0.789992	-0.039644	1.240253
	H406	H	0.782833	-0.076385	1.243416
	H407	H	0.764056	-0.053305	1.259398
	O408	O	-0.177974	-0.192834	-0.167517
	H409	H	-0.159833	-0.164294	-0.157731
	H410	H	-0.160762	-0.183886	-0.140685
	O411	O	0.233935	1.020674	0.232694
	H412	H	0.247653	1.039883	0.251216
	H413	H	0.241418	1.042564	0.240558
	O414	O	0.274557	0.256864	0.280861
	H415	H	0.285392	0.277741	0.280175
	H416	H	0.278043	0.262527	0.296591
	O417	O	0.304828	0.467373	0.735813
	H418	H	0.281000	0.463934	0.759908
	H419	H	0.299693	0.438381	0.730565
	O420	O	0.494813	0.433951	0.526404
	H421	H	0.485555	0.440428	0.524959
	H422	H	0.490752	0.429825	0.524008
	O423	O	-0.196149	-0.179976	1.065467
	H424	H	-0.207091	-0.173522	1.042037
	H425	H	-0.189748	-0.182118	1.057796
	O426	O	0.998549	0.177854	-0.024010
	H427	H	1.003492	0.174019	-0.018584
	H428	H	0.979670	0.175143	-0.027333
	O429	O	1.219713	0.785034	0.989055
	H430	H	1.239587	0.775808	0.989365
	H431	H	1.230347	0.802604	1.004019
	O432	O	0.846028	0.173567	0.107564
	H433	H	0.842765	0.182524	0.105986
	H434	H	0.848022	0.172167	0.090257
	O435	O	0.188936	0.809658	0.200859
	H436	H	0.182982	0.829713	0.172950
	H437	H	0.161149	0.820107	0.190662
	O438	O	-0.011570	-0.218868	-0.038636
	H439	H	0.004031	-0.210814	-0.052988
	H440	H	0.007962	-0.232604	-0.034932
	O441	O	0.226368	0.203054	0.047452
	H442	H	0.234437	0.209341	0.058349
	H443	H	0.232693	0.210325	0.063505
	O444	O	0.695462	0.456402	0.551977
	H445	H	0.692307	0.467675	0.547458
	H446	H	0.695338	0.471664	0.544864
	O447	O	0.151242	1.114372	1.175102
	H448	H	0.123154	1.121386	1.185465
	H449	H	0.163353	1.136573	1.194154
	O450	O	0.065545	1.054974	0.785504
	H451	H	0.064742	1.043252	0.787626
	H452	H	0.076764	1.049135	0.786642
	O453	O	0.725582	0.282315	0.476941
	H454	H	0.723744	0.294038	0.481174
	H455	H	0.745714	0.263733	0.480436
	O456	O	-0.540580	0.673335	0.597247
	H457	H	-0.562690	0.670642	0.574869
	H458	H	-0.532516	0.680086	0.594628
	O459	O	0.732002	0.459543	0.293040
	H460	H	0.741015	0.433857	0.283390
	H461	H	0.747892	0.441531	0.285514
	O462	O	0.537479	0.718791	0.463163
	H463	H	0.558978	0.709466	0.485680
	H464	H	0.535356	0.722139	0.462554
	O465	O	1.009953	0.176561	-0.115107
	H466	H	1.021135	0.170189	-0.111869
	H467	H	1.014117	0.171239	-0.112983
	O468	O	0.298897	0.703193	0.306722
	H469	H	0.269587	0.734778	0.282751
	H470	H	0.314713	0.703601	0.325791
	O471	O	0.700251	0.304747	0.707298
	H472	H	0.685988	0.330287	0.692242
	H473	H	0.678678	0.318248	0.686668
	O474	O	0.291293	0.711714	0.476821
	H475	H	0.267223	0.720421	0.474287
	H476	H	0.280846	0.702387	0.477859
	O477	O	0.474343	0.261792	1.454656
	H478	H	0.456168	0.258020	1.454882
	H479	H	0.466639	0.266346	1.450514
	O480	O	-0.053247	0.940096	-0.211021
	H481	H	-0.078876	0.961797	-0.206770
	H482	H	-0.051717	0.956787	-0.209325
	O483	O	0.723091	0.704657	0.729152
	H484	H	0.710462	0.716168	0.747841
	H485	H	0.727029	0.720758	0.750799
	O486	O	-0.023715	0.851378	0.026303
	H487	H	-0.030947	0.856614	0.037327
	H488	H	-0.004663	0.847417	0.015889
	O489	O	0.846834	1.169087	-0.013266
	H490	H	0.852005	1.162644	-0.009690
	H491	H	0.829343	1.199166	-0.017152
