data_Molecule from HDF5

_cell_length_a		16.343206
_cell_length_b		16.144043
_cell_length_c		16.257801
_cell_angle_alpha	90.135772
_cell_angle_beta	90.265974
_cell_angle_gamma	90.041824
_symmetry_space_group_name_H-M	'P 1'
_symmetry_Int_Tables_number		1

loop_
	_symmetry_equiv_pos_as_xyz
	x,y,z

loop_
	_atom_site_label
	_atom_site_type_symbol
	_atom_site_fract_x
	_atom_site_fract_y
	_atom_site_fract_z
	H0	H	0.404582	0.842966	0.719964
	H1	H	0.599301	0.173906	0.721796
	H2	H	0.597864	0.843482	0.293430
	H3	H	0.402083	0.173633	0.295013
	H4	H	0.713607	0.410280	0.843194
	H5	H	0.717910	0.611401	0.169943
	H6	H	0.282889	0.609593	0.845113
	H7	H	0.284895	0.408260	0.170768
	H8	H	0.837588	0.721409	0.409486
	H9	H	0.165004	0.722692	0.604958
	H10	H	0.837717	0.292056	0.605180
	H11	H	0.165292	0.295026	0.410256
	H12	H	0.837496	0.408660	0.721983
	H13	H	0.163434	0.608267	0.723591
	H14	H	0.838358	0.607282	0.290882
	H15	H	0.163931	0.409464	0.292941
	H16	H	0.404109	0.720314	0.843027
	H17	H	0.597663	0.721845	0.172157
	H18	H	0.597009	0.294989	0.843220
	H19	H	0.404424	0.296885	0.171866
	H20	H	0.714122	0.843270	0.407519
	H21	H	0.715334	0.172931	0.607372
	H22	H	0.286941	0.842630	0.607089
	H23	H	0.286053	0.172169	0.408854
	H24	H	0.902932	0.343597	0.219699
	H25	H	0.098517	0.673437	0.219892
	H26	H	0.097476	0.343492	0.793972
	H27	H	0.901510	0.673640	0.792393
	H28	H	0.216329	0.906132	0.344053
	H29	H	0.217234	0.107928	0.670119
	H30	H	0.783193	0.108018	0.343662
	H31	H	0.785358	0.907667	0.671021
	H32	H	0.335053	0.221295	0.910664
	H33	H	0.663698	0.223315	0.105586
	H34	H	0.336851	0.794781	0.104379
	H35	H	0.664410	0.795982	0.912329
	H36	H	0.336977	0.910379	0.221256
	H37	H	0.662983	0.108720	0.224114
	H38	H	0.336647	0.107664	0.791364
	H39	H	0.663786	0.909308	0.793012
	H40	H	0.902143	0.221150	0.341978
	H41	H	0.098649	0.220855	0.671337
	H42	H	0.095605	0.796765	0.342056
	H43	H	0.903780	0.794346	0.671426
	H44	H	0.214663	0.344512	0.906412
	H45	H	0.214621	0.672853	0.106561
	H46	H	0.786785	0.344150	0.104696
	H47	H	0.786373	0.674522	0.907340
	H48	H	0.407527	0.124542	0.598027
	H49	H	0.609613	0.885571	0.600875
	H50	H	0.591196	0.127149	0.409856
	H51	H	0.408488	0.888742	0.408137
	H52	H	0.596169	0.411329	0.126128
	H53	H	0.592154	0.596936	0.892000
	H54	H	0.411172	0.599566	0.123241
	H55	H	0.405037	0.416668	0.890432
	H56	H	0.116421	0.603634	0.419776
	H57	H	0.883636	0.602599	0.601471
	H58	H	0.117448	0.411355	0.601271
	H59	H	0.884792	0.411741	0.414054
	H60	H	0.115472	0.416307	0.598802
	H61	H	0.886451	0.601485	0.596320
	H62	H	0.116683	0.596240	0.411117
	H63	H	0.885897	0.417961	0.416406
	H64	H	0.405971	0.606524	0.127024
	H65	H	0.590303	0.605746	0.890172
	H66	H	0.600106	0.421077	0.124136
	H67	H	0.407070	0.417678	0.891978
	H68	H	0.588275	0.122634	0.420330
	H69	H	0.584611	0.889324	0.614218
	H70	H	0.406114	0.125806	0.600159
	H71	H	0.411775	0.892493	0.416953
	H72	H	0.903953	0.629860	0.106763
	H73	H	0.100787	0.388382	0.098240
	H74	H	0.093381	0.629243	0.904908
	H75	H	0.911338	0.388920	0.902569
	H76	H	0.096763	0.923732	0.623199
	H77	H	0.095923	0.084473	0.393193
	H78	H	0.913840	0.109024	0.623677
	H79	H	0.908269	0.909310	0.389409
	H80	H	0.619761	0.107740	0.908130
	H81	H	0.380544	0.100954	0.111343
	H82	H	0.613646	0.918683	0.094074
	H83	H	0.383558	0.918367	0.910677
	H84	H	0.616930	0.922125	0.109435
	H85	H	0.382493	0.111603	0.098519
	H86	H	0.613703	0.105609	0.923860
	H87	H	0.382756	0.911714	0.910935
	H88	H	0.898077	0.099932	0.626005
	H89	H	0.080639	0.107240	0.391417
	H90	H	0.088385	0.913512	0.622507
	H91	H	0.898695	0.916942	0.388810
	H92	H	0.084364	0.622859	0.919709
	H93	H	0.090406	0.388546	0.106248
	H94	H	0.917440	0.623449	0.100195
	H95	H	0.913935	0.396563	0.923930
	H96	H	0.408933	0.125771	0.600558
	H97	H	0.586865	0.896862	0.587162
	H98	H	0.599123	0.126349	0.419197
	H99	H	0.401674	0.888719	0.416290
	H100	H	0.589353	0.419245	0.122438
	H101	H	0.598335	0.602362	0.888913
	H102	H	0.402656	0.598241	0.124804
	H103	H	0.407505	0.415882	0.890380
	H104	H	0.120536	0.606877	0.409461
	H105	H	0.885785	0.597257	0.600859
	H106	H	0.117375	0.416000	0.603635
	H107	H	0.884441	0.417232	0.408870
	H108	H	0.904507	0.625537	0.090888
	H109	H	0.089440	0.393160	0.093688
	H110	H	0.102067	0.627236	0.920735
	H111	H	0.893622	0.388898	0.916122
	H112	H	0.100540	0.912054	0.627307
	H113	H	0.106985	0.108704	0.383591
	H114	H	0.912760	0.090921	0.619099
	H115	H	0.909223	0.920745	0.392927
	H116	H	0.613367	0.092449	0.912978
	H117	H	0.387417	0.095670	0.096673
	H118	H	0.619673	0.907442	0.103863
	H119	H	0.385383	0.914503	0.916119
	C120	C	0.379843	0.016417	0.628086
	C121	C	0.622438	0.999785	0.629459
	C122	C	0.621100	0.016542	0.387051
	C123	C	0.378891	0.999114	0.385714
	C124	C	0.622719	0.387738	0.015734
	C125	C	0.622066	0.630669	0.998756
	C126	C	0.378577	0.629908	0.016560
	C127	C	0.378533	0.387939	0.998938
	C128	C	0.009871	0.629993	0.385121
	C129	C	0.992816	0.629862	0.628448
	C130	C	0.009206	0.385650	0.629625
	C131	C	0.992897	0.386583	0.385160
	C132	C	0.879669	0.517500	0.127993
	C133	C	0.122052	0.499450	0.127962
	C134	C	0.121560	0.517435	0.886119
	C135	C	0.878099	0.500765	0.885233
	C136	C	0.122196	0.887284	0.515421
	C137	C	0.122759	0.128878	0.498222
	C138	C	0.879124	0.128956	0.514825
	C139	C	0.877952	0.886518	0.498745
	C140	C	0.507576	0.130458	0.886011
	C141	C	0.491672	0.131264	0.130239
	C142	C	0.508751	0.887249	0.129720
	C143	C	0.492247	0.886892	0.885325
	C144	C	0.383445	0.892001	0.682677
	C145	C	0.619701	0.124445	0.684036
	C146	C	0.618695	0.892725	0.331374
	C147	C	0.381566	0.124052	0.331753
	C148	C	0.676397	0.389979	0.892328
	C149	C	0.678716	0.630193	0.121688
	C150	C	0.322617	0.628535	0.893208
	C151	C	0.323343	0.389133	0.122176
	C152	C	0.886634	0.684578	0.387952
	C153	C	0.115968	0.685283	0.625961
	C154	C	0.886257	0.330437	0.626071
	C155	C	0.116112	0.331863	0.388845
	C156	C	0.886363	0.388313	0.684108
	C157	C	0.115312	0.628254	0.684715
	C158	C	0.887108	0.627728	0.329173
	C159	C	0.115743	0.389052	0.330794
	C160	C	0.382419	0.684014	0.892490
	C161	C	0.619195	0.685347	0.122617
	C162	C	0.618302	0.332786	0.892231
	C163	C	0.382696	0.333857	0.122863
	C164	C	0.676455	0.892724	0.388041
	C165	C	0.677848	0.123829	0.627823
	C166	C	0.325078	0.891888	0.626426
	C167	C	0.323969	0.123275	0.388309
	C168	C	0.882354	0.393094	0.182382
	C169	C	0.119369	0.623908	0.182866
	C170	C	0.118195	0.393099	0.831303
	C171	C	0.881164	0.624731	0.830088
	C172	C	0.177198	0.888051	0.392347
	C173	C	0.178492	0.127414	0.621437
	C174	C	0.822461	0.127305	0.392138
	C175	C	0.823381	0.887948	0.622012
	C176	C	0.384221	0.184365	0.889364
	C177	C	0.614820	0.185667	0.126542
	C178	C	0.385515	0.832825	0.125288
	C179	C	0.615488	0.832913	0.890150
	C180	C	0.385736	0.889760	0.183728
	C181	C	0.614476	0.128830	0.185474
	C182	C	0.384983	0.127666	0.830162
	C183	C	0.615121	0.889544	0.831121
	C184	C	0.881481	0.183536	0.391179
	C185	C	0.119792	0.183776	0.621897
	C186	C	0.117323	0.833456	0.391391
	C187	C	0.882415	0.831712	0.622339
	C188	C	0.176452	0.393374	0.887265
	C189	C	0.176705	0.623783	0.126223
	C190	C	0.824477	0.393432	0.125280
	C191	C	0.823696	0.625056	0.887056
	C192	C	0.401319	0.103063	0.605969
	C193	C	0.600384	0.913163	0.607254
	C194	C	0.599262	0.103204	0.409820
	C195	C	0.400923	0.912379	0.407212
	C196	C	0.601410	0.410473	0.101979
	C197	C	0.600023	0.608134	0.912567
	C198	C	0.400241	0.607981	0.102679
	C199	C	0.400000	0.410380	0.913088
	C200	C	0.095793	0.608583	0.406980
	C201	C	0.907421	0.607032	0.606107
	C202	C	0.094532	0.407969	0.607767
	C203	C	0.907389	0.408926	0.406736
	C204	C	0.901894	0.603998	0.105770
	C205	C	0.100099	0.412512	0.105882
	C206	C	0.099793	0.604321	0.908644
	C207	C	0.899884	0.414059	0.907770
	C208	C	0.101287	0.909729	0.602002
	C209	C	0.100909	0.106663	0.411971
	C210	C	0.901813	0.106640	0.600609
	C211	C	0.899045	0.908761	0.412511
	C212	C	0.593434	0.108471	0.908487
	C213	C	0.405570	0.109210	0.108684
	C214	C	0.594518	0.909485	0.108844
	C215	C	0.406153	0.908495	0.906406
	Zn216	Zn	0.500444	0.008861	0.756500
	Zn217	Zn	0.499934	0.008739	0.258875
	Zn218	Zn	0.751140	0.509944	0.006766
	Zn219	Zn	0.249551	0.508169	0.007434
	Zn220	Zn	0.001163	0.759173	0.506879
	Zn221	Zn	0.000636	0.257423	0.506183
	Zn222	Zn	0.000403	0.508828	0.758199
	Zn223	Zn	0.001561	0.508141	0.256071
	Zn224	Zn	0.500561	0.758380	0.008073
	Zn225	Zn	0.499848	0.259722	0.007722
	Zn226	Zn	0.749624	0.008169	0.507810
	Zn227	Zn	0.251487	0.006923	0.506968
	N228	N	0.416571	0.970381	0.683784
	N229	N	0.586097	0.046247	0.685189
	N230	N	0.584842	0.970669	0.330563
	N231	N	0.415112	0.045893	0.330193
	N232	N	0.679169	0.423305	0.970286
	N233	N	0.680395	0.596669	0.043767
	N234	N	0.319774	0.595869	0.971250
	N235	N	0.320632	0.422063	0.044102
	N236	N	0.963799	0.685967	0.422077
	N237	N	0.038814	0.686501	0.591632
	N238	N	0.963420	0.328598	0.592804
	N239	N	0.038819	0.330411	0.422189
	N240	N	0.963735	0.421797	0.686573
	N241	N	0.037873	0.594887	0.686470
	N242	N	0.964601	0.594280	0.327524
	N243	N	0.038163	0.422142	0.328147
	N244	N	0.416643	0.684851	0.969961
	N245	N	0.584799	0.685853	0.045196
	N246	N	0.585674	0.330994	0.970201
	N247	N	0.416350	0.332893	0.045524
	N248	N	0.677943	0.970960	0.422074
	N249	N	0.679653	0.045499	0.594505
	N250	N	0.322709	0.970156	0.592963
	N251	N	0.322047	0.044808	0.421102
	N252	N	0.915965	0.471225	0.184229
	N253	N	0.085992	0.545581	0.184229
	N254	N	0.084851	0.471267	0.830505
	N255	N	0.914213	0.546360	0.828869
	N256	N	0.180213	0.920843	0.470620
	N257	N	0.180598	0.094186	0.543591
	N258	N	0.820723	0.094264	0.470063
	N259	N	0.820875	0.921448	0.544284
	N260	N	0.461612	0.186306	0.923252
	N261	N	0.537373	0.187263	0.093101
	N262	N	0.462942	0.831276	0.092461
	N263	N	0.538175	0.831173	0.923325
	N264	N	0.463243	0.923196	0.186489
	N265	N	0.536872	0.095886	0.187931
	N266	N	0.462766	0.095224	0.827891
	N267	N	0.537367	0.922233	0.828178
	N268	N	0.915998	0.184669	0.468488
	N269	N	0.085635	0.184867	0.544290
	N270	N	0.084035	0.832993	0.468903
	N271	N	0.915781	0.830773	0.544711
	N272	N	0.178760	0.471929	0.920644
	N273	N	0.178645	0.545331	0.093014
	N274	N	0.822778	0.471745	0.092288
	N275	N	0.821761	0.546956	0.920603
	O276	O	0.597925	0.437650	0.465046
	H277	H	0.600624	0.427559	0.453767
	H278	H	0.610387	0.439477	0.456268
	O279	O	-0.037828	0.039775	-0.088717
	H280	H	-0.035057	0.046612	-0.086143
	H281	H	-0.036874	0.052684	-0.080112
	O282	O	0.536719	0.489551	0.464787
	H283	H	0.541117	0.492517	0.463964
	H284	H	0.536208	0.493141	0.470118
	O285	O	0.527256	0.469803	0.574829
	H286	H	0.512718	0.472715	0.576920
	H287	H	0.522428	0.471089	0.575066
	O288	O	1.581575	-0.477719	-0.426335
	H289	H	1.582485	-0.480981	-0.418179
	H290	H	1.579048	-0.481279	-0.423550
	O291	O	-0.429766	0.427801	-0.517119
	H292	H	-0.426171	0.430509	-0.522279
	H293	H	-0.430637	0.418662	-0.514465
	O294	O	0.554203	0.516513	0.543846
	H295	H	0.556213	0.513678	0.539974
	H296	H	0.556704	0.511876	0.538937
	O297	O	-0.063263	1.039306	-0.083012
	H298	H	-0.074730	1.035350	-0.086368
	H299	H	-0.056599	1.035368	-0.082460
	O300	O	0.907277	0.086858	0.935174
	H301	H	0.901065	0.077737	0.919079
	H302	H	0.904366	0.086578	0.932200
	O303	O	0.601983	0.478081	0.517776
	H304	H	0.616211	0.481242	0.510950
	H305	H	0.605363	0.475454	0.530158
	O306	O	-0.071521	1.072793	0.928329
	H307	H	-0.072952	1.079263	0.928799
	H308	H	-0.073094	1.074293	0.924864
	O309	O	0.576647	0.501299	0.538689
	H310	H	0.575688	0.506606	0.540802
	H311	H	0.569696	0.505357	0.547851
