data_Molecule from HDF5

_cell_length_a		16.164121
_cell_length_b		16.217613
_cell_length_c		16.247450
_cell_angle_alpha	89.668270
_cell_angle_beta	89.731499
_cell_angle_gamma	89.741594
_symmetry_space_group_name_H-M	'P 1'
_symmetry_Int_Tables_number		1

loop_
	_symmetry_equiv_pos_as_xyz
	x,y,z

loop_
	_atom_site_label
	_atom_site_type_symbol
	_atom_site_fract_x
	_atom_site_fract_y
	_atom_site_fract_z
	H0	H	0.418050	0.845207	0.706890
	H1	H	0.615051	0.173330	0.701948
	H2	H	0.618992	0.844997	0.273294
	H3	H	0.417561	0.172918	0.275624
	H4	H	0.729955	0.411082	0.825638
	H5	H	0.727274	0.605339	0.154664
	H6	H	0.302534	0.608269	0.823756
	H7	H	0.301208	0.411771	0.153614
	H8	H	0.853652	0.724284	0.390304
	H9	H	0.181710	0.717677	0.586982
	H10	H	0.852277	0.291588	0.588755
	H11	H	0.181545	0.293907	0.391221
	H12	H	0.851442	0.405325	0.704590
	H13	H	0.180593	0.602289	0.699267
	H14	H	0.850892	0.607279	0.276766
	H15	H	0.180653	0.407970	0.274223
	H16	H	0.415464	0.725790	0.825225
	H17	H	0.610245	0.720805	0.154071
	H18	H	0.615604	0.295167	0.825533
	H19	H	0.415863	0.294271	0.154019
	H20	H	0.731253	0.842920	0.392303
	H21	H	0.730398	0.173000	0.584989
	H22	H	0.306906	0.842867	0.589139
	H23	H	0.303442	0.171723	0.391783
	H24	H	0.915953	0.343954	0.203753
	H25	H	0.112602	0.671726	0.201943
	H26	H	0.114964	0.342220	0.776197
	H27	H	0.914901	0.671447	0.771277
	H28	H	0.234204	0.909922	0.325189
	H29	H	0.229207	0.102719	0.654509
	H30	H	0.804389	0.107300	0.325403
	H31	H	0.801660	0.905895	0.651886
	H32	H	0.350805	0.223774	0.892167
	H33	H	0.680327	0.220943	0.086298
	H34	H	0.348828	0.797570	0.088160
	H35	H	0.679204	0.793785	0.889805
	H36	H	0.351814	0.910062	0.206763
	H37	H	0.681384	0.106076	0.200090
	H38	H	0.350789	0.109600	0.775249
	H39	H	0.680492	0.910687	0.777039
	H40	H	0.918212	0.222297	0.325576
	H41	H	0.116238	0.220852	0.652691
	H42	H	0.119958	0.792012	0.324872
	H43	H	0.919671	0.792060	0.652902
	H44	H	0.230941	0.343738	0.892078
	H45	H	0.223845	0.674565	0.082218
	H46	H	0.802778	0.344053	0.088117
	H47	H	0.800597	0.672417	0.888887
	H48	H	0.423829	0.126081	0.583801
	H49	H	0.613430	0.888576	0.589946
	H50	H	0.612405	0.125138	0.395199
	H51	H	0.428473	0.891042	0.399700
	H52	H	0.595304	0.420839	0.101000
	H53	H	0.604651	0.611848	0.871042
	H54	H	0.424168	0.600170	0.104458
	H55	H	0.426933	0.420383	0.874420
	H56	H	0.134664	0.595406	0.392628
	H57	H	0.897478	0.599194	0.584986
	H58	H	0.132596	0.412597	0.574726
	H59	H	0.895590	0.408333	0.393901
	H60	H	0.132822	0.419069	0.585734
	H61	H	0.897329	0.604333	0.577609
	H62	H	0.135997	0.600535	0.392630
	H63	H	0.899373	0.414186	0.402480
	H64	H	0.418442	0.608722	0.108197
	H65	H	0.617900	0.599281	0.870787
	H66	H	0.608265	0.399204	0.111064
	H67	H	0.426563	0.411595	0.871354
	H68	H	0.611355	0.126699	0.392607
	H69	H	0.602012	0.893612	0.584301
	H70	H	0.422818	0.126272	0.581194
	H71	H	0.424208	0.889351	0.396585
	H72	H	0.917692	0.626399	0.079483
	H73	H	0.106973	0.386644	0.098272
	H74	H	0.108909	0.624851	0.894353
	H75	H	0.933690	0.395483	0.903660
	H76	H	0.106799	0.906132	0.606266
	H77	H	0.116316	0.114512	0.366307
	H78	H	0.918973	0.103059	0.609142
	H79	H	0.922619	0.915767	0.370964
	H80	H	0.636148	0.111148	0.895579
	H81	H	0.399804	0.101845	0.076122
	H82	H	0.635388	0.911209	0.087968
	H83	H	0.395163	0.915940	0.892536
	H84	H	0.633034	0.909441	0.075900
	H85	H	0.398279	0.095731	0.087176
	H86	H	0.630071	0.097630	0.902683
	H87	H	0.397896	0.913842	0.901838
	H88	H	0.923386	0.092195	0.605249
	H89	H	0.122166	0.087951	0.372623
	H90	H	0.118128	0.909040	0.608583
	H91	H	0.928165	0.917110	0.372829
	H92	H	0.108926	0.625801	0.888865
	H93	H	0.097055	0.396650	0.072412
	H94	H	0.921403	0.627194	0.087639
	H95	H	0.910575	0.389236	0.902259
	H96	H	0.421646	0.127068	0.582997
	H97	H	0.613015	0.892552	0.576530
	H98	H	0.610070	0.125514	0.393650
	H99	H	0.428752	0.890767	0.394248
	H100	H	0.621588	0.422704	0.108433
	H101	H	0.601354	0.594673	0.877278
	H102	H	0.414374	0.599887	0.107419
	H103	H	0.418736	0.417120	0.871350
	H104	H	0.133635	0.597693	0.396760
	H105	H	0.900463	0.596369	0.577476
	H106	H	0.137002	0.406689	0.585460
	H107	H	0.898735	0.419090	0.392264
	H108	H	0.926107	0.624315	0.080303
	H109	H	0.124897	0.387822	0.075133
	H110	H	0.104870	0.624410	0.891846
	H111	H	0.925215	0.387505	0.882983
	H112	H	0.111063	0.917482	0.604051
	H113	H	0.096466	0.098452	0.377466
	H114	H	0.930978	0.100563	0.605372
	H115	H	0.926377	0.911358	0.370800
	H116	H	0.634755	0.097594	0.886967
	H117	H	0.395093	0.108048	0.086611
	H118	H	0.630835	0.920107	0.081217
	H119	H	0.398889	0.922715	0.898225
	C120	C	0.395510	0.017216	0.611560
	C121	C	0.638793	0.999913	0.611307
	C122	C	0.639798	0.016900	0.366485
	C123	C	0.397374	0.999188	0.368509
	C124	C	0.637476	0.386278	-0.001339
	C125	C	0.636116	0.629685	0.981446
	C126	C	0.391788	0.631814	-0.002182
	C127	C	0.394705	0.388097	0.980856
	C128	C	0.025599	0.628532	0.366353
	C129	C	1.007515	0.627322	0.608710
	C130	C	0.025123	0.384116	0.610696
	C131	C	1.007462	0.385569	0.367793
	C132	C	0.893829	0.517012	0.110820
	C133	C	0.136535	0.499397	0.109659
	C134	C	0.137588	0.516236	0.865118
	C135	C	0.893401	0.499175	0.866517
	C136	C	0.141150	0.883514	0.497847
	C137	C	0.139378	0.128258	0.480747
	C138	C	0.896330	0.128173	0.498100
	C139	C	0.896686	0.885518	0.480129
	C140	C	0.524295	0.131184	0.867494
	C141	C	0.506955	0.129384	0.110665
	C142	C	0.523964	0.886206	0.111112
	C143	C	0.506320	0.888019	0.868675
	C144	C	0.398204	0.893757	0.668130
	C145	C	0.636342	0.123785	0.665342
	C146	C	0.638270	0.893437	0.311963
	C147	C	0.398294	0.123566	0.313410
	C148	C	0.693123	0.389688	0.874971
	C149	C	0.689878	0.626141	0.105439
	C150	C	0.338952	0.629232	0.873415
	C151	C	0.339132	0.390836	0.104649
	C152	C	0.902492	0.685874	0.369137
	C153	C	0.132090	0.680559	0.606453
	C154	C	0.901091	0.329423	0.608434
	C155	C	0.131946	0.331213	0.370557
	C156	C	0.900762	0.385908	0.666088
	C157	C	0.131336	0.623434	0.662929
	C158	C	0.901003	0.627470	0.313101
	C159	C	0.131423	0.387617	0.312088
	C160	C	0.394931	0.687478	0.874136
	C161	C	0.631783	0.683711	0.105020
	C162	C	0.635774	0.332292	0.874827
	C163	C	0.396059	0.332532	0.104857
	C164	C	0.694230	0.892486	0.371080
	C165	C	0.693121	0.123863	0.606712
	C166	C	0.343058	0.892558	0.609343
	C167	C	0.341250	0.122903	0.371123
	C168	C	0.896261	0.393143	0.165990
	C169	C	0.132895	0.623123	0.164034
	C170	C	0.135589	0.391915	0.812674
	C171	C	0.895054	0.622478	0.810102
	C172	C	0.197008	0.887910	0.374253
	C173	C	0.192688	0.124128	0.605086
	C174	C	0.841768	0.126869	0.374499
	C175	C	0.840493	0.886658	0.603237
	C176	C	0.399974	0.186098	0.871022
	C177	C	0.631174	0.183683	0.106911
	C178	C	0.399048	0.833764	0.109133
	C179	C	0.630117	0.832153	0.870568
	C180	C	0.400360	0.890201	0.167585
	C181	C	0.631713	0.126563	0.163460
	C182	C	0.400356	0.129694	0.812707
	C183	C	0.630706	0.889928	0.813930
	C184	C	0.898482	0.184137	0.374563
	C185	C	0.136327	0.182724	0.604241
	C186	C	0.140400	0.829187	0.374214
	C187	C	0.899200	0.830033	0.603817
	C188	C	0.193356	0.392746	0.870095
	C189	C	0.188350	0.624550	0.104718
	C190	C	0.840014	0.393060	0.108157
	C191	C	0.838181	0.623034	0.868865
	C192	C	0.416474	0.103849	0.589251
	C193	C	0.616423	0.913972	0.589899
	C194	C	0.617563	0.103501	0.387518
	C195	C	0.420268	0.912859	0.390289
	C196	C	0.614983	0.407888	0.084601
	C197	C	0.614692	0.608236	0.895252
	C198	C	0.412917	0.609494	0.084404
	C199	C	0.417392	0.409874	0.894743
	C200	C	0.112444	0.605099	0.387825
	C201	C	0.920612	0.606366	0.586506
	C202	C	0.111737	0.406228	0.588584
	C203	C	0.920391	0.407393	0.389759
	C204	C	0.915278	0.603569	0.088793
	C205	C	0.115828	0.412956	0.088263
	C206	C	0.114513	0.602597	0.885703
	C207	C	0.916352	0.412795	0.889554
	C208	C	0.118615	0.904426	0.584139
	C209	C	0.118006	0.106602	0.394560
	C210	C	0.918038	0.105327	0.584032
	C211	C	0.919289	0.907952	0.393978
	C212	C	0.611133	0.108873	0.888912
	C213	C	0.420024	0.108001	0.089664
	C214	C	0.610847	0.907480	0.088252
	C215	C	0.419609	0.910869	0.890848
	Zn216	Zn	0.516193	0.009408	0.739820
	Zn217	Zn	0.517205	0.008866	0.238420
	Zn218	Zn	0.765846	0.508105	-0.009981
	Zn219	Zn	0.265210	0.509688	-0.011892
	Zn220	Zn	0.018389	0.755668	0.488481
	Zn221	Zn	0.016870	0.256366	0.489408
	Zn222	Zn	0.015262	0.506471	0.736999
	Zn223	Zn	0.015411	0.506976	0.238653
	Zn224	Zn	0.514042	0.759118	-0.010960
	Zn225	Zn	0.515530	0.258166	-0.010228
	Zn226	Zn	0.767858	0.007827	0.489021
	Zn227	Zn	0.268549	0.007010	0.489777
	N228	N	0.430069	0.972186	0.669753
	N229	N	0.603102	0.045788	0.668405
	N230	N	0.605532	0.971862	0.308603
	N231	N	0.432400	0.045576	0.311615
	N232	N	0.694443	0.422513	0.952817
	N233	N	0.692903	0.593597	0.027516
	N234	N	0.336992	0.595134	0.951214
	N235	N	0.338147	0.424771	0.026817
	N236	N	0.980944	0.686514	0.401363
	N237	N	0.053905	0.682900	0.573238
	N238	N	0.979382	0.328051	0.574870
	N239	N	0.053795	0.329868	0.404368
	N240	N	0.978936	0.419130	0.667581
	N241	N	0.052971	0.590837	0.664253
	N242	N	0.978835	0.592490	0.311217
	N243	N	0.052953	0.420711	0.310316
	N244	N	0.426987	0.689299	0.952519
	N245	N	0.599160	0.686061	0.026912
	N246	N	0.601824	0.329902	0.952583
	N247	N	0.430318	0.330946	0.027112
	N248	N	0.695397	0.970408	0.404193
	N249	N	0.694999	0.045850	0.574136
	N250	N	0.341035	0.970276	0.574938
	N251	N	0.340488	0.044772	0.404566
	N252	N	0.929111	0.471202	0.167646
	N253	N	0.101476	0.544349	0.167332
	N254	N	0.101654	0.469739	0.809230
	N255	N	0.928613	0.544251	0.808469
	N256	N	0.197644	0.920861	0.452103
	N257	N	0.194700	0.090701	0.527343
	N258	N	0.840406	0.092408	0.452072
	N259	N	0.838723	0.920437	0.525419
	N260	N	0.478240	0.187473	0.903907
	N261	N	0.552557	0.185698	0.074824
	N262	N	0.476974	0.831238	0.074770
	N263	N	0.551692	0.830884	0.903780
	N264	N	0.479278	0.921814	0.169198
	N265	N	0.553556	0.093583	0.165977
	N266	N	0.478700	0.096160	0.810565
	N267	N	0.552685	0.924079	0.812616
	N268	N	0.931722	0.185052	0.452329
	N269	N	0.104064	0.185423	0.526138
	N270	N	0.106323	0.826409	0.451969
	N271	N	0.933318	0.829215	0.526096
	N272	N	0.194740	0.471187	0.901824
	N273	N	0.190731	0.546723	0.071446
	N274	N	0.838488	0.471129	0.074365
	N275	N	0.837152	0.545298	0.903209
	O276	O	1.007742	1.012926	-0.036154
	H277	H	1.011106	1.015086	-0.041117
	H278	H	1.002511	1.006591	-0.045004
	O279	O	-0.024804	-0.061669	1.026640
	H280	H	-0.032961	-0.053153	1.024648
	H281	H	-0.033743	-0.072767	1.039437
	O282	O	0.010343	0.019980	-0.029144
	H283	H	0.001354	0.017563	-0.029680
	H284	H	0.015723	0.022080	-0.037030
	O285	O	0.489762	0.569624	0.574179
	H286	H	0.500600	0.570153	0.577634
	H287	H	0.491418	0.576619	0.581859
	O288	O	-0.968023	-1.091671	0.022218
	H289	H	-0.968145	-1.082671	0.012965
	H290	H	-0.960483	-1.101728	0.014307
	O291	O	-0.028585	0.989834	-0.039597
	H292	H	-0.031693	1.004499	-0.042338
	H293	H	-0.035769	0.993728	-0.046886
	O294	O	-0.027722	1.111979	-0.002891
	H295	H	-0.021893	1.106210	-0.015592
	H296	H	-0.036441	1.113402	0.000693
	O297	O	0.556204	0.542301	0.527571
	H298	H	0.550506	0.542830	0.529337
	H299	H	0.553162	0.548951	0.524218
	O300	O	0.523741	0.456258	0.475136
	H301	H	0.524326	0.455851	0.481466
	H302	H	0.515655	0.457022	0.467051
	O303	O	0.907202	0.006843	0.945113
	H304	H	0.913168	0.005517	0.951070
	H305	H	0.911653	0.012509	0.964343
	O306	O	-0.091246	1.008089	0.967268
	H307	H	-0.093065	1.006898	0.966039
	H308	H	-0.089318	1.005986	0.975599
	O309	O	0.011104	1.057001	1.078306
	H310	H	0.015274	1.058583	1.077849
	H311	H	0.014155	1.056976	1.087316
	O312	O	-0.004613	-0.032820	1.034255
	H313	H	-0.005141	-0.038897	1.034856
	H314	H	0.005762	-0.033057	1.042792
	O315	O	0.530993	0.548582	0.511450
	H316	H	0.537221	0.549659	0.521696
	H317	H	0.529541	0.558339	0.506644
	O318	O	-0.011292	0.073375	0.947130
	H319	H	-0.021374	0.075206	0.941467
	H320	H	-0.016674	0.066017	0.955173
	O321	O	0.492376	0.478241	0.477004
	H322	H	0.495282	0.477459	0.481251
	H323	H	0.495293	0.472700	0.473692
	O324	O	0.544380	-0.482060	1.525303
	H325	H	0.544982	-0.494214	1.520662
	H326	H	0.535521	-0.479718	1.530218
	O327	O	0.961634	0.956164	1.014887
	H328	H	0.962304	0.961525	1.012223
	H329	H	0.957720	0.944666	1.010091
	O330	O	0.118323	0.165214	0.861164
	H331	H	0.105344	0.169020	0.858552
	H332	H	0.112838	0.162801	0.858392
	O333	O	0.511873	0.465298	0.453985
	H334	H	0.505006	0.455125	0.451915
	H335	H	0.522432	0.466324	0.451378
	O336	O	0.495496	0.569666	0.483010
	H337	H	0.486938	0.578850	0.478070
	H338	H	0.489306	0.574083	0.486455
	O339	O	0.483265	0.595250	0.457516
	H340	H	0.478480	0.599605	0.452709
	H341	H	0.484140	0.595662	0.456866
	O342	O	0.488082	0.519864	0.460042
	H343	H	0.490179	0.515647	0.461011
	H344	H	0.496635	0.523379	0.457719
	O345	O	0.569095	0.500774	0.525448
	H346	H	0.580705	0.496525	0.520259
	H347	H	0.562740	0.491474	0.530513
