data_Molecule from HDF5

_cell_length_a		16.088248
_cell_length_b		16.336991
_cell_length_c		16.370063
_cell_angle_alpha	89.448503
_cell_angle_beta	90.188337
_cell_angle_gamma	89.732509
_symmetry_space_group_name_H-M	'P 1'
_symmetry_Int_Tables_number		1

loop_
	_symmetry_equiv_pos_as_xyz
	x,y,z

loop_
	_atom_site_label
	_atom_site_type_symbol
	_atom_site_fract_x
	_atom_site_fract_y
	_atom_site_fract_z
	H0	H	0.397764	0.833922	0.718074
	H1	H	0.600565	0.157064	0.712431
	H2	H	0.603904	0.832909	0.279900
	H3	H	0.392106	0.154685	0.274985
	H4	H	0.710899	0.400322	0.831195
	H5	H	0.715406	0.593325	0.156648
	H6	H	0.280999	0.597887	0.832232
	H7	H	0.281315	0.395558	0.157551
	H8	H	0.833037	0.712189	0.391598
	H9	H	0.159940	0.707398	0.596198
	H10	H	0.831667	0.279340	0.594047
	H11	H	0.160217	0.276535	0.394236
	H12	H	0.833341	0.390943	0.712632
	H13	H	0.160207	0.594366	0.709596
	H14	H	0.832422	0.598047	0.276450
	H15	H	0.161427	0.393022	0.278813
	H16	H	0.392988	0.719614	0.835255
	H17	H	0.599726	0.710202	0.158242
	H18	H	0.602207	0.277884	0.835582
	H19	H	0.392965	0.274339	0.156933
	H20	H	0.711561	0.830014	0.403329
	H21	H	0.712966	0.156319	0.594915
	H22	H	0.285454	0.830210	0.598132
	H23	H	0.280008	0.156410	0.396190
	H24	H	0.890107	0.335819	0.216232
	H25	H	0.100393	0.657224	0.211664
	H26	H	0.101174	0.333004	0.778058
	H27	H	0.892720	0.655890	0.771123
	H28	H	0.215642	0.893507	0.334457
	H29	H	0.210059	0.088463	0.659743
	H30	H	0.779942	0.091886	0.333810
	H31	H	0.784450	0.893297	0.659652
	H32	H	0.334647	0.214430	0.895718
	H33	H	0.663323	0.209875	0.098163
	H34	H	0.333966	0.779586	0.098602
	H35	H	0.662423	0.783240	0.899431
	H36	H	0.335195	0.890912	0.215589
	H37	H	0.663082	0.093953	0.214547
	H38	H	0.334386	0.100360	0.779500
	H39	H	0.662639	0.898716	0.786160
	H40	H	0.888527	0.215578	0.335536
	H41	H	0.098146	0.209764	0.657464
	H42	H	0.099761	0.776093	0.333817
	H43	H	0.895895	0.771885	0.656613
	H44	H	0.217332	0.333898	0.894775
	H45	H	0.210089	0.659394	0.089810
	H46	H	0.783275	0.332740	0.092445
	H47	H	0.782453	0.659026	0.892146
	H48	H	0.403788	0.110961	0.589823
	H49	H	0.594834	0.876189	0.593497
	H50	H	0.580756	0.108398	0.402857
	H51	H	0.403748	0.879321	0.411949
	H52	H	0.596226	0.410603	0.109534
	H53	H	0.584061	0.586545	0.883108
	H54	H	0.414110	0.587633	0.108132
	H55	H	0.405333	0.419711	0.883981
	H56	H	0.112011	0.578746	0.400952
	H57	H	0.877766	0.589352	0.580208
	H58	H	0.114482	0.397469	0.583283
	H59	H	0.885667	0.411044	0.413651
	H60	H	0.111684	0.404790	0.584053
	H61	H	0.881870	0.576982	0.578227
	H62	H	0.116636	0.588140	0.397872
	H63	H	0.878828	0.412348	0.392664
	H64	H	0.402486	0.594117	0.112924
	H65	H	0.584510	0.599933	0.878335
	H66	H	0.580831	0.404308	0.107612
	H67	H	0.423896	0.401821	0.885165
	H68	H	0.585782	0.105883	0.410528
	H69	H	0.588562	0.877715	0.599751
	H70	H	0.405590	0.109981	0.588976
	H71	H	0.407774	0.876029	0.400049
	H72	H	0.904880	0.612765	0.087696
	H73	H	0.093085	0.377097	0.093619
	H74	H	0.088526	0.612692	0.895019
	H75	H	0.907420	0.380417	0.900701
	H76	H	0.090434	0.893912	0.611447
	H77	H	0.081283	0.088193	0.381271
	H78	H	0.902804	0.085013	0.611835
	H79	H	0.899849	0.906667	0.380767
	H80	H	0.615602	0.088557	0.904513
	H81	H	0.380644	0.091311	0.086986
	H82	H	0.618363	0.896911	0.091920
	H83	H	0.379851	0.912748	0.903021
	H84	H	0.612942	0.904201	0.081710
	H85	H	0.384855	0.083812	0.080232
	H86	H	0.616327	0.087217	0.906359
	H87	H	0.377931	0.901480	0.904111
	H88	H	0.909677	0.085603	0.610146
	H89	H	0.090608	0.088120	0.379025
	H90	H	0.090531	0.900854	0.610606
	H91	H	0.911316	0.903401	0.383192
	H92	H	0.081685	0.608379	0.899293
	H93	H	0.078950	0.383680	0.088475
	H94	H	0.910400	0.609832	0.085083
	H95	H	0.907011	0.380375	0.903637
	H96	H	0.403784	0.111256	0.587124
	H97	H	0.587088	0.879951	0.591269
	H98	H	0.590282	0.110274	0.403619
	H99	H	0.415967	0.882320	0.408565
	H100	H	0.593155	0.395078	0.114726
	H101	H	0.596598	0.591981	0.877269
	H102	H	0.402043	0.581189	0.109706
	H103	H	0.400298	0.395385	0.876410
	H104	H	0.113393	0.586327	0.407947
	H105	H	0.878307	0.580870	0.590662
	H106	H	0.115704	0.401260	0.590050
	H107	H	0.875986	0.393106	0.404366
	H108	H	0.904704	0.610419	0.081085
	H109	H	0.091388	0.381730	0.079399
	H110	H	0.089537	0.609402	0.903508
	H111	H	0.904668	0.379260	0.901725
	H112	H	0.085481	0.897182	0.609600
	H113	H	0.087045	0.080087	0.383631
	H114	H	0.905498	0.091367	0.612435
	H115	H	0.903390	0.895444	0.378517
	H116	H	0.615927	0.087405	0.904464
	H117	H	0.382349	0.080978	0.091059
	H118	H	0.615181	0.909963	0.094827
	H119	H	0.381802	0.906985	0.913359
	C120	C	0.375929	0.003284	0.619513
	C121	C	0.620099	0.985430	0.621122
	C122	C	0.617604	0.001603	0.377127
	C123	C	0.375894	0.985638	0.374693
	C124	C	0.620259	0.374490	0.004088
	C125	C	0.619314	0.619510	0.986685
	C126	C	0.375620	0.618870	0.003567
	C127	C	0.377651	0.374270	0.988014
	C128	C	0.005290	0.615944	0.371930
	C129	C	0.987746	0.612537	0.613525
	C130	C	0.005337	0.371792	0.615764
	C131	C	0.988182	0.373995	0.373456
	C132	C	0.875651	0.504318	0.115284
	C133	C	0.117941	0.487693	0.115577
	C134	C	0.119114	0.503461	0.870950
	C135	C	0.875685	0.487183	0.871036
	C136	C	0.119880	0.869079	0.504276
	C137	C	0.116969	0.114345	0.488225
	C138	C	0.873734	0.116720	0.504849
	C139	C	0.875951	0.871373	0.487837
	C140	C	0.507420	0.118510	0.875026
	C141	C	0.490769	0.115098	0.117462
	C142	C	0.507460	0.873018	0.119671
	C143	C	0.488650	0.877381	0.877817
	C144	C	0.377939	0.881768	0.678280
	C145	C	0.619359	0.108266	0.674316
	C146	C	0.621153	0.880697	0.319461
	C147	C	0.373511	0.106571	0.314907
	C148	C	0.674673	0.378345	0.880785
	C149	C	0.677133	0.615105	0.108361
	C150	C	0.319021	0.617971	0.881239
	C151	C	0.319329	0.374893	0.109075
	C152	C	0.882169	0.673801	0.372256
	C153	C	0.111243	0.668843	0.614250
	C154	C	0.881066	0.316611	0.614084
	C155	C	0.111215	0.315370	0.374098
	C156	C	0.882024	0.372153	0.672953
	C157	C	0.111319	0.612607	0.670837
	C158	C	0.881887	0.616959	0.314747
	C159	C	0.111879	0.373569	0.317014
	C160	C	0.374412	0.678814	0.882850
	C161	C	0.619537	0.673223	0.109303
	C162	C	0.620906	0.317120	0.883098
	C163	C	0.375451	0.314946	0.108796
	C164	C	0.674559	0.879124	0.381100
	C165	C	0.675539	0.107809	0.615993
	C166	C	0.322024	0.880024	0.618453
	C167	C	0.317862	0.107539	0.375339
	C168	C	0.873255	0.383535	0.175117
	C169	C	0.118257	0.609166	0.172167
	C170	C	0.120514	0.381708	0.815943
	C171	C	0.874850	0.608209	0.811599
	C172	C	0.177199	0.872723	0.382659
	C173	C	0.172507	0.110283	0.610775
	C174	C	0.817172	0.113596	0.382694
	C175	C	0.821356	0.872674	0.610699
	C176	C	0.383984	0.176317	0.875780
	C177	C	0.614208	0.171614	0.117731
	C178	C	0.383622	0.816797	0.118757
	C179	C	0.612859	0.821229	0.879549
	C180	C	0.384036	0.872575	0.176601
	C181	C	0.613992	0.114052	0.175572
	C182	C	0.383748	0.119459	0.817966
	C183	C	0.613031	0.878614	0.823144
	C184	C	0.871635	0.174722	0.383269
	C185	C	0.116884	0.170750	0.609403
	C186	C	0.119580	0.814230	0.382443
	C187	C	0.876719	0.812303	0.609036
	C188	C	0.178327	0.382190	0.873932
	C189	C	0.173174	0.610419	0.111699
	C190	C	0.819577	0.382149	0.113859
	C191	C	0.819707	0.609837	0.871673
	C192	C	0.397997	0.088561	0.595811
	C193	C	0.596993	0.900094	0.600919
	C194	C	0.592765	0.086080	0.399275
	C195	C	0.401562	0.901213	0.399510
	C196	C	0.596871	0.396885	0.088609
	C197	C	0.595444	0.598730	0.901743
	C198	C	0.399436	0.594604	0.088281
	C199	C	0.402524	0.398616	0.903839
	C200	C	0.091599	0.591407	0.395471
	C201	C	0.901619	0.589223	0.589942
	C202	C	0.091697	0.394587	0.592607
	C203	C	0.902383	0.398287	0.396757
	C204	C	0.899793	0.589071	0.091501
	C205	C	0.094549	0.402986	0.093457
	C206	C	0.094063	0.588144	0.892939
	C207	C	0.899351	0.402049	0.895075
	C208	C	0.095996	0.890766	0.588820
	C209	C	0.093131	0.092137	0.403133
	C210	C	0.898877	0.094035	0.589356
	C211	C	0.898161	0.894836	0.403046
	C212	C	0.593705	0.094582	0.898253
	C213	C	0.404943	0.092196	0.093200
	C214	C	0.593063	0.896765	0.096321
	C215	C	0.402225	0.900433	0.900233
	Zn216	Zn	0.498046	-0.003472	0.748541
	Zn217	Zn	0.498313	-0.006162	0.246112
	Zn218	Zn	0.747749	0.496685	-0.006708
	Zn219	Zn	0.247220	0.496079	-0.005327
	Zn220	Zn	-0.003323	0.741042	0.494948
	Zn221	Zn	-0.004030	0.245225	0.494776
	Zn222	Zn	-0.003183	0.493734	0.741920
	Zn223	Zn	-0.003064	0.495407	0.244614
	Zn224	Zn	0.497404	0.748252	-0.002909
	Zn225	Zn	0.499108	0.245163	-0.002947
	Zn226	Zn	0.747279	-0.006563	0.497759
	Zn227	Zn	0.247013	-0.006898	0.496964
	N228	N	0.410559	0.959492	0.679145
	N229	N	0.585555	0.031171	0.677703
	N230	N	0.586041	0.957681	0.317139
	N231	N	0.408737	0.029722	0.314441
	N232	N	0.674415	0.413340	0.957014
	N233	N	0.677302	0.582540	0.031178
	N234	N	0.319627	0.581498	0.957394
	N235	N	0.320515	0.411191	0.032935
	N236	N	0.960105	0.673380	0.406829
	N237	N	0.033370	0.668895	0.579301
	N238	N	0.958801	0.316424	0.579190
	N239	N	0.033304	0.315743	0.408565
	N240	N	0.960311	0.405605	0.674208
	N241	N	0.033510	0.577885	0.670439
	N242	N	0.959724	0.581698	0.314472
	N243	N	0.034269	0.409274	0.316433
	N244	N	0.408854	0.679405	0.959854
	N245	N	0.584369	0.676163	0.032656
	N246	N	0.588030	0.314247	0.960659
	N247	N	0.410697	0.314395	0.032387
	N248	N	0.672461	0.955156	0.416338
	N249	N	0.676078	0.030576	0.583410
	N250	N	0.320575	0.956606	0.582494
	N251	N	0.319236	0.031168	0.411734
	N252	N	0.907349	0.460621	0.176189
	N253	N	0.084600	0.531836	0.174535
	N254	N	0.084687	0.458232	0.813734
	N255	N	0.909061	0.530801	0.811245
	N256	N	0.177700	0.905848	0.459605
	N257	N	0.172770	0.076150	0.534294
	N258	N	0.818166	0.078479	0.459323
	N259	N	0.820722	0.908867	0.534515
	N260	N	0.461932	0.175815	0.910323
	N261	N	0.536533	0.172523	0.082491
	N262	N	0.461240	0.816955	0.083942
	N263	N	0.534481	0.820296	0.913019
	N264	N	0.461939	0.906819	0.177530
	N265	N	0.536230	0.079568	0.175373
	N266	N	0.461708	0.084449	0.817124
	N267	N	0.534769	0.912825	0.821879
	N268	N	0.906134	0.176720	0.460115
	N269	N	0.082982	0.173377	0.532012
	N270	N	0.084647	0.811779	0.458949
	N271	N	0.909684	0.811313	0.531807
	N272	N	0.177482	0.459035	0.907409
	N273	N	0.172893	0.534155	0.076941
	N274	N	0.820842	0.458271	0.077386
	N275	N	0.820119	0.533601	0.908072
	O276	O	0.028833	-0.090861	-0.036775
	H277	H	0.029291	-0.077492	-0.040333
	H278	H	0.024115	-0.092843	-0.031164
	O279	O	0.931208	0.017126	0.946116
	H280	H	0.933562	0.015735	0.945850
	H281	H	0.930334	0.012260	0.954288
	O282	O	0.944905	-0.090526	-0.026103
	H283	H	0.948605	-0.090501	-0.023013
	H284	H	0.948588	-0.078981	-0.016972
	O285	O	-0.065625	0.915659	-0.019994
	H286	H	-0.069388	0.913876	-0.013452
	H287	H	-0.073773	0.916936	-0.012281
	O288	O	0.328185	0.662886	0.394935
	H289	H	0.305061	0.672500	0.393335
	H290	H	0.338343	0.666565	0.370123
	O291	O	0.429288	0.391986	0.535353
	H292	H	0.432235	0.386154	0.520739
	H293	H	0.428531	0.381906	0.535584
	O294	O	1.081075	1.179782	0.948090
	H295	H	1.066197	1.186272	0.924299
	H296	H	1.090254	1.182937	0.942486
	O297	O	-0.071131	-0.034282	-0.033311
	H298	H	-0.064983	-0.055095	-0.022439
	H299	H	-0.073404	-0.024055	-0.022905
	O300	O	0.481186	0.485154	0.603738
	H301	H	0.481593	0.487159	0.602565
	H302	H	0.474604	0.480755	0.608168
	O303	O	0.040144	1.140436	0.876741
	H304	H	0.033594	1.155874	0.872744
	H305	H	0.023972	1.123147	0.862783
	O306	O	0.506010	0.388405	0.428679
	H307	H	0.499790	0.400061	0.426887
	H308	H	0.512734	0.383105	0.442084
	O309	O	0.967837	-0.130198	-0.027891
	H310	H	0.963624	-0.122704	-0.017607
	H311	H	0.967621	-0.137623	-0.014450
	O312	O	0.066674	-0.083739	1.067179
	H313	H	0.051730	-0.090134	1.083841
	H314	H	0.084393	-0.082791	1.061052
	O315	O	0.608188	0.510335	0.505030
	H316	H	0.609265	0.515522	0.503353
	H317	H	0.609422	0.510135	0.505670
	O318	O	0.485963	0.370142	0.517269
	H319	H	0.480209	0.382090	0.523024
	H320	H	0.484672	0.355710	0.523993
	O321	O	0.391003	0.573715	0.410897
	H322	H	0.399884	0.572236	0.408285
	H323	H	0.392233	0.570790	0.399413
	O324	O	0.418933	0.567546	0.617531
	H325	H	0.404057	0.563538	0.622811
	H326	H	0.421834	0.560998	0.618833
	O327	O	0.119229	0.922035	0.958935
	H328	H	0.103122	0.921352	0.959838
	H329	H	0.120461	0.920937	0.949761
	O330	O	0.550244	0.642335	0.363534
	H331	H	0.560782	0.641264	0.370164
	H332	H	0.540757	0.648336	0.358485
	O333	O	-0.063266	1.172094	0.977860
	H334	H	-0.058763	1.176300	0.986485
	H335	H	-0.068849	1.180840	0.965721
	O336	O	1.090615	0.913480	0.883451
	H337	H	1.104125	0.912696	0.873453
	H338	H	1.081169	0.895710	0.892508
	O339	O	0.601085	0.461251	0.426654
	H340	H	0.603433	0.451246	0.422739
	H341	H	0.602955	0.451000	0.436151
	O342	O	0.940708	-0.108749	0.092986
	H343	H	0.943627	-0.113011	0.108684
	H344	H	0.934087	-0.111736	0.098575
	O345	O	0.444350	0.406630	0.585445
	H346	H	0.464290	0.414212	0.580276
	H347	H	0.421548	0.416699	0.580228
	O348	O	0.879602	1.074831	0.962761
	H349	H	0.886504	1.080451	0.959081
	H350	H	0.873168	1.075251	0.957322
	O351	O	1.033354	1.124917	0.154770
	H352	H	1.048288	1.131432	0.151669
	H353	H	1.049970	1.139595	0.158081
	O354	O	0.348128	0.448710	0.559723
	H355	H	0.334756	0.461133	0.569242
	H356	H	0.345986	0.449223	0.551124
	O357	O	0.514178	0.434528	0.487748
	H358	H	0.524150	0.439893	0.474802
	H359	H	0.499473	0.432146	0.498475
	O360	O	-0.034948	-0.010022	-0.113342
	H361	H	-0.054993	-0.012735	-0.101434
	H362	H	-0.035480	-0.031083	-0.112437
	O363	O	0.477320	0.440259	0.493782
	H364	H	0.475366	0.444084	0.505175
	H365	H	0.482380	0.431840	0.501260
	O366	O	0.427235	0.568309	0.541212
	H367	H	0.419572	0.573890	0.531649
	H368	H	0.434619	0.564432	0.548477
	O369	O	0.549618	0.449504	0.568397
	H370	H	0.534680	0.450405	0.567233
	H371	H	0.550976	0.444851	0.571646
	O372	O	0.525926	0.528270	0.491649
	H373	H	0.545595	0.531433	0.493054
	H374	H	0.527496	0.521697	0.497573
	O375	O	0.596455	0.428629	0.436855
	H376	H	0.605450	0.426891	0.430115
	H377	H	0.599649	0.437599	0.449740
	O378	O	0.570629	0.487581	0.508546
	H379	H	0.572907	0.495172	0.514940
	H380	H	0.567986	0.488903	0.510345
	O381	O	0.511902	0.561027	0.342281
	H382	H	0.501988	0.553953	0.340892
	H383	H	0.511153	0.556952	0.338145
	O384	O	-0.038897	1.065531	0.125098
	H385	H	-0.029029	1.059109	0.121435
	H386	H	-0.023709	1.080214	0.123685
	O387	O	0.940652	-0.060046	1.024321
	H388	H	0.937013	-0.064967	1.028778
	H389	H	0.937279	-0.050316	1.012636
	O390	O	0.038965	1.019060	0.059377
	H391	H	0.039677	1.016510	0.057760
	H392	H	0.036591	1.026133	0.059721
	O393	O	1.032463	0.999189	0.136765
	H394	H	1.042081	1.006595	0.145884
	H395	H	1.034660	0.992955	0.124541
	O396	O	0.512867	0.396506	0.339375
	H397	H	0.523516	0.379382	0.341389
	H398	H	0.508955	0.395389	0.347058
	O399	O	-0.047342	1.073816	0.879002
	H400	H	-0.040298	1.061360	0.888858
	H401	H	-0.064146	1.074225	0.867936
	O402	O	1.165215	1.081932	1.151843
	H403	H	1.171275	1.072418	1.164229
	H404	H	1.172645	1.087991	1.134183
	O405	O	0.390418	1.554700	0.598683
	H406	H	0.383108	1.548474	0.600227
	H407	H	0.394915	1.571067	0.602786
