data_Molecule from HDF5

_cell_length_a		16.178044
_cell_length_b		16.211895
_cell_length_c		16.361077
_cell_angle_alpha	89.973890
_cell_angle_beta	90.141217
_cell_angle_gamma	89.967381
_symmetry_space_group_name_H-M	'P 1'
_symmetry_Int_Tables_number		1

loop_
	_symmetry_equiv_pos_as_xyz
	x,y,z

loop_
	_atom_site_label
	_atom_site_type_symbol
	_atom_site_fract_x
	_atom_site_fract_y
	_atom_site_fract_z
	H0	H	0.407347	0.840038	0.719198
	H1	H	0.607437	0.166836	0.721174
	H2	H	0.606187	0.840086	0.289940
	H3	H	0.405335	0.167388	0.289119
	H4	H	0.720279	0.404728	0.840713
	H5	H	0.720683	0.600616	0.167879
	H6	H	0.291490	0.600954	0.841400
	H7	H	0.291814	0.405292	0.167913
	H8	H	0.840663	0.716689	0.406389
	H9	H	0.171294	0.714636	0.600949
	H10	H	0.840341	0.291278	0.600728
	H11	H	0.171140	0.290259	0.407772
	H12	H	0.841414	0.404717	0.718470
	H13	H	0.169910	0.602806	0.719739
	H14	H	0.841491	0.603724	0.289369
	H15	H	0.169884	0.404006	0.290759
	H16	H	0.406577	0.717299	0.841658
	H17	H	0.604971	0.718134	0.167660
	H18	H	0.603734	0.287912	0.841446
	H19	H	0.409597	0.290181	0.168240
	H20	H	0.717871	0.838445	0.409296
	H21	H	0.719732	0.168173	0.602150
	H22	H	0.294939	0.838092	0.601090
	H23	H	0.293225	0.168444	0.407979
	H24	H	0.905918	0.339749	0.220252
	H25	H	0.106020	0.667289	0.220666
	H26	H	0.105831	0.339897	0.789788
	H27	H	0.905640	0.667301	0.789048
	H28	H	0.219923	0.906493	0.340676
	H29	H	0.221097	0.100477	0.668176
	H30	H	0.791672	0.100719	0.341837
	H31	H	0.792844	0.904687	0.667887
	H32	H	0.341345	0.216902	0.906735
	H33	H	0.671050	0.216903	0.102856
	H34	H	0.340974	0.789928	0.101778
	H35	H	0.671024	0.790715	0.908811
	H36	H	0.341691	0.903742	0.219063
	H37	H	0.670531	0.101954	0.218626
	H38	H	0.342208	0.103899	0.788912
	H39	H	0.670486	0.903810	0.791014
	H40	H	0.907061	0.218029	0.342098
	H41	H	0.106202	0.218516	0.667854
	H42	H	0.104046	0.788941	0.340993
	H43	H	0.908242	0.788627	0.667530
	H44	H	0.217719	0.338229	0.909332
	H45	H	0.218514	0.668988	0.100734
	H46	H	0.793711	0.338405	0.101498
	H47	H	0.792711	0.668307	0.907627
	H48	H	0.416133	0.119547	0.597984
	H49	H	0.593993	0.886214	0.601620
	H50	H	0.616313	0.125563	0.413327
	H51	H	0.407647	0.882909	0.405068
	H52	H	0.606058	0.406968	0.123029
	H53	H	0.602782	0.594989	0.888524
	H54	H	0.414762	0.594087	0.119846
	H55	H	0.408961	0.412526	0.887960
	H56	H	0.123247	0.588844	0.404502
	H57	H	0.888412	0.585931	0.605328
	H58	H	0.122240	0.412837	0.597924
	H59	H	0.888688	0.414481	0.409698
	H60	H	0.124713	0.410141	0.601029
	H61	H	0.884323	0.606354	0.602161
	H62	H	0.126141	0.605078	0.410365
	H63	H	0.886449	0.407801	0.409561
	H64	H	0.414503	0.600159	0.121153
	H65	H	0.595564	0.595954	0.889821
	H66	H	0.600350	0.417636	0.117845
	H67	H	0.415432	0.410754	0.889812
	H68	H	0.591252	0.123536	0.394136
	H69	H	0.599464	0.888403	0.591968
	H70	H	0.413122	0.121347	0.596438
	H71	H	0.421468	0.887345	0.408032
	H72	H	0.909745	0.621514	0.096308
	H73	H	0.104196	0.384980	0.097875
	H74	H	0.088976	0.616289	0.914928
	H75	H	0.916824	0.388682	0.916818
	H76	H	0.099475	0.903049	0.622171
	H77	H	0.100931	0.088401	0.391180
	H78	H	0.926546	0.093021	0.616221
	H79	H	0.911769	0.913462	0.388922
	H80	H	0.625283	0.094406	0.903991
	H81	H	0.388040	0.095471	0.098478
	H82	H	0.625653	0.903349	0.096741
	H83	H	0.387576	0.913469	0.907591
	H84	H	0.620624	0.916223	0.093639
	H85	H	0.387699	0.097437	0.098788
	H86	H	0.623877	0.103083	0.917110
	H87	H	0.386590	0.907342	0.909765
	H88	H	0.911112	0.110286	0.625794
	H89	H	0.091291	0.101039	0.389910
	H90	H	0.106373	0.909049	0.621925
	H91	H	0.915953	0.907779	0.388838
	H92	H	0.107730	0.622158	0.917205
	H93	H	0.095464	0.385710	0.103441
	H94	H	0.913578	0.622032	0.102642
	H95	H	0.907231	0.384340	0.910320
	H96	H	0.413457	0.121959	0.599140
	H97	H	0.604916	0.883623	0.601019
	H98	H	0.588742	0.114007	0.424269
	H99	H	0.411052	0.887568	0.418831
	H100	H	0.593493	0.405830	0.119954
	H101	H	0.600170	0.600830	0.887174
	H102	H	0.409596	0.596189	0.122275
	H103	H	0.411347	0.405968	0.887140
	H104	H	0.119341	0.592393	0.420399
	H105	H	0.891975	0.594630	0.586051
	H106	H	0.123803	0.408638	0.596957
	H107	H	0.888886	0.411103	0.415033
	H108	H	0.916663	0.619203	0.096375
	H109	H	0.095734	0.388735	0.093730
	H110	H	0.099340	0.624358	0.899456
	H111	H	0.918467	0.386555	0.905324
	H112	H	0.098293	0.911433	0.619213
	H113	H	0.106487	0.102770	0.385372
	H114	H	0.903414	0.086927	0.621402
	H115	H	0.909242	0.907254	0.387086
	H116	H	0.620027	0.088150	0.917224
	H117	H	0.389057	0.097032	0.096939
	H118	H	0.624678	0.913142	0.106256
	H119	H	0.389577	0.911585	0.913457
	C120	C	0.385547	0.012229	0.625750
	C121	C	0.628395	0.994665	0.626807
	C122	C	0.627295	0.012259	0.383320
	C123	C	0.384611	0.994886	0.382803
	C124	C	0.628354	0.381363	0.012616
	C125	C	0.628277	0.625233	0.996180
	C126	C	0.384363	0.624985	0.013177
	C127	C	0.383755	0.381294	0.996130
	C128	C	0.014056	0.624571	0.382918
	C129	C	0.997336	0.624353	0.625785
	C130	C	0.014583	0.381915	0.626480
	C131	C	0.997111	0.382357	0.383489
	C132	C	0.884905	0.511856	0.126364
	C133	C	0.127527	0.495169	0.126530
	C134	C	0.127163	0.511997	0.882964
	C135	C	0.884784	0.494850	0.882488
	C136	C	0.128632	0.880887	0.512757
	C137	C	0.128205	0.125167	0.496469
	C138	C	0.884371	0.125366	0.513580
	C139	C	0.884583	0.880976	0.496234
	C140	C	0.514494	0.124575	0.883476
	C141	C	0.497425	0.124905	0.126099
	C142	C	0.514481	0.881850	0.126644
	C143	C	0.497133	0.881960	0.882879
	C144	C	0.387512	0.888681	0.680896
	C145	C	0.626820	0.118146	0.682423
	C146	C	0.625510	0.888594	0.328481
	C147	C	0.386101	0.118503	0.327556
	C148	C	0.682729	0.384079	0.889596
	C149	C	0.682870	0.621832	0.119065
	C150	C	0.329173	0.622075	0.890193
	C151	C	0.329147	0.384145	0.119158
	C152	C	0.889957	0.679252	0.385873
	C153	C	0.121679	0.678232	0.622435
	C154	C	0.889863	0.328057	0.622225
	C155	C	0.121489	0.327560	0.386988
	C156	C	0.890514	0.384051	0.681051
	C157	C	0.121153	0.622337	0.680972
	C158	C	0.890334	0.623272	0.327569
	C159	C	0.121033	0.384284	0.328794
	C160	C	0.386238	0.679883	0.890383
	C161	C	0.625379	0.680088	0.118963
	C162	C	0.624973	0.326054	0.889850
	C163	C	0.387868	0.327204	0.119273
	C164	C	0.681065	0.887885	0.387746
	C165	C	0.682735	0.118816	0.623341
	C166	C	0.331779	0.887712	0.621938
	C167	C	0.330068	0.119044	0.386286
	C168	C	0.886418	0.388369	0.181746
	C169	C	0.125782	0.618563	0.182078
	C170	C	0.125349	0.388572	0.828227
	C171	C	0.885870	0.618524	0.827376
	C172	C	0.182688	0.884989	0.389515
	C173	C	0.183265	0.121809	0.619445
	C174	C	0.828958	0.122294	0.390804
	C175	C	0.830140	0.883926	0.619085
	C176	C	0.390648	0.179653	0.885647
	C177	C	0.621698	0.179182	0.123294
	C178	C	0.390427	0.827418	0.122829
	C179	C	0.621549	0.827648	0.887423
	C180	C	0.390814	0.883853	0.181237
	C181	C	0.621300	0.122321	0.181159
	C182	C	0.390946	0.123227	0.827447
	C183	C	0.621210	0.883623	0.828622
	C184	C	0.886263	0.180600	0.390986
	C185	C	0.126038	0.180358	0.619187
	C186	C	0.125069	0.826645	0.389665
	C187	C	0.887770	0.826273	0.618907
	C188	C	0.181069	0.387779	0.887273
	C189	C	0.181881	0.619416	0.122848
	C190	C	0.830957	0.387509	0.122588
	C191	C	0.829860	0.619028	0.886202
	C192	C	0.407688	0.098626	0.604181
	C193	C	0.605905	0.908375	0.604867
	C194	C	0.605317	0.098646	0.404455
	C195	C	0.406863	0.908414	0.404451
	C196	C	0.606542	0.403574	0.098090
	C197	C	0.606127	0.603485	0.910589
	C198	C	0.406343	0.603221	0.098815
	C199	C	0.405384	0.403183	0.910573
	C200	C	0.100627	0.602070	0.405156
	C201	C	0.910722	0.602221	0.604003
	C202	C	0.101220	0.404000	0.605119
	C203	C	0.910420	0.404645	0.404978
	C204	C	0.906755	0.598511	0.104947
	C205	C	0.105061	0.408822	0.104682
	C206	C	0.105198	0.598589	0.904321
	C207	C	0.907443	0.408726	0.904292
	C208	C	0.107650	0.901601	0.598659
	C209	C	0.106128	0.103667	0.410891
	C210	C	0.906909	0.103086	0.599166
	C211	C	0.906137	0.902913	0.410454
	C212	C	0.600777	0.101739	0.906056
	C213	C	0.410540	0.103067	0.104322
	C214	C	0.601387	0.904177	0.105060
	C215	C	0.410451	0.904153	0.903932
	Zn216	Zn	0.506283	0.003370	0.754904
	Zn217	Zn	0.505987	0.003544	0.254698
	Zn218	Zn	0.757410	0.503001	0.004296
	Zn219	Zn	0.255397	0.503661	0.004610
	Zn220	Zn	0.005919	0.751839	0.504093
	Zn221	Zn	0.006107	0.254275	0.505180
	Zn222	Zn	0.006130	0.503758	0.754251
	Zn223	Zn	0.005593	0.503856	0.255091
	Zn224	Zn	0.505612	0.753845	0.004758
	Zn225	Zn	0.505891	0.252517	0.004518
	Zn226	Zn	0.756063	0.003387	0.504740
	Zn227	Zn	0.257233	0.003305	0.504565
	N228	N	0.420393	0.966881	0.683267
	N229	N	0.593677	0.039907	0.684748
	N230	N	0.592487	0.966790	0.325778
	N231	N	0.419165	0.040191	0.325213
	N232	N	0.685020	0.417630	0.966994
	N233	N	0.684652	0.588426	0.041851
	N234	N	0.327920	0.588513	0.967497
	N235	N	0.326777	0.417373	0.041847
	N236	N	0.968089	0.680301	0.419341
	N237	N	0.043746	0.679426	0.588708
	N238	N	0.967885	0.326736	0.588994
	N239	N	0.043400	0.326223	0.420150
	N240	N	0.969079	0.416631	0.684088
	N241	N	0.042779	0.589468	0.683199
	N242	N	0.968563	0.589901	0.325727
	N243	N	0.042664	0.417425	0.326441
	N244	N	0.419887	0.681838	0.967778
	N245	N	0.592213	0.682424	0.041465
	N246	N	0.591876	0.324269	0.967217
	N247	N	0.420849	0.325201	0.041685
	N248	N	0.682332	0.965688	0.421096
	N249	N	0.683781	0.041229	0.589470
	N250	N	0.330493	0.965609	0.588397
	N251	N	0.329015	0.041244	0.419885
	N252	N	0.919324	0.466659	0.184133
	N253	N	0.092764	0.540214	0.184509
	N254	N	0.092599	0.466915	0.825569
	N255	N	0.919190	0.540457	0.824827
	N256	N	0.185263	0.917720	0.467119
	N257	N	0.184632	0.088043	0.542370
	N258	N	0.827714	0.088732	0.468166
	N259	N	0.828235	0.917596	0.541916
	N260	N	0.468281	0.180458	0.919877
	N261	N	0.543609	0.180880	0.089819
	N262	N	0.468438	0.826320	0.089499
	N263	N	0.543373	0.826476	0.920388
	N264	N	0.469207	0.916931	0.183795
	N265	N	0.542971	0.089099	0.182924
	N266	N	0.469089	0.089707	0.825847
	N267	N	0.542878	0.916729	0.825788
	N268	N	0.920061	0.182282	0.468129
	N269	N	0.092322	0.182316	0.541790
	N270	N	0.091988	0.824116	0.467014
	N271	N	0.920687	0.824256	0.541467
	N272	N	0.182282	0.465638	0.920661
	N273	N	0.182993	0.541774	0.088949
	N274	N	0.829789	0.465293	0.088970
	N275	N	0.829154	0.541229	0.919896
	O276	O	0.468090	0.582015	0.487414
	H277	H	0.472046	0.578611	0.484441
	H278	H	0.468312	0.586424	0.484785
	O279	O	-0.016795	0.054590	-0.008586
	H280	H	-0.018343	0.057737	-0.008208
	H281	H	-0.024122	0.058197	-0.003196
	O282	O	0.471899	0.518917	0.462911
	H283	H	0.475264	0.526353	0.457267
	H284	H	0.470483	0.519168	0.457645
	O285	O	0.520943	0.491056	0.465261
	H286	H	0.521280	0.486661	0.469251
	H287	H	0.516006	0.486564	0.464357
	O288	O	0.995023	0.061006	0.020725
	H289	H	0.996957	0.055309	0.017295
	H290	H	0.998255	0.055798	0.027907
	O291	O	-0.489079	0.459772	-0.543350
	H292	H	-0.494795	0.458571	-0.543827
	H293	H	-0.487167	0.460171	-0.538653
	O294	O	0.498960	0.535388	0.472128
	H295	H	0.494261	0.540368	0.467132
	H296	H	0.506512	0.536943	0.469668
	O297	O	0.006763	0.997626	-0.013973
	H298	H	0.008577	1.003660	-0.019909
	H299	H	0.004395	0.999176	-0.019222
	O300	O	0.955117	0.075053	0.953437
	H301	H	0.946628	0.078419	0.953783
	H302	H	0.958719	0.082468	0.952938
	O303	O	0.518476	0.498090	0.481956
	H304	H	0.524917	0.496100	0.488648
	H305	H	0.516619	0.505672	0.479823
	O306	O	-0.034672	1.045239	1.014026
	H307	H	-0.035459	1.051655	1.011634
	H308	H	-0.032565	1.037758	1.011628
	O309	O	0.538151	0.546025	0.457469
	H310	H	0.549910	0.547904	0.454928
	H311	H	0.532712	0.541132	0.469610
