data_Molecule from HDF5

_cell_length_a		16.208127
_cell_length_b		16.224395
_cell_length_c		16.262890
_cell_angle_alpha	89.423196
_cell_angle_beta	89.963876
_cell_angle_gamma	90.683527
_symmetry_space_group_name_H-M	'P 1'
_symmetry_Int_Tables_number		1

loop_
	_symmetry_equiv_pos_as_xyz
	x,y,z

loop_
	_atom_site_label
	_atom_site_type_symbol
	_atom_site_fract_x
	_atom_site_fract_y
	_atom_site_fract_z
	H0	H	0.393341	0.835651	0.720818
	H1	H	0.598442	0.163252	0.713361
	H2	H	0.596541	0.835485	0.286363
	H3	H	0.394380	0.159702	0.281144
	H4	H	0.715287	0.402207	0.839174
	H5	H	0.717735	0.600265	0.164507
	H6	H	0.285455	0.599230	0.837810
	H7	H	0.280779	0.393940	0.163674
	H8	H	0.834569	0.710867	0.401432
	H9	H	0.162285	0.716256	0.599802
	H10	H	0.835463	0.279921	0.603860
	H11	H	0.162397	0.286115	0.403264
	H12	H	0.836071	0.394076	0.719158
	H13	H	0.164107	0.599135	0.714847
	H14	H	0.837270	0.600241	0.282729
	H15	H	0.162687	0.401182	0.288593
	H16	H	0.401585	0.714744	0.837955
	H17	H	0.603064	0.716152	0.164721
	H18	H	0.599165	0.288297	0.837718
	H19	H	0.395971	0.278281	0.163028
	H20	H	0.710615	0.834795	0.401901
	H21	H	0.715117	0.161310	0.600142
	H22	H	0.279012	0.834859	0.604305
	H23	H	0.284815	0.162104	0.401676
	H24	H	0.896645	0.335741	0.220806
	H25	H	0.103897	0.661692	0.215264
	H26	H	0.099611	0.334979	0.787697
	H27	H	0.902825	0.660940	0.785301
	H28	H	0.211407	0.900406	0.339291
	H29	H	0.215508	0.098377	0.664568
	H30	H	0.782448	0.098761	0.338665
	H31	H	0.779278	0.895047	0.665680
	H32	H	0.334547	0.213836	0.900676
	H33	H	0.662664	0.215826	0.101388
	H34	H	0.335213	0.777550	0.103427
	H35	H	0.663268	0.789414	0.902340
	H36	H	0.333912	0.893806	0.217850
	H37	H	0.660492	0.100646	0.218423
	H38	H	0.333771	0.096967	0.787229
	H39	H	0.661721	0.903623	0.786993
	H40	H	0.898273	0.215805	0.338953
	H41	H	0.098283	0.212206	0.666248
	H42	H	0.096680	0.787095	0.338140
	H43	H	0.894910	0.778032	0.664617
	H44	H	0.212417	0.334076	0.903476
	H45	H	0.216987	0.661239	0.098285
	H46	H	0.780519	0.335982	0.105737
	H47	H	0.788928	0.662529	0.901362
	H48	H	0.415917	0.111333	0.590895
	H49	H	0.592508	0.878888	0.597712
	H50	H	0.590543	0.117678	0.398090
	H51	H	0.393844	0.878959	0.413512
	H52	H	0.594985	0.415784	0.116993
	H53	H	0.597279	0.591065	0.884646
	H54	H	0.406016	0.591691	0.119294
	H55	H	0.409581	0.409975	0.886628
	H56	H	0.114117	0.582819	0.407028
	H57	H	0.882213	0.588265	0.594629
	H58	H	0.116346	0.403312	0.591174
	H59	H	0.884847	0.411857	0.416065
	H60	H	0.115081	0.410482	0.593901
	H61	H	0.882493	0.586763	0.593992
	H62	H	0.120153	0.601076	0.400626
	H63	H	0.880522	0.408422	0.405008
	H64	H	0.405910	0.583062	0.116308
	H65	H	0.588690	0.594672	0.886936
	H66	H	0.579183	0.407719	0.114570
	H67	H	0.406680	0.403751	0.883859
	H68	H	0.578754	0.111087	0.412894
	H69	H	0.582212	0.881590	0.600556
	H70	H	0.396909	0.116596	0.586333
	H71	H	0.406852	0.880145	0.401713
	H72	H	0.905466	0.615296	0.088965
	H73	H	0.093660	0.376603	0.106821
	H74	H	0.089951	0.612668	0.910550
	H75	H	0.901854	0.380209	0.914893
	H76	H	0.082029	0.898653	0.619080
	H77	H	0.091450	0.094599	0.385162
	H78	H	0.909510	0.097279	0.619605
	H79	H	0.913019	0.917494	0.391331
	H80	H	0.615591	0.102487	0.916635
	H81	H	0.380673	0.088372	0.096160
	H82	H	0.611412	0.916636	0.094519
	H83	H	0.382669	0.906152	0.916061
	H84	H	0.616996	0.906437	0.101735
	H85	H	0.381694	0.093119	0.087105
	H86	H	0.611048	0.083354	0.907214
	H87	H	0.381730	0.910321	0.909312
	H88	H	0.897428	0.085165	0.619845
	H89	H	0.092023	0.091506	0.385702
	H90	H	0.097293	0.905048	0.622236
	H91	H	0.908516	0.889480	0.382022
	H92	H	0.100043	0.616661	0.909069
	H93	H	0.078453	0.385218	0.095959
	H94	H	0.909294	0.617261	0.098090
	H95	H	0.906769	0.379699	0.907288
	H96	H	0.404408	0.119361	0.605203
	H97	H	0.585437	0.883625	0.590616
	H98	H	0.598243	0.114652	0.416861
	H99	H	0.409147	0.885386	0.417905
	H100	H	0.593140	0.398446	0.122007
	H101	H	0.595461	0.599661	0.883247
	H102	H	0.413523	0.587630	0.115110
	H103	H	0.402537	0.409482	0.884187
	H104	H	0.114385	0.598010	0.419966
	H105	H	0.882031	0.586585	0.595098
	H106	H	0.117365	0.405938	0.599312
	H107	H	0.880930	0.400377	0.413701
	H108	H	0.915104	0.613103	0.091460
	H109	H	0.096259	0.381564	0.086742
	H110	H	0.091946	0.616927	0.901447
	H111	H	0.909819	0.383175	0.914504
	H112	H	0.083937	0.914216	0.614939
	H113	H	0.088434	0.092803	0.385935
	H114	H	0.912375	0.081253	0.614215
	H115	H	0.885813	0.908518	0.381533
	H116	H	0.620772	0.099632	0.895891
	H117	H	0.384064	0.083018	0.089383
	H118	H	0.614360	0.904342	0.088322
	H119	H	0.379719	0.901475	0.909732
	C120	C	0.375249	0.007283	0.624180
	C121	C	0.617913	0.989576	0.623730
	C122	C	0.617831	0.006664	0.380493
	C123	C	0.374785	0.989179	0.380197
	C124	C	0.619350	0.379241	0.010242
	C125	C	0.623504	0.623255	0.992918
	C126	C	0.378969	0.618909	0.009524
	C127	C	0.376233	0.376257	0.992423
	C128	C	0.008015	0.621686	0.379333
	C129	C	0.990555	0.618601	0.622984
	C130	C	0.008144	0.375592	0.624673
	C131	C	0.990409	0.378562	0.382287
	C132	C	0.877701	0.507488	0.124541
	C133	C	0.121271	0.489259	0.123855
	C134	C	0.121706	0.507065	0.879500
	C135	C	0.878872	0.489288	0.881477
	C136	C	0.117541	0.877939	0.511036
	C137	C	0.120302	0.121393	0.493184
	C138	C	0.877193	0.118615	0.510369
	C139	C	0.873303	0.874864	0.493394
	C140	C	0.507011	0.122947	0.878003
	C141	C	0.489786	0.119376	0.121504
	C142	C	0.506480	0.876441	0.124316
	C143	C	0.489823	0.878781	0.881550
	C144	C	0.374487	0.884313	0.681895
	C145	C	0.617739	0.113622	0.676743
	C146	C	0.616293	0.884270	0.324395
	C147	C	0.375628	0.111467	0.321166
	C148	C	0.676716	0.381758	0.887764
	C149	C	0.679692	0.620596	0.115549
	C150	C	0.323309	0.618873	0.886891
	C151	C	0.319208	0.375094	0.114903
	C152	C	0.884204	0.674556	0.381285
	C153	C	0.113564	0.676980	0.620365
	C154	C	0.884624	0.318439	0.623590
	C155	C	0.113671	0.323888	0.383815
	C156	C	0.885021	0.375224	0.681071
	C157	C	0.114413	0.618378	0.677521
	C158	C	0.885624	0.619342	0.322266
	C159	C	0.113689	0.381006	0.326483
	C160	C	0.381080	0.676537	0.886980
	C161	C	0.622576	0.678488	0.115801
	C162	C	0.618887	0.324892	0.886919
	C163	C	0.376387	0.317435	0.114482
	C164	C	0.672786	0.883824	0.382313
	C165	C	0.676019	0.112818	0.620345
	C166	C	0.317563	0.883929	0.623790
	C167	C	0.320936	0.112625	0.381029
	C168	C	0.876954	0.384877	0.182406
	C169	C	0.122398	0.612519	0.177923
	C170	C	0.119579	0.383489	0.825410
	C171	C	0.882346	0.612150	0.823798
	C172	C	0.173833	0.880456	0.388146
	C173	C	0.176608	0.118634	0.616123
	C174	C	0.820985	0.118453	0.387363
	C175	C	0.817349	0.875239	0.616447
	C176	C	0.383681	0.176758	0.880522
	C177	C	0.613371	0.176754	0.120732
	C178	C	0.383977	0.817080	0.122996
	C179	C	0.613817	0.826284	0.883096
	C180	C	0.383061	0.875097	0.179884
	C181	C	0.612209	0.119782	0.179176
	C182	C	0.383145	0.118725	0.823988
	C183	C	0.612888	0.882987	0.825409
	C184	C	0.878461	0.176790	0.387615
	C185	C	0.118578	0.175534	0.616712
	C186	C	0.116172	0.824292	0.387452
	C187	C	0.874830	0.817101	0.616092
	C188	C	0.175761	0.383324	0.882891
	C189	C	0.178677	0.612429	0.119522
	C190	C	0.819211	0.384926	0.125047
	C191	C	0.825862	0.613062	0.881856
	C192	C	0.398898	0.093306	0.600793
	C193	C	0.593809	0.903664	0.602545
	C194	C	0.595628	0.092268	0.402688
	C195	C	0.396822	0.903562	0.404071
	C196	C	0.595808	0.401014	0.095674
	C197	C	0.600684	0.601569	0.907343
	C198	C	0.401774	0.594424	0.095021
	C199	C	0.399342	0.400666	0.906998
	C200	C	0.093968	0.600298	0.402235
	C201	C	0.904511	0.594357	0.601153
	C202	C	0.094136	0.399535	0.601553
	C203	C	0.904353	0.400407	0.404967
	C204	C	0.902598	0.593268	0.100049
	C205	C	0.096848	0.403395	0.102702
	C206	C	0.100459	0.593031	0.900881
	C207	C	0.899905	0.403334	0.905244
	C208	C	0.094479	0.899451	0.596493
	C209	C	0.097509	0.099417	0.407846
	C210	C	0.899710	0.094813	0.595671
	C211	C	0.895795	0.898150	0.407290
	C212	C	0.593398	0.101638	0.900083
	C213	C	0.404221	0.095310	0.097854
	C214	C	0.592170	0.901785	0.101663
	C215	C	0.403543	0.899784	0.904791
	Zn216	Zn	0.496984	-0.000660	0.752040
	Zn217	Zn	0.496484	-0.001374	0.251822
	Zn218	Zn	0.749895	0.499406	0.002029
	Zn219	Zn	0.248304	0.497759	0.001163
	Zn220	Zn	-0.002422	0.748573	0.501065
	Zn221	Zn	-0.001643	0.249270	0.502368
	Zn222	Zn	0.000085	0.496684	0.752467
	Zn223	Zn	-0.000018	0.499069	0.252381
	Zn224	Zn	0.500271	0.749297	0.001850
	Zn225	Zn	0.499122	0.249229	0.000647
	Zn226	Zn	0.745913	-0.002285	0.501912
	Zn227	Zn	0.247170	-0.001953	0.502067
	N228	N	0.409592	0.962052	0.682262
	N229	N	0.582422	0.036060	0.678911
	N230	N	0.582697	0.961667	0.323122
	N231	N	0.408292	0.033837	0.320502
	N232	N	0.676966	0.414825	0.965316
	N233	N	0.680420	0.587129	0.038339
	N234	N	0.321788	0.583880	0.964190
	N235	N	0.318756	0.410803	0.037775
	N236	N	0.961356	0.676062	0.416195
	N237	N	0.035437	0.677535	0.587401
	N238	N	0.962309	0.318607	0.589205
	N239	N	0.035976	0.322192	0.417635
	N240	N	0.962955	0.409955	0.682072
	N241	N	0.036928	0.582670	0.679076
	N242	N	0.963676	0.586875	0.320998
	N243	N	0.035989	0.414499	0.325478
	N244	N	0.415093	0.676621	0.964496
	N245	N	0.588165	0.680276	0.038517
	N246	N	0.583855	0.323080	0.964135
	N247	N	0.411099	0.318078	0.037371
	N248	N	0.673872	0.960919	0.416485
	N249	N	0.676237	0.034681	0.588042
	N250	N	0.317721	0.961415	0.588698
	N251	N	0.320234	0.035483	0.417081
	N252	N	0.912496	0.462329	0.182133
	N253	N	0.087276	0.534876	0.180677
	N254	N	0.086960	0.461157	0.822877
	N255	N	0.914587	0.534058	0.823390
	N256	N	0.174977	0.913315	0.465937
	N257	N	0.178020	0.085907	0.538470
	N258	N	0.820001	0.082966	0.464584
	N259	N	0.816098	0.909957	0.538968
	N260	N	0.461810	0.179514	0.913405
	N261	N	0.536113	0.176666	0.085566
	N262	N	0.461951	0.817651	0.089348
	N263	N	0.536097	0.823533	0.917236
	N264	N	0.460174	0.911392	0.180870
	N265	N	0.534451	0.084962	0.179817
	N266	N	0.460916	0.085985	0.822390
	N267	N	0.534522	0.915042	0.824485
	N268	N	0.912859	0.176920	0.464920
	N269	N	0.084331	0.177681	0.539245
	N270	N	0.081748	0.822539	0.464643
	N271	N	0.908547	0.816491	0.538353
	N272	N	0.177416	0.461275	0.915772
	N273	N	0.178203	0.534702	0.086667
	N274	N	0.819654	0.462403	0.089760
	N275	N	0.823419	0.535731	0.917105
	O276	O	0.991955	-0.002921	1.027015
	H277	H	0.993673	-0.009933	1.026700
	H278	H	0.984551	-0.014291	1.031007
	O279	O	0.495058	0.455252	0.571605
	H280	H	0.494286	0.454584	0.556372
	H281	H	0.513236	0.465117	0.574857
	O282	O	0.430615	0.577081	0.488784
	H283	H	0.430987	0.577041	0.483700
	H284	H	0.430137	0.551844	0.472719
	O285	O	0.607095	0.400596	0.333351
	H286	H	0.619219	0.404262	0.338601
	H287	H	0.620466	0.399838	0.325014
	O288	O	0.429840	0.337857	0.539362
	H289	H	0.441848	0.346807	0.546942
	H290	H	0.434786	0.337737	0.531066
	O291	O	-0.124428	-0.029594	0.941927
	H292	H	-0.129227	-0.033424	0.941198
	H293	H	-0.119413	-0.026041	0.935679
	O294	O	0.924029	1.121321	0.026627
	H295	H	0.927315	1.124351	0.014592
	H296	H	0.927921	1.119374	0.021124
	O297	O	1.034450	1.089671	0.012154
	H298	H	1.036117	1.092980	0.012798
	H299	H	1.023500	1.097582	0.009862
	O300	O	0.510245	0.361913	0.529899
	H301	H	0.498930	0.371377	0.529211
	H302	H	0.509706	0.356392	0.515778
	O303	O	0.379211	0.468205	0.609288
	H304	H	0.361630	0.465263	0.610399
	H305	H	0.387637	0.476211	0.601768
	O306	O	0.590933	0.612052	0.514166
	H307	H	0.593003	0.619341	0.523166
	H308	H	0.583605	0.621057	0.525184
	O309	O	0.625607	0.523450	0.463328
	H310	H	0.628774	0.528957	0.464510
	H311	H	0.638577	0.529189	0.475788
	O312	O	1.112749	1.040577	1.063928
	H313	H	1.110781	1.044592	1.057339
	H314	H	1.120656	1.060455	1.070865
	O315	O	1.009714	0.917181	-0.000189
	H316	H	1.013192	0.914011	0.007392
	H317	H	1.004920	0.923004	0.002004
	O318	O	0.437535	0.686247	0.441415
	H319	H	0.431603	0.697628	0.438479
	H320	H	0.421828	0.687758	0.446252
	O321	O	0.542225	0.588350	0.439774
	H322	H	0.540690	0.601486	0.422886
	H323	H	0.546110	0.589139	0.445632
	O324	O	-0.536177	1.431730	0.516621
	H325	H	-0.526025	1.426698	0.511738
	H326	H	-0.555481	1.420211	0.501683
	O327	O	-0.159525	1.053761	1.058263
	H328	H	-0.173016	1.050264	1.068477
	H329	H	-0.162765	1.045099	1.065619
	O330	O	0.067980	-0.004556	0.102464
	H331	H	0.064759	-0.000411	0.104533
	H332	H	0.077671	0.001232	0.094146
	O333	O	0.416326	0.433461	0.434580
	H334	H	0.412697	0.439818	0.431425
	H335	H	0.414634	0.425419	0.450304
	O336	O	-0.047987	0.034447	0.065021
	H337	H	-0.056479	0.031147	0.058266
	H338	H	-0.053054	0.031365	0.067368
	O339	O	0.129654	-0.006180	0.006236
	H340	H	0.130843	-0.007174	0.016085
	H341	H	0.133809	0.000248	0.007122
	O342	O	0.355977	0.559348	0.392471
	H343	H	0.352200	0.557393	0.375867
	H344	H	0.342670	0.560170	0.397441
	O345	O	-0.058685	1.141170	0.916454
	H346	H	-0.063556	1.134209	0.916642
	H347	H	-0.068056	1.139317	0.917165
	O348	O	0.421645	0.515486	0.482648
	H349	H	0.418715	0.508952	0.473809
	H350	H	0.418072	0.514966	0.484783
	O351	O	0.451774	0.572425	0.542073
	H352	H	0.456652	0.561329	0.550399
	H353	H	0.457470	0.563990	0.533554
	O354	O	-0.103942	0.958178	0.035701
	H355	H	-0.107044	0.960297	0.044227
	H356	H	-0.095014	0.963469	0.023167
	O357	O	0.603071	0.489175	0.440737
	H358	H	0.598472	0.499794	0.444253
	H359	H	0.604752	0.497336	0.452074
	O360	O	1.101953	0.013498	0.905285
	H361	H	1.101585	0.017785	0.895312
	H362	H	1.108850	0.021081	0.906238
	O363	O	0.631861	0.478372	0.385516
	H364	H	0.645491	0.487746	0.402972
	H365	H	0.631927	0.489779	0.381673
	O366	O	0.540559	0.568890	0.497552
	H367	H	0.541561	0.575541	0.496459
	H368	H	0.538349	0.567850	0.497932
	O369	O	0.997442	-0.128243	0.031829
	H370	H	1.000005	-0.130913	0.035549
	H371	H	1.011826	-0.133343	0.033886
	O372	O	0.582721	0.565980	0.651398
	H373	H	0.566532	0.562942	0.652832
	H374	H	0.585496	0.547643	0.644579
	O375	O	0.907487	-0.039533	1.084472
	H376	H	0.908492	-0.038862	1.067309
	H377	H	0.904279	-0.051017	1.084204
	O378	O	0.005903	1.015500	-0.063990
	H379	H	-0.007115	1.018110	-0.058986
	H380	H	0.010182	1.003644	-0.055669
	O381	O	0.538870	0.491105	0.664989
	H382	H	0.541604	0.487436	0.669443
	H383	H	0.535902	0.484711	0.667145
	O384	O	1.041004	1.029648	0.020814
	H385	H	1.034746	1.025084	0.017818
	H386	H	1.041906	1.028300	0.028789
	O387	O	1.001374	-0.066812	1.047174
	H388	H	0.996365	-0.061827	1.049305
	H389	H	1.011281	-0.065560	1.055558
	O390	O	1.053759	0.910065	-0.036669
	H391	H	1.061501	0.908019	-0.037703
	H392	H	1.064951	0.905132	-0.032906
	O393	O	0.464227	0.434417	0.579878
	H394	H	0.458056	0.425550	0.595629
	H395	H	0.458152	0.439753	0.579885
