data_Molecule from HDF5

_cell_length_a		16.559624
_cell_length_b		16.490119
_cell_length_c		16.539028
_cell_angle_alpha	89.929082
_cell_angle_beta	89.918210
_cell_angle_gamma	89.881966
_symmetry_space_group_name_H-M	'P 1'
_symmetry_Int_Tables_number		1

loop_
	_symmetry_equiv_pos_as_xyz
	x,y,z

loop_
	_atom_site_label
	_atom_site_type_symbol
	_atom_site_fract_x
	_atom_site_fract_y
	_atom_site_fract_z
	H0	H	0.395442	0.858500	0.749789
	H1	H	0.605909	0.172289	0.750579
	H2	H	0.605871	0.857625	0.305451
	H3	H	0.396529	0.173554	0.310391
	H4	H	0.721550	0.408988	0.871852
	H5	H	0.722267	0.623368	0.184377
	H6	H	0.275105	0.625276	0.872384
	H7	H	0.277914	0.413482	0.185005
	H8	H	0.842205	0.741116	0.420681
	H9	H	0.155481	0.733551	0.630297
	H10	H	0.841485	0.293514	0.632819
	H11	H	0.155491	0.297251	0.423783
	H12	H	0.842113	0.407850	0.751995
	H13	H	0.152992	0.620483	0.750099
	H14	H	0.841940	0.625564	0.303223
	H15	H	0.155083	0.414258	0.307583
	H16	H	0.391972	0.741014	0.872923
	H17	H	0.605960	0.739415	0.184982
	H18	H	0.604077	0.293879	0.871652
	H19	H	0.394412	0.296447	0.185339
	H20	H	0.722509	0.857879	0.420853
	H21	H	0.720937	0.172437	0.633414
	H22	H	0.279060	0.857914	0.633696
	H23	H	0.278457	0.172463	0.425220
	H24	H	0.892196	0.360216	0.248849
	H25	H	0.102782	0.674263	0.248415
	H26	H	0.101027	0.359745	0.808324
	H27	H	0.889209	0.673366	0.803622
	H28	H	0.220813	0.909708	0.371729
	H29	H	0.218000	0.119230	0.685255
	H30	H	0.775651	0.121654	0.372816
	H31	H	0.773157	0.904096	0.684497
	H32	H	0.342241	0.236383	0.922823
	H33	H	0.655455	0.234407	0.129245
	H34	H	0.341575	0.796044	0.131875
	H35	H	0.654337	0.788994	0.918009
	H36	H	0.342377	0.911364	0.249209
	H37	H	0.655620	0.118570	0.247995
	H38	H	0.343484	0.121079	0.805128
	H39	H	0.654401	0.903877	0.801064
	H40	H	0.893270	0.237021	0.371444
	H41	H	0.101668	0.236178	0.684634
	H42	H	0.103205	0.795068	0.370806
	H43	H	0.892005	0.791160	0.685396
	H44	H	0.219322	0.359735	0.922785
	H45	H	0.219706	0.673564	0.132727
	H46	H	0.776380	0.360419	0.131757
	H47	H	0.773477	0.673632	0.919175
	H48	H	0.403342	0.133412	0.623993
	H49	H	0.587749	0.905533	0.609919
	H50	H	0.589014	0.129332	0.431777
	H51	H	0.409919	0.901059	0.438688
	H52	H	0.590926	0.423840	0.141958
	H53	H	0.582717	0.599817	0.919745
	H54	H	0.408710	0.605704	0.141352
	H55	H	0.408765	0.430777	0.916585
	H56	H	0.110334	0.607569	0.439410
	H57	H	0.886053	0.603627	0.613700
	H58	H	0.110084	0.425143	0.616641
	H59	H	0.882563	0.421472	0.435990
	H60	H	0.108456	0.428404	0.615987
	H61	H	0.885633	0.601485	0.615810
	H62	H	0.107770	0.602110	0.440310
	H63	H	0.886968	0.427247	0.443811
	H64	H	0.407665	0.603488	0.139552
	H65	H	0.583127	0.605328	0.917602
	H66	H	0.587973	0.432245	0.139639
	H67	H	0.411054	0.422812	0.914396
	H68	H	0.582160	0.124352	0.440709
	H69	H	0.587904	0.902471	0.618255
	H70	H	0.418510	0.125383	0.618984
	H71	H	0.409393	0.901297	0.439273
	H72	H	0.916154	0.625706	0.110456
	H73	H	0.092884	0.401705	0.116430
	H74	H	0.080745	0.631421	0.930910
	H75	H	0.915385	0.406897	0.939039
	H76	H	0.088693	0.926633	0.641154
	H77	H	0.087609	0.104529	0.416487
	H78	H	0.914190	0.111334	0.641635
	H79	H	0.906879	0.934090	0.418373
	H80	H	0.610270	0.102372	0.942040
	H81	H	0.385719	0.102865	0.119113
	H82	H	0.607394	0.930576	0.109260
	H83	H	0.391013	0.934141	0.940736
	H84	H	0.611510	0.933240	0.122920
	H85	H	0.383394	0.107700	0.123975
	H86	H	0.610923	0.102172	0.937731
	H87	H	0.387431	0.927068	0.937563
	H88	H	0.902389	0.101334	0.642768
	H89	H	0.088566	0.108260	0.414660
	H90	H	0.087757	0.923434	0.641340
	H91	H	0.918410	0.930582	0.421698
	H92	H	0.082340	0.625022	0.946878
	H93	H	0.085435	0.403011	0.121819
	H94	H	0.902001	0.630590	0.110528
	H95	H	0.906996	0.405925	0.945598
	H96	H	0.405161	0.126840	0.607297
	H97	H	0.580804	0.905980	0.614974
	H98	H	0.593814	0.127589	0.442759
	H99	H	0.408855	0.901422	0.438535
	H100	H	0.582603	0.424760	0.138742
	H101	H	0.587083	0.601408	0.917159
	H102	H	0.410117	0.604526	0.139650
	H103	H	0.403599	0.425434	0.912440
	H104	H	0.109883	0.603447	0.435346
	H105	H	0.885550	0.604424	0.616281
	H106	H	0.109577	0.427227	0.619845
	H107	H	0.885773	0.431815	0.434281
	H108	H	0.910539	0.631699	0.122711
	H109	H	0.085265	0.406219	0.113304
	H110	H	0.095906	0.633290	0.939699
	H111	H	0.906030	0.402579	0.935491
	H112	H	0.091010	0.923988	0.642446
	H113	H	0.091214	0.104971	0.413729
	H114	H	0.916020	0.096924	0.635521
	H115	H	0.910701	0.922473	0.415737
	H116	H	0.611513	0.105603	0.940144
	H117	H	0.384779	0.109761	0.117597
	H118	H	0.613845	0.920225	0.116757
	H119	H	0.390573	0.927061	0.945334
	C120	C	0.377649	0.024566	0.649518
	C121	C	0.619671	1.007633	0.648548
	C122	C	0.620900	0.022966	0.406133
	C123	C	0.377730	1.006103	0.407420
	C124	C	0.619710	0.394543	0.036301
	C125	C	0.618944	0.636720	1.020683
	C126	C	0.376692	0.637797	0.036943
	C127	C	0.376458	0.394881	1.018846
	C128	C	0.006216	0.638336	0.405677
	C129	C	0.989177	0.635716	0.647797
	C130	C	0.006268	0.394085	0.649673
	C131	C	0.989108	0.395150	0.405883
	C132	C	0.876766	0.525632	0.147714
	C133	C	0.119447	0.508148	0.148914
	C134	C	0.118309	0.525496	0.907019
	C135	C	0.875479	0.508357	0.906015
	C136	C	0.120699	0.893231	0.537348
	C137	C	0.119977	0.137095	0.519310
	C138	C	0.877595	0.136109	0.536636
	C139	C	0.877708	0.894106	0.521058
	C140	C	0.507637	0.136478	0.906824
	C141	C	0.488829	0.137701	0.150663
	C142	C	0.507252	0.895337	0.148716
	C143	C	0.491749	0.894239	0.906549
	C144	C	0.376920	0.905664	0.709365
	C145	C	0.623256	0.125494	0.709645
	C146	C	0.623597	0.904775	0.345932
	C147	C	0.377120	0.125616	0.349255
	C148	C	0.680710	0.391459	0.918738
	C149	C	0.681160	0.640858	0.137760
	C150	C	0.315819	0.642204	0.919197
	C151	C	0.317745	0.394299	0.137814
	C152	C	0.888680	0.700173	0.402560
	C153	C	0.107870	0.694814	0.649649
	C154	C	0.888428	0.333525	0.651704
	C155	C	0.107913	0.336724	0.404921
	C156	C	0.888546	0.390442	0.710733
	C157	C	0.106687	0.638672	0.709033
	C158	C	0.888663	0.642841	0.344125
	C159	C	0.107596	0.394682	0.346875
	C160	C	0.373995	0.699761	0.919477
	C161	C	0.623335	0.698791	0.137889
	C162	C	0.622167	0.334251	0.918511
	C163	C	0.375618	0.336087	0.137892
	C164	C	0.681865	0.905006	0.403233
	C165	C	0.680813	0.125322	0.651622
	C166	C	0.318639	0.905527	0.652002
	C167	C	0.318355	0.125159	0.406240
	C168	C	0.874001	0.407391	0.208481
	C169	C	0.121137	0.626845	0.208531
	C170	C	0.120320	0.406899	0.847568
	C171	C	0.871860	0.626154	0.844327
	C172	C	0.180532	0.891574	0.418893
	C173	C	0.178471	0.138235	0.637870
	C174	C	0.816412	0.139398	0.419388
	C175	C	0.815070	0.888245	0.638083
	C176	C	0.389574	0.196678	0.904327
	C177	C	0.608075	0.195896	0.150133
	C178	C	0.388879	0.835859	0.150481
	C179	C	0.607884	0.830487	0.901278
	C180	C	0.389139	0.893025	0.208872
	C181	C	0.608269	0.138097	0.208443
	C182	C	0.390074	0.139392	0.845724
	C183	C	0.607911	0.887932	0.842894
	C184	C	0.874809	0.196771	0.418652
	C185	C	0.120630	0.196298	0.637647
	C186	C	0.121858	0.834488	0.418615
	C187	C	0.874050	0.831562	0.638290
	C188	C	0.178773	0.407107	0.904603
	C189	C	0.179428	0.626532	0.151135
	C190	C	0.816705	0.407253	0.150258
	C191	C	0.813763	0.626357	0.901828
	C192	C	0.402058	0.107028	0.623994
	C193	C	0.592983	0.925935	0.622035
	C194	C	0.595643	0.105534	0.431301
	C195	C	0.402297	0.923067	0.431876
	C196	C	0.594399	0.419814	0.118674
	C197	C	0.592144	0.609989	0.939326
	C198	C	0.401664	0.611956	0.118792
	C199	C	0.400845	0.419308	0.936083
	C200	C	0.087839	0.611862	0.430986
	C201	C	0.907085	0.610373	0.622625
	C202	C	0.087946	0.419673	0.624579
	C203	C	0.906370	0.419756	0.430831
	C204	C	0.902266	0.607787	0.122045
	C205	C	0.094925	0.425146	0.124322
	C206	C	0.093316	0.608300	0.931994
	C207	C	0.901881	0.426502	0.932355
	C208	C	0.096416	0.917721	0.619955
	C209	C	0.095979	0.112662	0.436429
	C210	C	0.903287	0.110523	0.618717
	C211	C	0.904203	0.921354	0.439637
	C212	C	0.589507	0.110764	0.932406
	C213	C	0.406182	0.113751	0.127100
	C214	C	0.589397	0.920674	0.123463
	C215	C	0.410690	0.921740	0.933427
	Zn216	Zn	0.499814	0.015850	0.777710
	Zn217	Zn	0.499234	0.014883	0.278707
	Zn218	Zn	0.747782	0.516958	0.027021
	Zn219	Zn	0.247411	0.516926	0.027277
	Zn220	Zn	-0.001921	0.765277	0.528120
	Zn221	Zn	-0.001767	0.265806	0.527593
	Zn222	Zn	-0.003164	0.516221	0.778142
	Zn223	Zn	-0.002907	0.517127	0.276781
	Zn224	Zn	0.498901	0.766067	0.028424
	Zn225	Zn	0.498248	0.265889	0.027774
	Zn226	Zn	0.749048	0.014191	0.528580
	Zn227	Zn	0.248869	0.015135	0.528879
	N228	N	0.412746	0.980758	0.708229
	N229	N	0.586258	0.051109	0.707977
	N230	N	0.586633	0.979382	0.347459
	N231	N	0.412927	0.050328	0.349617
	N232	N	0.679164	0.428478	0.993090
	N233	N	0.678604	0.603152	0.063791
	N234	N	0.317320	0.604346	0.993140
	N235	N	0.318178	0.430051	0.062750
	N236	N	0.962710	0.697816	0.439627
	N237	N	0.033731	0.693344	0.612488
	N238	N	0.962454	0.335652	0.614414
	N239	N	0.032981	0.336655	0.440648
	N240	N	0.962708	0.427454	0.709602
	N241	N	0.031948	0.602821	0.708113
	N242	N	0.962768	0.605350	0.345577
	N243	N	0.032420	0.430087	0.347213
	N244	N	0.411105	0.697368	0.993534
	N245	N	0.585318	0.696128	0.064058
	N246	N	0.584848	0.336181	0.992590
	N247	N	0.411576	0.336453	0.062900
	N248	N	0.680454	0.979573	0.440044
	N249	N	0.678639	0.050888	0.614439
	N250	N	0.318936	0.980373	0.615518
	N251	N	0.318434	0.049740	0.441506
	N252	N	0.910622	0.481961	0.207037
	N253	N	0.084624	0.552100	0.207343
	N254	N	0.083580	0.481612	0.848868
	N255	N	0.909394	0.551774	0.846723
	N256	N	0.180130	0.927373	0.493891
	N257	N	0.178326	0.102192	0.563064
	N258	N	0.817958	0.102480	0.493813
	N259	N	0.817176	0.926302	0.564172
	N260	N	0.463742	0.195145	0.941320
	N261	N	0.532847	0.196059	0.115367
	N262	N	0.463542	0.837012	0.114175
	N263	N	0.534704	0.834291	0.940212
	N264	N	0.463806	0.929221	0.208046
	N265	N	0.533023	0.103154	0.209503
	N266	N	0.464447	0.102615	0.847229
	N267	N	0.534685	0.927153	0.846212
	N268	N	0.912031	0.195107	0.492804
	N269	N	0.085123	0.195866	0.562713
	N270	N	0.085490	0.835368	0.493199
	N271	N	0.912395	0.835364	0.564558
	N272	N	0.177862	0.482079	0.940634
	N273	N	0.178534	0.551634	0.114916
	N274	N	0.818104	0.481895	0.113341
	N275	N	0.816018	0.552051	0.939460
	O276	O	0.993251	1.062036	-0.012134
	H277	H	0.991486	1.050837	-0.026900
	H278	H	1.004625	1.073797	-0.011649
	O279	O	0.069079	0.066242	1.092169
	H280	H	0.080503	0.082172	1.097619
	H281	H	0.064462	0.074817	1.093505
	O282	O	-0.070668	0.946573	-0.190529
	H283	H	-0.063657	0.955818	-0.194378
	H284	H	-0.090173	0.967019	-0.191507
	O285	O	0.381180	0.740948	0.548941
	H286	H	0.376862	0.736742	0.516250
	H287	H	0.372276	0.751747	0.535785
	O288	O	0.581002	0.513371	0.731125
	H289	H	0.578703	0.512796	0.721488
	H290	H	0.587843	0.526570	0.724920
	O291	O	0.472817	0.726979	0.312212
	H292	H	0.456391	0.728848	0.320487
	H293	H	0.460191	0.744652	0.297407
	O294	O	-0.516109	0.300439	0.524104
	H295	H	-0.500033	0.310353	0.516540
	H296	H	-0.504230	0.306145	0.526878
	O297	O	0.953466	0.005535	0.187003
	H298	H	0.943824	0.014542	0.178422
	H299	H	0.937225	-0.004421	0.200662
	O300	O	-0.212879	-0.004983	0.242121
	H301	H	-0.223272	-0.004142	0.267814
	H302	H	-0.200362	-0.020643	0.240478
	O303	O	0.199074	0.219487	0.231930
	H304	H	0.219040	0.199901	0.248712
	H305	H	0.216501	0.236003	0.219315
	O306	O	0.792429	0.221202	0.004315
	H307	H	0.811254	0.230636	0.008372
	H308	H	0.783904	0.219810	0.017333
	O309	O	1.032029	0.237306	0.249527
	H310	H	1.063251	0.242033	0.255389
	H311	H	1.049561	0.254977	0.270853
	O312	O	0.325557	0.444686	0.515108
	H313	H	0.338038	0.448849	0.499032
	H314	H	0.320069	0.435240	0.530405
	O315	O	0.693257	0.306252	0.619169
	H316	H	0.679553	0.300510	0.627221
	H317	H	0.710723	0.302853	0.615020
	O318	O	1.211098	1.227148	0.063590
	H319	H	1.223268	1.228437	0.054305
	H320	H	1.220764	1.227526	0.077072
	O321	O	0.308751	0.341574	0.351024
	H322	H	0.327336	0.368178	0.353197
	H323	H	0.327808	0.349530	0.379374
	O324	O	0.499599	0.714795	1.680846
	H325	H	0.491106	0.728298	1.690898
	H326	H	0.492096	0.718764	1.657806
	O327	O	0.491661	0.499222	0.312455
	H328	H	0.502781	0.490231	0.306100
	H329	H	0.498875	0.505448	0.320986
	O330	O	0.202876	0.813536	-0.171808
	H331	H	0.193560	0.790723	-0.192974
	H332	H	0.179033	0.819209	-0.174724
	O333	O	0.639875	0.669605	-0.493746
	H334	H	0.638381	0.661453	-0.480561
	H335	H	0.642710	0.667073	-0.492638
	O336	O	0.706611	0.385619	0.426638
	H337	H	0.715366	0.383340	0.414259
	H338	H	0.710789	0.377608	0.399756
	O339	O	0.572523	0.546804	0.568229
	H340	H	0.590192	0.544294	0.579480
	H341	H	0.566439	0.530202	0.574563
	O342	O	0.199333	1.131524	-0.092190
	H343	H	0.198081	1.104217	-0.094356
	H344	H	0.208514	1.129667	-0.108314
	O345	O	0.442424	0.527362	0.612582
	H346	H	0.447458	0.516609	0.617633
	H347	H	0.447809	0.550250	0.616880
	O348	O	0.785384	-0.195675	0.051689
	H349	H	0.770809	-0.206240	0.043299
	H350	H	0.782512	-0.191894	0.066783
	O351	O	-0.191499	0.203573	0.840577
	H352	H	-0.186638	0.194819	0.866248
	H353	H	-0.187265	0.215593	0.839391
	O354	O	1.534684	-0.703562	1.306511
	H355	H	1.542930	-0.719867	1.306147
	H356	H	1.556497	-0.721792	1.296124
	O357	O	0.516229	0.342713	0.730451
	H358	H	0.521753	0.321997	0.752934
	H359	H	0.509474	0.356817	0.713525
	O360	O	0.332642	0.414345	0.541769
	H361	H	0.326071	0.415667	0.553400
	H362	H	0.330724	0.425400	0.561601
	O363	O	0.399907	0.393944	-0.334770
	H364	H	0.398566	0.402555	-0.328467
	H365	H	0.394561	0.403359	-0.322045
	O366	O	1.147200	-0.031486	1.153905
	H367	H	1.160216	-0.022903	1.155908
	H368	H	1.141988	-0.017642	1.145039
	O369	O	0.131910	0.212348	0.909290
	H370	H	0.128564	0.201836	0.909016
	H371	H	0.147712	0.204953	0.916694
	O372	O	-0.032864	0.809557	1.239204
	H373	H	-0.020034	0.807218	1.221882
	H374	H	-0.022948	0.790966	1.255213
	O375	O	1.067887	-0.107578	0.013117
	H376	H	1.064710	-0.100481	0.022651
	H377	H	1.059068	-0.118665	0.024752
	O378	O	1.031666	0.796033	0.955994
	H379	H	1.028120	0.790082	0.949416
	H380	H	1.017395	0.799838	0.938137
	O381	O	0.165974	0.832136	0.194058
	H382	H	0.154568	0.850784	0.176489
	H383	H	0.162296	0.842386	0.174231
	O384	O	0.571295	0.474192	0.502187
	H385	H	0.571176	0.486657	0.486890
	H386	H	0.565261	0.468370	0.508163
	O387	O	0.218437	0.982208	0.812744
	H388	H	0.236463	0.976581	0.801229
	H389	H	0.225182	0.959978	0.808006
	O390	O	0.208819	0.807828	1.008347
	H391	H	0.224191	0.805410	0.997368
	H392	H	0.208956	0.802089	0.975254
	O393	O	1.043251	0.030967	-0.125468
	H394	H	1.042719	0.034773	-0.124361
	H395	H	1.041017	0.026102	-0.123333
	O396	O	0.306258	0.712614	0.334003
	H397	H	0.287377	0.705237	0.317770
	H398	H	0.311275	0.694386	0.316893
	O399	O	1.661297	0.650449	-0.564294
	H400	H	1.664587	0.662740	-0.570944
	H401	H	1.657041	0.652737	-0.570749
	O402	O	0.297767	-0.313379	1.533826
	H403	H	0.272262	-0.281191	1.516427
	H404	H	0.302067	-0.321171	1.524140
	O405	O	0.288246	0.562609	0.410203
	H406	H	0.286100	0.555924	0.400644
	H407	H	0.293887	0.553373	0.414943
	O408	O	1.006384	1.165301	0.816404
	H409	H	0.996536	1.162969	0.815634
	H410	H	1.018731	1.168670	0.810810
	O411	O	0.944200	1.233996	0.093114
	H412	H	0.966112	1.238515	0.128538
	H413	H	0.961572	1.235173	0.076382
	O414	O	-0.219713	0.026931	0.034690
	H415	H	-0.217880	0.006899	0.018117
	H416	H	-0.224906	0.037597	0.058140
	O417	O	0.515950	0.480534	0.567921
	H418	H	0.517044	0.482808	0.568419
	H419	H	0.517786	0.487040	0.570860
	O420	O	0.709548	-0.437794	0.739496
	H421	H	0.722700	-0.439403	0.749835
	H422	H	0.717564	-0.438185	0.739207
	O423	O	1.037558	0.893161	-0.075058
	H424	H	1.030371	0.890406	-0.079350
	H425	H	1.020671	0.900697	-0.074991
	O426	O	-0.023908	0.955492	0.033424
	H427	H	-0.034616	0.953329	0.022332
	H428	H	-0.030782	0.965516	0.027938
	O429	O	0.623385	0.518798	0.373143
	H430	H	0.642334	0.514178	0.362135
	H431	H	0.625213	0.527129	0.381152
	O432	O	0.805761	0.830851	0.213177
	H433	H	0.842481	0.818617	0.223129
	H434	H	0.799615	0.847945	0.195680
	O435	O	1.214415	0.051717	0.248097
	H436	H	1.209053	0.045747	0.255432
	H437	H	1.223248	0.051238	0.266563
	O438	O	0.625222	0.681038	0.522094
	H439	H	0.626550	0.666244	0.507496
	H440	H	0.642080	0.686014	0.509515
	O441	O	0.354196	0.355995	0.483154
	H442	H	0.367872	0.352204	0.491119
	H443	H	0.340031	0.371339	0.503363
	O444	O	0.700173	0.315891	0.331140
	H445	H	0.700486	0.320779	0.327328
	H446	H	0.720230	0.306115	0.324776
	O447	O	0.364800	0.526171	0.753047
	H448	H	0.371291	0.517436	0.757258
	H449	H	0.364650	0.526258	0.764274
	O450	O	0.777580	0.040781	-0.194516
	H451	H	0.756633	0.054492	-0.213921
	H452	H	0.774308	0.059679	-0.193952
	O453	O	0.801260	0.212803	0.221392
	H454	H	0.827867	0.203768	0.212069
	H455	H	0.799434	0.190752	0.203390
	O456	O	-0.084811	0.972140	1.108034
	H457	H	-0.076740	0.984367	1.117663
	H458	H	-0.075827	0.978103	1.085045
	O459	O	0.677554	-0.302932	0.684510
	H460	H	0.666696	-0.308461	0.676873
	H461	H	0.663818	-0.309680	0.670514
	O462	O	0.414072	0.514337	0.343429
	H463	H	0.432865	0.501027	0.339735
	H464	H	0.420778	0.506839	0.340644
	O465	O	1.010707	0.188247	-0.050658
	H466	H	1.025083	0.196711	-0.048023
	H467	H	1.017368	0.193327	-0.049832
	O468	O	-0.127594	0.888400	-0.006258
	H469	H	-0.131471	0.899524	-0.027100
	H470	H	-0.125779	0.874695	-0.008484
	O471	O	0.724457	0.473911	0.599623
	H472	H	0.735406	0.474214	0.606641
	H473	H	0.720480	0.474114	0.583154
	O474	O	0.285720	0.302159	0.743338
	H475	H	0.290419	0.290346	0.743842
	H476	H	0.285803	0.320031	0.714833
	O477	O	0.306224	-0.301181	0.713736
	H478	H	0.327594	-0.315015	0.701773
	H479	H	0.313776	-0.300874	0.707859
