data_Molecule from HDF5

_cell_length_a		16.235795
_cell_length_b		16.212017
_cell_length_c		16.270549
_cell_angle_alpha	90.233208
_cell_angle_beta	89.970113
_cell_angle_gamma	89.901264
_symmetry_space_group_name_H-M	'P 1'
_symmetry_Int_Tables_number		1

loop_
	_symmetry_equiv_pos_as_xyz
	x,y,z

loop_
	_atom_site_label
	_atom_site_type_symbol
	_atom_site_fract_x
	_atom_site_fract_y
	_atom_site_fract_z
	H0	H	0.397830	0.817204	0.713844
	H1	H	0.596314	0.144485	0.714603
	H2	H	0.595703	0.816733	0.284041
	H3	H	0.396010	0.145079	0.284858
	H4	H	0.711683	0.381281	0.835674
	H5	H	0.708452	0.579712	0.163320
	H6	H	0.280182	0.581749	0.836662
	H7	H	0.282154	0.384107	0.163568
	H8	H	0.832418	0.694084	0.402671
	H9	H	0.160151	0.694563	0.598252
	H10	H	0.831157	0.268214	0.597297
	H11	H	0.160035	0.266137	0.401725
	H12	H	0.831982	0.381888	0.714623
	H13	H	0.160488	0.580659	0.714805
	H14	H	0.832320	0.579105	0.286355
	H15	H	0.160031	0.379029	0.282698
	H16	H	0.397050	0.695847	0.835780
	H17	H	0.594737	0.695573	0.162753
	H18	H	0.593666	0.268214	0.834384
	H19	H	0.396382	0.266086	0.162355
	H20	H	0.710725	0.816843	0.399512
	H21	H	0.710735	0.144779	0.598846
	H22	H	0.284323	0.814988	0.596076
	H23	H	0.280081	0.143805	0.400700
	H24	H	0.896236	0.316656	0.213031
	H25	H	0.095062	0.645016	0.215188
	H26	H	0.095288	0.316661	0.785678
	H27	H	0.897431	0.646145	0.785839
	H28	H	0.211654	0.878858	0.336757
	H29	H	0.210284	0.079436	0.663964
	H30	H	0.781779	0.078957	0.335668
	H31	H	0.780714	0.882474	0.663108
	H32	H	0.332953	0.195620	0.899499
	H33	H	0.661501	0.193528	0.095509
	H34	H	0.332606	0.768305	0.096220
	H35	H	0.660678	0.767046	0.900587
	H36	H	0.332999	0.881123	0.213779
	H37	H	0.660625	0.080382	0.214030
	H38	H	0.331694	0.079731	0.785950
	H39	H	0.660380	0.881995	0.783819
	H40	H	0.894628	0.195800	0.336451
	H41	H	0.093406	0.194324	0.664163
	H42	H	0.094424	0.765271	0.336506
	H43	H	0.896935	0.767054	0.663518
	H44	H	0.212408	0.317985	0.899563
	H45	H	0.209516	0.646064	0.098594
	H46	H	0.781461	0.317365	0.096711
	H47	H	0.782562	0.646632	0.902690
	H48	H	0.409486	0.096560	0.594723
	H49	H	0.589529	0.862601	0.593805
	H50	H	0.583111	0.093409	0.417194
	H51	H	0.404737	0.859870	0.391935
	H52	H	0.584525	0.386770	0.115327
	H53	H	0.584490	0.573278	0.883389
	H54	H	0.414187	0.566813	0.110814
	H55	H	0.401515	0.395999	0.884570
	H56	H	0.113892	0.573719	0.408192
	H57	H	0.878108	0.574519	0.596195
	H58	H	0.111669	0.391995	0.592179
	H59	H	0.881521	0.389675	0.413055
	H60	H	0.114235	0.385409	0.595906
	H61	H	0.879208	0.575441	0.591741
	H62	H	0.112931	0.569378	0.407801
	H63	H	0.879403	0.393926	0.399969
	H64	H	0.405256	0.589276	0.119764
	H65	H	0.591257	0.578783	0.880290
	H66	H	0.592635	0.384899	0.118316
	H67	H	0.410263	0.386292	0.883768
	H68	H	0.600573	0.102049	0.406061
	H69	H	0.585173	0.864313	0.590599
	H70	H	0.400803	0.096446	0.584991
	H71	H	0.414636	0.868023	0.410883
	H72	H	0.899958	0.599163	0.092190
	H73	H	0.090815	0.361950	0.096822
	H74	H	0.082661	0.598261	0.904523
	H75	H	0.910083	0.367377	0.910346
	H76	H	0.081280	0.882853	0.616150
	H77	H	0.089824	0.073230	0.383362
	H78	H	0.900261	0.071496	0.616329
	H79	H	0.913126	0.883907	0.385256
	H80	H	0.613107	0.067386	0.900945
	H81	H	0.379990	0.081840	0.081518
	H82	H	0.615295	0.892872	0.102204
	H83	H	0.381340	0.889451	0.909021
	H84	H	0.617256	0.877117	0.089537
	H85	H	0.384020	0.061661	0.090730
	H86	H	0.616854	0.080153	0.901829
	H87	H	0.379662	0.891912	0.903102
	H88	H	0.905084	0.072099	0.614918
	H89	H	0.087517	0.069562	0.384177
	H90	H	0.097460	0.881993	0.621317
	H91	H	0.896957	0.880081	0.378954
	H92	H	0.089300	0.596999	0.911742
	H93	H	0.081133	0.367657	0.089464
	H94	H	0.902472	0.600397	0.097229
	H95	H	0.895058	0.362933	0.910513
	H96	H	0.397246	0.100541	0.596675
	H97	H	0.590446	0.864471	0.587647
	H98	H	0.581126	0.099322	0.395835
	H99	H	0.392537	0.862075	0.411755
	H100	H	0.589820	0.392820	0.114544
	H101	H	0.593405	0.569604	0.881476
	H102	H	0.389589	0.568985	0.118351
	H103	H	0.397674	0.383641	0.880322
	H104	H	0.114222	0.571761	0.404945
	H105	H	0.880449	0.570135	0.593479
	H106	H	0.112536	0.384853	0.588974
	H107	H	0.876244	0.380550	0.403361
	H108	H	0.905911	0.597503	0.092877
	H109	H	0.092790	0.364826	0.084289
	H110	H	0.092173	0.600823	0.903185
	H111	H	0.904296	0.362293	0.897306
	H112	H	0.091203	0.896593	0.615115
	H113	H	0.086398	0.073061	0.383316
	H114	H	0.902094	0.076626	0.616547
	H115	H	0.900480	0.896639	0.384589
	H116	H	0.611640	0.074272	0.912269
	H117	H	0.375016	0.078265	0.103736
	H118	H	0.609181	0.895137	0.083013
	H119	H	0.377910	0.886070	0.904530
	C120	C	0.374617	-0.010967	0.620281
	C121	C	0.617425	0.972225	0.620036
	C122	C	0.617508	-0.010519	0.377249
	C123	C	0.374413	0.971760	0.376908
	C124	C	0.617742	0.359595	0.007352
	C125	C	0.617693	0.602890	0.990232
	C126	C	0.374411	0.603412	0.008053
	C127	C	0.374343	0.359929	0.991019
	C128	C	0.004978	0.600672	0.378956
	C129	C	0.987777	0.602148	0.621977
	C130	C	0.004200	0.359364	0.621042
	C131	C	0.987557	0.358354	0.376711
	C132	C	0.874474	0.489905	0.121293
	C133	C	0.117639	0.472855	0.120278
	C134	C	0.117962	0.490328	0.877464
	C135	C	0.874385	0.473254	0.878078
	C136	C	0.118194	0.858027	0.509155
	C137	C	0.116972	0.101221	0.491804
	C138	C	0.873774	0.102271	0.507980
	C139	C	0.874403	0.858863	0.491211
	C140	C	0.505267	0.102591	0.876798
	C141	C	0.488330	0.102552	0.120440
	C142	C	0.505411	0.859860	0.120240
	C143	C	0.487815	0.859534	0.876824
	C144	C	0.377411	0.865621	0.675264
	C145	C	0.615358	0.095743	0.675867
	C146	C	0.615730	0.865914	0.321764
	C147	C	0.376202	0.095621	0.322401
	C148	C	0.673445	0.361598	0.884479
	C149	C	0.671685	0.600295	0.113977
	C150	C	0.318660	0.601776	0.885141
	C151	C	0.319211	0.362808	0.114403
	C152	C	0.881541	0.656395	0.381885
	C153	C	0.111370	0.657033	0.619227
	C154	C	0.880415	0.305184	0.618255
	C155	C	0.111010	0.303300	0.380122
	C156	C	0.880826	0.361737	0.676638
	C157	C	0.111328	0.600188	0.676983
	C158	C	0.881509	0.599539	0.323748
	C159	C	0.111169	0.359895	0.321601
	C160	C	0.376433	0.658625	0.884855
	C161	C	0.615144	0.658146	0.113579
	C162	C	0.614747	0.305169	0.883729
	C163	C	0.376426	0.304457	0.113876
	C164	C	0.672962	0.865822	0.379208
	C165	C	0.672754	0.095747	0.618639
	C166	C	0.321097	0.864632	0.616965
	C167	C	0.318379	0.095212	0.379959
	C168	C	0.876303	0.365869	0.175384
	C169	C	0.115333	0.596213	0.176860
	C170	C	0.115976	0.366111	0.822871
	C171	C	0.877007	0.597071	0.823495
	C172	C	0.173443	0.859464	0.385686
	C173	C	0.172062	0.099253	0.615062
	C174	C	0.818759	0.100093	0.384821
	C175	C	0.818731	0.861759	0.614262
	C176	C	0.381689	0.157520	0.879443
	C177	C	0.612060	0.156905	0.117186
	C178	C	0.381636	0.805388	0.117254
	C179	C	0.611504	0.804227	0.879563
	C180	C	0.381897	0.861638	0.175428
	C181	C	0.611628	0.100284	0.175696
	C182	C	0.381246	0.100269	0.822523
	C183	C	0.611429	0.861415	0.821665
	C184	C	0.875284	0.157967	0.385298
	C185	C	0.114218	0.156978	0.614884
	C186	C	0.115029	0.803153	0.385420
	C187	C	0.876600	0.804348	0.614492
	C188	C	0.173948	0.366765	0.879710
	C189	C	0.172239	0.596888	0.118830
	C190	C	0.819155	0.366208	0.117569
	C191	C	0.819846	0.597294	0.881472
	C192	C	0.396139	0.075423	0.598616
	C193	C	0.595104	0.885870	0.597185
	C194	C	0.594874	0.076107	0.399811
	C195	C	0.397164	0.885629	0.398495
	C196	C	0.595554	0.381589	0.093913
	C197	C	0.596098	0.580440	0.903854
	C198	C	0.396562	0.581557	0.094074
	C199	C	0.396576	0.381990	0.905136
	C200	C	0.091352	0.578064	0.400497
	C201	C	0.901572	0.579925	0.600119
	C202	C	0.090398	0.381081	0.598928
	C203	C	0.901368	0.381327	0.398854
	C204	C	0.896372	0.576516	0.100359
	C205	C	0.095147	0.387088	0.097042
	C206	C	0.094938	0.576541	0.899901
	C207	C	0.896543	0.386650	0.899732
	C208	C	0.096438	0.880375	0.595298
	C209	C	0.094603	0.078422	0.405847
	C210	C	0.895902	0.080002	0.593784
	C211	C	0.896837	0.880560	0.405167
	C212	C	0.591538	0.080549	0.898435
	C213	C	0.401951	0.080535	0.098471
	C214	C	0.591636	0.882003	0.098214
	C215	C	0.401888	0.882293	0.899073
	Zn216	Zn	0.496133	-0.018714	0.748393
	Zn217	Zn	0.496594	-0.018914	0.248599
	Zn218	Zn	0.746017	0.481794	-0.000490
	Zn219	Zn	0.245827	0.481955	-0.000769
	Zn220	Zn	-0.003281	0.729787	0.499940
	Zn221	Zn	-0.004903	0.230607	0.499443
	Zn222	Zn	-0.003892	0.480644	0.749732
	Zn223	Zn	-0.003733	0.480304	0.249110
	Zn224	Zn	0.496336	0.731117	-0.001009
	Zn225	Zn	0.496122	0.230730	-0.001461
	Zn226	Zn	0.745451	-0.019189	0.499046
	Zn227	Zn	0.246074	-0.020219	0.499751
	N228	N	0.409922	0.943835	0.677521
	N229	N	0.581751	0.017849	0.676743
	N230	N	0.582093	0.943860	0.320585
	N231	N	0.410325	0.017908	0.320507
	N232	N	0.675113	0.394715	0.962424
	N233	N	0.673304	0.566564	0.036333
	N234	N	0.317032	0.568390	0.962731
	N235	N	0.317834	0.396467	0.036937
	N236	N	0.959290	0.657284	0.415345
	N237	N	0.033758	0.658176	0.585553
	N238	N	0.958062	0.303675	0.584339
	N239	N	0.033149	0.302202	0.413540
	N240	N	0.958785	0.394755	0.678446
	N241	N	0.033385	0.566952	0.679077
	N242	N	0.959145	0.565365	0.322087
	N243	N	0.033100	0.392991	0.319165
	N244	N	0.410564	0.659510	0.962326
	N245	N	0.582179	0.659812	0.035622
	N246	N	0.580575	0.303921	0.961221
	N247	N	0.409890	0.302583	0.036104
	N248	N	0.674279	0.943846	0.413040
	N249	N	0.673749	0.018025	0.584426
	N250	N	0.319328	0.942420	0.583499
	N251	N	0.317027	0.017266	0.413008
	N252	N	0.910050	0.443602	0.177829
	N253	N	0.081934	0.518267	0.177779
	N254	N	0.081847	0.443840	0.821377
	N255	N	0.910141	0.518918	0.821240
	N256	N	0.175233	0.893157	0.463402
	N257	N	0.173828	0.065465	0.537415
	N258	N	0.817604	0.066108	0.461983
	N259	N	0.817192	0.894933	0.536684
	N260	N	0.459667	0.159198	0.912496
	N261	N	0.534184	0.158388	0.083350
	N262	N	0.459346	0.804334	0.083354
	N263	N	0.533799	0.803149	0.913403
	N264	N	0.459880	0.894710	0.177388
	N265	N	0.533704	0.067296	0.177634
	N266	N	0.459028	0.066652	0.820792
	N267	N	0.533550	0.895036	0.819661
	N268	N	0.908861	0.159358	0.462924
	N269	N	0.080946	0.158493	0.537077
	N270	N	0.081214	0.802234	0.463029
	N271	N	0.910412	0.802351	0.536873
	N272	N	0.175130	0.444957	0.912933
	N273	N	0.173559	0.519307	0.084348
	N274	N	0.818170	0.444297	0.084506
	N275	N	0.818226	0.519181	0.914648
	O276	O	1.028339	1.134326	0.042789
	H277	H	1.040056	1.128571	0.044572
	H278	H	1.022916	1.145564	0.057996
	O279	O	0.073550	0.003794	-0.019750
	H280	H	0.059127	0.006106	-0.018651
	H281	H	0.072528	-0.006362	-0.004684
	O282	O	0.054803	0.037869	1.102458
	H283	H	0.053335	0.039522	1.112671
	H284	H	0.041075	0.031929	1.096367
	O285	O	1.467075	1.462722	0.537048
	H286	H	1.465876	1.450695	0.539305
	H287	H	1.460051	1.454915	0.543688
	O288	O	0.057714	1.027003	0.034806
	H289	H	0.061521	1.018852	0.034954
	H290	H	0.059979	1.026542	0.032997
	O291	O	0.474076	0.460699	0.576562
	H292	H	0.473552	0.461275	0.588430
	H293	H	0.474445	0.452231	0.588903
	O294	O	0.067993	0.001790	-0.014202
	H295	H	0.070669	0.005537	-0.002984
	H296	H	0.078331	0.004636	-0.028992
	O297	O	0.015192	1.071097	1.058123
	H298	H	0.010681	1.070142	1.063001
	H299	H	0.013951	1.069108	1.068947
	O300	O	-0.020928	1.011804	1.038089
	H301	H	-0.016922	1.017634	1.044055
	H302	H	-0.020591	1.015808	1.036348
	O303	O	0.476744	0.420419	0.557592
	H304	H	0.480492	0.425694	0.549907
	H305	H	0.477927	0.425353	0.548472
	O306	O	-0.027482	-0.005775	1.021760
	H307	H	-0.031291	-0.002704	1.016910
	H308	H	-0.025345	-0.009782	1.019312
	O309	O	1.008004	1.023782	1.009113
	H310	H	1.010885	1.025767	1.005060
	H311	H	1.009498	1.036963	1.008420
	O312	O	0.468690	0.441474	0.533704
	H313	H	0.466222	0.434916	0.538772
	H314	H	0.470947	0.451599	0.525479
	O315	O	0.535824	0.475597	0.560476
	H316	H	0.534127	0.482287	0.553771
	H317	H	0.537597	0.468886	0.569672
	O318	O	0.513247	1.494015	-0.489074
	H319	H	0.510314	1.498616	-0.488457
	H320	H	0.514077	1.485168	-0.493697
	O321	O	1.063731	0.985703	0.014780
	H322	H	1.060998	0.993036	0.001379
	H323	H	1.066312	0.984212	0.015754
