data_Molecule from HDF5

_cell_length_a		16.432007
_cell_length_b		16.135784
_cell_length_c		16.155840
_cell_angle_alpha	90.412305
_cell_angle_beta	89.342814
_cell_angle_gamma	89.427005
_symmetry_space_group_name_H-M	'P 1'
_symmetry_Int_Tables_number		1

loop_
	_symmetry_equiv_pos_as_xyz
	x,y,z

loop_
	_atom_site_label
	_atom_site_type_symbol
	_atom_site_fract_x
	_atom_site_fract_y
	_atom_site_fract_z
	H0	H	0.397007	0.816833	0.728244
	H1	H	0.590732	0.147163	0.725679
	H2	H	0.597071	0.817129	0.294790
	H3	H	0.396914	0.146728	0.303968
	H4	H	0.716428	0.374546	0.849898
	H5	H	0.711241	0.589053	0.173188
	H6	H	0.278302	0.586159	0.846844
	H7	H	0.273535	0.384232	0.172636
	H8	H	0.835848	0.701314	0.411788
	H9	H	0.157646	0.695454	0.611107
	H10	H	0.834162	0.267376	0.610545
	H11	H	0.157333	0.260913	0.404406
	H12	H	0.837610	0.377369	0.732213
	H13	H	0.157392	0.579775	0.724564
	H14	H	0.833540	0.584249	0.297163
	H15	H	0.156664	0.378164	0.288472
	H16	H	0.397434	0.696631	0.846778
	H17	H	0.587412	0.696371	0.176565
	H18	H	0.595607	0.265809	0.848408
	H19	H	0.392295	0.272681	0.177034
	H20	H	0.717290	0.818001	0.404675
	H21	H	0.711620	0.144043	0.615514
	H22	H	0.278717	0.817567	0.617190
	H23	H	0.277314	0.143290	0.412506
	H24	H	0.896654	0.317224	0.223938
	H25	H	0.089288	0.646035	0.223567
	H26	H	0.097872	0.316734	0.794678
	H27	H	0.897555	0.646427	0.797293
	H28	H	0.217724	0.875295	0.349221
	H29	H	0.207845	0.081775	0.675777
	H30	H	0.779522	0.082286	0.348002
	H31	H	0.777570	0.877750	0.674006
	H32	H	0.332271	0.199826	0.917514
	H33	H	0.656641	0.198974	0.112630
	H34	H	0.331650	0.771313	0.113198
	H35	H	0.655048	0.762815	0.908697
	H36	H	0.333912	0.884352	0.231750
	H37	H	0.656968	0.081422	0.227980
	H38	H	0.332639	0.085168	0.798796
	H39	H	0.656894	0.881402	0.795238
	H40	H	0.899863	0.191810	0.345027
	H41	H	0.091749	0.196999	0.675046
	H42	H	0.098929	0.763746	0.347321
	H43	H	0.898883	0.769539	0.676457
	H44	H	0.216570	0.320075	0.904190
	H45	H	0.204142	0.647263	0.110490
	H46	H	0.776191	0.319158	0.114684
	H47	H	0.776171	0.644456	0.908148
	H48	H	0.403344	0.097397	0.607867
	H49	H	0.582346	0.865944	0.603155
	H50	H	0.592638	0.100781	0.419752
	H51	H	0.409543	0.865657	0.426976
	H52	H	0.587263	0.392388	0.129433
	H53	H	0.580517	0.569890	0.896793
	H54	H	0.400670	0.579080	0.128418
	H55	H	0.410629	0.388289	0.894685
	H56	H	0.110920	0.562685	0.408296
	H57	H	0.878614	0.575122	0.609643
	H58	H	0.109951	0.389290	0.594428
	H59	H	0.881309	0.390727	0.419844
	H60	H	0.111018	0.391289	0.602509
	H61	H	0.880650	0.580528	0.601056
	H62	H	0.114688	0.579935	0.413582
	H63	H	0.880351	0.388877	0.415424
	H64	H	0.392184	0.577250	0.129825
	H65	H	0.589323	0.575248	0.891980
	H66	H	0.586442	0.396632	0.128425
	H67	H	0.399290	0.387801	0.891740
	H68	H	0.581366	0.096581	0.420546
	H69	H	0.590188	0.865664	0.595881
	H70	H	0.401256	0.096336	0.600930
	H71	H	0.401628	0.861558	0.423054
	H72	H	0.891245	0.600392	0.098201
	H73	H	0.087518	0.364060	0.096722
	H74	H	0.084296	0.599707	0.914024
	H75	H	0.898919	0.362426	0.919302
	H76	H	0.093337	0.898560	0.627899
	H77	H	0.078701	0.066139	0.398456
	H78	H	0.902591	0.084488	0.631793
	H79	H	0.895508	0.890776	0.391972
	H80	H	0.610361	0.078726	0.919460
	H81	H	0.375573	0.086544	0.110102
	H82	H	0.609253	0.890939	0.101925
	H83	H	0.379328	0.895979	0.917474
	H84	H	0.610314	0.887547	0.102707
	H85	H	0.383288	0.075810	0.101158
	H86	H	0.607331	0.070398	0.923412
	H87	H	0.376499	0.886960	0.916162
	H88	H	0.891557	0.069362	0.629409
	H89	H	0.093283	0.079520	0.389300
	H90	H	0.077852	0.888625	0.626126
	H91	H	0.911193	0.900927	0.398174
	H92	H	0.085888	0.597886	0.921436
	H93	H	0.088708	0.364152	0.097667
	H94	H	0.900509	0.602531	0.112891
	H95	H	0.912464	0.366078	0.916584
	H96	H	0.395694	0.100474	0.604949
	H97	H	0.591803	0.861787	0.605587
	H98	H	0.588350	0.095681	0.430491
	H99	H	0.409042	0.863172	0.417689
	H100	H	0.583395	0.393611	0.128134
	H101	H	0.590700	0.565342	0.895862
	H102	H	0.398221	0.570667	0.126645
	H103	H	0.403246	0.398809	0.895995
	H104	H	0.107587	0.568689	0.425521
	H105	H	0.883177	0.569834	0.600848
	H106	H	0.113218	0.382620	0.601235
	H107	H	0.881082	0.385395	0.419100
	H108	H	0.908377	0.594938	0.097759
	H109	H	0.087033	0.364247	0.098356
	H110	H	0.091448	0.601684	0.917401
	H111	H	0.906827	0.368221	0.929361
	H112	H	0.093006	0.880504	0.633049
	H113	H	0.098232	0.059371	0.393969
	H114	H	0.909907	0.068636	0.624417
	H115	H	0.912678	0.880551	0.392946
	H116	H	0.610106	0.070001	0.914835
	H117	H	0.378896	0.072728	0.116065
	H118	H	0.608392	0.889070	0.099896
	H119	H	0.380576	0.890379	0.925552
	C120	C	0.372399	-0.010267	0.634925
	C121	C	0.616327	0.972660	0.632452
	C122	C	0.618498	-0.010425	0.390962
	C123	C	0.375735	0.971931	0.393337
	C124	C	0.616601	0.361447	0.020827
	C125	C	0.614701	0.602587	1.002808
	C126	C	0.370257	0.605442	0.019731
	C127	C	0.373478	0.363175	1.002661
	C128	C	0.004465	0.602377	0.388258
	C129	C	0.987381	0.603115	0.632676
	C130	C	0.004923	0.358934	0.630747
	C131	C	0.987227	0.357515	0.385856
	C132	C	0.871754	0.490875	0.132599
	C133	C	0.114659	0.473062	0.128211
	C134	C	0.117876	0.491166	0.887484
	C135	C	0.874988	0.473074	0.890395
	C136	C	0.119327	0.857935	0.520994
	C137	C	0.117112	0.100236	0.502389
	C138	C	0.873614	0.102747	0.519722
	C139	C	0.876306	0.860760	0.502633
	C140	C	0.502770	0.104023	0.891391
	C141	C	0.486405	0.106353	0.136955
	C142	C	0.502832	0.860818	0.133335
	C143	C	0.485602	0.860190	0.889290
	C144	C	0.375991	0.866297	0.691074
	C145	C	0.612151	0.097348	0.688184
	C146	C	0.617602	0.866580	0.332394
	C147	C	0.376656	0.096545	0.339894
	C148	C	0.676130	0.357808	0.898505
	C149	C	0.671528	0.605783	0.125041
	C150	C	0.316391	0.604843	0.895937
	C151	C	0.313958	0.364772	0.124888
	C152	C	0.883809	0.661737	0.391500
	C153	C	0.109185	0.657749	0.630660
	C154	C	0.883134	0.304332	0.630401
	C155	C	0.108701	0.299714	0.385013
	C156	C	0.884617	0.359214	0.690970
	C157	C	0.108976	0.600135	0.687479
	C158	C	0.882566	0.603329	0.334270
	C159	C	0.108674	0.358151	0.327641
	C160	C	0.375338	0.660020	0.896027
	C161	C	0.610075	0.659472	0.126719
	C162	C	0.615969	0.303672	0.897526
	C163	C	0.373275	0.309420	0.127079
	C164	C	0.677305	0.866802	0.387293
	C165	C	0.672166	0.095704	0.633380
	C166	C	0.317099	0.866562	0.635583
	C167	C	0.317019	0.094919	0.393950
	C168	C	0.875579	0.366768	0.187138
	C169	C	0.110441	0.597024	0.185319
	C170	C	0.117834	0.366696	0.831651
	C171	C	0.876561	0.596545	0.834223
	C172	C	0.177928	0.856765	0.397810
	C173	C	0.170341	0.100908	0.626612
	C174	C	0.817566	0.101640	0.396840
	C175	C	0.817807	0.860122	0.625576
	C176	C	0.380802	0.161492	0.895707
	C177	C	0.608141	0.161412	0.133640
	C178	C	0.380552	0.807673	0.132899
	C179	C	0.607122	0.801966	0.889524
	C180	C	0.381750	0.863774	0.192027
	C181	C	0.608373	0.102904	0.191128
	C182	C	0.381027	0.104515	0.836678
	C183	C	0.608180	0.861196	0.833148
	C184	C	0.877696	0.156108	0.395207
	C185	C	0.112747	0.158260	0.625962
	C186	C	0.118709	0.801570	0.396794
	C187	C	0.878205	0.806159	0.626817
	C188	C	0.176611	0.368171	0.886444
	C189	C	0.167579	0.597493	0.128913
	C190	C	0.815789	0.367609	0.132728
	C191	C	0.816625	0.595893	0.889824
	C192	C	0.393741	0.075782	0.611406
	C193	C	0.594571	0.886623	0.608591
	C194	C	0.594385	0.075523	0.416239
	C195	C	0.399710	0.885932	0.415848
	C196	C	0.592812	0.387030	0.106498
	C197	C	0.593145	0.577569	0.917291
	C198	C	0.390907	0.582407	0.105915
	C199	C	0.397557	0.385101	0.916473
	C200	C	0.089081	0.577752	0.409481
	C201	C	0.902825	0.581373	0.610527
	C202	C	0.089465	0.381292	0.606448
	C203	C	0.902823	0.381480	0.410675
	C204	C	0.893361	0.577150	0.109527
	C205	C	0.093965	0.386615	0.104572
	C206	C	0.094102	0.577331	0.910774
	C207	C	0.899005	0.387506	0.914660
	C208	C	0.095274	0.882133	0.606900
	C209	C	0.096324	0.075539	0.416302
	C210	C	0.895052	0.080681	0.605979
	C211	C	0.899683	0.884013	0.416511
	C212	C	0.587213	0.080199	0.912918
	C213	C	0.401383	0.084808	0.115553
	C214	C	0.587579	0.882908	0.108753
	C215	C	0.400795	0.884089	0.912684
	Zn216	Zn	0.494667	-0.017505	0.760893
	Zn217	Zn	0.495601	-0.017888	0.264245
	Zn218	Zn	0.744813	0.482198	0.011725
	Zn219	Zn	0.243882	0.483506	0.009158
	Zn220	Zn	-0.002903	0.731792	0.511526
	Zn221	Zn	-0.003868	0.229449	0.509459
	Zn222	Zn	-0.003408	0.480723	0.760806
	Zn223	Zn	-0.004778	0.481138	0.257908
	Zn224	Zn	0.493227	0.731595	0.011592
	Zn225	Zn	0.495019	0.234791	0.013406
	Zn226	Zn	0.745846	-0.019627	0.511539
	Zn227	Zn	0.246305	-0.020542	0.512617
	N228	N	0.409683	0.944084	0.690878
	N229	N	0.578092	0.019728	0.687743
	N230	N	0.581694	0.944083	0.334557
	N231	N	0.412787	0.019164	0.339301
	N232	N	0.676427	0.393208	0.976323
	N233	N	0.674462	0.570998	0.047056
	N234	N	0.313164	0.571466	0.973919
	N235	N	0.314100	0.397403	0.046682
	N236	N	0.960608	0.661352	0.424417
	N237	N	0.032573	0.659954	0.597452
	N238	N	0.958999	0.304230	0.593553
	N239	N	0.032250	0.299213	0.420681
	N240	N	0.961275	0.392472	0.691202
	N241	N	0.032355	0.566752	0.688943
	N242	N	0.958673	0.567045	0.331912
	N243	N	0.032096	0.393456	0.328126
	N244	N	0.408122	0.660494	0.973911
	N245	N	0.575445	0.657671	0.049604
	N246	N	0.579761	0.305759	0.974691
	N247	N	0.409873	0.308406	0.049856
	N248	N	0.677805	0.944429	0.422981
	N249	N	0.674860	0.017423	0.599366
	N250	N	0.314929	0.944359	0.601275
	N251	N	0.316385	0.016403	0.426486
	N252	N	0.909351	0.444473	0.187471
	N253	N	0.077981	0.518871	0.184938
	N254	N	0.082030	0.444128	0.832033
	N255	N	0.912237	0.518924	0.834454
	N256	N	0.178357	0.891110	0.476105
	N257	N	0.173296	0.065645	0.548800
	N258	N	0.814577	0.069213	0.475452
	N259	N	0.816373	0.893358	0.547141
	N260	N	0.457513	0.161426	0.928930
	N261	N	0.531187	0.164092	0.100937
	N262	N	0.456980	0.805799	0.096913
	N263	N	0.529994	0.801203	0.923560
	N264	N	0.458656	0.896323	0.192178
	N265	N	0.531698	0.069706	0.193492
	N266	N	0.457706	0.069479	0.833810
	N267	N	0.531619	0.896484	0.832665
	N268	N	0.911795	0.156974	0.472393
	N269	N	0.080529	0.158174	0.547703
	N270	N	0.083067	0.802154	0.474214
	N271	N	0.913603	0.806229	0.549256
	N272	N	0.176994	0.446602	0.920255
	N273	N	0.170299	0.519464	0.093953
	N274	N	0.813363	0.445952	0.099512
	N275	N	0.815451	0.518070	0.923793
	O276	O	0.919781	-0.050113	1.081426
	H277	H	0.915814	-0.044066	1.066035
	H278	H	0.925257	-0.057062	1.084499
	O279	O	0.339311	0.354876	0.592992
	H280	H	0.349292	0.338733	0.593534
	H281	H	0.346326	0.356002	0.579703
	O282	O	0.544074	0.475125	0.449660
	H283	H	0.553542	0.466678	0.456902
	H284	H	0.542593	0.461067	0.438095
	O285	O	0.452596	0.594850	0.388103
	H286	H	0.455830	0.582878	0.381380
	H287	H	0.457886	0.589174	0.390462
	O288	O	0.564868	0.533328	0.423214
	H289	H	0.565216	0.530839	0.419695
	H290	H	0.579668	0.546712	0.431607
	O291	O	-0.046857	-0.027507	1.027468
	H292	H	-0.032954	-0.037290	1.014096
	H293	H	-0.046258	-0.020485	1.014716
	O294	O	1.031091	0.929996	-0.060561
	H295	H	1.033358	0.932679	-0.073186
	H296	H	1.031098	0.933144	-0.067037
	O297	O	1.628879	0.318045	0.475012
	H298	H	1.630776	0.312444	0.492479
	H299	H	1.633381	0.327051	0.481550
	O300	O	0.526502	0.454611	0.544783
	H301	H	0.529884	0.467122	0.539184
	H302	H	0.510387	0.462284	0.541683
	O303	O	0.442668	0.610105	0.458527
	H304	H	0.433491	0.606847	0.455829
	H305	H	0.441020	0.622027	0.448670
	O306	O	0.665831	0.355175	0.411976
	H307	H	0.680069	0.347522	0.451448
	H308	H	0.659732	0.345682	0.397413
	O309	O	0.596375	0.556055	0.384118
	H310	H	0.608064	0.530272	0.379177
	H311	H	0.611114	0.555262	0.392919
	O312	O	0.957226	0.992695	1.157507
	H313	H	0.960942	1.002072	1.162331
	H314	H	0.959340	0.990714	1.159669
	O315	O	0.995364	0.975168	0.046980
	H316	H	0.985475	0.971727	0.057809
	H317	H	0.998840	0.968823	0.051344
	O318	O	0.586847	0.462165	0.560475
	H319	H	0.594543	0.466503	0.562826
	H320	H	0.570515	0.455065	0.567244
	O321	O	0.970613	1.020121	0.013538
	H322	H	0.968745	1.027859	0.010844
	H323	H	0.984390	1.008943	0.011637
	O324	O	-0.350458	1.554471	0.478351
	H325	H	-0.364928	1.530488	0.477641
	H326	H	-0.343928	1.562189	0.469605
	O327	O	-0.421312	1.415343	1.607088
	H328	H	-0.420587	1.430895	1.616536
	H329	H	-0.416829	1.423243	1.619568
	O330	O	-0.050370	-0.076074	0.015797
	H331	H	-0.042830	-0.081756	0.018153
	H332	H	-0.057872	-0.073579	0.022747
	O333	O	1.073441	0.910774	0.014124
	H334	H	1.079525	0.913235	0.009112
	H335	H	1.060574	0.912132	0.025759
	O336	O	0.026172	0.000548	-0.002451
	H337	H	0.031800	0.009067	-0.005969
	H338	H	0.037106	-0.020606	-0.008604
	O339	O	-0.033074	-0.012357	-0.049468
	H340	H	-0.023587	-0.019574	-0.052667
	H341	H	-0.034142	-0.006432	-0.045371
	O342	O	0.610939	0.574713	0.553057
	H343	H	0.604810	0.577332	0.546830
	H344	H	0.611939	0.577967	0.562914
	O345	O	-0.675131	1.415434	1.667919
	H346	H	-0.688077	1.409835	1.672485
	H347	H	-0.676230	1.413555	1.664995
	O348	O	0.516926	0.521704	0.641043
	H349	H	0.508168	0.527508	0.642744
	H350	H	0.529244	0.520413	0.640522
	O351	O	0.407520	0.559590	0.500590
	H352	H	0.404445	0.550620	0.496435
	H353	H	0.403720	0.575745	0.483940
	O354	O	0.342241	0.547701	-0.419457
	H355	H	0.338367	0.554926	-0.427150
	H356	H	0.340103	0.531725	-0.426677
	O357	O	1.036055	1.032000	0.949540
	H358	H	1.026024	1.017437	0.954437
	H359	H	1.038958	1.031258	0.943359
	O360	O	0.106104	0.912034	-0.017496
	H361	H	0.120127	0.919394	-0.009547
	H362	H	0.099226	0.912732	-0.024980
	O363	O	0.605867	0.562187	0.664908
	H364	H	0.599412	0.579755	0.666066
	H365	H	0.594671	0.574034	0.653365
	O366	O	1.020131	1.103168	0.002012
	H367	H	1.021364	1.101010	0.002169
	H368	H	1.019021	1.106775	0.009406
	O369	O	1.047270	-0.047793	-0.054671
	H370	H	1.047553	-0.038957	-0.047533
	H371	H	1.048780	-0.049449	-0.059444
	O372	O	0.372025	0.392799	0.596144
	H373	H	0.377150	0.394407	0.598659
	H374	H	0.376418	0.387798	0.604357
	O375	O	0.866568	0.068492	0.909161
	H376	H	0.872817	0.080179	0.905370
	H377	H	0.863378	0.063209	0.891137
	O378	O	0.050130	0.928211	-0.090667
	H379	H	0.056161	0.922692	-0.071240
	H380	H	0.044669	0.923450	-0.095776
	O381	O	0.521471	0.372289	0.335151
	H382	H	0.533871	0.356808	0.338819
	H383	H	0.529059	0.377804	0.323424
	O384	O	0.903239	1.036370	0.062610
	H385	H	0.896198	1.041529	0.052195
	H386	H	0.895216	1.034214	0.068859
	O387	O	0.907480	-0.044688	1.053950
	H388	H	0.911339	-0.030877	1.066569
	H389	H	0.896135	-0.062066	1.057515
	O390	O	0.405866	1.386873	-0.445106
	H391	H	0.405570	1.389104	-0.444124
	H392	H	0.405208	1.386842	-0.445410
	O393	O	0.410638	0.503650	0.409275
	H394	H	0.421983	0.501061	0.403368
	H395	H	0.409779	0.501535	0.405614
