data_Molecule from HDF5

_cell_length_a		16.286213
_cell_length_b		16.114149
_cell_length_c		16.284517
_cell_angle_alpha	89.962637
_cell_angle_beta	90.034931
_cell_angle_gamma	89.639891
_symmetry_space_group_name_H-M	'P 1'
_symmetry_Int_Tables_number		1

loop_
	_symmetry_equiv_pos_as_xyz
	x,y,z

loop_
	_atom_site_label
	_atom_site_type_symbol
	_atom_site_fract_x
	_atom_site_fract_y
	_atom_site_fract_z
	H0	H	0.393872	0.830148	0.712858
	H1	H	0.588949	0.160103	0.713821
	H2	H	0.590933	0.830629	0.286432
	H3	H	0.391622	0.160868	0.285236
	H4	H	0.706471	0.394871	0.835013
	H5	H	0.706191	0.595955	0.162061
	H6	H	0.274631	0.596092	0.835004
	H7	H	0.274558	0.396580	0.161503
	H8	H	0.827825	0.712183	0.399669
	H9	H	0.156807	0.707428	0.593944
	H10	H	0.827204	0.284772	0.593227
	H11	H	0.155641	0.281082	0.400124
	H12	H	0.827744	0.396651	0.712434
	H13	H	0.154402	0.595810	0.714534
	H14	H	0.827596	0.597220	0.283003
	H15	H	0.154549	0.394887	0.281990
	H16	H	0.393020	0.709365	0.834112
	H17	H	0.586349	0.708030	0.164117
	H18	H	0.589465	0.280322	0.834606
	H19	H	0.394227	0.283610	0.162970
	H20	H	0.708126	0.832437	0.398589
	H21	H	0.702457	0.161953	0.598018
	H22	H	0.278029	0.830435	0.597944
	H23	H	0.277439	0.161475	0.400519
	H24	H	0.891653	0.330983	0.212769
	H25	H	0.086751	0.661434	0.210409
	H26	H	0.089998	0.330660	0.785059
	H27	H	0.890199	0.661612	0.782695
	H28	H	0.208445	0.895377	0.335438
	H29	H	0.205351	0.094938	0.662684
	H30	H	0.773480	0.098623	0.336158
	H31	H	0.777161	0.897542	0.662718
	H32	H	0.326548	0.209786	0.901344
	H33	H	0.655039	0.207884	0.096059
	H34	H	0.326167	0.784661	0.095455
	H35	H	0.655504	0.781115	0.902488
	H36	H	0.328163	0.896451	0.215022
	H37	H	0.654021	0.094694	0.214976
	H38	H	0.328317	0.097188	0.782165
	H39	H	0.655000	0.893800	0.784050
	H40	H	0.894524	0.209869	0.333835
	H41	H	0.088519	0.208977	0.662753
	H42	H	0.090106	0.782030	0.333370
	H43	H	0.895720	0.782056	0.662324
	H44	H	0.205786	0.331502	0.898477
	H45	H	0.201497	0.661821	0.095454
	H46	H	0.778783	0.330623	0.095705
	H47	H	0.774142	0.661176	0.898577
	H48	H	0.401365	0.114071	0.598509
	H49	H	0.581769	0.877920	0.592093
	H50	H	0.587857	0.113336	0.413106
	H51	H	0.398137	0.876531	0.403345
	H52	H	0.592415	0.403718	0.117695
	H53	H	0.578190	0.587821	0.884606
	H54	H	0.396647	0.596124	0.117419
	H55	H	0.392048	0.404714	0.880695
	H56	H	0.112233	0.598989	0.401716
	H57	H	0.873453	0.590590	0.596466
	H58	H	0.108697	0.407103	0.596371
	H59	H	0.872427	0.401302	0.399920
	H60	H	0.109500	0.396976	0.593566
	H61	H	0.875323	0.594088	0.586735
	H62	H	0.104566	0.584229	0.412667
	H63	H	0.875737	0.401991	0.409707
	H64	H	0.388027	0.588227	0.116345
	H65	H	0.585055	0.592915	0.881091
	H66	H	0.581914	0.408325	0.112160
	H67	H	0.399732	0.408104	0.884277
	H68	H	0.585643	0.117820	0.398669
	H69	H	0.585739	0.879152	0.586920
	H70	H	0.402578	0.110555	0.584209
	H71	H	0.402621	0.878844	0.406567
	H72	H	0.903224	0.608312	0.078329
	H73	H	0.085104	0.380042	0.082537
	H74	H	0.080224	0.612950	0.909384
	H75	H	0.902221	0.378748	0.901188
	H76	H	0.076766	0.899390	0.612928
	H77	H	0.084690	0.085667	0.382728
	H78	H	0.895382	0.090729	0.616241
	H79	H	0.901705	0.909933	0.384289
	H80	H	0.609432	0.089673	0.900091
	H81	H	0.373806	0.089483	0.092840
	H82	H	0.609178	0.900911	0.096244
	H83	H	0.374483	0.898836	0.907995
	H84	H	0.607713	0.900036	0.090727
	H85	H	0.375314	0.089542	0.092880
	H86	H	0.607682	0.090375	0.908875
	H87	H	0.376786	0.909566	0.907161
	H88	H	0.897608	0.088530	0.614793
	H89	H	0.083517	0.091049	0.381503
	H90	H	0.092733	0.896794	0.618121
	H91	H	0.899973	0.899287	0.380710
	H92	H	0.086775	0.616398	0.905201
	H93	H	0.088822	0.375117	0.095502
	H94	H	0.883570	0.618421	0.091198
	H95	H	0.899674	0.381095	0.909655
	H96	H	0.389935	0.115160	0.590035
	H97	H	0.588260	0.876250	0.592347
	H98	H	0.574234	0.111878	0.407030
	H99	H	0.396547	0.877655	0.409416
	H100	H	0.582404	0.395737	0.116588
	H101	H	0.586447	0.583703	0.883018
	H102	H	0.399489	0.585011	0.113917
	H103	H	0.399521	0.399742	0.881269
	H104	H	0.108491	0.580525	0.394200
	H105	H	0.877243	0.583280	0.589380
	H106	H	0.106518	0.404583	0.586562
	H107	H	0.876553	0.410391	0.404130
	H108	H	0.904796	0.614688	0.102754
	H109	H	0.076193	0.379206	0.093420
	H110	H	0.079464	0.614243	0.900549
	H111	H	0.894037	0.376448	0.903788
	H112	H	0.088237	0.912296	0.613090
	H113	H	0.088941	0.088963	0.380530
	H114	H	0.898480	0.091936	0.615219
	H115	H	0.891550	0.907203	0.381021
	H116	H	0.606419	0.082754	0.904169
	H117	H	0.373778	0.089195	0.093413
	H118	H	0.607111	0.905439	0.093401
	H119	H	0.372067	0.903456	0.897843
	C120	C	0.370181	0.004117	0.619890
	C121	C	0.612698	0.987102	0.619928
	C122	C	0.612408	0.005335	0.377412
	C123	C	0.369972	0.987023	0.377768
	C124	C	0.613111	0.373770	0.006890
	C125	C	0.611567	0.616980	0.991041
	C126	C	0.367221	0.618447	0.006955
	C127	C	0.368949	0.375257	0.990135
	C128	C	0.000126	0.617916	0.375229
	C129	C	0.983426	0.617448	0.619186
	C130	C	0.000033	0.374359	0.619783
	C131	C	0.983130	0.374808	0.376200
	C132	C	0.869495	0.504528	0.119199
	C133	C	0.111236	0.487399	0.119018
	C134	C	0.111347	0.505004	0.876648
	C135	C	0.868634	0.487951	0.875935
	C136	C	0.114170	0.874051	0.506452
	C137	C	0.113812	0.117784	0.490185
	C138	C	0.868603	0.119209	0.507365
	C139	C	0.870154	0.875927	0.490062
	C140	C	0.499403	0.117109	0.876733
	C141	C	0.482218	0.117870	0.121446
	C142	C	0.499371	0.874249	0.121074
	C143	C	0.482659	0.873815	0.876411
	C144	C	0.373203	0.879470	0.675198
	C145	C	0.609269	0.111247	0.675592
	C146	C	0.611113	0.880600	0.323106
	C147	C	0.371590	0.111411	0.322839
	C148	C	0.668188	0.375276	0.883757
	C149	C	0.667194	0.615218	0.113829
	C150	C	0.312519	0.616236	0.883894
	C151	C	0.313514	0.377086	0.113143
	C152	C	0.876763	0.674217	0.378783
	C153	C	0.107238	0.671196	0.615732
	C154	C	0.876396	0.321065	0.615189
	C155	C	0.106554	0.319118	0.379179
	C156	C	0.876909	0.376389	0.674761
	C157	C	0.105980	0.615771	0.675665
	C158	C	0.876482	0.617019	0.320955
	C159	C	0.105837	0.375363	0.320091
	C160	C	0.371299	0.672869	0.883643
	C161	C	0.607764	0.671161	0.114763
	C162	C	0.609818	0.318340	0.883559
	C163	C	0.372971	0.320890	0.113862
	C164	C	0.669474	0.881319	0.378982
	C165	C	0.666015	0.112032	0.618277
	C166	C	0.315794	0.879572	0.617988
	C167	C	0.314742	0.111781	0.380064
	C168	C	0.871925	0.380187	0.174725
	C169	C	0.107787	0.611982	0.173130
	C170	C	0.109844	0.380286	0.822400
	C171	C	0.869969	0.612243	0.820717
	C172	C	0.169837	0.875773	0.383647
	C173	C	0.168191	0.115400	0.613386
	C174	C	0.812775	0.117984	0.384602
	C175	C	0.815242	0.877493	0.613649
	C176	C	0.375931	0.172516	0.880059
	C177	C	0.605909	0.171217	0.117613
	C178	C	0.375358	0.821243	0.116969
	C179	C	0.606250	0.818266	0.880594
	C180	C	0.376274	0.876893	0.176035
	C181	C	0.605199	0.115131	0.176901
	C182	C	0.376738	0.116319	0.821039
	C183	C	0.606138	0.874518	0.821829
	C184	C	0.872894	0.173048	0.383469
	C185	C	0.109732	0.171846	0.613629
	C186	C	0.111064	0.819385	0.382657
	C187	C	0.874068	0.820180	0.613542
	C188	C	0.167474	0.380758	0.878789
	C189	C	0.164843	0.612208	0.116240
	C190	C	0.815995	0.379789	0.116421
	C191	C	0.812434	0.612037	0.878267
	C192	C	0.391639	0.090847	0.597597
	C193	C	0.591514	0.900325	0.597129
	C194	C	0.589337	0.091886	0.399763
	C195	C	0.392497	0.900136	0.399878
	C196	C	0.591881	0.395980	0.093088
	C197	C	0.589576	0.594676	0.904966
	C198	C	0.388534	0.596306	0.093603
	C199	C	0.390805	0.397605	0.904228
	C200	C	0.086010	0.594728	0.396602
	C201	C	0.897625	0.595710	0.597208
	C202	C	0.086063	0.396326	0.598438
	C203	C	0.897094	0.397659	0.398160
	C204	C	0.890826	0.591096	0.097141
	C205	C	0.089679	0.400522	0.096994
	C206	C	0.088754	0.592050	0.898629
	C207	C	0.891755	0.401274	0.898170
	C208	C	0.092243	0.896304	0.592633
	C209	C	0.091986	0.095401	0.403783
	C210	C	0.890459	0.096661	0.593257
	C211	C	0.891479	0.898557	0.404411
	C212	C	0.585569	0.094398	0.898138
	C213	C	0.396369	0.096067	0.099431
	C214	C	0.585586	0.895641	0.099517
	C215	C	0.396668	0.897130	0.897875
	Zn216	Zn	0.491541	-0.004755	0.747488
	Zn217	Zn	0.490836	-0.004328	0.250156
	Zn218	Zn	0.741333	0.496082	-0.001455
	Zn219	Zn	0.238772	0.496413	-0.001947
	Zn220	Zn	-0.008025	0.746168	0.497187
	Zn221	Zn	-0.007798	0.245951	0.498389
	Zn222	Zn	-0.008883	0.496147	0.748599
	Zn223	Zn	-0.009326	0.495911	0.246888
	Zn224	Zn	0.490358	0.746244	-0.001049
	Zn225	Zn	0.490639	0.245837	-0.001288
	Zn226	Zn	0.739826	-0.002923	0.498979
	Zn227	Zn	0.241946	-0.004104	0.498788
	N228	N	0.406368	0.957858	0.676529
	N229	N	0.577149	0.032641	0.676926
	N230	N	0.576454	0.958729	0.321783
	N231	N	0.405357	0.032912	0.321496
	N232	N	0.670569	0.408823	0.961342
	N233	N	0.669694	0.582289	0.035806
	N234	N	0.310040	0.583213	0.961740
	N235	N	0.310884	0.410161	0.035165
	N236	N	0.954596	0.675071	0.411536
	N237	N	0.030093	0.672393	0.581224
	N238	N	0.953993	0.319367	0.582149
	N239	N	0.029195	0.318492	0.413050
	N240	N	0.954830	0.408928	0.677685
	N241	N	0.028159	0.582986	0.677848
	N242	N	0.954235	0.582908	0.318311
	N243	N	0.028096	0.409638	0.318297
	N244	N	0.404736	0.674353	0.961355
	N245	N	0.573947	0.672233	0.037215
	N246	N	0.576239	0.317328	0.961184
	N247	N	0.406837	0.319895	0.036508
	N248	N	0.670501	0.959873	0.411973
	N249	N	0.668346	0.033718	0.584433
	N250	N	0.313536	0.957992	0.584684
	N251	N	0.313867	0.033536	0.413798
	N252	N	0.904462	0.458669	0.176737
	N253	N	0.075082	0.533511	0.174890
	N254	N	0.075555	0.458650	0.820967
	N255	N	0.904210	0.534136	0.819301
	N256	N	0.171983	0.908780	0.461606
	N257	N	0.170691	0.082530	0.535377
	N258	N	0.810098	0.085066	0.462453
	N259	N	0.812769	0.911570	0.536044
	N260	N	0.453197	0.173070	0.914107
	N261	N	0.528538	0.173051	0.083894
	N262	N	0.452916	0.819366	0.083358
	N263	N	0.528564	0.817761	0.913861
	N264	N	0.454280	0.909204	0.178761
	N265	N	0.527217	0.082622	0.179412
	N266	N	0.454526	0.082528	0.818765
	N267	N	0.528347	0.908500	0.819163
	N268	N	0.906967	0.174057	0.460945
	N269	N	0.076658	0.173356	0.535829
	N270	N	0.077149	0.818267	0.460072
	N271	N	0.907568	0.819133	0.536063
	N272	N	0.168519	0.459195	0.911917
	N273	N	0.167023	0.533633	0.083123
	N274	N	0.814280	0.458074	0.082786
	N275	N	0.811332	0.533575	0.911764
	O276	O	0.462098	0.453352	0.465389
	H277	H	0.468755	0.443470	0.466575
	H278	H	0.453574	0.449297	0.460812
	O279	O	0.578618	0.452604	0.423830
	H280	H	0.582440	0.459026	0.423071
	H281	H	0.581798	0.459372	0.430780
	O282	O	0.442760	0.496007	0.549413
	H283	H	0.445306	0.495673	0.554798
	H284	H	0.454308	0.495678	0.541969
	O285	O	-0.005171	1.003951	0.975787
	H286	H	-0.010118	0.999917	0.984531
	H287	H	-0.009294	1.009494	0.977576
	O288	O	0.486636	0.511697	0.502916
	H289	H	0.489127	0.513310	0.509603
	H290	H	0.483670	0.507934	0.503991
	O291	O	-0.009505	-0.059147	0.986902
	H292	H	-0.008775	-0.055788	0.985345
	H293	H	-0.014331	-0.056212	0.983944
	O294	O	0.922029	0.944263	0.984584
	H295	H	0.915150	0.947787	0.984851
	H296	H	0.923534	0.943359	0.981294
	O297	O	0.494750	0.438348	0.492056
	H298	H	0.493567	0.438123	0.492268
	H299	H	0.487841	0.444964	0.483072
	O300	O	0.509397	0.551992	0.587267
	H301	H	0.513042	0.547128	0.582420
	H302	H	0.506205	0.545851	0.579362
	O303	O	0.527164	0.465778	0.518651
	H304	H	0.520011	0.475684	0.530310
	H305	H	0.531810	0.482075	0.521311
	O306	O	1.540524	0.570573	0.572168
	H307	H	1.529474	0.566730	0.563625
	H308	H	1.543504	0.583540	0.578732
	O309	O	0.532511	0.477594	0.511986
	H310	H	0.538754	0.482323	0.515526
	H311	H	0.536992	0.474646	0.519053
	O312	O	0.471491	0.571098	0.450863
	H313	H	0.473172	0.570187	0.454294
	H314	H	0.469185	0.564004	0.459916
	O315	O	0.975229	-0.027126	1.011218
	H316	H	0.974827	-0.033950	1.012360
	H317	H	0.974631	-0.030634	1.003563
	O318	O	-0.011532	0.022184	-0.001989
	H319	H	-0.016150	0.023971	-0.002007
	H320	H	-0.000067	0.017185	-0.004045
	O321	O	0.439771	0.475243	0.518939
	H322	H	0.439016	0.465788	0.521197
	H323	H	0.443315	0.479054	0.520194
	O324	O	0.973371	0.050120	-0.005225
	H325	H	0.965614	0.054710	-0.003730
	H326	H	0.976468	0.053917	-0.007328
	O327	O	0.998330	1.022145	-0.078013
	H328	H	1.002412	1.021880	-0.083031
	H329	H	0.995313	1.034412	-0.074586
	O330	O	0.568868	0.535671	0.576184
	H331	H	0.554708	0.546395	0.579982
	H332	H	0.573781	0.533545	0.579401
	O333	O	0.530465	0.507510	0.453952
	H334	H	0.526643	0.508447	0.445608
	H335	H	0.524430	0.499618	0.452137
