data_Molecule from HDF5

_cell_length_a		16.292988
_cell_length_b		16.276562
_cell_length_c		16.223891
_cell_angle_alpha	89.936160
_cell_angle_beta	89.924708
_cell_angle_gamma	90.077183
_symmetry_space_group_name_H-M	'P 1'
_symmetry_Int_Tables_number		1

loop_
	_symmetry_equiv_pos_as_xyz
	x,y,z

loop_
	_atom_site_label
	_atom_site_type_symbol
	_atom_site_fract_x
	_atom_site_fract_y
	_atom_site_fract_z
	H0	H	0.403313	0.835238	0.713547
	H1	H	0.597202	0.164348	0.712770
	H2	H	0.596461	0.835667	0.286913
	H3	H	0.403534	0.163977	0.287376
	H4	H	0.713207	0.403109	0.835266
	H5	H	0.713205	0.597721	0.164572
	H6	H	0.287608	0.596986	0.835124
	H7	H	0.286056	0.401582	0.164061
	H8	H	0.836522	0.714422	0.402284
	H9	H	0.163578	0.714441	0.597988
	H10	H	0.836681	0.285084	0.598911
	H11	H	0.163796	0.287514	0.402698
	H12	H	0.836172	0.402267	0.713878
	H13	H	0.164212	0.597684	0.713840
	H14	H	0.836376	0.597446	0.286643
	H15	H	0.163948	0.403153	0.286504
	H16	H	0.402082	0.713867	0.835587
	H17	H	0.597607	0.713370	0.164477
	H18	H	0.597183	0.287508	0.835277
	H19	H	0.401768	0.286306	0.163661
	H20	H	0.713667	0.836087	0.402557
	H21	H	0.714588	0.163613	0.598660
	H22	H	0.286219	0.835192	0.597983
	H23	H	0.286155	0.163140	0.401655
	H24	H	0.903191	0.335649	0.212884
	H25	H	0.097773	0.664417	0.213187
	H26	H	0.097660	0.335731	0.786603
	H27	H	0.903470	0.664078	0.786987
	H28	H	0.213178	0.902175	0.335782
	H29	H	0.214099	0.098059	0.664133
	H30	H	0.786656	0.099037	0.336022
	H31	H	0.784397	0.900751	0.663477
	H32	H	0.336628	0.214866	0.901556
	H33	H	0.663546	0.213433	0.096452
	H34	H	0.336197	0.785933	0.097219
	H35	H	0.663954	0.786417	0.902470
	H36	H	0.335296	0.902747	0.212948
	H37	H	0.663193	0.097490	0.213472
	H38	H	0.336019	0.097632	0.787014
	H39	H	0.663854	0.902595	0.786331
	H40	H	0.903130	0.213392	0.335991
	H41	H	0.097034	0.213323	0.664793
	H42	H	0.097441	0.787467	0.335621
	H43	H	0.902141	0.786323	0.664582
	H44	H	0.214694	0.336517	0.901272
	H45	H	0.214688	0.663671	0.096947
	H46	H	0.785339	0.336176	0.098499
	H47	H	0.786540	0.664069	0.901964
	H48	H	0.410886	0.115844	0.597832
	H49	H	0.596876	0.882644	0.591686
	H50	H	0.601646	0.120194	0.403058
	H51	H	0.411182	0.885612	0.411133
	H52	H	0.594765	0.422708	0.112990
	H53	H	0.593133	0.600090	0.880997
	H54	H	0.404617	0.585643	0.115970
	H55	H	0.401550	0.394113	0.877087
	H56	H	0.118172	0.590393	0.399636
	H57	H	0.882542	0.596819	0.592704
	H58	H	0.114233	0.414780	0.593390
	H59	H	0.883806	0.416317	0.398704
	H60	H	0.120214	0.402724	0.600942
	H61	H	0.884873	0.591533	0.590038
	H62	H	0.118949	0.601273	0.406578
	H63	H	0.878440	0.394970	0.401323
	H64	H	0.413586	0.594874	0.115255
	H65	H	0.599703	0.589622	0.882388
	H66	H	0.579281	0.398685	0.115581
	H67	H	0.398290	0.418828	0.883533
	H68	H	0.587136	0.116392	0.401000
	H69	H	0.591819	0.882442	0.597202
	H70	H	0.406703	0.114168	0.587249
	H71	H	0.399958	0.881561	0.409535
	H72	H	0.909567	0.615839	0.093336
	H73	H	0.092876	0.385168	0.087107
	H74	H	0.097342	0.618574	0.903742
	H75	H	0.901057	0.382634	0.911839
	H76	H	0.082561	0.897740	0.617060
	H77	H	0.094022	0.090385	0.383842
	H78	H	0.897255	0.093635	0.620165
	H79	H	0.913125	0.902585	0.383297
	H80	H	0.620946	0.094235	0.892412
	H81	H	0.380941	0.095596	0.097521
	H82	H	0.617435	0.903677	0.095447
	H83	H	0.382316	0.902707	0.907641
	H84	H	0.615680	0.906719	0.090487
	H85	H	0.382825	0.096125	0.090603
	H86	H	0.618177	0.105306	0.913660
	H87	H	0.385649	0.908332	0.910209
	H88	H	0.910436	0.084530	0.614325
	H89	H	0.090636	0.096436	0.383214
	H90	H	0.105567	0.901463	0.622517
	H91	H	0.899562	0.903735	0.379910
	H92	H	0.090072	0.616648	0.904432
	H93	H	0.100555	0.380668	0.095215
	H94	H	0.903516	0.616915	0.090422
	H95	H	0.904773	0.380829	0.901209
	H96	H	0.399883	0.118797	0.595822
	H97	H	0.589864	0.884910	0.590958
	H98	H	0.593625	0.114177	0.414661
	H99	H	0.407096	0.881074	0.400227
	H100	H	0.606964	0.399147	0.123710
	H101	H	0.588140	0.589554	0.885288
	H102	H	0.401839	0.597793	0.119709
	H103	H	0.421191	0.407441	0.886454
	H104	H	0.114198	0.590465	0.412052
	H105	H	0.882801	0.591851	0.597048
	H106	H	0.116452	0.401280	0.586465
	H107	H	0.885922	0.406037	0.418546
	H108	H	0.904688	0.619127	0.096832
	H109	H	0.088732	0.382596	0.098156
	H110	H	0.094866	0.615353	0.910098
	H111	H	0.911492	0.385413	0.908530
	H112	H	0.092866	0.919486	0.614040
	H113	H	0.097329	0.095845	0.380857
	H114	H	0.912213	0.101087	0.618348
	H115	H	0.906591	0.914137	0.384678
	H116	H	0.611648	0.082799	0.911363
	H117	H	0.383588	0.090480	0.094217
	H118	H	0.616454	0.908988	0.095348
	H119	H	0.382718	0.908685	0.903418
	C120	C	0.377906	0.007699	0.621863
	C121	C	0.621429	0.991771	0.621945
	C122	C	0.621485	0.008459	0.378561
	C123	C	0.378228	0.991000	0.378647
	C124	C	0.621729	0.378851	0.008506
	C125	C	0.621848	0.621606	0.991397
	C126	C	0.378448	0.621328	0.008446
	C127	C	0.378380	0.378362	0.991141
	C128	C	0.008863	0.622149	0.378182
	C129	C	0.991674	0.621731	0.621470
	C130	C	0.008566	0.378068	0.621947
	C131	C	0.991302	0.378227	0.378239
	C132	C	0.878224	0.508588	0.121498
	C133	C	0.121936	0.491635	0.121454
	C134	C	0.121749	0.508033	0.878496
	C135	C	0.878188	0.491300	0.878617
	C136	C	0.121522	0.878642	0.508906
	C137	C	0.121908	0.121779	0.491502
	C138	C	0.878781	0.121213	0.508730
	C139	C	0.878112	0.878442	0.491269
	C140	C	0.508701	0.122181	0.878081
	C141	C	0.490925	0.121661	0.121459
	C142	C	0.508347	0.878269	0.121760
	C143	C	0.491856	0.878697	0.878791
	C144	C	0.381721	0.884252	0.676119
	C145	C	0.618180	0.115235	0.675921
	C146	C	0.617773	0.884587	0.324445
	C147	C	0.382468	0.114944	0.324557
	C148	C	0.675782	0.382228	0.884420
	C149	C	0.675857	0.618649	0.115469
	C150	C	0.324221	0.618517	0.884398
	C151	C	0.323768	0.381038	0.114808
	C152	C	0.885296	0.676395	0.381776
	C153	C	0.114800	0.676821	0.618889
	C154	C	0.885357	0.323470	0.619079
	C155	C	0.114946	0.324488	0.381725
	C156	C	0.885105	0.381329	0.676411
	C157	C	0.115275	0.618209	0.675729
	C158	C	0.885180	0.618397	0.324297
	C159	C	0.114708	0.382011	0.323985
	C160	C	0.381566	0.676156	0.884623
	C161	C	0.618390	0.675889	0.115423
	C162	C	0.618373	0.324522	0.884647
	C163	C	0.381448	0.323927	0.114991
	C164	C	0.676093	0.884914	0.381548
	C165	C	0.676536	0.114792	0.619068
	C166	C	0.323587	0.884280	0.618685
	C167	C	0.323820	0.114317	0.380936
	C168	C	0.881926	0.384760	0.175415
	C169	C	0.118529	0.615286	0.175466
	C170	C	0.118520	0.384730	0.824093
	C171	C	0.882357	0.615131	0.824299
	C172	C	0.175830	0.881565	0.384945
	C173	C	0.176323	0.118564	0.615243
	C174	C	0.824626	0.118650	0.384855
	C175	C	0.822794	0.880721	0.614822
	C176	C	0.385446	0.176878	0.881035
	C177	C	0.614632	0.175765	0.117550
	C178	C	0.384697	0.823933	0.118110
	C179	C	0.615035	0.824025	0.881508
	C180	C	0.384464	0.881625	0.175769
	C181	C	0.614426	0.118330	0.175645
	C182	C	0.384983	0.118651	0.824203
	C183	C	0.615098	0.881813	0.824021
	C184	C	0.882452	0.175618	0.384885
	C185	C	0.118230	0.175809	0.615577
	C186	C	0.118608	0.824310	0.384913
	C187	C	0.880997	0.823726	0.615226
	C188	C	0.176664	0.385138	0.881089
	C189	C	0.176729	0.614982	0.118153
	C190	C	0.823499	0.384927	0.118657
	C191	C	0.824156	0.615123	0.881253
	C192	C	0.399441	0.094170	0.600033
	C193	C	0.599317	0.905594	0.599802
	C194	C	0.600458	0.094476	0.400073
	C195	C	0.399804	0.904964	0.400482
	C196	C	0.600013	0.400396	0.095288
	C197	C	0.600132	0.599628	0.905091
	C198	C	0.400262	0.599316	0.094704
	C199	C	0.400437	0.400628	0.904667
	C200	C	0.095029	0.600561	0.399717
	C201	C	0.905675	0.599859	0.599749
	C202	C	0.094767	0.399768	0.600016
	C203	C	0.904951	0.399279	0.399824
	C204	C	0.899533	0.594871	0.099892
	C205	C	0.100481	0.405105	0.100014
	C206	C	0.100340	0.594554	0.899895
	C207	C	0.899606	0.405336	0.900762
	C208	C	0.100084	0.899879	0.595541
	C209	C	0.100292	0.100598	0.404953
	C210	C	0.900189	0.099313	0.595193
	C211	C	0.899923	0.900303	0.404965
	C212	C	0.594783	0.100692	0.899364
	C213	C	0.404609	0.100258	0.100284
	C214	C	0.594291	0.900010	0.100147
	C215	C	0.405552	0.900226	0.900677
	Zn216	Zn	0.499926	0.000065	0.750095
	Zn217	Zn	0.499306	-0.000346	0.250288
	Zn218	Zn	0.749787	0.500345	0.000255
	Zn219	Zn	0.250521	0.499811	-0.000368
	Zn220	Zn	0.000288	0.750693	0.499881
	Zn221	Zn	-0.000141	0.249984	0.500030
	Zn222	Zn	0.000051	0.499787	0.750088
	Zn223	Zn	-0.000112	0.499956	0.249993
	Zn224	Zn	0.500258	0.749564	0.000015
	Zn225	Zn	0.499942	0.250723	-0.000127
	Zn226	Zn	0.750307	0.000161	0.499836
	Zn227	Zn	0.249336	-0.000391	0.499763
	N228	N	0.414612	0.962001	0.678297
	N229	N	0.584753	0.037610	0.677800
	N230	N	0.584695	0.962262	0.322406
	N231	N	0.415561	0.037186	0.323051
	N232	N	0.677895	0.415279	0.962548
	N233	N	0.678146	0.585659	0.037389
	N234	N	0.322360	0.585000	0.962332
	N235	N	0.321958	0.414201	0.036760
	N236	N	0.963060	0.678638	0.414508
	N237	N	0.037262	0.678757	0.585779
	N238	N	0.963094	0.321461	0.585759
	N239	N	0.037136	0.322008	0.414671
	N240	N	0.962811	0.414508	0.678240
	N241	N	0.037694	0.584569	0.677657
	N242	N	0.962897	0.585396	0.321818
	N243	N	0.036825	0.414310	0.321613
	N244	N	0.414560	0.678030	0.962730
	N245	N	0.585598	0.677781	0.037406
	N246	N	0.585099	0.322751	0.962677
	N247	N	0.414775	0.322186	0.037068
	N248	N	0.678359	0.962701	0.414617
	N249	N	0.678566	0.037081	0.586093
	N250	N	0.321293	0.962221	0.585571
	N251	N	0.321318	0.036612	0.414065
	N252	N	0.915377	0.462400	0.177127
	N253	N	0.085232	0.537536	0.177604
	N254	N	0.085082	0.462262	0.822547
	N255	N	0.915161	0.537240	0.822560
	N256	N	0.177617	0.914760	0.462962
	N257	N	0.178463	0.085540	0.537202
	N258	N	0.822553	0.085419	0.462834
	N259	N	0.820955	0.913965	0.536967
	N260	N	0.463256	0.179173	0.913923
	N261	N	0.536955	0.177944	0.084547
	N262	N	0.462643	0.821515	0.085548
	N263	N	0.537377	0.822097	0.915013
	N264	N	0.462248	0.914679	0.178249
	N265	N	0.536645	0.085442	0.178190
	N266	N	0.462605	0.085450	0.822056
	N267	N	0.537576	0.915232	0.822482
	N268	N	0.915514	0.177323	0.462817
	N269	N	0.085185	0.177956	0.537578
	N270	N	0.085480	0.822519	0.462879
	N271	N	0.914697	0.822248	0.537400
	N272	N	0.179005	0.463037	0.913793
	N273	N	0.178768	0.537134	0.085299
	N274	N	0.821215	0.462853	0.085832
	N275	N	0.821250	0.537278	0.914240
