data_Molecule from HDF5

_cell_length_a		16.438301
_cell_length_b		16.132221
_cell_length_c		16.342589
_cell_angle_alpha	90.109892
_cell_angle_beta	90.044202
_cell_angle_gamma	89.693708
_symmetry_space_group_name_H-M	'P 1'
_symmetry_Int_Tables_number		1

loop_
	_symmetry_equiv_pos_as_xyz
	x,y,z

loop_
	_atom_site_label
	_atom_site_type_symbol
	_atom_site_fract_x
	_atom_site_fract_y
	_atom_site_fract_z
	H0	H	0.381855	0.826703	0.705323
	H1	H	0.581188	0.154166	0.703623
	H2	H	0.586874	0.828318	0.269817
	H3	H	0.381072	0.154510	0.271646
	H4	H	0.703857	0.384470	0.827374
	H5	H	0.703721	0.594545	0.148199
	H6	H	0.262849	0.595042	0.828155
	H7	H	0.265325	0.384625	0.148584
	H8	H	0.822631	0.707276	0.388026
	H9	H	0.144833	0.707704	0.590157
	H10	H	0.822902	0.274274	0.589931
	H11	H	0.144951	0.271614	0.388953
	H12	H	0.824355	0.386083	0.710055
	H13	H	0.144301	0.593413	0.708928
	H14	H	0.824357	0.595357	0.268952
	H15	H	0.144054	0.384083	0.268692
	H16	H	0.384208	0.705614	0.825087
	H17	H	0.583497	0.707423	0.150117
	H18	H	0.584463	0.273036	0.825628
	H19	H	0.387391	0.276729	0.151159
	H20	H	0.701245	0.828084	0.384920
	H21	H	0.701692	0.152070	0.593597
	H22	H	0.267426	0.826478	0.589154
	H23	H	0.263161	0.152767	0.384606
	H24	H	0.882010	0.327381	0.206415
	H25	H	0.084341	0.653480	0.205585
	H26	H	0.087760	0.326916	0.771329
	H27	H	0.883039	0.653277	0.771382
	H28	H	0.205433	0.881306	0.328321
	H29	H	0.203006	0.094222	0.648888
	H30	H	0.760493	0.097162	0.329350
	H31	H	0.763933	0.884318	0.648172
	H32	H	0.323097	0.208608	0.889813
	H33	H	0.646504	0.205278	0.087640
	H34	H	0.323574	0.774762	0.088174
	H35	H	0.644470	0.771582	0.885681
	H36	H	0.324804	0.886824	0.208347
	H37	H	0.642632	0.097200	0.210484
	H38	H	0.323195	0.096152	0.769981
	H39	H	0.642739	0.885276	0.767590
	H40	H	0.880066	0.209149	0.327582
	H41	H	0.082404	0.205583	0.650717
	H42	H	0.085267	0.770772	0.326379
	H43	H	0.886430	0.775139	0.650597
	H44	H	0.203091	0.326893	0.886126
	H45	H	0.200554	0.652865	0.091867
	H46	H	0.765919	0.327483	0.091591
	H47	H	0.763495	0.651595	0.882596
	H48	H	0.396922	0.107468	0.587525
	H49	H	0.577953	0.870468	0.584170
	H50	H	0.572627	0.105806	0.403690
	H51	H	0.395949	0.873651	0.393881
	H52	H	0.576447	0.398521	0.102815
	H53	H	0.581421	0.575694	0.872304
	H54	H	0.395248	0.591231	0.104675
	H55	H	0.394818	0.403944	0.875510
	H56	H	0.097794	0.572808	0.393228
	H57	H	0.874402	0.573051	0.574829
	H58	H	0.099393	0.396261	0.581910
	H59	H	0.870174	0.399438	0.397720
	H60	H	0.097475	0.398437	0.576885
	H61	H	0.867040	0.579443	0.590584
	H62	H	0.100912	0.585535	0.394249
	H63	H	0.870408	0.402703	0.396092
	H64	H	0.381881	0.579107	0.105403
	H65	H	0.569806	0.577018	0.876171
	H66	H	0.579803	0.398392	0.104409
	H67	H	0.394952	0.397779	0.872723
	H68	H	0.575509	0.107853	0.397882
	H69	H	0.565470	0.876198	0.578125
	H70	H	0.395688	0.102102	0.569489
	H71	H	0.396800	0.877021	0.401025
	H72	H	0.890642	0.606292	0.075936
	H73	H	0.072539	0.374602	0.079202
	H74	H	0.068132	0.607352	0.890739
	H75	H	0.893573	0.374960	0.903938
	H76	H	0.073512	0.903612	0.600185
	H77	H	0.077054	0.083931	0.371502
	H78	H	0.886119	0.081993	0.605414
	H79	H	0.888187	0.906274	0.373410
	H80	H	0.597423	0.076692	0.894790
	H81	H	0.371885	0.079061	0.079189
	H82	H	0.592458	0.906578	0.066247
	H83	H	0.368314	0.899832	0.893815
	H84	H	0.599265	0.909814	0.090171
	H85	H	0.366862	0.084821	0.084734
	H86	H	0.599707	0.081911	0.893141
	H87	H	0.368741	0.898395	0.896285
	H88	H	0.891178	0.075565	0.601699
	H89	H	0.076640	0.072913	0.375058
	H90	H	0.074093	0.894997	0.603879
	H91	H	0.897918	0.902190	0.375852
	H92	H	0.070957	0.602168	0.908660
	H93	H	0.078360	0.373786	0.075432
	H94	H	0.893871	0.606667	0.081075
	H95	H	0.893186	0.373663	0.896423
	H96	H	0.380573	0.109856	0.578041
	H97	H	0.578448	0.875012	0.570917
	H98	H	0.568829	0.106165	0.398120
	H99	H	0.390624	0.874073	0.399508
	H100	H	0.578318	0.401602	0.102824
	H101	H	0.575405	0.586190	0.871818
	H102	H	0.398446	0.574393	0.099054
	H103	H	0.389456	0.401193	0.872669
	H104	H	0.096769	0.578853	0.403930
	H105	H	0.869071	0.590664	0.576883
	H106	H	0.096831	0.402072	0.581761
	H107	H	0.868778	0.399845	0.394808
	H108	H	0.896776	0.604188	0.075807
	H109	H	0.078229	0.370987	0.082274
	H110	H	0.084648	0.609923	0.898395
	H111	H	0.899915	0.375155	0.898820
	H112	H	0.080885	0.901221	0.604212
	H113	H	0.067345	0.079444	0.375452
	H114	H	0.894772	0.083119	0.603213
	H115	H	0.890312	0.895554	0.371381
	H116	H	0.597656	0.080861	0.898998
	H117	H	0.369949	0.086626	0.075845
	H118	H	0.602258	0.888113	0.079482
	H119	H	0.369297	0.901074	0.895710
	C120	C	0.361546	-0.001127	0.609124
	C121	C	0.603807	0.981635	0.609202
	C122	C	0.603930	-0.000645	0.368065
	C123	C	0.362484	0.982201	0.366940
	C124	C	0.607796	0.367873	-0.003450
	C125	C	0.605914	0.611128	0.979703
	C126	C	0.361934	0.612289	-0.003453
	C127	C	0.363880	0.369996	0.980188
	C128	C	-0.007648	0.610837	0.367037
	C129	C	0.976162	0.611821	0.611068
	C130	C	-0.007808	0.368446	0.611251
	C131	C	0.975433	0.367879	0.366029
	C132	C	0.863181	0.498350	0.108942
	C133	C	0.105892	0.481155	0.110175
	C134	C	0.105526	0.498527	0.868071
	C135	C	0.863841	0.481615	0.867866
	C136	C	0.106152	0.867535	0.496259
	C137	C	0.104065	0.110025	0.480161
	C138	C	0.860334	0.111584	0.497260
	C139	C	0.861974	0.869275	0.479774
	C140	C	0.492492	0.112356	0.866039
	C141	C	0.475959	0.113259	0.110248
	C142	C	0.492531	0.870186	0.109394
	C143	C	0.474952	0.868264	0.864794
	C144	C	0.362468	0.875695	0.666348
	C145	C	0.602050	0.104812	0.665973
	C146	C	0.605375	0.877246	0.309019
	C147	C	0.361549	0.105058	0.309704
	C148	C	0.664959	0.366288	0.875513
	C149	C	0.664194	0.612993	0.100331
	C150	C	0.303181	0.613230	0.875696
	C151	C	0.305557	0.367788	0.100920
	C152	C	0.871281	0.668984	0.367680
	C153	C	0.096853	0.669230	0.610254
	C154	C	0.871033	0.312321	0.610185
	C155	C	0.096390	0.309407	0.367854
	C156	C	0.872135	0.367862	0.670065
	C157	C	0.096440	0.612248	0.669361
	C158	C	0.872145	0.613065	0.308542
	C159	C	0.095997	0.365733	0.308208
	C160	C	0.363748	0.668381	0.874281
	C161	C	0.604245	0.668991	0.101382
	C162	C	0.605385	0.310796	0.874573
	C163	C	0.366442	0.313854	0.102316
	C164	C	0.662584	0.876947	0.366222
	C165	C	0.661678	0.103797	0.610802
	C166	C	0.305631	0.875488	0.608627
	C167	C	0.302883	0.104316	0.366033
	C168	C	0.862564	0.376127	0.167471
	C169	C	0.104633	0.604186	0.167586
	C170	C	0.106417	0.375787	0.810329
	C171	C	0.863127	0.604225	0.809762
	C172	C	0.165075	0.864408	0.375981
	C173	C	0.163164	0.112205	0.600862
	C174	C	0.801138	0.114191	0.376761
	C175	C	0.804072	0.866822	0.600464
	C176	C	0.371195	0.170187	0.868611
	C177	C	0.597524	0.168563	0.108766
	C178	C	0.371817	0.812833	0.108361
	C179	C	0.596044	0.810311	0.865732
	C180	C	0.372381	0.869001	0.168027
	C181	C	0.595561	0.114466	0.169717
	C182	C	0.371378	0.114081	0.809103
	C183	C	0.595075	0.866882	0.806885
	C184	C	0.860504	0.170322	0.376163
	C185	C	0.103240	0.167653	0.601986
	C186	C	0.105265	0.809089	0.375086
	C187	C	0.864973	0.812467	0.601648
	C188	C	0.163874	0.375646	0.867381
	C189	C	0.162408	0.604067	0.110905
	C190	C	0.804977	0.376247	0.109963
	C191	C	0.804095	0.603482	0.865235
	C192	C	0.384451	0.084203	0.585372
	C193	C	0.580591	0.896153	0.584813
	C194	C	0.579474	0.084525	0.392832
	C195	C	0.387240	0.897008	0.391099
	C196	C	0.584804	0.392145	0.081508
	C197	C	0.582311	0.586731	0.895161
	C198	C	0.385200	0.588566	0.080942
	C199	C	0.386491	0.394009	0.895687
	C200	C	0.076472	0.586121	0.390414
	C201	C	0.892006	0.587883	0.587586
	C202	C	0.076052	0.391990	0.587221
	C203	C	0.891512	0.393273	0.389323
	C204	C	0.887048	0.583690	0.084768
	C205	C	0.083009	0.395494	0.086090
	C206	C	0.081517	0.584127	0.892488
	C207	C	0.888529	0.396578	0.892594
	C208	C	0.082768	0.892645	0.580806
	C209	C	0.080360	0.085826	0.396005
	C210	C	0.883796	0.087370	0.581433
	C211	C	0.885400	0.894262	0.395386
	C212	C	0.576485	0.087217	0.888886
	C213	C	0.391693	0.090152	0.086819
	C214	C	0.576219	0.894529	0.085645
	C215	C	0.390640	0.892672	0.888420
	Zn216	Zn	0.482822	-0.009388	0.736802
	Zn217	Zn	0.484039	-0.008310	0.239028
	Zn218	Zn	0.735104	0.489770	-0.012453
	Zn219	Zn	0.233185	0.489865	-0.010907
	Zn220	Zn	-0.016072	0.740327	0.488065
	Zn221	Zn	-0.017056	0.239786	0.489230
	Zn222	Zn	-0.015115	0.489745	0.740574
	Zn223	Zn	-0.015641	0.490209	0.237594
	Zn224	Zn	0.484269	0.740603	-0.012411
	Zn225	Zn	0.484897	0.241015	-0.011579
	Zn226	Zn	0.732113	-0.010332	0.488517
	Zn227	Zn	0.233951	-0.010495	0.487700
	N228	N	0.396374	0.953455	0.667022
	N229	N	0.566897	0.027852	0.665015
	N230	N	0.569560	0.954375	0.310010
	N231	N	0.397685	0.028142	0.310228
	N232	N	0.666478	0.400896	0.952504
	N233	N	0.665103	0.578011	0.023682
	N234	N	0.301830	0.578974	0.952656
	N235	N	0.303980	0.402365	0.024090
	N236	N	0.947052	0.667854	0.403311
	N237	N	0.021019	0.669294	0.574891
	N238	N	0.946397	0.312848	0.574074
	N239	N	0.020288	0.310483	0.403015
	N240	N	0.948630	0.401954	0.670764
	N241	N	0.020369	0.577528	0.670025
	N242	N	0.948465	0.577762	0.307920
	N243	N	0.019862	0.401024	0.306750
	N244	N	0.399597	0.667835	0.950315
	N245	N	0.568959	0.668170	0.025154
	N246	N	0.570651	0.311568	0.950951
	N247	N	0.402225	0.315068	0.026294
	N248	N	0.661880	0.954007	0.402164
	N249	N	0.662910	0.026022	0.576266
	N250	N	0.304682	0.953041	0.573862
	N251	N	0.303297	0.026647	0.400818
	N252	N	0.898237	0.453010	0.166878
	N253	N	0.070094	0.526677	0.167102
	N254	N	0.070948	0.453030	0.810778
	N255	N	0.899610	0.527514	0.811396
	N256	N	0.165607	0.900015	0.452395
	N257	N	0.163884	0.077224	0.524163
	N258	N	0.800926	0.078403	0.452926
	N259	N	0.802167	0.901390	0.523779
	N260	N	0.447425	0.169433	0.903266
	N261	N	0.522079	0.167915	0.072430
	N262	N	0.447473	0.813338	0.072546
	N263	N	0.520173	0.811077	0.901042
	N264	N	0.448452	0.903922	0.168725
	N265	N	0.518889	0.080876	0.170730
	N266	N	0.447696	0.078773	0.807410
	N267	N	0.518788	0.902151	0.806361
	N268	N	0.896646	0.169071	0.452140
	N269	N	0.067154	0.166761	0.526044
	N270	N	0.069435	0.810911	0.451029
	N271	N	0.900502	0.813906	0.525480
	N272	N	0.163620	0.453230	0.902732
	N273	N	0.163477	0.526476	0.076096
	N274	N	0.805297	0.453384	0.074396
	N275	N	0.804199	0.526025	0.900290
	O276	O	0.342286	0.653027	0.379989
	H277	H	0.333107	0.674012	0.366590
	H278	H	0.336343	0.658196	0.362287
	O279	O	0.837792	0.974810	1.148986
	H280	H	0.865750	0.973974	1.153718
	H281	H	0.842444	0.971345	1.144292
	O282	O	1.005151	0.177411	1.085171
	H283	H	0.999887	0.169978	1.100306
	H284	H	1.009258	0.183364	1.058020
	O285	O	1.142559	-0.152019	1.037802
	H286	H	1.141596	-0.144790	1.049053
	H287	H	1.148660	-0.152174	1.045067
	O288	O	1.090412	0.955981	0.899963
	H289	H	1.090850	0.956005	0.880901
	H290	H	1.100227	0.945976	0.903726
	O291	O	-0.209426	1.114672	0.054582
	H292	H	-0.220366	1.125169	0.053313
	H293	H	-0.194072	1.106443	0.074753
	O294	O	0.497091	0.399287	0.427499
	H295	H	0.495178	0.388919	0.433414
	H296	H	0.496886	0.408368	0.432641
	O297	O	1.132127	0.883201	0.859447
	H298	H	1.135471	0.877806	0.877754
	H299	H	1.132425	0.889605	0.851139
	O300	O	0.366162	0.533341	0.598952
	H301	H	0.383724	0.537089	0.600217
	H302	H	0.365172	0.538052	0.594194
	O303	O	0.413232	0.359853	0.508432
	H304	H	0.422202	0.347162	0.521743
	H305	H	0.409052	0.349418	0.512277
	O306	O	0.637081	0.457209	0.437450
	H307	H	0.632029	0.458643	0.426570
	H308	H	0.638699	0.450053	0.441662
	O309	O	0.516784	0.457388	0.522787
	H310	H	0.524648	0.459846	0.517125
	H311	H	0.519658	0.464881	0.511338
	O312	O	-0.171495	-0.164577	-0.029752
	H313	H	-0.178430	-0.151386	-0.025894
	H314	H	-0.187921	-0.171005	-0.033956
	O315	O	0.315778	0.631460	0.351298
	H316	H	0.304379	0.616913	0.334109
	H317	H	0.305959	0.620139	0.367963
	O318	O	0.004278	0.929511	1.135881
	H319	H	0.013513	0.926818	1.137312
	H320	H	0.016530	0.928810	1.137512
	O321	O	0.557034	0.553833	0.578609
	H322	H	0.563784	0.554112	0.575956
	H323	H	0.567314	0.541722	0.582351
	O324	O	-0.576774	1.493572	-0.367815
	H325	H	-0.573707	1.501521	-0.360359
	H326	H	-0.563319	1.504184	-0.365342
	O327	O	0.554823	0.463837	0.512955
	H328	H	0.536772	0.471825	0.521554
	H329	H	0.549735	0.469926	0.505519
	O330	O	0.086677	0.045097	1.076787
	H331	H	0.091927	0.055162	1.076631
	H332	H	0.089703	0.046859	1.088967
	O333	O	-0.382178	0.446477	1.488565
	H334	H	-0.382437	0.423563	1.479892
	H335	H	-0.379738	0.437000	1.499036
	O336	O	0.519774	0.449099	0.561173
	H337	H	0.529786	0.457801	0.556400
	H338	H	0.517960	0.449452	0.550240
	O339	O	0.907453	-0.040495	-0.089837
	H340	H	0.899867	-0.048480	-0.074507
	H341	H	0.917325	-0.039483	-0.089756
	O342	O	0.082329	0.184325	0.177216
	H343	H	0.074304	0.190242	0.171722
	H344	H	0.079723	0.192384	0.175003
	O345	O	1.037117	-0.052328	0.901170
	H346	H	1.028004	-0.059181	0.915057
	H347	H	1.026613	-0.050487	0.884539
	O348	O	0.928189	1.155236	-0.169278
	H349	H	0.922011	1.155319	-0.181815
	H350	H	0.904910	1.156406	-0.157333
	O351	O	0.615518	0.636003	0.463997
	H352	H	0.619100	0.624369	0.473458
	H353	H	0.614945	0.649179	0.462071
	O354	O	1.093878	0.143837	0.922940
	H355	H	1.106074	0.136844	0.903240
	H356	H	1.086322	0.142961	0.916749
	O357	O	-0.114332	-0.112714	0.882731
	H358	H	-0.106453	-0.110167	0.893619
	H359	H	-0.121101	-0.091111	0.876282
	O360	O	0.469926	0.578162	0.631768
	H361	H	0.480346	0.579060	0.636963
	H362	H	0.473084	0.590269	0.644253
	O363	O	0.154875	0.946582	0.928982
	H364	H	0.159299	0.949214	0.914362
	H365	H	0.137027	0.921545	0.929599
	O366	O	0.885772	1.152850	-0.182659
	H367	H	0.874400	1.146607	-0.191710
	H368	H	0.877650	1.156072	-0.160683
	O369	O	0.356211	0.526864	0.559755
	H370	H	0.359692	0.526149	0.561744
	H371	H	0.355457	0.531040	0.565248
	O372	O	0.390751	0.563678	0.343172
	H373	H	0.401637	0.561838	0.342524
	H374	H	0.388014	0.545316	0.330943
	O375	O	0.370639	0.475298	0.586306
	H376	H	0.354495	0.494312	0.598472
	H377	H	0.377987	0.474598	0.602830
	O378	O	0.838658	1.050190	-0.003296
	H379	H	0.836685	1.050553	0.004728
	H380	H	0.840190	1.035725	0.002304
	O381	O	1.071763	-0.137556	-0.029666
	H382	H	1.063572	-0.149902	-0.031097
	H383	H	1.079190	-0.143429	-0.039239
	O384	O	1.527422	0.515085	0.426291
	H385	H	1.517603	0.523399	0.448882
	H386	H	1.529142	0.516649	0.424422
	O387	O	-0.002732	-0.136105	0.167307
	H388	H	0.011128	-0.145203	0.179854
	H389	H	-0.015506	-0.122445	0.165674
	O390	O	0.410789	1.440730	0.441180
	H391	H	0.411263	1.436743	0.445778
	H392	H	0.409751	1.431096	0.445189
	O393	O	0.817841	0.992050	0.789611
	H394	H	0.810739	0.996991	0.791947
	H395	H	0.817480	0.993183	0.786680
	O396	O	0.545624	0.432094	0.391546
	H397	H	0.546965	0.448765	0.388686
	H398	H	0.550141	0.416602	0.390724
	O399	O	0.556486	0.487135	1.429799
	H400	H	0.555015	0.482075	1.418834
	H401	H	0.559713	0.488196	1.424750
	O402	O	0.472099	0.406349	0.387096
	H403	H	0.463843	0.413865	0.408609
	H404	H	0.455549	0.409166	0.381895
	O405	O	0.800182	0.848879	0.112281
	H406	H	0.803883	0.872763	0.126196
	H407	H	0.799701	0.836453	0.108892
	O408	O	0.932853	1.079723	0.032026
	H409	H	0.931395	1.066479	0.028434
	H410	H	0.926594	1.073395	0.027914
	O411	O	1.002788	-0.196617	0.897507
	H412	H	0.997670	-0.189550	0.904051
	H413	H	1.000562	-0.195350	0.883772
	O414	O	1.184576	0.077159	0.180726
	H415	H	1.208429	0.059793	0.199621
	H416	H	1.176465	0.102308	0.168677
	O417	O	0.591793	0.353391	0.442071
	H418	H	0.585717	0.366475	0.426194
	H419	H	0.590100	0.341794	0.440512
