data_Molecule from HDF5

_cell_length_a		16.241587
_cell_length_b		16.249923
_cell_length_c		16.270766
_cell_angle_alpha	89.881161
_cell_angle_beta	90.019748
_cell_angle_gamma	89.981557
_symmetry_space_group_name_H-M	'P 1'
_symmetry_Int_Tables_number		1

loop_
	_symmetry_equiv_pos_as_xyz
	x,y,z

loop_
	_atom_site_label
	_atom_site_type_symbol
	_atom_site_fract_x
	_atom_site_fract_y
	_atom_site_fract_z
	H0	H	0.405127	0.843586	0.723082
	H1	H	0.601020	0.172466	0.724035
	H2	H	0.603990	0.844961	0.295081
	H3	H	0.404109	0.171649	0.294390
	H4	H	0.716905	0.410402	0.844059
	H5	H	0.717185	0.607597	0.171377
	H6	H	0.286785	0.607926	0.845462
	H7	H	0.288454	0.410545	0.173270
	H8	H	0.838018	0.724178	0.409883
	H9	H	0.166746	0.722379	0.605520
	H10	H	0.839111	0.293277	0.608055
	H11	H	0.166812	0.295995	0.410691
	H12	H	0.837614	0.410289	0.722595
	H13	H	0.165858	0.608180	0.723889
	H14	H	0.838158	0.608390	0.294712
	H15	H	0.166061	0.409937	0.293702
	H16	H	0.402230	0.725355	0.845100
	H17	H	0.601472	0.722671	0.172218
	H18	H	0.600939	0.293144	0.844621
	H19	H	0.402958	0.293579	0.173152
	H20	H	0.716206	0.844458	0.412444
	H21	H	0.717821	0.172129	0.609435
	H22	H	0.288944	0.843980	0.607908
	H23	H	0.290085	0.172511	0.411501
	H24	H	0.902656	0.345409	0.224040
	H25	H	0.100782	0.672469	0.222350
	H26	H	0.102054	0.345187	0.794245
	H27	H	0.903329	0.673203	0.794253
	H28	H	0.218442	0.909391	0.345185
	H29	H	0.215350	0.104942	0.673648
	H30	H	0.786971	0.108628	0.344879
	H31	H	0.789286	0.908856	0.672522
	H32	H	0.337601	0.222157	0.911451
	H33	H	0.667425	0.222984	0.107721
	H34	H	0.339041	0.794746	0.107188
	H35	H	0.666811	0.794448	0.910431
	H36	H	0.339439	0.909480	0.224341
	H37	H	0.667491	0.106611	0.224275
	H38	H	0.338067	0.106079	0.795700
	H39	H	0.666780	0.908901	0.794682
	H40	H	0.905508	0.223623	0.344006
	H41	H	0.102630	0.224232	0.672373
	H42	H	0.101101	0.795419	0.343950
	H43	H	0.904439	0.793371	0.671557
	H44	H	0.215419	0.344869	0.912008
	H45	H	0.217205	0.672220	0.108014
	H46	H	0.788764	0.345092	0.106261
	H47	H	0.788191	0.673096	0.909488
	H48	H	0.414684	0.123399	0.601371
	H49	H	0.602192	0.893002	0.594632
	H50	H	0.597204	0.126444	0.414149
	H51	H	0.413160	0.890545	0.412079
	H52	H	0.588237	0.413976	0.123044
	H53	H	0.598474	0.589838	0.893985
	H54	H	0.407210	0.609202	0.128746
	H55	H	0.412470	0.409161	0.891478
	H56	H	0.120137	0.604635	0.412264
	H57	H	0.885440	0.600117	0.603636
	H58	H	0.118670	0.414553	0.598107
	H59	H	0.883507	0.409413	0.415887
	H60	H	0.117912	0.421062	0.602731
	H61	H	0.884279	0.604803	0.601817
	H62	H	0.119441	0.604187	0.418234
	H63	H	0.888722	0.420274	0.422193
	H64	H	0.403779	0.594374	0.124155
	H65	H	0.581808	0.605982	0.894760
	H66	H	0.600375	0.410153	0.127598
	H67	H	0.401614	0.415801	0.890625
	H68	H	0.591490	0.125062	0.415485
	H69	H	0.601105	0.887380	0.612514
	H70	H	0.405581	0.125045	0.598676
	H71	H	0.412496	0.893200	0.422203
	H72	H	0.907089	0.627997	0.105220
	H73	H	0.105470	0.389562	0.100515
	H74	H	0.091933	0.628558	0.902649
	H75	H	0.912474	0.391767	0.910559
	H76	H	0.106766	0.916346	0.628168
	H77	H	0.093838	0.106404	0.391356
	H78	H	0.917435	0.101322	0.622719
	H79	H	0.914884	0.920709	0.394488
	H80	H	0.619898	0.099632	0.912062
	H81	H	0.387831	0.097707	0.101569
	H82	H	0.619470	0.919070	0.103402
	H83	H	0.382334	0.921205	0.900690
	H84	H	0.621304	0.914100	0.105612
	H85	H	0.384943	0.102064	0.107060
	H86	H	0.620095	0.106063	0.918530
	H87	H	0.382811	0.900836	0.921165
	H88	H	0.907401	0.108297	0.626666
	H89	H	0.101021	0.103543	0.391402
	H90	H	0.090803	0.923021	0.621386
	H91	H	0.910001	0.910164	0.389736
	H92	H	0.084882	0.620753	0.923720
	H93	H	0.091973	0.390324	0.112479
	H94	H	0.912876	0.625086	0.101562
	H95	H	0.913033	0.394703	0.920808
	H96	H	0.408278	0.126811	0.608027
	H97	H	0.586314	0.894215	0.602941
	H98	H	0.596147	0.124416	0.419972
	H99	H	0.404166	0.889902	0.416869
	H100	H	0.598194	0.422581	0.123176
	H101	H	0.603160	0.611014	0.886392
	H102	H	0.418742	0.600394	0.121574
	H103	H	0.412022	0.421411	0.895208
	H104	H	0.118531	0.599147	0.414785
	H105	H	0.886355	0.601284	0.598763
	H106	H	0.120578	0.414234	0.605306
	H107	H	0.885436	0.420783	0.409750
	H108	H	0.906182	0.625093	0.098302
	H109	H	0.088661	0.395658	0.095257
	H110	H	0.107238	0.627713	0.920170
	H111	H	0.903586	0.390145	0.916331
	H112	H	0.091953	0.905382	0.627067
	H113	H	0.095504	0.098509	0.393335
	H114	H	0.905842	0.095519	0.624885
	H115	H	0.903120	0.920352	0.390895
	H116	H	0.616629	0.097157	0.920514
	H117	H	0.386019	0.104930	0.099648
	H118	H	0.619796	0.914395	0.100090
	H119	H	0.392388	0.927189	0.927150
	C120	C	0.381067	0.016388	0.631290
	C121	C	0.624406	1.000100	0.631695
	C122	C	0.624051	0.017097	0.388437
	C123	C	0.381628	0.999532	0.388133
	C124	C	0.624128	0.387100	0.016279
	C125	C	0.623399	0.630447	0.999835
	C126	C	0.380739	0.630449	0.017000
	C127	C	0.380408	0.386918	1.000975
	C128	C	0.010621	0.631294	0.386881
	C129	C	0.993656	0.630761	0.630186
	C130	C	0.010816	0.387312	0.630778
	C131	C	0.994101	0.388459	0.387543
	C132	C	0.880245	0.517607	0.130501
	C133	C	0.123737	0.500172	0.130531
	C134	C	0.123187	0.517324	0.887619
	C135	C	0.880607	0.500552	0.886916
	C136	C	0.124480	0.887116	0.516865
	C137	C	0.124757	0.130498	0.500677
	C138	C	0.881123	0.130993	0.516451
	C139	C	0.881568	0.888063	0.499997
	C140	C	0.510459	0.129741	0.888213
	C141	C	0.494789	0.130222	0.131381
	C142	C	0.511904	0.887028	0.131411
	C143	C	0.494494	0.887301	0.887848
	C144	C	0.384226	0.892894	0.685765
	C145	C	0.621799	0.123486	0.686504
	C146	C	0.623442	0.893806	0.332873
	C147	C	0.383738	0.122820	0.332347
	C148	C	0.678935	0.389732	0.892959
	C149	C	0.678925	0.627748	0.122816
	C150	C	0.324732	0.628705	0.894251
	C151	C	0.325506	0.389445	0.124070
	C152	C	0.887208	0.686301	0.389556
	C153	C	0.117431	0.685388	0.627157
	C154	C	0.887603	0.331601	0.628526
	C155	C	0.117718	0.333351	0.390050
	C156	C	0.886989	0.389637	0.685610
	C157	C	0.117105	0.628275	0.685437
	C158	C	0.887189	0.628735	0.332221
	C159	C	0.117362	0.390247	0.332093
	C160	C	0.382387	0.686734	0.894031
	C161	C	0.621556	0.685299	0.123196
	C162	C	0.621358	0.331790	0.893226
	C163	C	0.382789	0.331641	0.124191
	C164	C	0.679044	0.893393	0.391577
	C165	C	0.679848	0.123296	0.629599
	C166	C	0.326558	0.893131	0.628301
	C167	C	0.326930	0.123219	0.390369
	C168	C	0.883047	0.394177	0.185648
	C169	C	0.121329	0.623819	0.185011
	C170	C	0.121850	0.394214	0.832090
	C171	C	0.882829	0.624208	0.831866
	C172	C	0.179691	0.889613	0.393640
	C173	C	0.178571	0.126538	0.624311
	C174	C	0.825432	0.129122	0.393595
	C175	C	0.827001	0.889525	0.623521
	C176	C	0.386821	0.184476	0.890779
	C177	C	0.618376	0.185093	0.128517
	C178	C	0.388213	0.832215	0.128376
	C179	C	0.617776	0.832147	0.890033
	C180	C	0.388391	0.889150	0.186455
	C181	C	0.618545	0.127150	0.186133
	C182	C	0.387111	0.127248	0.832894
	C183	C	0.617708	0.889174	0.832572
	C184	C	0.884205	0.186167	0.393058
	C185	C	0.121982	0.185212	0.623889
	C186	C	0.121512	0.832911	0.393094
	C187	C	0.884119	0.831919	0.622991
	C188	C	0.178143	0.393820	0.890774
	C189	C	0.178947	0.623633	0.128069
	C190	C	0.826025	0.393993	0.127207
	C191	C	0.825508	0.624089	0.889101
	C192	C	0.403108	0.102724	0.609246
	C193	C	0.602757	0.913772	0.609889
	C194	C	0.601479	0.102968	0.410012
	C195	C	0.403653	0.913489	0.410410
	C196	C	0.602076	0.409143	0.102281
	C197	C	0.601081	0.608694	0.913997
	C198	C	0.403533	0.608045	0.102726
	C199	C	0.402300	0.408911	0.914801
	C200	C	0.097151	0.609116	0.408555
	C201	C	0.907552	0.608618	0.607992
	C202	C	0.096700	0.409883	0.608581
	C203	C	0.908070	0.410343	0.409406
	C204	C	0.902092	0.603912	0.108278
	C205	C	0.101824	0.414063	0.109119
	C206	C	0.101169	0.603307	0.909158
	C207	C	0.903027	0.414503	0.909309
	C208	C	0.102655	0.908368	0.603156
	C209	C	0.103076	0.109034	0.414224
	C210	C	0.903575	0.108448	0.602444
	C211	C	0.902975	0.910618	0.413924
	C212	C	0.596737	0.107549	0.910401
	C213	C	0.408641	0.108137	0.109310
	C214	C	0.598030	0.909164	0.109383
	C215	C	0.408162	0.909661	0.909887
	Zn216	Zn	0.502657	0.008525	0.759614
	Zn217	Zn	0.503498	0.008008	0.260119
	Zn218	Zn	0.752059	0.509260	0.007749
	Zn219	Zn	0.251782	0.508808	0.009396
	Zn220	Zn	0.002579	0.759554	0.507947
	Zn221	Zn	0.003138	0.259547	0.508681
	Zn222	Zn	0.001796	0.508876	0.759010
	Zn223	Zn	0.002163	0.509537	0.258965
	Zn224	Zn	0.503191	0.759410	0.008679
	Zn225	Zn	0.502443	0.258496	0.008917
	Zn226	Zn	0.752177	0.008513	0.509129
	Zn227	Zn	0.253132	0.008382	0.509034
	N228	N	0.417457	0.970724	0.687558
	N229	N	0.588142	0.045852	0.687789
	N230	N	0.589775	0.971620	0.330956
	N231	N	0.417003	0.044974	0.330823
	N232	N	0.680758	0.423266	0.970550
	N233	N	0.680374	0.594501	0.045185
	N234	N	0.323744	0.594384	0.971561
	N235	N	0.324225	0.423300	0.046515
	N236	N	0.965121	0.687909	0.422806
	N237	N	0.039835	0.686924	0.593221
	N238	N	0.965505	0.329802	0.595304
	N239	N	0.040103	0.332196	0.424064
	N240	N	0.964588	0.423777	0.686887
	N241	N	0.039144	0.595183	0.687462
	N242	N	0.964979	0.595156	0.330620
	N243	N	0.039581	0.423571	0.330229
	N244	N	0.416578	0.688089	0.971481
	N245	N	0.587695	0.686864	0.045770
	N246	N	0.587958	0.330158	0.970969
	N247	N	0.416120	0.329625	0.046457
	N248	N	0.679825	0.971056	0.425178
	N249	N	0.681766	0.045558	0.596232
	N250	N	0.324319	0.971183	0.595293
	N251	N	0.325472	0.045606	0.424374
	N252	N	0.915812	0.472258	0.187748
	N253	N	0.087484	0.546284	0.186664
	N254	N	0.088315	0.471885	0.830060
	N255	N	0.916279	0.546400	0.830326
	N256	N	0.181923	0.922501	0.471579
	N257	N	0.180485	0.093438	0.546537
	N258	N	0.823419	0.095537	0.471320
	N259	N	0.825064	0.923763	0.546066
	N260	N	0.464455	0.185886	0.924584
	N261	N	0.540444	0.187221	0.095148
	N262	N	0.465929	0.830839	0.094738
	N263	N	0.540162	0.831088	0.923839
	N264	N	0.466182	0.922642	0.188261
	N265	N	0.540707	0.093778	0.187967
	N266	N	0.465086	0.093868	0.831286
	N267	N	0.539979	0.922798	0.831112
	N268	N	0.917985	0.187414	0.470636
	N269	N	0.089490	0.188029	0.545788
	N270	N	0.087964	0.831260	0.470657
	N271	N	0.917272	0.831015	0.545328
	N272	N	0.179302	0.471441	0.924375
	N273	N	0.180718	0.545793	0.095174
	N274	N	0.824382	0.471654	0.093475
	N275	N	0.824222	0.546329	0.922798
	O276	O	0.487094	0.468732	0.476590
	H277	H	0.488988	0.477848	0.471107
	H278	H	0.481463	0.468180	0.477121
	O279	O	-0.019217	0.041524	-0.048978
	H280	H	-0.034712	0.052915	-0.040525
	H281	H	-0.015157	0.048124	-0.052045
	O282	O	0.504285	0.453428	0.419918
	H283	H	0.507599	0.448552	0.413577
	H284	H	0.504097	0.449181	0.422363
	O285	O	0.484819	0.537191	0.487319
	H286	H	0.488316	0.538701	0.490102
	H287	H	0.481362	0.528745	0.486643
	O288	O	1.510278	-0.536155	-0.510261
	H289	H	1.507148	-0.541208	-0.507699
	H290	H	1.515864	-0.528202	-0.515519
	O291	O	-0.481510	0.498176	-0.532076
	H292	H	-0.481631	0.501720	-0.539726
	H293	H	-0.479072	0.491273	-0.534279
	O294	O	0.497767	0.467936	0.464156
	H295	H	0.501131	0.452807	0.460187
	H296	H	0.503650	0.466017	0.463246
	O297	O	0.019973	1.013518	-0.063434
	H298	H	0.016859	1.014153	-0.068830
	H299	H	0.017524	1.012285	-0.061392
	O300	O	0.999222	0.064325	0.985313
	H301	H	1.007499	0.059628	0.975495
	H302	H	1.003622	0.066782	0.982562
	O303	O	0.507761	0.486218	0.491818
	H304	H	0.513061	0.486401	0.485653
	H305	H	0.508465	0.488724	0.501130
	O306	O	-0.021111	1.060159	0.966393
	H307	H	-0.016298	1.049108	0.961959
	H308	H	-0.015484	1.061114	0.963535
	O309	O	0.482873	0.477635	0.459563
	H310	H	0.479949	0.486699	0.456220
	H311	H	0.477719	0.473114	0.452869
