data_Molecule from HDF5

_cell_length_a		16.362864
_cell_length_b		16.279830
_cell_length_c		16.168870
_cell_angle_alpha	90.058278
_cell_angle_beta	89.877591
_cell_angle_gamma	90.093945
_symmetry_space_group_name_H-M	'P 1'
_symmetry_Int_Tables_number		1

loop_
	_symmetry_equiv_pos_as_xyz
	x,y,z

loop_
	_atom_site_label
	_atom_site_type_symbol
	_atom_site_fract_x
	_atom_site_fract_y
	_atom_site_fract_z
	H0	H	0.405619	0.826898	0.707082
	H1	H	0.598416	0.155764	0.705820
	H2	H	0.598072	0.826669	0.281613
	H3	H	0.406728	0.155985	0.282694
	H4	H	0.715537	0.392454	0.829813
	H5	H	0.716115	0.590762	0.157892
	H6	H	0.288811	0.589353	0.829509
	H7	H	0.285924	0.392499	0.158725
	H8	H	0.839371	0.706106	0.395033
	H9	H	0.164033	0.706363	0.593482
	H10	H	0.838893	0.275863	0.592260
	H11	H	0.165460	0.276953	0.396334
	H12	H	0.837694	0.393905	0.707511
	H13	H	0.164888	0.587024	0.706279
	H14	H	0.837452	0.585812	0.282744
	H15	H	0.166141	0.393693	0.279756
	H16	H	0.405704	0.702588	0.829202
	H17	H	0.599033	0.704862	0.158891
	H18	H	0.598262	0.278874	0.829014
	H19	H	0.403873	0.278600	0.159959
	H20	H	0.717072	0.827978	0.394530
	H21	H	0.718771	0.153633	0.594347
	H22	H	0.285677	0.828319	0.594667
	H23	H	0.286780	0.154641	0.394976
	H24	H	0.904496	0.327430	0.206681
	H25	H	0.099123	0.656006	0.207504
	H26	H	0.096849	0.326426	0.782209
	H27	H	0.905870	0.656296	0.782205
	H28	H	0.216253	0.892405	0.330343
	H29	H	0.215953	0.089572	0.659321
	H30	H	0.788722	0.088673	0.330393
	H31	H	0.787335	0.891277	0.658132
	H32	H	0.338574	0.205801	0.895789
	H33	H	0.664727	0.207588	0.094459
	H34	H	0.338360	0.776137	0.092825
	H35	H	0.665145	0.776505	0.895019
	H36	H	0.338431	0.894087	0.208966
	H37	H	0.665959	0.088221	0.208415
	H38	H	0.337978	0.088118	0.780703
	H39	H	0.665663	0.895507	0.781152
	H40	H	0.906004	0.202307	0.329194
	H41	H	0.100337	0.204423	0.659626
	H42	H	0.099124	0.778640	0.328926
	H43	H	0.904826	0.778141	0.658800
	H44	H	0.217840	0.328661	0.893678
	H45	H	0.216124	0.655251	0.093121
	H46	H	0.785670	0.328477	0.093781
	H47	H	0.787226	0.655395	0.894889
	H48	H	0.412130	0.105657	0.582659
	H49	H	0.595790	0.876719	0.577486
	H50	H	0.594816	0.109769	0.395265
	H51	H	0.410637	0.873846	0.397043
	H52	H	0.594628	0.402375	0.111671
	H53	H	0.596583	0.592108	0.873268
	H54	H	0.410933	0.591901	0.113343
	H55	H	0.415854	0.408564	0.882223
	H56	H	0.115848	0.576340	0.400836
	H57	H	0.881722	0.588233	0.595446
	H58	H	0.114529	0.398834	0.577412
	H59	H	0.887071	0.397006	0.401032
	H60	H	0.117628	0.405468	0.596071
	H61	H	0.885483	0.590139	0.579178
	H62	H	0.121694	0.589172	0.393611
	H63	H	0.885938	0.395128	0.399038
	H64	H	0.399241	0.582057	0.114225
	H65	H	0.602272	0.577731	0.877145
	H66	H	0.590795	0.398145	0.110776
	H67	H	0.414221	0.385400	0.874775
	H68	H	0.592406	0.105766	0.406528
	H69	H	0.604376	0.869991	0.591510
	H70	H	0.401634	0.109920	0.585900
	H71	H	0.410881	0.876960	0.407113
	H72	H	0.905305	0.612021	0.096180
	H73	H	0.093757	0.374997	0.087751
	H74	H	0.097143	0.607834	0.906101
	H75	H	0.907349	0.373670	0.897589
	H76	H	0.091566	0.894143	0.612595
	H77	H	0.094396	0.075958	0.380006
	H78	H	0.918253	0.081455	0.609175
	H79	H	0.909650	0.897495	0.376765
	H80	H	0.618318	0.088708	0.901779
	H81	H	0.385735	0.077831	0.098002
	H82	H	0.617884	0.898885	0.090472
	H83	H	0.385160	0.891982	0.902934
	H84	H	0.618609	0.893320	0.087544
	H85	H	0.383356	0.095717	0.088872
	H86	H	0.616319	0.084135	0.903679
	H87	H	0.386907	0.900292	0.902960
	H88	H	0.906778	0.093237	0.615503
	H89	H	0.089700	0.090077	0.377051
	H90	H	0.098882	0.898459	0.613373
	H91	H	0.908233	0.897652	0.376072
	H92	H	0.100173	0.609831	0.897684
	H93	H	0.092349	0.376635	0.084834
	H94	H	0.917411	0.605050	0.085812
	H95	H	0.909582	0.376045	0.903134
	H96	H	0.410720	0.109047	0.593439
	H97	H	0.587781	0.875103	0.592304
	H98	H	0.603558	0.108891	0.403765
	H99	H	0.401991	0.873000	0.402684
	H100	H	0.596103	0.397129	0.113026
	H101	H	0.587152	0.581178	0.879155
	H102	H	0.413256	0.577354	0.108634
	H103	H	0.394678	0.399606	0.873933
	H104	H	0.117479	0.589869	0.409061
	H105	H	0.887617	0.575332	0.586720
	H106	H	0.122165	0.386326	0.591518
	H107	H	0.885270	0.394939	0.401353
	H108	H	0.900875	0.608350	0.079682
	H109	H	0.095787	0.374785	0.084989
	H110	H	0.091216	0.607746	0.898589
	H111	H	0.903444	0.374680	0.903520
	H112	H	0.092210	0.902714	0.610039
	H113	H	0.103698	0.085319	0.374693
	H114	H	0.901567	0.076795	0.612953
	H115	H	0.909015	0.898879	0.376096
	H116	H	0.618507	0.084781	0.898653
	H117	H	0.391041	0.080143	0.077498
	H118	H	0.616539	0.898128	0.084395
	H119	H	0.385028	0.896602	0.895559
	C120	C	0.379969	-0.000232	0.615782
	C121	C	0.623784	0.982479	0.615429
	C122	C	0.623956	-0.000389	0.373397
	C123	C	0.380075	0.982914	0.373452
	C124	C	0.622533	0.370287	0.002920
	C125	C	0.623117	0.612508	0.985309
	C126	C	0.380420	0.611675	0.002743
	C127	C	0.379736	0.369646	0.986091
	C128	C	0.010200	0.612611	0.372965
	C129	C	0.992781	0.612734	0.615676
	C130	C	0.010082	0.368813	0.616380
	C131	C	0.994133	0.368277	0.371884
	C132	C	0.879513	0.500163	0.115714
	C133	C	0.123031	0.483470	0.115227
	C134	C	0.123689	0.500102	0.872462
	C135	C	0.879322	0.483355	0.872686
	C136	C	0.123184	0.869777	0.503026
	C137	C	0.123816	0.112170	0.486254
	C138	C	0.881241	0.111279	0.503031
	C139	C	0.880556	0.869076	0.485102
	C140	C	0.509631	0.113287	0.872795
	C141	C	0.494211	0.112996	0.116420
	C142	C	0.510029	0.868990	0.116043
	C143	C	0.493737	0.868892	0.872023
	C144	C	0.383898	0.875996	0.669826
	C145	C	0.620068	0.106344	0.669445
	C146	C	0.619484	0.875925	0.318941
	C147	C	0.384549	0.106910	0.319543
	C148	C	0.677794	0.372061	0.879075
	C149	C	0.678086	0.610800	0.109125
	C150	C	0.326350	0.609409	0.878677
	C151	C	0.324255	0.371998	0.109772
	C152	C	0.887602	0.667510	0.374933
	C153	C	0.115634	0.667827	0.613233
	C154	C	0.887264	0.313882	0.613281
	C155	C	0.117043	0.314716	0.375510
	C156	C	0.886769	0.372467	0.670441
	C157	C	0.116061	0.608663	0.669408
	C158	C	0.886822	0.608085	0.319090
	C159	C	0.117083	0.372623	0.317453
	C160	C	0.384692	0.665324	0.878306
	C161	C	0.619825	0.667133	0.109654
	C162	C	0.619316	0.316070	0.878578
	C163	C	0.382748	0.315640	0.110357
	C164	C	0.678584	0.876428	0.374929
	C165	C	0.679706	0.105381	0.613885
	C166	C	0.324297	0.876868	0.614230
	C167	C	0.325271	0.106004	0.375581
	C168	C	0.883206	0.376499	0.169561
	C169	C	0.119977	0.607071	0.170011
	C170	C	0.118849	0.375876	0.818930
	C171	C	0.883996	0.606887	0.818659
	C172	C	0.178404	0.872056	0.379320
	C173	C	0.178179	0.109686	0.610254
	C174	C	0.826489	0.108859	0.379259
	C175	C	0.825175	0.871154	0.609094
	C176	C	0.387184	0.167838	0.875505
	C177	C	0.616562	0.168804	0.114195
	C178	C	0.386954	0.814348	0.113400
	C179	C	0.616436	0.814247	0.874934
	C180	C	0.387050	0.872844	0.170998
	C181	C	0.617312	0.109406	0.170610
	C182	C	0.386731	0.108834	0.818619
	C183	C	0.616874	0.873402	0.818157
	C184	C	0.884702	0.165271	0.378614
	C185	C	0.121288	0.167204	0.610197
	C186	C	0.120083	0.815539	0.378644
	C187	C	0.883353	0.814824	0.609416
	C188	C	0.178632	0.376920	0.874499
	C189	C	0.178438	0.606562	0.113601
	C190	C	0.824351	0.377004	0.113143
	C191	C	0.825054	0.606561	0.874845
	C192	C	0.401731	0.085931	0.593673
	C193	C	0.602329	0.896289	0.593629
	C194	C	0.603142	0.085942	0.395579
	C195	C	0.401317	0.896766	0.395581
	C196	C	0.600437	0.392698	0.089513
	C197	C	0.601396	0.590290	0.898781
	C198	C	0.401450	0.589979	0.089612
	C199	C	0.401806	0.391490	0.899309
	C200	C	0.096145	0.591522	0.394739
	C201	C	0.907009	0.591025	0.593509
	C202	C	0.096030	0.390424	0.594710
	C203	C	0.908231	0.389421	0.394045
	C204	C	0.901258	0.586277	0.093601
	C205	C	0.100752	0.397795	0.092587
	C206	C	0.102549	0.586135	0.894215
	C207	C	0.900520	0.397017	0.894824
	C208	C	0.100816	0.891905	0.589677
	C209	C	0.102212	0.090333	0.399779
	C210	C	0.902612	0.090042	0.589993
	C211	C	0.902467	0.891411	0.398427
	C212	C	0.595414	0.092074	0.894780
	C213	C	0.408729	0.090973	0.094523
	C214	C	0.595535	0.890349	0.093943
	C215	C	0.407822	0.890026	0.894098
	Zn216	Zn	0.501905	-0.008674	0.743565
	Zn217	Zn	0.501979	-0.008642	0.245410
	Zn218	Zn	0.750732	0.491538	-0.005791
	Zn219	Zn	0.252189	0.491769	-0.005499
	Zn220	Zn	0.001716	0.741907	0.494194
	Zn221	Zn	0.002451	0.239326	0.494737
	Zn222	Zn	0.001240	0.491298	0.744608
	Zn223	Zn	0.002026	0.491750	0.243483
	Zn224	Zn	0.501447	0.739585	-0.005878
	Zn225	Zn	0.501870	0.242110	-0.005323
	Zn226	Zn	0.752850	-0.009302	0.494413
	Zn227	Zn	0.250981	-0.008682	0.494857
	N228	N	0.417570	0.953522	0.671157
	N229	N	0.585898	0.028969	0.670435
	N230	N	0.586153	0.953553	0.317734
	N231	N	0.417897	0.029493	0.318106
	N232	N	0.680033	0.405050	0.957533
	N233	N	0.680256	0.577636	0.030853
	N234	N	0.323839	0.576666	0.957137
	N235	N	0.322227	0.404806	0.031441
	N236	N	0.965257	0.670611	0.407640
	N237	N	0.037960	0.670573	0.580542
	N238	N	0.964954	0.311478	0.580431
	N239	N	0.039568	0.311796	0.408598
	N240	N	0.964042	0.405772	0.672421
	N241	N	0.038765	0.575168	0.670903
	N242	N	0.963956	0.574524	0.317939
	N243	N	0.039633	0.405319	0.315169
	N244	N	0.417613	0.667015	0.956506
	N245	N	0.586277	0.668178	0.031719
	N246	N	0.585737	0.314861	0.956618
	N247	N	0.416397	0.313954	0.032317
	N248	N	0.681225	0.954274	0.408041
	N249	N	0.682032	0.027396	0.581099
	N250	N	0.321929	0.954738	0.581402
	N251	N	0.322263	0.027813	0.408184
	N252	N	0.916682	0.453954	0.171261
	N253	N	0.086513	0.529476	0.171254
	N254	N	0.085154	0.453390	0.817692
	N255	N	0.916944	0.529253	0.817404
	N256	N	0.180026	0.905305	0.457519
	N257	N	0.179814	0.076091	0.532252
	N258	N	0.824284	0.076225	0.457656
	N259	N	0.823409	0.904342	0.530708
	N260	N	0.464552	0.170536	0.908543
	N261	N	0.539073	0.171073	0.081226
	N262	N	0.464132	0.811970	0.079618
	N263	N	0.538703	0.811375	0.907778
	N264	N	0.464517	0.906055	0.172729
	N265	N	0.540282	0.075382	0.172023
	N266	N	0.464092	0.075588	0.816965
	N267	N	0.539671	0.906448	0.816347
	N268	N	0.918042	0.167016	0.456723
	N269	N	0.088043	0.168807	0.532131
	N270	N	0.086287	0.814113	0.456753
	N271	N	0.917138	0.813596	0.531459
	N272	N	0.181745	0.455005	0.907062
	N273	N	0.180296	0.528861	0.079989
	N274	N	0.821821	0.455097	0.080438
	N275	N	0.821972	0.528568	0.907738
	O276	O	1.055179	0.056402	1.009591
	H277	H	1.056975	0.058852	1.021088
	H278	H	1.059861	0.061201	1.006029
	O279	O	0.073424	1.073833	0.969529
	H280	H	0.070422	1.069744	0.969077
	H281	H	0.070879	1.070815	0.963372
	O282	O	1.051002	1.068502	0.015653
	H283	H	1.055675	1.063813	0.025252
	H284	H	1.045961	1.068599	0.020382
	O285	O	0.060056	1.100162	1.009684
	H286	H	0.060970	1.112315	1.001434
	H287	H	0.067652	1.103136	1.008091
