data_Molecule from HDF5

_cell_length_a		16.320844
_cell_length_b		16.193403
_cell_length_c		16.243656
_cell_angle_alpha	90.034216
_cell_angle_beta	89.873206
_cell_angle_gamma	89.992209
_symmetry_space_group_name_H-M	'P 1'
_symmetry_Int_Tables_number		1

loop_
	_symmetry_equiv_pos_as_xyz
	x,y,z

loop_
	_atom_site_label
	_atom_site_type_symbol
	_atom_site_fract_x
	_atom_site_fract_y
	_atom_site_fract_z
	H0	H	0.409769	0.834523	0.717967
	H1	H	0.605936	0.164158	0.717265
	H2	H	0.605447	0.833918	0.290360
	H3	H	0.409836	0.163126	0.290428
	H4	H	0.723847	0.398372	0.840420
	H5	H	0.721921	0.599142	0.167151
	H6	H	0.291795	0.598397	0.840272
	H7	H	0.290927	0.398935	0.167340
	H8	H	0.843208	0.712492	0.407125
	H9	H	0.170682	0.713415	0.602036
	H10	H	0.842662	0.285492	0.601576
	H11	H	0.170418	0.283723	0.404734
	H12	H	0.844147	0.398461	0.720492
	H13	H	0.170354	0.597780	0.718236
	H14	H	0.843280	0.598094	0.289533
	H15	H	0.170075	0.399361	0.288235
	H16	H	0.410252	0.711820	0.838751
	H17	H	0.602875	0.711232	0.167982
	H18	H	0.605472	0.285382	0.839610
	H19	H	0.408827	0.285150	0.168407
	H20	H	0.721302	0.833582	0.405299
	H21	H	0.722279	0.163048	0.602163
	H22	H	0.292652	0.834434	0.604115
	H23	H	0.292505	0.162819	0.403723
	H24	H	0.909319	0.333861	0.216692
	H25	H	0.103980	0.663358	0.217192
	H26	H	0.105176	0.334153	0.790818
	H27	H	0.910055	0.663150	0.790518
	H28	H	0.223503	0.898892	0.340046
	H29	H	0.222208	0.097455	0.667953
	H30	H	0.792867	0.097695	0.340340
	H31	H	0.791110	0.897972	0.667394
	H32	H	0.342644	0.211810	0.907977
	H33	H	0.671201	0.213078	0.100618
	H34	H	0.343851	0.785684	0.101206
	H35	H	0.671113	0.785832	0.905414
	H36	H	0.343916	0.901808	0.218078
	H37	H	0.671591	0.098854	0.218686
	H38	H	0.343931	0.098877	0.788468
	H39	H	0.670767	0.901581	0.789730
	H40	H	0.909880	0.211927	0.339772
	H41	H	0.104968	0.212360	0.668739
	H42	H	0.106643	0.784523	0.339180
	H43	H	0.910409	0.785661	0.668321
	H44	H	0.223348	0.335129	0.903936
	H45	H	0.220325	0.663585	0.102133
	H46	H	0.792353	0.335040	0.102775
	H47	H	0.793528	0.663337	0.905346
	H48	H	0.411733	0.118506	0.603086
	H49	H	0.607967	0.879652	0.598978
	H50	H	0.604398	0.115281	0.415535
	H51	H	0.414113	0.880094	0.407261
	H52	H	0.597932	0.404784	0.120147
	H53	H	0.603199	0.595531	0.884254
	H54	H	0.412289	0.585914	0.118928
	H55	H	0.408640	0.413050	0.888047
	H56	H	0.121013	0.587750	0.412554
	H57	H	0.893300	0.586005	0.594366
	H58	H	0.121893	0.412472	0.599945
	H59	H	0.893196	0.407641	0.416559
	H60	H	0.126330	0.399624	0.601989
	H61	H	0.889480	0.590881	0.603145
	H62	H	0.123755	0.590212	0.405729
	H63	H	0.890045	0.408922	0.404400
	H64	H	0.418577	0.594216	0.119799
	H65	H	0.604244	0.588728	0.886184
	H66	H	0.603377	0.406933	0.121377
	H67	H	0.422582	0.408865	0.890031
	H68	H	0.602965	0.117351	0.407557
	H69	H	0.595110	0.880815	0.602537
	H70	H	0.422176	0.113288	0.594880
	H71	H	0.420130	0.883508	0.412047
	H72	H	0.917299	0.613515	0.091293
	H73	H	0.098263	0.379274	0.106434
	H74	H	0.105767	0.618098	0.911215
	H75	H	0.915263	0.381279	0.910820
	H76	H	0.097609	0.903954	0.619885
	H77	H	0.102669	0.089000	0.387206
	H78	H	0.908132	0.094029	0.624030
	H79	H	0.911078	0.901123	0.384355
	H80	H	0.624466	0.100423	0.915371
	H81	H	0.390453	0.098615	0.094669
	H82	H	0.625777	0.903784	0.098818
	H83	H	0.391100	0.902073	0.915908
	H84	H	0.623944	0.904137	0.094648
	H85	H	0.394170	0.087155	0.094739
	H86	H	0.619999	0.083846	0.913496
	H87	H	0.392518	0.912662	0.910695
	H88	H	0.912924	0.085517	0.619121
	H89	H	0.098938	0.088797	0.388455
	H90	H	0.104479	0.904564	0.621709
	H91	H	0.912515	0.911580	0.387689
	H92	H	0.098728	0.616913	0.905695
	H93	H	0.092194	0.385546	0.090287
	H94	H	0.906360	0.618412	0.096578
	H95	H	0.914465	0.382111	0.912774
	H96	H	0.409157	0.115662	0.589604
	H97	H	0.598194	0.884014	0.590320
	H98	H	0.596424	0.114815	0.412117
	H99	H	0.411785	0.881905	0.414855
	H100	H	0.599462	0.410175	0.119611
	H101	H	0.598408	0.591704	0.887163
	H102	H	0.408512	0.595773	0.122504
	H103	H	0.412793	0.399409	0.884069
	H104	H	0.123683	0.595278	0.411705
	H105	H	0.890418	0.596152	0.594107
	H106	H	0.122045	0.403470	0.590026
	H107	H	0.888383	0.398413	0.410359
	H108	H	0.916826	0.617746	0.103388
	H109	H	0.109446	0.379592	0.091778
	H110	H	0.098143	0.614741	0.914559
	H111	H	0.913030	0.380595	0.911985
	H112	H	0.100561	0.910282	0.619457
	H113	H	0.100915	0.092584	0.386828
	H114	H	0.918319	0.095142	0.620786
	H115	H	0.919896	0.904555	0.387641
	H116	H	0.626724	0.093154	0.900797
	H117	H	0.389777	0.092145	0.105211
	H118	H	0.623833	0.908013	0.098460
	H119	H	0.388246	0.903377	0.904475
	C120	C	0.386221	0.007114	0.624923
	C121	C	0.628840	0.990603	0.625220
	C122	C	0.629410	0.006983	0.382564
	C123	C	0.386660	0.990370	0.382860
	C124	C	0.628871	0.378081	0.012200
	C125	C	0.629386	0.620411	0.994526
	C126	C	0.385146	0.620600	0.012182
	C127	C	0.385805	0.377988	0.995804
	C128	C	0.015220	0.620411	0.381965
	C129	C	0.998893	0.620232	0.625812
	C130	C	0.015173	0.376727	0.625649
	C131	C	0.998634	0.376580	0.381903
	C132	C	0.885264	0.507666	0.125516
	C133	C	0.128031	0.490228	0.124726
	C134	C	0.129030	0.507660	0.882274
	C135	C	0.886206	0.490170	0.883168
	C136	C	0.129736	0.876770	0.512061
	C137	C	0.129369	0.119699	0.495809
	C138	C	0.885793	0.119548	0.512588
	C139	C	0.886197	0.877268	0.495381
	C140	C	0.515446	0.121248	0.881779
	C141	C	0.499439	0.121361	0.126127
	C142	C	0.515889	0.877368	0.125437
	C143	C	0.498865	0.877738	0.881947
	C144	C	0.388889	0.883455	0.680450
	C145	C	0.626280	0.114714	0.679651
	C146	C	0.626620	0.883287	0.327257
	C147	C	0.389656	0.114253	0.328260
	C148	C	0.685098	0.378997	0.889013
	C149	C	0.683653	0.618420	0.118401
	C150	C	0.329913	0.618707	0.888978
	C151	C	0.329570	0.379264	0.118743
	C152	C	0.891965	0.674900	0.386090
	C153	C	0.121815	0.675598	0.622834
	C154	C	0.891860	0.322233	0.622528
	C155	C	0.121493	0.321350	0.384242
	C156	C	0.892332	0.379141	0.681131
	C157	C	0.121649	0.617928	0.680617
	C158	C	0.891967	0.617802	0.327632
	C159	C	0.121373	0.378861	0.326234
	C160	C	0.388902	0.674784	0.888191
	C161	C	0.624856	0.674380	0.118743
	C162	C	0.626279	0.322837	0.888639
	C163	C	0.388330	0.322846	0.119213
	C164	C	0.683871	0.882941	0.384864
	C165	C	0.683763	0.114325	0.622106
	C166	C	0.331046	0.883406	0.623504
	C167	C	0.331108	0.113917	0.384441
	C168	C	0.888476	0.383166	0.179747
	C169	C	0.124688	0.614435	0.179288
	C170	C	0.126266	0.383529	0.827773
	C171	C	0.889156	0.614156	0.828216
	C172	C	0.185569	0.878351	0.388942
	C173	C	0.184546	0.117886	0.619045
	C174	C	0.830986	0.117373	0.389115
	C175	C	0.829929	0.878522	0.618703
	C176	C	0.391960	0.175334	0.886182
	C177	C	0.622508	0.175976	0.122120
	C178	C	0.392781	0.823283	0.122052
	C179	C	0.622218	0.823412	0.884986
	C180	C	0.392999	0.880736	0.180349
	C181	C	0.622723	0.119121	0.180631
	C182	C	0.392357	0.118776	0.827060
	C183	C	0.622019	0.881090	0.827488
	C184	C	0.889360	0.173941	0.388650
	C185	C	0.125756	0.174323	0.619647
	C186	C	0.126964	0.822075	0.388445
	C187	C	0.889207	0.822838	0.619217
	C188	C	0.184687	0.383974	0.884350
	C189	C	0.182766	0.614301	0.122343
	C190	C	0.830111	0.383786	0.123365
	C191	C	0.831825	0.614212	0.885765
	C192	C	0.408053	0.093567	0.602452
	C193	C	0.606834	0.903784	0.603634
	C194	C	0.607608	0.093587	0.404981
	C195	C	0.408953	0.904277	0.404808
	C196	C	0.606729	0.400650	0.098038
	C197	C	0.608178	0.598444	0.908188
	C198	C	0.406671	0.598452	0.098316
	C199	C	0.408041	0.400465	0.909669
	C200	C	0.100785	0.597976	0.403650
	C201	C	0.913219	0.597584	0.603824
	C202	C	0.101112	0.398556	0.603723
	C203	C	0.912622	0.398420	0.404006
	C204	C	0.907022	0.594199	0.103525
	C205	C	0.106410	0.403898	0.102614
	C206	C	0.107240	0.594301	0.904040
	C207	C	0.907883	0.403577	0.905371
	C208	C	0.107293	0.899551	0.598057
	C209	C	0.107351	0.096879	0.409777
	C210	C	0.906981	0.097965	0.599082
	C211	C	0.907930	0.899304	0.408911
	C212	C	0.601554	0.099009	0.903422
	C213	C	0.413477	0.099265	0.104704
	C214	C	0.602264	0.898882	0.103739
	C215	C	0.412713	0.899593	0.903780
	Zn216	Zn	0.507166	-0.000744	0.753480
	Zn217	Zn	0.508396	-0.000513	0.254365
	Zn218	Zn	0.757395	0.499046	0.004038
	Zn219	Zn	0.256687	0.499251	0.003836
	Zn220	Zn	0.007494	0.748840	0.503860
	Zn221	Zn	0.007137	0.248017	0.504076
	Zn222	Zn	0.007259	0.498141	0.754386
	Zn223	Zn	0.006648	0.498496	0.253192
	Zn224	Zn	0.507484	0.748418	0.003347
	Zn225	Zn	0.507374	0.249815	0.003952
	Zn226	Zn	0.757686	-0.002020	0.503784
	Zn227	Zn	0.257980	-0.001840	0.503710
	N228	N	0.422690	0.961260	0.681165
	N229	N	0.592755	0.036724	0.681454
	N230	N	0.593480	0.961399	0.325907
	N231	N	0.423487	0.036457	0.326983
	N232	N	0.686867	0.412640	0.966797
	N233	N	0.686875	0.585938	0.040028
	N234	N	0.327340	0.585820	0.967070
	N235	N	0.327940	0.412952	0.041051
	N236	N	0.969520	0.676622	0.419112
	N237	N	0.044508	0.676944	0.589378
	N238	N	0.969303	0.320756	0.588707
	N239	N	0.044181	0.319935	0.418328
	N240	N	0.969868	0.412259	0.683156
	N241	N	0.044302	0.584023	0.682327
	N242	N	0.969539	0.584681	0.324847
	N243	N	0.044052	0.412497	0.324826
	N244	N	0.422559	0.676170	0.965737
	N245	N	0.591954	0.675843	0.040987
	N246	N	0.591984	0.322255	0.965958
	N247	N	0.422547	0.322083	0.041733
	N248	N	0.685919	0.960976	0.418314
	N249	N	0.685514	0.036062	0.589011
	N250	N	0.329376	0.961281	0.589769
	N251	N	0.329344	0.035926	0.417983
	N252	N	0.921831	0.461259	0.181294
	N253	N	0.091700	0.536392	0.181092
	N254	N	0.092490	0.461458	0.826480
	N255	N	0.922382	0.535942	0.826607
	N256	N	0.187184	0.911899	0.466656
	N257	N	0.186528	0.084434	0.541109
	N258	N	0.828947	0.084150	0.467024
	N259	N	0.827874	0.911612	0.540639
	N260	N	0.469576	0.176987	0.919495
	N261	N	0.544915	0.177547	0.089002
	N262	N	0.470382	0.821018	0.088985
	N263	N	0.544565	0.821319	0.918343
	N264	N	0.470622	0.913918	0.182272
	N265	N	0.545127	0.085948	0.183125
	N266	N	0.470154	0.086146	0.824195
	N267	N	0.544470	0.914068	0.825687
	N268	N	0.922696	0.175468	0.466363
	N269	N	0.092198	0.175733	0.541883
	N270	N	0.093087	0.820852	0.466170
	N271	N	0.923474	0.822043	0.541792
	N272	N	0.186567	0.462139	0.917370
	N273	N	0.184837	0.536090	0.089100
	N274	N	0.828052	0.462009	0.090512
	N275	N	0.829851	0.536162	0.919177
	O276	O	-0.505673	0.502721	1.467114
	H277	H	-0.513692	0.498628	1.469349
	H278	H	-0.515302	0.505968	1.478627
	O279	O	0.423323	0.501278	0.461838
	H280	H	0.433222	0.490987	0.460141
	H281	H	0.422113	0.499283	0.459509
	O282	O	0.453909	0.484941	-0.468804
	H283	H	0.450456	0.489573	-0.462755
	H284	H	0.440719	0.483379	-0.472882
	O285	O	0.492415	0.450016	0.503057
	H286	H	0.489331	0.452036	0.501990
	H287	H	0.498768	0.451025	0.506716
	O288	O	0.497064	0.462729	0.491540
	H289	H	0.497429	0.470181	0.493439
	H290	H	0.496660	0.460164	0.493680
	O291	O	-0.483148	1.440495	0.449950
	H292	H	-0.479391	1.442609	0.445666
	H293	H	-0.476355	1.434697	0.449945
	O294	O	0.417769	0.478981	0.500828
	H295	H	0.418442	0.480071	0.493163
	H296	H	0.420174	0.469242	0.490451
	O297	O	1.250318	-0.329816	0.307574
	H298	H	1.246321	-0.325920	0.304553
	H299	H	1.250973	-0.323729	0.305280
