data_Molecule from HDF5

_cell_length_a		16.453754
_cell_length_b		16.553532
_cell_length_c		16.578871
_cell_angle_alpha	89.777122
_cell_angle_beta	90.065616
_cell_angle_gamma	89.885358
_symmetry_space_group_name_H-M	'P 1'
_symmetry_Int_Tables_number		1

loop_
	_symmetry_equiv_pos_as_xyz
	x,y,z

loop_
	_atom_site_label
	_atom_site_type_symbol
	_atom_site_fract_x
	_atom_site_fract_y
	_atom_site_fract_z
	H0	H	0.395500	0.862083	0.735421
	H1	H	0.607946	0.176030	0.728732
	H2	H	0.612485	0.862311	0.287407
	H3	H	0.399235	0.173454	0.286734
	H4	H	0.726626	0.414501	0.851443
	H5	H	0.723592	0.618199	0.167230
	H6	H	0.283593	0.625049	0.852852
	H7	H	0.285192	0.412396	0.164873
	H8	H	0.849499	0.738298	0.404865
	H9	H	0.161946	0.744608	0.621054
	H10	H	0.847498	0.300221	0.612629
	H11	H	0.163918	0.296108	0.405030
	H12	H	0.848108	0.414484	0.730059
	H13	H	0.160928	0.628676	0.737309
	H14	H	0.849475	0.622233	0.288930
	H15	H	0.163949	0.409815	0.286983
	H16	H	0.397850	0.742571	0.854066
	H17	H	0.612101	0.740116	0.164357
	H18	H	0.610154	0.298831	0.850224
	H19	H	0.399224	0.293665	0.163666
	H20	H	0.726380	0.861327	0.406890
	H21	H	0.724958	0.175690	0.612341
	H22	H	0.281235	0.861849	0.617786
	H23	H	0.285692	0.174959	0.405320
	H24	H	0.908115	0.359513	0.226484
	H25	H	0.112763	0.674870	0.231397
	H26	H	0.113607	0.363464	0.786455
	H27	H	0.899096	0.674829	0.785918
	H28	H	0.227210	0.913572	0.352622
	H29	H	0.226355	0.121114	0.666500
	H30	H	0.786703	0.121563	0.352276
	H31	H	0.787260	0.916100	0.666710
	H32	H	0.347622	0.239532	0.903686
	H33	H	0.664532	0.234870	0.109599
	H34	H	0.349328	0.794053	0.116567
	H35	H	0.662769	0.797784	0.905879
	H36	H	0.348876	0.909683	0.232394
	H37	H	0.662811	0.121138	0.229106
	H38	H	0.346781	0.123469	0.788277
	H39	H	0.661351	0.912160	0.786828
	H40	H	0.904585	0.237496	0.351993
	H41	H	0.108241	0.236459	0.667548
	H42	H	0.115459	0.794312	0.353499
	H43	H	0.900656	0.795677	0.664897
	H44	H	0.229475	0.363151	0.902911
	H45	H	0.227186	0.675891	0.112765
	H46	H	0.790674	0.359020	0.109523
	H47	H	0.785250	0.675931	0.905097
	H48	H	0.424682	0.123910	0.592869
	H49	H	0.591785	0.906713	0.602045
	H50	H	0.596708	0.132930	0.414700
	H51	H	0.421010	0.907802	0.424973
	H52	H	0.596356	0.423384	0.121817
	H53	H	0.596400	0.608924	0.895649
	H54	H	0.407233	0.597808	0.121418
	H55	H	0.410030	0.428830	0.893321
	H56	H	0.118355	0.606469	0.428158
	H57	H	0.899595	0.599758	0.590420
	H58	H	0.118448	0.432519	0.599979
	H59	H	0.891161	0.423805	0.417388
	H60	H	0.120280	0.426649	0.600984
	H61	H	0.894092	0.602680	0.603272
	H62	H	0.119414	0.600727	0.418044
	H63	H	0.895503	0.430463	0.423185
	H64	H	0.430117	0.599833	0.114578
	H65	H	0.594613	0.604433	0.898088
	H66	H	0.597666	0.424698	0.121214
	H67	H	0.420258	0.436811	0.900050
	H68	H	0.589656	0.129601	0.416805
	H69	H	0.595721	0.907376	0.595770
	H70	H	0.408050	0.131132	0.593341
	H71	H	0.412987	0.904049	0.422086
	H72	H	0.914412	0.633436	0.105979
	H73	H	0.094329	0.408813	0.094964
	H74	H	0.093058	0.630915	0.919347
	H75	H	0.913959	0.407440	0.927240
	H76	H	0.092309	0.933666	0.618359
	H77	H	0.102988	0.107316	0.394483
	H78	H	0.916886	0.110553	0.622582
	H79	H	0.915925	0.932613	0.397321
	H80	H	0.618121	0.107686	0.919908
	H81	H	0.395969	0.099305	0.093804
	H82	H	0.617109	0.931014	0.101056
	H83	H	0.391252	0.927468	0.920574
	H84	H	0.618499	0.926134	0.096888
	H85	H	0.389599	0.106262	0.105475
	H86	H	0.618561	0.105370	0.917192
	H87	H	0.393848	0.931265	0.926658
	H88	H	0.913368	0.111714	0.624213
	H89	H	0.090721	0.101970	0.400825
	H90	H	0.089403	0.929373	0.618908
	H91	H	0.920792	0.927311	0.397378
	H92	H	0.087764	0.627882	0.923848
	H93	H	0.099777	0.404788	0.099713
	H94	H	0.918400	0.630295	0.098621
	H95	H	0.911780	0.402241	0.914397
	H96	H	0.418611	0.131192	0.608056
	H97	H	0.598588	0.904042	0.602126
	H98	H	0.595947	0.129812	0.422372
	H99	H	0.419916	0.904791	0.416614
	H100	H	0.596103	0.424774	0.121171
	H101	H	0.591044	0.608539	0.897092
	H102	H	0.419208	0.618490	0.124938
	H103	H	0.423333	0.423365	0.895792
	H104	H	0.122241	0.611764	0.418676
	H105	H	0.894477	0.612616	0.593012
	H106	H	0.118166	0.428319	0.595045
	H107	H	0.893323	0.432857	0.414170
	H108	H	0.909792	0.632079	0.098524
	H109	H	0.092173	0.406593	0.102571
	H110	H	0.094458	0.629288	0.926362
	H111	H	0.924143	0.408147	0.916942
	H112	H	0.094667	0.929828	0.620577
	H113	H	0.090712	0.115989	0.396292
	H114	H	0.913468	0.108204	0.622751
	H115	H	0.913814	0.926350	0.395325
	H116	H	0.619324	0.109056	0.916793
	H117	H	0.391038	0.113732	0.092835
	H118	H	0.615749	0.932247	0.094508
	H119	H	0.393732	0.935084	0.920071
	C120	C	0.383522	0.025964	0.631321
	C121	C	0.626590	1.010035	0.631298
	C122	C	0.626882	0.026869	0.387290
	C123	C	0.384761	1.008892	0.388535
	C124	C	0.628095	0.394434	0.016985
	C125	C	0.626480	0.638644	1.000719
	C126	C	0.384799	0.639345	0.017644
	C127	C	0.384872	0.396532	0.999600
	C128	C	0.016003	0.638882	0.388374
	C129	C	0.998553	0.639955	0.630818
	C130	C	0.014527	0.397476	0.630699
	C131	C	0.997918	0.396868	0.387492
	C132	C	0.885388	0.526603	0.130758
	C133	C	0.128457	0.509816	0.131483
	C134	C	0.125914	0.526705	0.889244
	C135	C	0.884259	0.509770	0.887408
	C136	C	0.126421	0.897294	0.517027
	C137	C	0.127113	0.140094	0.501082
	C138	C	0.883915	0.140778	0.518665
	C139	C	0.884888	0.896906	0.500650
	C140	C	0.513856	0.139484	0.886606
	C141	C	0.496763	0.138061	0.128849
	C142	C	0.513656	0.896093	0.130540
	C143	C	0.496527	0.897680	0.888979
	C144	C	0.378854	0.908831	0.693847
	C145	C	0.627179	0.128537	0.689519
	C146	C	0.630194	0.908995	0.328010
	C147	C	0.381428	0.126574	0.327495
	C148	C	0.686981	0.395145	0.898536
	C149	C	0.685374	0.638779	0.119442
	C150	C	0.323435	0.643130	0.900048
	C151	C	0.324854	0.393892	0.117607
	C152	C	0.897040	0.698647	0.386128
	C153	C	0.115082	0.703240	0.637217
	C154	C	0.895147	0.339107	0.631882
	C155	C	0.116510	0.336235	0.386297
	C156	C	0.895504	0.396113	0.690140
	C157	C	0.114801	0.645471	0.695184
	C158	C	0.897012	0.640779	0.328700
	C159	C	0.116655	0.393110	0.327695
	C160	C	0.380399	0.701459	0.900701
	C161	C	0.629864	0.699034	0.118001
	C162	C	0.629254	0.337276	0.898035
	C163	C	0.381618	0.334855	0.116887
	C164	C	0.686701	0.908579	0.387346
	C165	C	0.685213	0.128631	0.631610
	C166	C	0.321828	0.908515	0.635184
	C167	C	0.324850	0.127309	0.386474
	C168	C	0.887327	0.406918	0.187720
	C169	C	0.131304	0.627854	0.191304
	C170	C	0.130525	0.409904	0.827546
	C171	C	0.881152	0.627804	0.826793
	C172	C	0.188084	0.894419	0.399885
	C173	C	0.186493	0.140306	0.619506
	C174	C	0.826206	0.141008	0.399402
	C175	C	0.826551	0.896342	0.619294
	C176	C	0.394856	0.199416	0.885181
	C177	C	0.616369	0.196252	0.129536
	C178	C	0.396088	0.834682	0.134149
	C179	C	0.615274	0.837460	0.886948
	C180	C	0.395920	0.892267	0.191767
	C181	C	0.615714	0.139464	0.188618
	C182	C	0.394455	0.141434	0.827961
	C183	C	0.614527	0.894054	0.827819
	C184	C	0.884457	0.198510	0.399283
	C185	C	0.127942	0.197749	0.619917
	C186	C	0.132082	0.835241	0.400364
	C187	C	0.882760	0.836402	0.618278
	C188	C	0.188371	0.409832	0.885405
	C189	C	0.188042	0.628300	0.132301
	C190	C	0.829516	0.406747	0.129381
	C191	C	0.824439	0.628322	0.885938
	C192	C	0.409594	0.107529	0.605257
	C193	C	0.602321	0.927469	0.607111
	C194	C	0.601496	0.109371	0.411240
	C195	C	0.410439	0.926863	0.413936
	C196	C	0.603607	0.417532	0.099781
	C197	C	0.601221	0.614256	0.918384
	C198	C	0.411269	0.612937	0.099031
	C199	C	0.410469	0.422250	0.917657
	C200	C	0.098517	0.613467	0.414096
	C201	C	0.917243	0.612796	0.603282
	C202	C	0.097321	0.422145	0.605850
	C203	C	0.915064	0.422274	0.411509
	C204	C	0.907995	0.610200	0.107857
	C205	C	0.102839	0.427965	0.106434
	C206	C	0.099315	0.608206	0.915551
	C207	C	0.909556	0.427372	0.912223
	C208	C	0.099743	0.923421	0.598237
	C209	C	0.101919	0.115606	0.418690
	C210	C	0.907666	0.117161	0.601636
	C211	C	0.909595	0.921926	0.418013
	C212	C	0.597204	0.114649	0.910997
	C213	C	0.413846	0.113486	0.104416
	C214	C	0.595714	0.922251	0.104823
	C215	C	0.414462	0.923864	0.915010
	Zn216	Zn	0.504492	0.017969	0.759564
	Zn217	Zn	0.505220	0.016995	0.258781
	Zn218	Zn	0.755787	0.517705	0.009103
	Zn219	Zn	0.256304	0.518878	0.009123
	Zn220	Zn	0.006897	0.767963	0.508713
	Zn221	Zn	0.005553	0.269037	0.509829
	Zn222	Zn	0.006046	0.518502	0.759105
	Zn223	Zn	0.007396	0.518333	0.259896
	Zn224	Zn	0.505257	0.768240	0.009457
	Zn225	Zn	0.505596	0.267023	0.007482
	Zn226	Zn	0.755749	0.018878	0.509685
	Zn227	Zn	0.255439	0.017700	0.509060
	N228	N	0.416424	0.982864	0.691648
	N229	N	0.591542	0.053641	0.689378
	N230	N	0.593765	0.983600	0.327797
	N231	N	0.417885	0.052028	0.328439
	N232	N	0.686854	0.429700	0.973715
	N233	N	0.683663	0.602197	0.045302
	N234	N	0.325967	0.605379	0.973917
	N235	N	0.326627	0.431461	0.043670
	N236	N	0.972147	0.697741	0.422426
	N237	N	0.041783	0.699641	0.597602
	N238	N	0.970133	0.339783	0.595683
	N239	N	0.041639	0.338303	0.422897
	N240	N	0.970913	0.431611	0.689661
	N241	N	0.041238	0.606800	0.691277
	N242	N	0.972190	0.604691	0.329679
	N243	N	0.041920	0.430348	0.328535
	N244	N	0.417759	0.699337	0.974887
	N245	N	0.594307	0.699355	0.042970
	N246	N	0.593563	0.336647	0.972884
	N247	N	0.418036	0.336233	0.042366
	N248	N	0.684977	0.983118	0.423328
	N249	N	0.685011	0.053865	0.595982
	N250	N	0.324626	0.982211	0.596847
	N251	N	0.326923	0.053133	0.423799
	N252	N	0.920988	0.482808	0.188864
	N253	N	0.095328	0.553053	0.191170
	N254	N	0.092381	0.483825	0.829804
	N255	N	0.917152	0.552942	0.827306
	N256	N	0.184719	0.932456	0.473291
	N257	N	0.186336	0.105407	0.544408
	N258	N	0.825365	0.106193	0.474753
	N259	N	0.827601	0.933097	0.544791
	N260	N	0.470179	0.198258	0.920885
	N261	N	0.541287	0.195677	0.093198
	N262	N	0.470385	0.836987	0.096813
	N263	N	0.540903	0.839630	0.924221
	N264	N	0.470282	0.929992	0.189577
	N265	N	0.540410	0.104033	0.188370
	N266	N	0.469634	0.105169	0.828589
	N267	N	0.539542	0.930518	0.828821
	N268	N	0.919105	0.198739	0.474587
	N269	N	0.092053	0.197827	0.545184
	N270	N	0.094719	0.836791	0.474394
	N271	N	0.918091	0.836649	0.543258
	N272	N	0.185613	0.483422	0.922998
	N273	N	0.186462	0.553892	0.095913
	N274	N	0.827904	0.482297	0.094982
	N275	N	0.825906	0.553786	0.922734
	O276	O	0.809796	1.061536	-0.180025
	H277	H	0.792956	1.069942	-0.182206
	H278	H	0.823938	1.089528	-0.188542
	O279	O	-0.291524	-0.275089	0.713398
	H280	H	-0.339852	-0.270427	0.715513
	H281	H	-0.274417	-0.258198	0.711024
	O282	O	0.727751	0.475409	0.286404
	H283	H	0.731852	0.457640	0.292141
	H284	H	0.747118	0.482903	0.264657
	O285	O	0.797937	0.155333	0.900022
	H286	H	0.793910	0.157795	0.903187
	H287	H	0.806887	0.168063	0.878431
	O288	O	0.942626	0.222283	1.054313
	H289	H	0.922505	0.226572	1.039904
	H290	H	0.950525	0.211842	1.041237
	O291	O	0.493621	0.608326	0.393440
	H292	H	0.484504	0.603412	0.387188
	H293	H	0.488485	0.608686	0.386821
	O294	O	-0.092097	0.031728	0.065068
	H295	H	-0.110011	0.033282	0.068390
	H296	H	-0.093393	0.032616	0.079113
	O297	O	0.826650	0.201476	0.194414
	H298	H	0.836012	0.180550	0.172450
	H299	H	0.852380	0.186793	0.182653
	O300	O	0.226737	0.051066	0.178826
	H301	H	0.234751	0.068463	0.188764
	H302	H	0.229779	0.076168	0.187540
	O303	O	0.025059	-0.185193	-0.197356
	H304	H	0.016482	-0.194496	-0.192965
	H305	H	0.020562	-0.190907	-0.203099
	O306	O	0.991586	-0.006724	-0.070238
	H307	H	0.982553	-0.000606	-0.080389
	H308	H	0.995656	0.010332	-0.076534
	O309	O	0.348930	0.491094	0.514619
	H310	H	0.348084	0.472009	0.536353
	H311	H	0.368489	0.500263	0.525086
	O312	O	0.685675	0.496365	0.530335
	H313	H	0.693225	0.487661	0.527790
	H314	H	0.692536	0.496979	0.549698
	O315	O	0.721906	0.719994	0.536498
	H316	H	0.741096	0.732214	0.529890
	H317	H	0.724263	0.717241	0.550371
	O318	O	0.988327	0.964882	-0.178792
	H319	H	0.981270	0.971088	-0.189419
	H320	H	1.003205	0.969691	-0.172856
	O321	O	0.301915	0.320646	0.713122
	H322	H	0.348744	0.313370	0.711915
	H323	H	0.288453	0.340544	0.712151
	O324	O	0.431973	0.602845	1.514764
	H325	H	0.433034	0.612776	1.520400
	H326	H	0.445109	0.608445	1.513133
	O327	O	0.292163	0.491054	0.719076
	H328	H	0.312506	0.480407	0.718664
	H329	H	0.273288	0.500688	0.738038
	O330	O	-0.208627	0.803956	0.044914
	H331	H	-0.223621	0.796502	0.043895
	H332	H	-0.202207	0.797465	0.027185
	O333	O	0.540342	0.347583	0.466971
	H334	H	0.551033	0.349250	0.454659
	H335	H	0.537898	0.342986	0.461165
	O336	O	0.468711	0.308813	0.719353
	H337	H	0.480520	0.297387	0.718649
	H338	H	0.489908	0.320819	0.731848
	O339	O	0.557350	0.592262	0.380175
	H340	H	0.555946	0.580739	0.371646
	H341	H	0.537493	0.588155	0.371337
	O342	O	0.085343	1.195455	-0.016813
	H343	H	0.076925	1.189749	-0.008612
	H344	H	0.116690	1.206774	0.003455
	O345	O	0.373728	0.534753	0.609694
	H346	H	0.388229	0.532212	0.612363
	H347	H	0.379634	0.544087	0.611498
	O348	O	0.990861	-0.078728	-0.106232
	H349	H	0.989308	-0.082223	-0.092656
	H350	H	0.992718	-0.067308	-0.118185
	O351	O	0.161835	0.197807	0.861790
	H352	H	0.163411	0.199724	0.877911
	H353	H	0.172842	0.187153	0.857643
	O354	O	1.308116	-0.280215	1.307510
	H355	H	1.320597	-0.289800	1.332879
	H356	H	1.296575	-0.308220	1.294927
	O357	O	0.606619	0.435343	0.702863
	H358	H	0.602978	0.442170	0.706976
	H359	H	0.623545	0.455731	0.686209
	O360	O	0.722816	0.551302	0.728549
	H361	H	0.725028	0.581038	0.730477
	H362	H	0.745035	0.564221	0.744821
	O363	O	0.897288	0.232479	-0.202464
	H364	H	0.930531	0.231237	-0.209402
	H365	H	0.900105	0.241575	-0.206282
	O366	O	1.015809	0.115555	0.897382
	H367	H	1.028675	0.103277	0.892581
	H368	H	1.018075	0.133074	0.901792
	O369	O	-0.190171	-0.119762	0.846995
	H370	H	-0.169925	-0.103129	0.846070
	H371	H	-0.192433	-0.109463	0.852785
	O372	O	0.205650	0.814573	0.988483
	H373	H	0.219691	0.821645	1.010936
	H374	H	0.216364	0.813154	1.003161
	O375	O	1.132412	-0.039236	0.076860
	H376	H	1.124929	-0.027565	0.073854
	H377	H	1.141543	-0.021446	0.087700
	O378	O	0.627873	0.582968	0.506015
	H379	H	0.627431	0.571492	0.517312
	H380	H	0.636674	0.579071	0.487437
	O381	O	0.112494	0.831013	0.104435
	H382	H	0.117480	0.831524	0.102573
	H383	H	0.107848	0.853142	0.099434
	O384	O	0.457113	0.317540	0.476261
	H385	H	0.464165	0.320983	0.485402
	H386	H	0.438440	0.311175	0.485471
	O387	O	-0.029559	1.002657	0.945573
	H388	H	-0.031992	1.006606	0.943043
	H389	H	-0.031132	1.023532	0.943553
	O390	O	0.217949	1.233271	1.035900
	H391	H	0.236966	1.244628	1.051746
	H392	H	0.230956	1.225148	1.052022
	O393	O	1.034593	0.208874	0.205308
	H394	H	1.018137	0.189396	0.198938
	H395	H	1.020630	0.203791	0.203563
	O396	O	0.508606	0.352744	0.300026
	H397	H	0.491223	0.349722	0.288366
	H398	H	0.512262	0.348502	0.301728
	O399	O	0.981959	0.808627	0.224924
	H400	H	0.990976	0.794738	0.224172
	H401	H	0.971163	0.800443	0.230796
	O402	O	0.805786	-0.184374	1.214984
	H403	H	0.801661	-0.207263	1.236236
	H404	H	0.809469	-0.190772	1.176901
	O405	O	0.333192	0.335021	0.330937
	H406	H	0.352111	0.345128	0.348056
	H407	H	0.337525	0.351746	0.339087
	O408	O	0.978305	0.884561	1.023777
	H409	H	0.985392	0.887586	1.024589
	H410	H	0.979684	0.876826	1.028341
	O411	O	1.208146	1.018057	-0.180725
	H412	H	1.214226	0.990237	-0.173736
	H413	H	1.221098	1.010856	-0.200069
	O414	O	-0.209879	0.231155	-0.023978
	H415	H	-0.217668	0.239565	-0.039157
	H416	H	-0.224574	0.235708	-0.034966
	O417	O	0.538442	0.730774	0.725599
	H418	H	0.518841	0.741568	0.717614
	H419	H	0.527981	0.742634	0.724668
	O420	O	0.537784	-0.450103	0.583979
	H421	H	0.523344	-0.444176	0.587885
	H422	H	0.544519	-0.456075	0.594905
	O423	O	0.914604	0.948889	0.216277
	H424	H	0.917638	0.920267	0.226360
	H425	H	0.911814	0.948332	0.229694
	O426	O	0.000234	1.044604	0.197034
	H427	H	-0.002591	1.034852	0.180276
	H428	H	-0.005178	1.021886	0.201884
	O429	O	0.615582	0.479440	0.552658
	H430	H	0.630864	0.479233	0.558527
	H431	H	0.604509	0.492553	0.550528
	O432	O	0.597165	0.593735	0.392587
	H433	H	0.608756	0.584774	0.387634
	H434	H	0.615687	0.591694	0.400688
	O435	O	0.711742	0.307420	0.299145
	H436	H	0.692660	0.311390	0.291626
	H437	H	0.738928	0.289092	0.274499
	O438	O	0.281572	0.299727	0.546714
	H439	H	0.287003	0.306011	0.570347
	H440	H	0.257085	0.270839	0.551231
	O441	O	0.274128	0.533002	0.511767
	H442	H	0.276622	0.529535	0.527362
	H443	H	0.276796	0.518324	0.524872
	O444	O	0.288045	0.548251	0.290507
	H445	H	0.254059	0.541508	0.273766
	H446	H	0.283118	0.526446	0.314545
	O447	O	0.704815	0.301760	0.487774
	H448	H	0.714298	0.288135	0.466282
	H449	H	0.713268	0.296180	0.466414
	O450	O	1.204056	0.217903	0.210228
	H451	H	1.217914	0.236561	0.218889
	H452	H	1.160345	0.222543	0.218879
	O453	O	0.292176	0.736669	0.493619
	H454	H	0.279707	0.727294	0.487631
	H455	H	0.268440	0.737823	0.489386
	O456	O	0.155736	1.036781	1.055042
	H457	H	0.159627	1.022846	1.053243
	H458	H	0.147521	1.038664	1.043288
	O459	O	0.622660	-0.669333	0.630534
	H460	H	0.619404	-0.670761	0.605996
	H461	H	0.621403	-0.657372	0.639601
	O462	O	0.546643	0.741789	0.494342
	H463	H	0.533011	0.743873	0.472526
	H464	H	0.571241	0.746635	0.494104
	O465	O	0.484020	0.479881	0.294158
	H466	H	0.489870	0.477545	0.294643
	H467	H	0.477187	0.487028	0.295581
	O468	O	-0.204830	0.981339	0.062616
	H469	H	-0.210331	0.980548	0.061490
	H470	H	-0.209388	0.985545	0.073410
	O471	O	0.661314	0.679121	0.316082
	H472	H	0.653486	0.658783	0.323701
	H473	H	0.633606	0.683705	0.322155
	O474	O	0.433368	0.735200	0.591595
	H475	H	0.417394	0.743360	0.570431
	H476	H	0.431897	0.733251	0.577809
	O477	O	0.188305	-0.164662	0.824052
	H478	H	0.163761	-0.166873	0.831831
	H479	H	0.187535	-0.170206	0.856875
