data_Molecule from HDF5

_cell_length_a		16.287735
_cell_length_b		16.219886
_cell_length_c		16.162566
_cell_angle_alpha	89.739824
_cell_angle_beta	89.586656
_cell_angle_gamma	90.094091
_symmetry_space_group_name_H-M	'P 1'
_symmetry_Int_Tables_number		1

loop_
	_symmetry_equiv_pos_as_xyz
	x,y,z

loop_
	_atom_site_label
	_atom_site_type_symbol
	_atom_site_fract_x
	_atom_site_fract_y
	_atom_site_fract_z
	H0	H	0.403292	0.848161	0.718189
	H1	H	0.601532	0.175888	0.713360
	H2	H	0.602998	0.846361	0.287545
	H3	H	0.407875	0.175485	0.289229
	H4	H	0.719022	0.412682	0.837811
	H5	H	0.716762	0.610499	0.167336
	H6	H	0.289212	0.611625	0.838547
	H7	H	0.286502	0.410879	0.166326
	H8	H	0.841904	0.727489	0.402417
	H9	H	0.167906	0.723882	0.599271
	H10	H	0.840490	0.293618	0.602685
	H11	H	0.168813	0.298419	0.403334
	H12	H	0.839285	0.410341	0.717751
	H13	H	0.167688	0.607559	0.714888
	H14	H	0.839294	0.607838	0.291274
	H15	H	0.167225	0.412821	0.285838
	H16	H	0.404673	0.727339	0.838192
	H17	H	0.599697	0.724107	0.168092
	H18	H	0.603510	0.298571	0.837548
	H19	H	0.402411	0.295736	0.167220
	H20	H	0.720181	0.847529	0.400991
	H21	H	0.720021	0.174244	0.601174
	H22	H	0.288126	0.847091	0.603590
	H23	H	0.290603	0.174475	0.402260
	H24	H	0.903257	0.345878	0.218617
	H25	H	0.101802	0.675285	0.214835
	H26	H	0.101416	0.346292	0.789145
	H27	H	0.904999	0.674428	0.787245
	H28	H	0.220647	0.911163	0.338061
	H29	H	0.215821	0.108420	0.666813
	H30	H	0.791004	0.113235	0.336735
	H31	H	0.785822	0.908891	0.664797
	H32	H	0.339895	0.226745	0.902669
	H33	H	0.666761	0.227737	0.100071
	H34	H	0.339571	0.795997	0.105145
	H35	H	0.666238	0.796948	0.900756
	H36	H	0.340445	0.912026	0.218916
	H37	H	0.667728	0.110612	0.213840
	H38	H	0.339902	0.110585	0.787791
	H39	H	0.666332	0.913453	0.785926
	H40	H	0.908792	0.225157	0.336862
	H41	H	0.101845	0.222070	0.665911
	H42	H	0.103148	0.798814	0.336493
	H43	H	0.902849	0.794736	0.666246
	H44	H	0.220974	0.348580	0.899685
	H45	H	0.219670	0.673158	0.103908
	H46	H	0.786785	0.347156	0.103309
	H47	H	0.789806	0.675712	0.902080
	H48	H	0.405720	0.128643	0.590376
	H49	H	0.599614	0.893730	0.590589
	H50	H	0.592733	0.125886	0.409197
	H51	H	0.409742	0.896076	0.420626
	H52	H	0.597493	0.418444	0.121068
	H53	H	0.600315	0.598642	0.886262
	H54	H	0.419517	0.598365	0.115178
	H55	H	0.413236	0.421292	0.886347
	H56	H	0.122202	0.613537	0.411207
	H57	H	0.886218	0.602905	0.598484
	H58	H	0.113076	0.429609	0.583705
	H59	H	0.888895	0.421823	0.409594
	H60	H	0.124449	0.420294	0.614168
	H61	H	0.887123	0.605378	0.592459
	H62	H	0.116571	0.596737	0.413273
	H63	H	0.885570	0.413923	0.408892
	H64	H	0.408921	0.614224	0.123593
	H65	H	0.590288	0.606340	0.886677
	H66	H	0.593449	0.422227	0.118353
	H67	H	0.413484	0.416861	0.883989
	H68	H	0.602031	0.127925	0.411376
	H69	H	0.592324	0.893546	0.597950
	H70	H	0.408408	0.130123	0.598251
	H71	H	0.402605	0.889035	0.404736
	H72	H	0.900775	0.631113	0.099903
	H73	H	0.090413	0.398467	0.082992
	H74	H	0.096976	0.627890	0.910427
	H75	H	0.906216	0.392761	0.910978
	H76	H	0.095277	0.911133	0.621002
	H77	H	0.109844	0.099140	0.381895
	H78	H	0.909864	0.103920	0.619679
	H79	H	0.915579	0.918803	0.384745
	H80	H	0.620914	0.110691	0.907275
	H81	H	0.383572	0.117304	0.093678
	H82	H	0.616825	0.917631	0.085134
	H83	H	0.385438	0.914100	0.913779
	H84	H	0.619767	0.925358	0.098002
	H85	H	0.392988	0.096323	0.083656
	H86	H	0.617929	0.103800	0.910586
	H87	H	0.388885	0.924321	0.913319
	H88	H	0.908333	0.098779	0.619209
	H89	H	0.090257	0.098012	0.387204
	H90	H	0.101625	0.919972	0.620459
	H91	H	0.910645	0.916679	0.383413
	H92	H	0.097757	0.628221	0.908116
	H93	H	0.105152	0.390273	0.094002
	H94	H	0.915681	0.627072	0.101667
	H95	H	0.910696	0.393866	0.908394
	H96	H	0.413586	0.127556	0.592688
	H97	H	0.590562	0.896863	0.588543
	H98	H	0.599457	0.130181	0.402544
	H99	H	0.420843	0.894562	0.405602
	H100	H	0.592542	0.416801	0.120169
	H101	H	0.601621	0.610902	0.881897
	H102	H	0.400398	0.596184	0.120823
	H103	H	0.408926	0.420051	0.884268
	H104	H	0.123436	0.602149	0.396982
	H105	H	0.888816	0.599197	0.593869
	H106	H	0.123788	0.397772	0.588838
	H107	H	0.888757	0.415316	0.416660
	H108	H	0.909310	0.625590	0.087170
	H109	H	0.087692	0.392976	0.102994
	H110	H	0.094081	0.627849	0.908452
	H111	H	0.910328	0.394208	0.913420
	H112	H	0.091207	0.920795	0.617642
	H113	H	0.097825	0.114918	0.380112
	H114	H	0.913372	0.101042	0.618198
	H115	H	0.911970	0.922562	0.385090
	H116	H	0.621844	0.103851	0.902776
	H117	H	0.385291	0.097393	0.107116
	H118	H	0.623229	0.910304	0.097427
	H119	H	0.384633	0.919827	0.904875
	C120	C	0.380767	0.020280	0.623945
	C121	C	0.623879	1.002871	0.621604
	C122	C	0.626832	0.019715	0.378713
	C123	C	0.383097	1.001817	0.380865
	C124	C	0.624209	0.390755	0.010947
	C125	C	0.625173	0.633713	0.993950
	C126	C	0.381357	0.633021	0.011256
	C127	C	0.382006	0.389765	0.993635
	C128	C	0.012755	0.632901	0.379404
	C129	C	0.995292	0.631381	0.623421
	C130	C	0.012366	0.386735	0.625290
	C131	C	0.995722	0.388636	0.381165
	C132	C	0.880121	0.519384	0.125358
	C133	C	0.123534	0.501983	0.122762
	C134	C	0.125226	0.519677	0.880322
	C135	C	0.881682	0.502434	0.881603
	C136	C	0.125605	0.888940	0.510711
	C137	C	0.126498	0.131607	0.492432
	C138	C	0.883221	0.131463	0.510067
	C139	C	0.882210	0.889064	0.492751
	C140	C	0.511899	0.134192	0.879289
	C141	C	0.495588	0.133075	0.123183
	C142	C	0.512230	0.888760	0.124253
	C143	C	0.494410	0.890265	0.880760
	C144	C	0.383043	0.896796	0.680356
	C145	C	0.621973	0.126503	0.676300
	C146	C	0.623511	0.895667	0.324699
	C147	C	0.386884	0.126094	0.326301
	C148	C	0.680754	0.392815	0.887119
	C149	C	0.679246	0.630822	0.117869
	C150	C	0.326896	0.631611	0.887359
	C151	C	0.324872	0.390641	0.117353
	C152	C	0.890024	0.688561	0.382429
	C153	C	0.118750	0.686195	0.620019
	C154	C	0.889211	0.331531	0.623085
	C155	C	0.119531	0.335454	0.382817
	C156	C	0.888624	0.389738	0.680308
	C157	C	0.118566	0.628498	0.677738
	C158	C	0.889024	0.629526	0.326634
	C159	C	0.118656	0.392151	0.324416
	C160	C	0.384176	0.689096	0.887479
	C161	C	0.621018	0.687160	0.118451
	C162	C	0.623363	0.336051	0.886954
	C163	C	0.382701	0.333627	0.117710
	C164	C	0.682058	0.896201	0.380969
	C165	C	0.680681	0.125821	0.619949
	C166	C	0.325728	0.896325	0.623350
	C167	C	0.328316	0.125484	0.382317
	C168	C	0.882475	0.395469	0.180947
	C169	C	0.121659	0.625690	0.177679
	C170	C	0.122237	0.395697	0.826088
	C171	C	0.884610	0.625708	0.825302
	C172	C	0.181974	0.891273	0.386877
	C173	C	0.179777	0.128855	0.616797
	C174	C	0.828625	0.131902	0.386089
	C175	C	0.824615	0.889367	0.616107
	C176	C	0.388947	0.189066	0.882221
	C177	C	0.618220	0.189193	0.120288
	C178	C	0.388816	0.833643	0.123972
	C179	C	0.617356	0.834957	0.881310
	C180	C	0.389045	0.891309	0.180673
	C181	C	0.618431	0.130971	0.177169
	C182	C	0.388769	0.131047	0.825350
	C183	C	0.617334	0.892739	0.823786
	C184	C	0.887056	0.187810	0.386086
	C185	C	0.122864	0.185348	0.616619
	C186	C	0.123686	0.835168	0.386145
	C187	C	0.883141	0.833028	0.616866
	C188	C	0.181807	0.396788	0.880913
	C189	C	0.180529	0.624762	0.122299
	C190	C	0.824446	0.396097	0.123758
	C191	C	0.827300	0.626227	0.882638
	C192	C	0.402770	0.106391	0.600709
	C193	C	0.601070	0.916761	0.598967
	C194	C	0.604742	0.105799	0.401159
	C195	C	0.404598	0.915608	0.403596
	C196	C	0.601012	0.412717	0.097550
	C197	C	0.603577	0.611811	0.907409
	C198	C	0.402983	0.609677	0.097507
	C199	C	0.405022	0.412864	0.907261
	C200	C	0.098716	0.610710	0.400933
	C201	C	0.909496	0.608934	0.601532
	C202	C	0.098251	0.409409	0.602478
	C203	C	0.909877	0.410482	0.404706
	C204	C	0.902194	0.605630	0.102920
	C205	C	0.100925	0.416066	0.099898
	C206	C	0.103020	0.605797	0.902506
	C207	C	0.902921	0.416177	0.904240
	C208	C	0.102679	0.910722	0.597233
	C209	C	0.105537	0.110244	0.405471
	C210	C	0.904240	0.107909	0.596639
	C211	C	0.905765	0.912439	0.406573
	C212	C	0.598018	0.112751	0.900753
	C213	C	0.409441	0.110197	0.101296
	C214	C	0.597781	0.911118	0.100465
	C215	C	0.408609	0.912711	0.903895
	Zn216	Zn	0.503010	0.011766	0.750935
	Zn217	Zn	0.504248	0.010755	0.251576
	Zn218	Zn	0.752581	0.511633	0.002411
	Zn219	Zn	0.252980	0.510885	0.002175
	Zn220	Zn	0.004062	0.760969	0.502066
	Zn221	Zn	0.004884	0.258794	0.502047
	Zn222	Zn	0.003465	0.510111	0.752695
	Zn223	Zn	0.003654	0.510310	0.252117
	Zn224	Zn	0.503028	0.761068	0.002877
	Zn225	Zn	0.503585	0.262057	0.002084
	Zn226	Zn	0.754222	0.011025	0.500969
	Zn227	Zn	0.253887	0.010530	0.501995
	N228	N	0.416690	0.974629	0.680553
	N229	N	0.587219	0.049019	0.677251
	N230	N	0.589974	0.973559	0.322984
	N231	N	0.420425	0.048287	0.325301
	N232	N	0.681390	0.426048	0.965274
	N233	N	0.681949	0.598349	0.039277
	N234	N	0.324963	0.597244	0.965425
	N235	N	0.324188	0.424835	0.039131
	N236	N	0.968041	0.690891	0.414282
	N237	N	0.041059	0.688211	0.587054
	N238	N	0.967310	0.329295	0.589941
	N239	N	0.042087	0.333008	0.417251
	N240	N	0.966241	0.423347	0.681872
	N241	N	0.040748	0.595176	0.680047
	N242	N	0.966456	0.595583	0.324601
	N243	N	0.040591	0.424416	0.323295
	N244	N	0.417077	0.690103	0.965577
	N245	N	0.588144	0.689168	0.040235
	N246	N	0.589108	0.334460	0.965058
	N247	N	0.417364	0.333090	0.039820
	N248	N	0.684481	0.974301	0.413588
	N249	N	0.681841	0.047959	0.586626
	N250	N	0.324240	0.973995	0.588994
	N251	N	0.325850	0.047317	0.415591
	N252	N	0.916098	0.473249	0.182445
	N253	N	0.087028	0.548356	0.178164
	N254	N	0.087636	0.473078	0.825539
	N255	N	0.917921	0.547855	0.824676
	N256	N	0.183333	0.924080	0.465261
	N257	N	0.182086	0.096070	0.538392
	N258	N	0.825890	0.097542	0.464231
	N259	N	0.823972	0.923610	0.538048
	N260	N	0.466603	0.191138	0.915203
	N261	N	0.540548	0.190465	0.087544
	N262	N	0.466392	0.831878	0.089479
	N263	N	0.540037	0.833245	0.916004
	N264	N	0.466459	0.925100	0.180807
	N265	N	0.541088	0.096858	0.179040
	N266	N	0.466207	0.097597	0.823257
	N267	N	0.539901	0.926560	0.823538
	N268	N	0.920206	0.187578	0.464188
	N269	N	0.090575	0.187448	0.538287
	N270	N	0.089132	0.833709	0.464086
	N271	N	0.918278	0.832761	0.539186
	N272	N	0.183661	0.474706	0.914084
	N273	N	0.181815	0.546868	0.088619
	N274	N	0.822773	0.474149	0.090004
	N275	N	0.825175	0.548596	0.916851
	O276	O	0.075280	-0.052859	-0.092390
	H277	H	0.078078	-0.042917	-0.088814
	H278	H	0.083545	-0.056170	-0.079890
	O279	O	0.508144	0.483397	0.471105
	H280	H	0.511171	0.479010	0.463784
	H281	H	0.499996	0.483651	0.477417
	O282	O	0.547722	0.510508	0.493593
	H283	H	0.542358	0.513586	0.494712
	H284	H	0.552930	0.513947	0.483504
	O285	O	0.953705	0.073188	0.980708
	H286	H	0.944110	0.074118	0.980042
	H287	H	0.946711	0.070987	0.979388
	O288	O	1.007994	0.083246	-0.108641
	H289	H	1.012044	0.077202	-0.105993
	H290	H	1.002082	0.084885	-0.103749
	O291	O	0.550252	0.530349	0.570335
	H292	H	0.564391	0.531893	0.568371
	H293	H	0.560901	0.516576	0.567635
	O294	O	0.917065	0.050522	0.959203
	H295	H	0.918600	0.042937	0.959658
	H296	H	0.918989	0.051302	0.965210
	O297	O	0.008032	0.014945	0.099827
	H298	H	0.011173	0.021413	0.099988
	H299	H	0.013867	0.014306	0.107060
	O300	O	0.582354	0.558629	0.591602
	H301	H	0.586775	0.565704	0.595673
	H302	H	0.588739	0.546936	0.593715
	O303	O	0.972930	-0.073460	0.003454
	H304	H	0.982242	-0.069870	0.008838
	H305	H	0.969765	-0.080812	0.006011
	O306	O	0.935175	0.082501	-0.090899
	H307	H	0.921163	0.086753	-0.097148
	H308	H	0.941778	0.079435	-0.086402
	O309	O	-0.012053	-0.071825	1.045114
	H310	H	0.001766	-0.074180	1.044987
	H311	H	-0.014704	-0.085397	1.047599
	O312	O	0.965970	1.064724	0.994367
	H313	H	0.965979	1.053541	0.999260
	H314	H	0.957925	1.063656	0.986859
	O315	O	0.531873	0.445210	0.493832
	H316	H	0.529584	0.448493	0.486754
	H317	H	0.526149	0.442687	0.495853
	O318	O	0.454487	0.474463	0.506381
	H319	H	0.448655	0.479893	0.503269
	H320	H	0.461491	0.476662	0.509020
	O321	O	0.078522	0.952901	1.006477
	H322	H	0.058965	0.959726	1.006491
	H323	H	0.091192	0.957496	1.002998
	O324	O	0.110637	0.093500	0.067795
	H325	H	0.112314	0.094037	0.067650
	H326	H	0.109822	0.091496	0.058526
	O327	O	0.012832	-0.036305	1.028636
	H328	H	0.012625	-0.035253	1.021373
	H329	H	0.008657	-0.041074	1.026371
	O330	O	0.950103	0.919134	0.030683
	H331	H	0.950260	0.924458	0.032660
	H332	H	0.956031	0.909398	0.022819
	O333	O	0.506515	0.504648	0.472248
	H334	H	0.516127	0.516161	0.485829
	H335	H	0.503748	0.502968	0.473959
	O336	O	0.585073	0.540537	0.475903
	H337	H	0.590419	0.547072	0.472441
	H338	H	0.578670	0.534753	0.478760
	O339	O	0.987424	0.994456	-0.042957
	H340	H	0.975390	1.003500	-0.036680
	H341	H	0.992631	0.985412	-0.048007
	O342	O	0.440451	0.539993	0.528637
	H343	H	0.434672	0.543008	0.531130
	H344	H	0.444920	0.540217	0.536801
	O345	O	0.609835	0.488218	0.528549
	H346	H	0.615631	0.475881	0.519496
	H347	H	0.605358	0.484944	0.527998
	O348	O	-0.042537	-0.027156	0.065530
	H349	H	-0.039393	-0.036019	0.069673
	H350	H	-0.041781	-0.038619	0.061795
	O351	O	-0.004734	0.954765	0.964769
	H352	H	-0.009309	0.950355	0.953439
	H353	H	-0.005230	0.966736	0.970194
	O354	O	0.528498	0.494133	0.522483
	H355	H	0.525206	0.490849	0.522034
	H356	H	0.532014	0.494866	0.518052
	O357	O	0.052465	1.077116	1.084925
	H358	H	0.057416	1.083397	1.082455
	H359	H	0.045425	1.082837	1.086593
