data_Molecule from HDF5

_cell_length_a		16.289633
_cell_length_b		16.324934
_cell_length_c		16.180054
_cell_angle_alpha	89.943959
_cell_angle_beta	89.898702
_cell_angle_gamma	89.998003
_symmetry_space_group_name_H-M	'P 1'
_symmetry_Int_Tables_number		1

loop_
	_symmetry_equiv_pos_as_xyz
	x,y,z

loop_
	_atom_site_label
	_atom_site_type_symbol
	_atom_site_fract_x
	_atom_site_fract_y
	_atom_site_fract_z
	H0	H	0.408548	0.843340	0.717581
	H1	H	0.603818	0.170176	0.716436
	H2	H	0.603377	0.842335	0.290540
	H3	H	0.408743	0.170806	0.288782
	H4	H	0.720292	0.409171	0.838754
	H5	H	0.720629	0.605200	0.167064
	H6	H	0.294391	0.604386	0.838406
	H7	H	0.292153	0.406549	0.166810
	H8	H	0.843876	0.723372	0.402557
	H9	H	0.169529	0.721788	0.602499
	H10	H	0.842866	0.291698	0.603639
	H11	H	0.169079	0.289994	0.403535
	H12	H	0.842827	0.409228	0.717336
	H13	H	0.170503	0.603770	0.716449
	H14	H	0.842953	0.603628	0.289055
	H15	H	0.170227	0.407177	0.288672
	H16	H	0.407183	0.721609	0.839356
	H17	H	0.605544	0.721258	0.167042
	H18	H	0.605090	0.293954	0.838211
	H19	H	0.408886	0.292671	0.167104
	H20	H	0.722533	0.843832	0.403511
	H21	H	0.721235	0.169985	0.602806
	H22	H	0.290764	0.843983	0.603777
	H23	H	0.291364	0.170073	0.403876
	H24	H	0.909264	0.342439	0.215606
	H25	H	0.106359	0.669274	0.217626
	H26	H	0.104470	0.342275	0.789654
	H27	H	0.910022	0.669553	0.789168
	H28	H	0.221268	0.908981	0.339055
	H29	H	0.218332	0.103911	0.668400
	H30	H	0.793622	0.105143	0.338880
	H31	H	0.790684	0.907159	0.667371
	H32	H	0.344616	0.224167	0.902536
	H33	H	0.669916	0.221239	0.101672
	H34	H	0.342936	0.790910	0.102739
	H35	H	0.669865	0.791900	0.902600
	H36	H	0.342376	0.908827	0.217429
	H37	H	0.670226	0.104636	0.216890
	H38	H	0.342902	0.104400	0.790071
	H39	H	0.670382	0.909700	0.788418
	H40	H	0.907192	0.220564	0.339751
	H41	H	0.102993	0.218924	0.668045
	H42	H	0.107276	0.791352	0.339256
	H43	H	0.906891	0.792209	0.667609
	H44	H	0.222784	0.342916	0.903271
	H45	H	0.222819	0.668508	0.102276
	H46	H	0.791423	0.343395	0.102000
	H47	H	0.791437	0.669186	0.903058
	H48	H	0.404868	0.123824	0.589801
	H49	H	0.607901	0.887018	0.597070
	H50	H	0.597921	0.123480	0.407491
	H51	H	0.414884	0.888830	0.401920
	H52	H	0.593229	0.413953	0.118954
	H53	H	0.612218	0.595183	0.883653
	H54	H	0.411639	0.595891	0.121109
	H55	H	0.404632	0.415947	0.882633
	H56	H	0.122436	0.600226	0.412596
	H57	H	0.890348	0.604498	0.587127
	H58	H	0.123039	0.409222	0.590318
	H59	H	0.889009	0.417702	0.404068
	H60	H	0.121966	0.416488	0.596899
	H61	H	0.893204	0.590299	0.594938
	H62	H	0.122247	0.597512	0.410772
	H63	H	0.886702	0.404520	0.408272
	H64	H	0.419019	0.596821	0.118253
	H65	H	0.590175	0.592501	0.889900
	H66	H	0.601237	0.407503	0.123515
	H67	H	0.421084	0.421177	0.888980
	H68	H	0.599535	0.121682	0.412850
	H69	H	0.592101	0.890899	0.601342
	H70	H	0.410656	0.126537	0.606110
	H71	H	0.419116	0.895001	0.416485
	H72	H	0.908983	0.624511	0.095933
	H73	H	0.100718	0.389454	0.096674
	H74	H	0.089474	0.617495	0.914957
	H75	H	0.916794	0.391769	0.913548
	H76	H	0.106057	0.917937	0.621923
	H77	H	0.102996	0.096518	0.385617
	H78	H	0.912309	0.092216	0.619534
	H79	H	0.917424	0.912314	0.386452
	H80	H	0.625458	0.102645	0.906543
	H81	H	0.390079	0.104871	0.092004
	H82	H	0.621334	0.923397	0.101307
	H83	H	0.391400	0.915676	0.913352
	H84	H	0.626427	0.903336	0.102085
	H85	H	0.391952	0.095211	0.094417
	H86	H	0.623738	0.102250	0.912651
	H87	H	0.389476	0.914393	0.907650
	H88	H	0.919262	0.104167	0.621031
	H89	H	0.095599	0.097515	0.387144
	H90	H	0.091197	0.916428	0.617521
	H91	H	0.911501	0.914333	0.385469
	H92	H	0.112828	0.623022	0.918064
	H93	H	0.098119	0.390485	0.094484
	H94	H	0.917301	0.622042	0.099038
	H95	H	0.906974	0.388392	0.911411
	H96	H	0.420621	0.120782	0.594012
	H97	H	0.597413	0.893410	0.585968
	H98	H	0.604168	0.123853	0.409129
	H99	H	0.404654	0.889472	0.413821
	H100	H	0.603724	0.418100	0.120393
	H101	H	0.598023	0.612665	0.882032
	H102	H	0.414990	0.603379	0.121173
	H103	H	0.418083	0.404108	0.883488
	H104	H	0.123148	0.599852	0.409504
	H105	H	0.887081	0.602953	0.603294
	H106	H	0.126237	0.407675	0.600325
	H107	H	0.892469	0.414290	0.417352
	H108	H	0.915492	0.620245	0.089926
	H109	H	0.101000	0.389978	0.092912
	H110	H	0.102181	0.626603	0.895969
	H111	H	0.914169	0.388218	0.903838
	H112	H	0.098820	0.904593	0.623520
	H113	H	0.099826	0.103878	0.384295
	H114	H	0.905872	0.103382	0.624795
	H115	H	0.915856	0.917916	0.387662
	H116	H	0.622670	0.096954	0.908753
	H117	H	0.388256	0.101771	0.101561
	H118	H	0.619592	0.911617	0.084211
	H119	H	0.389563	0.910137	0.911964
	C120	C	0.383967	0.015478	0.625467
	C121	C	0.627814	0.998460	0.623945
	C122	C	0.629115	0.015236	0.380988
	C123	C	0.384542	0.998788	0.381816
	C124	C	0.627916	0.385146	0.011949
	C125	C	0.628391	0.628397	0.993994
	C126	C	0.386172	0.627272	0.011593
	C127	C	0.385829	0.384848	0.994029
	C128	C	0.015004	0.628373	0.381237
	C129	C	0.998282	0.627758	0.624175
	C130	C	0.015141	0.384013	0.624961
	C131	C	0.997838	0.384016	0.381393
	C132	C	0.885142	0.514567	0.123833
	C133	C	0.129095	0.497500	0.124129
	C134	C	0.129696	0.514568	0.880830
	C135	C	0.884709	0.497540	0.880909
	C136	C	0.128544	0.884353	0.512340
	C137	C	0.127097	0.127380	0.494923
	C138	C	0.884685	0.127881	0.512690
	C139	C	0.885409	0.885394	0.494871
	C140	C	0.515390	0.128753	0.881499
	C141	C	0.497890	0.128950	0.124691
	C142	C	0.514594	0.884478	0.124847
	C143	C	0.498270	0.885101	0.881292
	C144	C	0.387423	0.892262	0.680164
	C145	C	0.624583	0.121410	0.678712
	C146	C	0.624905	0.891645	0.327184
	C147	C	0.387986	0.121873	0.326703
	C148	C	0.682776	0.388190	0.887782
	C149	C	0.683071	0.625749	0.117994
	C150	C	0.331351	0.625063	0.887876
	C151	C	0.329931	0.386319	0.117719
	C152	C	0.892604	0.684607	0.382625
	C153	C	0.120896	0.683444	0.622618
	C154	C	0.891777	0.329824	0.623368
	C155	C	0.120581	0.328489	0.383737
	C156	C	0.891819	0.388366	0.679671
	C157	C	0.121368	0.624919	0.679250
	C158	C	0.891891	0.625239	0.326076
	C159	C	0.121214	0.386945	0.326801
	C160	C	0.387712	0.683165	0.888033
	C161	C	0.625862	0.683402	0.117876
	C162	C	0.626007	0.330732	0.887802
	C163	C	0.387871	0.329582	0.117658
	C164	C	0.684148	0.892324	0.383350
	C165	C	0.682977	0.121177	0.621982
	C166	C	0.328634	0.892801	0.623782
	C167	C	0.329936	0.121648	0.384249
	C168	C	0.888060	0.391491	0.178750
	C169	C	0.126782	0.620315	0.179864
	C170	C	0.125612	0.391328	0.826790
	C171	C	0.888509	0.620686	0.826504
	C172	C	0.183607	0.887783	0.388251
	C173	C	0.181109	0.124471	0.619061
	C174	C	0.830625	0.125204	0.388376
	C175	C	0.829143	0.887070	0.618451
	C176	C	0.392742	0.184491	0.883443
	C177	C	0.620912	0.183913	0.122485
	C178	C	0.391679	0.828737	0.123209
	C179	C	0.621083	0.830038	0.882910
	C180	C	0.391192	0.887747	0.179538
	C181	C	0.621432	0.125548	0.179092
	C182	C	0.391924	0.125338	0.827366
	C183	C	0.621345	0.888484	0.826049
	C184	C	0.887047	0.182705	0.388706
	C185	C	0.123841	0.181678	0.618932
	C186	C	0.127025	0.829578	0.388347
	C187	C	0.886923	0.830089	0.618549
	C188	C	0.184311	0.391492	0.883523
	C189	C	0.184664	0.620365	0.122584
	C190	C	0.829590	0.391984	0.122102
	C191	C	0.829720	0.620398	0.883007
	C192	C	0.405741	0.101457	0.603293
	C193	C	0.605655	0.912526	0.601419
	C194	C	0.607071	0.100851	0.403138
	C195	C	0.406341	0.913193	0.403977
	C196	C	0.605953	0.406689	0.098433
	C197	C	0.606547	0.606519	0.907558
	C198	C	0.408545	0.605200	0.097783
	C199	C	0.407968	0.407225	0.907403
	C200	C	0.100520	0.605787	0.404072
	C201	C	0.912315	0.605740	0.601656
	C202	C	0.101548	0.404897	0.602487
	C203	C	0.911558	0.405835	0.403318
	C204	C	0.907291	0.600121	0.101557
	C205	C	0.106692	0.412160	0.101420
	C206	C	0.108046	0.600325	0.903131
	C207	C	0.906275	0.411453	0.903121
	C208	C	0.105535	0.906457	0.598665
	C209	C	0.105720	0.105910	0.408115
	C210	C	0.906153	0.106200	0.599328
	C211	C	0.908283	0.908003	0.408977
	C212	C	0.601834	0.106968	0.902993
	C213	C	0.412180	0.107012	0.102731
	C214	C	0.600238	0.906277	0.102466
	C215	C	0.412419	0.906902	0.904268
	Zn216	Zn	0.506456	0.007300	0.752898
	Zn217	Zn	0.506563	0.006447	0.252884
	Zn218	Zn	0.755851	0.506415	0.002818
	Zn219	Zn	0.258407	0.506228	0.003074
	Zn220	Zn	0.006781	0.757221	0.503453
	Zn221	Zn	0.005748	0.255427	0.503750
	Zn222	Zn	0.006947	0.505735	0.752876
	Zn223	Zn	0.006690	0.505962	0.252751
	Zn224	Zn	0.506583	0.756069	0.002975
	Zn225	Zn	0.507315	0.257069	0.002668
	Zn226	Zn	0.757286	0.006546	0.503472
	Zn227	Zn	0.255653	0.006659	0.503808
	N228	N	0.421116	0.969470	0.681143
	N229	N	0.590718	0.044114	0.679698
	N230	N	0.591598	0.969174	0.325343
	N231	N	0.421382	0.044444	0.325141
	N232	N	0.684073	0.421485	0.965768
	N233	N	0.685073	0.592575	0.039935
	N234	N	0.330461	0.590929	0.965609
	N235	N	0.328726	0.419991	0.039767
	N236	N	0.970184	0.686665	0.415806
	N237	N	0.043540	0.684867	0.588716
	N238	N	0.969522	0.326914	0.589915
	N239	N	0.042893	0.326950	0.417330
	N240	N	0.969583	0.421369	0.680469
	N241	N	0.044086	0.590816	0.680199
	N242	N	0.969196	0.591090	0.325024
	N243	N	0.043830	0.420615	0.325182
	N244	N	0.421226	0.684665	0.966038
	N245	N	0.592767	0.685153	0.039776
	N246	N	0.592389	0.328943	0.965877
	N247	N	0.421998	0.328650	0.039809
	N248	N	0.686814	0.970103	0.416037
	N249	N	0.685044	0.043647	0.588620
	N250	N	0.326671	0.970399	0.590266
	N251	N	0.327627	0.044143	0.417637
	N252	N	0.921858	0.468671	0.180128
	N253	N	0.092860	0.542995	0.180993
	N254	N	0.092212	0.468700	0.825163
	N255	N	0.921967	0.543315	0.825145
	N256	N	0.184756	0.920970	0.466406
	N257	N	0.183103	0.091286	0.540890
	N258	N	0.828924	0.091667	0.466451
	N259	N	0.828038	0.920873	0.540675
	N260	N	0.470539	0.186568	0.916131
	N261	N	0.543433	0.185674	0.088926
	N262	N	0.469456	0.826762	0.089569
	N263	N	0.543543	0.827891	0.916686
	N264	N	0.468427	0.921498	0.180723
	N265	N	0.543963	0.091969	0.180830
	N266	N	0.469191	0.091167	0.826221
	N267	N	0.543876	0.922042	0.825033
	N268	N	0.920111	0.184413	0.466780
	N269	N	0.090924	0.183565	0.540681
	N270	N	0.093682	0.827264	0.466454
	N271	N	0.921214	0.828977	0.540758
	N272	N	0.186972	0.469152	0.916541
	N273	N	0.186415	0.543218	0.088812
	N274	N	0.827836	0.469566	0.088587
	N275	N	0.827360	0.542875	0.916140
	O276	O	0.512543	0.568400	0.433213
	H277	H	0.511840	0.574390	0.424344
	H278	H	0.522242	0.568808	0.434047
	O279	O	-0.027338	-0.065683	0.082156
	H280	H	-0.026896	-0.057260	0.075854
	H281	H	-0.030996	-0.066711	0.087665
	O282	O	0.487466	0.573635	0.440157
	H283	H	0.485220	0.576653	0.437126
	H284	H	0.481848	0.568432	0.442429
	O285	O	0.476342	0.521078	0.496397
	H286	H	0.466230	0.527314	0.499294
	H287	H	0.477644	0.516275	0.487402
	O288	O	0.981306	-0.088659	0.076089
	H289	H	0.983324	-0.099032	0.075628
	H290	H	0.979749	-0.086950	0.087175
	O291	O	-0.497778	0.543732	-0.567204
	H292	H	-0.505168	0.543618	-0.576763
	H293	H	-0.500375	0.547376	-0.549777
	O294	O	0.482754	0.548927	0.503196
	H295	H	0.480722	0.545816	0.498588
	H296	H	0.486139	0.546180	0.509371
	O297	O	-0.041632	0.910895	0.044558
	H298	H	-0.036909	0.903975	0.041840
	H299	H	-0.050902	0.907862	0.053327
	O300	O	0.983819	-0.080249	1.044223
	H301	H	0.989368	-0.081208	1.042555
	H302	H	0.985519	-0.084129	1.048475
	O303	O	0.493977	0.543644	0.435356
	H304	H	0.492417	0.546524	0.431013
	H305	H	0.497034	0.547175	0.434512
	O306	O	-0.000601	0.892680	1.047562
	H307	H	0.001173	0.884944	1.051570
	H308	H	-0.006191	0.893805	1.045300
	O309	O	0.500607	0.530147	0.456531
	H310	H	0.503483	0.531934	0.456029
	H311	H	0.500641	0.526467	0.463094
