data_Molecule from HDF5

_cell_length_a		16.383120
_cell_length_b		16.121317
_cell_length_c		16.125849
_cell_angle_alpha	88.408546
_cell_angle_beta	90.989580
_cell_angle_gamma	88.487285
_symmetry_space_group_name_H-M	'P 1'
_symmetry_Int_Tables_number		1

loop_
	_symmetry_equiv_pos_as_xyz
	x,y,z

loop_
	_atom_site_label
	_atom_site_type_symbol
	_atom_site_fract_x
	_atom_site_fract_y
	_atom_site_fract_z
	H0	H	0.416905	0.838212	0.703354
	H1	H	0.601755	0.169167	0.692983
	H2	H	0.605227	0.833773	0.282524
	H3	H	0.402241	0.165402	0.261511
	H4	H	0.724775	0.401512	0.819023
	H5	H	0.727553	0.596168	0.146534
	H6	H	0.284025	0.612698	0.821494
	H7	H	0.301081	0.398154	0.149199
	H8	H	0.845484	0.725172	0.377216
	H9	H	0.170863	0.708657	0.585172
	H10	H	0.842213	0.289840	0.581643
	H11	H	0.168698	0.283001	0.393567
	H12	H	0.844875	0.399878	0.701778
	H13	H	0.170426	0.588588	0.700608
	H14	H	0.846271	0.609310	0.260180
	H15	H	0.172084	0.399670	0.280376
	H16	H	0.401402	0.725215	0.820524
	H17	H	0.605466	0.705003	0.151999
	H18	H	0.605554	0.293365	0.816163
	H19	H	0.418578	0.286076	0.147868
	H20	H	0.727337	0.839112	0.388113
	H21	H	0.719242	0.167967	0.581656
	H22	H	0.297244	0.837066	0.589376
	H23	H	0.282473	0.164677	0.372211
	H24	H	0.920699	0.334193	0.200309
	H25	H	0.105460	0.666011	0.195264
	H26	H	0.106295	0.332439	0.784420
	H27	H	0.902268	0.662917	0.761794
	H28	H	0.223561	0.900831	0.320134
	H29	H	0.224086	0.096713	0.646360
	H30	H	0.783669	0.112897	0.320528
	H31	H	0.799515	0.900800	0.650300
	H32	H	0.346035	0.226708	0.878011
	H33	H	0.673705	0.205781	0.080044
	H34	H	0.343917	0.788536	0.084244
	H35	H	0.668400	0.782660	0.890019
	H36	H	0.343946	0.903035	0.199573
	H37	H	0.671280	0.090610	0.200923
	H38	H	0.346123	0.111908	0.761168
	H39	H	0.670894	0.901830	0.776887
	H40	H	0.901004	0.224868	0.320466
	H41	H	0.098874	0.200094	0.652119
	H42	H	0.105758	0.790139	0.318456
	H43	H	0.914283	0.784491	0.648215
	H44	H	0.229596	0.338252	0.890971
	H45	H	0.222216	0.664523	0.084091
	H46	H	0.799346	0.334689	0.089033
	H47	H	0.784150	0.663088	0.872914
	H48	H	0.407202	0.118959	0.563179
	H49	H	0.610543	0.887059	0.571008
	H50	H	0.604884	0.123388	0.389979
	H51	H	0.414759	0.883493	0.396533
	H52	H	0.608670	0.399967	0.102788
	H53	H	0.597161	0.592921	0.866995
	H54	H	0.423684	0.599391	0.102164
	H55	H	0.415964	0.422246	0.867631
	H56	H	0.126510	0.599974	0.385949
	H57	H	0.890188	0.599928	0.574107
	H58	H	0.124401	0.398886	0.589803
	H59	H	0.891642	0.413873	0.396011
	H60	H	0.124869	0.394487	0.586114
	H61	H	0.894102	0.594272	0.564566
	H62	H	0.122255	0.595174	0.398188
	H63	H	0.892211	0.421916	0.388023
	H64	H	0.404003	0.598386	0.108733
	H65	H	0.590753	0.592217	0.868466
	H66	H	0.608020	0.405380	0.101262
	H67	H	0.416206	0.413944	0.864654
	H68	H	0.588210	0.121298	0.379193
	H69	H	0.612153	0.880407	0.591129
	H70	H	0.407975	0.121840	0.572972
	H71	H	0.414636	0.882891	0.395042
	H72	H	0.907066	0.618512	0.066859
	H73	H	0.119343	0.379202	0.082674
	H74	H	0.097296	0.618591	0.897059
	H75	H	0.920998	0.382844	0.895697
	H76	H	0.098337	0.906161	0.599531
	H77	H	0.102547	0.098191	0.361256
	H78	H	0.913886	0.092249	0.601639
	H79	H	0.920409	0.916968	0.367822
	H80	H	0.621115	0.092792	0.900914
	H81	H	0.394332	0.096247	0.067418
	H82	H	0.623448	0.902005	0.085973
	H83	H	0.390990	0.916129	0.891379
	H84	H	0.623877	0.899740	0.082988
	H85	H	0.392628	0.093609	0.074217
	H86	H	0.624400	0.086980	0.878466
	H87	H	0.391938	0.917432	0.893302
	H88	H	0.910833	0.096220	0.604254
	H89	H	0.090940	0.086603	0.368329
	H90	H	0.104228	0.899638	0.603467
	H91	H	0.909432	0.912242	0.363383
	H92	H	0.099474	0.620936	0.884806
	H93	H	0.103379	0.380209	0.093734
	H94	H	0.916339	0.619050	0.074551
	H95	H	0.912389	0.381028	0.899871
	H96	H	0.416128	0.118478	0.569036
	H97	H	0.594487	0.887866	0.582551
	H98	H	0.588449	0.115619	0.397996
	H99	H	0.415746	0.883088	0.395835
	H100	H	0.604404	0.402637	0.100793
	H101	H	0.592623	0.597545	0.865961
	H102	H	0.413652	0.581428	0.099411
	H103	H	0.409507	0.418958	0.863500
	H104	H	0.122582	0.588194	0.387388
	H105	H	0.892255	0.588794	0.574782
	H106	H	0.122516	0.400123	0.583074
	H107	H	0.888587	0.411395	0.384727
	H108	H	0.916727	0.614355	0.063576
	H109	H	0.102874	0.386279	0.075142
	H110	H	0.088390	0.617533	0.888198
	H111	H	0.913997	0.378706	0.890425
	H112	H	0.107268	0.908425	0.601501
	H113	H	0.085749	0.103000	0.364558
	H114	H	0.907736	0.091721	0.603362
	H115	H	0.909589	0.924141	0.367656
	H116	H	0.629861	0.108160	0.885801
	H117	H	0.391361	0.100771	0.072376
	H118	H	0.622783	0.902563	0.083606
	H119	H	0.392212	0.918917	0.891651
	C120	C	0.385743	0.011038	0.603127
	C121	C	0.630698	0.994499	0.606910
	C122	C	0.625934	0.010691	0.364129
	C123	C	0.382979	0.992080	0.361183
	C124	C	0.633234	0.377626	-0.008190
	C125	C	0.625842	0.620339	0.975847
	C126	C	0.382470	0.626194	-0.005833
	C127	C	0.389550	0.384852	0.974684
	C128	C	0.016865	0.627042	0.358291
	C129	C	0.999538	0.619086	0.603046
	C130	C	0.015437	0.373763	0.611288
	C131	C	0.998649	0.383070	0.365221
	C132	C	0.888803	0.508350	0.102208
	C133	C	0.133415	0.491386	0.108877
	C134	C	0.127197	0.509610	0.865411
	C135	C	0.884036	0.490051	0.861708
	C136	C	0.130669	0.878136	0.492394
	C137	C	0.123566	0.120502	0.474456
	C138	C	0.880589	0.126459	0.493986
	C139	C	0.887204	0.884284	0.475365
	C140	C	0.517423	0.128303	0.858016
	C141	C	0.500419	0.121241	0.102526
	C142	C	0.515252	0.876145	0.110067
	C143	C	0.498786	0.884089	0.865168
	C144	C	0.393557	0.887224	0.663900
	C145	C	0.624245	0.119295	0.657852
	C146	C	0.625819	0.884603	0.315660
	C147	C	0.382083	0.115800	0.300362
	C148	C	0.686828	0.381780	0.867851
	C149	C	0.686348	0.615988	0.098728
	C150	C	0.323523	0.629915	0.870709
	C151	C	0.338105	0.381363	0.099558
	C152	C	0.894412	0.686196	0.357286
	C153	C	0.122216	0.671103	0.603810
	C154	C	0.891780	0.324437	0.604469
	C155	C	0.120555	0.322920	0.372119
	C156	C	0.893023	0.379474	0.663958
	C157	C	0.121918	0.611717	0.661556
	C158	C	0.895022	0.628406	0.299144
	C159	C	0.122430	0.381404	0.315727
	C160	C	0.381776	0.686217	0.870185
	C161	C	0.625730	0.670122	0.101280
	C162	C	0.627433	0.327928	0.866471
	C163	C	0.396196	0.325199	0.098955
	C164	C	0.686744	0.887435	0.368358
	C165	C	0.682228	0.118858	0.602186
	C166	C	0.334468	0.886655	0.606778
	C167	C	0.322797	0.115400	0.355821
	C168	C	0.897026	0.383901	0.161917
	C169	C	0.127332	0.616117	0.159715
	C170	C	0.126823	0.383351	0.817934
	C171	C	0.882422	0.613792	0.800951
	C172	C	0.185269	0.881229	0.368852
	C173	C	0.183059	0.116040	0.598138
	C174	C	0.822595	0.130534	0.369923
	C175	C	0.835671	0.882141	0.600348
	C176	C	0.394824	0.187674	0.858098
	C177	C	0.624210	0.170668	0.101204
	C178	C	0.392681	0.824618	0.105506
	C179	C	0.620438	0.823469	0.869580
	C180	C	0.392695	0.881546	0.162866
	C181	C	0.623015	0.113291	0.161144
	C182	C	0.394718	0.130526	0.800197
	C183	C	0.621686	0.882830	0.813301
	C184	C	0.881081	0.186129	0.369774
	C185	C	0.121037	0.167732	0.600948
	C186	C	0.126887	0.826052	0.368062
	C187	C	0.893103	0.824330	0.599504
	C188	C	0.188125	0.386320	0.870813
	C189	C	0.185453	0.615643	0.104392
	C190	C	0.837035	0.384046	0.105990
	C191	C	0.823968	0.613878	0.856464
	C192	C	0.404791	0.097410	0.576160
	C193	C	0.611412	0.907506	0.587588
	C194	C	0.600953	0.097486	0.383345
	C195	C	0.407899	0.905542	0.388059
	C196	C	0.613153	0.396866	0.078954
	C197	C	0.600703	0.600156	0.889544
	C198	C	0.406656	0.600516	0.080832
	C199	C	0.408441	0.410827	0.887840
	C200	C	0.101819	0.601925	0.383291
	C201	C	0.914244	0.599870	0.578485
	C202	C	0.101502	0.392365	0.592005
	C203	C	0.912919	0.408467	0.384175
	C204	C	0.907900	0.594843	0.075984
	C205	C	0.114606	0.404433	0.089416
	C206	C	0.102365	0.596429	0.884247
	C207	C	0.908567	0.403341	0.887864
	C208	C	0.109575	0.898710	0.579020
	C209	C	0.099963	0.101558	0.387422
	C210	C	0.903910	0.100749	0.580641
	C211	C	0.907171	0.910316	0.388664
	C212	C	0.602995	0.103275	0.881465
	C213	C	0.415064	0.102636	0.078412
	C214	C	0.601169	0.895614	0.090043
	C215	C	0.413662	0.909936	0.886065
	Zn216	Zn	0.508223	0.004247	0.732756
	Zn217	Zn	0.506175	-0.000832	0.235717
	Zn218	Zn	0.757261	0.499912	-0.017479
	Zn219	Zn	0.257379	0.502577	-0.014449
	Zn220	Zn	0.008023	0.753131	0.482652
	Zn221	Zn	0.004854	0.250281	0.485562
	Zn222	Zn	0.006631	0.497939	0.736638
	Zn223	Zn	0.009969	0.501512	0.233166
	Zn224	Zn	0.505956	0.750738	-0.014025
	Zn225	Zn	0.509713	0.254210	-0.018336
	Zn226	Zn	0.755696	0.003554	0.484581
	Zn227	Zn	0.254674	0.001008	0.482164
	N228	N	0.424613	0.965640	0.661590
	N229	N	0.592618	0.041072	0.660778
	N230	N	0.588411	0.962169	0.312902
	N231	N	0.418968	0.038111	0.303757
	N232	N	0.690608	0.411772	0.946909
	N233	N	0.686516	0.585931	0.019644
	N234	N	0.323597	0.593418	0.949029
	N235	N	0.333941	0.417947	0.021343
	N236	N	0.971249	0.685616	0.393199
	N237	N	0.045345	0.675682	0.567887
	N238	N	0.968850	0.320645	0.572353
	N239	N	0.042626	0.323812	0.402363
	N240	N	0.970869	0.409438	0.668489
	N241	N	0.044544	0.580041	0.661257
	N242	N	0.972195	0.592379	0.299635
	N243	N	0.045697	0.418456	0.311477
	N244	N	0.417767	0.683909	0.947940
	N245	N	0.588790	0.673152	0.023736
	N246	N	0.594884	0.324907	0.944735
	N247	N	0.427445	0.327201	0.020367
	N248	N	0.686946	0.966844	0.397541
	N249	N	0.686287	0.040299	0.571068
	N250	N	0.329573	0.964677	0.569534
	N251	N	0.323335	0.037368	0.393075
	N252	N	0.928645	0.462252	0.159735
	N253	N	0.095811	0.537996	0.162875
	N254	N	0.089297	0.461091	0.814449
	N255	N	0.918852	0.536017	0.803811
	N256	N	0.188055	0.912349	0.447359
	N257	N	0.184712	0.087435	0.518441
	N258	N	0.822313	0.093930	0.447968
	N259	N	0.832029	0.918894	0.522101
	N260	N	0.472059	0.186540	0.893234
	N261	N	0.547256	0.175584	0.065378
	N262	N	0.469925	0.820758	0.073503
	N263	N	0.543063	0.824296	0.901286
	N264	N	0.470111	0.912628	0.166140
	N265	N	0.545139	0.082996	0.162028
	N266	N	0.471805	0.094390	0.799944
	N267	N	0.545063	0.920106	0.810445
	N268	N	0.916224	0.184053	0.447923
	N269	N	0.084567	0.170594	0.523168
	N270	N	0.093664	0.823700	0.445989
	N271	N	0.924250	0.825577	0.520640
	N272	N	0.188380	0.465855	0.899359
	N273	N	0.189728	0.536923	0.073750
	N274	N	0.831633	0.462430	0.069697
	N275	N	0.824778	0.535514	0.893256
	O276	O	0.638814	0.433569	0.451708
	H277	H	0.641133	0.421336	0.450688
	H278	H	0.642759	0.447752	0.459063
	O279	O	0.546970	0.486808	0.477628
	H280	H	0.541200	0.491054	0.481384
	H281	H	0.548141	0.499654	0.477558
	O282	O	1.613602	0.500063	-0.522096
	H283	H	1.615827	0.499436	-0.531528
	H284	H	1.614955	0.488168	-0.517543
	O285	O	1.080598	0.016721	0.943548
	H286	H	1.077912	0.013960	0.944424
	H287	H	1.078429	0.026550	0.956421
	O288	O	0.031981	0.961493	0.947847
	H289	H	0.023698	0.956450	0.951456
	H290	H	0.022865	0.968525	0.954296
	O291	O	0.536618	0.554977	0.338063
	H292	H	0.521171	0.547885	0.331167
	H293	H	0.529230	0.552934	0.346324
	O294	O	-0.063152	-0.102990	1.033259
	H295	H	-0.069418	-0.103982	1.038326
	H296	H	-0.065521	-0.111155	1.030428
	O297	O	0.081375	-0.087200	0.902014
	H298	H	0.068491	-0.081537	0.904807
	H299	H	0.080971	-0.099860	0.898848
	O300	O	0.423680	0.603763	0.324070
	H301	H	0.402309	0.588933	0.318735
	H302	H	0.432707	0.600645	0.326399
	O303	O	-0.028596	0.923098	-0.005852
	H304	H	-0.033741	0.937871	-0.006073
	H305	H	-0.032102	0.922438	-0.006575
	O306	O	0.019433	0.971040	0.914374
	H307	H	0.015575	0.965550	0.913306
	H308	H	0.021754	0.960331	0.911627
	O309	O	0.640116	0.589430	0.626191
	H310	H	0.637297	0.596604	0.623653
	H311	H	0.650468	0.596745	0.630724
	O312	O	-0.000435	-0.106761	0.058816
	H313	H	-0.002459	-0.103723	0.052169
	H314	H	0.002134	-0.093659	0.061170
	O315	O	1.030954	-0.020317	-0.014332
	H316	H	1.031152	-0.029499	-0.014104
	H317	H	1.042362	-0.015442	-0.020300
	O318	O	0.970086	0.915197	1.027759
	H319	H	0.957684	0.923260	1.028368
	H320	H	0.967198	0.906371	1.034558
	O321	O	0.541449	0.409166	1.444872
	H322	H	0.554045	0.394145	1.444573
	H323	H	0.539416	0.413973	1.443556
	O324	O	0.477335	0.606282	0.479421
	H325	H	0.471886	0.602449	0.472340
	H326	H	0.465174	0.605339	0.473987
	O327	O	0.397890	-0.410364	0.479377
	H328	H	0.402775	-0.408569	0.479142
	H329	H	0.392446	-0.412863	0.469262
	O330	O	0.571823	0.571260	0.457301
	H331	H	0.568909	0.558237	0.454479
	H332	H	0.576136	0.587643	0.455342
	O333	O	0.083134	1.001559	1.029968
	H334	H	0.081245	1.008227	1.015649
	H335	H	0.096732	0.991402	1.026491
	O336	O	-0.128790	0.009130	-0.002467
	H337	H	-0.141667	0.013228	0.012951
	H338	H	-0.140890	0.003661	-0.015254
	O339	O	0.452537	0.454370	0.543955
	H340	H	0.451881	0.453494	0.540473
	H341	H	0.463483	0.456786	0.551441
	O342	O	1.094002	0.963156	0.939188
	H343	H	1.099855	0.965394	0.935797
	H344	H	1.097948	0.955303	0.940385
	O345	O	1.068090	1.080619	0.055879
	H346	H	1.075326	1.084072	0.051077
	H347	H	1.062198	1.073405	0.051335
	O348	O	0.369389	0.517138	0.373987
	H349	H	0.372450	0.513355	0.368983
	H350	H	0.367130	0.519837	0.382019
	O351	O	0.438106	0.399105	0.565986
	H352	H	0.424061	0.397980	0.576494
	H353	H	0.438282	0.397816	0.568458
	O354	O	0.470077	0.628326	0.398975
	H355	H	0.469051	0.638040	0.388644
	H356	H	0.459162	0.628923	0.392883
	O357	O	0.432070	0.423984	1.417959
	H358	H	0.434175	0.424130	1.422451
	H359	H	0.427507	0.421518	1.423596
	O360	O	0.457668	0.429759	0.597086
	H361	H	0.446060	0.431177	0.589718
	H362	H	0.454963	0.432188	0.612143
	O363	O	0.952991	1.054706	1.048566
	H364	H	0.959441	1.060040	1.055251
	H365	H	0.950206	1.044892	1.059642
	O366	O	1.035766	1.074313	0.898984
	H367	H	1.033388	1.068479	0.891669
	H368	H	1.033882	1.071236	0.905650
	O369	O	0.935375	-0.094135	0.978465
	H370	H	0.939130	-0.081739	0.976890
	H371	H	0.922923	-0.097558	0.985835
	O372	O	-0.136725	0.095200	-0.055499
	H373	H	-0.117186	0.095346	-0.054252
	H374	H	-0.143986	0.112223	-0.061015
	O375	O	0.504893	-0.606271	0.465126
	H376	H	0.508234	-0.597145	0.466194
	H377	H	0.504109	-0.611808	0.468684
	O378	O	0.549873	0.612827	0.623092
	H379	H	0.550238	0.613454	0.623320
	H380	H	0.558990	0.617741	0.614272
	O381	O	0.417872	0.534516	0.569616
	H382	H	0.427082	0.540653	0.564990
	H383	H	0.423725	0.543690	0.569657
