data_Molecule from HDF5

_cell_length_a		16.261628
_cell_length_b		16.294079
_cell_length_c		16.361756
_cell_angle_alpha	90.131420
_cell_angle_beta	89.807505
_cell_angle_gamma	90.179637
_symmetry_space_group_name_H-M	'P 1'
_symmetry_Int_Tables_number		1

loop_
	_symmetry_equiv_pos_as_xyz
	x,y,z

loop_
	_atom_site_label
	_atom_site_type_symbol
	_atom_site_fract_x
	_atom_site_fract_y
	_atom_site_fract_z
	H0	H	0.401033	0.827404	0.715373
	H1	H	0.611149	0.148716	0.716350
	H2	H	0.609542	0.826736	0.276705
	H3	H	0.406668	0.150490	0.280739
	H4	H	0.723965	0.383726	0.835323
	H5	H	0.722541	0.590327	0.157577
	H6	H	0.287252	0.587858	0.834969
	H7	H	0.285650	0.384758	0.157401
	H8	H	0.843863	0.703692	0.393364
	H9	H	0.167915	0.705371	0.595155
	H10	H	0.845508	0.268373	0.595562
	H11	H	0.168432	0.269835	0.388355
	H12	H	0.845526	0.381024	0.715228
	H13	H	0.165861	0.595576	0.715965
	H14	H	0.842976	0.587682	0.280098
	H15	H	0.167659	0.386227	0.274804
	H16	H	0.399136	0.707777	0.836659
	H17	H	0.607365	0.706562	0.156780
	H18	H	0.608374	0.267855	0.836148
	H19	H	0.401698	0.270186	0.157871
	H20	H	0.721974	0.825331	0.394910
	H21	H	0.724491	0.149566	0.596385
	H22	H	0.285112	0.827991	0.599821
	H23	H	0.290493	0.150656	0.394827
	H24	H	0.900577	0.325439	0.213805
	H25	H	0.105145	0.650317	0.209553
	H26	H	0.110203	0.327362	0.773250
	H27	H	0.899775	0.647754	0.774279
	H28	H	0.226338	0.885906	0.334906
	H29	H	0.224293	0.093555	0.656023
	H30	H	0.789987	0.087798	0.333359
	H31	H	0.786712	0.884937	0.656002
	H32	H	0.342397	0.201975	0.897601
	H33	H	0.667384	0.206285	0.097217
	H34	H	0.342467	0.769411	0.100174
	H35	H	0.666137	0.768555	0.893044
	H36	H	0.344042	0.885189	0.216741
	H37	H	0.669496	0.088189	0.210479
	H38	H	0.344822	0.092576	0.777386
	H39	H	0.666381	0.883688	0.776922
	H40	H	0.905747	0.203812	0.333090
	H41	H	0.111193	0.210722	0.653950
	H42	H	0.108535	0.771680	0.333323
	H43	H	0.902845	0.767901	0.655558
	H44	H	0.221857	0.324221	0.893113
	H45	H	0.223203	0.647846	0.097287
	H46	H	0.787328	0.325104	0.095386
	H47	H	0.787020	0.649816	0.894094
	H48	H	0.411124	0.106904	0.592663
	H49	H	0.596835	0.869614	0.595638
	H50	H	0.596328	0.102506	0.405057
	H51	H	0.419513	0.873675	0.403758
	H52	H	0.591494	0.402173	0.108244
	H53	H	0.585616	0.581139	0.883725
	H54	H	0.411081	0.575480	0.111116
	H55	H	0.406274	0.395178	0.879211
	H56	H	0.122324	0.579888	0.402109
	H57	H	0.890023	0.576020	0.585412
	H58	H	0.117728	0.403751	0.577850
	H59	H	0.887567	0.391255	0.399714
	H60	H	0.121264	0.404125	0.589632
	H61	H	0.891416	0.577367	0.583372
	H62	H	0.122729	0.579063	0.398051
	H63	H	0.892865	0.394456	0.410870
	H64	H	0.416571	0.577169	0.110347
	H65	H	0.601607	0.582734	0.877377
	H66	H	0.591332	0.391598	0.111106
	H67	H	0.417659	0.400438	0.883678
	H68	H	0.602864	0.105003	0.405189
	H69	H	0.588160	0.876201	0.585055
	H70	H	0.424245	0.101612	0.590554
	H71	H	0.418573	0.874624	0.410191
	H72	H	0.910896	0.601863	0.081489
	H73	H	0.098223	0.372000	0.079636
	H74	H	0.095334	0.603256	0.900787
	H75	H	0.913034	0.373704	0.907443
	H76	H	0.091593	0.894264	0.608907
	H77	H	0.097634	0.066587	0.384224
	H78	H	0.915867	0.079451	0.610126
	H79	H	0.917957	0.892977	0.380879
	H80	H	0.620754	0.075769	0.906150
	H81	H	0.387827	0.084512	0.089245
	H82	H	0.622698	0.895771	0.091731
	H83	H	0.387804	0.897252	0.900389
	H84	H	0.619682	0.893078	0.082131
	H85	H	0.391684	0.074931	0.086153
	H86	H	0.620756	0.078592	0.905584
	H87	H	0.390816	0.892866	0.911450
	H88	H	0.914946	0.077032	0.608551
	H89	H	0.088782	0.085554	0.380986
	H90	H	0.099413	0.895092	0.612093
	H91	H	0.910763	0.894034	0.378699
	H92	H	0.091395	0.599680	0.907804
	H93	H	0.097089	0.368561	0.092574
	H94	H	0.908831	0.605862	0.092789
	H95	H	0.915055	0.371473	0.901375
	H96	H	0.414973	0.101989	0.579418
	H97	H	0.602067	0.872767	0.581957
	H98	H	0.598945	0.105076	0.399990
	H99	H	0.413827	0.873198	0.406683
	H100	H	0.600948	0.397528	0.113311
	H101	H	0.596828	0.568068	0.883824
	H102	H	0.412147	0.580812	0.112006
	H103	H	0.416993	0.387488	0.880255
	H104	H	0.123985	0.582599	0.400615
	H105	H	0.892360	0.575499	0.583767
	H106	H	0.123070	0.394046	0.583252
	H107	H	0.892014	0.402808	0.401959
	H108	H	0.919685	0.601681	0.090014
	H109	H	0.086325	0.374336	0.085941
	H110	H	0.099956	0.601822	0.908852
	H111	H	0.919247	0.374998	0.905712
	H112	H	0.095728	0.901410	0.607171
	H113	H	0.109206	0.082534	0.375199
	H114	H	0.918493	0.078049	0.608963
	H115	H	0.915265	0.899517	0.382316
	H116	H	0.620329	0.078418	0.907948
	H117	H	0.388724	0.076350	0.096027
	H118	H	0.617952	0.902422	0.085105
	H119	H	0.393533	0.904793	0.909090
	C120	C	0.384045	-0.002426	0.618724
	C121	C	0.627309	0.979490	0.617798
	C122	C	0.628611	-0.003196	0.373797
	C123	C	0.386758	0.980460	0.376301
	C124	C	0.626117	0.365909	0.004825
	C125	C	0.625980	0.608814	0.987796
	C126	C	0.382443	0.608504	0.005002
	C127	C	0.382575	0.364617	0.987691
	C128	C	0.014867	0.609347	0.372520
	C129	C	0.997244	0.609153	0.615799
	C130	C	0.014506	0.367488	0.615085
	C131	C	0.997808	0.366074	0.372442
	C132	C	0.882416	0.496042	0.117887
	C133	C	0.125470	0.478291	0.116301
	C134	C	0.126929	0.495252	0.874042
	C135	C	0.883565	0.479530	0.873770
	C136	C	0.127216	0.866881	0.503306
	C137	C	0.129159	0.110695	0.486305
	C138	C	0.885348	0.108662	0.503183
	C139	C	0.884209	0.865076	0.486743
	C140	C	0.513885	0.108574	0.875960
	C141	C	0.497036	0.109177	0.118939
	C142	C	0.513476	0.866418	0.117969
	C143	C	0.496770	0.866423	0.875334
	C144	C	0.382138	0.876048	0.676835
	C145	C	0.629199	0.100879	0.676152
	C146	C	0.628247	0.875023	0.316079
	C147	C	0.387036	0.102027	0.319013
	C148	C	0.684833	0.365101	0.883817
	C149	C	0.683651	0.609354	0.108948
	C150	C	0.325311	0.608002	0.883595
	C151	C	0.324876	0.365510	0.109206
	C152	C	0.892356	0.665486	0.374370
	C153	C	0.119169	0.667260	0.615521
	C154	C	0.893561	0.307812	0.615360
	C155	C	0.119654	0.308749	0.370702
	C156	C	0.893600	0.363930	0.674887
	C157	C	0.117965	0.612551	0.675734
	C158	C	0.891855	0.607711	0.317700
	C159	C	0.119282	0.366611	0.313881
	C160	C	0.381067	0.667651	0.884408
	C161	C	0.626416	0.667213	0.108814
	C162	C	0.626994	0.307498	0.884018
	C163	C	0.382464	0.308366	0.109373
	C164	C	0.684255	0.874221	0.374876
	C165	C	0.685679	0.101143	0.616777
	C166	C	0.324391	0.876410	0.619311
	C167	C	0.329311	0.102307	0.376178
	C168	C	0.881945	0.374086	0.174992
	C169	C	0.125161	0.600963	0.172093
	C170	C	0.128155	0.374893	0.814020
	C171	C	0.881833	0.600154	0.814567
	C172	C	0.186638	0.866832	0.382742
	C173	C	0.186320	0.112385	0.607418
	C174	C	0.828144	0.107612	0.381851
	C175	C	0.826094	0.865254	0.607886
	C176	C	0.391592	0.164960	0.876785
	C177	C	0.619249	0.166917	0.116845
	C178	C	0.391170	0.808695	0.118927
	C179	C	0.617848	0.807691	0.874246
	C180	C	0.392212	0.865899	0.177304
	C181	C	0.620075	0.108407	0.173266
	C182	C	0.392710	0.110292	0.817130
	C183	C	0.618069	0.865211	0.816459
	C184	C	0.885939	0.165426	0.381555
	C185	C	0.129821	0.170663	0.606373
	C186	C	0.128091	0.809768	0.382146
	C187	C	0.883639	0.806967	0.607488
	C188	C	0.184180	0.373412	0.873382
	C189	C	0.183706	0.599960	0.116114
	C190	C	0.825245	0.373857	0.116366
	C191	C	0.825662	0.600922	0.874140
	C192	C	0.409354	0.081656	0.594445
	C193	C	0.602908	0.894983	0.594209
	C194	C	0.606178	0.082112	0.396728
	C195	C	0.410516	0.895792	0.400029
	C196	C	0.601750	0.390008	0.088997
	C197	C	0.601581	0.584406	0.903661
	C198	C	0.406378	0.584831	0.089155
	C199	C	0.406579	0.387527	0.903020
	C200	C	0.100756	0.587048	0.393863
	C201	C	0.913268	0.583656	0.591217
	C202	C	0.098839	0.393253	0.590809
	C203	C	0.912804	0.389354	0.397075
	C204	C	0.906145	0.581018	0.094803
	C205	C	0.101147	0.393546	0.092965
	C206	C	0.102739	0.579668	0.898741
	C207	C	0.908688	0.395388	0.897839
	C208	C	0.102760	0.890271	0.587558
	C209	C	0.105501	0.085486	0.402192
	C210	C	0.909428	0.084953	0.587367
	C211	C	0.907833	0.888672	0.402306
	C212	C	0.598580	0.084575	0.899774
	C213	C	0.411639	0.085626	0.096662
	C214	C	0.598326	0.890133	0.093460
	C215	C	0.412505	0.891028	0.899948
	Zn216	Zn	0.505609	-0.011676	0.747048
	Zn217	Zn	0.506287	-0.011890	0.247120
	Zn218	Zn	0.754612	0.487997	-0.004272
	Zn219	Zn	0.254405	0.486167	-0.003815
	Zn220	Zn	0.006154	0.736686	0.494114
	Zn221	Zn	0.007383	0.238029	0.493739
	Zn222	Zn	0.005879	0.488518	0.744659
	Zn223	Zn	0.005055	0.487658	0.245008
	Zn224	Zn	0.503825	0.737022	-0.003319
	Zn225	Zn	0.504236	0.237001	-0.002850
	Zn226	Zn	0.756062	-0.012745	0.495760
	Zn227	Zn	0.256733	-0.011099	0.495861
	N228	N	0.418468	0.952408	0.676561
	N229	N	0.593708	0.024378	0.676948
	N230	N	0.594844	0.952400	0.315009
	N231	N	0.421990	0.025260	0.318993
	N232	N	0.684395	0.400835	0.959844
	N233	N	0.683683	0.574034	0.032505
	N234	N	0.325946	0.571963	0.959531
	N235	N	0.324722	0.399764	0.032519
	N236	N	0.970045	0.666768	0.407478
	N237	N	0.043126	0.665473	0.579298
	N238	N	0.969832	0.310042	0.578924
	N239	N	0.043066	0.308323	0.406446
	N240	N	0.969969	0.400282	0.674813
	N241	N	0.041061	0.577202	0.676246
	N242	N	0.969030	0.573680	0.316079
	N243	N	0.042227	0.401214	0.314517
	N244	N	0.415856	0.668121	0.960847
	N245	N	0.591440	0.667300	0.032463
	N246	N	0.591013	0.307866	0.960235
	N247	N	0.417751	0.307689	0.032844
	N248	N	0.684673	0.950887	0.410028
	N249	N	0.684572	0.024604	0.581178
	N250	N	0.325249	0.953027	0.584070
	N251	N	0.328991	0.025641	0.411127
	N252	N	0.916773	0.451252	0.176216
	N253	N	0.089463	0.524270	0.172350
	N254	N	0.093419	0.451755	0.814206
	N255	N	0.917002	0.523505	0.814044
	N256	N	0.186402	0.901695	0.459170
	N257	N	0.186014	0.075838	0.531637
	N258	N	0.827666	0.073120	0.458488
	N259	N	0.826301	0.900534	0.531807
	N260	N	0.468036	0.164427	0.912403
	N261	N	0.541561	0.167678	0.083859
	N262	N	0.467571	0.808758	0.082783
	N263	N	0.541510	0.808512	0.910451
	N264	N	0.469253	0.900976	0.176914
	N265	N	0.543185	0.073373	0.174916
	N266	N	0.469804	0.075911	0.816406
	N267	N	0.541762	0.900978	0.816967
	N268	N	0.920682	0.166518	0.458028
	N269	N	0.095136	0.169824	0.529842
	N270	N	0.091669	0.809889	0.457940
	N271	N	0.918886	0.806766	0.531102
	N272	N	0.183561	0.449562	0.909963
	N273	N	0.184108	0.522792	0.082168
	N274	N	0.825501	0.450497	0.081706
	N275	N	0.826656	0.524872	0.910090
	O276	O	0.634785	0.358233	0.391003
	H277	H	0.626976	0.345646	0.383104
	H278	H	0.639061	0.348527	0.383097
	O279	O	0.642408	0.635931	0.607953
	H280	H	0.643309	0.644154	0.599070
	H281	H	0.645430	0.616341	0.597939
	O282	O	1.068110	-0.166381	0.989818
	H283	H	1.070842	-0.169303	0.981409
	H284	H	1.077660	-0.160229	1.002015
	O285	O	0.528516	0.596408	0.472864
	H286	H	0.525348	0.595388	0.461073
	H287	H	0.536818	0.605320	0.471582
	O288	O	1.094330	0.976825	1.002757
	H289	H	1.077483	0.976830	0.997708
	H290	H	1.095611	0.977117	1.009150
	O291	O	-0.148350	0.916693	0.192316
	H292	H	-0.147729	0.916542	0.187782
	H293	H	-0.159574	0.938197	0.201355
	O294	O	0.525965	0.464820	0.610632
	H295	H	0.519072	0.473935	0.609416
	H296	H	0.529254	0.474015	0.616563
	O297	O	1.019261	0.978120	0.880155
	H298	H	1.013664	0.966216	0.863584
	H299	H	1.029063	0.965948	0.897593
	O300	O	0.531321	0.393538	0.451912
	H301	H	0.530535	0.385354	0.460120
	H302	H	0.526755	0.384144	0.458863
	O303	O	0.354202	0.664314	0.365883
	H304	H	0.339089	0.655754	0.374632
	H305	H	0.348688	0.671469	0.374662
	O306	O	0.513503	0.578680	0.357932
	H307	H	0.505437	0.583956	0.351825
	H308	H	0.503423	0.566332	0.361696
	O309	O	0.559867	0.536704	0.338390
	H310	H	0.554181	0.539532	0.341884
	H311	H	0.561760	0.536845	0.326737
	O312	O	0.065483	-0.147591	-0.120725
	H313	H	0.057501	-0.148741	-0.091892
	H314	H	0.071524	-0.146012	-0.117706
	O315	O	0.531186	0.427889	0.564680
	H316	H	0.529301	0.432935	0.566195
	H317	H	0.534266	0.416404	0.568492
	O318	O	0.055837	0.879923	1.061574
	H319	H	0.060967	0.901046	1.075131
	H320	H	0.037059	0.879385	1.072846
	O321	O	0.401708	0.433784	0.426120
	H322	H	0.398969	0.447973	0.424034
	H323	H	0.411126	0.427086	0.421188
	O324	O	-0.401790	1.442784	-0.658168
	H325	H	-0.409671	1.444810	-0.653271
	H326	H	-0.384896	1.432708	-0.656703
	O327	O	0.556770	0.478962	0.458886
	H328	H	0.552862	0.488266	0.452032
	H329	H	0.545505	0.465703	0.463903
	O330	O	0.179776	-0.043206	0.864744
	H331	H	0.165722	-0.052824	0.862932
	H332	H	0.205979	-0.040721	0.837038
	O333	O	-0.546776	0.495174	1.447362
	H334	H	-0.538658	0.508828	1.449901
	H335	H	-0.553091	0.494607	1.451076
	O336	O	0.449879	0.518726	0.576288
	H337	H	0.467621	0.513558	0.584790
	H338	H	0.463404	0.521523	0.577205
	O339	O	1.115544	-0.063048	-0.114072
	H340	H	1.112678	-0.061220	-0.109174
	H341	H	1.111044	-0.058709	-0.107188
	O342	O	-0.108851	0.087620	-0.064986
	H343	H	-0.106857	0.071976	-0.058295
	H344	H	-0.106342	0.078712	-0.067842
	O345	O	0.805702	0.046562	0.951399
	H346	H	0.803802	0.038732	0.958179
	H347	H	0.801481	0.041037	0.956414
	O348	O	1.031604	1.064025	-0.057164
	H349	H	1.024795	1.056626	-0.066523
	H350	H	1.036686	1.060560	-0.074420
	O351	O	0.349483	0.414931	0.528354
	H352	H	0.343447	0.411877	0.511619
	H353	H	0.348281	0.409232	0.536189
	O354	O	0.876017	0.001727	0.954708
	H355	H	0.874337	-0.001639	0.954717
	H356	H	0.860014	0.002828	0.961342
	O357	O	0.050826	0.085267	1.069491
	H358	H	0.047319	0.070802	1.055959
	H359	H	0.041571	0.086447	1.052989
	O360	O	0.459226	0.315365	0.653279
	H361	H	0.461782	0.323055	0.655675
	H362	H	0.462794	0.311129	0.664239
	O363	O	-0.023147	1.104080	1.007596
	H364	H	-0.024624	1.108258	1.004533
	H365	H	-0.029172	1.111767	1.000553
	O366	O	0.656529	0.486152	0.355211
	H367	H	0.650081	0.478414	0.361630
	H368	H	0.658821	0.469616	0.353522
	O369	O	-0.649760	0.468161	0.478223
	H370	H	-0.656453	0.466420	0.460323
	H371	H	-0.637240	0.463188	0.481904
	O372	O	0.530045	0.537731	0.550996
	H373	H	0.525970	0.556489	0.551475
	H374	H	0.553906	0.543034	0.560920
	O375	O	0.402200	0.563003	0.652494
	H376	H	0.413007	0.571633	0.665661
	H377	H	0.382934	0.550190	0.662792
	O378	O	1.120492	1.064436	0.175397
	H379	H	1.116589	1.082880	0.189443
	H380	H	1.132779	1.083500	0.164850
	O381	O	0.942579	0.049338	0.026236
	H382	H	0.954435	0.050010	0.028996
	H383	H	0.957964	0.047719	0.027069
	O384	O	1.046092	0.919153	-0.106282
	H385	H	1.037059	0.911089	-0.117157
	H386	H	1.045752	0.911452	-0.114665
	O387	O	-0.067869	0.079478	-0.002899
	H388	H	-0.063859	0.074050	-0.003690
	H389	H	-0.058473	0.076419	-0.012643
	O390	O	0.116752	1.051148	0.044046
	H391	H	0.122398	1.055333	0.035026
	H392	H	0.122687	1.054555	0.027492
	O393	O	1.081462	1.041089	1.051260
	H394	H	1.081929	1.036838	1.038866
	H395	H	1.070205	1.046508	1.057474
	O396	O	0.608451	0.489396	0.568334
	H397	H	0.604480	0.507172	0.582085
	H398	H	0.628567	0.494947	0.569766
	O399	O	-0.084442	0.900873	1.165362
	H400	H	-0.074914	0.894795	1.166359
	H401	H	-0.095421	0.907151	1.171730
	O402	O	0.563691	0.424960	0.569123
	H403	H	0.566695	0.411090	0.555226
	H404	H	0.578211	0.424345	0.576524
	O405	O	0.913587	1.015110	-0.175245
	H406	H	0.917049	1.005714	-0.173963
	H407	H	0.904412	1.004277	-0.176448
	O408	O	0.868071	0.847797	-0.041626
	H409	H	0.885544	0.854901	-0.018030
	H410	H	0.861869	0.824794	-0.036521
	O411	O	1.057591	-0.066754	1.010783
	H412	H	1.064486	-0.062174	1.013126
	H413	H	1.043488	-0.069854	1.014875
	O414	O	0.364023	0.439844	0.677522
	H415	H	0.362333	0.421367	0.665520
	H416	H	0.359626	0.432606	0.687388
	O417	O	0.677085	0.633309	0.572667
	H418	H	0.682168	0.614896	0.555884
	H419	H	0.660036	0.644414	0.572066
