data_Molecule from HDF5

_cell_length_a		16.253237
_cell_length_b		16.218469
_cell_length_c		16.146147
_cell_angle_alpha	90.272418
_cell_angle_beta	90.409243
_cell_angle_gamma	90.540611
_symmetry_space_group_name_H-M	'P 1'
_symmetry_Int_Tables_number		1

loop_
	_symmetry_equiv_pos_as_xyz
	x,y,z

loop_
	_atom_site_label
	_atom_site_type_symbol
	_atom_site_fract_x
	_atom_site_fract_y
	_atom_site_fract_z
	H0	H	0.397020	0.842558	0.724137
	H1	H	0.597800	0.171458	0.729069
	H2	H	0.591551	0.842848	0.299363
	H3	H	0.398994	0.171988	0.299630
	H4	H	0.709659	0.408992	0.848328
	H5	H	0.716489	0.609044	0.177851
	H6	H	0.283434	0.604511	0.850113
	H7	H	0.285768	0.407159	0.178988
	H8	H	0.834341	0.716871	0.414159
	H9	H	0.161009	0.725632	0.615777
	H10	H	0.835976	0.289736	0.612500
	H11	H	0.163784	0.294868	0.417059
	H12	H	0.834553	0.408007	0.725306
	H13	H	0.162790	0.608088	0.730018
	H14	H	0.835278	0.602104	0.298983
	H15	H	0.163824	0.409863	0.301448
	H16	H	0.400559	0.717825	0.848241
	H17	H	0.600172	0.724312	0.177718
	H18	H	0.595254	0.294057	0.848747
	H19	H	0.400102	0.293227	0.178999
	H20	H	0.708904	0.842858	0.412799
	H21	H	0.717017	0.170057	0.616485
	H22	H	0.281170	0.843657	0.610847
	H23	H	0.283509	0.171131	0.414360
	H24	H	0.902083	0.341112	0.223647
	H25	H	0.100281	0.670947	0.230175
	H26	H	0.094236	0.342500	0.800373
	H27	H	0.900719	0.670880	0.799872
	H28	H	0.206985	0.910065	0.347338
	H29	H	0.215069	0.107867	0.677609
	H30	H	0.783972	0.104000	0.348384
	H31	H	0.783328	0.906487	0.677784
	H32	H	0.333692	0.221376	0.913194
	H33	H	0.661772	0.224509	0.114752
	H34	H	0.335407	0.789501	0.111753
	H35	H	0.661772	0.794830	0.914183
	H36	H	0.331909	0.909453	0.222755
	H37	H	0.660604	0.109245	0.230514
	H38	H	0.332645	0.103642	0.799007
	H39	H	0.660313	0.910094	0.798872
	H40	H	0.900305	0.218453	0.347802
	H41	H	0.100752	0.222871	0.677889
	H42	H	0.094338	0.792455	0.348876
	H43	H	0.897433	0.791069	0.677716
	H44	H	0.210862	0.342909	0.915107
	H45	H	0.216912	0.670467	0.117162
	H46	H	0.781453	0.343821	0.112391
	H47	H	0.785246	0.670914	0.913142
	H48	H	0.414337	0.121270	0.602695
	H49	H	0.589935	0.890299	0.604799
	H50	H	0.589401	0.123293	0.425003
	H51	H	0.397601	0.885618	0.407427
	H52	H	0.592643	0.416118	0.132225
	H53	H	0.581786	0.590811	0.901375
	H54	H	0.418416	0.606040	0.130222
	H55	H	0.403700	0.413257	0.896021
	H56	H	0.117050	0.600592	0.418545
	H57	H	0.881678	0.598687	0.606603
	H58	H	0.115486	0.417267	0.607419
	H59	H	0.882466	0.412036	0.418997
	H60	H	0.116672	0.415385	0.609751
	H61	H	0.881507	0.599070	0.606566
	H62	H	0.117320	0.605312	0.423381
	H63	H	0.881316	0.409882	0.416666
	H64	H	0.399156	0.605884	0.136300
	H65	H	0.587452	0.615561	0.892177
	H66	H	0.592236	0.419101	0.131143
	H67	H	0.403254	0.414062	0.895119
	H68	H	0.594353	0.125187	0.423422
	H69	H	0.591414	0.889367	0.606002
	H70	H	0.399683	0.125069	0.600676
	H71	H	0.411066	0.893438	0.420299
	H72	H	0.913802	0.622664	0.106033
	H73	H	0.103903	0.385969	0.108420
	H74	H	0.093114	0.624881	0.922866
	H75	H	0.903768	0.387602	0.914852
	H76	H	0.085670	0.909358	0.632370
	H77	H	0.081888	0.100030	0.398383
	H78	H	0.906369	0.094981	0.630081
	H79	H	0.906269	0.922270	0.400079
	H80	H	0.612660	0.100032	0.924729
	H81	H	0.383193	0.099405	0.099897
	H82	H	0.619630	0.913297	0.119233
	H83	H	0.381110	0.913781	0.921319
	H84	H	0.614351	0.908965	0.097967
	H85	H	0.379302	0.097911	0.110786
	H86	H	0.614921	0.099965	0.918099
	H87	H	0.379103	0.911736	0.915318
	H88	H	0.912020	0.098911	0.630090
	H89	H	0.094519	0.108575	0.391314
	H90	H	0.098194	0.916804	0.633169
	H91	H	0.908834	0.901067	0.394190
	H92	H	0.093255	0.624260	0.922080
	H93	H	0.086101	0.388339	0.116077
	H94	H	0.905288	0.623799	0.102342
	H95	H	0.907453	0.391247	0.922288
	H96	H	0.406184	0.127375	0.613926
	H97	H	0.589457	0.889538	0.606509
	H98	H	0.590239	0.125184	0.419909
	H99	H	0.392600	0.888818	0.424868
	H100	H	0.589250	0.416509	0.130832
	H101	H	0.607352	0.596875	0.891084
	H102	H	0.407260	0.589230	0.129917
	H103	H	0.404217	0.413938	0.896859
	H104	H	0.114556	0.599092	0.425145
	H105	H	0.882287	0.597664	0.606317
	H106	H	0.115804	0.414022	0.606634
	H107	H	0.881170	0.409545	0.419353
	H108	H	0.905697	0.625948	0.111271
	H109	H	0.088800	0.392559	0.096975
	H110	H	0.093625	0.625095	0.921593
	H111	H	0.898462	0.388639	0.922422
	H112	H	0.086236	0.923420	0.627884
	H113	H	0.096393	0.092429	0.395653
	H114	H	0.906036	0.101653	0.632574
	H115	H	0.890499	0.910569	0.391127
	H116	H	0.615052	0.105279	0.921892
	H117	H	0.378080	0.107677	0.106650
	H118	H	0.611132	0.928356	0.105642
	H119	H	0.378683	0.908226	0.919925
	C120	C	0.376251	0.016298	0.633767
	C121	C	0.619932	0.997999	0.635984
	C122	C	0.618237	0.015747	0.392558
	C123	C	0.373760	0.998478	0.390263
	C124	C	0.618985	0.387534	0.022395
	C125	C	0.621586	0.630365	1.004237
	C126	C	0.378824	0.628077	0.023201
	C127	C	0.376277	0.385136	1.005333
	C128	C	0.007791	0.628068	0.392326
	C129	C	0.989835	0.629018	0.636325
	C130	C	0.007707	0.385299	0.635651
	C131	C	0.990691	0.384168	0.391631
	C132	C	0.878257	0.515656	0.134628
	C133	C	0.122150	0.497873	0.137039
	C134	C	0.120202	0.515903	0.893161
	C135	C	0.876171	0.497940	0.891368
	C136	C	0.117498	0.887132	0.521862
	C137	C	0.120970	0.129747	0.504131
	C138	C	0.878345	0.127184	0.521700
	C139	C	0.874691	0.883525	0.504346
	C140	C	0.505812	0.129591	0.891796
	C141	C	0.488830	0.130716	0.135298
	C142	C	0.506398	0.887119	0.134814
	C143	C	0.488310	0.884594	0.890962
	C144	C	0.377080	0.891950	0.687517
	C145	C	0.618375	0.121954	0.691656
	C146	C	0.613064	0.892075	0.336895
	C147	C	0.377847	0.122567	0.336724
	C148	C	0.672845	0.388635	0.897891
	C149	C	0.678235	0.628848	0.128473
	C150	C	0.322191	0.624965	0.899029
	C151	C	0.322694	0.387171	0.129541
	C152	C	0.883832	0.680573	0.393820
	C153	C	0.112596	0.686681	0.635281
	C154	C	0.884828	0.328265	0.632694
	C155	C	0.114660	0.331508	0.395661
	C156	C	0.883955	0.387176	0.688755
	C157	C	0.113215	0.628557	0.692425
	C158	C	0.884171	0.623329	0.336555
	C159	C	0.114790	0.389203	0.338774
	C160	C	0.380455	0.681095	0.897997
	C161	C	0.620580	0.686449	0.128528
	C162	C	0.615722	0.331603	0.898200
	C163	C	0.379822	0.330495	0.129456
	C164	C	0.671423	0.892001	0.393513
	C165	C	0.677385	0.121308	0.635461
	C166	C	0.319652	0.892396	0.631035
	C167	C	0.320599	0.122310	0.393963
	C168	C	0.880890	0.391033	0.187528
	C169	C	0.120461	0.621568	0.192613
	C170	C	0.115457	0.391751	0.838060
	C171	C	0.880053	0.621701	0.836985
	C172	C	0.170542	0.889294	0.397205
	C173	C	0.177206	0.127990	0.628342
	C174	C	0.822077	0.124289	0.397693
	C175	C	0.820313	0.886060	0.628413
	C176	C	0.382557	0.183709	0.893394
	C177	C	0.612493	0.186428	0.134230
	C178	C	0.383630	0.829027	0.131773
	C179	C	0.612447	0.831951	0.894012
	C180	C	0.381797	0.888823	0.186932
	C181	C	0.611866	0.129204	0.192033
	C182	C	0.382057	0.125229	0.836327
	C183	C	0.611558	0.888952	0.836372
	C184	C	0.879876	0.181529	0.397447
	C185	C	0.120211	0.185142	0.628305
	C186	C	0.114280	0.831101	0.397806
	C187	C	0.877156	0.828634	0.628334
	C188	C	0.173296	0.391915	0.895218
	C189	C	0.178590	0.621281	0.136452
	C190	C	0.820762	0.392330	0.132380
	C191	C	0.822668	0.621846	0.893439
	C192	C	0.399775	0.102281	0.612127
	C193	C	0.597001	0.911980	0.612752
	C194	C	0.597500	0.102269	0.415963
	C195	C	0.394392	0.911676	0.411297
	C196	C	0.597655	0.410382	0.109123
	C197	C	0.598905	0.607739	0.917379
	C198	C	0.401620	0.606836	0.109843
	C199	C	0.397393	0.407224	0.918489
	C200	C	0.093888	0.607769	0.415639
	C201	C	0.903880	0.605248	0.613286
	C202	C	0.093714	0.408781	0.614309
	C203	C	0.904168	0.404523	0.412312
	C204	C	0.901269	0.601829	0.112932
	C205	C	0.099517	0.411232	0.114009
	C206	C	0.099423	0.602416	0.915501
	C207	C	0.896936	0.411645	0.913388
	C208	C	0.096418	0.909818	0.608694
	C209	C	0.097914	0.107099	0.417298
	C210	C	0.901422	0.105031	0.608415
	C211	C	0.895752	0.904976	0.417597
	C212	C	0.592003	0.108028	0.914729
	C213	C	0.402371	0.108140	0.112602
	C214	C	0.592457	0.910196	0.113804
	C215	C	0.402068	0.905067	0.912461
	Zn216	Zn	0.496311	0.006662	0.762730
	Zn217	Zn	0.496490	0.008271	0.263119
	Zn218	Zn	0.748792	0.507470	0.012467
	Zn219	Zn	0.249037	0.506968	0.014877
	Zn220	Zn	-0.002451	0.757323	0.513496
	Zn221	Zn	-0.000429	0.256276	0.513202
	Zn222	Zn	-0.001835	0.507013	0.764800
	Zn223	Zn	-0.000321	0.506384	0.263742
	Zn224	Zn	0.498830	0.757434	0.013416
	Zn225	Zn	0.498199	0.258885	0.013970
	Zn226	Zn	0.748167	0.006214	0.513494
	Zn227	Zn	0.247420	0.007251	0.513312
	N228	N	0.411725	0.969814	0.689354
	N229	N	0.583307	0.044248	0.692292
	N230	N	0.580595	0.970090	0.336300
	N231	N	0.410338	0.044628	0.334447
	N232	N	0.674797	0.422900	0.975996
	N233	N	0.678903	0.594802	0.050060
	N234	N	0.320898	0.592650	0.977599
	N235	N	0.320216	0.420685	0.051183
	N236	N	0.961640	0.683699	0.427978
	N237	N	0.034910	0.687285	0.601094
	N238	N	0.962841	0.327000	0.600437
	N239	N	0.036547	0.328169	0.427868
	N240	N	0.961348	0.422059	0.690765
	N241	N	0.035949	0.593128	0.692874
	N242	N	0.962288	0.591492	0.335357
	N243	N	0.036654	0.421047	0.335727
	N244	N	0.415050	0.683046	0.976251
	N245	N	0.586166	0.687500	0.050478
	N246	N	0.582894	0.330814	0.976659
	N247	N	0.412238	0.329022	0.051119
	N248	N	0.674763	0.970014	0.427533
	N249	N	0.678767	0.043256	0.601851
	N250	N	0.318886	0.970542	0.598540
	N251	N	0.317872	0.044047	0.426494
	N252	N	0.915908	0.468673	0.189194
	N253	N	0.086103	0.543602	0.193181
	N254	N	0.083287	0.469920	0.836614
	N255	N	0.912666	0.543767	0.835504
	N256	N	0.172591	0.923686	0.475423
	N257	N	0.177593	0.094044	0.550146
	N258	N	0.820929	0.091354	0.476096
	N259	N	0.818307	0.919161	0.550260
	N260	N	0.460546	0.186577	0.926913
	N261	N	0.534983	0.187333	0.099773
	N262	N	0.462111	0.827706	0.100143
	N263	N	0.534819	0.829021	0.927157
	N264	N	0.459029	0.924314	0.188770
	N265	N	0.533880	0.095308	0.192823
	N266	N	0.459841	0.092134	0.835177
	N267	N	0.533531	0.921017	0.834259
	N268	N	0.913988	0.183601	0.475714
	N269	N	0.085974	0.186197	0.550054
	N270	N	0.082120	0.829591	0.476406
	N271	N	0.910256	0.826848	0.550135
	N272	N	0.176216	0.470089	0.928887
	N273	N	0.179611	0.543370	0.102601
	N274	N	0.819100	0.470627	0.100168
	N275	N	0.819959	0.543782	0.926458
	O276	O	-0.075444	0.197913	-0.169972
	H277	H	-0.079859	0.193593	-0.180645
	H278	H	-0.077036	0.183346	-0.163254
	O279	O	0.443473	0.548835	0.477740
	H280	H	0.446202	0.557074	0.484328
	H281	H	0.453776	0.548412	0.472604
	O282	O	0.521989	0.479435	0.417355
	H283	H	0.518499	0.475217	0.426621
	H284	H	0.515510	0.467240	0.411423
	O285	O	0.003236	1.017527	0.998727
	H286	H	0.001459	1.023031	0.993668
	H287	H	0.000104	1.029219	0.993206
	O288	O	-0.008842	-0.028705	0.086086
	H289	H	-0.005900	-0.035392	0.084691
	H290	H	-0.012011	-0.028805	0.086810
	O291	O	0.504559	1.494576	0.502951
	H292	H	0.507220	1.494643	0.496164
	H293	H	0.505496	1.507434	0.505494
	O294	O	1.440837	0.530120	0.495251
	H295	H	1.434240	0.528063	0.493465
	H296	H	1.428810	0.525952	0.488533
	O297	O	1.092206	0.008466	0.958669
	H298	H	1.093960	0.005436	0.956683
	H299	H	1.095799	0.001449	0.956319
	O300	O	0.566341	0.554489	0.553671
	H301	H	0.579067	0.554816	0.552220
	H302	H	0.568309	0.558551	0.560873
	O303	O	0.952249	0.007180	-0.046142
	H304	H	0.944968	0.016922	-0.056873
	H305	H	0.951605	0.014713	-0.047027
	O306	O	0.001898	0.964702	0.995383
	H307	H	0.010723	0.972615	0.989479
	H308	H	-0.000347	0.964850	1.002398
	O309	O	0.479934	0.468790	0.471870
	H310	H	0.481911	0.468815	0.461317
	H311	H	0.471305	0.462164	0.477564
	O312	O	0.859975	0.138710	0.894551
	H313	H	0.853374	0.145927	0.907911
	H314	H	0.858280	0.156252	0.889427
	O315	O	0.042448	-0.098645	0.097447
	H316	H	0.042945	-0.103739	0.095957
	H317	H	0.034505	-0.109629	0.102647
	O318	O	0.479983	0.478588	0.581803
	H319	H	0.480387	0.484329	0.587629
	H320	H	0.478076	0.468744	0.580447
	O321	O	0.938449	1.099776	0.943487
	H322	H	0.933259	1.109615	0.946473
	H323	H	0.938665	1.104167	0.956178
	O324	O	0.987118	-0.039373	0.018585
	H325	H	0.984037	-0.026643	0.026817
	H326	H	0.992104	-0.041341	0.006361
	O327	O	0.503866	0.469147	0.647014
	H328	H	0.508220	0.478063	0.648006
	H329	H	0.498700	0.468834	0.636554
	O330	O	1.005644	-0.044173	1.076980
	H331	H	1.011376	-0.049329	1.086729
	H332	H	1.003663	-0.047895	1.080015
	O333	O	0.925863	1.021726	-0.934534
	H334	H	0.918165	1.012452	-0.940059
	H335	H	0.932433	1.021354	-0.919391
	O336	O	0.969578	0.991649	1.035916
	H337	H	0.975481	0.988287	1.049886
	H338	H	0.966345	0.982703	1.034929
	O339	O	0.512334	0.503703	0.574137
	H340	H	0.517396	0.513093	0.584137
	H341	H	0.519112	0.500373	0.579145
	O342	O	0.012283	0.974508	0.019821
	H343	H	0.011345	0.957963	0.022397
	H344	H	0.028153	0.978901	0.018503
	O345	O	0.039896	0.048259	-0.076137
	H346	H	0.039114	0.046786	-0.085977
	H347	H	0.038677	0.063363	-0.082215
	O348	O	0.491772	0.495207	0.510700
	H349	H	0.498106	0.494959	0.514336
	H350	H	0.489311	0.497696	0.501504
	O351	O	0.497079	0.397486	0.550669
	H352	H	0.491405	0.393060	0.543904
	H353	H	0.495078	0.390007	0.553959
	O354	O	0.463842	0.500462	0.463381
	H355	H	0.464514	0.503367	0.451509
	H356	H	0.469628	0.499458	0.476772
	O357	O	0.535745	0.560024	0.594166
	H358	H	0.522401	0.563285	0.592495
	H359	H	0.535209	0.572313	0.607200
	O360	O	-0.060618	-0.033135	0.062025
	H361	H	-0.064191	-0.045034	0.064121
	H362	H	-0.055761	-0.029117	0.059471
	O363	O	0.535493	0.574767	0.475421
	H364	H	0.539703	0.572868	0.485125
	H365	H	0.534621	0.581381	0.486807
	O366	O	-0.010160	0.017403	1.049209
	H367	H	-0.019439	0.027432	1.054451
	H368	H	-0.001223	0.006456	1.053808
	O369	O	0.597619	0.446542	0.490369
	H370	H	0.592970	0.451582	0.495681
	H371	H	0.598397	0.439521	0.484212
