data_Molecule from HDF5

_cell_length_a		16.395327
_cell_length_b		16.525613
_cell_length_c		16.539861
_cell_angle_alpha	90.063496
_cell_angle_beta	90.019610
_cell_angle_gamma	90.024655
_symmetry_space_group_name_H-M	'P 1'
_symmetry_Int_Tables_number		1

loop_
	_symmetry_equiv_pos_as_xyz
	x,y,z

loop_
	_atom_site_label
	_atom_site_type_symbol
	_atom_site_fract_x
	_atom_site_fract_y
	_atom_site_fract_z
	H0	H	0.392492	0.844235	0.742987
	H1	H	0.602082	0.159658	0.740187
	H2	H	0.599547	0.843629	0.301654
	H3	H	0.391545	0.158956	0.298734
	H4	H	0.718162	0.400408	0.861983
	H5	H	0.716086	0.601138	0.180558
	H6	H	0.278429	0.607092	0.862145
	H7	H	0.277895	0.396960	0.177630
	H8	H	0.842000	0.719161	0.418176
	H9	H	0.159088	0.724861	0.627114
	H10	H	0.841541	0.282559	0.624688
	H11	H	0.158617	0.279103	0.415528
	H12	H	0.841807	0.399932	0.740044
	H13	H	0.158715	0.609682	0.743838
	H14	H	0.842847	0.603365	0.301472
	H15	H	0.159974	0.395438	0.300119
	H16	H	0.393906	0.724256	0.861816
	H17	H	0.601604	0.720900	0.178760
	H18	H	0.604556	0.281596	0.862900
	H19	H	0.392945	0.278576	0.176677
	H20	H	0.715994	0.842561	0.418973
	H21	H	0.717975	0.160423	0.622318
	H22	H	0.278266	0.842980	0.625524
	H23	H	0.280303	0.160678	0.420498
	H24	H	0.895571	0.344599	0.243366
	H25	H	0.111986	0.658086	0.245864
	H26	H	0.110439	0.346954	0.794681
	H27	H	0.894426	0.658019	0.799036
	H28	H	0.221476	0.896514	0.362037
	H29	H	0.223229	0.108301	0.677361
	H30	H	0.780320	0.105331	0.361367
	H31	H	0.782132	0.901743	0.677816
	H32	H	0.341763	0.224750	0.914275
	H33	H	0.657654	0.222422	0.127004
	H34	H	0.342344	0.776530	0.129398
	H35	H	0.660289	0.786688	0.921289
	H36	H	0.340675	0.895167	0.241824
	H37	H	0.656041	0.107030	0.243059
	H38	H	0.341547	0.109421	0.796959
	H39	H	0.659073	0.900744	0.803285
	H40	H	0.895083	0.224057	0.363531
	H41	H	0.110050	0.227395	0.675685
	H42	H	0.107238	0.779027	0.363677
	H43	H	0.897202	0.782930	0.677441
	H44	H	0.224087	0.345714	0.913140
	H45	H	0.224616	0.659446	0.126569
	H46	H	0.780581	0.343383	0.125629
	H47	H	0.781142	0.659478	0.919256
	H48	H	0.413030	0.110789	0.605697
	H49	H	0.589276	0.889474	0.609392
	H50	H	0.588800	0.115937	0.427825
	H51	H	0.408066	0.887821	0.428773
	H52	H	0.597010	0.414665	0.135053
	H53	H	0.591776	0.595070	0.906000
	H54	H	0.411323	0.587370	0.130649
	H55	H	0.413748	0.413131	0.909485
	H56	H	0.115762	0.593700	0.432428
	H57	H	0.887835	0.589450	0.610643
	H58	H	0.116032	0.408651	0.608996
	H59	H	0.886406	0.410306	0.429326
	H60	H	0.109557	0.416360	0.599829
	H61	H	0.887071	0.592300	0.610944
	H62	H	0.114735	0.589407	0.434596
	H63	H	0.889203	0.413063	0.435446
	H64	H	0.417378	0.588410	0.128451
	H65	H	0.592704	0.594568	0.906565
	H66	H	0.584165	0.413210	0.130682
	H67	H	0.413930	0.413466	0.910208
	H68	H	0.586246	0.114595	0.430929
	H69	H	0.593115	0.887785	0.612504
	H70	H	0.408298	0.114277	0.610421
	H71	H	0.413416	0.890297	0.429412
	H72	H	0.913394	0.614051	0.115143
	H73	H	0.087854	0.390396	0.111824
	H74	H	0.087339	0.615632	0.925731
	H75	H	0.913966	0.390182	0.931594
	H76	H	0.090844	0.919496	0.630868
	H77	H	0.086303	0.085863	0.411423
	H78	H	0.910162	0.095656	0.633751
	H79	H	0.910257	0.908370	0.405795
	H80	H	0.611637	0.090009	0.930873
	H81	H	0.388039	0.083200	0.108262
	H82	H	0.611697	0.914706	0.111357
	H83	H	0.386716	0.914184	0.933280
	H84	H	0.612998	0.911369	0.112843
	H85	H	0.383766	0.092590	0.112623
	H86	H	0.612784	0.090857	0.930934
	H87	H	0.384892	0.914622	0.929598
	H88	H	0.907094	0.090312	0.634071
	H89	H	0.083742	0.091387	0.410001
	H90	H	0.082272	0.911368	0.630126
	H91	H	0.906716	0.908091	0.404692
	H92	H	0.080783	0.609769	0.935613
	H93	H	0.087173	0.391902	0.107655
	H94	H	0.912700	0.612833	0.108487
	H95	H	0.908892	0.387923	0.931182
	H96	H	0.415404	0.112758	0.612773
	H97	H	0.588147	0.888061	0.614252
	H98	H	0.590669	0.114766	0.431620
	H99	H	0.409478	0.890631	0.434161
	H100	H	0.590561	0.402660	0.136662
	H101	H	0.592042	0.593940	0.907027
	H102	H	0.414093	0.593357	0.131629
	H103	H	0.414136	0.412973	0.909607
	H104	H	0.115840	0.589784	0.429779
	H105	H	0.889001	0.591760	0.608196
	H106	H	0.112604	0.421554	0.613017
	H107	H	0.888658	0.416791	0.429283
	H108	H	0.907217	0.615353	0.112130
	H109	H	0.091198	0.389976	0.108424
	H110	H	0.093332	0.613729	0.937250
	H111	H	0.912365	0.388239	0.926699
	H112	H	0.092692	0.908929	0.634429
	H113	H	0.090174	0.090202	0.408941
	H114	H	0.912474	0.090862	0.630956
	H115	H	0.907502	0.911311	0.405432
	H116	H	0.612210	0.090916	0.931461
	H117	H	0.387350	0.092877	0.102168
	H118	H	0.611636	0.911187	0.108736
	H119	H	0.384613	0.911212	0.931891
	C120	C	0.378256	0.009148	0.642154
	C121	C	0.620908	0.993338	0.642368
	C122	C	0.619703	0.010271	0.399145
	C123	C	0.377499	0.993484	0.399164
	C124	C	0.621851	0.379572	0.029566
	C125	C	0.621974	0.623725	1.012161
	C126	C	0.379925	0.623103	0.027110
	C127	C	0.379442	0.380415	1.012617
	C128	C	0.010339	0.622083	0.400209
	C129	C	0.992383	0.624161	0.642760
	C130	C	0.008995	0.382012	0.640863
	C131	C	0.992838	0.380274	0.399198
	C132	C	0.879866	0.509659	0.143269
	C133	C	0.122982	0.494235	0.142212
	C134	C	0.121454	0.510282	0.899182
	C135	C	0.879125	0.492806	0.898788
	C136	C	0.121634	0.880471	0.528338
	C137	C	0.120831	0.122686	0.512965
	C138	C	0.877998	0.124196	0.528675
	C139	C	0.877966	0.879980	0.510619
	C140	C	0.507387	0.123286	0.898900
	C141	C	0.490655	0.122269	0.141011
	C142	C	0.507197	0.880115	0.142486
	C143	C	0.490885	0.882076	0.900712
	C144	C	0.374970	0.891145	0.702556
	C145	C	0.621273	0.112615	0.700384
	C146	C	0.619513	0.891014	0.340825
	C147	C	0.374242	0.112107	0.339532
	C148	C	0.679587	0.380540	0.909869
	C149	C	0.678283	0.622017	0.132364
	C150	C	0.318742	0.625567	0.909099
	C151	C	0.318149	0.378094	0.130374
	C152	C	0.890141	0.680234	0.398932
	C153	C	0.111378	0.684592	0.645453
	C154	C	0.889264	0.322402	0.642947
	C155	C	0.111527	0.319595	0.397534
	C156	C	0.889466	0.380360	0.700579
	C157	C	0.111320	0.627116	0.703429
	C158	C	0.890441	0.622486	0.341219
	C159	C	0.112320	0.377422	0.340095
	C160	C	0.376187	0.683925	0.909109
	C161	C	0.621295	0.681370	0.131632
	C162	C	0.622791	0.321436	0.910301
	C163	C	0.375392	0.319283	0.130136
	C164	C	0.677094	0.890466	0.399239
	C165	C	0.679011	0.112727	0.642045
	C166	C	0.318045	0.890633	0.643900
	C167	C	0.318750	0.112918	0.399659
	C168	C	0.877483	0.391529	0.203214
	C169	C	0.127979	0.611560	0.204182
	C170	C	0.127082	0.393378	0.836295
	C171	C	0.876615	0.611239	0.839570
	C172	C	0.181880	0.878113	0.409854
	C173	C	0.182452	0.126152	0.630503
	C174	C	0.819355	0.124808	0.409294
	C175	C	0.820946	0.881447	0.630328
	C176	C	0.388743	0.184163	0.896195
	C177	C	0.609734	0.182609	0.144612
	C178	C	0.389177	0.818017	0.146023
	C179	C	0.612069	0.825093	0.901350
	C180	C	0.388258	0.877027	0.202362
	C181	C	0.609040	0.125171	0.202554
	C182	C	0.388882	0.126929	0.837786
	C183	C	0.611360	0.881621	0.842610
	C184	C	0.876569	0.183698	0.410334
	C185	C	0.126053	0.185461	0.629631
	C186	C	0.124726	0.819636	0.410549
	C187	C	0.877788	0.822393	0.629966
	C188	C	0.183973	0.392897	0.895118
	C189	C	0.184286	0.612165	0.144651
	C190	C	0.820374	0.390919	0.144380
	C191	C	0.820177	0.611893	0.899082
	C192	C	0.404441	0.091264	0.616853
	C193	C	0.597004	0.910162	0.618850
	C194	C	0.595603	0.093468	0.423370
	C195	C	0.403140	0.911113	0.423647
	C196	C	0.597683	0.403190	0.112504
	C197	C	0.598927	0.601045	0.928400
	C198	C	0.406511	0.597257	0.108880
	C199	C	0.406056	0.406019	0.931040
	C200	C	0.093729	0.597828	0.425159
	C201	C	0.909650	0.598600	0.617257
	C202	C	0.091402	0.408087	0.614765
	C203	C	0.909708	0.405968	0.424033
	C204	C	0.904265	0.592485	0.118958
	C205	C	0.096354	0.412130	0.116592
	C206	C	0.094731	0.591766	0.925483
	C207	C	0.904515	0.410259	0.923002
	C208	C	0.095847	0.905912	0.610381
	C209	C	0.094273	0.096622	0.431404
	C210	C	0.902576	0.099276	0.611345
	C211	C	0.901419	0.902581	0.427099
	C212	C	0.590527	0.097829	0.924029
	C213	C	0.407903	0.096769	0.115209
	C214	C	0.590308	0.905325	0.117994
	C215	C	0.407249	0.906219	0.924719
	Zn216	Zn	0.499116	0.001214	0.771148
	Zn217	Zn	0.497841	0.002263	0.270113
	Zn218	Zn	0.750834	0.501473	0.021620
	Zn219	Zn	0.250903	0.502318	0.019933
	Zn220	Zn	0.000939	0.751716	0.520604
	Zn221	Zn	0.000272	0.252583	0.520674
	Zn222	Zn	0.001075	0.502260	0.770092
	Zn223	Zn	0.002427	0.501407	0.271700
	Zn224	Zn	0.499487	0.752714	0.020228
	Zn225	Zn	0.499824	0.250799	0.020548
	Zn226	Zn	0.749310	0.002118	0.519569
	Zn227	Zn	0.249814	0.001568	0.520640
	N228	N	0.411695	0.965908	0.701753
	N229	N	0.586138	0.037313	0.700926
	N230	N	0.584796	0.966666	0.340580
	N231	N	0.409646	0.036659	0.338920
	N232	N	0.679368	0.415815	0.985116
	N233	N	0.678726	0.586907	0.057044
	N234	N	0.321112	0.588577	0.983418
	N235	N	0.320397	0.415149	0.056143
	N236	N	0.965684	0.680208	0.434903
	N237	N	0.036440	0.682854	0.608403
	N238	N	0.964759	0.323071	0.606868
	N239	N	0.036084	0.321277	0.433534
	N240	N	0.964910	0.416601	0.699429
	N241	N	0.036226	0.590369	0.701960
	N242	N	0.966368	0.587481	0.341759
	N243	N	0.037336	0.414254	0.340813
	N244	N	0.413292	0.682703	0.983756
	N245	N	0.587378	0.682759	0.055718
	N246	N	0.587778	0.320531	0.985649
	N247	N	0.412791	0.320661	0.055875
	N248	N	0.677420	0.965799	0.434542
	N249	N	0.679027	0.037588	0.606603
	N250	N	0.320013	0.965174	0.607237
	N251	N	0.320567	0.038327	0.435844
	N252	N	0.914061	0.466317	0.202436
	N253	N	0.090489	0.537143	0.202648
	N254	N	0.088865	0.467297	0.838786
	N255	N	0.912572	0.536149	0.839142
	N256	N	0.179922	0.915268	0.484138
	N257	N	0.179042	0.087491	0.557266
	N258	N	0.820064	0.088688	0.484190
	N259	N	0.820892	0.916503	0.555134
	N260	N	0.463614	0.182083	0.933227
	N261	N	0.534956	0.180871	0.106968
	N262	N	0.464155	0.819904	0.109264
	N263	N	0.536117	0.824955	0.936417
	N264	N	0.462699	0.915010	0.200340
	N265	N	0.533930	0.088707	0.200540
	N266	N	0.463806	0.089698	0.839487
	N267	N	0.535038	0.916208	0.842003
	N268	N	0.912040	0.183558	0.485519
	N269	N	0.088006	0.183181	0.555584
	N270	N	0.088118	0.820865	0.485263
	N271	N	0.912554	0.821305	0.554411
	N272	N	0.180617	0.466520	0.933588
	N273	N	0.181183	0.538229	0.106696
	N274	N	0.821631	0.465422	0.107779
	N275	N	0.821437	0.537052	0.935004
	O276	O	-0.114539	0.083021	-0.032154
	H277	H	-0.120392	0.086410	-0.039896
	H278	H	-0.095054	0.070671	-0.022390
	O279	O	1.377293	1.314031	0.525014
	H280	H	1.363739	1.319755	0.529721
	H281	H	1.382568	1.313120	0.538209
	O282	O	-0.175415	0.054213	0.096422
	H283	H	-0.169725	0.045590	0.090027
	H284	H	-0.177857	0.054963	0.087004
	O285	O	0.314800	0.609380	0.374159
	H286	H	0.323866	0.627661	0.372154
	H287	H	0.332812	0.614425	0.395466
	O288	O	-0.204627	-0.207096	0.225769
	H289	H	-0.184446	-0.180007	0.234270
	H290	H	-0.233328	-0.227417	0.243535
	O291	O	0.889375	0.862871	-0.063230
	H292	H	0.874548	0.862127	-0.034085
	H293	H	0.907740	0.858410	-0.048976
	O294	O	0.025549	0.792327	-0.187382
	H295	H	0.010044	0.796010	-0.154696
	H296	H	0.021978	0.757674	-0.210157
	O297	O	0.701576	0.706035	0.726526
	H298	H	0.721308	0.695465	0.744464
	H299	H	0.723083	0.722388	0.716116
	O300	O	0.130264	0.009881	0.944802
	H301	H	0.140276	0.003306	0.957849
	H302	H	0.127156	0.004582	0.964028
	O303	O	0.647185	0.711538	0.523458
	H304	H	0.662164	0.717997	0.513794
	H305	H	0.648802	0.708722	0.520318
	O306	O	-0.169402	1.184365	1.841219
	H307	H	-0.170370	1.183731	1.832052
	H308	H	-0.156781	1.183184	1.830846
	O309	O	0.867787	1.179569	0.180056
	H310	H	0.889808	1.179244	0.175194
	H311	H	0.860633	1.162831	0.157850
	O312	O	-0.002567	1.177060	-0.194607
	H313	H	0.000226	1.170607	-0.187168
	H314	H	-0.006717	1.197840	-0.206449
	O315	O	-0.038999	-0.052467	0.806406
	H316	H	-0.033646	-0.058466	0.806850
	H317	H	-0.021201	-0.055753	0.801528
	O318	O	0.637326	0.433933	0.594090
	H319	H	0.621041	0.427929	0.599751
	H320	H	0.626533	0.439773	0.587885
	O321	O	0.576095	0.407524	0.565435
	H322	H	0.568362	0.421470	0.568938
	H323	H	0.571385	0.405933	0.544009
	O324	O	0.782272	0.966105	0.234573
	H325	H	0.794356	0.961151	0.236177
	H326	H	0.758552	0.975499	0.242721
	O327	O	1.198246	0.178477	1.147618
	H328	H	1.204032	0.175509	1.151685
	H329	H	1.194961	0.159877	1.147890
	O330	O	0.393125	0.309233	-0.462150
	H331	H	0.386561	0.313120	-0.462517
	H332	H	0.387855	0.309234	-0.465803
	O333	O	1.045535	1.214545	1.201092
	H334	H	1.053831	1.219769	1.204776
	H335	H	1.057366	1.225600	1.201195
	O336	O	0.235864	-0.182189	0.244535
	H337	H	0.246568	-0.193084	0.224398
	H338	H	0.244571	-0.188922	0.237486
	O339	O	0.530871	0.718022	0.738802
	H340	H	0.575179	0.718351	0.737351
	H341	H	0.537690	0.734151	0.761056
	O342	O	1.201527	-0.152110	0.064202
	H343	H	1.208111	-0.159793	0.050190
	H344	H	1.200462	-0.148866	0.043759
	O345	O	0.384372	0.548518	0.696882
	H346	H	0.406359	0.569962	0.697325
	H347	H	0.383831	0.553505	0.711628
	O348	O	1.643198	-0.640081	1.635040
	H349	H	1.641720	-0.637273	1.641179
	H350	H	1.626448	-0.633606	1.626222
	O351	O	1.132368	1.222720	-0.003370
	H352	H	1.134680	1.235886	0.004120
	H353	H	1.123224	1.221765	0.010188
	O354	O	0.499246	0.589701	0.503121
	H355	H	0.487403	0.589343	0.506232
	H356	H	0.492163	0.568202	0.511414
	O357	O	1.061516	0.995905	1.215316
	H358	H	1.059909	0.994517	1.232641
	H359	H	1.066283	1.000068	1.212697
	O360	O	0.642316	0.395225	0.307767
	H361	H	0.642393	0.385548	0.328103
	H362	H	0.661159	0.382086	0.301274
	O363	O	0.969863	-0.183395	0.181704
	H364	H	0.957669	-0.190319	0.174978
	H365	H	0.972377	-0.196174	0.199289
	O366	O	1.470278	-0.336071	1.476204
	H367	H	1.484275	-0.342644	1.478454
	H368	H	1.488023	-0.323436	1.482061
	O369	O	0.313693	0.629696	-0.516420
	H370	H	0.298009	0.655245	-0.524905
	H371	H	0.304977	0.628377	-0.543074
	O372	O	0.438413	0.301856	0.714638
	H373	H	0.426908	0.303033	0.708241
	H374	H	0.430766	0.286106	0.713816
	O375	O	-0.375347	0.508793	1.347543
	H376	H	-0.371945	0.495526	1.347488
	H377	H	-0.379376	0.501628	1.355181
	O378	O	0.622952	0.578670	0.617096
	H379	H	0.630150	0.582342	0.627126
	H380	H	0.637515	0.583696	0.619294
	O381	O	0.792480	0.053708	-0.185894
	H382	H	0.794183	0.056900	-0.183335
	H383	H	0.788399	0.053864	-0.201070
	O384	O	0.056074	0.179188	1.086975
	H385	H	0.054608	0.177670	1.080580
	H386	H	0.050474	0.187445	1.100422
	O387	O	0.027880	0.781091	1.136032
	H388	H	0.043066	0.790823	1.147987
	H389	H	0.042275	0.769442	1.150741
	O390	O	0.183635	-0.003312	1.167041
	H391	H	0.205394	-0.004125	1.176688
	H392	H	0.179566	-0.005135	1.164241
	O393	O	0.331719	0.441113	-0.307415
	H394	H	0.344538	0.458650	-0.303390
	H395	H	0.319924	0.426484	-0.287517
	O396	O	0.378323	0.497361	0.514030
	H397	H	0.380288	0.488322	0.512207
	H398	H	0.366478	0.498611	0.534877
	O399	O	1.539036	-0.394301	1.326122
	H400	H	1.516624	-0.407790	1.329475
	H401	H	1.526816	-0.410943	1.347402
	O402	O	0.061116	0.074698	0.857979
	H403	H	0.047991	0.080619	0.863183
	H404	H	0.067255	0.069793	0.862683
	O405	O	0.063275	-0.190370	-0.015731
	H406	H	0.041661	-0.192541	-0.021755
	H407	H	0.094601	-0.210512	-0.011986
	O408	O	0.813317	0.816308	-0.169622
	H409	H	0.830685	0.834852	-0.151623
	H410	H	0.830116	0.833152	-0.149660
	O411	O	0.183709	0.818125	-0.154897
	H412	H	0.137497	0.810034	-0.162803
	H413	H	0.194547	0.869198	-0.169666
	O414	O	-0.382952	1.276155	0.305582
	H415	H	-0.371898	1.277640	0.297581
	H416	H	-0.372158	1.271469	0.305600
	O417	O	0.001694	0.033689	1.229457
	H418	H	-0.003916	0.043030	1.218862
	H419	H	-0.001444	0.039370	1.236696
	O420	O	0.372080	0.379792	0.325923
	H421	H	0.378785	0.370583	0.319565
	H422	H	0.365291	0.387434	0.326462
	O423	O	-0.220639	1.197253	0.006719
	H424	H	-0.216209	1.185030	-0.017019
	H425	H	-0.245186	1.216830	-0.001632
	O426	O	0.480127	1.496688	0.618638
	H427	H	0.462639	1.492674	0.625465
	H428	H	0.473094	1.510480	0.624123
	O429	O	0.386971	0.580650	0.636725
	H430	H	0.371343	0.581232	0.658138
	H431	H	0.391599	0.592563	0.632709
	O432	O	0.386327	0.208551	0.242526
	H433	H	0.384659	0.214524	0.240608
	H434	H	0.409284	0.206492	0.240973
	O435	O	-0.285040	0.284209	-0.515219
	H436	H	-0.279171	0.294959	-0.512976
	H437	H	-0.267013	0.265102	-0.507476
	O438	O	0.881235	0.042519	0.016007
	H439	H	0.878343	0.032069	0.024830
	H440	H	0.870806	0.053084	0.004122
	O441	O	1.015914	1.110394	0.003579
	H442	H	1.017220	1.112372	0.008879
	H443	H	1.008617	1.104785	0.007666
	O444	O	0.376396	0.480066	0.327098
	H445	H	0.371469	0.501589	0.320376
	H446	H	0.369458	0.488855	0.337590
	O447	O	0.417877	0.578165	0.560406
	H448	H	0.402260	0.578462	0.550687
	H449	H	0.421436	0.594508	0.556671
	O450	O	0.698200	0.567698	0.331999
	H451	H	0.698933	0.547446	0.319861
	H452	H	0.703063	0.548609	0.336776
	O453	O	1.208094	1.028666	-0.009206
	H454	H	1.200947	1.030230	-0.000528
	H455	H	1.205094	1.027662	0.002160
	O456	O	0.788932	-0.210223	0.057492
	H457	H	0.763148	-0.219429	0.065990
	H458	H	0.787023	-0.205527	0.086415
	O459	O	0.703838	0.536024	0.725958
	H460	H	0.698275	0.540911	0.733103
	H461	H	0.708831	0.531089	0.733048
	O462	O	0.583069	0.610972	0.490266
	H463	H	0.577064	0.611742	0.504611
	H464	H	0.575228	0.601886	0.472429
	O465	O	1.199426	-0.018327	-0.197366
	H466	H	1.219037	-0.007076	-0.220791
	H467	H	1.197958	0.006909	-0.186340
