data_Molecule from HDF5

_cell_length_a		16.255581
_cell_length_b		16.313618
_cell_length_c		16.161342
_cell_angle_alpha	89.857480
_cell_angle_beta	90.133477
_cell_angle_gamma	89.949960
_symmetry_space_group_name_H-M	'P 1'
_symmetry_Int_Tables_number		1

loop_
	_symmetry_equiv_pos_as_xyz
	x,y,z

loop_
	_atom_site_label
	_atom_site_type_symbol
	_atom_site_fract_x
	_atom_site_fract_y
	_atom_site_fract_z
	H0	H	0.396814	0.827726	0.712130
	H1	H	0.591619	0.155459	0.710781
	H2	H	0.590966	0.827331	0.284400
	H3	H	0.395952	0.154958	0.282879
	H4	H	0.708333	0.393949	0.832651
	H5	H	0.709326	0.587355	0.163241
	H6	H	0.281985	0.589228	0.832766
	H7	H	0.283365	0.392538	0.162132
	H8	H	0.831499	0.705182	0.396107
	H9	H	0.158424	0.705436	0.598133
	H10	H	0.830812	0.274938	0.596701
	H11	H	0.158103	0.274454	0.399147
	H12	H	0.830564	0.391503	0.711463
	H13	H	0.160329	0.585373	0.709673
	H14	H	0.830641	0.586992	0.283244
	H15	H	0.159553	0.392944	0.285831
	H16	H	0.396513	0.704929	0.833485
	H17	H	0.595984	0.705117	0.162561
	H18	H	0.593974	0.277138	0.832743
	H19	H	0.397686	0.276010	0.161798
	H20	H	0.709612	0.827558	0.398067
	H21	H	0.710069	0.154090	0.596364
	H22	H	0.280455	0.828087	0.596636
	H23	H	0.277619	0.154229	0.396926
	H24	H	0.898011	0.326088	0.211686
	H25	H	0.094696	0.653842	0.212708
	H26	H	0.092324	0.325219	0.785901
	H27	H	0.898976	0.653634	0.782752
	H28	H	0.208758	0.892089	0.332903
	H29	H	0.206115	0.086382	0.662893
	H30	H	0.781025	0.088613	0.333199
	H31	H	0.781682	0.891867	0.662825
	H32	H	0.331705	0.206846	0.896088
	H33	H	0.658395	0.204708	0.097630
	H34	H	0.332052	0.773678	0.099070
	H35	H	0.658667	0.776378	0.898161
	H36	H	0.329790	0.892525	0.211633
	H37	H	0.658319	0.088143	0.212126
	H38	H	0.329773	0.087437	0.785579
	H39	H	0.658932	0.894444	0.784776
	H40	H	0.893461	0.205162	0.333825
	H41	H	0.093561	0.202576	0.662338
	H42	H	0.092559	0.777174	0.332013
	H43	H	0.895735	0.774299	0.662135
	H44	H	0.211115	0.326828	0.899181
	H45	H	0.210520	0.653740	0.096352
	H46	H	0.780322	0.326993	0.097525
	H47	H	0.779165	0.653726	0.895458
	H48	H	0.405279	0.106801	0.592119
	H49	H	0.581540	0.877947	0.588814
	H50	H	0.586644	0.107719	0.401650
	H51	H	0.403280	0.875271	0.402329
	H52	H	0.577850	0.397479	0.111525
	H53	H	0.589330	0.582850	0.880241
	H54	H	0.408212	0.587558	0.115780
	H55	H	0.394788	0.392920	0.875769
	H56	H	0.115509	0.588573	0.396550
	H57	H	0.878972	0.582840	0.589121
	H58	H	0.112114	0.389615	0.588184
	H59	H	0.879659	0.398735	0.407698
	H60	H	0.110783	0.399107	0.589702
	H61	H	0.878512	0.582621	0.590012
	H62	H	0.110576	0.589089	0.415246
	H63	H	0.876703	0.397767	0.400950
	H64	H	0.397214	0.583888	0.117423
	H65	H	0.584961	0.582580	0.881586
	H66	H	0.591725	0.387977	0.119105
	H67	H	0.401769	0.406921	0.882015
	H68	H	0.586785	0.105777	0.406920
	H69	H	0.593361	0.874324	0.586325
	H70	H	0.396676	0.107957	0.585385
	H71	H	0.401636	0.875694	0.408472
	H72	H	0.902428	0.605187	0.085732
	H73	H	0.084836	0.370974	0.104847
	H74	H	0.080522	0.604530	0.902951
	H75	H	0.908183	0.376808	0.910324
	H76	H	0.096589	0.886824	0.620259
	H77	H	0.080975	0.086601	0.380042
	H78	H	0.907582	0.074573	0.611910
	H79	H	0.902257	0.899247	0.381412
	H80	H	0.609833	0.080739	0.908037
	H81	H	0.371523	0.104409	0.087969
	H82	H	0.609752	0.898068	0.084243
	H83	H	0.378669	0.896258	0.908361
	H84	H	0.610842	0.903425	0.094982
	H85	H	0.385907	0.074762	0.072683
	H86	H	0.613701	0.083187	0.898917
	H87	H	0.378110	0.899942	0.903732
	H88	H	0.906995	0.091458	0.617430
	H89	H	0.090433	0.085195	0.377376
	H90	H	0.090741	0.908880	0.611805
	H91	H	0.903775	0.895097	0.379976
	H92	H	0.093070	0.604789	0.911907
	H93	H	0.081379	0.379435	0.080916
	H94	H	0.898813	0.607801	0.091313
	H95	H	0.893910	0.372606	0.909017
	H96	H	0.395566	0.110325	0.596005
	H97	H	0.588388	0.873310	0.597697
	H98	H	0.590242	0.108099	0.404357
	H99	H	0.397591	0.873623	0.404559
	H100	H	0.593995	0.405629	0.114697
	H101	H	0.587419	0.586912	0.880430
	H102	H	0.405661	0.576649	0.112885
	H103	H	0.410443	0.392998	0.880444
	H104	H	0.109213	0.572568	0.404831
	H105	H	0.877906	0.583171	0.590374
	H106	H	0.113705	0.394038	0.596124
	H107	H	0.876838	0.392219	0.406012
	H108	H	0.906240	0.605788	0.091603
	H109	H	0.104227	0.370627	0.088459
	H110	H	0.093768	0.609371	0.896695
	H111	H	0.902267	0.372662	0.897445
	H112	H	0.074305	0.891267	0.612222
	H113	H	0.085924	0.077978	0.381442
	H114	H	0.892647	0.082058	0.617758
	H115	H	0.898925	0.896149	0.378776
	H116	H	0.613317	0.090235	0.906695
	H117	H	0.374850	0.074286	0.107494
	H118	H	0.613671	0.891941	0.093444
	H119	H	0.376257	0.894695	0.902934
	C120	C	0.371928	-0.000170	0.619241
	C121	C	0.616339	0.983093	0.619750
	C122	C	0.616191	-0.000733	0.375995
	C123	C	0.371955	0.982825	0.375812
	C124	C	0.616587	0.369077	0.006234
	C125	C	0.617049	0.612532	0.989561
	C126	C	0.374561	0.611703	0.006508
	C127	C	0.374256	0.368869	0.988357
	C128	C	0.003697	0.611878	0.375893
	C129	C	0.986974	0.610762	0.618422
	C130	C	0.003235	0.367180	0.619287
	C131	C	0.986297	0.368038	0.376285
	C132	C	0.874356	0.498298	0.118583
	C133	C	0.118019	0.482022	0.119837
	C134	C	0.117585	0.498281	0.876014
	C135	C	0.873173	0.481909	0.875578
	C136	C	0.116203	0.867844	0.505988
	C137	C	0.114545	0.110832	0.488976
	C138	C	0.873299	0.111373	0.506760
	C139	C	0.873279	0.868124	0.488996
	C140	C	0.503395	0.112760	0.875942
	C141	C	0.485895	0.112543	0.118896
	C142	C	0.503100	0.869045	0.119461
	C143	C	0.486248	0.869066	0.876249
	C144	C	0.375805	0.876766	0.674323
	C145	C	0.612787	0.106349	0.673748
	C146	C	0.612321	0.876150	0.321674
	C147	C	0.375014	0.106226	0.320477
	C148	C	0.670863	0.372832	0.881798
	C149	C	0.672129	0.609070	0.113680
	C150	C	0.319306	0.609574	0.882311
	C151	C	0.320699	0.371887	0.112862
	C152	C	0.880169	0.666906	0.376953
	C153	C	0.110125	0.666248	0.616980
	C154	C	0.879689	0.312614	0.617116
	C155	C	0.109525	0.312931	0.379120
	C156	C	0.879698	0.370713	0.674112
	C157	C	0.110930	0.606949	0.672839
	C158	C	0.879861	0.608148	0.320758
	C159	C	0.110232	0.371547	0.322665
	C160	C	0.376407	0.666916	0.882408
	C161	C	0.615499	0.667402	0.113253
	C162	C	0.613845	0.314983	0.881862
	C163	C	0.377236	0.313880	0.112697
	C164	C	0.671291	0.876434	0.378198
	C165	C	0.671673	0.105704	0.616766
	C166	C	0.318267	0.876724	0.616767
	C167	C	0.316021	0.105620	0.377010
	C168	C	0.877394	0.375076	0.173765
	C169	C	0.114959	0.604839	0.174750
	C170	C	0.113788	0.374549	0.822394
	C171	C	0.877186	0.604801	0.820033
	C172	C	0.170847	0.871729	0.381951
	C173	C	0.169069	0.107025	0.613358
	C174	C	0.818244	0.109196	0.382608
	C175	C	0.818583	0.870703	0.613419
	C176	C	0.380401	0.168194	0.877043
	C177	C	0.609349	0.167170	0.117846
	C178	C	0.380370	0.812504	0.118283
	C179	C	0.609660	0.814224	0.878204
	C180	C	0.379022	0.871799	0.174022
	C181	C	0.609502	0.108857	0.174381
	C182	C	0.379398	0.108916	0.822004
	C183	C	0.609718	0.872903	0.821710
	C184	C	0.874277	0.166931	0.382904
	C185	C	0.113377	0.165160	0.613077
	C186	C	0.113561	0.813929	0.381526
	C187	C	0.875670	0.812781	0.613341
	C188	C	0.172645	0.375120	0.879072
	C189	C	0.172859	0.604761	0.117103
	C190	C	0.818502	0.375629	0.117258
	C191	C	0.817704	0.604786	0.876365
	C192	C	0.392867	0.086181	0.597278
	C193	C	0.594214	0.897184	0.597515
	C194	C	0.594349	0.085093	0.397800
	C195	C	0.394133	0.897107	0.398607
	C196	C	0.594499	0.390844	0.092784
	C197	C	0.594162	0.590450	0.902947
	C198	C	0.397132	0.589226	0.093122
	C199	C	0.396014	0.391077	0.901783
	C200	C	0.089571	0.589770	0.398767
	C201	C	0.900737	0.589284	0.596267
	C202	C	0.089920	0.388040	0.597700
	C203	C	0.899923	0.389802	0.398322
	C204	C	0.896121	0.584048	0.095965
	C205	C	0.096486	0.395900	0.097887
	C206	C	0.095684	0.584132	0.897438
	C207	C	0.894953	0.396194	0.898842
	C208	C	0.093736	0.889293	0.592355
	C209	C	0.092247	0.089677	0.402183
	C210	C	0.895685	0.089179	0.593281
	C211	C	0.895109	0.890270	0.402728
	C212	C	0.589948	0.091165	0.898106
	C213	C	0.399848	0.090872	0.096151
	C214	C	0.589108	0.891176	0.097478
	C215	C	0.400018	0.890616	0.898547
	Zn216	Zn	0.494183	-0.008273	0.748159
	Zn217	Zn	0.494012	-0.008792	0.247409
	Zn218	Zn	0.744684	0.490875	-0.002052
	Zn219	Zn	0.246639	0.490443	-0.002434
	Zn220	Zn	-0.005289	0.739830	0.497200
	Zn221	Zn	-0.005628	0.239222	0.497873
	Zn222	Zn	-0.004331	0.489114	0.747075
	Zn223	Zn	-0.004586	0.490200	0.248224
	Zn224	Zn	0.495100	0.739964	-0.002080
	Zn225	Zn	0.495217	0.240392	-0.002799
	Zn226	Zn	0.745521	-0.009352	0.497666
	Zn227	Zn	0.242934	-0.009087	0.497479
	N228	N	0.408696	0.954440	0.675837
	N229	N	0.579171	0.029105	0.675518
	N230	N	0.578907	0.953642	0.320220
	N231	N	0.408931	0.028891	0.319444
	N232	N	0.672674	0.405827	0.960061
	N233	N	0.672890	0.575620	0.035687
	N234	N	0.318187	0.575822	0.960566
	N235	N	0.318739	0.405348	0.034699
	N236	N	0.958150	0.669491	0.410166
	N237	N	0.031988	0.668853	0.583887
	N238	N	0.957415	0.310362	0.583844
	N239	N	0.031343	0.310621	0.411776
	N240	N	0.957626	0.403860	0.675404
	N241	N	0.033518	0.573061	0.673633
	N242	N	0.957547	0.574626	0.320098
	N243	N	0.032672	0.405242	0.321136
	N244	N	0.409876	0.668346	0.960567
	N245	N	0.582344	0.669816	0.034754
	N246	N	0.581078	0.312364	0.960310
	N247	N	0.409921	0.312036	0.034262
	N248	N	0.673675	0.953857	0.411330
	N249	N	0.674094	0.027899	0.583999
	N250	N	0.315799	0.954233	0.583241
	N251	N	0.313999	0.027978	0.410585
	N252	N	0.911278	0.452292	0.174893
	N253	N	0.081480	0.527353	0.176429
	N254	N	0.080052	0.451881	0.820571
	N255	N	0.910818	0.527400	0.819559
	N256	N	0.172610	0.904304	0.460302
	N257	N	0.170063	0.074207	0.535011
	N258	N	0.817604	0.075215	0.460577
	N259	N	0.816988	0.904337	0.535231
	N260	N	0.458487	0.170528	0.910027
	N261	N	0.531691	0.169304	0.083895
	N262	N	0.458411	0.810708	0.085174
	N263	N	0.531796	0.811651	0.911464
	N264	N	0.456254	0.906261	0.175029
	N265	N	0.531742	0.075517	0.175160
	N266	N	0.456948	0.075141	0.821369
	N267	N	0.531915	0.906222	0.820404
	N268	N	0.908305	0.168210	0.460981
	N269	N	0.079854	0.167393	0.534881
	N270	N	0.080067	0.811585	0.459649
	N271	N	0.908626	0.810657	0.535053
	N272	N	0.175279	0.453119	0.911477
	N273	N	0.174824	0.527319	0.083716
	N274	N	0.816541	0.453227	0.083654
	N275	N	0.815203	0.527360	0.910392
	O276	O	1.040591	1.008076	0.033648
	H277	H	1.030924	1.007550	0.028912
	H278	H	1.042985	1.013450	0.022899
	O279	O	-0.033018	-0.026470	-0.012469
	H280	H	-0.029883	-0.038053	-0.013420
	H281	H	-0.029242	-0.025287	-0.023174
	O282	O	-0.031391	-0.093842	0.974025
	H283	H	-0.037473	-0.105031	0.979967
	H284	H	-0.034540	-0.093463	0.973390
	O285	O	1.497948	1.576258	0.526671
	H286	H	1.496952	1.583332	0.530350
	H287	H	1.493840	1.565546	0.529127
	O288	O	0.538240	0.547288	0.486127
	H289	H	0.544667	0.551948	0.486356
	H290	H	0.540766	0.549753	0.483018
	O291	O	0.533159	0.585325	0.558047
	H292	H	0.540041	0.588128	0.565527
	H293	H	0.539022	0.579550	0.564196
	O294	O	-0.038259	0.005843	0.044814
	H295	H	-0.041922	0.011542	0.027599
	H296	H	-0.031724	0.000239	0.045330
	O297	O	0.538933	0.591325	0.509356
	H298	H	0.540105	0.593823	0.514567
	H299	H	0.540048	0.597689	0.508100
	O300	O	-0.039845	0.977905	1.027044
	H301	H	-0.049236	0.979179	1.035030
	H302	H	-0.042111	0.980415	1.037652
	O303	O	0.485447	0.554592	0.505736
	H304	H	0.482291	0.554934	0.509981
	H305	H	0.475446	0.559863	0.503962
	O306	O	0.013754	-0.037239	1.019224
	H307	H	0.011046	-0.034711	1.026007
	H308	H	0.018263	-0.036835	1.015384
	O309	O	0.912235	0.913109	1.001145
	H310	H	0.909932	0.914952	1.018609
	H311	H	0.913666	0.908281	1.004318
	O312	O	0.523851	0.530583	0.579429
	H313	H	0.523015	0.534202	0.573949
	H314	H	0.525188	0.531452	0.568216
	O315	O	0.485051	0.552670	0.436466
	H316	H	0.493441	0.560197	0.448868
	H317	H	0.482911	0.560368	0.430691
	O318	O	-0.018706	0.946023	0.028191
	H319	H	-0.023668	0.955234	0.030080
	H320	H	-0.017384	0.932622	0.031259
	O321	O	1.028371	0.980700	0.089621
	H322	H	1.027284	0.993449	0.090899
	H323	H	1.030419	0.980879	0.093714
