data_Molecule from HDF5

_cell_length_a		16.285286
_cell_length_b		15.958681
_cell_length_c		16.451001
_cell_angle_alpha	90.341466
_cell_angle_beta	90.320342
_cell_angle_gamma	90.520362
_symmetry_space_group_name_H-M	'P 1'
_symmetry_Int_Tables_number		1

loop_
	_symmetry_equiv_pos_as_xyz
	x,y,z

loop_
	_atom_site_label
	_atom_site_type_symbol
	_atom_site_fract_x
	_atom_site_fract_y
	_atom_site_fract_z
	H0	H	0.393985	0.836079	0.710619
	H1	H	0.600339	0.166223	0.715384
	H2	H	0.592662	0.835197	0.282341
	H3	H	0.393727	0.165543	0.282134
	H4	H	0.712724	0.400322	0.840015
	H5	H	0.713713	0.608757	0.161473
	H6	H	0.273935	0.601905	0.839595
	H7	H	0.276550	0.397366	0.161844
	H8	H	0.828885	0.710045	0.408765
	H9	H	0.158829	0.718870	0.601446
	H10	H	0.830858	0.287980	0.596209
	H11	H	0.160104	0.293222	0.406562
	H12	H	0.832511	0.397677	0.718668
	H13	H	0.155927	0.610180	0.724584
	H14	H	0.833451	0.605477	0.282989
	H15	H	0.155872	0.399511	0.283870
	H16	H	0.397340	0.712152	0.835249
	H17	H	0.592180	0.720088	0.161997
	H18	H	0.588430	0.289882	0.836590
	H19	H	0.396275	0.285000	0.162109
	H20	H	0.706836	0.834873	0.398081
	H21	H	0.708603	0.168160	0.598013
	H22	H	0.281009	0.836075	0.593608
	H23	H	0.283836	0.168507	0.398334
	H24	H	0.894023	0.336856	0.213665
	H25	H	0.098292	0.668627	0.218628
	H26	H	0.096301	0.339185	0.783567
	H27	H	0.892058	0.667578	0.786668
	H28	H	0.208005	0.898891	0.336201
	H29	H	0.217226	0.106650	0.658676
	H30	H	0.777522	0.102881	0.338410
	H31	H	0.775582	0.900398	0.660635
	H32	H	0.330224	0.210762	0.901456
	H33	H	0.658859	0.215434	0.096279
	H34	H	0.330203	0.789269	0.089512
	H35	H	0.660124	0.790495	0.902628
	H36	H	0.332929	0.892044	0.215562
	H37	H	0.655422	0.107012	0.219299
	H38	H	0.334651	0.102860	0.777938
	H39	H	0.658070	0.899267	0.781377
	H40	H	0.898758	0.215113	0.337271
	H41	H	0.094690	0.217348	0.662635
	H42	H	0.086670	0.787296	0.337583
	H43	H	0.897982	0.790255	0.664062
	H44	H	0.203122	0.335104	0.903257
	H45	H	0.213039	0.667774	0.103081
	H46	H	0.780220	0.337264	0.099373
	H47	H	0.783876	0.669182	0.905013
	H48	H	0.409121	0.119311	0.586757
	H49	H	0.586564	0.882867	0.586785
	H50	H	0.582273	0.115779	0.414275
	H51	H	0.403111	0.881579	0.401664
	H52	H	0.584484	0.412904	0.113643
	H53	H	0.593974	0.591204	0.885322
	H54	H	0.401009	0.598224	0.115890
	H55	H	0.393754	0.405321	0.883766
	H56	H	0.114903	0.598551	0.402354
	H57	H	0.876690	0.594991	0.600600
	H58	H	0.109767	0.410512	0.587989
	H59	H	0.879529	0.416315	0.406011
	H60	H	0.108515	0.423609	0.598576
	H61	H	0.879212	0.595213	0.593203
	H62	H	0.110537	0.598888	0.417681
	H63	H	0.876148	0.407267	0.401273
	H64	H	0.400280	0.588074	0.113185
	H65	H	0.587081	0.593473	0.885717
	H66	H	0.588431	0.405743	0.117115
	H67	H	0.396234	0.412742	0.885857
	H68	H	0.593367	0.121370	0.407563
	H69	H	0.587759	0.881191	0.591699
	H70	H	0.405270	0.121106	0.589358
	H71	H	0.401800	0.883434	0.408033
	H72	H	0.903633	0.622567	0.092955
	H73	H	0.090367	0.381348	0.096249
	H74	H	0.084511	0.620093	0.915053
	H75	H	0.904096	0.382780	0.905291
	H76	H	0.098587	0.914650	0.616828
	H77	H	0.088489	0.102873	0.381074
	H78	H	0.895286	0.091710	0.616128
	H79	H	0.893944	0.902813	0.382264
	H80	H	0.614339	0.100846	0.904607
	H81	H	0.375500	0.097797	0.091577
	H82	H	0.610331	0.913857	0.088937
	H83	H	0.381765	0.914395	0.906012
	H84	H	0.610719	0.916092	0.094912
	H85	H	0.381003	0.086959	0.086430
	H86	H	0.609460	0.092812	0.911436
	H87	H	0.377302	0.910669	0.894477
	H88	H	0.906475	0.089698	0.612508
	H89	H	0.095465	0.093098	0.382450
	H90	H	0.086685	0.921175	0.610919
	H91	H	0.897239	0.914377	0.385693
	H92	H	0.086698	0.621136	0.913119
	H93	H	0.079009	0.384962	0.099064
	H94	H	0.904276	0.623495	0.098518
	H95	H	0.906447	0.385649	0.911933
	H96	H	0.409908	0.121005	0.592040
	H97	H	0.583452	0.882632	0.591379
	H98	H	0.582216	0.120375	0.400912
	H99	H	0.397637	0.880020	0.403815
	H100	H	0.592765	0.413463	0.116649
	H101	H	0.591193	0.597005	0.883224
	H102	H	0.409252	0.594093	0.111983
	H103	H	0.401708	0.406600	0.885878
	H104	H	0.108616	0.585383	0.409561
	H105	H	0.879818	0.588538	0.596988
	H106	H	0.114725	0.409490	0.603810
	H107	H	0.878495	0.406867	0.412171
	H108	H	0.908703	0.621670	0.095114
	H109	H	0.083692	0.386745	0.088193
	H110	H	0.084225	0.620433	0.913382
	H111	H	0.898512	0.383289	0.911654
	H112	H	0.086228	0.906918	0.615473
	H113	H	0.084810	0.093741	0.385688
	H114	H	0.902971	0.101229	0.616546
	H115	H	0.905258	0.904752	0.386139
	H116	H	0.612712	0.088866	0.900576
	H117	H	0.376963	0.086896	0.098278
	H118	H	0.611428	0.910128	0.093783
	H119	H	0.377119	0.902061	0.903465
	C120	C	0.376855	0.010816	0.617564
	C121	C	0.616685	0.992226	0.619557
	C122	C	0.614560	0.009565	0.377779
	C123	C	0.373183	0.991981	0.375854
	C124	C	0.616690	0.381056	0.008698
	C125	C	0.618604	0.625601	0.991507
	C126	C	0.373057	0.622348	0.007366
	C127	C	0.369799	0.377964	0.992025
	C128	C	0.003224	0.623167	0.381132
	C129	C	0.986222	0.624991	0.626359
	C130	C	0.003360	0.382202	0.624316
	C131	C	0.986236	0.381345	0.379190
	C132	C	0.874829	0.512497	0.123288
	C133	C	0.116378	0.493559	0.124572
	C134	C	0.113946	0.511456	0.882948
	C135	C	0.874146	0.493941	0.881198
	C136	C	0.116811	0.882348	0.507615
	C137	C	0.119239	0.126231	0.490113
	C138	C	0.873092	0.123311	0.508270
	C139	C	0.871028	0.879257	0.491765
	C140	C	0.504464	0.123314	0.875767
	C141	C	0.485525	0.122000	0.121131
	C142	C	0.503094	0.881337	0.119392
	C143	C	0.486944	0.879862	0.874398
	C144	C	0.375792	0.885834	0.672470
	C145	C	0.618196	0.116902	0.676752
	C146	C	0.612658	0.884612	0.321049
	C147	C	0.374821	0.116429	0.320357
	C148	C	0.672911	0.381733	0.887699
	C149	C	0.674510	0.626896	0.113310
	C150	C	0.314442	0.620893	0.886789
	C151	C	0.315020	0.378470	0.113486
	C152	C	0.878866	0.674910	0.386258
	C153	C	0.109298	0.682059	0.623302
	C154	C	0.880201	0.325304	0.618741
	C155	C	0.110166	0.328414	0.384158
	C156	C	0.881113	0.380162	0.679717
	C157	C	0.107979	0.627653	0.684207
	C158	C	0.881375	0.623239	0.323516
	C159	C	0.108025	0.381589	0.323301
	C160	C	0.375836	0.675838	0.884618
	C161	C	0.614231	0.682580	0.113412
	C162	C	0.611263	0.326581	0.885868
	C163	C	0.374788	0.322561	0.113680
	C164	C	0.669395	0.884562	0.378555
	C165	C	0.672224	0.117766	0.618177
	C166	C	0.319331	0.885820	0.614534
	C167	C	0.320322	0.117992	0.378408
	C168	C	0.874494	0.387068	0.177196
	C169	C	0.117806	0.618423	0.181221
	C170	C	0.113998	0.387680	0.824014
	C171	C	0.873796	0.618063	0.824844
	C172	C	0.170294	0.880681	0.385121
	C173	C	0.177536	0.125803	0.611079
	C174	C	0.817079	0.121812	0.386526
	C175	C	0.815113	0.881150	0.613103
	C176	C	0.380368	0.175736	0.879430
	C177	C	0.609202	0.178498	0.118019
	C178	C	0.379473	0.825288	0.112896
	C179	C	0.610409	0.825857	0.879907
	C180	C	0.381021	0.877044	0.175238
	C181	C	0.607498	0.124494	0.179188
	C182	C	0.382571	0.122029	0.818038
	C183	C	0.609690	0.880627	0.819978
	C184	C	0.876948	0.178292	0.386102
	C185	C	0.116782	0.180992	0.613036
	C186	C	0.110189	0.824805	0.385854
	C187	C	0.876298	0.826841	0.615000
	C188	C	0.167223	0.385516	0.883246
	C189	C	0.174315	0.618170	0.123296
	C190	C	0.818049	0.387184	0.120087
	C191	C	0.819823	0.619093	0.883790
	C192	C	0.401159	0.097889	0.595830
	C193	C	0.592703	0.905041	0.596662
	C194	C	0.592575	0.096589	0.400812
	C195	C	0.394614	0.904460	0.397870
	C196	C	0.594998	0.403980	0.093792
	C197	C	0.597044	0.601096	0.906805
	C198	C	0.396598	0.600117	0.091751
	C199	C	0.391012	0.401242	0.907215
	C200	C	0.089232	0.600944	0.403389
	C201	C	0.900858	0.600103	0.603726
	C202	C	0.089071	0.407122	0.603011
	C203	C	0.900249	0.403488	0.400189
	C204	C	0.898552	0.599847	0.101860
	C205	C	0.091485	0.407073	0.101343
	C206	C	0.091731	0.597951	0.907006
	C207	C	0.896518	0.406535	0.903087
	C208	C	0.096703	0.906916	0.592473
	C209	C	0.096336	0.103296	0.405229
	C210	C	0.895071	0.100896	0.592924
	C211	C	0.892310	0.901041	0.406691
	C212	C	0.589911	0.100903	0.898659
	C213	C	0.399984	0.097599	0.098637
	C214	C	0.588811	0.905987	0.098658
	C215	C	0.400948	0.902550	0.895069
	Zn216	Zn	0.496897	0.001385	0.746443
	Zn217	Zn	0.493455	0.000441	0.249552
	Zn218	Zn	0.747828	0.503547	0.001705
	Zn219	Zn	0.241909	0.500945	0.001133
	Zn220	Zn	-0.005347	0.751839	0.502100
	Zn221	Zn	-0.004439	0.253775	0.500662
	Zn222	Zn	-0.005715	0.503346	0.754921
	Zn223	Zn	-0.005438	0.502894	0.251179
	Zn224	Zn	0.494995	0.753609	-0.002399
	Zn225	Zn	0.493920	0.250389	-0.000419
	Zn226	Zn	0.742270	0.001529	0.499358
	Zn227	Zn	0.248048	0.003009	0.496635
	N228	N	0.410794	0.964721	0.674720
	N229	N	0.584198	0.037732	0.677763
	N230	N	0.579272	0.963407	0.320339
	N231	N	0.406914	0.037031	0.318645
	N232	N	0.676431	0.414888	0.965097
	N233	N	0.677426	0.592217	0.036626
	N234	N	0.312641	0.588290	0.964132
	N235	N	0.311723	0.412245	0.036726
	N236	N	0.955725	0.674965	0.421454
	N237	N	0.032556	0.680584	0.588106
	N238	N	0.957381	0.326371	0.585039
	N239	N	0.033287	0.328283	0.418379
	N240	N	0.958815	0.414730	0.683201
	N241	N	0.030353	0.592995	0.686223
	N242	N	0.959835	0.591749	0.320306
	N243	N	0.029942	0.413752	0.320054
	N244	N	0.411732	0.676896	0.960425
	N245	N	0.580261	0.681850	0.036794
	N246	N	0.577026	0.326055	0.962056
	N247	N	0.407922	0.322068	0.036999
	N248	N	0.670908	0.963285	0.413099
	N249	N	0.671290	0.039243	0.583267
	N250	N	0.319874	0.964528	0.581074
	N251	N	0.319000	0.039484	0.412106
	N252	N	0.908926	0.466088	0.179349
	N253	N	0.082398	0.539897	0.182118
	N254	N	0.081388	0.466856	0.823646
	N255	N	0.906657	0.538969	0.823230
	N256	N	0.174556	0.915952	0.461776
	N257	N	0.179436	0.092641	0.533514
	N258	N	0.814308	0.088703	0.463503
	N259	N	0.811595	0.912933	0.535569
	N260	N	0.457128	0.176712	0.914575
	N261	N	0.532399	0.177225	0.082623
	N262	N	0.456320	0.828000	0.078872
	N263	N	0.533066	0.825393	0.912962
	N264	N	0.458953	0.911370	0.179229
	N265	N	0.529697	0.090124	0.181219
	N266	N	0.460739	0.090259	0.815517
	N267	N	0.531761	0.913269	0.816291
	N268	N	0.911166	0.179341	0.462648
	N269	N	0.081547	0.181693	0.536851
	N270	N	0.077928	0.825463	0.462852
	N271	N	0.910198	0.825301	0.538540
	N272	N	0.167295	0.463325	0.919428
	N273	N	0.174149	0.539344	0.089204
	N274	N	0.818077	0.466223	0.087254
	N275	N	0.819989	0.540831	0.918377
	O276	O	1.013368	0.062260	1.059197
	H277	H	0.998209	0.050324	1.061050
	H278	H	1.015519	0.061912	1.047692
	O279	O	0.519144	0.467955	0.445054
	H280	H	0.512398	0.465838	0.446941
	H281	H	0.518875	0.467906	0.452433
	O282	O	0.644226	0.526977	0.524560
	H283	H	0.645071	0.522242	0.524299
	H284	H	0.643697	0.534508	0.518620
	O285	O	0.448152	0.601570	0.422871
	H286	H	0.434592	0.596676	0.430578
	H287	H	0.449870	0.595091	0.431755
	O288	O	0.501017	0.444609	0.618251
	H289	H	0.495232	0.448508	0.616075
	H290	H	0.511743	0.455415	0.626797
	O291	O	-0.049703	0.003010	1.036050
	H292	H	-0.054109	0.011464	1.049350
	H293	H	-0.054044	-0.001283	1.037805
	O294	O	1.006860	1.028018	0.058613
	H295	H	1.004001	1.027046	0.059909
	H296	H	1.018913	1.030779	0.058538
	O297	O	0.974171	1.013910	0.036621
	H298	H	0.981767	1.004910	0.050738
	H299	H	0.983292	1.016467	0.054490
	O300	O	0.549939	0.653705	0.582391
	H301	H	0.557115	0.669167	0.574025
	H302	H	0.548548	0.646854	0.569121
	O303	O	0.424968	0.528903	0.407481
	H304	H	0.428069	0.528719	0.404012
	H305	H	0.432890	0.529611	0.420455
	O306	O	0.488450	0.495070	0.574578
	H307	H	0.489599	0.500164	0.553070
	H308	H	0.491456	0.480893	0.571608
	O309	O	0.506063	0.448442	0.413146
	H310	H	0.507012	0.439075	0.410237
	H311	H	0.511550	0.448294	0.417363
	O312	O	0.875418	1.072396	0.869538
	H313	H	0.866519	1.055783	0.863999
	H314	H	0.858748	1.075360	0.868171
	O315	O	1.024326	1.030336	-0.014157
	H316	H	1.016289	1.037944	-0.022928
	H317	H	1.027481	1.038461	-0.003013
	O318	O	0.508509	0.470535	0.531374
	H319	H	0.504000	0.477798	0.522179
	H320	H	0.521316	0.479882	0.520306
	O321	O	0.440872	0.402390	0.581177
	H322	H	0.429818	0.391973	0.584187
	H323	H	0.425115	0.401477	0.569358
	O324	O	-0.027008	1.077992	0.855472
	H325	H	-0.031133	1.073151	0.855584
	H326	H	-0.038445	1.081401	0.850227
	O327	O	0.111226	0.854289	0.886424
	H328	H	0.115193	0.859110	0.882942
	H329	H	0.105224	0.870455	0.887228
	O330	O	0.083562	-0.031029	0.116579
	H331	H	0.078023	-0.011554	0.118858
	H332	H	0.088199	-0.031843	0.120039
	O333	O	0.408958	0.573577	0.499226
	H334	H	0.415903	0.581707	0.493980
	H335	H	0.405287	0.566851	0.492040
	O336	O	-0.028589	0.019087	0.042976
	H337	H	-0.022180	0.006798	0.046055
	H338	H	-0.020582	0.018232	0.041037
	O339	O	0.092044	0.059117	0.117039
	H340	H	0.084680	0.054812	0.102051
	H341	H	0.092694	0.075920	0.127309
	O342	O	0.448818	0.579862	0.444035
	H343	H	0.435302	0.571813	0.440074
	H344	H	0.447591	0.575216	0.443511
	O345	O	0.121652	1.063614	0.951622
	H346	H	0.136292	1.078169	0.959196
	H347	H	0.119497	1.063463	0.962758
	O348	O	0.575292	0.445300	0.398319
	H349	H	0.586855	0.439855	0.407617
	H350	H	0.574633	0.455271	0.408078
	O351	O	0.442325	0.479589	0.459206
	H352	H	0.446169	0.483645	0.464916
	H353	H	0.439750	0.477008	0.450621
	O354	O	0.020148	0.907913	-0.061572
	H355	H	0.011921	0.913393	-0.074590
	H356	H	0.022029	0.917754	-0.060694
	O357	O	0.497473	0.389240	0.392335
	H358	H	0.503650	0.384318	0.396839
	H359	H	0.490281	0.400275	0.392555
	O360	O	0.911951	0.049395	1.079177
	H361	H	0.913404	0.033147	1.081649
	H362	H	0.900848	0.048607	1.073381
	O363	O	0.616919	0.564849	0.641887
	H364	H	0.615146	0.564304	0.650030
	H365	H	0.624443	0.580395	0.632627
	O366	O	0.451317	0.370933	0.616442
	H367	H	0.439245	0.372241	0.611496
	H368	H	0.445552	0.370471	0.621470
	O369	O	0.837108	-0.110806	0.112804
	H370	H	0.846448	-0.113060	0.116145
	H371	H	0.849317	-0.115191	0.117195
	O372	O	0.423439	0.535799	0.560624
	H373	H	0.423838	0.529601	0.554645
	H374	H	0.425327	0.545105	0.554990
	O375	O	0.975105	-0.011041	0.827240
	H376	H	0.984875	0.000784	0.832735
	H377	H	0.983078	-0.015509	0.822104
	O378	O	0.060353	1.040452	0.080719
	H379	H	0.056066	1.045188	0.082574
	H380	H	0.058286	1.047662	0.078468
	O381	O	0.566777	0.418494	0.421651
	H382	H	0.571981	0.422807	0.417751
	H383	H	0.570095	0.424440	0.432234
	O384	O	1.001429	1.037912	0.072396
	H385	H	1.015790	1.037389	0.070333
	H386	H	0.995917	1.045859	0.073768
	O387	O	1.026464	0.102633	0.894273
	H388	H	1.028884	0.100944	0.881760
	H389	H	1.009518	0.099915	0.894584
	O390	O	0.981916	0.883186	-0.049005
	H391	H	0.989169	0.874018	-0.063944
	H392	H	1.000432	0.874757	-0.046827
	O393	O	0.462789	0.512196	0.531070
	H394	H	0.469592	0.507976	0.546977
	H395	H	0.466640	0.501812	0.549030
