data_Molecule from HDF5

_cell_length_a		16.250464
_cell_length_b		16.266359
_cell_length_c		16.311681
_cell_angle_alpha	90.029969
_cell_angle_beta	90.037531
_cell_angle_gamma	89.994250
_symmetry_space_group_name_H-M	'P 1'
_symmetry_Int_Tables_number		1

loop_
	_symmetry_equiv_pos_as_xyz
	x,y,z

loop_
	_atom_site_label
	_atom_site_type_symbol
	_atom_site_fract_x
	_atom_site_fract_y
	_atom_site_fract_z
	H0	H	0.400680	0.836340	0.715513
	H1	H	0.598632	0.163519	0.714718
	H2	H	0.598342	0.836513	0.285691
	H3	H	0.400771	0.163064	0.285057
	H4	H	0.714077	0.403032	0.836544
	H5	H	0.714463	0.597782	0.163622
	H6	H	0.284793	0.598073	0.836822
	H7	H	0.286459	0.402210	0.163533
	H8	H	0.835663	0.713445	0.401854
	H9	H	0.164195	0.713235	0.597113
	H10	H	0.835546	0.286635	0.597224
	H11	H	0.163772	0.286003	0.402397
	H12	H	0.836261	0.401948	0.714279
	H13	H	0.163648	0.598270	0.713686
	H14	H	0.835578	0.597355	0.286736
	H15	H	0.163324	0.401969	0.286313
	H16	H	0.402254	0.713638	0.835942
	H17	H	0.597798	0.713544	0.163889
	H18	H	0.598568	0.285980	0.836540
	H19	H	0.402127	0.285289	0.163608
	H20	H	0.712783	0.835660	0.402939
	H21	H	0.712713	0.163762	0.597567
	H22	H	0.285937	0.836206	0.597939
	H23	H	0.286170	0.164364	0.401951
	H24	H	0.901827	0.336225	0.213522
	H25	H	0.098388	0.663915	0.214549
	H26	H	0.099361	0.336487	0.785366
	H27	H	0.901320	0.663606	0.786000
	H28	H	0.214851	0.901713	0.336834
	H29	H	0.213182	0.097799	0.663720
	H30	H	0.785452	0.097510	0.336608
	H31	H	0.786986	0.902831	0.663997
	H32	H	0.336374	0.215073	0.901507
	H33	H	0.664536	0.213445	0.097293
	H34	H	0.335626	0.786814	0.097105
	H35	H	0.664357	0.786135	0.902400
	H36	H	0.335967	0.901740	0.213544
	H37	H	0.663929	0.099332	0.215611
	H38	H	0.336332	0.099405	0.785198
	H39	H	0.664242	0.901816	0.786022
	H40	H	0.901573	0.213586	0.336157
	H41	H	0.097421	0.214165	0.663791
	H42	H	0.097834	0.786070	0.336350
	H43	H	0.901713	0.785677	0.663212
	H44	H	0.214122	0.336663	0.901843
	H45	H	0.212715	0.664606	0.096912
	H46	H	0.787541	0.336138	0.097277
	H47	H	0.785980	0.664055	0.902343
	H48	H	0.396477	0.118946	0.590175
	H49	H	0.588350	0.880914	0.604665
	H50	H	0.596660	0.115292	0.417583
	H51	H	0.407218	0.883843	0.407498
	H52	H	0.599108	0.414359	0.116224
	H53	H	0.596166	0.591009	0.883262
	H54	H	0.407868	0.589484	0.115010
	H55	H	0.414589	0.410875	0.887166
	H56	H	0.114988	0.591217	0.411211
	H57	H	0.883132	0.583934	0.600729
	H58	H	0.116311	0.408117	0.591453
	H59	H	0.884657	0.414950	0.404723
	H60	H	0.116645	0.407957	0.594778
	H61	H	0.878536	0.603656	0.598242
	H62	H	0.117477	0.589750	0.401422
	H63	H	0.879156	0.401993	0.400022
	H64	H	0.409985	0.597072	0.116614
	H65	H	0.590259	0.593282	0.884421
	H66	H	0.584647	0.406133	0.113341
	H67	H	0.407828	0.398954	0.881223
	H68	H	0.599318	0.121659	0.398929
	H69	H	0.586562	0.887527	0.584416
	H70	H	0.409243	0.119080	0.604690
	H71	H	0.405950	0.882711	0.407040
	H72	H	0.900333	0.619456	0.093695
	H73	H	0.096183	0.381418	0.097068
	H74	H	0.083901	0.612423	0.912871
	H75	H	0.914459	0.385758	0.907526
	H76	H	0.092865	0.906029	0.616639
	H77	H	0.099034	0.092466	0.381922
	H78	H	0.909046	0.092405	0.615290
	H79	H	0.905609	0.907098	0.383141
	H80	H	0.614283	0.088182	0.911214
	H81	H	0.385455	0.094381	0.085547
	H82	H	0.616388	0.907491	0.094087
	H83	H	0.384862	0.916265	0.903641
	H84	H	0.617752	0.906294	0.093578
	H85	H	0.385327	0.084675	0.095333
	H86	H	0.618144	0.091368	0.900089
	H87	H	0.379100	0.899470	0.899453
	H88	H	0.906625	0.096360	0.618045
	H89	H	0.090192	0.088309	0.386035
	H90	H	0.093464	0.905670	0.616834
	H91	H	0.906666	0.907324	0.384072
	H92	H	0.103959	0.618488	0.911392
	H93	H	0.089588	0.384545	0.094694
	H94	H	0.910788	0.617604	0.099571
	H95	H	0.901403	0.383487	0.912507
	H96	H	0.414334	0.112847	0.586792
	H97	H	0.604851	0.879905	0.591639
	H98	H	0.581728	0.113643	0.404577
	H99	H	0.407264	0.883190	0.405678
	H100	H	0.597884	0.397625	0.120013
	H101	H	0.595161	0.597076	0.882546
	H102	H	0.401803	0.594654	0.118296
	H103	H	0.399885	0.412137	0.883525
	H104	H	0.118262	0.598547	0.405872
	H105	H	0.885996	0.593267	0.582154
	H106	H	0.116737	0.404925	0.591991
	H107	H	0.883712	0.403655	0.413845
	H108	H	0.910236	0.614698	0.087766
	H109	H	0.094742	0.383927	0.089432
	H110	H	0.091326	0.619997	0.894350
	H111	H	0.904521	0.380092	0.899155
	H112	H	0.093715	0.905958	0.616840
	H113	H	0.090486	0.098454	0.382630
	H114	H	0.903653	0.091952	0.616722
	H115	H	0.907315	0.905621	0.383464
	H116	H	0.618157	0.099016	0.908781
	H117	H	0.380397	0.097394	0.098175
	H118	H	0.616933	0.907138	0.092606
	H119	H	0.384606	0.903485	0.916445
	C120	C	0.378469	0.008522	0.621843
	C121	C	0.621380	0.991108	0.621797
	C122	C	0.621269	0.008331	0.378690
	C123	C	0.378216	0.991402	0.378375
	C124	C	0.622111	0.378164	0.008531
	C125	C	0.621950	0.621848	0.991617
	C126	C	0.378286	0.621877	0.008415
	C127	C	0.379012	0.378648	0.991777
	C128	C	0.008296	0.621433	0.378090
	C129	C	0.991297	0.621316	0.621527
	C130	C	0.008386	0.378890	0.620892
	C131	C	0.990823	0.378354	0.378215
	C132	C	0.878891	0.508579	0.121537
	C133	C	0.121619	0.491614	0.121700
	C134	C	0.122040	0.508806	0.878038
	C135	C	0.878484	0.491505	0.878522
	C136	C	0.121811	0.877977	0.508401
	C137	C	0.121382	0.121726	0.491644
	C138	C	0.878092	0.121571	0.508462
	C139	C	0.878289	0.878295	0.491623
	C140	C	0.508461	0.121432	0.878543
	C141	C	0.491921	0.121094	0.121578
	C142	C	0.508360	0.878506	0.121439
	C143	C	0.491779	0.878224	0.878590
	C144	C	0.380368	0.885285	0.677292
	C145	C	0.618721	0.114559	0.676696
	C146	C	0.618477	0.885183	0.323936
	C147	C	0.380766	0.114608	0.323127
	C148	C	0.676501	0.381728	0.885213
	C149	C	0.676831	0.618785	0.114850
	C150	C	0.323161	0.618794	0.885191
	C151	C	0.323823	0.381114	0.114767
	C152	C	0.884801	0.675794	0.381298
	C153	C	0.115120	0.675705	0.617879
	C154	C	0.884609	0.324253	0.618107
	C155	C	0.114658	0.323581	0.381542
	C156	C	0.884828	0.381717	0.675823
	C157	C	0.114932	0.618787	0.676048
	C158	C	0.884753	0.618563	0.323670
	C159	C	0.114702	0.381236	0.324002
	C160	C	0.381492	0.675924	0.884829
	C161	C	0.618673	0.676028	0.114926
	C162	C	0.619360	0.323596	0.885249
	C163	C	0.381077	0.322923	0.114663
	C164	C	0.675441	0.884893	0.382033
	C165	C	0.675451	0.114953	0.618550
	C166	C	0.323471	0.884931	0.618835
	C167	C	0.323858	0.115144	0.381301
	C168	C	0.881349	0.385324	0.176023
	C169	C	0.119015	0.615156	0.176665
	C170	C	0.119085	0.385313	0.823552
	C171	C	0.880980	0.614859	0.823779
	C172	C	0.176393	0.881340	0.385280
	C173	C	0.175571	0.118579	0.614994
	C174	C	0.823156	0.118207	0.385335
	C175	C	0.824157	0.881728	0.614964
	C176	C	0.385139	0.176943	0.881204
	C177	C	0.615442	0.175987	0.118632
	C178	C	0.384887	0.823886	0.118355
	C179	C	0.615341	0.823858	0.881829
	C180	C	0.385098	0.880942	0.176320
	C181	C	0.614979	0.119476	0.177404
	C182	C	0.385054	0.119213	0.823683
	C183	C	0.615314	0.881041	0.823816
	C184	C	0.880721	0.176075	0.385174
	C185	C	0.118013	0.176396	0.614835
	C186	C	0.118767	0.823526	0.385196
	C187	C	0.881154	0.823434	0.614425
	C188	C	0.176464	0.385367	0.881284
	C189	C	0.175469	0.615565	0.118008
	C190	C	0.824844	0.385182	0.117896
	C191	C	0.823570	0.614929	0.881366
	C192	C	0.400207	0.094538	0.600236
	C193	C	0.599712	0.904886	0.599966
	C194	C	0.599137	0.094780	0.400637
	C195	C	0.400251	0.905263	0.400106
	C196	C	0.600391	0.399677	0.094273
	C197	C	0.600334	0.600164	0.905594
	C198	C	0.400085	0.600192	0.094502
	C199	C	0.400988	0.400809	0.906151
	C200	C	0.094683	0.599644	0.399789
	C201	C	0.904763	0.599902	0.600037
	C202	C	0.094355	0.400741	0.599164
	C203	C	0.904816	0.400431	0.399619
	C204	C	0.900823	0.595120	0.100148
	C205	C	0.099937	0.405384	0.100204
	C206	C	0.099680	0.594899	0.899925
	C207	C	0.900447	0.405208	0.900105
	C208	C	0.099919	0.899503	0.594378
	C209	C	0.099659	0.099712	0.405615
	C210	C	0.899962	0.099891	0.594582
	C211	C	0.900066	0.900233	0.405631
	C212	C	0.594706	0.099526	0.900208
	C213	C	0.405958	0.098739	0.099429
	C214	C	0.594842	0.900611	0.099800
	C215	C	0.405186	0.900054	0.900120
	Zn216	Zn	0.500206	0.000057	0.750177
	Zn217	Zn	0.500025	-0.000331	0.250374
	Zn218	Zn	0.750497	0.500255	0.000473
	Zn219	Zn	0.250033	0.500401	0.000081
	Zn220	Zn	-0.000074	0.749282	0.499728
	Zn221	Zn	-0.000805	0.250051	0.499573
	Zn222	Zn	0.000359	0.500154	0.749911
	Zn223	Zn	0.000072	0.500208	0.249798
	Zn224	Zn	0.499965	0.750282	0.000120
	Zn225	Zn	0.500344	0.249336	0.000141
	Zn226	Zn	0.749543	0.000059	0.500054
	Zn227	Zn	0.250354	0.000201	0.499823
	N228	N	0.413807	0.963060	0.679320
	N229	N	0.585764	0.036713	0.678726
	N230	N	0.585510	0.962986	0.321946
	N231	N	0.413967	0.036868	0.321427
	N232	N	0.678356	0.414905	0.962645
	N233	N	0.678762	0.585533	0.037254
	N234	N	0.321253	0.585848	0.962886
	N235	N	0.322500	0.415192	0.037510
	N236	N	0.962519	0.677599	0.414542
	N237	N	0.037169	0.677507	0.584875
	N238	N	0.962275	0.322447	0.584709
	N239	N	0.036839	0.321892	0.414673
	N240	N	0.962642	0.414972	0.677907
	N241	N	0.037158	0.585501	0.678014
	N242	N	0.962677	0.585404	0.321659
	N243	N	0.036799	0.414527	0.321668
	N244	N	0.414950	0.677972	0.962360
	N245	N	0.585568	0.678174	0.037329
	N246	N	0.586097	0.321374	0.962779
	N247	N	0.414815	0.321372	0.037326
	N248	N	0.677339	0.962669	0.415344
	N249	N	0.677090	0.037282	0.584990
	N250	N	0.322372	0.962373	0.584893
	N251	N	0.322228	0.037606	0.414942
	N252	N	0.914628	0.463107	0.178039
	N253	N	0.086101	0.537242	0.179029
	N254	N	0.085791	0.463067	0.821509
	N255	N	0.914341	0.537108	0.821643
	N256	N	0.178497	0.914258	0.462837
	N257	N	0.178009	0.085432	0.537302
	N258	N	0.821512	0.085043	0.463020
	N259	N	0.822107	0.914990	0.537401
	N260	N	0.462879	0.178104	0.914700
	N261	N	0.537910	0.177062	0.084481
	N262	N	0.462585	0.822539	0.084934
	N263	N	0.537496	0.822184	0.915111
	N264	N	0.462928	0.914346	0.178196
	N265	N	0.537330	0.085972	0.179120
	N266	N	0.462685	0.085383	0.822087
	N267	N	0.537465	0.914363	0.821697
	N268	N	0.913962	0.178133	0.462612
	N269	N	0.085066	0.178364	0.537198
	N270	N	0.085509	0.821370	0.462745
	N271	N	0.914265	0.821395	0.536803
	N272	N	0.178346	0.463133	0.914336
	N273	N	0.177206	0.537912	0.084540
	N274	N	0.823084	0.462991	0.084973
	N275	N	0.821907	0.537212	0.914771
