data_Molecule from HDF5

_cell_length_a		16.154441
_cell_length_b		16.327150
_cell_length_c		16.303861
_cell_angle_alpha	90.019436
_cell_angle_beta	90.105395
_cell_angle_gamma	89.911451
_symmetry_space_group_name_H-M	'P 1'
_symmetry_Int_Tables_number		1

loop_
	_symmetry_equiv_pos_as_xyz
	x,y,z

loop_
	_atom_site_label
	_atom_site_type_symbol
	_atom_site_fract_x
	_atom_site_fract_y
	_atom_site_fract_z
	H0	H	0.400103	0.838814	0.711053
	H1	H	0.597690	0.165195	0.712721
	H2	H	0.599257	0.839375	0.282373
	H3	H	0.398702	0.164969	0.281505
	H4	H	0.714462	0.403549	0.832759
	H5	H	0.713723	0.598319	0.161987
	H6	H	0.287800	0.597211	0.832810
	H7	H	0.288646	0.405466	0.160830
	H8	H	0.835413	0.715809	0.398238
	H9	H	0.165681	0.714696	0.595173
	H10	H	0.836045	0.287679	0.596526
	H11	H	0.165176	0.287969	0.398275
	H12	H	0.836583	0.403373	0.711567
	H13	H	0.166130	0.598928	0.710078
	H14	H	0.835849	0.599095	0.283209
	H15	H	0.165716	0.404852	0.284794
	H16	H	0.400433	0.717497	0.833622
	H17	H	0.600601	0.718202	0.159972
	H18	H	0.600663	0.286088	0.833678
	H19	H	0.402224	0.287542	0.159970
	H20	H	0.712622	0.838158	0.400991
	H21	H	0.714157	0.166092	0.595505
	H22	H	0.287915	0.837389	0.591971
	H23	H	0.284971	0.164849	0.398724
	H24	H	0.901812	0.338612	0.212240
	H25	H	0.099948	0.664818	0.211693
	H26	H	0.100939	0.338882	0.781780
	H27	H	0.900601	0.664732	0.780792
	H28	H	0.211856	0.904889	0.332461
	H29	H	0.212507	0.096869	0.660759
	H30	H	0.785356	0.099543	0.332984
	H31	H	0.788097	0.906353	0.661246
	H32	H	0.335865	0.216243	0.898041
	H33	H	0.665840	0.214205	0.094660
	H34	H	0.335942	0.788817	0.094084
	H35	H	0.664773	0.788038	0.898354
	H36	H	0.335080	0.903902	0.209991
	H37	H	0.664072	0.100963	0.212833
	H38	H	0.334612	0.099515	0.784020
	H39	H	0.664821	0.904498	0.783667
	H40	H	0.899864	0.217174	0.333439
	H41	H	0.100068	0.217022	0.659696
	H42	H	0.099208	0.786056	0.333766
	H43	H	0.900664	0.786383	0.660088
	H44	H	0.213531	0.337265	0.900943
	H45	H	0.214076	0.665760	0.093508
	H46	H	0.787139	0.338121	0.094574
	H47	H	0.786236	0.665653	0.898982
	H48	H	0.402286	0.120090	0.593475
	H49	H	0.597815	0.886512	0.585046
	H50	H	0.587854	0.117545	0.403567
	H51	H	0.403843	0.884368	0.401375
	H52	H	0.583188	0.417901	0.107110
	H53	H	0.599413	0.610183	0.874710
	H54	H	0.398097	0.605545	0.118907
	H55	H	0.415774	0.405084	0.881693
	H56	H	0.119879	0.600948	0.404411
	H57	H	0.880472	0.593959	0.599846
	H58	H	0.118692	0.404368	0.588099
	H59	H	0.881698	0.415843	0.393420
	H60	H	0.115754	0.411983	0.585895
	H61	H	0.881658	0.604189	0.584197
	H62	H	0.116215	0.592122	0.408551
	H63	H	0.880344	0.398172	0.405914
	H64	H	0.404005	0.581628	0.110865
	H65	H	0.603158	0.582923	0.881788
	H66	H	0.590025	0.391653	0.116015
	H67	H	0.401821	0.403066	0.876753
	H68	H	0.594257	0.117833	0.408017
	H69	H	0.596696	0.882960	0.596650
	H70	H	0.410313	0.117842	0.593526
	H71	H	0.410060	0.885525	0.400392
	H72	H	0.902285	0.619220	0.089649
	H73	H	0.098156	0.384923	0.088765
	H74	H	0.102700	0.619295	0.909255
	H75	H	0.905423	0.388873	0.915330
	H76	H	0.088174	0.904386	0.612196
	H77	H	0.090038	0.096535	0.379713
	H78	H	0.912265	0.101096	0.613159
	H79	H	0.900612	0.904882	0.377785
	H80	H	0.614029	0.096587	0.918905
	H81	H	0.380373	0.100822	0.091858
	H82	H	0.615637	0.914505	0.088309
	H83	H	0.379220	0.900573	0.902522
	H84	H	0.619759	0.910046	0.094811
	H85	H	0.384316	0.095179	0.083276
	H86	H	0.615323	0.079877	0.898233
	H87	H	0.384727	0.911015	0.909159
	H88	H	0.900902	0.096361	0.615348
	H89	H	0.093967	0.097855	0.379321
	H90	H	0.098591	0.903772	0.616268
	H91	H	0.907885	0.916295	0.383188
	H92	H	0.094454	0.620879	0.891899
	H93	H	0.095511	0.383984	0.095273
	H94	H	0.910703	0.618592	0.095144
	H95	H	0.899105	0.380725	0.895936
	H96	H	0.405852	0.117372	0.586385
	H97	H	0.586884	0.888300	0.590711
	H98	H	0.594169	0.119920	0.400051
	H99	H	0.407373	0.886377	0.405964
	H100	H	0.610456	0.412459	0.116791
	H101	H	0.577562	0.595527	0.885717
	H102	H	0.422091	0.599772	0.109976
	H103	H	0.406237	0.416341	0.881446
	H104	H	0.119641	0.592744	0.399295
	H105	H	0.887470	0.585996	0.584345
	H106	H	0.119869	0.409848	0.593670
	H107	H	0.887905	0.416378	0.414258
	H108	H	0.911380	0.615447	0.085642
	H109	H	0.090879	0.386163	0.089731
	H110	H	0.084403	0.614459	0.906986
	H111	H	0.919825	0.388571	0.899117
	H112	H	0.094191	0.913080	0.611754
	H113	H	0.092304	0.093697	0.379667
	H114	H	0.910414	0.089332	0.610487
	H115	H	0.915198	0.904037	0.381836
	H116	H	0.623432	0.105341	0.895725
	H117	H	0.382858	0.090597	0.092800
	H118	H	0.617821	0.906131	0.087023
	H119	H	0.380877	0.912558	0.896141
	C120	C	0.378106	0.010013	0.618438
	C121	C	0.621982	0.993913	0.619249
	C122	C	0.621229	0.010478	0.375356
	C123	C	0.377628	0.993522	0.374276
	C124	C	0.622885	0.379645	0.004902
	C125	C	0.622569	0.624116	0.988856
	C126	C	0.379338	0.623628	0.005231
	C127	C	0.379656	0.379977	0.988327
	C128	C	0.009292	0.623367	0.375444
	C129	C	0.992515	0.622480	0.617848
	C130	C	0.009400	0.380403	0.618222
	C131	C	0.992160	0.381331	0.375930
	C132	C	0.879776	0.509688	0.118344
	C133	C	0.123073	0.493193	0.119138
	C134	C	0.122436	0.509977	0.875014
	C135	C	0.879027	0.493872	0.874849
	C136	C	0.121845	0.879128	0.505425
	C137	C	0.121215	0.123757	0.487870
	C138	C	0.878518	0.124204	0.505110
	C139	C	0.878979	0.880014	0.488859
	C140	C	0.508280	0.122622	0.875661
	C141	C	0.491637	0.123286	0.118078
	C142	C	0.508955	0.881673	0.118173
	C143	C	0.490918	0.880527	0.875113
	C144	C	0.380320	0.887259	0.672985
	C145	C	0.618868	0.116679	0.674611
	C146	C	0.619129	0.887870	0.320550
	C147	C	0.379390	0.116186	0.319536
	C148	C	0.677185	0.382867	0.881772
	C149	C	0.676974	0.619926	0.112514
	C150	C	0.324793	0.619585	0.881635
	C151	C	0.325812	0.384434	0.111753
	C152	C	0.884928	0.678361	0.377627
	C153	C	0.116564	0.676977	0.615435
	C154	C	0.885200	0.325717	0.616250
	C155	C	0.115977	0.325795	0.377969
	C156	C	0.885582	0.383084	0.673574
	C157	C	0.116713	0.619703	0.672730
	C158	C	0.885073	0.620584	0.320330
	C159	C	0.116264	0.383581	0.321329
	C160	C	0.381140	0.678727	0.882234
	C161	C	0.621024	0.679624	0.111728
	C162	C	0.620565	0.324300	0.882195
	C163	C	0.381990	0.325407	0.111195
	C164	C	0.675521	0.887361	0.379646
	C165	C	0.676448	0.117220	0.616253
	C166	C	0.324384	0.886603	0.613688
	C167	C	0.322368	0.116085	0.377460
	C168	C	0.882062	0.387155	0.173901
	C169	C	0.120239	0.616186	0.173619
	C170	C	0.120357	0.387157	0.820222
	C171	C	0.881005	0.616475	0.819659
	C172	C	0.175392	0.882944	0.381609
	C173	C	0.175423	0.118920	0.611601
	C174	C	0.823227	0.120687	0.381844
	C175	C	0.825109	0.884662	0.612227
	C176	C	0.384823	0.178338	0.877601
	C177	C	0.616125	0.177523	0.115683
	C178	C	0.384983	0.826241	0.115470
	C179	C	0.615526	0.826025	0.878155
	C180	C	0.384425	0.883975	0.172343
	C181	C	0.615460	0.120971	0.173979
	C182	C	0.384122	0.120072	0.821276
	C183	C	0.615459	0.883780	0.821148
	C184	C	0.879425	0.179620	0.382286
	C185	C	0.119608	0.178360	0.611059
	C186	C	0.119557	0.823897	0.382526
	C187	C	0.881116	0.825098	0.611721
	C188	C	0.176591	0.386365	0.879277
	C189	C	0.176951	0.616743	0.114992
	C190	C	0.825456	0.386645	0.115068
	C191	C	0.824137	0.616849	0.878235
	C192	C	0.399705	0.096098	0.597316
	C193	C	0.600243	0.908111	0.597308
	C194	C	0.598725	0.096363	0.397299
	C195	C	0.400394	0.907519	0.396037
	C196	C	0.600928	0.400945	0.091163
	C197	C	0.600114	0.602601	0.902918
	C198	C	0.401567	0.602059	0.091097
	C199	C	0.401708	0.401650	0.902184
	C200	C	0.096229	0.601709	0.397687
	C201	C	0.905607	0.600998	0.595910
	C202	C	0.095728	0.402236	0.595704
	C203	C	0.905707	0.403561	0.398065
	C204	C	0.901606	0.595530	0.096584
	C205	C	0.101314	0.407300	0.097619
	C206	C	0.100559	0.595975	0.896521
	C207	C	0.901402	0.408177	0.896876
	C208	C	0.100182	0.900704	0.591292
	C209	C	0.098814	0.102397	0.401895
	C210	C	0.901124	0.102291	0.590882
	C211	C	0.901385	0.901866	0.402963
	C212	C	0.595284	0.100278	0.897745
	C213	C	0.404996	0.101859	0.095818
	C214	C	0.595322	0.903616	0.096423
	C215	C	0.404038	0.901668	0.896425
	Zn216	Zn	0.499333	0.001756	0.747538
	Zn217	Zn	0.499526	0.002177	0.246343
	Zn218	Zn	0.750617	0.501754	-0.002772
	Zn219	Zn	0.250912	0.501556	-0.002892
	Zn220	Zn	0.000462	0.750785	0.497428
	Zn221	Zn	0.000090	0.252893	0.496169
	Zn222	Zn	0.001254	0.502038	0.746170
	Zn223	Zn	0.001167	0.502063	0.247579
	Zn224	Zn	0.500365	0.752959	-0.002902
	Zn225	Zn	0.500883	0.251185	-0.003652
	Zn226	Zn	0.750597	0.002434	0.497134
	Zn227	Zn	0.249771	0.001486	0.496375
	N228	N	0.413068	0.964884	0.675819
	N229	N	0.585726	0.039077	0.676398
	N230	N	0.586056	0.965524	0.317856
	N231	N	0.412955	0.038621	0.317495
	N232	N	0.678552	0.416602	0.959049
	N233	N	0.677998	0.586283	0.035036
	N234	N	0.323539	0.585943	0.958903
	N235	N	0.324223	0.417674	0.034248
	N236	N	0.963277	0.680302	0.410960
	N237	N	0.038260	0.678866	0.582173
	N238	N	0.963201	0.324018	0.582263
	N239	N	0.037715	0.324341	0.411343
	N240	N	0.963716	0.416286	0.674974
	N241	N	0.038398	0.586543	0.674227
	N242	N	0.963289	0.587290	0.318787
	N243	N	0.038414	0.417601	0.320298
	N244	N	0.414054	0.681540	0.960166
	N245	N	0.587963	0.682419	0.033982
	N246	N	0.587495	0.322146	0.959946
	N247	N	0.414859	0.322997	0.033569
	N248	N	0.676882	0.964798	0.413201
	N249	N	0.678511	0.040030	0.582528
	N250	N	0.322805	0.964041	0.580468
	N251	N	0.321091	0.038711	0.410677
	N252	N	0.915240	0.464770	0.175867
	N253	N	0.087575	0.538536	0.176261
	N254	N	0.087661	0.464921	0.817515
	N255	N	0.914533	0.538982	0.817563
	N256	N	0.176893	0.916974	0.458845
	N257	N	0.176842	0.085687	0.534010
	N258	N	0.822306	0.087172	0.459207
	N259	N	0.823777	0.917983	0.534768
	N260	N	0.463238	0.179963	0.910737
	N261	N	0.538125	0.179222	0.081579
	N262	N	0.463280	0.824762	0.082387
	N263	N	0.537155	0.823828	0.911124
	N264	N	0.462482	0.917519	0.174355
	N265	N	0.537243	0.088033	0.175565
	N266	N	0.462119	0.086069	0.820155
	N267	N	0.537085	0.916578	0.819029
	N268	N	0.913115	0.181836	0.459818
	N269	N	0.086681	0.181279	0.533279
	N270	N	0.087109	0.821375	0.460348
	N271	N	0.913783	0.822084	0.533879
	N272	N	0.177941	0.463779	0.912776
	N273	N	0.178996	0.539218	0.081892
	N274	N	0.824018	0.463750	0.081313
	N275	N	0.822624	0.539487	0.911705
	O276	O	-0.426922	0.525939	1.528001
	H277	H	-0.429584	0.530321	1.535188
	H278	H	-0.427327	0.525683	1.521414
	O279	O	0.552069	0.527111	0.532561
	H280	H	0.565911	0.519070	0.537917
	H281	H	0.553915	0.529722	0.531540
	O282	O	0.929066	-0.016095	0.033237
	H283	H	0.927526	-0.017208	0.037403
	H284	H	0.924766	-0.017527	0.036355
	O285	O	0.555299	0.536159	0.527033
	H286	H	0.559137	0.538214	0.526255
	H287	H	0.550849	0.540862	0.526866
	O288	O	0.556672	0.496504	0.541904
	H289	H	0.553070	0.499741	0.545801
	H290	H	0.556427	0.503309	0.540594
	O291	O	-0.080906	0.976689	1.040258
	H292	H	-0.086808	0.976982	1.043496
	H293	H	-0.078932	0.968090	1.041692
	O294	O	0.577385	0.517789	0.534958
	H295	H	0.579382	0.513176	0.536540
	H296	H	0.578397	0.515383	0.531034
	O297	O	0.935175	-0.038086	0.033512
	H298	H	0.934772	-0.038669	0.035486
	H299	H	0.930828	-0.038976	0.032769
