data_Molecule from HDF5

_cell_length_a		16.445716
_cell_length_b		16.443993
_cell_length_c		16.542426
_cell_angle_alpha	90.073120
_cell_angle_beta	89.902362
_cell_angle_gamma	90.056219
_symmetry_space_group_name_H-M	'P 1'
_symmetry_Int_Tables_number		1

loop_
	_symmetry_equiv_pos_as_xyz
	x,y,z

loop_
	_atom_site_label
	_atom_site_type_symbol
	_atom_site_fract_x
	_atom_site_fract_y
	_atom_site_fract_z
	H0	H	0.392008	0.844802	0.746642
	H1	H	0.608188	0.159269	0.750733
	H2	H	0.606252	0.845426	0.301711
	H3	H	0.392372	0.159386	0.303574
	H4	H	0.722459	0.393081	0.869479
	H5	H	0.722182	0.612063	0.180944
	H6	H	0.277251	0.607164	0.866764
	H7	H	0.277704	0.401054	0.183112
	H8	H	0.840366	0.726862	0.416697
	H9	H	0.155580	0.720979	0.625840
	H10	H	0.837855	0.282346	0.629165
	H11	H	0.154987	0.283775	0.419908
	H12	H	0.838938	0.395134	0.747645
	H13	H	0.154666	0.606453	0.743905
	H14	H	0.840387	0.610090	0.301917
	H15	H	0.153470	0.395317	0.301026
	H16	H	0.392639	0.725129	0.868384
	H17	H	0.603208	0.725691	0.182776
	H18	H	0.605926	0.277644	0.869123
	H19	H	0.391971	0.281692	0.182476
	H20	H	0.720501	0.845097	0.419145
	H21	H	0.720793	0.161122	0.631890
	H22	H	0.276795	0.844893	0.629379
	H23	H	0.277498	0.160836	0.420800
	H24	H	0.888663	0.346185	0.247417
	H25	H	0.100453	0.662241	0.244317
	H26	H	0.100030	0.344082	0.804235
	H27	H	0.891537	0.661477	0.803227
	H28	H	0.219097	0.899295	0.366857
	H29	H	0.216477	0.107211	0.682044
	H30	H	0.773395	0.109523	0.368486
	H31	H	0.775383	0.897152	0.682026
	H32	H	0.338919	0.221079	0.922830
	H33	H	0.656024	0.222938	0.128303
	H34	H	0.337413	0.785830	0.128204
	H35	H	0.656411	0.782513	0.922316
	H36	H	0.339900	0.897495	0.247931
	H37	H	0.656751	0.106834	0.244488
	H38	H	0.341846	0.108407	0.803029
	H39	H	0.655620	0.895067	0.802228
	H40	H	0.890196	0.226152	0.367588
	H41	H	0.098465	0.222683	0.682678
	H42	H	0.104269	0.781090	0.367336
	H43	H	0.890687	0.779946	0.680894
	H44	H	0.215562	0.343775	0.921687
	H45	H	0.214221	0.663541	0.125930
	H46	H	0.772886	0.346483	0.131645
	H47	H	0.775736	0.661705	0.919871
	H48	H	0.412321	0.115821	0.618249
	H49	H	0.586281	0.887640	0.621360
	H50	H	0.585693	0.116060	0.431311
	H51	H	0.410729	0.890052	0.437696
	H52	H	0.579898	0.418010	0.133349
	H53	H	0.584479	0.590708	0.914080
	H54	H	0.405740	0.590128	0.136889
	H55	H	0.408130	0.407179	0.910437
	H56	H	0.109711	0.593289	0.437865
	H57	H	0.885870	0.587064	0.610332
	H58	H	0.109554	0.413277	0.614916
	H59	H	0.883983	0.415358	0.434852
	H60	H	0.109533	0.413815	0.613373
	H61	H	0.882181	0.590503	0.618885
	H62	H	0.107724	0.587787	0.437139
	H63	H	0.883189	0.415459	0.436023
	H64	H	0.408445	0.596432	0.138348
	H65	H	0.584163	0.590416	0.915387
	H66	H	0.583277	0.411917	0.136128
	H67	H	0.402686	0.412086	0.910664
	H68	H	0.580744	0.112886	0.438579
	H69	H	0.578029	0.894590	0.610762
	H70	H	0.410208	0.114931	0.611498
	H71	H	0.407947	0.889649	0.439148
	H72	H	0.914659	0.610695	0.105002
	H73	H	0.088276	0.391045	0.109035
	H74	H	0.086016	0.616007	0.936191
	H75	H	0.914542	0.390651	0.931158
	H76	H	0.084014	0.910984	0.636369
	H77	H	0.084411	0.092483	0.412464
	H78	H	0.918273	0.091385	0.632612
	H79	H	0.908938	0.910270	0.411253
	H80	H	0.607013	0.081560	0.941001
	H81	H	0.383735	0.088042	0.120274
	H82	H	0.612111	0.912374	0.117605
	H83	H	0.388030	0.916018	0.943166
	H84	H	0.611371	0.912344	0.112981
	H85	H	0.382940	0.096348	0.116409
	H86	H	0.614010	0.090676	0.928494
	H87	H	0.385774	0.920274	0.930587
	H88	H	0.906653	0.101200	0.640165
	H89	H	0.087714	0.096831	0.409981
	H90	H	0.090280	0.911595	0.637930
	H91	H	0.905544	0.919419	0.413201
	H92	H	0.090747	0.617355	0.932601
	H93	H	0.089515	0.387674	0.118092
	H94	H	0.900792	0.617764	0.111228
	H95	H	0.912941	0.394501	0.943196
	H96	H	0.405753	0.117399	0.616465
	H97	H	0.592465	0.890946	0.607954
	H98	H	0.589604	0.115456	0.439936
	H99	H	0.408368	0.888992	0.435702
	H100	H	0.586810	0.418622	0.135985
	H101	H	0.583800	0.590966	0.915289
	H102	H	0.401618	0.595298	0.139518
	H103	H	0.408980	0.413855	0.913161
	H104	H	0.110598	0.590942	0.432964
	H105	H	0.881882	0.597017	0.611209
	H106	H	0.108826	0.414984	0.614344
	H107	H	0.883820	0.416070	0.435402
	H108	H	0.914807	0.616551	0.120663
	H109	H	0.080790	0.391615	0.115413
	H110	H	0.085541	0.616643	0.930249
	H111	H	0.902856	0.388863	0.937002
	H112	H	0.087094	0.916535	0.635843
	H113	H	0.090275	0.090869	0.411770
	H114	H	0.902866	0.085411	0.636485
	H115	H	0.914525	0.916840	0.415861
	H116	H	0.611790	0.098328	0.943903
	H117	H	0.385783	0.089545	0.111496
	H118	H	0.610830	0.916403	0.115506
	H119	H	0.381974	0.907816	0.933901
	C120	C	0.376507	0.011590	0.647204
	C121	C	0.619360	0.995038	0.646790
	C122	C	0.618807	0.010680	0.404029
	C123	C	0.376971	0.993832	0.404633
	C124	C	0.618204	0.381560	0.032910
	C125	C	0.617723	0.624171	1.017868
	C126	C	0.374802	0.625448	0.033892
	C127	C	0.375443	0.380787	1.016433
	C128	C	0.005962	0.624281	0.402858
	C129	C	0.988056	0.623551	0.645095
	C130	C	0.004495	0.381680	0.646190
	C131	C	0.988062	0.382510	0.403049
	C132	C	0.875663	0.511633	0.145998
	C133	C	0.117869	0.495196	0.145409
	C134	C	0.118641	0.511641	0.902082
	C135	C	0.876329	0.495326	0.903900
	C136	C	0.119417	0.881516	0.532414
	C137	C	0.118659	0.125310	0.515753
	C138	C	0.875659	0.125260	0.533002
	C139	C	0.876450	0.882062	0.516686
	C140	C	0.506567	0.122860	0.905470
	C141	C	0.489035	0.123693	0.147070
	C142	C	0.506508	0.881547	0.147492
	C143	C	0.489598	0.881811	0.904143
	C144	C	0.374157	0.892461	0.706460
	C145	C	0.624002	0.112742	0.708900
	C146	C	0.623253	0.892750	0.342542
	C147	C	0.374418	0.112375	0.343776
	C148	C	0.681109	0.376449	0.916114
	C149	C	0.680529	0.628796	0.134618
	C150	C	0.316373	0.626480	0.914641
	C151	C	0.316504	0.380903	0.135358
	C152	C	0.887480	0.686163	0.399344
	C153	C	0.107748	0.682180	0.645620
	C154	C	0.885514	0.321875	0.647928
	C155	C	0.107019	0.322588	0.400957
	C156	C	0.886105	0.378062	0.706958
	C157	C	0.107282	0.625022	0.704069
	C158	C	0.887460	0.628043	0.342049
	C159	C	0.106351	0.378522	0.341935
	C160	C	0.373806	0.685179	0.915393
	C161	C	0.621411	0.685669	0.135460
	C162	C	0.623160	0.318526	0.916049
	C163	C	0.373964	0.322065	0.135418
	C164	C	0.680327	0.892467	0.401052
	C165	C	0.680638	0.113449	0.650059
	C166	C	0.316221	0.892723	0.648554
	C167	C	0.317342	0.113143	0.402138
	C168	C	0.871192	0.393665	0.207392
	C169	C	0.118929	0.614689	0.204243
	C170	C	0.119049	0.391676	0.843814
	C171	C	0.873345	0.613979	0.843435
	C172	C	0.179472	0.880170	0.414158
	C173	C	0.177042	0.126199	0.634824
	C174	C	0.814313	0.127633	0.415124
	C175	C	0.815672	0.879144	0.634715
	C176	C	0.387023	0.182114	0.903644
	C177	C	0.608260	0.183663	0.147754
	C178	C	0.385850	0.824032	0.147632
	C179	C	0.608788	0.821775	0.902782
	C180	C	0.387169	0.879355	0.207374
	C181	C	0.608895	0.125552	0.205232
	C182	C	0.388481	0.126185	0.844077
	C183	C	0.608492	0.878157	0.843509
	C184	C	0.872374	0.185686	0.414736
	C185	C	0.118662	0.183879	0.634756
	C186	C	0.122095	0.821462	0.414281
	C187	C	0.873120	0.820689	0.634265
	C188	C	0.176524	0.391632	0.902234
	C189	C	0.175654	0.615270	0.145279
	C190	C	0.813389	0.393638	0.149739
	C191	C	0.815593	0.614152	0.901359
	C192	C	0.402177	0.094448	0.622492
	C193	C	0.592989	0.912403	0.620748
	C194	C	0.592943	0.093338	0.429380
	C195	C	0.402041	0.911079	0.430152
	C196	C	0.591084	0.408586	0.114140
	C197	C	0.591647	0.598005	0.936189
	C198	C	0.398713	0.601046	0.116610
	C199	C	0.399664	0.404328	0.933115
	C200	C	0.087839	0.598186	0.428558
	C201	C	0.904890	0.598684	0.620572
	C202	C	0.087596	0.406822	0.621139
	C203	C	0.905297	0.408227	0.428168
	C204	C	0.902281	0.593760	0.119840
	C205	C	0.093249	0.411776	0.121239
	C206	C	0.094439	0.594956	0.925995
	C207	C	0.902383	0.412998	0.929601
	C208	C	0.094235	0.906095	0.615104
	C209	C	0.094418	0.100467	0.433024
	C210	C	0.901796	0.100009	0.614876
	C211	C	0.902424	0.908035	0.434714
	C212	C	0.589315	0.097520	0.930595
	C213	C	0.405867	0.098375	0.123035
	C214	C	0.589623	0.906406	0.122792
	C215	C	0.406813	0.907432	0.928856
	Zn216	Zn	0.498918	0.002824	0.775566
	Zn217	Zn	0.497979	0.002569	0.275829
	Zn218	Zn	0.747344	0.503021	0.024713
	Zn219	Zn	0.246908	0.502913	0.024187
	Zn220	Zn	-0.002309	0.752669	0.523857
	Zn221	Zn	-0.003603	0.254344	0.524357
	Zn222	Zn	-0.003593	0.502509	0.774185
	Zn223	Zn	-0.002953	0.503068	0.274664
	Zn224	Zn	0.497234	0.754033	0.026418
	Zn225	Zn	0.497136	0.252192	0.025284
	Zn226	Zn	0.747229	0.003083	0.525305
	Zn227	Zn	0.248299	0.003578	0.524992
	N228	N	0.411023	0.967471	0.705844
	N229	N	0.586771	0.037865	0.706943
	N230	N	0.585692	0.967273	0.344404
	N231	N	0.410635	0.037085	0.345106
	N232	N	0.677898	0.415243	0.989617
	N233	N	0.678326	0.591017	0.060532
	N234	N	0.316851	0.590135	0.989352
	N235	N	0.317373	0.416509	0.060205
	N236	N	0.962075	0.683999	0.436387
	N237	N	0.032452	0.681472	0.609785
	N238	N	0.960170	0.324127	0.610679
	N239	N	0.032251	0.324737	0.438072
	N240	N	0.961160	0.414829	0.705786
	N241	N	0.031739	0.589444	0.703956
	N242	N	0.961959	0.590382	0.344053
	N243	N	0.031266	0.415044	0.343106
	N244	N	0.409182	0.684876	0.990516
	N245	N	0.582929	0.682706	0.061926
	N246	N	0.584429	0.321753	0.989601
	N247	N	0.409593	0.321749	0.060275
	N248	N	0.677639	0.966887	0.438637
	N249	N	0.677687	0.039127	0.612008
	N250	N	0.317465	0.968020	0.612558
	N251	N	0.319013	0.038671	0.439288
	N252	N	0.909329	0.467932	0.205083
	N253	N	0.083746	0.538829	0.204499
	N254	N	0.083808	0.467337	0.843538
	N255	N	0.910099	0.538965	0.844675
	N256	N	0.177794	0.916911	0.488671
	N257	N	0.177466	0.090784	0.559623
	N258	N	0.816266	0.090700	0.489569
	N259	N	0.817716	0.916580	0.560673
	N260	N	0.461656	0.180405	0.940929
	N261	N	0.532700	0.182850	0.112560
	N262	N	0.461177	0.824975	0.111442
	N263	N	0.533877	0.823824	0.939466
	N264	N	0.463089	0.914180	0.207484
	N265	N	0.533457	0.089366	0.205371
	N266	N	0.463802	0.090379	0.845055
	N267	N	0.533268	0.914597	0.844032
	N268	N	0.909652	0.184214	0.488948
	N269	N	0.083173	0.183486	0.559644
	N270	N	0.085341	0.822343	0.488853
	N271	N	0.910054	0.822191	0.559595
	N272	N	0.176650	0.467267	0.937532
	N273	N	0.175421	0.539720	0.109864
	N274	N	0.815989	0.468177	0.112434
	N275	N	0.817371	0.539371	0.938253
	O276	O	0.066455	-0.130027	0.234425
	H277	H	0.055484	-0.130055	0.247425
	H278	H	0.059767	-0.102576	0.231734
	O279	O	1.193966	1.190047	0.222262
	H280	H	1.203080	1.172846	0.215712
	H281	H	1.182057	1.207234	0.241191
	O282	O	0.374407	0.339430	0.413974
	H283	H	0.386609	0.340935	0.407582
	H284	H	0.370260	0.348842	0.428145
	O285	O	0.480899	0.339460	0.717639
	H286	H	0.487674	0.323629	0.747299
	H287	H	0.459490	0.342909	0.702848
	O288	O	-0.136458	0.089283	0.072907
	H289	H	-0.144485	0.096605	0.078473
	H290	H	-0.137580	0.092997	0.070047
	O291	O	0.888453	1.009089	0.228379
	H292	H	0.860480	1.014464	0.250790
	H293	H	0.903651	1.008846	0.219618
	O294	O	-0.037228	1.092752	0.003208
	H295	H	-0.033417	1.089086	0.014209
	H296	H	-0.046731	1.095517	0.004862
	O297	O	0.284012	0.287649	0.556224
	H298	H	0.273020	0.274149	0.566888
	H299	H	0.284920	0.285453	0.549252
	O300	O	0.411765	0.348161	0.433138
	H301	H	0.415112	0.355719	0.423805
	H302	H	0.409486	0.343688	0.439967
	O303	O	0.297543	0.654587	0.678836
	H304	H	0.309977	0.637496	0.650660
	H305	H	0.304349	0.638698	0.670206
	O306	O	-0.130456	1.179090	1.119084
	H307	H	-0.121944	1.183226	1.130845
	H308	H	-0.153038	1.175201	1.136697
	O309	O	0.453283	0.580439	0.360177
	H310	H	0.448782	0.589346	0.343469
	H311	H	0.457078	0.599922	0.377309
	O312	O	0.198357	1.021415	0.225064
	H313	H	0.199880	1.025175	0.229514
	H314	H	0.202723	1.024988	0.213333
	O315	O	-0.206262	0.028773	1.156173
	H316	H	-0.214741	0.015228	1.189294
	H317	H	-0.207694	0.011029	1.148534
	O318	O	0.635827	0.477751	0.397181
	H319	H	0.618506	0.479065	0.397527
	H320	H	0.644243	0.468202	0.383865
	O321	O	0.527347	0.718552	0.493189
	H322	H	0.516740	0.704133	0.513449
	H323	H	0.543748	0.725097	0.500491
	O324	O	0.673230	0.595944	0.320862
	H325	H	0.662768	0.595125	0.324425
	H326	H	0.668994	0.588659	0.321096
	O327	O	1.211165	0.216915	1.057417
	H328	H	1.231768	0.218445	1.062741
	H329	H	1.228114	0.216576	1.077841
	O330	O	0.495925	0.530050	-0.366143
	H331	H	0.503164	0.544669	-0.362955
	H332	H	0.499759	0.526072	-0.371393
	O333	O	0.809756	0.832400	1.220278
	H334	H	0.814626	0.820122	1.183386
	H335	H	0.792699	0.825264	1.227387
	O336	O	0.287221	-0.526217	0.739472
	H337	H	0.265699	-0.529705	0.753522
	H338	H	0.303761	-0.536905	0.747739
	O339	O	0.288107	0.499939	0.456935
	H340	H	0.289233	0.503666	0.466404
	H341	H	0.285110	0.502257	0.442466
	O342	O	0.945508	0.121028	0.072022
	H343	H	0.932631	0.117003	0.073019
	H344	H	0.959048	0.124392	0.073090
	O345	O	0.682489	0.715246	0.534715
	H346	H	0.703614	0.732924	0.548224
	H347	H	0.691582	0.695478	0.517699
	O348	O	1.198340	-0.251929	1.229121
	H349	H	1.196505	-0.238052	1.228703
	H350	H	1.212559	-0.241360	1.235034
	O351	O	1.211737	0.837019	0.019437
	H352	H	1.212551	0.830399	-0.001230
	H353	H	1.222029	0.826076	-0.006657
	O354	O	0.414804	0.594187	0.540246
	H355	H	0.415010	0.587143	0.559513
	H356	H	0.394477	0.594909	0.536499
	O357	O	1.006390	0.832626	1.228707
	H358	H	0.996307	0.831178	1.239142
	H359	H	1.010400	0.832612	1.241190
	O360	O	0.309615	0.476437	0.349338
	H361	H	0.307831	0.505850	0.340352
	H362	H	0.307919	0.489746	0.336754
	O363	O	1.167445	0.044783	0.002341
	H364	H	1.166683	0.049056	0.007167
	H365	H	1.157101	0.022438	-0.001351
	O366	O	0.869330	0.078945	0.827972
	H367	H	0.871770	0.073848	0.826863
	H368	H	0.871430	0.104202	0.826527
	O369	O	0.565647	0.296571	-0.404524
	H370	H	0.564869	0.287420	-0.388940
	H371	H	0.546830	0.308128	-0.408344
	O372	O	0.582356	0.504788	0.658363
	H373	H	0.590286	0.483733	0.658619
	H374	H	0.575377	0.494744	0.655537
	O375	O	-0.500203	0.677233	1.324390
	H376	H	-0.498117	0.704293	1.311055
	H377	H	-0.490343	0.673437	1.339958
	O378	O	0.524903	0.280660	0.305664
	H379	H	0.539263	0.264637	0.287712
	H380	H	0.553718	0.276228	0.303234
	O381	O	1.172041	-0.088223	-0.016873
	H382	H	1.161568	-0.084057	-0.002549
	H383	H	1.165660	-0.107434	-0.022361
	O384	O	-0.057117	0.164302	0.834727
	H385	H	-0.045915	0.157282	0.852059
	H386	H	-0.041964	0.172157	0.840286
	O387	O	0.016121	0.795731	1.033517
	H388	H	0.041787	0.794829	1.035427
	H389	H	0.022061	0.797396	1.051241
	O390	O	0.015850	-0.211169	0.845671
	H391	H	-0.000131	-0.208063	0.838854
	H392	H	0.019655	-0.219778	0.844900
	O393	O	0.361773	0.695736	-0.453339
	H394	H	0.352393	0.672039	-0.446586
	H395	H	0.368283	0.700196	-0.447464
	O396	O	0.490185	0.421077	0.738238
	H397	H	0.481094	0.420677	0.737437
	H398	H	0.480180	0.404961	0.740685
	O399	O	0.698042	0.349308	0.628858
	H400	H	0.711059	0.365740	0.629014
	H401	H	0.688638	0.333258	0.641153
	O402	O	-0.101339	-0.148833	0.834231
	H403	H	-0.114811	-0.132138	0.844562
	H404	H	-0.089906	-0.140609	0.845345
	O405	O	-0.127152	0.042139	-0.000514
	H406	H	-0.127440	0.036231	-0.008940
	H407	H	-0.135215	0.047715	-0.022521
	O408	O	1.026009	1.217099	0.238865
	H409	H	1.033881	1.239269	0.254923
	H410	H	1.023176	1.212691	0.237690
	O411	O	-0.201647	0.805196	0.067348
	H412	H	-0.187789	0.805198	0.049863
	H413	H	-0.196528	0.790021	0.047684
	O414	O	0.298415	0.700040	0.412160
	H415	H	0.334265	0.705256	0.406848
	H416	H	0.277282	0.718707	0.420962
	O417	O	0.306967	0.306683	0.719109
	H418	H	0.300136	0.319355	0.699813
	H419	H	0.286406	0.283559	0.734669
	O420	O	0.571061	0.713138	0.738290
	H421	H	0.584368	0.739523	0.767040
	H422	H	0.565599	0.679180	0.745011
	O423	O	-0.165698	0.887811	-0.027794
	H424	H	-0.163028	0.893022	-0.020401
	H425	H	-0.154444	0.890113	-0.031508
	O426	O	1.173566	1.170929	0.835191
	H427	H	1.171543	1.147370	0.852403
	H428	H	1.138074	1.166955	0.852580
	O429	O	0.688391	0.366065	0.582226
	H430	H	0.709567	0.360021	0.591738
	H431	H	0.674042	0.363731	0.596256
	O432	O	0.688171	0.308339	0.375515
	H433	H	0.696351	0.340520	0.371651
	H434	H	0.693407	0.301120	0.413523
	O435	O	0.186781	-0.012965	-0.154830
	H436	H	0.191450	-0.011180	-0.167435
	H437	H	0.187161	-0.021969	-0.154945
	O438	O	0.847224	0.140348	-0.107272
	H439	H	0.826830	0.152687	-0.093013
	H440	H	0.867001	0.159301	-0.102672
	O441	O	1.199150	0.799102	-0.120908
	H442	H	1.221224	0.775628	-0.146262
	H443	H	1.173153	0.800793	-0.123414
	O444	O	0.711457	0.549063	0.745076
	H445	H	0.743988	0.551007	0.774118
	H446	H	0.695607	0.568062	0.738327
	O447	O	0.632576	0.677253	0.715748
	H448	H	0.608354	0.684529	0.725608
	H449	H	0.649855	0.682822	0.680526
	O450	O	0.520835	0.497952	0.402538
	H451	H	0.510443	0.479757	0.401761
	H452	H	0.512828	0.495485	0.403709
	O453	O	1.050065	1.082201	-0.005744
	H454	H	1.067271	1.090160	0.010943
	H455	H	1.034993	1.068225	0.003322
	O456	O	1.061334	0.007237	-0.188207
	H457	H	1.068553	-0.004819	-0.182555
	H458	H	1.069707	-0.008413	-0.189228
	O459	O	0.686253	0.577533	0.476999
	H460	H	0.683291	0.556777	0.484075
	H461	H	0.688636	0.565462	0.472209
	O462	O	0.475994	0.455069	0.401785
	H463	H	0.459057	0.449130	0.389639
	H464	H	0.467890	0.453081	0.399140
	O465	O	0.853094	0.171594	0.052541
	H466	H	0.852796	0.173277	0.065790
	H467	H	0.852481	0.167263	0.065999
