data_Molecule from HDF5

_cell_length_a		16.305648
_cell_length_b		16.165748
_cell_length_c		16.291679
_cell_angle_alpha	89.856173
_cell_angle_beta	89.840818
_cell_angle_gamma	90.054062
_symmetry_space_group_name_H-M	'P 1'
_symmetry_Int_Tables_number		1

loop_
	_symmetry_equiv_pos_as_xyz
	x,y,z

loop_
	_atom_site_label
	_atom_site_type_symbol
	_atom_site_fract_x
	_atom_site_fract_y
	_atom_site_fract_z
	H0	H	0.410487	0.843259	0.714066
	H1	H	0.607677	0.172059	0.712254
	H2	H	0.607999	0.843387	0.284641
	H3	H	0.411860	0.172901	0.287252
	H4	H	0.723420	0.409104	0.836010
	H5	H	0.722430	0.607202	0.162210
	H6	H	0.293437	0.609185	0.835296
	H7	H	0.291231	0.407377	0.161273
	H8	H	0.844112	0.722374	0.401268
	H9	H	0.172031	0.720429	0.595034
	H10	H	0.844075	0.293258	0.596720
	H11	H	0.172543	0.295425	0.401331
	H12	H	0.844538	0.406801	0.714968
	H13	H	0.170844	0.608016	0.713544
	H14	H	0.844155	0.607732	0.282912
	H15	H	0.170587	0.407669	0.281812
	H16	H	0.412210	0.721539	0.834983
	H17	H	0.603977	0.720639	0.163573
	H18	H	0.607071	0.294336	0.835407
	H19	H	0.409601	0.293670	0.162335
	H20	H	0.723100	0.842846	0.401161
	H21	H	0.724245	0.171334	0.598118
	H22	H	0.295259	0.842453	0.599190
	H23	H	0.295788	0.172023	0.401514
	H24	H	0.907762	0.343232	0.214062
	H25	H	0.106065	0.672058	0.210813
	H26	H	0.105778	0.342729	0.785492
	H27	H	0.909087	0.671771	0.783419
	H28	H	0.224379	0.908641	0.335892
	H29	H	0.223179	0.105842	0.662532
	H30	H	0.793638	0.108150	0.336035
	H31	H	0.793759	0.907371	0.662404
	H32	H	0.344368	0.220810	0.902398
	H33	H	0.672874	0.221611	0.095276
	H34	H	0.343869	0.794457	0.097938
	H35	H	0.672151	0.795153	0.903022
	H36	H	0.345207	0.909674	0.215817
	H37	H	0.672175	0.107763	0.213623
	H38	H	0.345360	0.107613	0.783764
	H39	H	0.672332	0.909533	0.785009
	H40	H	0.912077	0.221161	0.334535
	H41	H	0.106026	0.221767	0.662785
	H42	H	0.106465	0.795689	0.334456
	H43	H	0.910316	0.792512	0.663032
	H44	H	0.223310	0.343571	0.898629
	H45	H	0.220835	0.672349	0.095895
	H46	H	0.792344	0.343007	0.098832
	H47	H	0.794169	0.671753	0.899089
	H48	H	0.412734	0.123657	0.583354
	H49	H	0.597144	0.889759	0.596962
	H50	H	0.598480	0.123152	0.407433
	H51	H	0.424424	0.894244	0.413086
	H52	H	0.596399	0.414848	0.114076
	H53	H	0.605211	0.613345	0.878137
	H54	H	0.415853	0.601555	0.115729
	H55	H	0.421617	0.410812	0.882725
	H56	H	0.120840	0.592965	0.406742
	H57	H	0.893257	0.596100	0.589271
	H58	H	0.124804	0.413262	0.592891
	H59	H	0.889639	0.406564	0.408878
	H60	H	0.123171	0.415847	0.588484
	H61	H	0.890742	0.598809	0.595987
	H62	H	0.126778	0.601734	0.393846
	H63	H	0.894656	0.420977	0.409453
	H64	H	0.411321	0.601868	0.116456
	H65	H	0.611243	0.592153	0.882365
	H66	H	0.603614	0.411185	0.117779
	H67	H	0.408716	0.413871	0.880215
	H68	H	0.605403	0.125453	0.409769
	H69	H	0.599633	0.891708	0.586838
	H70	H	0.409196	0.128683	0.597913
	H71	H	0.407068	0.888188	0.410798
	H72	H	0.918825	0.621886	0.086484
	H73	H	0.096034	0.392820	0.086949
	H74	H	0.110743	0.627645	0.908105
	H75	H	0.916691	0.390908	0.908053
	H76	H	0.103025	0.921054	0.614443
	H77	H	0.103470	0.103495	0.381220
	H78	H	0.912418	0.111721	0.619251
	H79	H	0.914751	0.917264	0.382646
	H80	H	0.623087	0.099842	0.912010
	H81	H	0.394827	0.096192	0.089518
	H82	H	0.624897	0.910903	0.086462
	H83	H	0.394990	0.909956	0.921958
	H84	H	0.622073	0.921783	0.091315
	H85	H	0.391338	0.099293	0.100630
	H86	H	0.624997	0.095737	0.899367
	H87	H	0.394436	0.931923	0.899645
	H88	H	0.907279	0.090454	0.615320
	H89	H	0.106473	0.100572	0.381603
	H90	H	0.096465	0.910683	0.614869
	H91	H	0.917702	0.916932	0.383685
	H92	H	0.097673	0.627225	0.894292
	H93	H	0.105177	0.388837	0.087669
	H94	H	0.909887	0.626023	0.088564
	H95	H	0.912109	0.389456	0.907430
	H96	H	0.424334	0.123408	0.594066
	H97	H	0.607405	0.887824	0.592570
	H98	H	0.604022	0.126745	0.403061
	H99	H	0.418942	0.887722	0.397014
	H100	H	0.603831	0.419575	0.115385
	H101	H	0.590367	0.598685	0.886767
	H102	H	0.412935	0.597967	0.114906
	H103	H	0.416904	0.423304	0.884953
	H104	H	0.125753	0.609276	0.408645
	H105	H	0.891113	0.603709	0.589436
	H106	H	0.123671	0.417853	0.593100
	H107	H	0.889728	0.415359	0.396609
	H108	H	0.917056	0.625493	0.095460
	H109	H	0.098987	0.388326	0.095651
	H110	H	0.093262	0.621171	0.912015
	H111	H	0.914973	0.389149	0.904054
	H112	H	0.108716	0.910169	0.618383
	H113	H	0.102723	0.100019	0.382992
	H114	H	0.928066	0.097579	0.611113
	H115	H	0.915632	0.914149	0.381929
	H116	H	0.627376	0.107975	0.902755
	H117	H	0.390218	0.107325	0.091515
	H118	H	0.626881	0.912567	0.097738
	H119	H	0.384520	0.903047	0.893053
	C120	C	0.387566	0.016015	0.620656
	C121	C	0.630145	0.998786	0.619929
	C122	C	0.631237	0.016448	0.377649
	C123	C	0.388397	0.999078	0.378891
	C124	C	0.629697	0.386743	0.007542
	C125	C	0.629867	0.629679	0.990511
	C126	C	0.385841	0.629901	0.007546
	C127	C	0.386598	0.386593	0.990175
	C128	C	0.016010	0.629969	0.375375
	C129	C	0.999930	0.628339	0.619543
	C130	C	0.016155	0.385784	0.620626
	C131	C	0.999581	0.386162	0.376647
	C132	C	0.885810	0.516087	0.120100
	C133	C	0.128677	0.498780	0.118938
	C134	C	0.129581	0.516467	0.876568
	C135	C	0.886712	0.498853	0.877399
	C136	C	0.130783	0.885922	0.507513
	C137	C	0.131333	0.129358	0.490598
	C138	C	0.887677	0.128827	0.507077
	C139	C	0.887346	0.886015	0.490772
	C140	C	0.516878	0.129720	0.876802
	C141	C	0.500405	0.129825	0.121140
	C142	C	0.516424	0.886764	0.120907
	C143	C	0.499538	0.886370	0.877126
	C144	C	0.390224	0.892069	0.675913
	C145	C	0.627829	0.122916	0.674523
	C146	C	0.628995	0.892677	0.322071
	C147	C	0.391419	0.123497	0.324674
	C148	C	0.685285	0.389111	0.884646
	C149	C	0.684731	0.627420	0.113548
	C150	C	0.331566	0.628299	0.884277
	C151	C	0.330146	0.387541	0.112818
	C152	C	0.893017	0.685269	0.379227
	C153	C	0.122875	0.683062	0.615922
	C154	C	0.893032	0.330455	0.617811
	C155	C	0.123229	0.332370	0.380260
	C156	C	0.893223	0.387104	0.676551
	C157	C	0.122152	0.627276	0.675290
	C158	C	0.892877	0.627441	0.321251
	C159	C	0.122428	0.388340	0.321117
	C160	C	0.390371	0.684406	0.884054
	C161	C	0.625515	0.683536	0.114427
	C162	C	0.627403	0.332009	0.884332
	C163	C	0.388961	0.331315	0.113319
	C164	C	0.685875	0.892225	0.380260
	C165	C	0.685551	0.122695	0.617794
	C166	C	0.332459	0.891929	0.619237
	C167	C	0.333836	0.123017	0.381498
	C168	C	0.887510	0.392333	0.176123
	C169	C	0.125956	0.622815	0.173326
	C170	C	0.127124	0.392461	0.822151
	C171	C	0.889172	0.622828	0.821850
	C172	C	0.186285	0.888333	0.384610
	C173	C	0.185290	0.126447	0.613833
	C174	C	0.832138	0.127340	0.384489
	C175	C	0.831831	0.887149	0.613688
	C176	C	0.393344	0.183774	0.881200
	C177	C	0.623847	0.184326	0.116801
	C178	C	0.392833	0.832306	0.118402
	C179	C	0.623092	0.831807	0.881057
	C180	C	0.393739	0.889017	0.177316
	C181	C	0.623439	0.127902	0.175791
	C182	C	0.393998	0.127517	0.822055
	C183	C	0.623251	0.889225	0.822952
	C184	C	0.890845	0.183636	0.383615
	C185	C	0.127179	0.184023	0.613828
	C186	C	0.127875	0.831943	0.383979
	C187	C	0.890090	0.830319	0.613871
	C188	C	0.185428	0.392838	0.878534
	C189	C	0.183406	0.623063	0.116278
	C190	C	0.830488	0.392151	0.118643
	C191	C	0.831758	0.622581	0.878970
	C192	C	0.409140	0.102749	0.598292
	C193	C	0.608133	0.912180	0.598360
	C194	C	0.609151	0.102854	0.399933
	C195	C	0.410176	0.912356	0.400672
	C196	C	0.607656	0.408772	0.093635
	C197	C	0.608445	0.608035	0.904725
	C198	C	0.407062	0.607232	0.093426
	C199	C	0.409133	0.409417	0.904536
	C200	C	0.102083	0.607787	0.396754
	C201	C	0.913828	0.606010	0.597831
	C202	C	0.101647	0.408773	0.598051
	C203	C	0.913561	0.407853	0.398532
	C204	C	0.908456	0.602133	0.097016
	C205	C	0.106572	0.412230	0.096752
	C206	C	0.107348	0.603065	0.898515
	C207	C	0.908218	0.412125	0.899881
	C208	C	0.108911	0.907479	0.593680
	C209	C	0.110421	0.107661	0.404263
	C210	C	0.909292	0.106269	0.593053
	C211	C	0.909523	0.909334	0.404961
	C212	C	0.602845	0.107674	0.898248
	C213	C	0.414374	0.107617	0.100084
	C214	C	0.602169	0.908598	0.098381
	C215	C	0.413545	0.908367	0.898451
	Zn216	Zn	0.508789	0.007991	0.747877
	Zn217	Zn	0.509048	0.008344	0.250204
	Zn218	Zn	0.758815	0.507932	-0.001105
	Zn219	Zn	0.257587	0.507942	-0.001701
	Zn220	Zn	0.008680	0.757771	0.498534
	Zn221	Zn	0.008605	0.257567	0.498469
	Zn222	Zn	0.007705	0.507312	0.749196
	Zn223	Zn	0.007504	0.507156	0.247335
	Zn224	Zn	0.507700	0.758066	-0.000775
	Zn225	Zn	0.508607	0.258237	-0.001239
	Zn226	Zn	0.758746	0.007096	0.499542
	Zn227	Zn	0.259958	0.006930	0.499670
	N228	N	0.423488	0.970309	0.677098
	N229	N	0.594003	0.044923	0.675919
	N230	N	0.595799	0.970882	0.320393
	N231	N	0.424668	0.045351	0.322886
	N232	N	0.686724	0.422436	0.962309
	N233	N	0.687677	0.594803	0.035656
	N234	N	0.328729	0.594801	0.961994
	N235	N	0.328542	0.421275	0.035330
	N236	N	0.970588	0.686758	0.412341
	N237	N	0.045758	0.683776	0.581800
	N238	N	0.970331	0.329575	0.583635
	N239	N	0.045971	0.331008	0.414240
	N240	N	0.970655	0.420815	0.678268
	N241	N	0.044467	0.593992	0.677460
	N242	N	0.970521	0.594151	0.318536
	N243	N	0.044469	0.420899	0.318596
	N244	N	0.423382	0.685494	0.961588
	N245	N	0.591989	0.685137	0.037038
	N246	N	0.593353	0.330634	0.961670
	N247	N	0.423250	0.330490	0.036023
	N248	N	0.687491	0.970197	0.413932
	N249	N	0.687127	0.044486	0.584713
	N250	N	0.330867	0.970041	0.585511
	N251	N	0.332024	0.044634	0.414541
	N252	N	0.921236	0.470378	0.177192
	N253	N	0.092589	0.544643	0.175097
	N254	N	0.093132	0.470228	0.820730
	N255	N	0.922399	0.544706	0.820683
	N256	N	0.188235	0.921145	0.462292
	N257	N	0.188099	0.093293	0.536290
	N258	N	0.830061	0.093806	0.462274
	N259	N	0.830052	0.921073	0.536198
	N260	N	0.470789	0.185390	0.914489
	N261	N	0.546359	0.185768	0.083745
	N262	N	0.470065	0.830733	0.084163
	N263	N	0.545397	0.829977	0.914001
	N264	N	0.471533	0.922340	0.178963
	N265	N	0.545667	0.094617	0.178519
	N266	N	0.471786	0.094715	0.819266
	N267	N	0.545496	0.922386	0.820378
	N268	N	0.924684	0.184620	0.460748
	N269	N	0.094557	0.185934	0.536026
	N270	N	0.094168	0.830144	0.461538
	N271	N	0.923968	0.829559	0.536375
	N272	N	0.187038	0.471159	0.911631
	N273	N	0.185182	0.544901	0.083095
	N274	N	0.829425	0.470014	0.084437
	N275	N	0.830284	0.544578	0.912908
	O276	O	0.494565	0.488475	0.536422
	H277	H	0.491169	0.490418	0.538340
	H278	H	0.499354	0.484136	0.536813
	O279	O	-0.062752	-0.021311	0.069702
	H280	H	-0.057600	-0.019184	0.064488
	H281	H	-0.057242	-0.031893	0.073187
	O282	O	0.477785	0.490934	0.509949
	H283	H	0.486654	0.483571	0.511571
	H284	H	0.479408	0.483810	0.512593
	O285	O	0.412699	0.439241	0.561916
	H286	H	0.412983	0.439613	0.560502
	H287	H	0.403871	0.437121	0.570632
	O288	O	1.016524	-0.039303	0.033284
	H289	H	1.016681	-0.031073	0.040508
	H290	H	1.013245	-0.035731	0.034879
	O291	O	-0.570209	0.495902	-0.439680
	H292	H	-0.564433	0.506034	-0.443536
	H293	H	-0.564155	0.503010	-0.436783
	O294	O	0.434769	0.467613	0.573434
	H295	H	0.432553	0.455584	0.578074
	H296	H	0.427425	0.460740	0.568511
	O297	O	-0.040111	0.973300	0.080540
	H298	H	-0.031245	0.969295	0.069890
	H299	H	-0.050248	0.965661	0.082171
	O300	O	0.990248	-0.055271	1.061485
	H301	H	0.983766	-0.054129	1.075503
	H302	H	0.997413	-0.050986	1.064376
	O303	O	0.484588	0.441731	0.531918
	H304	H	0.473156	0.439637	0.531834
	H305	H	0.480102	0.446535	0.535130
	O306	O	-0.030179	0.991356	1.089321
	H307	H	-0.037565	0.988096	1.091451
	H308	H	-0.034745	0.991914	1.088178
	O309	O	0.476175	0.526647	0.525698
	H310	H	0.479324	0.530662	0.526677
	H311	H	0.472692	0.526741	0.520608
