data_Molecule from HDF5

_cell_length_a		16.379745
_cell_length_b		16.442004
_cell_length_c		16.219995
_cell_angle_alpha	89.912600
_cell_angle_beta	89.862688
_cell_angle_gamma	89.837540
_symmetry_space_group_name_H-M	'P 1'
_symmetry_Int_Tables_number		1

loop_
	_symmetry_equiv_pos_as_xyz
	x,y,z

loop_
	_atom_site_label
	_atom_site_type_symbol
	_atom_site_fract_x
	_atom_site_fract_y
	_atom_site_fract_z
	H0	H	0.384559	0.840525	0.714018
	H1	H	0.589843	0.160094	0.718746
	H2	H	0.586473	0.839875	0.278788
	H3	H	0.383570	0.161132	0.278520
	H4	H	0.704417	0.394788	0.834406
	H5	H	0.699764	0.599886	0.158835
	H6	H	0.266585	0.603453	0.834212
	H7	H	0.263951	0.397578	0.157144
	H8	H	0.824802	0.722366	0.390213
	H9	H	0.145054	0.720279	0.598958
	H10	H	0.825985	0.279986	0.601369
	H11	H	0.143824	0.277304	0.385524
	H12	H	0.824414	0.396290	0.715606
	H13	H	0.145498	0.600945	0.712616
	H14	H	0.822095	0.600781	0.279415
	H15	H	0.145813	0.399182	0.275318
	H16	H	0.379628	0.721878	0.834933
	H17	H	0.585812	0.717823	0.158258
	H18	H	0.590959	0.278313	0.836610
	H19	H	0.378995	0.282458	0.158200
	H20	H	0.703779	0.840258	0.395354
	H21	H	0.706009	0.160327	0.602441
	H22	H	0.264887	0.842393	0.601926
	H23	H	0.262774	0.158838	0.388631
	H24	H	0.884533	0.339792	0.212647
	H25	H	0.084011	0.662156	0.210627
	H26	H	0.089485	0.339987	0.775531
	H27	H	0.883525	0.661422	0.778288
	H28	H	0.203962	0.900120	0.333488
	H29	H	0.203248	0.103992	0.657608
	H30	H	0.768898	0.101505	0.333438
	H31	H	0.767710	0.898204	0.658266
	H32	H	0.323542	0.221897	0.893207
	H33	H	0.643482	0.221662	0.101489
	H34	H	0.323427	0.784280	0.099350
	H35	H	0.643755	0.780043	0.891658
	H36	H	0.322475	0.903068	0.212530
	H37	H	0.645996	0.099445	0.211952
	H38	H	0.322586	0.102706	0.778416
	H39	H	0.646084	0.899227	0.780073
	H40	H	0.885584	0.216749	0.333329
	H41	H	0.091136	0.221528	0.656637
	H42	H	0.087456	0.785113	0.333036
	H43	H	0.881496	0.781656	0.657043
	H44	H	0.207050	0.341776	0.890833
	H45	H	0.201989	0.660761	0.097757
	H46	H	0.765744	0.340220	0.098881
	H47	H	0.764610	0.659965	0.892474
	H48	H	0.402633	0.112465	0.584707
	H49	H	0.573377	0.890691	0.582732
	H50	H	0.571671	0.113045	0.405807
	H51	H	0.399040	0.888048	0.404270
	H52	H	0.583951	0.413937	0.113031
	H53	H	0.571360	0.598946	0.878831
	H54	H	0.397553	0.591650	0.110644
	H55	H	0.398425	0.410045	0.881221
	H56	H	0.099525	0.600423	0.406083
	H57	H	0.870173	0.590987	0.586935
	H58	H	0.099413	0.406602	0.583410
	H59	H	0.868724	0.410709	0.395412
	H60	H	0.096795	0.411976	0.580159
	H61	H	0.869803	0.594788	0.584791
	H62	H	0.096203	0.588316	0.407290
	H63	H	0.869641	0.400441	0.410081
	H64	H	0.391338	0.597705	0.113471
	H65	H	0.581009	0.587694	0.879270
	H66	H	0.566775	0.418623	0.105759
	H67	H	0.393760	0.411652	0.880642
	H68	H	0.580189	0.114479	0.409859
	H69	H	0.583729	0.885697	0.586194
	H70	H	0.389602	0.114530	0.579716
	H71	H	0.393464	0.888513	0.411265
	H72	H	0.888369	0.616290	0.087052
	H73	H	0.080006	0.386654	0.079336
	H74	H	0.072740	0.611526	0.905683
	H75	H	0.897873	0.389411	0.909522
	H76	H	0.072726	0.915199	0.608510
	H77	H	0.075955	0.092505	0.379994
	H78	H	0.902317	0.102523	0.612685
	H79	H	0.892587	0.907982	0.379525
	H80	H	0.597283	0.094245	0.910542
	H81	H	0.368943	0.086653	0.096058
	H82	H	0.598141	0.909502	0.083516
	H83	H	0.371273	0.912326	0.907277
	H84	H	0.599744	0.910369	0.090024
	H85	H	0.366498	0.103319	0.087516
	H86	H	0.595363	0.086984	0.911158
	H87	H	0.368888	0.910701	0.904860
	H88	H	0.883672	0.090729	0.615177
	H89	H	0.076324	0.086786	0.381819
	H90	H	0.071759	0.906859	0.611677
	H91	H	0.892179	0.914350	0.380130
	H92	H	0.074874	0.613853	0.906168
	H93	H	0.075934	0.385227	0.090754
	H94	H	0.892076	0.615074	0.088011
	H95	H	0.888334	0.385402	0.907921
	H96	H	0.392650	0.117754	0.593017
	H97	H	0.574377	0.886536	0.593490
	H98	H	0.579283	0.116944	0.400649
	H99	H	0.390849	0.884423	0.403702
	H100	H	0.570327	0.400815	0.113841
	H101	H	0.567110	0.585379	0.885526
	H102	H	0.389014	0.588944	0.111881
	H103	H	0.397184	0.414853	0.883017
	H104	H	0.101860	0.592403	0.396541
	H105	H	0.871989	0.591073	0.582495
	H106	H	0.099042	0.413301	0.586981
	H107	H	0.875912	0.416547	0.410225
	H108	H	0.890807	0.614635	0.084373
	H109	H	0.067873	0.389550	0.082154
	H110	H	0.073756	0.613194	0.903822
	H111	H	0.896036	0.385294	0.900463
	H112	H	0.079695	0.910859	0.612035
	H113	H	0.070984	0.089716	0.382125
	H114	H	0.902203	0.081062	0.606924
	H115	H	0.897711	0.911166	0.380631
	H116	H	0.597556	0.089729	0.905093
	H117	H	0.373486	0.088935	0.077528
	H118	H	0.600661	0.904420	0.086964
	H119	H	0.369075	0.908479	0.908388
	C120	C	0.363805	0.009439	0.617488
	C121	C	0.608281	0.992631	0.619619
	C122	C	0.607047	0.008725	0.374852
	C123	C	0.363872	0.992324	0.375005
	C124	C	0.605877	0.378907	0.004550
	C125	C	0.604022	0.621101	0.988052
	C126	C	0.362552	0.623271	0.004803
	C127	C	0.364018	0.380907	0.987975
	C128	C	-0.007342	0.623458	0.373011
	C129	C	0.976249	0.622656	0.616112
	C130	C	-0.006807	0.379068	0.616160
	C131	C	0.976994	0.378706	0.373191
	C132	C	0.861568	0.509089	0.117300
	C133	C	0.104969	0.492867	0.115420
	C134	C	0.106488	0.508075	0.873170
	C135	C	0.862299	0.491724	0.873826
	C136	C	0.106373	0.880223	0.503922
	C137	C	0.106847	0.122218	0.487350
	C138	C	0.864680	0.122044	0.504429
	C139	C	0.863764	0.880108	0.487102
	C140	C	0.491687	0.122605	0.875871
	C141	C	0.475751	0.122840	0.118127
	C142	C	0.492817	0.879301	0.117659
	C143	C	0.475846	0.879159	0.875157
	C144	C	0.364322	0.888800	0.675709
	C145	C	0.608677	0.112286	0.679009
	C146	C	0.606152	0.887977	0.317661
	C147	C	0.363631	0.113051	0.316792
	C148	C	0.665196	0.376582	0.883304
	C149	C	0.661280	0.619783	0.110205
	C150	C	0.304620	0.623485	0.882973
	C151	C	0.303998	0.379372	0.109204
	C152	C	0.872268	0.681881	0.372085
	C153	C	0.096871	0.680671	0.617305
	C154	C	0.873549	0.319657	0.619024
	C155	C	0.096380	0.318190	0.368937
	C156	C	0.872641	0.377847	0.675676
	C157	C	0.097196	0.621314	0.674134
	C158	C	0.870899	0.621467	0.316974
	C159	C	0.097419	0.378649	0.313765
	C160	C	0.361096	0.682055	0.883256
	C161	C	0.604622	0.678532	0.109794
	C162	C	0.608461	0.318550	0.884227
	C163	C	0.361311	0.321911	0.109613
	C164	C	0.664588	0.888119	0.375490
	C165	C	0.666720	0.112537	0.621260
	C166	C	0.304944	0.889845	0.619804
	C167	C	0.303843	0.111958	0.372030
	C168	C	0.863890	0.387824	0.174326
	C169	C	0.103878	0.613640	0.172551
	C170	C	0.108185	0.388133	0.814783
	C171	C	0.863144	0.612889	0.816623
	C172	C	0.165302	0.880338	0.382305
	C173	C	0.164926	0.123335	0.608910
	C174	C	0.807187	0.121283	0.382316
	C175	C	0.806303	0.879089	0.609495
	C176	C	0.371428	0.182176	0.874036
	C177	C	0.596083	0.181187	0.119484
	C178	C	0.371210	0.823357	0.117925
	C179	C	0.596039	0.819948	0.873702
	C180	C	0.370936	0.882139	0.174352
	C181	C	0.597333	0.120571	0.174519
	C182	C	0.371009	0.123085	0.816976
	C183	C	0.597210	0.879666	0.818186
	C184	C	0.865226	0.178489	0.382028
	C185	C	0.108987	0.181939	0.608282
	C186	C	0.107272	0.823139	0.381943
	C187	C	0.863087	0.821336	0.608905
	C188	C	0.167187	0.389079	0.871902
	C189	C	0.162399	0.613249	0.116166
	C190	C	0.805284	0.388007	0.117327
	C191	C	0.803686	0.612320	0.872989
	C192	C	0.387946	0.093048	0.592940
	C193	C	0.584128	0.909270	0.594579
	C194	C	0.583893	0.092847	0.398659
	C195	C	0.387665	0.908764	0.399482
	C196	C	0.580935	0.403937	0.088945
	C197	C	0.580002	0.597312	0.903126
	C198	C	0.385832	0.599686	0.089749
	C199	C	0.389289	0.405263	0.903521
	C200	C	0.077200	0.600324	0.396393
	C201	C	0.892382	0.599000	0.591835
	C202	C	0.076815	0.403605	0.590897
	C203	C	0.893083	0.402410	0.398133
	C204	C	0.884031	0.593134	0.093515
	C205	C	0.081385	0.408911	0.091248
	C206	C	0.081097	0.591423	0.898121
	C207	C	0.886735	0.408432	0.898664
	C208	C	0.081921	0.904005	0.588651
	C209	C	0.081767	0.097100	0.403140
	C210	C	0.888850	0.098292	0.589429
	C211	C	0.887332	0.904221	0.402223
	C212	C	0.575077	0.097563	0.901399
	C213	C	0.391695	0.099854	0.094096
	C214	C	0.577329	0.901362	0.093690
	C215	C	0.391464	0.903567	0.899751
	Zn216	Zn	0.484436	0.000859	0.746913
	Zn217	Zn	0.484248	0.000719	0.246105
	Zn218	Zn	0.733117	0.499955	-0.004292
	Zn219	Zn	0.235164	0.501101	-0.004027
	Zn220	Zn	-0.015136	0.752338	0.494568
	Zn221	Zn	-0.013993	0.250218	0.495519
	Zn222	Zn	-0.015527	0.499481	0.744636
	Zn223	Zn	-0.015738	0.500798	0.244993
	Zn224	Zn	0.483729	0.750743	-0.003508
	Zn225	Zn	0.484025	0.251998	-0.003125
	Zn226	Zn	0.736244	0.001199	0.496893
	Zn227	Zn	0.234798	0.001244	0.496065
	N228	N	0.400231	0.964288	0.674549
	N229	N	0.573083	0.036619	0.678114
	N230	N	0.571202	0.964024	0.317063
	N231	N	0.400384	0.037951	0.318734
	N232	N	0.663560	0.413480	0.959214
	N233	N	0.661032	0.584858	0.033227
	N234	N	0.305508	0.587559	0.959519
	N235	N	0.305629	0.415454	0.032668
	N236	N	0.949048	0.683300	0.406058
	N237	N	0.020673	0.681732	0.582061
	N238	N	0.949385	0.320422	0.582584
	N239	N	0.020502	0.318272	0.405372
	N240	N	0.948160	0.414059	0.674098
	N241	N	0.021117	0.586103	0.673759
	N242	N	0.946833	0.585658	0.317417
	N243	N	0.022443	0.415793	0.316418
	N244	N	0.396220	0.682215	0.960054
	N245	N	0.569753	0.679450	0.032824
	N246	N	0.572159	0.319982	0.960668
	N247	N	0.398199	0.322918	0.033328
	N248	N	0.665554	0.964341	0.410147
	N249	N	0.666659	0.037124	0.585133
	N250	N	0.304377	0.965932	0.584632
	N251	N	0.303922	0.036126	0.407795
	N252	N	0.898104	0.464003	0.174452
	N253	N	0.068912	0.537603	0.172413
	N254	N	0.071143	0.463151	0.815609
	N255	N	0.898863	0.537096	0.816882
	N256	N	0.164912	0.914899	0.459348
	N257	N	0.163758	0.087025	0.532735
	N258	N	0.806826	0.086975	0.459638
	N259	N	0.806352	0.914769	0.532827
	N260	N	0.447535	0.182042	0.909559
	N261	N	0.519433	0.182930	0.085480
	N262	N	0.447959	0.821379	0.083468
	N263	N	0.519328	0.819556	0.908352
	N264	N	0.447577	0.916087	0.174418
	N265	N	0.521366	0.085405	0.174066
	N266	N	0.446701	0.086704	0.818013
	N267	N	0.521404	0.915837	0.819080
	N268	N	0.900030	0.179271	0.459019
	N269	N	0.073665	0.181498	0.531393
	N270	N	0.071458	0.822850	0.458560
	N271	N	0.898060	0.821750	0.531747
	N272	N	0.166153	0.464837	0.907581
	N273	N	0.163399	0.537027	0.081693
	N274	N	0.803424	0.464399	0.083023
	N275	N	0.802886	0.536060	0.907674
	O276	O	1.114936	-0.046114	-0.036277
	H277	H	1.115742	-0.032767	-0.027598
	H278	H	1.097645	-0.042161	-0.029648
	O279	O	0.549404	0.612487	0.490627
	H280	H	0.542369	0.601342	0.494968
	H281	H	0.563667	0.625018	0.504218
	O282	O	0.478405	0.666393	0.309343
	H283	H	0.467124	0.691837	0.306903
	H284	H	0.462905	0.647978	0.303871
	O285	O	0.821290	0.034933	-0.018663
	H286	H	0.815329	0.036527	-0.027807
	H287	H	0.828352	0.021079	-0.023001
	O288	O	0.008364	0.030061	0.934373
	H289	H	0.014419	0.007840	0.936016
	H290	H	0.002853	0.029856	0.925819
	O291	O	0.634771	0.542651	0.304020
	H292	H	0.626787	0.556851	0.319229
	H293	H	0.633396	0.542491	0.300345
	O294	O	0.479431	0.331951	0.371215
	H295	H	0.492432	0.323377	0.359829
	H296	H	0.489100	0.324703	0.370874
	O297	O	0.978231	0.825773	0.946025
	H298	H	0.996914	0.820562	0.949940
	H299	H	0.990437	0.807627	0.939791
	O300	O	-0.164913	-0.162326	0.071944
	H301	H	-0.159968	-0.150455	0.084129
	H302	H	-0.175205	-0.161310	0.088376
	O303	O	0.691059	0.578434	0.697857
	H304	H	0.679240	0.552125	0.700148
	H305	H	0.716514	0.567108	0.713563
	O306	O	1.027133	-0.119619	0.040145
	H307	H	1.034372	-0.112336	0.036352
	H308	H	1.020472	-0.120397	0.053357
	O309	O	0.667674	0.662062	0.599545
	H310	H	0.672567	0.639601	0.613288
	H311	H	0.641240	0.653771	0.613000
	O312	O	0.797574	1.039529	-0.077024
	H313	H	0.806207	1.027280	-0.081556
	H314	H	0.782390	1.032949	-0.097780
	O315	O	1.016656	0.134658	-0.054129
	H316	H	1.013023	0.143442	-0.048563
	H317	H	1.013224	0.129959	-0.058244
	O318	O	0.289194	0.701455	0.471842
	H319	H	0.292355	0.704001	0.486997
	H320	H	0.287730	0.709920	0.461895
	O321	O	0.856920	0.162957	0.933167
	H322	H	0.866146	0.173547	0.920452
	H323	H	0.853119	0.141373	0.910330
	O324	O	0.055009	-0.141189	0.865481
	H325	H	0.051044	-0.153699	0.860247
	H326	H	0.062799	-0.152182	0.873076
	O327	O	0.441235	0.407755	0.621274
	H328	H	0.436855	0.417407	0.602433
	H329	H	0.436174	0.419036	0.620949
	O330	O	0.611798	0.308231	0.403453
	H331	H	0.626361	0.310643	0.397538
	H332	H	0.621850	0.320868	0.400995
	O333	O	1.546589	1.329205	0.650574
	H334	H	1.539843	1.312928	0.620490
	H335	H	1.529159	1.318350	0.671677
	O336	O	0.289876	0.622704	0.335858
	H337	H	0.278799	0.614511	0.317161
	H338	H	0.285722	0.620387	0.342561
	O339	O	0.896657	-0.174764	1.142083
	H340	H	0.896286	-0.153891	1.150126
	H341	H	0.878250	-0.179725	1.149145
	O342	O	-0.082507	1.023779	0.886598
	H343	H	-0.087068	1.016937	0.890098
	H344	H	-0.089000	1.005672	0.885458
	O345	O	0.508337	0.516088	1.583908
	H346	H	0.518557	0.515461	1.581512
	H347	H	0.515559	0.503520	1.570791
	O348	O	0.494809	0.433071	0.346815
	H349	H	0.504770	0.447684	0.354005
	H350	H	0.497731	0.434621	0.351100
	O351	O	0.044815	0.049891	0.006832
	H352	H	0.048928	0.046409	0.003287
	H353	H	0.032017	0.045404	-0.005847
	O354	O	0.905733	1.168738	-0.192907
	H355	H	0.890091	1.146640	-0.191154
	H356	H	0.921020	1.169359	-0.200544
	O357	O	0.043128	1.157312	0.063125
	H358	H	0.040963	1.155439	0.065408
	H359	H	0.038567	1.164368	0.061073
	O360	O	0.485836	0.710225	0.486897
	H361	H	0.500827	0.716731	0.493776
	H362	H	0.491627	0.716227	0.485165
	O363	O	0.281307	0.565834	0.429550
	H364	H	0.304698	0.550089	0.432406
	H365	H	0.274004	0.543624	0.417694
	O366	O	0.146480	0.770190	0.196099
	H367	H	0.147845	0.768154	0.218505
	H368	H	0.135812	0.783059	0.196287
	O369	O	0.410053	0.381904	0.486593
	H370	H	0.431343	0.381695	0.492587
	H371	H	0.422808	0.365695	0.466092
	O372	O	0.305210	0.369049	0.462928
	H373	H	0.302653	0.373483	0.468093
	H374	H	0.304618	0.376332	0.456064
	O375	O	0.359325	0.406190	0.460391
	H376	H	0.345154	0.395244	0.452791
	H377	H	0.344492	0.413182	0.444171
	O378	O	0.675226	0.355746	0.501945
	H379	H	0.667400	0.354890	0.496436
	H380	H	0.679225	0.342130	0.496549
	O381	O	0.513181	0.691769	0.697171
	H382	H	0.508416	0.685179	0.707192
	H383	H	0.524864	0.689609	0.701075
	O384	O	0.065994	1.081953	1.125704
	H385	H	0.063290	1.089839	1.123696
	H386	H	0.060209	1.080740	1.116980
	O387	O	0.908751	1.136592	0.110135
	H388	H	0.910607	1.140208	0.096743
	H389	H	0.901484	1.120330	0.100491
	O390	O	0.435090	0.560644	0.635030
	H391	H	0.438931	0.554032	0.628998
	H392	H	0.429932	0.556157	0.631285
	O393	O	1.089419	0.125567	1.115432
	H394	H	1.100246	0.123529	1.119188
	H395	H	1.091284	0.126517	1.117034
	O396	O	-0.176667	0.925367	0.873360
	H397	H	-0.180488	0.912645	0.889879
	H398	H	-0.161008	0.906572	0.883522
	O399	O	0.442443	0.440448	1.308828
	H400	H	0.445721	0.442562	1.318346
	H401	H	0.444302	0.425721	1.295482
	O402	O	1.033315	-0.105812	1.157227
	H403	H	1.026934	-0.107336	1.157858
	H404	H	1.021142	-0.100984	1.161045
	O405	O	0.139437	-0.133909	-0.073722
	H406	H	0.152415	-0.125705	-0.068591
	H407	H	0.152828	-0.145765	-0.083383
	O408	O	0.803989	0.986737	1.166084
	H409	H	0.821881	1.006200	1.171386
	H410	H	0.796160	0.993141	1.140939
	O411	O	1.410485	1.323938	-0.433399
	H412	H	1.391849	1.321748	-0.454126
	H413	H	1.426299	1.316571	-0.443628
	O414	O	0.646109	-0.345743	1.492887
	H415	H	0.639796	-0.338636	1.509867
	H416	H	0.657041	-0.335632	1.514445
	O417	O	0.393909	0.414576	0.698928
	H418	H	0.389047	0.388466	0.708587
	H419	H	0.379273	0.428656	0.698397
	O420	O	0.105328	1.054328	-0.105209
	H421	H	0.122260	1.068922	-0.108516
	H422	H	0.102344	1.052519	-0.114151
	O423	O	1.068403	-0.089261	-0.138048
	H424	H	1.075781	-0.097346	-0.150998
	H425	H	1.074579	-0.082185	-0.149718
	O426	O	0.568777	0.518184	1.588019
	H427	H	0.576892	0.509787	1.580992
	H428	H	0.565133	0.503608	1.574207
	O429	O	0.571747	0.442900	0.443842
	H430	H	0.573427	0.446116	0.428577
	H431	H	0.575650	0.455187	0.442976
