data_Molecule from HDF5

_cell_length_a		16.297486
_cell_length_b		16.229011
_cell_length_c		16.193421
_cell_angle_alpha	90.247386
_cell_angle_beta	89.603390
_cell_angle_gamma	89.714784
_symmetry_space_group_name_H-M	'P 1'
_symmetry_Int_Tables_number		1

loop_
	_symmetry_equiv_pos_as_xyz
	x,y,z

loop_
	_atom_site_label
	_atom_site_type_symbol
	_atom_site_fract_x
	_atom_site_fract_y
	_atom_site_fract_z
	H0	H	0.388745	0.836944	0.708988
	H1	H	0.585548	0.165148	0.707733
	H2	H	0.587201	0.837373	0.278251
	H3	H	0.391316	0.167093	0.283514
	H4	H	0.706594	0.401798	0.830716
	H5	H	0.701804	0.601938	0.159258
	H6	H	0.275789	0.601227	0.830426
	H7	H	0.275073	0.403593	0.158694
	H8	H	0.825254	0.715003	0.396714
	H9	H	0.153335	0.715498	0.592072
	H10	H	0.825116	0.287039	0.595374
	H11	H	0.151904	0.282662	0.392134
	H12	H	0.826296	0.402981	0.711102
	H13	H	0.153944	0.599125	0.707929
	H14	H	0.824525	0.597384	0.284133
	H15	H	0.152874	0.401127	0.278058
	H16	H	0.390341	0.715556	0.829802
	H17	H	0.584374	0.714863	0.159257
	H18	H	0.592718	0.286363	0.830407
	H19	H	0.393010	0.290994	0.159544
	H20	H	0.704180	0.836885	0.391464
	H21	H	0.702545	0.164137	0.592910
	H22	H	0.273738	0.836976	0.592996
	H23	H	0.272085	0.164511	0.395037
	H24	H	0.893063	0.336114	0.206077
	H25	H	0.084997	0.665837	0.209120
	H26	H	0.090249	0.336244	0.779433
	H27	H	0.892527	0.665109	0.781825
	H28	H	0.206505	0.898328	0.329664
	H29	H	0.201339	0.100612	0.658498
	H30	H	0.775293	0.098549	0.329355
	H31	H	0.771484	0.900263	0.656544
	H32	H	0.327017	0.218595	0.897042
	H33	H	0.654201	0.214702	0.091895
	H34	H	0.325248	0.789114	0.093351
	H35	H	0.652863	0.786108	0.893276
	H36	H	0.325604	0.906213	0.209993
	H37	H	0.652814	0.099585	0.208550
	H38	H	0.325693	0.100880	0.782558
	H39	H	0.652502	0.902151	0.777286
	H40	H	0.890169	0.214824	0.329891
	H41	H	0.085068	0.214262	0.658598
	H42	H	0.090436	0.783117	0.330117
	H43	H	0.891051	0.789850	0.659260
	H44	H	0.206266	0.337451	0.895411
	H45	H	0.202707	0.666336	0.094140
	H46	H	0.774303	0.338055	0.094044
	H47	H	0.775675	0.665845	0.897103
	H48	H	0.392354	0.117760	0.587922
	H49	H	0.591434	0.879612	0.585970
	H50	H	0.580523	0.115983	0.405083
	H51	H	0.390651	0.884482	0.407485
	H52	H	0.575733	0.410463	0.109568
	H53	H	0.589298	0.597561	0.874099
	H54	H	0.399106	0.596444	0.111009
	H55	H	0.400225	0.415766	0.879501
	H56	H	0.107870	0.601118	0.403225
	H57	H	0.874839	0.594039	0.586606
	H58	H	0.104109	0.409452	0.582642
	H59	H	0.875340	0.406409	0.412026
	H60	H	0.105901	0.407796	0.588395
	H61	H	0.873542	0.592628	0.589986
	H62	H	0.102496	0.586109	0.408116
	H63	H	0.873374	0.415854	0.395654
	H64	H	0.392452	0.597525	0.113239
	H65	H	0.584878	0.584647	0.879132
	H66	H	0.584811	0.402580	0.115116
	H67	H	0.403267	0.405064	0.877145
	H68	H	0.586867	0.118768	0.402657
	H69	H	0.573833	0.883962	0.593820
	H70	H	0.395806	0.117854	0.588995
	H71	H	0.396842	0.881495	0.393040
	H72	H	0.895885	0.617595	0.087238
	H73	H	0.096722	0.380719	0.087568
	H74	H	0.089793	0.618937	0.903532
	H75	H	0.894863	0.384953	0.907289
	H76	H	0.080367	0.913305	0.608949
	H77	H	0.073035	0.084198	0.381376
	H78	H	0.898431	0.098819	0.611747
	H79	H	0.902053	0.906518	0.377558
	H80	H	0.603739	0.092461	0.906242
	H81	H	0.370758	0.103293	0.088725
	H82	H	0.607852	0.907072	0.091587
	H83	H	0.372363	0.904030	0.905442
	H84	H	0.604992	0.903358	0.081780
	H85	H	0.374478	0.095242	0.084583
	H86	H	0.607089	0.089211	0.893956
	H87	H	0.374812	0.913084	0.904010
	H88	H	0.887641	0.094379	0.613546
	H89	H	0.079935	0.102661	0.373882
	H90	H	0.077460	0.904172	0.611282
	H91	H	0.894853	0.901531	0.373578
	H92	H	0.082259	0.619638	0.894724
	H93	H	0.075792	0.383845	0.096512
	H94	H	0.889754	0.620160	0.090294
	H95	H	0.896748	0.382752	0.898324
	H96	H	0.395235	0.116754	0.585351
	H97	H	0.577259	0.887361	0.575869
	H98	H	0.581163	0.118798	0.398851
	H99	H	0.405338	0.888646	0.404211
	H100	H	0.587377	0.414485	0.111763
	H101	H	0.575481	0.595039	0.878786
	H102	H	0.394463	0.591212	0.110398
	H103	H	0.393202	0.408449	0.874848
	H104	H	0.107122	0.588472	0.392131
	H105	H	0.872650	0.595815	0.588933
	H106	H	0.105518	0.403559	0.583840
	H107	H	0.868540	0.398269	0.396797
	H108	H	0.896136	0.619689	0.093990
	H109	H	0.079146	0.388766	0.074773
	H110	H	0.078543	0.615901	0.904763
	H111	H	0.903853	0.385935	0.903729
	H112	H	0.086470	0.906994	0.612453
	H113	H	0.092944	0.086192	0.375236
	H114	H	0.895735	0.086618	0.608303
	H115	H	0.893871	0.910217	0.376120
	H116	H	0.609085	0.101643	0.898483
	H117	H	0.372176	0.095436	0.094115
	H118	H	0.603292	0.913803	0.084828
	H119	H	0.370826	0.908264	0.896624
	C120	C	0.366118	0.009283	0.616273
	C121	C	0.609426	0.992055	0.614447
	C122	C	0.611360	0.009607	0.371710
	C123	C	0.367805	0.993330	0.373152
	C124	C	0.612337	0.379928	0.003450
	C125	C	0.610701	0.622119	0.986155
	C126	C	0.367599	0.623480	0.002773
	C127	C	0.369936	0.381384	0.986039
	C128	C	-0.002764	0.621256	0.373482
	C129	C	0.981647	0.622684	0.616302
	C130	C	-0.002665	0.379136	0.615376
	C131	C	0.980658	0.377762	0.371654
	C132	C	0.866657	0.510390	0.117519
	C133	C	0.111036	0.493072	0.115518
	C134	C	0.112593	0.509488	0.872105
	C135	C	0.869353	0.492799	0.874214
	C136	C	0.111336	0.878224	0.502141
	C137	C	0.109646	0.120850	0.485744
	C138	C	0.865988	0.121919	0.502590
	C139	C	0.867821	0.878705	0.484788
	C140	C	0.498374	0.123529	0.872740
	C141	C	0.480898	0.124687	0.116773
	C142	C	0.497508	0.880545	0.115797
	C143	C	0.480762	0.879076	0.871988
	C144	C	0.368489	0.886065	0.671469
	C145	C	0.606360	0.115868	0.669943
	C146	C	0.608378	0.886337	0.315635
	C147	C	0.370704	0.117410	0.320136
	C148	C	0.668885	0.381394	0.880037
	C149	C	0.664546	0.621160	0.110086
	C150	C	0.312906	0.621519	0.879491
	C151	C	0.313359	0.383549	0.109600
	C152	C	0.874247	0.677024	0.376604
	C153	C	0.104503	0.677757	0.612937
	C154	C	0.874239	0.324652	0.614898
	C155	C	0.103405	0.321679	0.372933
	C156	C	0.874853	0.382408	0.672577
	C157	C	0.105040	0.619776	0.670391
	C158	C	0.873739	0.618483	0.320440
	C159	C	0.103810	0.380549	0.316114
	C160	C	0.370130	0.678441	0.879326
	C161	C	0.606313	0.677710	0.109917
	C162	C	0.611834	0.324046	0.879811
	C163	C	0.372159	0.327606	0.110076
	C164	C	0.666619	0.886115	0.371928
	C165	C	0.664640	0.115257	0.612753
	C166	C	0.311348	0.885993	0.613585
	C167	C	0.311118	0.116186	0.375524
	C168	C	0.870725	0.385876	0.170481
	C169	C	0.106544	0.616979	0.171203
	C170	C	0.110365	0.385675	0.817178
	C171	C	0.871740	0.616327	0.819599
	C172	C	0.168220	0.878798	0.378979
	C173	C	0.163419	0.119570	0.609503
	C174	C	0.812571	0.119065	0.378464
	C175	C	0.810803	0.880701	0.608215
	C176	C	0.375417	0.179936	0.876583
	C177	C	0.604952	0.177602	0.112867
	C178	C	0.374189	0.826382	0.113941
	C179	C	0.603786	0.823387	0.872854
	C180	C	0.374116	0.885101	0.171317
	C181	C	0.604331	0.120858	0.171063
	C182	C	0.374614	0.121361	0.819563
	C183	C	0.603481	0.881193	0.815204
	C184	C	0.869613	0.176923	0.378926
	C185	C	0.105960	0.176497	0.609458
	C186	C	0.110394	0.821524	0.378965
	C187	C	0.870097	0.825560	0.609317
	C188	C	0.168362	0.386302	0.874600
	C189	C	0.165063	0.617172	0.114179
	C190	C	0.812074	0.386740	0.114630
	C191	C	0.813758	0.616537	0.876746
	C192	C	0.388025	0.095262	0.594033
	C193	C	0.587324	0.905961	0.591723
	C194	C	0.589328	0.095647	0.395127
	C195	C	0.390841	0.907143	0.395208
	C196	C	0.589358	0.402670	0.089864
	C197	C	0.589612	0.599163	0.899676
	C198	C	0.389082	0.601506	0.089324
	C199	C	0.392289	0.403448	0.899539
	C200	C	0.083366	0.598693	0.394752
	C201	C	0.896099	0.600722	0.594745
	C202	C	0.083039	0.400539	0.591802
	C203	C	0.894597	0.400258	0.394739
	C204	C	0.887601	0.596577	0.096743
	C205	C	0.090093	0.406761	0.093061
	C206	C	0.089965	0.596005	0.894230
	C207	C	0.891896	0.406694	0.896522
	C208	C	0.088261	0.901330	0.588570
	C209	C	0.088177	0.097901	0.399179
	C210	C	0.887399	0.099904	0.588878
	C211	C	0.890265	0.899911	0.398355
	C212	C	0.584346	0.101039	0.893391
	C213	C	0.394989	0.104070	0.095585
	C214	C	0.583164	0.901881	0.092898
	C215	C	0.394991	0.901659	0.895223
	Zn216	Zn	0.488317	0.000807	0.743780
	Zn217	Zn	0.489239	0.002617	0.244724
	Zn218	Zn	0.739992	0.501504	-0.004874
	Zn219	Zn	0.240130	0.502388	-0.005540
	Zn220	Zn	-0.011063	0.750913	0.493996
	Zn221	Zn	-0.011238	0.249364	0.494186
	Zn222	Zn	-0.009952	0.500835	0.744771
	Zn223	Zn	-0.011183	0.500983	0.244387
	Zn224	Zn	0.489467	0.750837	-0.005853
	Zn225	Zn	0.490785	0.252785	-0.005434
	Zn226	Zn	0.738896	-0.000589	0.493285
	Zn227	Zn	0.238578	0.000712	0.494349
	N228	N	0.401687	0.963904	0.673455
	N229	N	0.572489	0.038365	0.670900
	N230	N	0.574633	0.964134	0.315486
	N231	N	0.405187	0.039944	0.318572
	N232	N	0.669469	0.415328	0.957918
	N233	N	0.667296	0.587163	0.032123
	N234	N	0.311261	0.587990	0.957296
	N235	N	0.311700	0.416310	0.031248
	N236	N	0.952147	0.678749	0.408915
	N237	N	0.026847	0.679800	0.580152
	N238	N	0.951479	0.322403	0.580040
	N239	N	0.025795	0.319892	0.406900
	N240	N	0.952455	0.415471	0.673058
	N241	N	0.027771	0.586170	0.672741
	N242	N	0.951128	0.584353	0.318632
	N243	N	0.026390	0.414580	0.315285
	N244	N	0.403663	0.679610	0.957103
	N245	N	0.573344	0.678213	0.031920
	N246	N	0.577327	0.323245	0.957691
	N247	N	0.406502	0.326160	0.032316
	N248	N	0.668479	0.963712	0.406288
	N249	N	0.666544	0.037162	0.579043
	N250	N	0.309720	0.963639	0.580095
	N251	N	0.309231	0.037870	0.407770
	N252	N	0.904020	0.463533	0.172448
	N253	N	0.073650	0.539030	0.172120
	N254	N	0.076546	0.463638	0.815630
	N255	N	0.905787	0.538623	0.818222
	N256	N	0.168825	0.913416	0.456841
	N257	N	0.165637	0.085659	0.531538
	N258	N	0.810166	0.085471	0.456343
	N259	N	0.809210	0.912910	0.529812
	N260	N	0.453247	0.181442	0.908764
	N261	N	0.527494	0.180224	0.079851
	N262	N	0.451828	0.823539	0.080028
	N263	N	0.526427	0.822024	0.907525
	N264	N	0.451688	0.917794	0.172568
	N265	N	0.526414	0.088434	0.173445
	N266	N	0.451948	0.086937	0.816956
	N267	N	0.525963	0.914980	0.814592
	N268	N	0.902151	0.178820	0.457041
	N269	N	0.073386	0.177428	0.531387
	N270	N	0.075853	0.821160	0.456515
	N271	N	0.904882	0.824236	0.531630
	N272	N	0.169787	0.464322	0.908008
	N273	N	0.167871	0.539254	0.080327
	N274	N	0.809249	0.464935	0.082458
	N275	N	0.812225	0.538643	0.910054
	O276	O	0.491887	0.470804	0.563641
	H277	H	0.500930	0.459355	0.562102
	H278	H	0.491978	0.469588	0.555745
	O279	O	0.490161	0.459959	0.528578
	H280	H	0.497247	0.448318	0.533564
	H281	H	0.482264	0.460450	0.534817
	O282	O	0.547559	0.558347	0.544901
	H283	H	0.540193	0.562841	0.549881
	H284	H	0.549586	0.550700	0.546182
	O285	O	0.455542	0.489570	1.487356
	H286	H	0.452886	0.488474	1.477901
	H287	H	0.461013	0.501515	1.475234
	O288	O	0.450631	0.466560	0.533508
	H289	H	0.448830	0.463527	0.534287
	H290	H	0.452467	0.454747	0.531673
	O291	O	0.036374	-0.019395	1.010241
	H292	H	0.032015	-0.019951	1.014292
	H293	H	0.037515	-0.018162	1.005449
	O294	O	1.261664	1.368732	0.698221
	H295	H	1.255267	1.372640	0.706004
	H296	H	1.266835	1.357114	0.693074
	O297	O	0.578454	0.540588	0.477582
	H298	H	0.582037	0.541759	0.480058
	H299	H	0.580811	0.535813	0.476006
	O300	O	0.412298	0.557701	0.537458
	H301	H	0.401932	0.556175	0.535000
	H302	H	0.402183	0.566982	0.544740
	O303	O	0.480360	0.455341	0.531620
	H304	H	0.472627	0.459934	0.528332
	H305	H	0.481569	0.459219	0.526058
	O306	O	1.509294	0.417859	0.513463
	H307	H	1.493058	0.420143	0.509204
	H308	H	1.514392	0.409174	0.517768
	O309	O	0.560653	0.542553	0.465990
	H310	H	0.553232	0.546751	0.466016
	H311	H	0.568952	0.531497	0.465612
	O312	O	0.480200	0.517266	0.516548
	H313	H	0.485968	0.526708	0.513974
	H314	H	0.477329	0.518636	0.518913
	O315	O	1.006593	0.000572	0.953674
	H316	H	1.011291	0.013858	0.947343
	H317	H	1.011455	-0.008255	0.951667
	O318	O	-0.522354	-0.530540	0.391569
	H319	H	-0.522952	-0.525175	0.389729
	H320	H	-0.513204	-0.535152	0.395365
	O321	O	0.514677	0.545993	0.481651
	H322	H	0.518354	0.547513	0.492578
	H323	H	0.516971	0.548797	0.495498
	O324	O	1.037744	-0.065386	-0.014898
	H325	H	1.040723	-0.064750	-0.011187
	H326	H	1.032591	-0.074183	-0.008222
	O327	O	1.030104	0.965736	-0.035945
	H328	H	1.026629	0.964380	-0.040994
	H329	H	1.032006	0.960746	-0.036774
	O330	O	0.434348	0.522495	0.452932
	H331	H	0.444211	0.525202	0.447504
	H332	H	0.439877	0.519275	0.438817
	O333	O	0.424542	0.447361	0.475166
	H334	H	0.414608	0.445164	0.476115
	H335	H	0.418867	0.454881	0.479710
