data_Molecule from HDF5

_cell_length_a		16.272626
_cell_length_b		16.297558
_cell_length_c		16.249653
_cell_angle_alpha	90.033583
_cell_angle_beta	89.833886
_cell_angle_gamma	90.130705
_symmetry_space_group_name_H-M	'P 1'
_symmetry_Int_Tables_number		1

loop_
	_symmetry_equiv_pos_as_xyz
	x,y,z

loop_
	_atom_site_label
	_atom_site_type_symbol
	_atom_site_fract_x
	_atom_site_fract_y
	_atom_site_fract_z
	H0	H	0.396592	0.836603	0.715687
	H1	H	0.593184	0.163698	0.714417
	H2	H	0.594429	0.836072	0.286484
	H3	H	0.399558	0.163831	0.287890
	H4	H	0.711060	0.402757	0.836367
	H5	H	0.710295	0.598293	0.165532
	H6	H	0.283993	0.598024	0.836531
	H7	H	0.281049	0.401264	0.164249
	H8	H	0.832673	0.713138	0.403450
	H9	H	0.160224	0.715107	0.599215
	H10	H	0.832866	0.285010	0.600646
	H11	H	0.159596	0.284730	0.401531
	H12	H	0.833439	0.401465	0.715631
	H13	H	0.161398	0.597732	0.713561
	H14	H	0.832383	0.596463	0.288780
	H15	H	0.160340	0.402031	0.287040
	H16	H	0.400589	0.713547	0.836818
	H17	H	0.595412	0.714239	0.165181
	H18	H	0.594405	0.286339	0.836600
	H19	H	0.396848	0.286186	0.165308
	H20	H	0.711000	0.836570	0.401706
	H21	H	0.711313	0.162928	0.600031
	H22	H	0.280981	0.836583	0.599571
	H23	H	0.282912	0.164193	0.403870
	H24	H	0.897585	0.336341	0.215653
	H25	H	0.095903	0.663496	0.216022
	H26	H	0.095169	0.336566	0.785838
	H27	H	0.899754	0.664111	0.786473
	H28	H	0.209764	0.902400	0.336930
	H29	H	0.210380	0.098557	0.665486
	H30	H	0.783585	0.097183	0.336515
	H31	H	0.781126	0.901594	0.665508
	H32	H	0.332083	0.213514	0.903520
	H33	H	0.660150	0.214961	0.099065
	H34	H	0.333185	0.785837	0.098544
	H35	H	0.661048	0.786988	0.902064
	H36	H	0.332824	0.901460	0.215076
	H37	H	0.661110	0.098069	0.214261
	H38	H	0.331777	0.096579	0.788657
	H39	H	0.660342	0.902800	0.786650
	H40	H	0.898577	0.213847	0.337249
	H41	H	0.094968	0.214319	0.666002
	H42	H	0.093925	0.786780	0.336971
	H43	H	0.896834	0.784785	0.665577
	H44	H	0.211089	0.336028	0.901928
	H45	H	0.211086	0.663583	0.098611
	H46	H	0.781658	0.336480	0.100233
	H47	H	0.783872	0.664317	0.903860
	H48	H	0.403891	0.117871	0.599812
	H49	H	0.591349	0.880513	0.600117
	H50	H	0.585347	0.115551	0.406604
	H51	H	0.401786	0.884146	0.411310
	H52	H	0.583623	0.393471	0.119928
	H53	H	0.596788	0.584236	0.885252
	H54	H	0.407444	0.586898	0.114631
	H55	H	0.401377	0.402156	0.882318
	H56	H	0.111707	0.588058	0.410674
	H57	H	0.878386	0.595806	0.597359
	H58	H	0.115272	0.407142	0.598183
	H59	H	0.879081	0.407033	0.403185
	H60	H	0.114256	0.401865	0.592850
	H61	H	0.882372	0.592814	0.590063
	H62	H	0.115037	0.593861	0.401596
	H63	H	0.879415	0.401015	0.411741
	H64	H	0.407334	0.599316	0.118970
	H65	H	0.580627	0.593238	0.887640
	H66	H	0.603346	0.408753	0.121060
	H67	H	0.402396	0.411265	0.884725
	H68	H	0.591155	0.115003	0.412811
	H69	H	0.582000	0.885192	0.593546
	H70	H	0.405777	0.114620	0.592118
	H71	H	0.399808	0.881925	0.405515
	H72	H	0.907409	0.618213	0.105291
	H73	H	0.097106	0.381839	0.093271
	H74	H	0.097678	0.618725	0.905484
	H75	H	0.908420	0.383855	0.903400
	H76	H	0.087382	0.903244	0.619347
	H77	H	0.098801	0.088526	0.382952
	H78	H	0.905250	0.098689	0.619496
	H79	H	0.896804	0.898533	0.380555
	H80	H	0.613939	0.093839	0.904784
	H81	H	0.382570	0.082557	0.094882
	H82	H	0.615925	0.902720	0.095653
	H83	H	0.378343	0.904248	0.904505
	H84	H	0.611753	0.907999	0.089112
	H85	H	0.376187	0.097664	0.103501
	H86	H	0.613191	0.096210	0.908707
	H87	H	0.379890	0.902616	0.911792
	H88	H	0.896734	0.092322	0.619683
	H89	H	0.082219	0.089016	0.388608
	H90	H	0.092350	0.908122	0.618900
	H91	H	0.899497	0.916786	0.387000
	H92	H	0.086723	0.616642	0.902881
	H93	H	0.086049	0.382967	0.100621
	H94	H	0.910987	0.611861	0.086998
	H95	H	0.905135	0.386490	0.913685
	H96	H	0.397551	0.117170	0.593505
	H97	H	0.593327	0.883999	0.588930
	H98	H	0.593404	0.118146	0.404505
	H99	H	0.404890	0.884205	0.406088
	H100	H	0.581537	0.417392	0.111996
	H101	H	0.595708	0.602088	0.880105
	H102	H	0.396500	0.591890	0.119754
	H103	H	0.409842	0.405300	0.886012
	H104	H	0.113520	0.598807	0.411321
	H105	H	0.880717	0.587059	0.596630
	H106	H	0.112282	0.409437	0.591115
	H107	H	0.881937	0.410919	0.412008
	H108	H	0.893353	0.618035	0.092145
	H109	H	0.085629	0.386453	0.087694
	H110	H	0.090032	0.614429	0.913336
	H111	H	0.898086	0.381423	0.906754
	H112	H	0.085883	0.909380	0.616336
	H113	H	0.089658	0.103549	0.381776
	H114	H	0.905704	0.088560	0.615641
	H115	H	0.914231	0.903870	0.387026
	H116	H	0.612089	0.091599	0.908720
	H117	H	0.380964	0.098746	0.085331
	H118	H	0.613550	0.911587	0.097063
	H119	H	0.381150	0.909433	0.909067
	C120	C	0.373798	0.008493	0.623339
	C121	C	0.617302	0.991228	0.622363
	C122	C	0.617949	0.008309	0.379511
	C123	C	0.374402	0.991876	0.379682
	C124	C	0.618154	0.378509	0.009226
	C125	C	0.619334	0.621860	0.992588
	C126	C	0.375908	0.621398	0.009179
	C127	C	0.375459	0.378382	0.992539
	C128	C	0.005103	0.621552	0.379395
	C129	C	0.988392	0.621080	0.622741
	C130	C	0.005278	0.377983	0.622913
	C131	C	0.987952	0.378257	0.379768
	C132	C	0.874864	0.508142	0.123669
	C133	C	0.118307	0.491964	0.122454
	C134	C	0.118774	0.508244	0.878960
	C135	C	0.875598	0.491822	0.879524
	C136	C	0.117278	0.878686	0.509812
	C137	C	0.118017	0.122007	0.493330
	C138	C	0.874600	0.121345	0.509608
	C139	C	0.874728	0.878138	0.493471
	C140	C	0.504380	0.121520	0.879620
	C141	C	0.488199	0.121892	0.123054
	C142	C	0.505478	0.878440	0.122792
	C143	C	0.488514	0.878219	0.879914
	C144	C	0.376322	0.885402	0.677893
	C145	C	0.614533	0.114757	0.677090
	C146	C	0.614708	0.884819	0.324621
	C147	C	0.378054	0.115012	0.325188
	C148	C	0.673189	0.381728	0.885505
	C149	C	0.673191	0.619068	0.116500
	C150	C	0.322044	0.618259	0.885417
	C151	C	0.319918	0.381143	0.115905
	C152	C	0.881674	0.675869	0.382605
	C153	C	0.111531	0.677178	0.620282
	C154	C	0.881779	0.323269	0.620409
	C155	C	0.111133	0.323170	0.381543
	C156	C	0.882257	0.380727	0.677947
	C157	C	0.112094	0.619031	0.677030
	C158	C	0.881442	0.617913	0.325689
	C159	C	0.111231	0.381086	0.324280
	C160	C	0.379568	0.676080	0.885822
	C161	C	0.616161	0.676716	0.116146
	C162	C	0.615576	0.323656	0.885597
	C163	C	0.377137	0.323741	0.116179
	C164	C	0.672690	0.885003	0.381793
	C165	C	0.672772	0.114346	0.620340
	C166	C	0.318575	0.885569	0.620553
	C167	C	0.320480	0.115331	0.382966
	C168	C	0.877307	0.385182	0.178131
	C169	C	0.115857	0.614805	0.177780
	C170	C	0.115666	0.384791	0.824413
	C171	C	0.878786	0.615232	0.824390
	C172	C	0.172038	0.881678	0.386046
	C173	C	0.172456	0.118890	0.616608
	C174	C	0.820657	0.118000	0.385849
	C175	C	0.819169	0.880975	0.616722
	C176	C	0.381078	0.175794	0.883117
	C177	C	0.611409	0.176943	0.119970
	C178	C	0.382129	0.823180	0.119775
	C179	C	0.611997	0.824211	0.881691
	C180	C	0.381788	0.880847	0.177416
	C181	C	0.611697	0.118962	0.177366
	C182	C	0.380818	0.117914	0.825827
	C183	C	0.611630	0.881858	0.824437
	C184	C	0.877630	0.176131	0.386269
	C185	C	0.115234	0.176696	0.616713
	C186	C	0.114865	0.823889	0.386202
	C187	C	0.876544	0.822849	0.616636
	C188	C	0.173678	0.384951	0.881474
	C189	C	0.173454	0.614812	0.119824
	C190	C	0.819637	0.385038	0.120691
	C191	C	0.821613	0.615411	0.882908
	C192	C	0.395968	0.094490	0.601555
	C193	C	0.595442	0.905608	0.600506
	C194	C	0.596159	0.093914	0.401465
	C195	C	0.395800	0.905638	0.401427
	C196	C	0.596036	0.400136	0.095342
	C197	C	0.597645	0.599821	0.906554
	C198	C	0.397408	0.599265	0.095567
	C199	C	0.397921	0.399869	0.906573
	C200	C	0.091095	0.600090	0.401408
	C201	C	0.902726	0.598596	0.600957
	C202	C	0.091653	0.399795	0.600590
	C203	C	0.902191	0.400123	0.402208
	C204	C	0.897209	0.594102	0.101442
	C205	C	0.096178	0.405948	0.100227
	C206	C	0.097579	0.594237	0.900943
	C207	C	0.897618	0.406092	0.901327
	C208	C	0.095138	0.900657	0.596102
	C209	C	0.096426	0.100063	0.406663
	C210	C	0.896240	0.099732	0.595963
	C211	C	0.897107	0.900044	0.407129
	C212	C	0.590810	0.100178	0.901057
	C213	C	0.402122	0.099580	0.101144
	C214	C	0.591559	0.900993	0.100613
	C215	C	0.401936	0.899220	0.901998
	Zn216	Zn	0.496174	-0.000172	0.751414
	Zn217	Zn	0.496251	-0.000078	0.251144
	Zn218	Zn	0.747022	0.500434	0.001692
	Zn219	Zn	0.247241	0.499590	0.000387
	Zn220	Zn	-0.003502	0.749432	0.501373
	Zn221	Zn	-0.003762	0.249811	0.501354
	Zn222	Zn	-0.002462	0.499891	0.750719
	Zn223	Zn	-0.003350	0.499888	0.251636
	Zn224	Zn	0.497820	0.749916	0.001344
	Zn225	Zn	0.496199	0.250019	0.001036
	Zn226	Zn	0.746143	-0.000049	0.501434
	Zn227	Zn	0.245970	-0.000082	0.501180
	N228	N	0.410098	0.962953	0.679605
	N229	N	0.580658	0.037287	0.678627
	N230	N	0.581439	0.962325	0.322876
	N231	N	0.410929	0.037344	0.323168
	N232	N	0.674935	0.415177	0.963342
	N233	N	0.675302	0.585492	0.038789
	N234	N	0.319543	0.584918	0.963306
	N235	N	0.318539	0.414257	0.038131
	N236	N	0.959500	0.678225	0.415367
	N237	N	0.033962	0.678410	0.587139
	N238	N	0.959510	0.321475	0.586927
	N239	N	0.033642	0.321251	0.415388
	N240	N	0.959951	0.414164	0.679262
	N241	N	0.034689	0.584647	0.678642
	N242	N	0.959153	0.584827	0.323513
	N243	N	0.033827	0.414858	0.323428
	N244	N	0.412242	0.678055	0.963698
	N245	N	0.583434	0.678597	0.038153
	N246	N	0.582081	0.321643	0.963466
	N247	N	0.411134	0.322074	0.038527
	N248	N	0.674979	0.962566	0.415202
	N249	N	0.674524	0.036843	0.586936
	N250	N	0.317070	0.963096	0.587054
	N251	N	0.318116	0.037559	0.415983
	N252	N	0.910933	0.462720	0.179975
	N253	N	0.082346	0.537149	0.179491
	N254	N	0.082630	0.462282	0.822502
	N255	N	0.911888	0.537422	0.822286
	N256	N	0.173649	0.915205	0.463877
	N257	N	0.174272	0.085394	0.538838
	N258	N	0.818602	0.084641	0.463704
	N259	N	0.817809	0.914504	0.538999
	N260	N	0.459052	0.178059	0.915693
	N261	N	0.533718	0.178727	0.087082
	N262	N	0.459999	0.821738	0.086539
	N263	N	0.534444	0.821916	0.915562
	N264	N	0.459332	0.914589	0.179282
	N265	N	0.533922	0.085241	0.179198
	N266	N	0.458483	0.084686	0.823619
	N267	N	0.533671	0.914590	0.823157
	N268	N	0.910495	0.178153	0.464142
	N269	N	0.081921	0.178567	0.538873
	N270	N	0.081479	0.821981	0.464116
	N271	N	0.910034	0.820700	0.538752
	N272	N	0.175657	0.462696	0.914722
	N273	N	0.175110	0.537295	0.086097
	N274	N	0.818188	0.462614	0.087371
	N275	N	0.819353	0.537919	0.916348
	O276	O	0.976019	-0.015582	1.032674
	H277	H	0.975848	-0.017456	1.034673
	H278	H	0.977478	-0.017506	1.032672
	O279	O	0.546381	0.497820	0.449364
	H280	H	0.550504	0.497459	0.450752
	H281	H	0.545185	0.497552	0.446124
	O282	O	0.984159	0.978776	0.041863
	H283	H	0.982355	0.976294	0.043882
	H284	H	0.988035	0.980477	0.040902
	O285	O	0.518112	0.500539	0.439817
	H286	H	0.516061	0.494898	0.436398
	H287	H	0.524438	0.503352	0.443775
