data_Molecule from HDF5

_cell_length_a		16.280844
_cell_length_b		16.259801
_cell_length_c		16.254752
_cell_angle_alpha	90.030732
_cell_angle_beta	90.017143
_cell_angle_gamma	89.832512
_symmetry_space_group_name_H-M	'P 1'
_symmetry_Int_Tables_number		1

loop_
	_symmetry_equiv_pos_as_xyz
	x,y,z

loop_
	_atom_site_label
	_atom_site_type_symbol
	_atom_site_fract_x
	_atom_site_fract_y
	_atom_site_fract_z
	H0	H	0.406984	0.829894	0.709483
	H1	H	0.600360	0.158639	0.709268
	H2	H	0.603745	0.830886	0.280512
	H3	H	0.405033	0.157472	0.281896
	H4	H	0.717375	0.395178	0.831717
	H5	H	0.716862	0.592110	0.159857
	H6	H	0.286906	0.593697	0.832166
	H7	H	0.289880	0.396844	0.159930
	H8	H	0.840491	0.708608	0.397670
	H9	H	0.167475	0.707116	0.595051
	H10	H	0.840144	0.278361	0.595070
	H11	H	0.166962	0.279824	0.399220
	H12	H	0.838676	0.396173	0.709476
	H13	H	0.166556	0.591467	0.711287
	H14	H	0.839734	0.592343	0.282698
	H15	H	0.167062	0.395045	0.282297
	H16	H	0.405232	0.707755	0.831575
	H17	H	0.601169	0.708231	0.159404
	H18	H	0.601088	0.279086	0.831565
	H19	H	0.404790	0.280121	0.160418
	H20	H	0.719060	0.830453	0.396613
	H21	H	0.717766	0.158278	0.594713
	H22	H	0.290958	0.829415	0.593778
	H23	H	0.288606	0.156747	0.397222
	H24	H	0.905475	0.329940	0.209532
	H25	H	0.099841	0.658028	0.209099
	H26	H	0.101464	0.329056	0.782513
	H27	H	0.905740	0.658273	0.782953
	H28	H	0.218960	0.893884	0.331639
	H29	H	0.218416	0.091294	0.659544
	H30	H	0.788871	0.093560	0.332437
	H31	H	0.790406	0.896212	0.660023
	H32	H	0.339176	0.208163	0.897787
	H33	H	0.666267	0.208936	0.095076
	H34	H	0.339050	0.780069	0.093857
	H35	H	0.666997	0.778844	0.897588
	H36	H	0.339611	0.895319	0.211488
	H37	H	0.667363	0.091743	0.209265
	H38	H	0.339368	0.092865	0.781420
	H39	H	0.667358	0.894801	0.781818
	H40	H	0.905632	0.207495	0.331557
	H41	H	0.101671	0.207038	0.659883
	H42	H	0.102069	0.778751	0.332323
	H43	H	0.906753	0.780251	0.660031
	H44	H	0.218543	0.329457	0.898086
	H45	H	0.216798	0.657542	0.094831
	H46	H	0.789072	0.330027	0.094724
	H47	H	0.788552	0.657871	0.897804
	H48	H	0.412916	0.111902	0.594762
	H49	H	0.598433	0.874944	0.595542
	H50	H	0.596513	0.110514	0.404993
	H51	H	0.417159	0.880123	0.407899
	H52	H	0.594464	0.404834	0.110394
	H53	H	0.584402	0.587881	0.881655
	H54	H	0.420622	0.584849	0.108013
	H55	H	0.414864	0.401708	0.880740
	H56	H	0.122695	0.588095	0.398858
	H57	H	0.881908	0.596847	0.595677
	H58	H	0.121032	0.402428	0.595289
	H59	H	0.887062	0.403459	0.403592
	H60	H	0.121254	0.394696	0.589936
	H61	H	0.889648	0.589587	0.576781
	H62	H	0.120428	0.588734	0.405887
	H63	H	0.885435	0.399949	0.400730
	H64	H	0.406834	0.597598	0.116560
	H65	H	0.602816	0.596300	0.874009
	H66	H	0.593330	0.396325	0.113179
	H67	H	0.409260	0.396365	0.877090
	H68	H	0.597311	0.111310	0.402548
	H69	H	0.591737	0.879967	0.586989
	H70	H	0.413249	0.108536	0.583458
	H71	H	0.405595	0.875148	0.406688
	H72	H	0.908237	0.607704	0.077272
	H73	H	0.084253	0.380292	0.089240
	H74	H	0.093638	0.607328	0.907347
	H75	H	0.911122	0.379130	0.907830
	H76	H	0.103859	0.907325	0.611951
	H77	H	0.091645	0.089898	0.379076
	H78	H	0.904424	0.076498	0.611768
	H79	H	0.918472	0.899935	0.380483
	H80	H	0.620187	0.084800	0.898783
	H81	H	0.388018	0.087932	0.084069
	H82	H	0.617369	0.903119	0.084732
	H83	H	0.386456	0.900338	0.900844
	H84	H	0.620170	0.902397	0.093157
	H85	H	0.387775	0.082190	0.090491
	H86	H	0.620863	0.090526	0.904167
	H87	H	0.387168	0.900593	0.904570
	H88	H	0.922309	0.086210	0.608641
	H89	H	0.102268	0.090235	0.376708
	H90	H	0.088927	0.901297	0.610001
	H91	H	0.906205	0.895322	0.375476
	H92	H	0.100428	0.611307	0.903384
	H93	H	0.103332	0.377974	0.078681
	H94	H	0.899828	0.615384	0.095190
	H95	H	0.905527	0.375340	0.902591
	H96	H	0.403066	0.112507	0.588442
	H97	H	0.603316	0.876892	0.585090
	H98	H	0.595191	0.110601	0.402796
	H99	H	0.412992	0.875226	0.396604
	H100	H	0.600720	0.400232	0.113969
	H101	H	0.601291	0.575610	0.880560
	H102	H	0.401394	0.578383	0.112933
	H103	H	0.407006	0.404247	0.879201
	H104	H	0.119310	0.582566	0.402254
	H105	H	0.888455	0.576011	0.594154
	H106	H	0.118496	0.402831	0.585537
	H107	H	0.886658	0.398989	0.405348
	H108	H	0.919810	0.609609	0.094713
	H109	H	0.101700	0.371746	0.099789
	H110	H	0.093160	0.611206	0.899167
	H111	H	0.913384	0.376914	0.899946
	H112	H	0.100879	0.891645	0.616809
	H113	H	0.097813	0.080491	0.379776
	H114	H	0.906022	0.096544	0.617261
	H115	H	0.907836	0.908291	0.380120
	H116	H	0.617732	0.083465	0.906192
	H117	H	0.384606	0.089573	0.092437
	H118	H	0.619937	0.895859	0.087546
	H119	H	0.387535	0.903424	0.902077
	C120	C	0.382369	0.002385	0.617037
	C121	C	0.625610	0.986002	0.617841
	C122	C	0.625570	0.002499	0.374630
	C123	C	0.382761	0.984972	0.374924
	C124	C	0.624686	0.371849	0.004089
	C125	C	0.624187	0.615006	0.987104
	C126	C	0.380716	0.615791	0.004148
	C127	C	0.381895	0.372255	0.987621
	C128	C	0.012288	0.615221	0.374344
	C129	C	0.995150	0.615373	0.617781
	C130	C	0.011684	0.371620	0.618221
	C131	C	0.994549	0.372433	0.374722
	C132	C	0.881371	0.502417	0.117382
	C133	C	0.124501	0.485339	0.117743
	C134	C	0.124674	0.501367	0.874831
	C135	C	0.881418	0.485419	0.874705
	C136	C	0.125764	0.871799	0.504083
	C137	C	0.125491	0.114921	0.487003
	C138	C	0.882023	0.115683	0.504320
	C139	C	0.882491	0.872731	0.487414
	C140	C	0.511224	0.115166	0.874324
	C141	C	0.494660	0.115111	0.117539
	C142	C	0.511465	0.871908	0.117669
	C143	C	0.495252	0.872311	0.873948
	C144	C	0.386083	0.878685	0.671735
	C145	C	0.621999	0.109523	0.672215
	C146	C	0.623917	0.879647	0.318675
	C147	C	0.384727	0.108538	0.319816
	C148	C	0.679563	0.374404	0.880543
	C149	C	0.679037	0.612511	0.110871
	C150	C	0.325434	0.613391	0.880831
	C151	C	0.327266	0.375509	0.111145
	C152	C	0.889277	0.670961	0.377016
	C153	C	0.118269	0.669731	0.615248
	C154	C	0.888609	0.316939	0.615069
	C155	C	0.118108	0.317815	0.378105
	C156	C	0.887972	0.375026	0.672184
	C157	C	0.118043	0.611615	0.672600
	C158	C	0.888656	0.612693	0.320417
	C159	C	0.117970	0.374806	0.319915
	C160	C	0.383896	0.670370	0.880600
	C161	C	0.621508	0.670040	0.110738
	C162	C	0.621689	0.317060	0.880432
	C163	C	0.384475	0.317695	0.111080
	C164	C	0.680886	0.879353	0.376510
	C165	C	0.680137	0.109312	0.615129
	C166	C	0.328257	0.878585	0.614661
	C167	C	0.326997	0.108153	0.377158
	C168	C	0.884469	0.378880	0.171967
	C169	C	0.121002	0.608927	0.172041
	C170	C	0.122226	0.378064	0.820112
	C171	C	0.884197	0.608972	0.819822
	C172	C	0.180634	0.874070	0.380559
	C173	C	0.180121	0.111695	0.610715
	C174	C	0.826750	0.113729	0.381117
	C175	C	0.827934	0.875651	0.610988
	C176	C	0.388110	0.170554	0.876991
	C177	C	0.617731	0.170350	0.114960
	C178	C	0.387968	0.817745	0.114545
	C179	C	0.618164	0.816748	0.876854
	C180	C	0.388378	0.874510	0.173312
	C181	C	0.618124	0.112483	0.172082
	C182	C	0.388124	0.113186	0.819153
	C183	C	0.618517	0.874502	0.819385
	C184	C	0.884796	0.170445	0.380739
	C185	C	0.122579	0.169267	0.610823
	C186	C	0.123260	0.816410	0.380932
	C187	C	0.885653	0.817768	0.610848
	C188	C	0.179913	0.378026	0.877836
	C189	C	0.179096	0.608563	0.115148
	C190	C	0.826664	0.378991	0.114824
	C191	C	0.826360	0.608871	0.877250
	C192	C	0.403412	0.088687	0.595467
	C193	C	0.604036	0.899604	0.595816
	C194	C	0.602985	0.088581	0.396994
	C195	C	0.405274	0.898982	0.397145
	C196	C	0.602879	0.394053	0.090304
	C197	C	0.602435	0.593021	0.900971
	C198	C	0.403055	0.593563	0.090204
	C199	C	0.403792	0.394262	0.901251
	C200	C	0.098548	0.593024	0.395971
	C201	C	0.908797	0.593877	0.595398
	C202	C	0.097882	0.393545	0.596544
	C203	C	0.908552	0.394398	0.396725
	C204	C	0.902847	0.588560	0.095509
	C205	C	0.102747	0.399021	0.095874
	C206	C	0.102383	0.587734	0.896925
	C207	C	0.903594	0.399213	0.896894
	C208	C	0.104223	0.893627	0.590312
	C209	C	0.103596	0.093425	0.400889
	C210	C	0.904249	0.093116	0.590305
	C211	C	0.904349	0.894792	0.400943
	C212	C	0.597308	0.092844	0.896388
	C213	C	0.408970	0.093034	0.095486
	C214	C	0.597026	0.893930	0.095159
	C215	C	0.409390	0.894793	0.896198
	Zn216	Zn	0.503383	-0.006202	0.745409
	Zn217	Zn	0.503744	-0.006298	0.246266
	Zn218	Zn	0.752998	0.493683	-0.003930
	Zn219	Zn	0.253032	0.493429	-0.003785
	Zn220	Zn	0.004286	0.743609	0.495446
	Zn221	Zn	0.003481	0.243423	0.495979
	Zn222	Zn	0.002659	0.493270	0.746680
	Zn223	Zn	0.002925	0.493902	0.245965
	Zn224	Zn	0.502994	0.743593	-0.004359
	Zn225	Zn	0.503194	0.243487	-0.004041
	Zn226	Zn	0.753560	-0.005431	0.496081
	Zn227	Zn	0.253839	-0.006657	0.495862
	N228	N	0.418690	0.956703	0.673648
	N229	N	0.588919	0.031667	0.673926
	N230	N	0.589994	0.957180	0.317580
	N231	N	0.418943	0.030989	0.318555
	N232	N	0.681418	0.407918	0.958340
	N233	N	0.680795	0.578904	0.033156
	N234	N	0.323379	0.580258	0.958819
	N235	N	0.325592	0.408765	0.033393
	N236	N	0.967150	0.672475	0.409877
	N237	N	0.040565	0.671867	0.581765
	N238	N	0.966678	0.314450	0.582495
	N239	N	0.040567	0.316012	0.411385
	N240	N	0.965476	0.408344	0.674210
	N241	N	0.040368	0.578662	0.674328
	N242	N	0.966155	0.578817	0.318773
	N243	N	0.040068	0.407991	0.317687
	N244	N	0.417267	0.672121	0.958189
	N245	N	0.588130	0.671726	0.033001
	N246	N	0.588428	0.315326	0.958169
	N247	N	0.417966	0.315972	0.033307
	N248	N	0.682079	0.956826	0.410583
	N249	N	0.682446	0.031363	0.582052
	N250	N	0.326103	0.956231	0.581342
	N251	N	0.325517	0.030377	0.410406
	N252	N	0.917677	0.456585	0.173857
	N253	N	0.087585	0.531296	0.173655
	N254	N	0.088685	0.455894	0.818164
	N255	N	0.917752	0.531019	0.818243
	N256	N	0.182212	0.907925	0.458128
	N257	N	0.182133	0.078698	0.532905
	N258	N	0.824671	0.080694	0.459042
	N259	N	0.825877	0.908962	0.533142
	N260	N	0.465795	0.172032	0.910367
	N261	N	0.540042	0.172198	0.081848
	N262	N	0.465383	0.816013	0.080578
	N263	N	0.540595	0.815410	0.910335
	N264	N	0.466021	0.907520	0.175239
	N265	N	0.540601	0.078758	0.173692
	N266	N	0.465746	0.079395	0.817479
	N267	N	0.541042	0.908289	0.817484
	N268	N	0.918568	0.171575	0.458404
	N269	N	0.088953	0.171212	0.532966
	N270	N	0.089852	0.814956	0.458632
	N271	N	0.919001	0.815965	0.533033
	N272	N	0.181287	0.455840	0.911194
	N273	N	0.181461	0.530537	0.082252
	N274	N	0.824810	0.456695	0.081335
	N275	N	0.824617	0.531129	0.910589
	O276	O	0.998643	-0.021158	0.953424
	H277	H	1.003027	-0.016172	0.954351
	H278	H	1.007140	-0.026368	0.950897
	O279	O	0.008059	0.980784	0.922426
	H280	H	0.004069	0.987364	0.920019
	H281	H	0.004020	0.978495	0.917399
	O282	O	0.970873	0.979035	-0.062217
	H283	H	0.974572	0.975121	-0.060088
	H284	H	0.966613	0.982997	-0.055549
	O285	O	0.019346	0.963463	0.943622
	H286	H	0.013183	0.967828	0.938511
	H287	H	0.022805	0.950757	0.941911
