data_Molecule from HDF5

_cell_length_a		16.240045
_cell_length_b		16.156550
_cell_length_c		16.193877
_cell_angle_alpha	90.601245
_cell_angle_beta	89.768757
_cell_angle_gamma	89.706182
_symmetry_space_group_name_H-M	'P 1'
_symmetry_Int_Tables_number		1

loop_
	_symmetry_equiv_pos_as_xyz
	x,y,z

loop_
	_atom_site_label
	_atom_site_type_symbol
	_atom_site_fract_x
	_atom_site_fract_y
	_atom_site_fract_z
	H0	H	0.400689	0.839818	0.729233
	H1	H	0.598126	0.169667	0.730975
	H2	H	0.600639	0.841376	0.298023
	H3	H	0.402007	0.171059	0.307367
	H4	H	0.714595	0.403850	0.851161
	H5	H	0.712772	0.608508	0.179135
	H6	H	0.284300	0.603248	0.850309
	H7	H	0.282764	0.408179	0.178030
	H8	H	0.835496	0.717757	0.418859
	H9	H	0.163727	0.717859	0.616225
	H10	H	0.834661	0.291627	0.612320
	H11	H	0.163510	0.286688	0.414104
	H12	H	0.835234	0.406322	0.730263
	H13	H	0.162859	0.602513	0.730906
	H14	H	0.834463	0.602807	0.303393
	H15	H	0.162205	0.399130	0.296667
	H16	H	0.398774	0.719849	0.849653
	H17	H	0.595071	0.722033	0.179515
	H18	H	0.598618	0.288673	0.851524
	H19	H	0.401154	0.297457	0.180788
	H20	H	0.713974	0.839977	0.413645
	H21	H	0.714012	0.168786	0.614833
	H22	H	0.285760	0.839194	0.613070
	H23	H	0.283837	0.167745	0.417688
	H24	H	0.901766	0.337819	0.225190
	H25	H	0.094706	0.668637	0.232164
	H26	H	0.100513	0.340423	0.798868
	H27	H	0.899939	0.669808	0.804506
	H28	H	0.216694	0.899763	0.350850
	H29	H	0.212892	0.104513	0.678886
	H30	H	0.786139	0.101600	0.350453
	H31	H	0.783694	0.905093	0.678294
	H32	H	0.334551	0.218879	0.920437
	H33	H	0.663826	0.220899	0.115350
	H34	H	0.334735	0.795150	0.113880
	H35	H	0.662284	0.788163	0.913072
	H36	H	0.335976	0.908783	0.230411
	H37	H	0.663895	0.104999	0.231138
	H38	H	0.335525	0.106499	0.801096
	H39	H	0.663357	0.904094	0.799225
	H40	H	0.902055	0.214840	0.349919
	H41	H	0.097607	0.219920	0.678385
	H42	H	0.101349	0.783930	0.351884
	H43	H	0.902763	0.794536	0.680986
	H44	H	0.215530	0.340838	0.912973
	H45	H	0.210826	0.670924	0.115793
	H46	H	0.783409	0.340895	0.113333
	H47	H	0.784643	0.669849	0.918494
	H48	H	0.411065	0.122873	0.617593
	H49	H	0.583744	0.884371	0.620975
	H50	H	0.601344	0.125077	0.426387
	H51	H	0.414191	0.887827	0.421207
	H52	H	0.584731	0.407769	0.133584
	H53	H	0.592369	0.585235	0.900639
	H54	H	0.401132	0.602259	0.133829
	H55	H	0.411017	0.406589	0.896575
	H56	H	0.114500	0.594004	0.429929
	H57	H	0.879255	0.607406	0.608944
	H58	H	0.117136	0.405186	0.605170
	H59	H	0.880138	0.414001	0.413542
	H60	H	0.114501	0.415727	0.603400
	H61	H	0.886137	0.594119	0.604795
	H62	H	0.114820	0.586717	0.421053
	H63	H	0.879596	0.401012	0.419597
	H64	H	0.404800	0.597912	0.130279
	H65	H	0.582244	0.601602	0.899402
	H66	H	0.600733	0.411743	0.136722
	H67	H	0.401128	0.411303	0.894695
	H68	H	0.591935	0.125340	0.416999
	H69	H	0.587023	0.893131	0.591702
	H70	H	0.412338	0.117359	0.600710
	H71	H	0.406682	0.886079	0.425626
	H72	H	0.910635	0.622234	0.114543
	H73	H	0.103674	0.383780	0.104981
	H74	H	0.095313	0.623874	0.922195
	H75	H	0.902344	0.385229	0.923360
	H76	H	0.107546	0.910483	0.637446
	H77	H	0.090396	0.093347	0.398438
	H78	H	0.905791	0.094769	0.632117
	H79	H	0.901099	0.900888	0.392244
	H80	H	0.617142	0.096291	0.920070
	H81	H	0.378813	0.106593	0.119076
	H82	H	0.617737	0.913775	0.109695
	H83	H	0.382441	0.912078	0.921677
	H84	H	0.616857	0.910785	0.103565
	H85	H	0.383769	0.105930	0.106295
	H86	H	0.616712	0.100033	0.924075
	H87	H	0.381663	0.913836	0.922622
	H88	H	0.909781	0.097581	0.631442
	H89	H	0.094419	0.096683	0.396041
	H90	H	0.088278	0.924212	0.627702
	H91	H	0.903406	0.917371	0.399317
	H92	H	0.087708	0.622778	0.921041
	H93	H	0.085262	0.386634	0.113837
	H94	H	0.906460	0.620583	0.104722
	H95	H	0.906191	0.385302	0.917945
	H96	H	0.396240	0.124443	0.607416
	H97	H	0.610313	0.881392	0.607787
	H98	H	0.588895	0.120669	0.428453
	H99	H	0.407216	0.885170	0.416812
	H100	H	0.590696	0.424424	0.130362
	H101	H	0.601545	0.601989	0.892873
	H102	H	0.407074	0.604672	0.133273
	H103	H	0.409447	0.416410	0.899325
	H104	H	0.118299	0.597037	0.419983
	H105	H	0.879355	0.596358	0.619084
	H106	H	0.117854	0.412471	0.613371
	H107	H	0.883874	0.412064	0.427755
	H108	H	0.900108	0.624716	0.112664
	H109	H	0.088330	0.391593	0.093093
	H110	H	0.090983	0.621901	0.928031
	H111	H	0.909277	0.388473	0.924347
	H112	H	0.085459	0.899827	0.633865
	H113	H	0.094289	0.090598	0.396961
	H114	H	0.905105	0.100186	0.633303
	H115	H	0.917627	0.905330	0.399260
	H116	H	0.614663	0.094767	0.925504
	H117	H	0.383756	0.094819	0.113458
	H118	H	0.614731	0.917551	0.104710
	H119	H	0.380996	0.914154	0.920712
	C120	C	0.378088	0.012683	0.636792
	C121	C	0.621873	0.995746	0.636475
	C122	C	0.622531	0.014643	0.393350
	C123	C	0.379630	0.995475	0.394306
	C124	C	0.620766	0.384195	0.024463
	C125	C	0.620065	0.627061	1.006208
	C126	C	0.376133	0.628799	0.023141
	C127	C	0.378010	0.384553	1.005937
	C128	C	0.007579	0.623143	0.395379
	C129	C	0.990107	0.627030	0.639331
	C130	C	0.007872	0.382980	0.636077
	C131	C	0.990159	0.379293	0.390979
	C132	C	0.877075	0.513282	0.137434
	C133	C	0.120247	0.496222	0.135661
	C134	C	0.121018	0.514090	0.893552
	C135	C	0.877443	0.495647	0.894399
	C136	C	0.122739	0.880780	0.524160
	C137	C	0.121445	0.124296	0.505597
	C138	C	0.878578	0.124948	0.523165
	C139	C	0.878449	0.881583	0.506005
	C140	C	0.507712	0.126459	0.894885
	C141	C	0.490853	0.129807	0.140246
	C142	C	0.508147	0.885855	0.135817
	C143	C	0.490218	0.883081	0.892288
	C144	C	0.380653	0.888953	0.691629
	C145	C	0.618761	0.119969	0.692839
	C146	C	0.620274	0.890429	0.336546
	C147	C	0.381533	0.120761	0.342613
	C148	C	0.676759	0.384238	0.900555
	C149	C	0.674727	0.627200	0.130094
	C150	C	0.321471	0.624877	0.899452
	C151	C	0.321759	0.388209	0.129526
	C152	C	0.884343	0.679485	0.398450
	C153	C	0.114073	0.680787	0.636743
	C154	C	0.884125	0.328791	0.633290
	C155	C	0.113954	0.323936	0.393183
	C156	C	0.884436	0.385476	0.692105
	C157	C	0.113770	0.623444	0.693876
	C158	C	0.883870	0.622153	0.340949
	C159	C	0.113310	0.380072	0.334825
	C160	C	0.378720	0.682525	0.899020
	C161	C	0.616277	0.683680	0.130357
	C162	C	0.619068	0.327042	0.900696
	C163	C	0.380345	0.333005	0.130701
	C164	C	0.676811	0.889628	0.393926
	C165	C	0.676485	0.119692	0.635297
	C166	C	0.323310	0.888585	0.633954
	C167	C	0.322201	0.118947	0.397113
	C168	C	0.880657	0.388085	0.189279
	C169	C	0.116256	0.619835	0.193424
	C170	C	0.119894	0.389772	0.837123
	C171	C	0.879711	0.620263	0.841201
	C172	C	0.178501	0.880491	0.400092
	C173	C	0.175883	0.124151	0.629557
	C174	C	0.824076	0.121435	0.399544
	C175	C	0.822197	0.885069	0.629594
	C176	C	0.383635	0.181251	0.899289
	C177	C	0.614599	0.183686	0.136319
	C178	C	0.384260	0.831984	0.134331
	C179	C	0.613524	0.826636	0.893963
	C180	C	0.384763	0.889195	0.191965
	C181	C	0.614811	0.125991	0.193780
	C182	C	0.384233	0.125417	0.839782
	C183	C	0.613975	0.884039	0.837086
	C184	C	0.881212	0.178562	0.399347
	C185	C	0.118522	0.181576	0.629383
	C186	C	0.121163	0.822878	0.400708
	C187	C	0.881704	0.830363	0.631089
	C188	C	0.177588	0.389993	0.893506
	C189	C	0.174001	0.620839	0.135512
	C190	C	0.821646	0.389611	0.133793
	C191	C	0.822132	0.620370	0.897728
	C192	C	0.399943	0.099365	0.614929
	C193	C	0.600043	0.908699	0.613545
	C194	C	0.600617	0.101211	0.417096
	C195	C	0.402635	0.908834	0.415000
	C196	C	0.598604	0.407816	0.111138
	C197	C	0.598549	0.603203	0.920078
	C198	C	0.397931	0.607790	0.109824
	C199	C	0.400482	0.405313	0.919196
	C200	C	0.093581	0.599483	0.417291
	C201	C	0.903991	0.605670	0.617488
	C202	C	0.094042	0.404905	0.613929
	C203	C	0.903655	0.402236	0.413597
	C204	C	0.898975	0.599882	0.116662
	C205	C	0.098646	0.409763	0.111271
	C206	C	0.098126	0.600429	0.916939
	C207	C	0.899511	0.408924	0.915668
	C208	C	0.100357	0.904704	0.610503
	C209	C	0.099569	0.100552	0.419441
	C210	C	0.900432	0.103689	0.609955
	C211	C	0.900731	0.901865	0.419237
	C212	C	0.593809	0.103702	0.916728
	C213	C	0.404340	0.108765	0.119220
	C214	C	0.594189	0.907654	0.112781
	C215	C	0.403981	0.906412	0.914982
	Zn216	Zn	0.499532	0.004952	0.765473
	Zn217	Zn	0.500445	0.005855	0.266982
	Zn218	Zn	0.749269	0.505641	0.015480
	Zn219	Zn	0.249433	0.505417	0.014157
	Zn220	Zn	-0.000033	0.753474	0.516308
	Zn221	Zn	-0.000221	0.253263	0.513897
	Zn222	Zn	-0.001155	0.504597	0.766680
	Zn223	Zn	-0.001283	0.502730	0.265482
	Zn224	Zn	0.498712	0.756318	0.014216
	Zn225	Zn	0.498837	0.256410	0.016398
	Zn226	Zn	0.750115	0.003748	0.514294
	Zn227	Zn	0.250318	0.002932	0.514561
	N228	N	0.414052	0.967137	0.693387
	N229	N	0.585569	0.041709	0.693569
	N230	N	0.587413	0.969112	0.335859
	N231	N	0.416285	0.042895	0.340408
	N232	N	0.677890	0.419169	0.978652
	N233	N	0.677273	0.592686	0.051940
	N234	N	0.319683	0.592491	0.977634
	N235	N	0.320184	0.419651	0.050804
	N236	N	0.962244	0.680163	0.431789
	N237	N	0.036329	0.683161	0.603500
	N238	N	0.961966	0.326874	0.599137
	N239	N	0.036272	0.323228	0.427177
	N240	N	0.962373	0.418348	0.694083
	N241	N	0.035689	0.590460	0.695526
	N242	N	0.961656	0.587883	0.338908
	N243	N	0.035195	0.413678	0.333363
	N244	N	0.411829	0.685365	0.977221
	N245	N	0.583009	0.683768	0.052431
	N246	N	0.585429	0.326561	0.978838
	N247	N	0.414653	0.330517	0.052796
	N248	N	0.678313	0.967748	0.428723
	N249	N	0.678582	0.041292	0.601094
	N250	N	0.321746	0.966657	0.600566
	N251	N	0.321097	0.040240	0.428821
	N252	N	0.914554	0.465991	0.191664
	N253	N	0.083948	0.541297	0.193782
	N254	N	0.085548	0.467891	0.836797
	N255	N	0.913335	0.541704	0.838886
	N256	N	0.179661	0.915707	0.477770
	N257	N	0.177767	0.089255	0.551581
	N258	N	0.822432	0.088878	0.477676
	N259	N	0.820154	0.916443	0.550865
	N260	N	0.461261	0.181979	0.932922
	N261	N	0.536623	0.186062	0.103569
	N262	N	0.461876	0.829814	0.100001
	N263	N	0.535533	0.825966	0.927558
	N264	N	0.462932	0.921722	0.193332
	N265	N	0.536778	0.093338	0.196547
	N266	N	0.462469	0.091985	0.836995
	N267	N	0.536311	0.918639	0.836126
	N268	N	0.914552	0.180795	0.477347
	N269	N	0.085391	0.181955	0.551428
	N270	N	0.087195	0.822915	0.478754
	N271	N	0.916018	0.827947	0.553262
	N272	N	0.178549	0.468269	0.927872
	N273	N	0.176388	0.542839	0.100046
	N274	N	0.819219	0.468413	0.102223
	N275	N	0.820519	0.541949	0.929939
	O276	O	-0.456903	0.477361	-0.392595
	H277	H	-0.453610	0.493096	-0.398231
	H278	H	-0.457193	0.483959	-0.383994
	O279	O	0.526697	0.558951	0.513103
	H280	H	0.527688	0.550365	0.516864
	H281	H	0.533678	0.562335	0.513362
	O282	O	0.465879	0.417555	0.574047
	H283	H	0.466773	0.406153	0.584964
	H284	H	0.463784	0.413683	0.563874
	O285	O	0.104923	0.962778	0.967013
	H286	H	0.106148	0.958614	0.963121
	H287	H	0.100966	0.966239	0.971593
	O288	O	-0.043933	-0.012863	-0.019141
	H289	H	-0.027367	-0.011970	-0.007436
	H290	H	-0.039631	-0.013986	-0.016206
	O291	O	0.465739	1.517895	0.471693
	H292	H	0.468200	1.508470	0.475277
	H293	H	0.464778	1.523253	0.484704
	O294	O	1.446983	0.487292	0.491800
	H295	H	1.450577	0.488301	0.495307
	H296	H	1.442374	0.487702	0.494843
	O297	O	1.008427	-0.027822	1.093015
	H298	H	1.018860	-0.027340	1.073753
	H299	H	1.016260	-0.022347	1.091475
	O300	O	0.558282	0.599886	0.506994
	H301	H	0.555413	0.585471	0.510172
	H302	H	0.568565	0.602186	0.515939
	O303	O	1.057234	-0.070962	-0.039498
	H304	H	1.062741	-0.062446	-0.050298
	H305	H	1.071116	-0.069579	-0.041984
	O306	O	-0.019735	1.070081	1.037297
	H307	H	-0.023444	1.076765	1.025480
	H308	H	-0.011456	1.066673	1.040605
	O309	O	0.463287	0.480364	0.399938
	H310	H	0.466535	0.472797	0.394418
	H311	H	0.460747	0.484272	0.403344
	O312	O	0.955850	0.024822	1.096202
	H313	H	0.943604	0.032455	1.094805
	H314	H	0.957281	0.019938	1.097925
	O315	O	0.043959	0.060528	-0.048158
	H316	H	0.046137	0.059998	-0.047720
	H317	H	0.044483	0.058560	-0.050326
	O318	O	0.569982	0.523499	0.526394
	H319	H	0.573877	0.526033	0.532506
	H320	H	0.566315	0.527881	0.519126
	O321	O	0.946525	1.052005	0.983765
	H322	H	0.964607	1.051781	0.997821
	H323	H	0.941185	1.058571	0.983368
	O324	O	0.960069	0.068657	0.011823
	H325	H	0.952238	0.071441	-0.007429
	H326	H	0.961090	0.077063	0.014838
	O327	O	0.549698	0.420959	0.547767
	H328	H	0.553147	0.421744	0.549439
	H329	H	0.554015	0.419601	0.541093
	O330	O	0.924109	-0.005648	0.943166
	H331	H	0.927320	-0.014685	0.944224
	H332	H	0.922262	0.001116	0.948387
	O333	O	0.915346	1.083865	-1.061678
	H334	H	0.912166	1.086344	-1.063733
	H335	H	0.914151	1.076237	-1.060575
	O336	O	1.051830	1.012065	1.126946
	H337	H	1.047068	1.017518	1.134582
	H338	H	1.057252	1.005743	1.135441
	O339	O	0.445854	0.602664	0.516977
	H340	H	0.452177	0.603030	0.518114
	H341	H	0.442885	0.600756	0.518728
	O342	O	0.123751	0.922711	-0.055937
	H343	H	0.104021	0.925846	-0.066738
	H344	H	0.129914	0.917031	-0.058291
	O345	O	-0.008484	0.014926	0.103244
	H346	H	-0.008186	0.008793	0.102199
	H347	H	-0.014800	0.020449	0.119535
	O348	O	0.643642	0.348302	0.612367
	H349	H	0.635828	0.340885	0.614611
	H350	H	0.635451	0.348295	0.617503
	O351	O	0.440357	0.485128	0.526992
	H352	H	0.433011	0.492470	0.523162
	H353	H	0.444733	0.484815	0.527588
	O354	O	0.509359	0.532794	0.558575
	H355	H	0.503660	0.524329	0.548003
	H356	H	0.513168	0.541408	0.568562
	O357	O	0.498520	0.598388	0.523683
	H358	H	0.495292	0.598542	0.517038
	H359	H	0.502832	0.602007	0.516450
	O360	O	-0.055449	-0.061375	0.039886
	H361	H	-0.059287	-0.056834	0.036346
	H362	H	-0.049523	-0.066873	0.038786
	O363	O	0.474734	0.516548	0.433114
	H364	H	0.468406	0.509464	0.423117
	H365	H	0.473957	0.503618	0.436875
	O366	O	0.034178	0.029658	1.056330
	H367	H	0.032888	0.041142	1.069654
	H368	H	0.029141	0.002076	1.061133
	O369	O	0.457353	0.440738	0.507019
	H370	H	0.451409	0.442317	0.513046
	H371	H	0.459727	0.443240	0.507625
