data_Molecule from HDF5

_cell_length_a		16.369357
_cell_length_b		16.217902
_cell_length_c		16.130907
_cell_angle_alpha	89.987716
_cell_angle_beta	90.066170
_cell_angle_gamma	90.296754
_symmetry_space_group_name_H-M	'P 1'
_symmetry_Int_Tables_number		1

loop_
	_symmetry_equiv_pos_as_xyz
	x,y,z

loop_
	_atom_site_label
	_atom_site_type_symbol
	_atom_site_fract_x
	_atom_site_fract_y
	_atom_site_fract_z
	H0	H	0.403378	0.818640	0.711791
	H1	H	0.595407	0.148865	0.711714
	H2	H	0.594688	0.817600	0.287758
	H3	H	0.404137	0.148338	0.287843
	H4	H	0.712533	0.384501	0.835731
	H5	H	0.716428	0.584387	0.164261
	H6	H	0.286245	0.583100	0.835776
	H7	H	0.285611	0.383320	0.164733
	H8	H	0.837340	0.698676	0.400333
	H9	H	0.162091	0.698816	0.598193
	H10	H	0.837200	0.267047	0.598810
	H11	H	0.162232	0.268421	0.399942
	H12	H	0.835790	0.385528	0.712605
	H13	H	0.162611	0.582594	0.714184
	H14	H	0.836106	0.580784	0.284893
	H15	H	0.163554	0.387820	0.286551
	H16	H	0.404952	0.694382	0.834620
	H17	H	0.599322	0.697821	0.165745
	H18	H	0.595652	0.272749	0.834818
	H19	H	0.401964	0.270036	0.165217
	H20	H	0.715192	0.819387	0.400103
	H21	H	0.715692	0.146446	0.601571
	H22	H	0.283968	0.819755	0.600708
	H23	H	0.284722	0.146550	0.398749
	H24	H	0.902167	0.318396	0.212152
	H25	H	0.096803	0.648738	0.211735
	H26	H	0.095079	0.318781	0.786736
	H27	H	0.905014	0.649289	0.787895
	H28	H	0.213401	0.883910	0.335960
	H29	H	0.215515	0.083946	0.664599
	H30	H	0.784187	0.083640	0.336373
	H31	H	0.785097	0.882974	0.664753
	H32	H	0.336549	0.197582	0.901399
	H33	H	0.662094	0.200320	0.100252
	H34	H	0.336225	0.767590	0.097835
	H35	H	0.663257	0.770378	0.902220
	H36	H	0.334985	0.885405	0.212377
	H37	H	0.662364	0.082044	0.215311
	H38	H	0.335789	0.078861	0.786602
	H39	H	0.663510	0.888061	0.786498
	H40	H	0.903676	0.194257	0.334469
	H41	H	0.098435	0.197074	0.664954
	H42	H	0.096377	0.772726	0.334414
	H43	H	0.902703	0.770638	0.665423
	H44	H	0.214638	0.319768	0.899809
	H45	H	0.215435	0.647285	0.099578
	H46	H	0.782907	0.320205	0.100070
	H47	H	0.784111	0.647140	0.897745
	H48	H	0.409020	0.101714	0.598385
	H49	H	0.593175	0.864437	0.595686
	H50	H	0.592839	0.096814	0.417186
	H51	H	0.418587	0.870031	0.408101
	H52	H	0.589318	0.390868	0.118000
	H53	H	0.598842	0.575549	0.881526
	H54	H	0.406778	0.576664	0.119037
	H55	H	0.409251	0.389858	0.882565
	H56	H	0.116694	0.588521	0.411883
	H57	H	0.880902	0.586026	0.591740
	H58	H	0.111810	0.396360	0.585478
	H59	H	0.883433	0.391596	0.402422
	H60	H	0.117305	0.392998	0.602399
	H61	H	0.886780	0.573158	0.585769
	H62	H	0.112067	0.569063	0.409564
	H63	H	0.882649	0.385229	0.406406
	H64	H	0.405793	0.576102	0.118952
	H65	H	0.589109	0.572967	0.885104
	H66	H	0.595130	0.390651	0.120020
	H67	H	0.403109	0.388357	0.880798
	H68	H	0.601114	0.102924	0.405176
	H69	H	0.591042	0.866568	0.592307
	H70	H	0.409404	0.098248	0.586729
	H71	H	0.396221	0.866868	0.419225
	H72	H	0.896782	0.600995	0.082487
	H73	H	0.094090	0.366451	0.089816
	H74	H	0.087289	0.595551	0.917441
	H75	H	0.907915	0.367852	0.906279
	H76	H	0.095895	0.891471	0.619266
	H77	H	0.100679	0.075131	0.381297
	H78	H	0.915567	0.071159	0.614865
	H79	H	0.899859	0.891784	0.379731
	H80	H	0.614857	0.079605	0.912628
	H81	H	0.384185	0.070747	0.096926
	H82	H	0.618985	0.881606	0.096576
	H83	H	0.380673	0.881405	0.903490
	H84	H	0.611658	0.892446	0.084249
	H85	H	0.380112	0.083095	0.096121
	H86	H	0.614812	0.073420	0.903161
	H87	H	0.385237	0.888359	0.912966
	H88	H	0.906729	0.085503	0.621301
	H89	H	0.089215	0.069183	0.384979
	H90	H	0.092494	0.893170	0.618119
	H91	H	0.908234	0.898904	0.385567
	H92	H	0.107580	0.604218	0.909549
	H93	H	0.095087	0.365041	0.093348
	H94	H	0.907034	0.605138	0.103435
	H95	H	0.903337	0.366502	0.911096
	H96	H	0.399254	0.102968	0.591852
	H97	H	0.595527	0.865307	0.591972
	H98	H	0.585544	0.099496	0.402923
	H99	H	0.398968	0.860531	0.394234
	H100	H	0.593205	0.395836	0.116845
	H101	H	0.591065	0.582698	0.880975
	H102	H	0.406948	0.575048	0.118376
	H103	H	0.405215	0.394005	0.882535
	H104	H	0.119607	0.580154	0.394268
	H105	H	0.881856	0.573057	0.600418
	H106	H	0.118147	0.380635	0.590692
	H107	H	0.884894	0.390361	0.409869
	H108	H	0.918682	0.594726	0.085547
	H109	H	0.090852	0.366320	0.093334
	H110	H	0.089343	0.603053	0.895278
	H111	H	0.902514	0.364980	0.904624
	H112	H	0.092651	0.889056	0.619098
	H113	H	0.088743	0.082298	0.381065
	H114	H	0.898318	0.069226	0.619150
	H115	H	0.910618	0.886376	0.381804
	H116	H	0.618373	0.084071	0.902767
	H117	H	0.385837	0.076992	0.085056
	H118	H	0.615579	0.898514	0.100573
	H119	H	0.383613	0.893483	0.901737
	C120	C	0.377733	-0.007801	0.620973
	C121	C	0.621074	0.974521	0.621731
	C122	C	0.620942	-0.008786	0.379369
	C123	C	0.377235	0.974466	0.378401
	C124	C	0.620343	0.363640	0.009105
	C125	C	0.621987	0.605867	0.991664
	C126	C	0.379092	0.604201	0.009408
	C127	C	0.377483	0.361644	0.991241
	C128	C	0.008173	0.606826	0.376818
	C129	C	0.990907	0.605744	0.621129
	C130	C	0.008105	0.361318	0.621678
	C131	C	0.991512	0.361507	0.377897
	C132	C	0.878413	0.491880	0.120123
	C133	C	0.121575	0.474800	0.120938
	C134	C	0.121902	0.492212	0.878167
	C135	C	0.877307	0.475273	0.878153
	C136	C	0.121050	0.863288	0.509220
	C137	C	0.121351	0.104635	0.491416
	C138	C	0.878776	0.104213	0.509230
	C139	C	0.878041	0.862209	0.491500
	C140	C	0.507961	0.105951	0.878117
	C141	C	0.490979	0.105839	0.121777
	C142	C	0.507485	0.861701	0.121676
	C143	C	0.491369	0.860934	0.877819
	C144	C	0.381578	0.868011	0.675157
	C145	C	0.616787	0.099246	0.675049
	C146	C	0.616445	0.867060	0.324907
	C147	C	0.381842	0.098801	0.324135
	C148	C	0.674806	0.365233	0.884848
	C149	C	0.677911	0.604146	0.115442
	C150	C	0.324559	0.602288	0.884799
	C151	C	0.322758	0.363203	0.115410
	C152	C	0.885917	0.661348	0.379430
	C153	C	0.113627	0.660887	0.618735
	C154	C	0.885567	0.305258	0.619443
	C155	C	0.114026	0.307099	0.380384
	C156	C	0.884871	0.364245	0.675806
	C157	C	0.113940	0.603301	0.676135
	C158	C	0.885135	0.602661	0.322068
	C159	C	0.114659	0.365852	0.323734
	C160	C	0.383348	0.657672	0.884083
	C161	C	0.619705	0.660574	0.116152
	C162	C	0.616819	0.309372	0.884482
	C163	C	0.380684	0.306899	0.115591
	C164	C	0.676080	0.867787	0.380921
	C165	C	0.676965	0.097896	0.620876
	C166	C	0.322452	0.868754	0.619804
	C167	C	0.322803	0.097908	0.379554
	C168	C	0.881232	0.367749	0.174773
	C169	C	0.117994	0.599176	0.174937
	C170	C	0.116903	0.368122	0.823883
	C171	C	0.882450	0.599618	0.824418
	C172	C	0.175383	0.864587	0.384816
	C173	C	0.177244	0.103504	0.615369
	C174	C	0.823130	0.102511	0.385229
	C175	C	0.823229	0.863484	0.615750
	C176	C	0.385142	0.160002	0.880614
	C177	C	0.613481	0.162025	0.120602
	C178	C	0.384581	0.806038	0.118372
	C179	C	0.614444	0.807691	0.881267
	C180	C	0.384056	0.864387	0.175434
	C181	C	0.613635	0.102966	0.177520
	C182	C	0.384811	0.101370	0.823464
	C183	C	0.614676	0.866129	0.823857
	C184	C	0.882157	0.157788	0.384372
	C185	C	0.119057	0.159670	0.615498
	C186	C	0.116907	0.809348	0.384305
	C187	C	0.881421	0.807355	0.615748
	C188	C	0.176409	0.368596	0.879834
	C189	C	0.177328	0.598302	0.119485
	C190	C	0.821848	0.368781	0.119446
	C191	C	0.822508	0.598500	0.879157
	C192	C	0.399413	0.078724	0.598685
	C193	C	0.599510	0.887846	0.599771
	C194	C	0.599599	0.077431	0.401902
	C195	C	0.398391	0.888177	0.400675
	C196	C	0.598816	0.385888	0.096159
	C197	C	0.599642	0.583611	0.904885
	C198	C	0.400217	0.582407	0.096227
	C199	C	0.399372	0.384028	0.904381
	C200	C	0.093993	0.585513	0.398669
	C201	C	0.905160	0.583663	0.599098
	C202	C	0.093509	0.383362	0.599224
	C203	C	0.905872	0.382868	0.399597
	C204	C	0.900893	0.577915	0.097284
	C205	C	0.099805	0.388405	0.098732
	C206	C	0.100984	0.578542	0.900682
	C207	C	0.898296	0.388782	0.900772
	C208	C	0.099927	0.884983	0.596327
	C209	C	0.099334	0.082065	0.404785
	C210	C	0.900519	0.081986	0.596018
	C211	C	0.899828	0.885490	0.404698
	C212	C	0.593739	0.084973	0.899804
	C213	C	0.405488	0.083553	0.099186
	C214	C	0.593197	0.884157	0.100083
	C215	C	0.405453	0.881580	0.899528
	Zn216	Zn	0.499551	-0.016303	0.748925
	Zn217	Zn	0.498900	-0.017103	0.250767
	Zn218	Zn	0.748806	0.483751	-0.000045
	Zn219	Zn	0.250839	0.483545	0.000365
	Zn220	Zn	-0.000167	0.735590	0.500133
	Zn221	Zn	-0.000229	0.232344	0.499843
	Zn222	Zn	-0.000627	0.484167	0.750050
	Zn223	Zn	-0.000125	0.483320	0.248621
	Zn224	Zn	0.500014	0.732346	0.000620
	Zn225	Zn	0.499737	0.235267	-0.000142
	Zn226	Zn	0.750038	-0.016883	0.500962
	Zn227	Zn	0.249260	-0.016701	0.500137
	N228	N	0.415332	0.945784	0.676075
	N229	N	0.582900	0.021449	0.675940
	N230	N	0.582799	0.944695	0.323974
	N231	N	0.415079	0.021008	0.323155
	N232	N	0.676974	0.398297	0.963384
	N233	N	0.679441	0.570879	0.037019
	N234	N	0.321809	0.569690	0.963555
	N235	N	0.320889	0.396635	0.037071
	N236	N	0.963331	0.664131	0.412585
	N237	N	0.036212	0.662620	0.585296
	N238	N	0.963097	0.303138	0.586621
	N239	N	0.036443	0.303996	0.413079
	N240	N	0.961957	0.398445	0.677470
	N241	N	0.036674	0.569498	0.677702
	N242	N	0.962444	0.569512	0.320139
	N243	N	0.037561	0.399248	0.322120
	N244	N	0.416778	0.658810	0.962335
	N245	N	0.585741	0.661577	0.038070
	N246	N	0.583555	0.308256	0.962729
	N247	N	0.414332	0.306186	0.037418
	N248	N	0.679082	0.946038	0.413831
	N249	N	0.679618	0.019524	0.588319
	N250	N	0.320133	0.946986	0.586703
	N251	N	0.319930	0.019711	0.412635
	N252	N	0.915740	0.445266	0.175441
	N253	N	0.084090	0.521391	0.175911
	N254	N	0.083657	0.445855	0.822754
	N255	N	0.915853	0.522012	0.823669
	N256	N	0.178053	0.897502	0.463378
	N257	N	0.178795	0.069832	0.537122
	N258	N	0.820865	0.069738	0.463888
	N259	N	0.820843	0.896938	0.537277
	N260	N	0.462690	0.163299	0.913487
	N261	N	0.536354	0.163790	0.086465
	N262	N	0.462270	0.804126	0.086090
	N263	N	0.536928	0.804429	0.914134
	N264	N	0.461472	0.898280	0.177702
	N265	N	0.536505	0.068857	0.178522
	N266	N	0.461994	0.068229	0.821998
	N267	N	0.537066	0.898482	0.821465
	N268	N	0.916267	0.158493	0.462361
	N269	N	0.084916	0.160408	0.537553
	N270	N	0.083830	0.808361	0.462681
	N271	N	0.914640	0.806768	0.537441
	N272	N	0.179773	0.446861	0.912916
	N273	N	0.179514	0.520091	0.086387
	N274	N	0.819867	0.447088	0.086275
	N275	N	0.819161	0.520033	0.911988
	O276	O	0.992265	0.986981	0.039168
	H277	H	0.996241	0.994425	0.045543
	H278	H	0.985971	0.993472	0.037472
	O279	O	0.026084	-0.036539	0.002592
	H280	H	0.030643	-0.035415	0.008239
	H281	H	0.028051	-0.030299	-0.001969
	O282	O	0.002120	-0.120206	1.063290
	H283	H	-0.000164	-0.117051	1.055988
	H284	H	-0.008690	-0.130146	1.065717
	O285	O	1.498620	1.469891	0.493591
	H286	H	1.507467	1.464642	0.499056
	H287	H	1.502074	1.475400	0.497130
	O288	O	-0.022518	1.018207	0.065506
	H289	H	-0.017039	1.024468	0.074215
	H290	H	-0.032147	1.005094	0.061533
	O291	O	0.511680	0.435747	0.508383
	H292	H	0.521927	0.440033	0.513935
	H293	H	0.510446	0.426352	0.499877
	O294	O	-0.073459	0.019384	0.062477
	H295	H	-0.066879	0.019841	0.061118
	H296	H	-0.077662	0.012849	0.068759
	O297	O	-0.043634	0.923725	1.043376
	H298	H	-0.040164	0.926211	1.034531
	H299	H	-0.044362	0.921643	1.049005
	O300	O	-0.045590	1.011606	1.036205
	H301	H	-0.045056	1.012579	1.029739
	H302	H	-0.039868	1.005860	1.036798
	O303	O	0.481627	0.486872	0.549562
	H304	H	0.473238	0.494394	0.558360
	H305	H	0.483771	0.482305	0.555045
	O306	O	-0.042047	0.025670	1.059723
	H307	H	-0.045141	0.024382	1.061356
	H308	H	-0.036925	0.031283	1.069663
	O309	O	0.894509	0.986137	1.003499
	H310	H	0.895695	0.988894	1.008103
	H311	H	0.889405	0.974898	1.004878
	O312	O	0.492644	0.478595	0.525009
	H313	H	0.492974	0.481085	0.533156
	H314	H	0.482345	0.480230	0.521823
	O315	O	0.524966	0.469050	0.509355
	H316	H	0.524638	0.460844	0.501909
	H317	H	0.525499	0.468302	0.503816
	O318	O	0.528381	1.496932	-0.517947
	H319	H	0.524547	1.494826	-0.511590
	H320	H	0.525326	1.506514	-0.526248
	O321	O	0.989235	0.979219	0.015982
	H322	H	0.992459	0.981856	0.012404
	H323	H	0.988963	0.976588	0.021632
