data_Molecule from HDF5

_cell_length_a		16.418604
_cell_length_b		16.173519
_cell_length_c		16.121867
_cell_angle_alpha	89.200587
_cell_angle_beta	89.535923
_cell_angle_gamma	90.538004
_symmetry_space_group_name_H-M	'P 1'
_symmetry_Int_Tables_number		1

loop_
	_symmetry_equiv_pos_as_xyz
	x,y,z

loop_
	_atom_site_label
	_atom_site_type_symbol
	_atom_site_fract_x
	_atom_site_fract_y
	_atom_site_fract_z
	H0	H	0.399533	0.835110	0.718664
	H1	H	0.600892	0.163437	0.710166
	H2	H	0.598535	0.832280	0.287614
	H3	H	0.404432	0.160929	0.282703
	H4	H	0.718417	0.394998	0.839181
	H5	H	0.715868	0.600654	0.163517
	H6	H	0.284015	0.601997	0.836835
	H7	H	0.277112	0.391050	0.163627
	H8	H	0.838145	0.715511	0.398112
	H9	H	0.161434	0.714019	0.596845
	H10	H	0.839370	0.274550	0.605393
	H11	H	0.162362	0.286151	0.397008
	H12	H	0.838547	0.390481	0.722073
	H13	H	0.160983	0.596932	0.713045
	H14	H	0.836026	0.599105	0.284176
	H15	H	0.159493	0.402397	0.281004
	H16	H	0.401168	0.714958	0.837114
	H17	H	0.594411	0.707634	0.167632
	H18	H	0.596667	0.289354	0.835056
	H19	H	0.394516	0.277430	0.164266
	H20	H	0.716416	0.834038	0.398045
	H21	H	0.721539	0.158635	0.602079
	H22	H	0.279023	0.836264	0.607268
	H23	H	0.284454	0.160190	0.392544
	H24	H	0.896096	0.334149	0.218044
	H25	H	0.092427	0.663738	0.206319
	H26	H	0.096129	0.332959	0.789023
	H27	H	0.902334	0.661215	0.783224
	H28	H	0.218832	0.898034	0.336265
	H29	H	0.217985	0.100571	0.662358
	H30	H	0.786359	0.099786	0.335062
	H31	H	0.781109	0.889746	0.662999
	H32	H	0.337485	0.214179	0.899244
	H33	H	0.660290	0.217284	0.099119
	H34	H	0.337405	0.778224	0.105609
	H35	H	0.661632	0.783678	0.901606
	H36	H	0.338371	0.894867	0.220285
	H37	H	0.663526	0.096554	0.211488
	H38	H	0.339040	0.099319	0.782753
	H39	H	0.662785	0.902340	0.785643
	H40	H	0.906116	0.212701	0.334736
	H41	H	0.099474	0.210493	0.664430
	H42	H	0.096387	0.789697	0.332245
	H43	H	0.899123	0.778052	0.662933
	H44	H	0.214903	0.334841	0.899265
	H45	H	0.217710	0.659043	0.102893
	H46	H	0.777699	0.335514	0.106709
	H47	H	0.783475	0.660483	0.894936
	H48	H	0.403731	0.118403	0.595775
	H49	H	0.585254	0.880407	0.599500
	H50	H	0.597126	0.113862	0.408686
	H51	H	0.412324	0.880770	0.409500
	H52	H	0.584509	0.410550	0.116359
	H53	H	0.594343	0.584888	0.885039
	H54	H	0.402064	0.588277	0.120339
	H55	H	0.406017	0.407901	0.883702
	H56	H	0.113869	0.596916	0.408896
	H57	H	0.885857	0.588827	0.584388
	H58	H	0.117868	0.399378	0.596230
	H59	H	0.881904	0.400155	0.407796
	H60	H	0.112083	0.405213	0.586449
	H61	H	0.885883	0.580421	0.592378
	H62	H	0.113194	0.586297	0.401917
	H63	H	0.885403	0.403024	0.417191
	H64	H	0.402861	0.581510	0.118438
	H65	H	0.584865	0.592272	0.885501
	H66	H	0.585468	0.404873	0.118329
	H67	H	0.404464	0.409495	0.883460
	H68	H	0.595722	0.114665	0.404864
	H69	H	0.587597	0.883213	0.586851
	H70	H	0.416706	0.112922	0.589469
	H71	H	0.408687	0.884154	0.420272
	H72	H	0.905227	0.610952	0.077240
	H73	H	0.086759	0.380330	0.092154
	H74	H	0.088535	0.612886	0.908532
	H75	H	0.904061	0.380619	0.912543
	H76	H	0.091349	0.910331	0.615068
	H77	H	0.096353	0.084686	0.382617
	H78	H	0.900594	0.085222	0.619374
	H79	H	0.905035	0.895645	0.376946
	H80	H	0.612243	0.088051	0.907576
	H81	H	0.384527	0.085551	0.094502
	H82	H	0.612615	0.904610	0.086600
	H83	H	0.383585	0.903594	0.908045
	H84	H	0.615263	0.908390	0.099850
	H85	H	0.385030	0.088904	0.090566
	H86	H	0.618386	0.095874	0.897298
	H87	H	0.385919	0.905312	0.914523
	H88	H	0.910486	0.075031	0.612726
	H89	H	0.087683	0.092220	0.384005
	H90	H	0.085707	0.903525	0.615236
	H91	H	0.896783	0.914846	0.381151
	H92	H	0.095312	0.615171	0.909670
	H93	H	0.086993	0.380488	0.090594
	H94	H	0.892355	0.621049	0.094681
	H95	H	0.908060	0.381529	0.913564
	H96	H	0.403789	0.114215	0.579832
	H97	H	0.596898	0.878658	0.593661
	H98	H	0.593293	0.113675	0.407200
	H99	H	0.402273	0.879079	0.412459
	H100	H	0.590214	0.407950	0.117679
	H101	H	0.595406	0.596702	0.880989
	H102	H	0.407693	0.586436	0.117884
	H103	H	0.406706	0.410733	0.884492
	H104	H	0.117985	0.597097	0.395975
	H105	H	0.881932	0.590906	0.595497
	H106	H	0.113772	0.411280	0.596682
	H107	H	0.885520	0.410089	0.409582
	H108	H	0.914895	0.615090	0.098506
	H109	H	0.088349	0.380145	0.091951
	H110	H	0.092057	0.616329	0.903081
	H111	H	0.905153	0.381891	0.916376
	H112	H	0.093046	0.902170	0.618339
	H113	H	0.098496	0.095932	0.379424
	H114	H	0.915297	0.090268	0.615846
	H115	H	0.916782	0.910794	0.386319
	H116	H	0.616217	0.101401	0.911023
	H117	H	0.386882	0.083699	0.090455
	H118	H	0.619084	0.894550	0.095659
	H119	H	0.385938	0.910521	0.910063
	C120	C	0.377416	0.007637	0.621537
	C121	C	0.621069	0.989139	0.621024
	C122	C	0.622809	0.005468	0.378550
	C123	C	0.379519	0.988830	0.380198
	C124	C	0.617567	0.378751	0.009412
	C125	C	0.620168	0.619501	0.992479
	C126	C	0.376245	0.617859	0.010107
	C127	C	0.375039	0.376342	0.991961
	C128	C	0.007646	0.621906	0.374677
	C129	C	0.991225	0.617685	0.619866
	C130	C	0.008207	0.373326	0.624404
	C131	C	0.991045	0.377099	0.379536
	C132	C	0.874131	0.507616	0.122702
	C133	C	0.117428	0.488748	0.120107
	C134	C	0.120500	0.506496	0.878674
	C135	C	0.877411	0.488840	0.880798
	C136	C	0.120316	0.877343	0.507513
	C137	C	0.123370	0.120104	0.490519
	C138	C	0.880162	0.116108	0.507949
	C139	C	0.876937	0.874753	0.490123
	C140	C	0.508487	0.123197	0.876252
	C141	C	0.491933	0.117793	0.121028
	C142	C	0.508507	0.872911	0.125155
	C143	C	0.491892	0.877493	0.880470
	C144	C	0.378563	0.884327	0.680462
	C145	C	0.620974	0.113337	0.674395
	C146	C	0.619227	0.881550	0.324718
	C147	C	0.383113	0.111807	0.321003
	C148	C	0.677224	0.378403	0.886948
	C149	C	0.676725	0.618917	0.115391
	C150	C	0.321899	0.619911	0.886219
	C151	C	0.316803	0.373341	0.114845
	C152	C	0.886240	0.677310	0.377898
	C153	C	0.112964	0.675068	0.617379
	C154	C	0.887526	0.313840	0.625020
	C155	C	0.113283	0.323378	0.378565
	C156	C	0.887014	0.371458	0.683382
	C157	C	0.112701	0.617095	0.675471
	C158	C	0.885243	0.619252	0.321239
	C159	C	0.111841	0.381190	0.320587
	C160	C	0.380108	0.676304	0.886361
	C161	C	0.616460	0.672456	0.117320
	C162	C	0.616653	0.325264	0.885136
	C163	C	0.375111	0.316808	0.115233
	C164	C	0.677728	0.882467	0.380076
	C165	C	0.681005	0.110869	0.620342
	C166	C	0.318627	0.884852	0.625082
	C167	C	0.323460	0.111352	0.375768
	C168	C	0.875361	0.383699	0.180347
	C169	C	0.114278	0.613608	0.171853
	C170	C	0.117160	0.382569	0.825188
	C171	C	0.880971	0.611955	0.821525
	C172	C	0.178550	0.879242	0.384446
	C173	C	0.179412	0.119172	0.613637
	C174	C	0.824924	0.117861	0.384115
	C175	C	0.819915	0.872034	0.613744
	C176	C	0.386284	0.176933	0.878837
	C177	C	0.612674	0.177206	0.118981
	C178	C	0.386243	0.816445	0.125150
	C179	C	0.613472	0.822325	0.881989
	C180	C	0.386606	0.874619	0.182259
	C181	C	0.614343	0.116974	0.174884
	C182	C	0.387023	0.120029	0.820690
	C183	C	0.613809	0.881260	0.824058
	C184	C	0.884103	0.174457	0.384047
	C185	C	0.120605	0.174088	0.614727
	C186	C	0.117866	0.825283	0.382379
	C187	C	0.878909	0.816735	0.613993
	C188	C	0.176344	0.383599	0.880091
	C189	C	0.176517	0.611224	0.120113
	C190	C	0.816663	0.384353	0.124899
	C191	C	0.822113	0.611843	0.877495
	C192	C	0.401218	0.093077	0.595848
	C193	C	0.597026	0.903220	0.599556
	C194	C	0.601572	0.091856	0.400349
	C195	C	0.401452	0.903497	0.406345
	C196	C	0.593710	0.401238	0.095321
	C197	C	0.598096	0.597787	0.906463
	C198	C	0.397715	0.592686	0.096496
	C199	C	0.398857	0.401971	0.906250
	C200	C	0.092872	0.599976	0.396116
	C201	C	0.906455	0.593774	0.597421
	C202	C	0.092693	0.398164	0.600144
	C203	C	0.906286	0.398278	0.404273
	C204	C	0.897306	0.593501	0.097667
	C205	C	0.094351	0.402683	0.098102
	C206	C	0.098348	0.592473	0.900665
	C207	C	0.899066	0.403455	0.906705
	C208	C	0.096819	0.898902	0.593919
	C209	C	0.100935	0.097800	0.404409
	C210	C	0.902222	0.090830	0.593737
	C211	C	0.899409	0.899498	0.403798
	C212	C	0.593642	0.101828	0.898595
	C213	C	0.407482	0.093244	0.098470
	C214	C	0.593534	0.895773	0.101150
	C215	C	0.407062	0.899896	0.904049
	Zn216	Zn	0.500188	0.000119	0.749106
	Zn217	Zn	0.501243	-0.003822	0.251984
	Zn218	Zn	0.747309	0.498375	0.000975
	Zn219	Zn	0.247087	0.497385	0.000621
	Zn220	Zn	-0.000233	0.748432	0.498115
	Zn221	Zn	0.001353	0.246075	0.500707
	Zn222	Zn	-0.000942	0.496915	0.751440
	Zn223	Zn	-0.003046	0.498439	0.248650
	Zn224	Zn	0.498539	0.745881	0.002055
	Zn225	Zn	0.497994	0.249688	-0.000161
	Zn226	Zn	0.749845	-0.003917	0.499676
	Zn227	Zn	0.249358	-0.001690	0.499555
	N228	N	0.414223	0.961581	0.678516
	N229	N	0.584056	0.036649	0.674797
	N230	N	0.585564	0.959125	0.323807
	N231	N	0.417352	0.034540	0.323735
	N232	N	0.677884	0.411086	0.965281
	N233	N	0.679444	0.586882	0.036816
	N234	N	0.319508	0.584229	0.964076
	N235	N	0.316484	0.409379	0.037031
	N236	N	0.963266	0.678930	0.410562
	N237	N	0.036289	0.675465	0.583452
	N238	N	0.963969	0.314743	0.589511
	N239	N	0.037058	0.320753	0.414704
	N240	N	0.963123	0.407737	0.683089
	N241	N	0.036038	0.582036	0.677015
	N242	N	0.961860	0.585605	0.318847
	N243	N	0.034799	0.413840	0.320993
	N244	N	0.413156	0.675334	0.964536
	N245	N	0.581849	0.672966	0.039984
	N246	N	0.580159	0.325395	0.962179
	N247	N	0.410661	0.318488	0.037798
	N248	N	0.680006	0.960501	0.412891
	N249	N	0.681031	0.032768	0.587694
	N250	N	0.317704	0.962441	0.589212
	N251	N	0.321150	0.033922	0.411947
	N252	N	0.909953	0.461412	0.179433
	N253	N	0.078107	0.536402	0.171815
	N254	N	0.083117	0.459977	0.824206
	N255	N	0.914751	0.534384	0.823450
	N256	N	0.180206	0.910683	0.463259
	N257	N	0.181217	0.086430	0.535332
	N258	N	0.822315	0.082573	0.462288
	N259	N	0.818506	0.907188	0.535646
	N260	N	0.462970	0.179159	0.912355
	N261	N	0.535490	0.177819	0.086250
	N262	N	0.462986	0.815163	0.090653
	N263	N	0.536426	0.819848	0.916231
	N264	N	0.463721	0.908905	0.182489
	N265	N	0.538277	0.080637	0.176452
	N266	N	0.464079	0.087596	0.818800
	N267	N	0.537069	0.914761	0.822864
	N268	N	0.917551	0.173634	0.461863
	N269	N	0.086453	0.174857	0.537094
	N270	N	0.082229	0.823957	0.459879
	N271	N	0.913605	0.818143	0.536044
	N272	N	0.178548	0.461752	0.912491
	N273	N	0.178460	0.532734	0.088521
	N274	N	0.815557	0.462499	0.090105
	N275	N	0.819867	0.534483	0.913861
	O276	O	0.981480	0.067299	0.889305
	H277	H	0.991221	0.074278	0.894045
	H278	H	0.968372	0.065174	0.885863
	O279	O	0.463868	0.338584	0.687756
	H280	H	0.461944	0.328014	0.687212
	H281	H	0.465175	0.336952	0.702589
	O282	O	0.383734	0.587164	0.626403
	H283	H	0.387085	0.589644	0.622222
	H284	H	0.389482	0.578623	0.624410
	O285	O	0.639479	0.460040	0.565116
	H286	H	0.651055	0.477749	0.555288
	H287	H	0.641083	0.459690	0.569596
	O288	O	0.657644	0.464825	0.505086
	H289	H	0.664469	0.476498	0.512392
	H290	H	0.672754	0.468566	0.494092
	O291	O	-0.010675	0.016363	0.985828
	H292	H	-0.019179	0.021500	0.993815
	H293	H	-0.004911	0.004936	0.993331
	O294	O	0.958100	0.941447	-0.066647
	H295	H	0.974136	0.935308	-0.064165
	H296	H	0.951345	0.942115	-0.075874
	O297	O	1.035363	0.983361	0.066502
	H298	H	1.037502	0.987346	0.064857
	H299	H	1.037288	0.979586	0.058998
	O300	O	0.641921	0.637137	0.655167
	H301	H	0.629050	0.637169	0.657221
	H302	H	0.652758	0.650271	0.663565
	O303	O	0.399553	0.368211	0.578092
	H304	H	0.394061	0.356463	0.586903
	H305	H	0.392087	0.377643	0.578974
	O306	O	0.641514	0.474959	0.390361
	H307	H	0.662567	0.474340	0.361688
	H308	H	0.633032	0.458136	0.397428
	O309	O	0.501605	0.531952	0.583010
	H310	H	0.499472	0.530925	0.568597
	H311	H	0.490502	0.531310	0.578896
	O312	O	0.993453	1.099333	0.983638
	H313	H	0.993829	1.111019	0.983550
	H314	H	0.999242	1.096302	0.987804
	O315	O	0.980690	0.921579	0.013981
	H316	H	0.981407	0.904218	0.010630
	H317	H	0.984567	0.929370	0.015152
	O318	O	0.507603	0.637110	0.439538
	H319	H	0.510172	0.640307	0.440687
	H320	H	0.514066	0.658489	0.448736
	O321	O	0.590019	0.465777	0.545901
	H322	H	0.583175	0.456328	0.545553
	H323	H	0.591042	0.460184	0.544895
	O324	O	-0.505101	1.588668	0.476874
	H325	H	-0.518117	1.584750	0.473507
	H326	H	-0.505962	1.577811	0.469280
	O327	O	-0.609079	1.455657	1.456278
	H328	H	-0.603170	1.455893	1.443572
	H329	H	-0.620729	1.455701	1.469629
	O330	O	0.043956	-0.061980	-0.065314
	H331	H	0.033503	-0.073768	-0.071728
	H332	H	0.044661	-0.054460	-0.051468
	O333	O	0.565720	0.426737	0.393683
	H334	H	0.567754	0.418467	0.400339
	H335	H	0.555459	0.423790	0.396635
	O336	O	-0.006126	-0.080447	0.058910
	H337	H	-0.007060	-0.094679	0.057816
	H338	H	-0.007918	-0.085720	0.054640
	O339	O	0.083790	0.057652	0.029708
	H340	H	0.090006	0.055967	0.034837
	H341	H	0.082397	0.051894	0.037150
	O342	O	0.474070	0.482937	0.537643
	H343	H	0.477059	0.476755	0.540208
	H344	H	0.467892	0.486791	0.527735
	O345	O	-0.019459	1.027804	1.029336
	H346	H	-0.019236	1.015801	1.026486
	H347	H	-0.016325	1.028461	1.027131
	O348	O	0.505967	0.497939	0.447281
	H349	H	0.502558	0.500381	0.442585
	H350	H	0.499551	0.478473	0.452194
	O351	O	0.389784	0.565232	0.434550
	H352	H	0.400110	0.555921	0.427100
	H353	H	0.401791	0.559448	0.435939
	O354	O	-0.074757	0.874387	0.044089
	H355	H	-0.069722	0.869693	0.040289
	H356	H	-0.070081	0.874678	0.040048
	O357	O	0.397849	0.551058	0.427015
	H358	H	0.401418	0.547747	0.423665
	H359	H	0.393511	0.564700	0.434883
	O360	O	0.945639	-0.028231	1.022255
	H361	H	0.946041	-0.031095	1.023905
	H362	H	0.944594	-0.033775	1.032104
	O363	O	0.545893	0.407972	0.449766
	H364	H	0.545600	0.402433	0.460837
	H365	H	0.539005	0.416719	0.453306
	O366	O	0.593518	0.612471	0.474393
	H367	H	0.597653	0.611961	0.480296
	H368	H	0.586691	0.605519	0.470212
	O369	O	1.106613	0.104360	0.073383
	H370	H	1.109449	0.111012	0.083434
	H371	H	1.108524	0.113432	0.064415
	O372	O	0.483751	0.552036	0.469551
	H373	H	0.478396	0.548433	0.468153
	H374	H	0.485972	0.541078	0.466730
	O375	O	1.069645	-0.028586	1.013185
	H376	H	1.084882	-0.027438	1.004255
	H377	H	1.069882	-0.021010	1.013702
	O378	O	-0.007676	1.079239	0.002591
	H379	H	-0.013566	1.070456	0.007535
	H380	H	-0.009031	1.079126	-0.006046
	O381	O	0.507522	0.339017	0.443641
	H382	H	0.517610	0.353643	0.442755
	H383	H	0.504263	0.336309	0.436251
	O384	O	1.057154	0.939561	-0.111035
	H385	H	1.054173	0.957016	-0.117885
	H386	H	1.061343	0.927806	-0.119644
	O387	O	0.963643	0.025367	0.866418
	H388	H	0.955018	0.026250	0.877440
	H389	H	0.956171	0.029611	0.857050
	O390	O	1.056287	0.969669	0.012269
	H391	H	1.046241	0.965293	0.025139
	H392	H	1.067798	0.985453	-0.004276
	O393	O	0.357018	0.395376	0.579646
	H394	H	0.363460	0.393877	0.586110
	H395	H	0.362327	0.396779	0.574827
