data_Molecule from HDF5

_cell_length_a		16.511879
_cell_length_b		16.466353
_cell_length_c		16.318026
_cell_angle_alpha	90.206400
_cell_angle_beta	89.978139
_cell_angle_gamma	90.124357
_symmetry_space_group_name_H-M	'P 1'
_symmetry_Int_Tables_number		1

loop_
	_symmetry_equiv_pos_as_xyz
	x,y,z

loop_
	_atom_site_label
	_atom_site_type_symbol
	_atom_site_fract_x
	_atom_site_fract_y
	_atom_site_fract_z
	H0	H	0.390035	0.848161	0.739851
	H1	H	0.599330	0.165395	0.738656
	H2	H	0.601657	0.848685	0.294692
	H3	H	0.388913	0.163116	0.295922
	H4	H	0.717158	0.397397	0.860752
	H5	H	0.717730	0.614410	0.177201
	H6	H	0.269490	0.614863	0.862132
	H7	H	0.271026	0.398106	0.176485
	H8	H	0.839908	0.730428	0.410465
	H9	H	0.152053	0.730774	0.627640
	H10	H	0.839763	0.281422	0.625690
	H11	H	0.152161	0.281357	0.408947
	H12	H	0.838508	0.398786	0.741063
	H13	H	0.153726	0.611469	0.741003
	H14	H	0.837778	0.611354	0.297480
	H15	H	0.152944	0.400889	0.295131
	H16	H	0.387751	0.727882	0.860386
	H17	H	0.604554	0.731730	0.175500
	H18	H	0.599174	0.285476	0.859231
	H19	H	0.386919	0.284008	0.176883
	H20	H	0.718900	0.848848	0.409614
	H21	H	0.719665	0.163616	0.625712
	H22	H	0.270693	0.850322	0.628926
	H23	H	0.269621	0.160922	0.409428
	H24	H	0.889529	0.348365	0.240360
	H25	H	0.101669	0.663529	0.242410
	H26	H	0.099520	0.347600	0.796689
	H27	H	0.893411	0.664238	0.799640
	H28	H	0.219025	0.898082	0.360776
	H29	H	0.218947	0.113908	0.677374
	H30	H	0.773090	0.113812	0.359705
	H31	H	0.773681	0.899718	0.675999
	H32	H	0.338043	0.230284	0.909105
	H33	H	0.651726	0.230975	0.125763
	H34	H	0.340571	0.779304	0.129353
	H35	H	0.650408	0.779870	0.907298
	H36	H	0.339052	0.898718	0.242749
	H37	H	0.653013	0.113244	0.240473
	H38	H	0.338186	0.112596	0.794220
	H39	H	0.652492	0.901101	0.796017
	H40	H	0.888934	0.227732	0.360077
	H41	H	0.103157	0.229614	0.677496
	H42	H	0.104438	0.782151	0.360719
	H43	H	0.892497	0.786914	0.677455
	H44	H	0.218571	0.349148	0.908944
	H45	H	0.222115	0.661841	0.131536
	H46	H	0.769840	0.349799	0.128701
	H47	H	0.773313	0.663173	0.913173
	H48	H	0.409590	0.116218	0.602524
	H49	H	0.592713	0.892520	0.603497
	H50	H	0.586401	0.118779	0.431180
	H51	H	0.403756	0.892864	0.433309
	H52	H	0.582040	0.415809	0.132933
	H53	H	0.586819	0.593956	0.903992
	H54	H	0.406669	0.587949	0.130261
	H55	H	0.402905	0.414682	0.902382
	H56	H	0.106096	0.592586	0.431738
	H57	H	0.882109	0.601479	0.606458
	H58	H	0.106046	0.420584	0.603383
	H59	H	0.884328	0.412069	0.433898
	H60	H	0.108216	0.418817	0.609933
	H61	H	0.885851	0.592172	0.602801
	H62	H	0.108480	0.594588	0.429739
	H63	H	0.886300	0.420754	0.431851
	H64	H	0.413403	0.592230	0.129645
	H65	H	0.583905	0.590386	0.905931
	H66	H	0.585086	0.420590	0.133272
	H67	H	0.404918	0.424013	0.906518
	H68	H	0.585336	0.118465	0.430683
	H69	H	0.585827	0.890401	0.614406
	H70	H	0.405161	0.118359	0.604459
	H71	H	0.409425	0.893038	0.427000
	H72	H	0.909337	0.618166	0.107803
	H73	H	0.082714	0.394890	0.103962
	H74	H	0.086844	0.617326	0.936684
	H75	H	0.911158	0.395222	0.932947
	H76	H	0.079661	0.924587	0.629207
	H77	H	0.079240	0.088984	0.408343
	H78	H	0.902538	0.092192	0.633161
	H79	H	0.904658	0.917339	0.403166
	H80	H	0.605818	0.092720	0.931556
	H81	H	0.381113	0.094192	0.112128
	H82	H	0.604632	0.917398	0.097109
	H83	H	0.386117	0.920269	0.935394
	H84	H	0.604999	0.925531	0.107585
	H85	H	0.381899	0.101758	0.104494
	H86	H	0.608476	0.097507	0.927171
	H87	H	0.382875	0.919491	0.924957
	H88	H	0.911908	0.088557	0.628431
	H89	H	0.082409	0.095760	0.405395
	H90	H	0.080451	0.911690	0.633222
	H91	H	0.909488	0.920784	0.405598
	H92	H	0.084725	0.619852	0.927348
	H93	H	0.083317	0.394160	0.104768
	H94	H	0.904641	0.617427	0.103618
	H95	H	0.899111	0.392668	0.934493
	H96	H	0.409409	0.118352	0.607789
	H97	H	0.581122	0.896689	0.603992
	H98	H	0.585470	0.118135	0.432156
	H99	H	0.411329	0.896295	0.434415
	H100	H	0.580102	0.421309	0.131346
	H101	H	0.582062	0.595412	0.905410
	H102	H	0.406942	0.595486	0.133121
	H103	H	0.412124	0.416888	0.906005
	H104	H	0.107321	0.595612	0.433321
	H105	H	0.882887	0.593023	0.613419
	H106	H	0.108820	0.414219	0.604569
	H107	H	0.881963	0.414961	0.425748
	H108	H	0.903462	0.619958	0.108979
	H109	H	0.082347	0.395440	0.105190
	H110	H	0.077784	0.616315	0.933187
	H111	H	0.904863	0.390732	0.923569
	H112	H	0.091044	0.919715	0.634823
	H113	H	0.087131	0.089024	0.405758
	H114	H	0.911348	0.098778	0.632368
	H115	H	0.910644	0.915207	0.403910
	H116	H	0.607008	0.098817	0.934086
	H117	H	0.385597	0.091818	0.103478
	H118	H	0.610559	0.913251	0.108047
	H119	H	0.381143	0.911451	0.932168
	C120	C	0.374717	0.014192	0.639246
	C121	C	0.618388	0.997713	0.640239
	C122	C	0.618037	0.014761	0.396955
	C123	C	0.374448	0.997488	0.397398
	C124	C	0.615313	0.385605	0.027467
	C125	C	0.617142	0.627562	1.009501
	C126	C	0.374347	0.626179	0.027209
	C127	C	0.373381	0.385112	1.009767
	C128	C	0.004237	0.627837	0.397663
	C129	C	0.987522	0.628385	0.640852
	C130	C	0.004119	0.384567	0.639439
	C131	C	0.987577	0.383369	0.396650
	C132	C	0.872922	0.514676	0.140369
	C133	C	0.116546	0.498006	0.139785
	C134	C	0.116364	0.514338	0.898069
	C135	C	0.873167	0.497016	0.897321
	C136	C	0.117265	0.884773	0.527683
	C137	C	0.117181	0.126439	0.510498
	C138	C	0.875284	0.126392	0.526601
	C139	C	0.875125	0.884931	0.509233
	C140	C	0.503171	0.128490	0.897026
	C141	C	0.486632	0.129204	0.140320
	C142	C	0.503797	0.884721	0.139170
	C143	C	0.486617	0.883713	0.896418
	C144	C	0.371949	0.895966	0.700003
	C145	C	0.619261	0.117156	0.699734
	C146	C	0.620085	0.896126	0.335043
	C147	C	0.370709	0.115570	0.335880
	C148	C	0.676509	0.380869	0.908171
	C149	C	0.677998	0.632015	0.128918
	C150	C	0.310894	0.631669	0.909253
	C151	C	0.312101	0.381150	0.129081
	C152	C	0.886641	0.689504	0.393253
	C153	C	0.105435	0.689488	0.644635
	C154	C	0.886318	0.322804	0.642851
	C155	C	0.105177	0.322023	0.391870
	C156	C	0.885996	0.381200	0.700662
	C157	C	0.106128	0.630081	0.701137
	C158	C	0.885687	0.630038	0.336855
	C159	C	0.105604	0.381364	0.335005
	C160	C	0.369840	0.687870	0.908322
	C161	C	0.621295	0.690438	0.128235
	C162	C	0.617868	0.324902	0.907453
	C163	C	0.369742	0.323903	0.128955
	C164	C	0.678388	0.896194	0.392503
	C165	C	0.678826	0.116525	0.643224
	C166	C	0.312081	0.897009	0.644723
	C167	C	0.311076	0.114349	0.392314
	C168	C	0.870876	0.396185	0.201065
	C169	C	0.120140	0.616151	0.202146
	C170	C	0.118319	0.395309	0.836777
	C171	C	0.872993	0.616523	0.838378
	C172	C	0.178528	0.880483	0.408351
	C173	C	0.178837	0.131354	0.629737
	C174	C	0.813559	0.130679	0.407615
	C175	C	0.814124	0.881834	0.628426
	C176	C	0.385224	0.189432	0.892414
	C177	C	0.604580	0.190441	0.143402
	C178	C	0.387081	0.821159	0.145660
	C179	C	0.603755	0.821407	0.891034
	C180	C	0.386293	0.880846	0.202076
	C181	C	0.605298	0.131956	0.200745
	C182	C	0.385138	0.130493	0.835322
	C183	C	0.604901	0.881684	0.835302
	C184	C	0.871516	0.187577	0.407610
	C185	C	0.121025	0.188857	0.629699
	C186	C	0.121211	0.822819	0.408403
	C187	C	0.873001	0.825621	0.629346
	C188	C	0.177364	0.395799	0.893056
	C189	C	0.180278	0.615070	0.146786
	C190	C	0.811280	0.396828	0.145035
	C191	C	0.813413	0.615828	0.894893
	C192	C	0.400859	0.096480	0.612565
	C193	C	0.593726	0.914791	0.614708
	C194	C	0.592714	0.096938	0.423597
	C195	C	0.400667	0.915445	0.423952
	C196	C	0.589794	0.411799	0.110642
	C197	C	0.591486	0.600972	0.926620
	C198	C	0.401272	0.599459	0.109461
	C199	C	0.399222	0.411154	0.926635
	C200	C	0.086122	0.601835	0.424093
	C201	C	0.905123	0.603044	0.614851
	C202	C	0.086392	0.410232	0.613366
	C203	C	0.905604	0.408778	0.422887
	C204	C	0.898489	0.597111	0.114333
	C205	C	0.090327	0.416126	0.112351
	C206	C	0.090789	0.596249	0.924786
	C207	C	0.897719	0.414368	0.923030
	C208	C	0.091084	0.911064	0.610543
	C209	C	0.090555	0.099226	0.428165
	C210	C	0.901161	0.100625	0.609474
	C211	C	0.900912	0.910367	0.426000
	C212	C	0.585518	0.103453	0.923330
	C213	C	0.404288	0.103225	0.114396
	C214	C	0.585288	0.911071	0.111932
	C215	C	0.404667	0.909506	0.923159
	Zn216	Zn	0.495511	0.006517	0.768438
	Zn217	Zn	0.496228	0.006646	0.268232
	Zn218	Zn	0.744031	0.505437	0.018919
	Zn219	Zn	0.245221	0.505751	0.018838
	Zn220	Zn	-0.003694	0.756827	0.519101
	Zn221	Zn	-0.003816	0.254413	0.518422
	Zn222	Zn	-0.004270	0.505796	0.768976
	Zn223	Zn	-0.004433	0.506373	0.268554
	Zn224	Zn	0.495017	0.754894	0.018600
	Zn225	Zn	0.494478	0.257486	0.018163
	Zn226	Zn	0.746963	0.005997	0.517934
	Zn227	Zn	0.245398	0.005667	0.519371
	N228	N	0.410426	0.969873	0.696546
	N229	N	0.582571	0.042209	0.698179
	N230	N	0.583200	0.970867	0.337731
	N231	N	0.409179	0.041825	0.338752
	N232	N	0.675329	0.417764	0.983952
	N233	N	0.675573	0.593622	0.054102
	N234	N	0.313431	0.594266	0.984346
	N235	N	0.313992	0.418265	0.053862
	N236	N	0.961319	0.688219	0.430119
	N237	N	0.030685	0.688376	0.607874
	N238	N	0.960742	0.325022	0.605332
	N239	N	0.030661	0.322844	0.429172
	N240	N	0.960272	0.418881	0.698718
	N241	N	0.031673	0.592705	0.698956
	N242	N	0.960007	0.592355	0.339280
	N243	N	0.031492	0.418722	0.337870
	N244	N	0.408508	0.684702	0.982731
	N245	N	0.584262	0.687930	0.052823
	N246	N	0.580494	0.327755	0.982675
	N247	N	0.407012	0.326109	0.053631
	N248	N	0.677630	0.970925	0.429934
	N249	N	0.678680	0.040934	0.607444
	N250	N	0.313939	0.971666	0.607465
	N251	N	0.313292	0.039803	0.429774
	N252	N	0.908399	0.470682	0.198391
	N253	N	0.081437	0.542395	0.198184
	N254	N	0.081106	0.469805	0.839798
	N255	N	0.909071	0.541555	0.839644
	N256	N	0.176448	0.918195	0.483486
	N257	N	0.176702	0.093448	0.554533
	N258	N	0.815795	0.093119	0.482679
	N259	N	0.815188	0.917891	0.552554
	N260	N	0.459662	0.188191	0.930010
	N261	N	0.529496	0.189053	0.106911
	N262	N	0.461065	0.823573	0.107182
	N263	N	0.529083	0.822344	0.928058
	N264	N	0.459942	0.919631	0.198176
	N265	N	0.530735	0.094711	0.199067
	N266	N	0.459386	0.093180	0.838173
	N267	N	0.530980	0.919642	0.838422
	N268	N	0.909283	0.185094	0.482485
	N269	N	0.083519	0.186018	0.554505
	N270	N	0.083881	0.825458	0.483774
	N271	N	0.910083	0.827383	0.554095
	N272	N	0.176539	0.470828	0.930453
	N273	N	0.178141	0.540440	0.108659
	N274	N	0.812270	0.471563	0.108216
	N275	N	0.813341	0.540333	0.930590
	O276	O	-0.025470	-0.200858	0.226530
	H277	H	-0.007395	-0.219198	0.230515
	H278	H	-0.007447	-0.181026	0.240204
	O279	O	1.008874	-0.196359	0.824151
	H280	H	0.993099	-0.182374	0.811173
	H281	H	1.011847	-0.199811	0.821877
	O282	O	0.782030	0.791617	1.040606
	H283	H	0.758083	0.793528	1.028427
	H284	H	0.764681	0.796346	1.038522
	O285	O	0.688449	0.696823	0.710134
	H286	H	0.679438	0.721046	0.728897
	H287	H	0.698778	0.703175	0.657920
	O288	O	1.043690	1.003599	0.046475
	H289	H	1.053599	1.000412	0.033849
	H290	H	1.039923	1.017163	0.062331
	O291	O	0.456165	0.594774	0.699921
	H292	H	0.450543	0.586863	0.698994
	H293	H	0.464010	0.587334	0.692139
	O294	O	0.001408	-0.199700	1.027398
	H295	H	-0.010999	-0.198102	1.048953
	H296	H	-0.027172	-0.197053	1.020421
	O297	O	0.698746	0.358117	0.568434
	H298	H	0.696778	0.360496	0.583135
	H299	H	0.695801	0.384885	0.565366
	O300	O	0.445265	0.308009	0.314985
	H301	H	0.446321	0.304259	0.316673
	H302	H	0.437814	0.314992	0.314988
	O303	O	0.675988	0.477641	0.672123
	H304	H	0.666157	0.508122	0.658519
	H305	H	0.701828	0.488820	0.705089
	O306	O	0.811971	0.825681	0.201385
	H307	H	0.837175	0.820875	0.192701
	H308	H	0.828029	0.813734	0.179660
	O309	O	0.274901	0.475869	0.493749
	H310	H	0.275610	0.478813	0.493514
	H311	H	0.274614	0.482231	0.503603
	O312	O	-0.203900	1.078858	1.050545
	H313	H	-0.198139	1.086696	1.066004
	H314	H	-0.198831	1.089800	1.071381
	O315	O	0.345588	0.578980	0.635131
	H316	H	0.353440	0.577964	0.650956
	H317	H	0.342277	0.580132	0.623794
	O318	O	0.808763	0.190787	-0.162526
	H319	H	0.798756	0.200239	-0.109215
	H320	H	0.840626	0.203829	-0.172856
	O321	O	-0.023100	0.168223	0.075803
	H322	H	0.007105	0.182706	0.088731
	H323	H	-0.017861	0.145679	0.078860
	O324	O	1.106986	0.175052	-0.079561
	H325	H	1.110132	0.172158	-0.045473
	H326	H	1.127298	0.196664	-0.081278
	O327	O	0.522118	0.723061	0.731933
	H328	H	0.533876	0.746531	0.764419
	H329	H	0.522685	0.703875	0.736974
	O330	O	0.711237	1.716782	-0.456645
	H331	H	0.711730	1.714179	-0.477511
	H332	H	0.715398	1.739666	-0.470851
	O333	O	0.410896	0.352235	0.383923
	H334	H	0.405169	0.341108	0.385171
	H335	H	0.401449	0.370936	0.391928
	O336	O	0.176533	0.182407	0.195616
	H337	H	0.178821	0.162408	0.187998
	H338	H	0.180510	0.179235	0.188812
	O339	O	-0.011195	1.010307	1.047810
	H340	H	-0.006103	0.992077	1.048655
	H341	H	-0.040774	1.004297	1.042846
	O342	O	-0.219897	0.955648	0.956764
	H343	H	-0.222264	0.982763	0.941577
	H344	H	-0.225852	0.977057	0.958571
	O345	O	0.332511	0.310380	-0.355007
	H346	H	0.350892	0.308520	-0.339631
	H347	H	0.310711	0.295859	-0.372045
	O348	O	0.562862	0.684858	0.422952
	H349	H	0.546115	0.686456	0.444787
	H350	H	0.563197	0.679900	0.410148
	O351	O	0.303191	1.308315	0.630985
	H352	H	0.289786	1.303900	0.637587
	H353	H	0.316288	1.313805	0.611606
	O354	O	0.211608	0.789457	-0.005559
	H355	H	0.204197	0.771962	0.009813
	H356	H	0.231627	0.785003	0.005257
	O357	O	0.211790	-0.000734	1.023641
	H358	H	0.211684	-0.008414	1.001916
	H359	H	0.205566	-0.014883	1.002360
	O360	O	0.508437	0.404567	0.672793
	H361	H	0.532520	0.421327	0.669443
	H362	H	0.505974	0.392050	0.675062
	O363	O	-0.518213	0.476542	0.363837
	H364	H	-0.512834	0.479706	0.378907
	H365	H	-0.495631	0.462952	0.365604
	O366	O	0.064958	-0.134633	1.162623
	H367	H	0.069926	-0.118322	1.146346
	H368	H	0.078116	-0.120166	1.147698
	O369	O	0.685127	0.506239	0.317050
	H370	H	0.673001	0.474352	0.322460
	H371	H	0.714024	0.495625	0.295670
	O372	O	0.782863	-0.014462	1.228186
	H373	H	0.791738	-0.050147	1.220753
	H374	H	0.763901	-0.018061	1.258004
	O375	O	0.544037	0.629609	0.321499
	H376	H	0.546407	0.640106	0.300702
	H377	H	0.564013	0.612379	0.317262
	O378	O	0.574026	0.368067	0.602087
	H379	H	0.580986	0.389481	0.613284
	H380	H	0.595739	0.369850	0.611186
	O381	O	0.920184	0.112316	0.089294
	H382	H	0.921385	0.110909	0.076981
	H383	H	0.922270	0.108755	0.112364
	O384	O	0.309950	0.624572	0.536284
	H385	H	0.313150	0.621632	0.531168
	H386	H	0.294313	0.635308	0.530729
	O387	O	0.488692	-0.319523	0.526112
	H388	H	0.479573	-0.315880	0.531968
	H389	H	0.475724	-0.313082	0.544855
	O390	O	-0.568204	-0.445938	-0.431988
	H391	H	-0.579641	-0.420490	-0.434787
	H392	H	-0.543461	-0.451696	-0.433940
	O393	O	1.132144	1.014861	1.020080
	H394	H	1.126818	1.017333	1.027156
	H395	H	1.135166	1.022937	1.026029
	O396	O	1.403519	0.452317	0.643774
	H397	H	1.411359	0.429248	0.637921
	H398	H	1.385761	0.459042	0.653649
	O399	O	0.875302	-0.186815	0.901251
	H400	H	0.885255	-0.175854	0.886922
	H401	H	0.867711	-0.178973	0.913985
	O402	O	1.045544	0.990094	0.812246
	H403	H	1.048761	0.984296	0.814667
	H404	H	1.033514	0.999804	0.797026
	O405	O	1.025535	1.223057	0.234940
	H406	H	1.028045	1.225167	0.254346
	H407	H	1.053618	1.232097	0.247805
	O408	O	1.207168	0.021860	0.226489
	H409	H	1.208296	0.024107	0.235406
	H410	H	1.223856	0.012113	0.229477
	O411	O	1.002538	1.202312	-0.161655
	H412	H	1.006780	1.205489	-0.136002
	H413	H	1.010277	1.201468	-0.170426
	O414	O	0.535258	0.601976	0.372187
	H415	H	0.545641	0.593354	0.356551
	H416	H	0.526894	0.581386	0.381613
	O417	O	0.484273	0.282755	0.506493
	H418	H	0.493137	0.294998	0.516501
	H419	H	0.475755	0.275751	0.521943
	O420	O	0.705837	0.496009	0.447773
	H421	H	0.690138	0.505211	0.431489
	H422	H	0.717363	0.499562	0.440835
	O423	O	0.410540	0.481691	0.524392
	H424	H	0.414949	0.492124	0.517968
	H425	H	0.425143	0.491940	0.518703
	O426	O	0.342381	0.681626	0.342680
	H427	H	0.373596	0.677814	0.330852
	H428	H	0.329441	0.658106	0.350374
	O429	O	0.290606	0.520341	0.314432
	H430	H	0.274822	0.514322	0.311629
	H431	H	0.307241	0.517245	0.315535
	O432	O	0.627948	0.568018	0.673707
	H433	H	0.642607	0.584191	0.700991
	H434	H	0.627952	0.586992	0.676301
	O435	O	0.088800	1.083883	-0.056125
	H436	H	0.104388	1.074579	-0.070458
	H437	H	0.086450	1.104823	-0.062654
	O438	O	0.203423	0.013140	-0.129923
	H439	H	0.198243	-0.013336	-0.151023
	H440	H	0.211147	0.021603	-0.138799
	O441	O	0.966339	0.125715	0.120933
	H442	H	0.973813	0.128989	0.122662
	H443	H	0.952766	0.104575	0.126087
	O444	O	-0.226413	1.032007	0.798594
	H445	H	-0.224869	1.074898	0.795721
	H446	H	-0.249966	1.043620	0.772551
	O447	O	0.669896	0.329043	0.369341
	H448	H	0.673148	0.323836	0.403017
	H449	H	0.628940	0.321465	0.364606
	O450	O	0.824158	0.217061	0.008738
	H451	H	0.855904	0.219266	0.033421
	H452	H	0.808192	0.250252	0.009315
	O453	O	0.175360	-0.171773	0.834825
	H454	H	0.162472	-0.182732	0.862039
	H455	H	0.169722	-0.188036	0.846494
