data_Molecule from HDF5

_cell_length_a		16.149139
_cell_length_b		16.292751
_cell_length_c		16.184070
_cell_angle_alpha	89.577912
_cell_angle_beta	89.724520
_cell_angle_gamma	90.243853
_symmetry_space_group_name_H-M	'P 1'
_symmetry_Int_Tables_number		1

loop_
	_symmetry_equiv_pos_as_xyz
	x,y,z

loop_
	_atom_site_label
	_atom_site_type_symbol
	_atom_site_fract_x
	_atom_site_fract_y
	_atom_site_fract_z
	H0	H	0.409312	0.839272	0.705896
	H1	H	0.609485	0.165976	0.704635
	H2	H	0.608773	0.838337	0.278583
	H3	H	0.412623	0.165594	0.272636
	H4	H	0.726463	0.406711	0.826503
	H5	H	0.722122	0.599002	0.156361
	H6	H	0.300672	0.599012	0.825988
	H7	H	0.296481	0.402674	0.156714
	H8	H	0.845862	0.719828	0.393786
	H9	H	0.175313	0.720744	0.590291
	H10	H	0.846941	0.289358	0.595419
	H11	H	0.176071	0.293343	0.393381
	H12	H	0.846298	0.407213	0.707553
	H13	H	0.177496	0.602060	0.702238
	H14	H	0.845694	0.606145	0.278425
	H15	H	0.175940	0.410788	0.279174
	H16	H	0.411015	0.718294	0.827088
	H17	H	0.611467	0.717289	0.154744
	H18	H	0.610830	0.290211	0.825280
	H19	H	0.408616	0.283055	0.154705
	H20	H	0.727364	0.840650	0.391972
	H21	H	0.723795	0.167894	0.587428
	H22	H	0.293451	0.840853	0.590815
	H23	H	0.299349	0.169036	0.390426
	H24	H	0.908554	0.343132	0.212150
	H25	H	0.109364	0.669924	0.203604
	H26	H	0.111536	0.341603	0.777690
	H27	H	0.915947	0.669615	0.778752
	H28	H	0.222480	0.909956	0.325845
	H29	H	0.224641	0.101582	0.655954
	H30	H	0.800787	0.103686	0.325850
	H31	H	0.796307	0.906235	0.656263
	H32	H	0.346961	0.217841	0.888601
	H33	H	0.674670	0.217840	0.089306
	H34	H	0.346413	0.786096	0.090488
	H35	H	0.675968	0.789110	0.890934
	H36	H	0.345915	0.901217	0.205639
	H37	H	0.675697	0.100219	0.200638
	H38	H	0.345184	0.098204	0.778540
	H39	H	0.675078	0.904274	0.774661
	H40	H	0.911099	0.224368	0.329410
	H41	H	0.110072	0.217461	0.657303
	H42	H	0.111520	0.791551	0.327665
	H43	H	0.909469	0.789266	0.656529
	H44	H	0.222727	0.339237	0.895647
	H45	H	0.227284	0.667784	0.088515
	H46	H	0.795745	0.340830	0.093601
	H47	H	0.797824	0.668442	0.893520
	H48	H	0.428981	0.115656	0.577647
	H49	H	0.607696	0.887346	0.575165
	H50	H	0.606991	0.119300	0.399421
	H51	H	0.415867	0.884612	0.392444
	H52	H	0.604913	0.398467	0.111274
	H53	H	0.600090	0.597750	0.873956
	H54	H	0.421150	0.596707	0.109043
	H55	H	0.412614	0.420923	0.875854
	H56	H	0.127371	0.596920	0.399934
	H57	H	0.895659	0.589321	0.586546
	H58	H	0.127975	0.408444	0.577791
	H59	H	0.896058	0.419626	0.404594
	H60	H	0.129244	0.418635	0.588989
	H61	H	0.889527	0.601267	0.593446
	H62	H	0.129729	0.600947	0.394669
	H63	H	0.890957	0.411833	0.397900
	H64	H	0.416416	0.594424	0.109996
	H65	H	0.606861	0.600068	0.871457
	H66	H	0.607996	0.415614	0.107727
	H67	H	0.430293	0.406338	0.876382
	H68	H	0.609144	0.121968	0.389011
	H69	H	0.606151	0.883136	0.590277
	H70	H	0.406386	0.121723	0.577704
	H71	H	0.420567	0.888562	0.401999
	H72	H	0.922477	0.619624	0.082533
	H73	H	0.110672	0.387366	0.080879
	H74	H	0.102027	0.622177	0.888874
	H75	H	0.919288	0.388369	0.897792
	H76	H	0.104900	0.921550	0.607576
	H77	H	0.106751	0.091884	0.375630
	H78	H	0.914661	0.092023	0.608789
	H79	H	0.925116	0.916322	0.376970
	H80	H	0.630844	0.097662	0.893744
	H81	H	0.390195	0.105594	0.078220
	H82	H	0.631529	0.903703	0.084530
	H83	H	0.391425	0.915153	0.888620
	H84	H	0.626681	0.908997	0.078416
	H85	H	0.399074	0.084098	0.071516
	H86	H	0.627798	0.097770	0.900989
	H87	H	0.389247	0.895833	0.898426
	H88	H	0.922466	0.098198	0.608540
	H89	H	0.094026	0.104078	0.376398
	H90	H	0.092246	0.909808	0.607311
	H91	H	0.920540	0.905084	0.371767
	H92	H	0.103799	0.618910	0.904739
	H93	H	0.102306	0.386029	0.097319
	H94	H	0.911274	0.622169	0.080508
	H95	H	0.921714	0.389558	0.901853
	H96	H	0.418813	0.124181	0.596402
	H97	H	0.593485	0.889649	0.582169
	H98	H	0.599267	0.119031	0.392643
	H99	H	0.409164	0.886483	0.401957
	H100	H	0.591289	0.408575	0.104725
	H101	H	0.606064	0.591190	0.873934
	H102	H	0.420224	0.591181	0.107462
	H103	H	0.410146	0.399739	0.868687
	H104	H	0.128911	0.602815	0.400296
	H105	H	0.894294	0.602605	0.579373
	H106	H	0.132788	0.404693	0.591412
	H107	H	0.894532	0.409438	0.408751
	H108	H	0.916515	0.624301	0.091170
	H109	H	0.093310	0.391962	0.082807
	H110	H	0.116275	0.624771	0.896023
	H111	H	0.917244	0.388278	0.902406
	H112	H	0.108349	0.905335	0.612382
	H113	H	0.110637	0.107986	0.369890
	H114	H	0.913879	0.100780	0.612229
	H115	H	0.913641	0.915529	0.373459
	H116	H	0.627241	0.092123	0.896399
	H117	H	0.390830	0.087840	0.094369
	H118	H	0.628964	0.911677	0.086865
	H119	H	0.397300	0.912717	0.909575
	C120	C	0.388212	0.012171	0.612779
	C121	C	0.631674	0.994481	0.611533
	C122	C	0.633500	0.011909	0.366911
	C123	C	0.388633	0.995166	0.368761
	C124	C	0.631799	0.380395	-0.000905
	C125	C	0.632149	0.624040	0.982257
	C126	C	0.390643	0.622911	-0.000029
	C127	C	0.388388	0.379277	0.982526
	C128	C	0.019059	0.627914	0.370663
	C129	C	1.002412	0.625935	0.613240
	C130	C	0.020647	0.382606	0.615676
	C131	C	1.002487	0.385287	0.373247
	C132	C	0.887730	0.513847	0.114786
	C133	C	0.131945	0.496642	0.114354
	C134	C	0.134407	0.513100	0.869435
	C135	C	0.890847	0.496637	0.871248
	C136	C	0.131174	0.884397	0.500269
	C137	C	0.132435	0.127903	0.482977
	C138	C	0.889390	0.126702	0.501007
	C139	C	0.889290	0.882853	0.483005
	C140	C	0.519682	0.123860	0.868422
	C141	C	0.502147	0.121939	0.109987
	C142	C	0.519686	0.879239	0.112441
	C143	C	0.501749	0.880213	0.869349
	C144	C	0.389345	0.888667	0.668178
	C145	C	0.629960	0.117539	0.666611
	C146	C	0.629791	0.887699	0.314787
	C147	C	0.392112	0.117503	0.311453
	C148	C	0.688123	0.385235	0.875425
	C149	C	0.685614	0.620438	0.106688
	C150	C	0.337310	0.619790	0.875381
	C151	C	0.333707	0.381778	0.106875
	C152	C	0.895089	0.682683	0.373076
	C153	C	0.126545	0.682104	0.610481
	C154	C	0.896236	0.327440	0.614903
	C155	C	0.126753	0.331068	0.373934
	C156	C	0.895852	0.386024	0.670494
	C157	C	0.127654	0.623284	0.666014
	C158	C	0.894928	0.625813	0.316040
	C159	C	0.126671	0.389525	0.317179
	C160	C	0.392520	0.678893	0.875939
	C161	C	0.630555	0.679272	0.105827
	C162	C	0.630906	0.327086	0.875021
	C163	C	0.389301	0.322045	0.105813
	C164	C	0.688831	0.888881	0.371253
	C165	C	0.686808	0.118423	0.608211
	C166	C	0.331940	0.889338	0.610529
	C167	C	0.335764	0.119111	0.370184
	C168	C	0.889214	0.391183	0.172506
	C169	C	0.129902	0.620464	0.166877
	C170	C	0.131189	0.390195	0.815275
	C171	C	0.894450	0.620373	0.816025
	C172	C	0.185654	0.888572	0.375646
	C173	C	0.187394	0.123180	0.606895
	C174	C	0.836659	0.124598	0.375968
	C175	C	0.833566	0.885427	0.606943
	C176	C	0.395809	0.179258	0.869686
	C177	C	0.625855	0.178610	0.108296
	C178	C	0.395535	0.823992	0.110583
	C179	C	0.626463	0.826413	0.870763
	C180	C	0.395518	0.881223	0.167851
	C181	C	0.626360	0.120075	0.163748
	C182	C	0.394639	0.119650	0.814941
	C183	C	0.626004	0.883534	0.812991
	C184	C	0.891458	0.184641	0.377921
	C185	C	0.130354	0.180508	0.607518
	C186	C	0.130333	0.829653	0.376484
	C187	C	0.890013	0.827026	0.606990
	C188	C	0.186879	0.388965	0.874004
	C189	C	0.188817	0.619244	0.109848
	C190	C	0.832992	0.390180	0.113570
	C191	C	0.835861	0.619718	0.873085
	C192	C	0.411437	0.098262	0.590511
	C193	C	0.609081	0.908851	0.589126
	C194	C	0.611642	0.097798	0.387422
	C195	C	0.409185	0.908904	0.391943
	C196	C	0.608493	0.401383	0.085772
	C197	C	0.610565	0.602741	0.895605
	C198	C	0.412605	0.600604	0.086400
	C199	C	0.411116	0.402152	0.895828
	C200	C	0.106060	0.606490	0.392023
	C201	C	0.915611	0.604176	0.592549
	C202	C	0.107415	0.404142	0.592689
	C203	C	0.916004	0.407257	0.396830
	C204	C	0.910257	0.599750	0.091587
	C205	C	0.108795	0.410572	0.093277
	C206	C	0.113670	0.599619	0.890421
	C207	C	0.912821	0.410799	0.894011
	C208	C	0.108476	0.905774	0.586658
	C209	C	0.110377	0.107459	0.396327
	C210	C	0.910805	0.103701	0.587485
	C211	C	0.912666	0.905661	0.396462
	C212	C	0.606242	0.102013	0.890331
	C213	C	0.415638	0.099124	0.087788
	C214	C	0.606544	0.901411	0.089837
	C215	C	0.415174	0.901600	0.892185
	Zn216	Zn	0.510263	0.002466	0.741400
	Zn217	Zn	0.510702	0.001852	0.239185
	Zn218	Zn	0.760300	0.503721	-0.008364
	Zn219	Zn	0.261590	0.503131	-0.008357
	Zn220	Zn	0.010774	0.754819	0.491924
	Zn221	Zn	0.011083	0.255558	0.493764
	Zn222	Zn	0.012254	0.505188	0.741942
	Zn223	Zn	0.009577	0.506492	0.243416
	Zn224	Zn	0.511503	0.751622	-0.009225
	Zn225	Zn	0.510682	0.251140	-0.009757
	Zn226	Zn	0.761133	0.004427	0.490192
	Zn227	Zn	0.259799	0.005220	0.490752
	N228	N	0.423730	0.966094	0.669672
	N229	N	0.596339	0.039798	0.668810
	N230	N	0.596291	0.965295	0.311838
	N231	N	0.424462	0.039558	0.310658
	N232	N	0.688839	0.417676	0.953782
	N233	N	0.686742	0.586929	0.028957
	N234	N	0.336055	0.585681	0.953510
	N235	N	0.332929	0.416498	0.029119
	N236	N	0.973350	0.684116	0.406170
	N237	N	0.047835	0.683924	0.578273
	N238	N	0.974766	0.325027	0.581623
	N239	N	0.048565	0.328390	0.408067
	N240	N	0.974252	0.419472	0.671320
	N241	N	0.049729	0.589039	0.667845
	N242	N	0.973020	0.592385	0.314481
	N243	N	0.048179	0.422282	0.316429
	N244	N	0.425077	0.680912	0.954377
	N245	N	0.597799	0.681447	0.027489
	N246	N	0.596785	0.323898	0.953023
	N247	N	0.422626	0.320577	0.027391
	N248	N	0.691411	0.966989	0.402736
	N249	N	0.687844	0.041030	0.574491
	N250	N	0.331045	0.967227	0.577024
	N251	N	0.333498	0.041904	0.405155
	N252	N	0.922501	0.469073	0.173369
	N253	N	0.095484	0.543079	0.169916
	N254	N	0.099453	0.468418	0.812282
	N255	N	0.928091	0.542915	0.814911
	N256	N	0.186378	0.922086	0.453518
	N257	N	0.189032	0.091169	0.528439
	N258	N	0.835061	0.089312	0.453548
	N259	N	0.833038	0.919439	0.528735
	N260	N	0.474320	0.181835	0.902209
	N261	N	0.547476	0.179641	0.075443
	N262	N	0.473898	0.822686	0.076859
	N263	N	0.548276	0.824140	0.905021
	N264	N	0.473701	0.914914	0.169076
	N265	N	0.548309	0.085503	0.164882
	N266	N	0.472611	0.085840	0.814089
	N267	N	0.547516	0.916138	0.811903
	N268	N	0.923298	0.186070	0.456515
	N269	N	0.097006	0.183520	0.529402
	N270	N	0.097218	0.826839	0.454947
	N271	N	0.923898	0.825436	0.528861
	N272	N	0.189011	0.466474	0.907064
	N273	N	0.190094	0.541099	0.077861
	N274	N	0.831995	0.467321	0.078415
	N275	N	0.833473	0.541809	0.906604
	O276	O	1.019711	1.140810	-0.068685
	H277	H	1.017058	1.129358	-0.069269
	H278	H	1.015824	1.153961	-0.070123
	O279	O	-0.055086	-0.037778	1.029217
	H280	H	-0.052465	-0.027111	1.024727
	H281	H	-0.059921	-0.026460	1.037841
	O282	O	0.044263	0.056450	0.072775
	H283	H	0.046524	0.062794	0.072898
	H284	H	0.046644	0.046700	0.074601
	O285	O	0.512136	0.500615	0.475427
	H286	H	0.514005	0.505299	0.481621
	H287	H	0.514814	0.504886	0.466520
	O288	O	-0.873075	-0.865111	0.110333
	H289	H	-0.882811	-0.859906	0.099492
	H290	H	-0.874513	-0.865986	0.105273
	O291	O	0.012296	0.944882	0.053998
	H292	H	0.008071	0.943875	0.047596
	H293	H	0.009914	0.951105	0.055084
	O294	O	-0.008798	1.114890	0.045890
	H295	H	-0.004711	1.114530	0.046829
	H296	H	-0.008791	1.104693	0.053242
	O297	O	0.479655	0.566744	0.434637
	H298	H	0.480186	0.574892	0.431690
	H299	H	0.469668	0.566176	0.447670
	O300	O	0.447685	0.503530	0.404168
	H301	H	0.453100	0.523817	0.405729
	H302	H	0.443186	0.505727	0.402517
	O303	O	0.935942	0.013422	1.044033
	H304	H	0.933539	0.009185	1.052446
	H305	H	0.930038	0.028473	1.043813
	O306	O	0.015101	1.079955	1.043268
	H307	H	0.012233	1.083243	1.057796
	H308	H	0.020212	1.071384	1.032936
	O309	O	0.015325	1.119868	1.007871
	H310	H	0.015047	1.116134	1.015806
	H311	H	0.016699	1.126404	1.010916
	O312	O	-0.017324	0.078458	0.971176
	H313	H	-0.025342	0.086551	0.960506
	H314	H	-0.018673	0.083331	0.976313
	O315	O	0.497532	0.495642	0.475039
	H316	H	0.499879	0.505112	0.469115
	H317	H	0.510728	0.504992	0.478886
	O318	O	0.017276	-0.048781	0.988161
	H319	H	0.019008	-0.054404	0.982572
	H320	H	0.011948	-0.053152	0.998213
	O321	O	0.544567	0.533019	0.499231
	H322	H	0.555237	0.528265	0.508574
	H323	H	0.542359	0.536173	0.490649
	O324	O	0.594872	-0.599431	1.445586
	H325	H	0.582556	-0.607543	1.445918
	H326	H	0.590609	-0.604943	1.448492
	O327	O	0.998077	0.994825	0.930856
	H328	H	1.006526	0.994280	0.930019
	H329	H	1.005621	0.995167	0.931351
	O330	O	0.450140	0.579248	0.501457
	H331	H	0.443464	0.580365	0.501796
	H332	H	0.450641	0.585300	0.503259
	O333	O	0.537004	0.470312	0.564080
	H334	H	0.542380	0.467233	0.557666
	H335	H	0.539195	0.460408	0.566233
	O336	O	0.599635	0.522351	0.417943
	H337	H	0.591696	0.513815	0.425628
	H338	H	0.603951	0.519765	0.413053
	O339	O	0.540079	0.484367	0.444564
	H340	H	0.547367	0.468359	0.443102
	H341	H	0.536539	0.485424	0.440511
	O342	O	0.509896	0.441248	0.469187
	H343	H	0.511654	0.438369	0.471085
	H344	H	0.505165	0.440381	0.462379
	O345	O	0.564131	0.495445	0.540744
	H346	H	0.563112	0.488468	0.532906
	H347	H	0.561020	0.493894	0.539982
