data_Molecule from HDF5

_cell_length_a		16.289482
_cell_length_b		16.141963
_cell_length_c		16.152348
_cell_angle_alpha	90.513839
_cell_angle_beta	90.310785
_cell_angle_gamma	89.239103
_symmetry_space_group_name_H-M	'P 1'
_symmetry_Int_Tables_number		1

loop_
	_symmetry_equiv_pos_as_xyz
	x,y,z

loop_
	_atom_site_label
	_atom_site_type_symbol
	_atom_site_fract_x
	_atom_site_fract_y
	_atom_site_fract_z
	H0	H	0.411131	0.845878	0.714913
	H1	H	0.600784	0.176720	0.718322
	H2	H	0.604529	0.846234	0.288745
	H3	H	0.405377	0.177970	0.294874
	H4	H	0.720500	0.409692	0.839440
	H5	H	0.721310	0.616022	0.167738
	H6	H	0.286815	0.614469	0.840257
	H7	H	0.295355	0.418170	0.169248
	H8	H	0.841709	0.725487	0.405267
	H9	H	0.169960	0.720963	0.602617
	H10	H	0.840222	0.301005	0.598656
	H11	H	0.167713	0.291450	0.402821
	H12	H	0.841645	0.414543	0.716393
	H13	H	0.168918	0.606631	0.720051
	H14	H	0.842109	0.610342	0.287684
	H15	H	0.169244	0.407201	0.289367
	H16	H	0.404820	0.725972	0.838938
	H17	H	0.601479	0.726938	0.168778
	H18	H	0.605617	0.294939	0.840162
	H19	H	0.408451	0.304062	0.169437
	H20	H	0.721685	0.845987	0.404953
	H21	H	0.719145	0.174887	0.607297
	H22	H	0.296104	0.844696	0.599763
	H23	H	0.284903	0.173758	0.402391
	H24	H	0.911332	0.344750	0.211815
	H25	H	0.101492	0.675398	0.220559
	H26	H	0.105839	0.345517	0.789972
	H27	H	0.905439	0.676628	0.791238
	H28	H	0.220177	0.906687	0.338850
	H29	H	0.219465	0.109389	0.667094
	H30	H	0.786677	0.110808	0.340693
	H31	H	0.794796	0.912200	0.668569
	H32	H	0.340556	0.227780	0.906942
	H33	H	0.669525	0.225322	0.103924
	H34	H	0.340883	0.803422	0.100874
	H35	H	0.667233	0.793176	0.903172
	H36	H	0.341257	0.917853	0.215787
	H37	H	0.668297	0.111221	0.221752
	H38	H	0.340919	0.112950	0.788917
	H39	H	0.669649	0.909716	0.790647
	H40	H	0.903945	0.222345	0.337943
	H41	H	0.102963	0.224547	0.667304
	H42	H	0.105917	0.792338	0.339025
	H43	H	0.911666	0.801955	0.669590
	H44	H	0.225232	0.348471	0.902543
	H45	H	0.216200	0.677663	0.106320
	H46	H	0.791528	0.348113	0.102936
	H47	H	0.786877	0.676492	0.903159
	H48	H	0.407156	0.128976	0.591442
	H49	H	0.600352	0.891946	0.601375
	H50	H	0.601520	0.132793	0.404920
	H51	H	0.415367	0.894193	0.413330
	H52	H	0.597355	0.420551	0.121597
	H53	H	0.602667	0.596441	0.886332
	H54	H	0.417796	0.619530	0.123281
	H55	H	0.419742	0.424634	0.889633
	H56	H	0.126726	0.606109	0.404324
	H57	H	0.886822	0.601813	0.605928
	H58	H	0.121752	0.427287	0.603936
	H59	H	0.886284	0.418592	0.402240
	H60	H	0.127790	0.404269	0.601968
	H61	H	0.884394	0.617000	0.596758
	H62	H	0.121031	0.604052	0.420405
	H63	H	0.886481	0.413275	0.408917
	H64	H	0.399402	0.611339	0.126648
	H65	H	0.589575	0.600397	0.889060
	H66	H	0.603089	0.420080	0.123256
	H67	H	0.413192	0.414189	0.883576
	H68	H	0.586767	0.125609	0.415673
	H69	H	0.600257	0.893838	0.593140
	H70	H	0.408860	0.131222	0.601076
	H71	H	0.409055	0.890973	0.406831
	H72	H	0.914141	0.627046	0.090522
	H73	H	0.104534	0.390854	0.101181
	H74	H	0.094905	0.630749	0.908037
	H75	H	0.908678	0.392273	0.907851
	H76	H	0.093084	0.916898	0.619538
	H77	H	0.099169	0.097016	0.384313
	H78	H	0.912711	0.111567	0.622534
	H79	H	0.907419	0.924765	0.385826
	H80	H	0.619196	0.099095	0.914024
	H81	H	0.387407	0.099173	0.108588
	H82	H	0.621151	0.925788	0.100232
	H83	H	0.386528	0.928001	0.897251
	H84	H	0.624094	0.913759	0.099071
	H85	H	0.381832	0.125535	0.103086
	H86	H	0.623241	0.104340	0.906496
	H87	H	0.384373	0.909071	0.909287
	H88	H	0.908493	0.104063	0.622983
	H89	H	0.092973	0.100152	0.386222
	H90	H	0.108213	0.907710	0.625373
	H91	H	0.920618	0.920206	0.389117
	H92	H	0.092576	0.627624	0.915596
	H93	H	0.096942	0.395679	0.092280
	H94	H	0.906578	0.631190	0.097479
	H95	H	0.917008	0.394516	0.907541
	H96	H	0.415020	0.126832	0.595270
	H97	H	0.607430	0.890407	0.597083
	H98	H	0.603647	0.128004	0.424339
	H99	H	0.418306	0.892346	0.405190
	H100	H	0.601225	0.425037	0.121309
	H101	H	0.598126	0.610197	0.883261
	H102	H	0.414297	0.599484	0.118426
	H103	H	0.405946	0.426309	0.885398
	H104	H	0.120506	0.590927	0.409882
	H105	H	0.892286	0.603326	0.588328
	H106	H	0.117772	0.416162	0.582830
	H107	H	0.889252	0.422163	0.409280
	H108	H	0.916111	0.629585	0.100436
	H109	H	0.108622	0.392786	0.089803
	H110	H	0.100429	0.630830	0.914218
	H111	H	0.913731	0.395285	0.915148
	H112	H	0.107160	0.925303	0.620837
	H113	H	0.098050	0.103599	0.383334
	H114	H	0.916650	0.103963	0.620508
	H115	H	0.911806	0.910666	0.382999
	H116	H	0.622490	0.108580	0.915625
	H117	H	0.393475	0.108348	0.083758
	H118	H	0.620461	0.919746	0.089034
	H119	H	0.393272	0.927631	0.919170
	C120	C	0.384380	0.019485	0.623910
	C121	C	0.628874	1.001667	0.626812
	C122	C	0.626896	0.019849	0.384039
	C123	C	0.383492	1.001853	0.381297
	C124	C	0.628486	0.390976	0.012966
	C125	C	0.625532	0.633388	0.994895
	C126	C	0.381621	0.637157	0.013598
	C127	C	0.385534	0.394415	0.995572
	C128	C	0.014537	0.631305	0.381982
	C129	C	0.996387	0.633436	0.626069
	C130	C	0.013855	0.389087	0.624214
	C131	C	0.995873	0.387449	0.379246
	C132	C	0.884503	0.520318	0.124190
	C133	C	0.129011	0.502368	0.125269
	C134	C	0.126679	0.520484	0.882863
	C135	C	0.883307	0.503041	0.881927
	C136	C	0.129799	0.886850	0.512709
	C137	C	0.125657	0.129985	0.493551
	C138	C	0.882742	0.133921	0.513005
	C139	C	0.886040	0.890598	0.495147
	C140	C	0.513501	0.134290	0.882449
	C141	C	0.496304	0.137366	0.127625
	C142	C	0.513739	0.892675	0.124273
	C143	C	0.496003	0.890357	0.880651
	C144	C	0.389787	0.895055	0.677879
	C145	C	0.623347	0.126529	0.682021
	C146	C	0.625153	0.895653	0.326991
	C147	C	0.384793	0.127425	0.329726
	C148	C	0.683176	0.390579	0.888932
	C149	C	0.682393	0.634233	0.118807
	C150	C	0.325477	0.634342	0.889340
	C151	C	0.332362	0.397827	0.119972
	C152	C	0.890927	0.687903	0.384270
	C153	C	0.120583	0.685196	0.623966
	C154	C	0.889855	0.337025	0.620224
	C155	C	0.119013	0.330255	0.382477
	C156	C	0.890272	0.393701	0.678474
	C157	C	0.120074	0.628249	0.682035
	C158	C	0.891065	0.630406	0.325943
	C159	C	0.119814	0.387899	0.325950
	C160	C	0.384353	0.689411	0.888460
	C161	C	0.622877	0.689501	0.119349
	C162	C	0.626179	0.333347	0.889241
	C163	C	0.388797	0.341138	0.120046
	C164	C	0.683243	0.895399	0.384829
	C165	C	0.681838	0.125762	0.626257
	C166	C	0.332166	0.894640	0.620839
	C167	C	0.324879	0.125228	0.383319
	C168	C	0.889646	0.394967	0.176229
	C169	C	0.123056	0.626249	0.182441
	C170	C	0.126083	0.395783	0.827325
	C171	C	0.884760	0.627191	0.827812
	C172	C	0.183342	0.887243	0.388452
	C173	C	0.181351	0.128923	0.617880
	C174	C	0.825565	0.130908	0.389534
	C175	C	0.832280	0.892695	0.619348
	C176	C	0.389813	0.190336	0.885387
	C177	C	0.619895	0.189618	0.125157
	C178	C	0.390165	0.840020	0.121328
	C179	C	0.618716	0.831884	0.883134
	C180	C	0.390336	0.896982	0.178772
	C181	C	0.619401	0.132962	0.183790
	C182	C	0.389998	0.132634	0.826986
	C183	C	0.620014	0.890345	0.827225
	C184	C	0.883900	0.186431	0.388129
	C185	C	0.123483	0.186348	0.617925
	C186	C	0.126202	0.830373	0.388517
	C187	C	0.890370	0.837702	0.619755
	C188	C	0.185713	0.397378	0.883158
	C189	C	0.179948	0.627616	0.125337
	C190	C	0.829956	0.396653	0.122027
	C191	C	0.826045	0.627176	0.883616
	C192	C	0.404401	0.106458	0.602393
	C193	C	0.608660	0.914490	0.603951
	C194	C	0.603983	0.106374	0.407863
	C195	C	0.407301	0.915038	0.402243
	C196	C	0.607027	0.415016	0.099587
	C197	C	0.603408	0.609393	0.908728
	C198	C	0.403792	0.616431	0.100378
	C199	C	0.406691	0.415503	0.908540
	C200	C	0.100416	0.607376	0.404604
	C201	C	0.910286	0.613287	0.603756
	C202	C	0.100033	0.409792	0.602740
	C203	C	0.909748	0.410963	0.400685
	C204	C	0.905929	0.606903	0.102554
	C205	C	0.109186	0.415491	0.101307
	C206	C	0.102779	0.607279	0.905953
	C207	C	0.906383	0.416478	0.903940
	C208	C	0.108982	0.909731	0.599596
	C209	C	0.103319	0.106960	0.406921
	C210	C	0.905903	0.112836	0.599723
	C211	C	0.907058	0.912278	0.408360
	C212	C	0.599471	0.110876	0.905276
	C213	C	0.409906	0.116945	0.105107
	C214	C	0.599774	0.913611	0.102574
	C215	C	0.410135	0.914484	0.902288
	Zn216	Zn	0.505688	0.011606	0.752916
	Zn217	Zn	0.504871	0.012918	0.254525
	Zn218	Zn	0.755388	0.512544	0.004110
	Zn219	Zn	0.256197	0.513836	0.004465
	Zn220	Zn	0.006052	0.761307	0.503905
	Zn221	Zn	0.004512	0.260434	0.502080
	Zn222	Zn	0.004955	0.510701	0.753805
	Zn223	Zn	0.006159	0.509250	0.252020
	Zn224	Zn	0.504530	0.762996	0.003373
	Zn225	Zn	0.505045	0.264994	0.004591
	Zn226	Zn	0.757004	0.010781	0.505333
	Zn227	Zn	0.255983	0.009184	0.502438
	N228	N	0.421549	0.973704	0.679944
	N229	N	0.591176	0.048262	0.682385
	N230	N	0.590781	0.974142	0.326404
	N231	N	0.420577	0.049696	0.328083
	N232	N	0.684713	0.425567	0.967014
	N233	N	0.684173	0.599940	0.040474
	N234	N	0.323614	0.602570	0.968050
	N235	N	0.330167	0.430031	0.041586
	N236	N	0.968766	0.688698	0.418234
	N237	N	0.043105	0.688360	0.589600
	N238	N	0.967757	0.333885	0.587195
	N239	N	0.040962	0.329760	0.414904
	N240	N	0.968455	0.424987	0.681275
	N241	N	0.041844	0.597018	0.683750
	N242	N	0.968670	0.595903	0.324372
	N243	N	0.042289	0.422699	0.323743
	N244	N	0.418499	0.691525	0.966620
	N245	N	0.588204	0.689060	0.041479
	N246	N	0.592643	0.333555	0.967343
	N247	N	0.421320	0.338716	0.041459
	N248	N	0.684673	0.973663	0.419466
	N249	N	0.685555	0.047121	0.592634
	N250	N	0.328818	0.973040	0.587965
	N251	N	0.323949	0.046097	0.414513
	N252	N	0.923118	0.472784	0.177630
	N253	N	0.092125	0.547493	0.182572
	N254	N	0.089954	0.473413	0.827148
	N255	N	0.919417	0.548961	0.826354
	N256	N	0.185655	0.921833	0.466588
	N257	N	0.182826	0.094708	0.539630
	N258	N	0.824523	0.099131	0.468357
	N259	N	0.829468	0.925050	0.540837
	N260	N	0.467613	0.191528	0.919163
	N261	N	0.542142	0.192514	0.091025
	N262	N	0.467736	0.837148	0.088037
	N263	N	0.540606	0.831718	0.915674
	N264	N	0.468250	0.929083	0.180697
	N265	N	0.541401	0.101399	0.185714
	N266	N	0.467936	0.098560	0.825104
	N267	N	0.542792	0.925856	0.825479
	N268	N	0.918818	0.188344	0.465886
	N269	N	0.089624	0.187387	0.539644
	N270	N	0.093397	0.830072	0.466823
	N271	N	0.923293	0.836268	0.541512
	N272	N	0.186080	0.476131	0.916878
	N273	N	0.183663	0.549498	0.090350
	N274	N	0.826686	0.475603	0.090247
	N275	N	0.825010	0.548893	0.916897
	O276	O	0.114518	-0.012117	-0.051843
	H277	H	0.107462	0.004190	-0.061670
	H278	H	0.113020	-0.014059	-0.054967
	O279	O	0.486624	0.509949	0.482965
	H280	H	0.498244	0.513600	0.481654
	H281	H	0.486884	0.515659	0.489308
	O282	O	0.462481	0.442245	0.579240
	H283	H	0.461006	0.436628	0.582812
	H284	H	0.462439	0.453101	0.589194
	O285	O	1.035247	-0.019741	0.976644
	H286	H	1.029432	-0.006200	0.988805
	H287	H	1.044135	-0.016013	0.969328
	O288	O	1.073639	0.007660	-0.072307
	H289	H	1.079359	0.004694	-0.074142
	H290	H	1.079117	0.007158	-0.070404
	O291	O	0.496696	0.473974	0.521659
	H292	H	0.502711	0.460779	0.515515
	H293	H	0.500272	0.467859	0.520232
	O294	O	1.074170	0.061950	1.040060
	H295	H	1.077581	0.068195	1.047880
	H296	H	1.079010	0.054167	1.046495
	O297	O	-0.095883	0.036920	-0.080812
	H298	H	-0.104410	0.042089	-0.079563
	H299	H	-0.088135	0.030141	-0.070257
	O300	O	0.481880	0.503341	0.462558
	H301	H	0.485310	0.502898	0.455236
	H302	H	0.482921	0.500614	0.462165
	O303	O	0.925695	0.083878	-0.015415
	H304	H	0.927286	0.098934	-0.022603
	H305	H	0.921238	0.088041	-0.020845
	O306	O	0.944819	0.066994	-0.072568
	H307	H	0.937138	0.057722	-0.062879
	H308	H	0.952981	0.064662	-0.076547
	O309	O	0.031166	0.059036	1.063535
	H310	H	0.030879	0.059180	1.056630
	H311	H	0.029350	0.048489	1.060983
	O312	O	1.034062	0.949388	1.014065
	H313	H	1.034506	0.945963	1.010657
	H314	H	1.040202	0.941765	1.014666
	O315	O	0.516985	0.478943	0.479350
	H316	H	0.516903	0.486306	0.490068
	H317	H	0.508868	0.494683	0.483908
	O318	O	0.421160	0.524584	0.518545
	H319	H	0.419624	0.524939	0.523034
	H320	H	0.416959	0.520298	0.521082
	O321	O	-0.008942	0.907315	0.993852
	H322	H	-0.014835	0.915368	0.972588
	H323	H	-0.003572	0.905142	0.980703
	O324	O	-0.094342	-0.020973	0.036247
	H325	H	-0.098135	-0.023930	0.040412
	H326	H	-0.109831	-0.031151	0.041138
	O327	O	0.043158	0.002892	0.885014
	H328	H	0.035366	0.013163	0.882342
	H329	H	0.042133	0.006233	0.874290
	O330	O	1.002022	1.038871	0.093105
	H331	H	1.009472	1.024384	0.103186
	H332	H	1.009775	1.038444	0.090252
	O333	O	0.574452	0.506454	0.486077
	H334	H	0.583831	0.502123	0.488364
	H335	H	0.576098	0.499317	0.484803
	O336	O	0.474986	0.586871	0.480122
	H337	H	0.476875	0.590353	0.468518
	H338	H	0.470922	0.581976	0.466626
	O339	O	0.982391	0.995697	0.013241
	H340	H	0.987014	0.992787	0.019205
	H341	H	0.982727	0.997884	0.002762
	O342	O	0.555265	0.417791	0.482459
	H343	H	0.554364	0.419634	0.470471
	H344	H	0.548963	0.403592	0.472293
	O345	O	0.529655	0.472347	0.528369
	H346	H	0.522017	0.474059	0.534746
	H347	H	0.520094	0.458946	0.516010
	O348	O	-0.040980	0.112227	0.004236
	H349	H	-0.038670	0.114188	0.012813
	H350	H	-0.043337	0.114610	0.013087
	O351	O	-0.014372	0.959565	0.994953
	H352	H	-0.016759	0.951464	0.994509
	H353	H	-0.016304	0.940580	0.996508
	O354	O	0.514039	0.479335	0.471658
	H355	H	0.521674	0.482337	0.482821
	H356	H	0.514301	0.481729	0.466012
	O357	O	-0.001764	0.924410	1.083488
	H358	H	-0.003467	0.921877	1.085060
	H359	H	0.008487	0.927735	1.079224
