data_Molecule from HDF5

_cell_length_a		16.432834
_cell_length_b		16.419334
_cell_length_c		16.449198
_cell_angle_alpha	89.965059
_cell_angle_beta	90.062591
_cell_angle_gamma	90.086119
_symmetry_space_group_name_H-M	'P 1'
_symmetry_Int_Tables_number		1

loop_
	_symmetry_equiv_pos_as_xyz
	x,y,z

loop_
	_atom_site_label
	_atom_site_type_symbol
	_atom_site_fract_x
	_atom_site_fract_y
	_atom_site_fract_z
	H0	H	0.385700	0.848948	0.741651
	H1	H	0.604695	0.162248	0.743628
	H2	H	0.606011	0.849441	0.293669
	H3	H	0.388277	0.163081	0.294453
	H4	H	0.718260	0.399049	0.860256
	H5	H	0.720588	0.613812	0.176033
	H6	H	0.273463	0.612212	0.862361
	H7	H	0.270669	0.394380	0.175063
	H8	H	0.838639	0.729241	0.409408
	H9	H	0.153657	0.730001	0.624013
	H10	H	0.838611	0.282762	0.627599
	H11	H	0.151608	0.280589	0.409145
	H12	H	0.839150	0.399210	0.742707
	H13	H	0.153166	0.615953	0.742023
	H14	H	0.839974	0.615764	0.291540
	H15	H	0.152520	0.396884	0.294412
	H16	H	0.386931	0.730440	0.863097
	H17	H	0.608466	0.733184	0.173954
	H18	H	0.603720	0.282136	0.861283
	H19	H	0.389259	0.281584	0.176211
	H20	H	0.718776	0.848356	0.411303
	H21	H	0.723287	0.161793	0.630698
	H22	H	0.269752	0.849747	0.625235
	H23	H	0.270347	0.162070	0.407180
	H24	H	0.887579	0.348931	0.242835
	H25	H	0.106519	0.662401	0.243813
	H26	H	0.104626	0.350898	0.793454
	H27	H	0.889500	0.664755	0.796895
	H28	H	0.220385	0.896429	0.361055
	H29	H	0.220607	0.115330	0.672955
	H30	H	0.767330	0.118093	0.362936
	H31	H	0.771811	0.896976	0.674240
	H32	H	0.337890	0.225323	0.915210
	H33	H	0.653726	0.230632	0.127910
	H34	H	0.338801	0.781892	0.126648
	H35	H	0.652040	0.781585	0.909245
	H36	H	0.338628	0.898032	0.242656
	H37	H	0.651427	0.117072	0.245680
	H38	H	0.338072	0.112064	0.796242
	H39	H	0.651069	0.897232	0.792971
	H40	H	0.881747	0.235863	0.364139
	H41	H	0.103665	0.229510	0.674732
	H42	H	0.104735	0.781798	0.360373
	H43	H	0.888279	0.781661	0.674120
	H44	H	0.217653	0.348654	0.912660
	H45	H	0.223708	0.661836	0.129981
	H46	H	0.773393	0.347764	0.125026
	H47	H	0.773464	0.664368	0.912684
	H48	H	0.407257	0.118872	0.605626
	H49	H	0.580363	0.893624	0.607655
	H50	H	0.577888	0.114007	0.437869
	H51	H	0.407697	0.893573	0.431195
	H52	H	0.586160	0.419133	0.131811
	H53	H	0.579349	0.596804	0.907049
	H54	H	0.411393	0.593430	0.131616
	H55	H	0.407269	0.419982	0.906603
	H56	H	0.105100	0.586596	0.432588
	H57	H	0.883234	0.595867	0.606705
	H58	H	0.107604	0.417090	0.604336
	H59	H	0.884192	0.422499	0.431449
	H60	H	0.107051	0.421624	0.605189
	H61	H	0.883551	0.594234	0.606382
	H62	H	0.111342	0.595720	0.424610
	H63	H	0.884196	0.420530	0.430579
	H64	H	0.409323	0.590802	0.130979
	H65	H	0.588119	0.595586	0.904489
	H66	H	0.582161	0.419650	0.129020
	H67	H	0.410495	0.414756	0.906613
	H68	H	0.586825	0.119133	0.434113
	H69	H	0.581293	0.895083	0.603144
	H70	H	0.407821	0.118903	0.606280
	H71	H	0.407951	0.893404	0.430838
	H72	H	0.912317	0.616862	0.106987
	H73	H	0.087589	0.392652	0.105800
	H74	H	0.082960	0.618259	0.933466
	H75	H	0.905777	0.391423	0.926952
	H76	H	0.080718	0.917157	0.628808
	H77	H	0.076452	0.090608	0.408049
	H78	H	0.907965	0.092162	0.629744
	H79	H	0.908292	0.916334	0.404635
	H80	H	0.606328	0.087637	0.932330
	H81	H	0.383743	0.089589	0.110514
	H82	H	0.605206	0.922669	0.102801
	H83	H	0.380068	0.917688	0.922659
	H84	H	0.608825	0.921703	0.109405
	H85	H	0.381427	0.099254	0.107266
	H86	H	0.610728	0.092147	0.924180
	H87	H	0.381962	0.910877	0.934857
	H88	H	0.910422	0.091588	0.628633
	H89	H	0.080784	0.100648	0.402957
	H90	H	0.083750	0.919340	0.629626
	H91	H	0.905088	0.920682	0.405335
	H92	H	0.086995	0.620068	0.932149
	H93	H	0.080393	0.393408	0.110417
	H94	H	0.908864	0.616797	0.101367
	H95	H	0.909602	0.394322	0.929916
	H96	H	0.408070	0.118544	0.605401
	H97	H	0.585162	0.893511	0.605743
	H98	H	0.577809	0.118432	0.427993
	H99	H	0.408293	0.893990	0.430616
	H100	H	0.583053	0.415087	0.130929
	H101	H	0.583229	0.588961	0.908905
	H102	H	0.412812	0.590355	0.130388
	H103	H	0.404433	0.414077	0.904881
	H104	H	0.108001	0.599828	0.437138
	H105	H	0.882852	0.594464	0.607810
	H106	H	0.108811	0.419407	0.608408
	H107	H	0.883924	0.420845	0.433003
	H108	H	0.905831	0.619309	0.106540
	H109	H	0.080680	0.396565	0.102381
	H110	H	0.083622	0.619846	0.929469
	H111	H	0.905271	0.392533	0.931719
	H112	H	0.081316	0.921048	0.627909
	H113	H	0.087748	0.091036	0.403787
	H114	H	0.909807	0.093833	0.629911
	H115	H	0.910630	0.920967	0.406667
	H116	H	0.610390	0.097792	0.933068
	H117	H	0.385932	0.092695	0.101335
	H118	H	0.608509	0.916468	0.104094
	H119	H	0.386192	0.924146	0.933634
	C120	C	0.373421	0.014854	0.638965
	C121	C	0.616978	0.997439	0.640155
	C122	C	0.616434	0.014178	0.397618
	C123	C	0.374046	0.997273	0.396931
	C124	C	0.617122	0.384550	0.026741
	C125	C	0.618371	0.628205	1.009975
	C126	C	0.376206	0.625795	0.027708
	C127	C	0.374250	0.382803	1.010065
	C128	C	0.004756	0.628142	0.396264
	C129	C	0.987147	0.628783	0.639823
	C130	C	0.004359	0.385648	0.640284
	C131	C	0.987016	0.385497	0.397241
	C132	C	0.874836	0.514196	0.139391
	C133	C	0.118017	0.497285	0.140723
	C134	C	0.117213	0.515189	0.898102
	C135	C	0.874060	0.497796	0.897056
	C136	C	0.116784	0.884741	0.525552
	C137	C	0.116006	0.127708	0.508686
	C138	C	0.873271	0.128171	0.526883
	C139	C	0.874649	0.884966	0.509235
	C140	C	0.504706	0.125957	0.897302
	C141	C	0.487780	0.127683	0.140484
	C142	C	0.504049	0.885554	0.139620
	C143	C	0.486255	0.883640	0.896360
	C144	C	0.368791	0.896502	0.700998
	C145	C	0.622102	0.115224	0.702994
	C146	C	0.622506	0.896787	0.334327
	C147	C	0.370479	0.115609	0.334756
	C148	C	0.677919	0.381493	0.907740
	C149	C	0.680489	0.631984	0.128170
	C150	C	0.313738	0.630068	0.909666
	C151	C	0.312205	0.378227	0.128029
	C152	C	0.886084	0.689379	0.391749
	C153	C	0.106142	0.689758	0.642511
	C154	C	0.886036	0.323703	0.644693
	C155	C	0.104611	0.321823	0.392316
	C156	C	0.886242	0.381564	0.702328
	C157	C	0.105763	0.632954	0.701456
	C158	C	0.887082	0.632891	0.332818
	C159	C	0.105411	0.380327	0.335447
	C160	C	0.370516	0.688721	0.910077
	C161	C	0.624330	0.691544	0.127426
	C162	C	0.620900	0.323059	0.908416
	C163	C	0.371514	0.321855	0.128656
	C164	C	0.678798	0.896189	0.393363
	C165	C	0.681218	0.114714	0.646500
	C166	C	0.310447	0.897015	0.643354
	C167	C	0.311670	0.115125	0.391194
	C168	C	0.870629	0.395910	0.201972
	C169	C	0.123616	0.615171	0.203350
	C170	C	0.121200	0.397606	0.835103
	C171	C	0.871367	0.617094	0.836785
	C172	C	0.179145	0.880136	0.407719
	C173	C	0.179191	0.132071	0.626147
	C174	C	0.808853	0.134566	0.410135
	C175	C	0.812715	0.880051	0.627223
	C176	C	0.385823	0.186542	0.895314
	C177	C	0.606162	0.189913	0.145012
	C178	C	0.386056	0.822584	0.144039
	C179	C	0.604505	0.822094	0.891992
	C180	C	0.385914	0.880395	0.201847
	C181	C	0.605348	0.132972	0.203520
	C182	C	0.385582	0.129581	0.836753
	C183	C	0.604111	0.879644	0.833880
	C184	C	0.865914	0.193555	0.410679
	C185	C	0.120762	0.189021	0.627126
	C186	C	0.121567	0.822534	0.407696
	C187	C	0.870657	0.822528	0.627008
	C188	C	0.178062	0.396619	0.894049
	C189	C	0.182113	0.614742	0.146418
	C190	C	0.813325	0.395593	0.143547
	C191	C	0.813116	0.616559	0.894149
	C192	C	0.400057	0.097238	0.613037
	C193	C	0.589976	0.915434	0.613237
	C194	C	0.588742	0.095940	0.425357
	C195	C	0.400352	0.915029	0.423361
	C196	C	0.591266	0.410489	0.109131
	C197	C	0.591179	0.601541	0.928269
	C198	C	0.403432	0.599248	0.109576
	C199	C	0.399954	0.408883	0.927531
	C200	C	0.086626	0.601710	0.423281
	C201	C	0.904613	0.602425	0.614166
	C202	C	0.086329	0.411938	0.613652
	C203	C	0.905446	0.413077	0.424186
	C204	C	0.901456	0.596281	0.112723
	C205	C	0.090755	0.415509	0.113912
	C206	C	0.091851	0.597906	0.924358
	C207	C	0.899604	0.414578	0.922112
	C208	C	0.089765	0.911582	0.607418
	C209	C	0.089282	0.101685	0.426525
	C210	C	0.901348	0.100468	0.608115
	C211	C	0.900524	0.911779	0.427203
	C212	C	0.587413	0.100077	0.922800
	C213	C	0.405362	0.101329	0.113940
	C214	C	0.586043	0.912351	0.113149
	C215	C	0.404153	0.909979	0.922818
	Zn216	Zn	0.494876	0.005845	0.767985
	Zn217	Zn	0.495853	0.006209	0.268632
	Zn218	Zn	0.745836	0.505417	0.018592
	Zn219	Zn	0.246334	0.505599	0.019178
	Zn220	Zn	-0.004203	0.756403	0.517103
	Zn221	Zn	-0.004703	0.256806	0.518724
	Zn222	Zn	-0.003777	0.507580	0.768669
	Zn223	Zn	-0.003748	0.506400	0.268635
	Zn224	Zn	0.496150	0.756016	0.019595
	Zn225	Zn	0.496572	0.254670	0.018357
	Zn226	Zn	0.745317	0.005892	0.518328
	Zn227	Zn	0.244836	0.005891	0.516862
	N228	N	0.407140	0.971023	0.698531
	N229	N	0.583020	0.041281	0.699175
	N230	N	0.584785	0.971592	0.336677
	N231	N	0.408670	0.041312	0.338200
	N232	N	0.675865	0.418887	0.982501
	N233	N	0.676689	0.593099	0.054258
	N234	N	0.316940	0.591851	0.983963
	N235	N	0.313799	0.415607	0.053176
	N236	N	0.960070	0.686480	0.430575
	N237	N	0.031352	0.687456	0.605138
	N238	N	0.960371	0.326023	0.606735
	N239	N	0.029855	0.324651	0.429921
	N240	N	0.960901	0.419287	0.699942
	N241	N	0.030805	0.595771	0.699782
	N242	N	0.961821	0.595635	0.335645
	N243	N	0.031401	0.418966	0.338225
	N244	N	0.408530	0.686361	0.984460
	N245	N	0.586638	0.689583	0.052736
	N246	N	0.583796	0.324774	0.983233
	N247	N	0.409361	0.324503	0.054238
	N248	N	0.675318	0.970362	0.431815
	N249	N	0.678348	0.040346	0.608164
	N250	N	0.313311	0.971456	0.605406
	N251	N	0.313682	0.040520	0.428989
	N252	N	0.908213	0.470858	0.199779
	N253	N	0.084421	0.541210	0.199942
	N254	N	0.084179	0.472479	0.837452
	N255	N	0.908287	0.541985	0.838017
	N256	N	0.176357	0.917921	0.482111
	N257	N	0.176583	0.094825	0.551369
	N258	N	0.813262	0.094689	0.483524
	N259	N	0.815008	0.918285	0.552921
	N260	N	0.460928	0.184322	0.932041
	N261	N	0.531872	0.186785	0.106625
	N262	N	0.460635	0.825606	0.106068
	N263	N	0.530142	0.824289	0.930016
	N264	N	0.460178	0.918608	0.199300
	N265	N	0.530672	0.095361	0.200961
	N266	N	0.460742	0.092989	0.837481
	N267	N	0.529454	0.917164	0.836372
	N268	N	0.905224	0.189727	0.484274
	N269	N	0.082239	0.186497	0.553044
	N270	N	0.083370	0.825310	0.482056
	N271	N	0.908162	0.825364	0.552616
	N272	N	0.175444	0.470608	0.932707
	N273	N	0.179126	0.540231	0.108485
	N274	N	0.815560	0.470101	0.105699
	N275	N	0.814552	0.541230	0.930516
	O276	O	-0.216329	-0.205189	0.040669
	H277	H	-0.223952	-0.181043	0.014959
	H278	H	-0.249859	-0.221299	0.032148
	O279	O	0.817286	-0.165797	1.200260
	H280	H	0.807520	-0.181225	1.147164
	H281	H	0.870744	-0.179580	1.211314
	O282	O	1.019255	0.792216	0.798745
	H283	H	1.037525	0.776971	0.796919
	H284	H	1.044015	0.779161	0.787770
	O285	O	0.715406	0.530778	0.734716
	H286	H	0.707452	0.574093	0.731945
	H287	H	0.742818	0.544305	0.763442
	O288	O	1.097431	1.146456	-0.153119
	H289	H	1.077032	1.141013	-0.153039
	H290	H	1.087180	1.156459	-0.163588
	O291	O	0.562175	0.686602	0.451197
	H292	H	0.535925	0.669344	0.444522
	H293	H	0.553108	0.687966	0.431043
	O294	O	0.062534	-0.082713	1.038509
	H295	H	0.058774	-0.064607	1.051752
	H296	H	0.075085	-0.094064	1.043473
	O297	O	0.636770	0.333943	0.353240
	H298	H	0.633253	0.333572	0.392267
	H299	H	0.646292	0.378912	0.341998
	O300	O	0.476216	0.286431	0.732991
	H301	H	0.459903	0.279526	0.724956
	H302	H	0.456275	0.268576	0.752633
	O303	O	0.533081	0.473586	0.733100
	H304	H	0.545167	0.457405	0.732227
	H305	H	0.556637	0.463406	0.735205
	O306	O	1.055820	0.784798	0.088780
	H307	H	1.079003	0.785143	0.061710
	H308	H	1.042592	0.793453	0.061469
	O309	O	0.280811	0.565583	0.583068
	H310	H	0.283567	0.574485	0.563439
	H311	H	0.272139	0.547706	0.565314
	O312	O	-0.219245	1.043076	0.806831
	H313	H	-0.183749	1.049399	0.808077
	H314	H	-0.246717	1.051128	0.776559
	O315	O	0.293322	0.715872	0.498006
	H316	H	0.286141	0.718988	0.511119
	H317	H	0.316444	0.735693	0.515629
	O318	O	0.822456	0.194251	-0.104961
	H319	H	0.828368	0.190067	-0.079781
	H320	H	0.812662	0.191130	-0.109717
	O321	O	-0.051674	-0.194709	-0.033235
	H322	H	-0.046969	-0.190780	-0.060748
	H323	H	-0.087964	-0.189798	-0.032017
	O324	O	1.052043	0.203003	-0.153344
	H325	H	1.053524	0.208997	-0.135855
	H326	H	1.047373	0.203895	-0.157454
	O327	O	0.522343	0.718958	0.726949
	H328	H	0.521626	0.749204	0.761140
	H329	H	0.490090	0.682821	0.727986
	O330	O	0.705994	1.714822	-0.458796
	H331	H	0.704764	1.721258	-0.479707
	H332	H	0.710355	1.720265	-0.475299
	O333	O	0.640890	0.375347	0.616672
	H334	H	0.641576	0.378064	0.608634
	H335	H	0.643949	0.397560	0.632710
	O336	O	-0.062161	0.074827	0.246112
	H337	H	-0.042214	0.037639	0.241661
	H338	H	-0.100124	0.053378	0.244067
	O339	O	-0.206988	1.169289	1.032869
	H340	H	-0.210680	1.161296	1.055301
	H341	H	-0.180812	1.179537	1.032354
	O342	O	-0.219501	0.913085	0.935710
	H343	H	-0.230573	0.925638	0.892276
	H344	H	-0.213843	0.951155	0.955698
	O345	O	0.312360	0.314660	-0.288739
	H346	H	0.316739	0.347388	-0.283130
	H347	H	0.291655	0.307117	-0.310275
	O348	O	0.529634	0.398961	0.543744
	H349	H	0.532643	0.399515	0.578720
	H350	H	0.552915	0.407453	0.543010
	O351	O	0.281257	1.292734	0.540611
	H352	H	0.285741	1.273134	0.539967
	H353	H	0.282111	1.269484	0.532724
	O354	O	0.178090	0.897752	-0.170799
	H355	H	0.189436	0.925235	-0.185783
	H356	H	0.157673	0.903206	-0.157746
	O357	O	-0.023013	-0.206061	1.229792
	H358	H	0.000402	-0.217202	1.183373
	H359	H	-0.022438	-0.244552	1.258836
	O360	O	0.299286	0.459750	0.480212
	H361	H	0.294113	0.438742	0.470369
	H362	H	0.309124	0.446276	0.460411
	O363	O	-0.291912	0.290140	0.502583
	H364	H	-0.275981	0.292582	0.500315
	H365	H	-0.276217	0.288218	0.498270
	O366	O	0.173547	0.216175	1.018208
	H367	H	0.185770	0.236427	1.023204
	H368	H	0.169685	0.199165	1.024286
	O369	O	0.705965	0.558274	0.440969
	H370	H	0.711676	0.560325	0.433762
	H371	H	0.690204	0.556932	0.440550
	O372	O	0.777762	-0.009636	1.239844
	H373	H	0.760639	-0.034886	1.256331
	H374	H	0.769867	-0.044263	1.244650
	O375	O	0.411211	0.440679	0.320392
	H376	H	0.426153	0.447972	0.335854
	H377	H	0.430486	0.407512	0.324657
	O378	O	0.635993	0.464822	0.569522
	H379	H	0.644021	0.469486	0.573323
	H380	H	0.638209	0.453406	0.596738
	O381	O	1.186893	0.019082	-0.119726
	H382	H	1.190330	0.019799	-0.134540
	H383	H	1.181718	0.015634	-0.124589
	O384	O	0.322460	0.683044	0.339322
	H385	H	0.318020	0.657255	0.361153
	H386	H	0.307964	0.669316	0.365165
	O387	O	0.463577	-0.465383	0.462481
	H388	H	0.438522	-0.470188	0.466352
	H389	H	0.476043	-0.485018	0.488598
	O390	O	-0.316922	-0.307072	-0.295754
	H391	H	-0.370977	-0.296988	-0.287482
	H392	H	-0.307045	-0.298304	-0.350411
	O393	O	1.015403	1.223343	1.235112
	H394	H	0.987963	1.175392	1.247042
	H395	H	1.018225	1.254665	1.279456
	O396	O	1.289130	0.478065	0.724284
	H397	H	1.280295	0.484908	0.704941
	H398	H	1.268768	0.483314	0.734318
	O399	O	1.205719	0.026896	1.229780
	H400	H	1.193422	0.043811	1.225242
	H401	H	1.219987	0.021385	1.263088
	O402	O	1.002850	1.003068	0.804187
	H403	H	0.989905	0.985126	0.806634
	H404	H	1.000492	1.017082	0.804896
	O405	O	1.176629	1.186451	0.194163
	H406	H	1.178354	1.167702	0.176215
	H407	H	1.132954	1.196674	0.201993
	O408	O	1.050572	-0.047566	0.225901
	H409	H	1.049275	-0.078479	0.229319
	H410	H	1.056051	-0.051404	0.211678
	O411	O	0.915709	1.154449	-0.008425
	H412	H	0.916719	1.141743	0.015435
	H413	H	0.908099	1.169556	0.010680
	O414	O	0.453001	0.726494	0.561910
	H415	H	0.473033	0.722702	0.580373
	H416	H	0.469119	0.713520	0.563418
	O417	O	0.546015	0.545194	0.307610
	H418	H	0.535149	0.564905	0.304900
	H419	H	0.519811	0.555372	0.318179
	O420	O	0.429868	0.589310	0.720470
	H421	H	0.417097	0.568292	0.713957
	H422	H	0.436119	0.557471	0.718423
	O423	O	0.453869	0.293591	0.480430
	H424	H	0.490489	0.297531	0.498129
	H425	H	0.466279	0.291211	0.459660
	O426	O	0.477525	0.722128	0.299557
	H427	H	0.425315	0.708474	0.313705
	H428	H	0.470843	0.759463	0.264990
	O429	O	0.280597	0.525323	0.302287
	H430	H	0.248569	0.528244	0.264403
	H431	H	0.316531	0.507109	0.303587
	O432	O	0.496108	0.297022	0.337735
	H433	H	0.506364	0.275180	0.326525
	H434	H	0.528192	0.298950	0.346600
	O435	O	0.139797	1.004315	0.034370
	H436	H	0.135880	1.017024	0.022023
	H437	H	0.139660	1.004518	0.055665
	O438	O	0.094144	-0.018480	0.006251
	H439	H	0.086341	0.001541	0.032028
	H440	H	0.081292	-0.014211	-0.000831
	O441	O	0.983258	0.206015	0.029762
	H442	H	0.978389	0.209395	0.056691
	H443	H	1.005376	0.209644	0.031279
	O444	O	-0.018755	0.983397	0.862152
	H445	H	-0.028908	0.983071	0.849030
	H446	H	-0.021816	0.976691	0.874178
	O447	O	0.703326	0.457187	0.312598
	H448	H	0.719559	0.469635	0.301333
	H449	H	0.677952	0.471889	0.298666
	O450	O	0.836433	0.052238	0.020607
	H451	H	0.843335	0.059187	0.024853
	H452	H	0.839154	0.068080	0.042197
	O453	O	0.176957	-0.178240	0.934670
	H454	H	0.173717	-0.163849	0.950326
	H455	H	0.198248	-0.160798	0.930085
