data_Molecule from HDF5

_cell_length_a		16.556800
_cell_length_b		16.584365
_cell_length_c		16.603536
_cell_angle_alpha	90.055013
_cell_angle_beta	89.964661
_cell_angle_gamma	89.948362
_symmetry_space_group_name_H-M	'P 1'
_symmetry_Int_Tables_number		1

loop_
	_symmetry_equiv_pos_as_xyz
	x,y,z

loop_
	_atom_site_label
	_atom_site_type_symbol
	_atom_site_fract_x
	_atom_site_fract_y
	_atom_site_fract_z
	H0	H	0.400555	0.848796	0.743822
	H1	H	0.613349	0.157854	0.738109
	H2	H	0.618363	0.845337	0.294357
	H3	H	0.402034	0.155242	0.294169
	H4	H	0.733562	0.396103	0.861959
	H5	H	0.735583	0.609905	0.172794
	H6	H	0.287707	0.609952	0.863555
	H7	H	0.286090	0.393833	0.171921
	H8	H	0.857289	0.726313	0.407389
	H9	H	0.163504	0.727641	0.627418
	H10	H	0.853040	0.282273	0.621410
	H11	H	0.165929	0.277314	0.411832
	H12	H	0.854150	0.396730	0.739643
	H13	H	0.164562	0.609333	0.742824
	H14	H	0.856334	0.608760	0.293697
	H15	H	0.165214	0.391656	0.293977
	H16	H	0.402239	0.726923	0.864448
	H17	H	0.620321	0.727364	0.172776
	H18	H	0.618927	0.278399	0.863664
	H19	H	0.403721	0.278226	0.172249
	H20	H	0.733322	0.845461	0.411265
	H21	H	0.731143	0.157328	0.622521
	H22	H	0.285901	0.847791	0.626662
	H23	H	0.288741	0.157492	0.412907
	H24	H	0.907744	0.344580	0.236780
	H25	H	0.122672	0.654151	0.246125
	H26	H	0.118086	0.344942	0.796309
	H27	H	0.907393	0.658366	0.796866
	H28	H	0.233397	0.894366	0.362836
	H29	H	0.230833	0.105859	0.675185
	H30	H	0.788473	0.106716	0.362641
	H31	H	0.789128	0.895645	0.674269
	H32	H	0.355282	0.225395	0.912413
	H33	H	0.667620	0.222039	0.123109
	H34	H	0.353278	0.781106	0.122647
	H35	H	0.666367	0.779853	0.911527
	H36	H	0.353299	0.897501	0.238292
	H37	H	0.665509	0.107510	0.241687
	H38	H	0.354340	0.109838	0.796445
	H39	H	0.665745	0.895806	0.794979
	H40	H	0.905964	0.221379	0.362122
	H41	H	0.113669	0.220695	0.675932
	H42	H	0.116921	0.779057	0.362728
	H43	H	0.904617	0.778514	0.673004
	H44	H	0.234909	0.346218	0.910927
	H45	H	0.235080	0.656964	0.126502
	H46	H	0.792727	0.345020	0.119294
	H47	H	0.792272	0.659977	0.914705
	H48	H	0.418515	0.116255	0.610408
	H49	H	0.598312	0.887554	0.610918
	H50	H	0.604365	0.115286	0.428403
	H51	H	0.426289	0.891370	0.430913
	H52	H	0.599251	0.406985	0.131417
	H53	H	0.602065	0.592060	0.905791
	H54	H	0.428548	0.583644	0.124998
	H55	H	0.423283	0.412000	0.906418
	H56	H	0.120071	0.584067	0.431967
	H57	H	0.899058	0.592216	0.602653
	H58	H	0.124279	0.410804	0.611287
	H59	H	0.899607	0.411440	0.432047
	H60	H	0.122996	0.408587	0.605828
	H61	H	0.900885	0.584669	0.603725
	H62	H	0.122319	0.588693	0.430486
	H63	H	0.899585	0.414672	0.427425
	H64	H	0.427965	0.596020	0.129307
	H65	H	0.599557	0.587966	0.908326
	H66	H	0.607300	0.414832	0.131321
	H67	H	0.423111	0.417365	0.907877
	H68	H	0.592661	0.111109	0.423828
	H69	H	0.594490	0.891420	0.605882
	H70	H	0.424354	0.112538	0.608315
	H71	H	0.419161	0.889498	0.432971
	H72	H	0.928198	0.611884	0.104382
	H73	H	0.094209	0.392152	0.106813
	H74	H	0.093167	0.610153	0.931725
	H75	H	0.919623	0.389473	0.928670
	H76	H	0.100594	0.914573	0.629526
	H77	H	0.102143	0.094237	0.405077
	H78	H	0.917961	0.090985	0.630917
	H79	H	0.911995	0.909245	0.402581
	H80	H	0.623269	0.092602	0.927854
	H81	H	0.398897	0.088712	0.109198
	H82	H	0.621029	0.915858	0.106690
	H83	H	0.399072	0.914942	0.929439
	H84	H	0.622670	0.912716	0.107115
	H85	H	0.398095	0.094653	0.105922
	H86	H	0.620717	0.090046	0.932034
	H87	H	0.397705	0.912647	0.930696
	H88	H	0.920954	0.089423	0.630355
	H89	H	0.102014	0.085623	0.407375
	H90	H	0.095496	0.918015	0.626999
	H91	H	0.922196	0.923370	0.410426
	H92	H	0.102366	0.612080	0.934710
	H93	H	0.097362	0.393035	0.100236
	H94	H	0.918152	0.615142	0.104486
	H95	H	0.920518	0.388556	0.926473
	H96	H	0.419234	0.113340	0.603734
	H97	H	0.602028	0.888818	0.604012
	H98	H	0.596691	0.108591	0.436139
	H99	H	0.420663	0.888415	0.425897
	H100	H	0.597618	0.416805	0.127038
	H101	H	0.597043	0.592762	0.906956
	H102	H	0.417409	0.587833	0.130863
	H103	H	0.427721	0.414504	0.908272
	H104	H	0.120337	0.587931	0.435030
	H105	H	0.898006	0.589198	0.609308
	H106	H	0.122000	0.414560	0.606908
	H107	H	0.896797	0.409752	0.427371
	H108	H	0.924030	0.615861	0.113560
	H109	H	0.101497	0.390044	0.105503
	H110	H	0.099456	0.614434	0.925676
	H111	H	0.922526	0.390304	0.927942
	H112	H	0.094291	0.911694	0.629032
	H113	H	0.094597	0.090419	0.408767
	H114	H	0.920769	0.092127	0.630360
	H115	H	0.929804	0.906134	0.406432
	H116	H	0.621613	0.087646	0.927610
	H117	H	0.400862	0.088941	0.103683
	H118	H	0.620948	0.913674	0.104234
	H119	H	0.400261	0.914624	0.932207
	C120	C	0.387949	0.011321	0.640436
	C121	C	0.630406	0.992798	0.638936
	C122	C	0.631201	0.009085	0.396702
	C123	C	0.388900	0.992789	0.397406
	C124	C	0.633407	0.380413	0.026748
	C125	C	0.632892	0.624308	1.009713
	C126	C	0.390384	0.623227	0.026673
	C127	C	0.390371	0.380988	1.009784
	C128	C	0.019403	0.621855	0.396953
	C129	C	1.001727	0.622369	0.639062
	C130	C	0.019018	0.379849	0.639649
	C131	C	1.001868	0.378916	0.396678
	C132	C	0.891141	0.510550	0.138819
	C133	C	0.132493	0.493154	0.139442
	C134	C	0.132134	0.509633	0.896984
	C135	C	0.889525	0.493603	0.896240
	C136	C	0.131033	0.880661	0.526362
	C137	C	0.131781	0.122731	0.510193
	C138	C	0.887987	0.122714	0.527231
	C139	C	0.889036	0.879839	0.509381
	C140	C	0.518792	0.123233	0.897116
	C141	C	0.502206	0.122969	0.139353
	C142	C	0.518443	0.881039	0.138803
	C143	C	0.501755	0.880981	0.897197
	C144	C	0.383195	0.895081	0.702756
	C145	C	0.632208	0.110891	0.698249
	C146	C	0.635754	0.892227	0.334985
	C147	C	0.384886	0.109200	0.335539
	C148	C	0.693584	0.377857	0.909361
	C149	C	0.694871	0.627773	0.126319
	C150	C	0.328417	0.627457	0.910359
	C151	C	0.327755	0.376701	0.125940
	C152	C	0.903760	0.684996	0.390863
	C153	C	0.117953	0.685598	0.644174
	C154	C	0.900565	0.321409	0.640767
	C155	C	0.118861	0.317476	0.393537
	C156	C	0.901069	0.378270	0.699579
	C157	C	0.118267	0.626939	0.701309
	C158	C	0.903281	0.626447	0.334081
	C159	C	0.118642	0.374395	0.335065
	C160	C	0.385432	0.685835	0.910720
	C161	C	0.637504	0.686209	0.126102
	C162	C	0.636324	0.319416	0.909899
	C163	C	0.386081	0.319273	0.126076
	C164	C	0.692825	0.892167	0.393446
	C165	C	0.690426	0.110609	0.640832
	C166	C	0.326405	0.894419	0.644355
	C167	C	0.328266	0.109956	0.394455
	C168	C	0.889384	0.392003	0.197271
	C169	C	0.138632	0.608536	0.203714
	C170	C	0.135696	0.392293	0.836334
	C171	C	0.888664	0.611769	0.837104
	C172	C	0.192905	0.876706	0.409753
	C173	C	0.190960	0.124374	0.628132
	C174	C	0.828382	0.124637	0.409653
	C175	C	0.828904	0.877056	0.627014
	C176	C	0.401903	0.184737	0.894581
	C177	C	0.620189	0.182557	0.141750
	C178	C	0.400501	0.820877	0.141087
	C179	C	0.619315	0.820018	0.893589
	C180	C	0.400389	0.879019	0.198442
	C181	C	0.619346	0.125554	0.200439
	C182	C	0.401546	0.127045	0.836824
	C183	C	0.618995	0.877743	0.835717
	C184	C	0.886662	0.181994	0.409389
	C185	C	0.132770	0.181633	0.628411
	C186	C	0.134818	0.819223	0.409687
	C187	C	0.886393	0.818985	0.626546
	C188	C	0.193722	0.392703	0.893884
	C189	C	0.194625	0.609833	0.144122
	C190	C	0.831998	0.392167	0.139144
	C191	C	0.831554	0.612474	0.895679
	C192	C	0.413290	0.092713	0.614784
	C193	C	0.605490	0.910717	0.614184
	C194	C	0.605086	0.090414	0.422231
	C195	C	0.414739	0.911170	0.422664
	C196	C	0.608362	0.405630	0.108586
	C197	C	0.606821	0.598249	0.928464
	C198	C	0.416998	0.596581	0.107399
	C199	C	0.417028	0.407220	0.928611
	C200	C	0.100138	0.594645	0.424495
	C201	C	0.920607	0.596030	0.612660
	C202	C	0.101551	0.404310	0.615001
	C203	C	0.919979	0.404801	0.421806
	C204	C	0.916107	0.592701	0.114500
	C205	C	0.105427	0.412696	0.112164
	C206	C	0.105868	0.590877	0.923205
	C207	C	0.913858	0.410945	0.920552
	C208	C	0.104480	0.907227	0.607318
	C209	C	0.106911	0.097412	0.428293
	C210	C	0.912843	0.098034	0.609132
	C211	C	0.914235	0.905347	0.427688
	C212	C	0.600678	0.097358	0.922228
	C213	C	0.420566	0.097906	0.113917
	C214	C	0.600347	0.906717	0.113433
	C215	C	0.420247	0.906618	0.923467
	Zn216	Zn	0.509424	0.002183	0.768209
	Zn217	Zn	0.510036	0.001080	0.268212
	Zn218	Zn	0.761483	0.502723	0.018024
	Zn219	Zn	0.261253	0.501886	0.017780
	Zn220	Zn	0.010052	0.750879	0.517967
	Zn221	Zn	0.010169	0.250811	0.518712
	Zn222	Zn	0.010797	0.501101	0.768076
	Zn223	Zn	0.011407	0.500759	0.268628
	Zn224	Zn	0.510896	0.752349	0.018373
	Zn225	Zn	0.511586	0.252134	0.018288
	Zn226	Zn	0.760065	0.000700	0.518454
	Zn227	Zn	0.260078	0.001604	0.518546
	N228	N	0.420801	0.968651	0.700444
	N229	N	0.595681	0.036531	0.697157
	N230	N	0.598086	0.965898	0.336840
	N231	N	0.421987	0.035192	0.337211
	N232	N	0.691982	0.415182	0.983197
	N233	N	0.692172	0.589961	0.052785
	N234	N	0.331249	0.589174	0.983516
	N235	N	0.330405	0.414294	0.052510
	N236	N	0.977081	0.682271	0.429299
	N237	N	0.044441	0.682847	0.605993
	N238	N	0.974999	0.322213	0.604356
	N239	N	0.045080	0.319936	0.431065
	N240	N	0.975904	0.413796	0.699080
	N241	N	0.045204	0.588271	0.698086
	N242	N	0.976443	0.587798	0.337734
	N243	N	0.044740	0.411875	0.336795
	N244	N	0.423258	0.683274	0.984188
	N245	N	0.599747	0.684280	0.052638
	N246	N	0.599696	0.320828	0.984072
	N247	N	0.424464	0.321988	0.052843
	N248	N	0.690370	0.965931	0.431023
	N249	N	0.689851	0.036017	0.604900
	N250	N	0.329142	0.967662	0.606257
	N251	N	0.330463	0.036444	0.432114
	N252	N	0.924971	0.466869	0.197616
	N253	N	0.100659	0.534930	0.200936
	N254	N	0.098117	0.466178	0.837968
	N255	N	0.923790	0.536619	0.837151
	N256	N	0.190863	0.914026	0.483540
	N257	N	0.190785	0.088813	0.553473
	N258	N	0.829045	0.088495	0.483992
	N259	N	0.830250	0.914175	0.553194
	N260	N	0.476153	0.182599	0.931372
	N261	N	0.546260	0.181208	0.104567
	N262	N	0.475220	0.821818	0.104985
	N263	N	0.545298	0.821769	0.931136
	N264	N	0.474877	0.915416	0.197297
	N265	N	0.544976	0.089285	0.199268
	N266	N	0.475326	0.089419	0.838314
	N267	N	0.544864	0.914679	0.837509
	N268	N	0.923196	0.180849	0.483468
	N269	N	0.096717	0.180876	0.553811
	N270	N	0.097031	0.821368	0.483261
	N271	N	0.922901	0.820519	0.552406
	N272	N	0.191966	0.466908	0.930626
	N273	N	0.191142	0.537003	0.104862
	N274	N	0.832594	0.466986	0.103697
	N275	N	0.831480	0.537632	0.931036
	O276	O	-0.285221	0.704179	-0.273822
	H277	H	-0.298527	0.699436	-0.299209
	H278	H	-0.292982	0.707118	-0.255248
	O279	O	0.481083	0.724616	0.292970
	H280	H	0.483614	0.714592	0.288815
	H281	H	0.471199	0.742236	0.270487
	O282	O	1.656143	0.320302	0.449637
	H283	H	1.677010	0.304910	0.447908
	H284	H	1.664605	0.338902	0.431894
	O285	O	0.727892	0.458305	0.388580
	H286	H	0.743208	0.467757	0.383896
	H287	H	0.745475	0.477653	0.398302
	O288	O	-0.147816	0.989050	-0.077046
	H289	H	-0.145965	1.010922	-0.069236
	H290	H	-0.154411	1.001838	-0.093207
	O291	O	0.532348	0.438540	0.506671
	H292	H	0.525406	0.436753	0.495766
	H293	H	0.530578	0.436486	0.518692
	O294	O	1.268272	-0.254616	0.762116
	H295	H	1.272060	-0.250227	0.787362
	H296	H	1.257523	-0.245610	0.761527
	O297	O	0.724007	0.291063	0.307096
	H298	H	0.734623	0.270980	0.299100
	H299	H	0.728740	0.342888	0.299886
	O300	O	-0.193603	0.206020	0.811902
	H301	H	-0.199852	0.228933	0.788582
	H302	H	-0.199934	0.190145	0.845099
	O303	O	0.827621	0.186779	0.199386
	H304	H	0.837481	0.171996	0.203661
	H305	H	0.830097	0.170846	0.184439
	O306	O	0.279002	0.556608	0.573935
	H307	H	0.272901	0.574890	0.586683
	H308	H	0.286022	0.561457	0.590202
	O309	O	0.731105	0.536878	0.742952
	H310	H	0.759505	0.542448	0.764485
	H311	H	0.731956	0.550737	0.729314
	O312	O	0.661312	0.645642	0.390781
	H313	H	0.638362	0.645484	0.400255
	H314	H	0.677171	0.663661	0.383793
	O315	O	1.046594	0.807632	1.050855
	H316	H	1.026106	0.806752	1.043333
	H317	H	1.053399	0.813845	1.028037
	O318	O	0.653839	0.284536	0.531339
	H319	H	0.657985	0.275307	0.531725
	H320	H	0.666510	0.293897	0.514565
	O321	O	-0.014219	0.816113	1.062765
	H322	H	0.002802	0.818283	1.044554
	H323	H	-0.019456	0.814491	1.045649
	O324	O	0.987901	1.224407	0.028029
	H325	H	0.985827	1.214468	0.050636
	H326	H	0.998911	1.228471	0.044143
	O327	O	0.145324	0.118067	0.953991
	H328	H	0.143627	0.125252	0.952812
	H329	H	0.131992	0.117989	0.950962
	O330	O	1.009438	0.138091	0.240250
	H331	H	1.017990	0.131131	0.238396
	H332	H	1.002386	0.154417	0.259491
	O333	O	0.367402	0.279086	0.520391
	H334	H	0.386409	0.288669	0.508300
	H335	H	0.358627	0.262491	0.507032
	O336	O	0.529929	0.717597	0.734105
	H337	H	0.533601	0.728235	0.749374
	H338	H	0.523240	0.716460	0.730388
	O339	O	1.224028	-0.047672	1.027168
	H340	H	1.230067	-0.035197	1.021211
	H341	H	1.219276	-0.033561	1.040187
	O342	O	-0.621833	-0.698707	0.320814
	H343	H	-0.607534	-0.696495	0.326795
	H344	H	-0.597409	-0.686716	0.337969
	O345	O	0.569830	1.638315	0.504091
	H346	H	0.575937	1.647463	0.499761
	H347	H	0.560422	1.632748	0.503729
	O348	O	-0.553417	0.602822	0.702253
	H349	H	-0.557243	0.601548	0.713286
	H350	H	-0.555729	0.601348	0.701747
	O351	O	0.288087	0.720915	0.492378
	H352	H	0.273232	0.744706	0.492811
	H353	H	0.296213	0.721068	0.489657
	O354	O	-0.132249	-0.189161	0.871183
	H355	H	-0.132754	-0.169775	0.883611
	H356	H	-0.118983	-0.191991	0.861700
	O357	O	0.433389	0.621725	0.648192
	H358	H	0.435712	0.611569	0.647985
	H359	H	0.425554	0.629638	0.660332
	O360	O	-0.030334	-0.051589	1.069233
	H361	H	-0.034913	-0.063282	1.070466
	H362	H	-0.018252	-0.065077	1.068345
	O363	O	0.156411	-0.214275	0.023259
	H364	H	0.158718	-0.186999	0.022631
	H365	H	0.176304	-0.232332	0.023841
	O366	O	0.541809	0.318268	0.332484
	H367	H	0.565075	0.323597	0.337246
	H368	H	0.550600	0.303533	0.317410
	O369	O	1.306922	0.308061	-0.279238
	H370	H	1.308959	0.312255	-0.305138
	H371	H	1.311858	0.288829	-0.282474
	O372	O	0.794642	1.036660	-0.198709
	H373	H	0.782441	1.046540	-0.215021
	H374	H	0.799130	1.047812	-0.199599
	O375	O	0.869922	0.091283	0.056257
	H376	H	0.872828	0.080107	0.062702
	H377	H	0.876096	0.093034	0.071434
	O378	O	0.122466	0.122802	1.098126
	H379	H	0.134976	0.139488	1.109542
	H380	H	0.121209	0.119212	1.097364
	O381	O	0.374312	0.400536	0.625903
	H382	H	0.355042	0.391172	0.625950
	H383	H	0.388006	0.381097	0.628077
	O384	O	0.695962	0.313532	0.701272
	H385	H	0.686114	0.324797	0.692753
	H386	H	0.685323	0.321087	0.684837
	O387	O	1.048126	0.880899	0.135382
	H388	H	1.046322	0.881548	0.148573
	H389	H	1.051772	0.876595	0.136767
	O390	O	0.479909	0.340989	0.681529
	H391	H	0.476390	0.348554	0.689871
	H392	H	0.474599	0.330313	0.686031
	O393	O	0.410150	0.715881	0.470765
	H394	H	0.428566	0.700098	0.463841
	H395	H	0.407750	0.706001	0.472999
	O396	O	0.134346	1.219279	0.990643
	H397	H	0.129812	1.217296	0.998488
	H398	H	0.118063	1.222546	0.991715
	O399	O	0.685825	0.480143	1.588285
	H400	H	0.681228	0.474042	1.575585
	H401	H	0.673918	0.480269	1.604034
	O402	O	0.154742	0.093802	0.949505
	H403	H	0.143863	0.084326	0.955364
	H404	H	0.151135	0.099428	0.958546
	O405	O	1.131056	0.006990	1.138007
	H406	H	1.145253	0.005794	1.150212
	H407	H	1.127898	-0.002828	1.140238
	O408	O	-0.018534	-0.036979	-0.193048
	H409	H	-0.019636	-0.037654	-0.174686
	H410	H	-0.022393	-0.023713	-0.197674
	O411	O	-0.155378	0.852180	0.028158
	H412	H	-0.151368	0.859381	0.019351
	H413	H	-0.172523	0.859972	0.015584
	O414	O	0.289334	0.184185	-0.153481
	H415	H	0.280768	0.177144	-0.147223
	H416	H	0.298148	0.197832	-0.142381
	O417	O	0.555448	0.501254	0.398450
	H418	H	0.556744	0.499516	0.402892
	H419	H	0.549430	0.498418	0.380227
	O420	O	0.435391	0.345543	0.524248
	H421	H	0.440770	0.351753	0.518925
	H422	H	0.442665	0.344998	0.526484
	O423	O	-0.062943	-0.137605	1.196387
	H424	H	-0.053518	-0.149540	1.193960
	H425	H	-0.055871	-0.158593	1.192995
	O426	O	1.092926	0.200285	0.086590
	H427	H	1.093277	0.208228	0.084255
	H428	H	1.089125	0.205537	0.091351
	O429	O	0.816227	0.809417	1.212555
	H430	H	0.855569	0.804347	1.209624
	H431	H	0.811414	0.816016	1.180222
	O432	O	0.819480	-0.030720	0.232240
	H433	H	0.799956	-0.036295	0.245826
	H434	H	0.833127	-0.048034	0.230155
	O435	O	0.283224	0.724548	0.294302
	H436	H	0.279669	0.707299	0.289656
	H437	H	0.292978	0.729933	0.319615
	O438	O	0.199676	-0.185727	-0.105870
	H439	H	0.200090	-0.158809	-0.098326
	H440	H	0.194471	-0.190529	-0.075374
	O441	O	0.181823	0.133038	0.189458
	H442	H	0.197613	0.159528	0.196473
	H443	H	0.193616	0.127246	0.186432
	O444	O	0.423801	0.409404	0.295023
	H445	H	0.433341	0.392563	0.291007
	H446	H	0.406402	0.421950	0.304843
	O447	O	-0.125861	1.105210	0.903549
	H448	H	-0.132348	1.122012	0.906367
	H449	H	-0.135314	1.110135	0.896919
	O450	O	0.098132	0.980560	1.221261
	H451	H	0.080756	0.991713	1.219976
	H452	H	0.109205	0.972460	1.233120
	O453	O	0.567866	0.437694	0.751619
	H454	H	0.568163	0.446815	0.753748
	H455	H	0.582975	0.444848	0.742356
	O456	O	-0.706402	0.478295	0.737408
	H457	H	-0.717317	0.468611	0.752754
	H458	H	-0.710864	0.456225	0.738701
	O459	O	0.733270	0.714980	0.540594
	H460	H	0.743559	0.740692	0.546307
	H461	H	0.723974	0.711793	0.553350
	O462	O	0.544269	0.499288	0.315946
	H463	H	0.533420	0.493748	0.307754
	H464	H	0.566683	0.479076	0.316665
	O465	O	0.983135	0.222410	-0.197896
	H466	H	0.970847	0.227147	-0.190036
	H467	H	0.968063	0.246967	-0.217040
	O468	O	0.519273	0.523688	0.388610
	H469	H	0.519002	0.541143	0.384983
	H470	H	0.511953	0.536158	0.395428
	O471	O	0.745106	0.548029	0.452086
	H472	H	0.745822	0.557789	0.457583
	H473	H	0.744099	0.564869	0.459887
	O474	O	0.295018	0.520447	0.299347
	H475	H	0.289910	0.526029	0.306608
	H476	H	0.270571	0.526990	0.289010
	O477	O	0.281741	0.441171	1.458813
	H478	H	0.277080	0.449167	1.473625
	H479	H	0.289529	0.454314	1.471103
	O480	O	0.023359	0.789086	-0.190379
	H481	H	0.033719	0.808674	-0.202080
	H482	H	0.038369	0.782285	-0.210886
	O483	O	0.543313	0.736202	0.494787
	H484	H	0.526813	0.737292	0.497289
	H485	H	0.540427	0.730371	0.479455
	O486	O	0.112024	1.011698	-0.158005
	H487	H	0.134760	1.021478	-0.175323
	H488	H	0.098252	1.039938	-0.145030
	O489	O	0.901261	1.002404	0.131038
	H490	H	0.918824	0.990763	0.141862
	H491	H	0.906505	0.996966	0.142541
