data_Molecule from HDF5

_cell_length_a		16.187100
_cell_length_b		16.269980
_cell_length_c		16.286174
_cell_angle_alpha	89.983078
_cell_angle_beta	89.886927
_cell_angle_gamma	89.769612
_symmetry_space_group_name_H-M	'P 1'
_symmetry_Int_Tables_number		1

loop_
	_symmetry_equiv_pos_as_xyz
	x,y,z

loop_
	_atom_site_label
	_atom_site_type_symbol
	_atom_site_fract_x
	_atom_site_fract_y
	_atom_site_fract_z
	H0	H	0.408979	0.842908	0.718107
	H1	H	0.605113	0.170761	0.716686
	H2	H	0.607218	0.842390	0.288037
	H3	H	0.407534	0.170286	0.287445
	H4	H	0.722722	0.407636	0.838248
	H5	H	0.721073	0.602919	0.166486
	H6	H	0.294304	0.605486	0.838777
	H7	H	0.295132	0.409012	0.166270
	H8	H	0.843905	0.721841	0.403908
	H9	H	0.172928	0.719614	0.600338
	H10	H	0.843465	0.294841	0.601303
	H11	H	0.172202	0.291326	0.403326
	H12	H	0.844956	0.408796	0.718047
	H13	H	0.172638	0.605304	0.716067
	H14	H	0.843452	0.606058	0.288305
	H15	H	0.173074	0.406677	0.288100
	H16	H	0.409201	0.721004	0.838617
	H17	H	0.607388	0.720746	0.165614
	H18	H	0.608300	0.290847	0.839286
	H19	H	0.410377	0.293287	0.167164
	H20	H	0.722730	0.842198	0.405059
	H21	H	0.720595	0.170801	0.600434
	H22	H	0.296557	0.841223	0.599240
	H23	H	0.292905	0.170428	0.404473
	H24	H	0.909777	0.343119	0.218727
	H25	H	0.108044	0.669359	0.217942
	H26	H	0.110136	0.343074	0.786654
	H27	H	0.909381	0.670277	0.788848
	H28	H	0.223132	0.908347	0.339026
	H29	H	0.219850	0.102927	0.667840
	H30	H	0.794310	0.104354	0.338220
	H31	H	0.795374	0.909410	0.667294
	H32	H	0.343669	0.220979	0.905850
	H33	H	0.673163	0.218649	0.101183
	H34	H	0.343372	0.792292	0.101391
	H35	H	0.672967	0.792571	0.904227
	H36	H	0.343140	0.908650	0.216714
	H37	H	0.672293	0.104620	0.216641
	H38	H	0.343076	0.105581	0.790349
	H39	H	0.672483	0.907325	0.788543
	H40	H	0.908759	0.222596	0.338823
	H41	H	0.106478	0.221111	0.666529
	H42	H	0.108397	0.791141	0.339431
	H43	H	0.908727	0.791322	0.666280
	H44	H	0.223040	0.342188	0.905597
	H45	H	0.221412	0.670817	0.099539
	H46	H	0.796020	0.341157	0.100166
	H47	H	0.793898	0.669738	0.904933
	H48	H	0.418933	0.119335	0.586942
	H49	H	0.604683	0.889652	0.592514
	H50	H	0.599637	0.122591	0.406910
	H51	H	0.416496	0.892269	0.416070
	H52	H	0.597377	0.420757	0.115364
	H53	H	0.599520	0.598570	0.886130
	H54	H	0.413047	0.590843	0.117318
	H55	H	0.422448	0.411340	0.887371
	H56	H	0.125707	0.604101	0.411057
	H57	H	0.886515	0.609234	0.601389
	H58	H	0.123657	0.417053	0.592650
	H59	H	0.892353	0.419412	0.410931
	H60	H	0.128111	0.413394	0.599329
	H61	H	0.894167	0.599505	0.584773
	H62	H	0.123668	0.595466	0.412916
	H63	H	0.889867	0.414189	0.406349
	H64	H	0.425654	0.600483	0.116046
	H65	H	0.601399	0.602777	0.884351
	H66	H	0.596689	0.402182	0.121136
	H67	H	0.413048	0.409140	0.883898
	H68	H	0.599325	0.122246	0.410502
	H69	H	0.603544	0.887977	0.601014
	H70	H	0.401434	0.126567	0.596905
	H71	H	0.410496	0.888059	0.407416
	H72	H	0.907566	0.627024	0.104085
	H73	H	0.096483	0.390211	0.098859
	H74	H	0.101615	0.625207	0.903898
	H75	H	0.930886	0.392207	0.903518
	H76	H	0.102602	0.906517	0.621687
	H77	H	0.100853	0.094175	0.388326
	H78	H	0.903700	0.103243	0.622745
	H79	H	0.917428	0.914536	0.387013
	H80	H	0.621599	0.092077	0.915217
	H81	H	0.389193	0.107913	0.092974
	H82	H	0.622624	0.928355	0.103388
	H83	H	0.391049	0.908468	0.915935
	H84	H	0.631884	0.899282	0.104114
	H85	H	0.394137	0.094634	0.092438
	H86	H	0.627439	0.095698	0.900627
	H87	H	0.393958	0.921689	0.910776
	H88	H	0.917066	0.091420	0.615825
	H89	H	0.095562	0.102636	0.386558
	H90	H	0.106009	0.915262	0.619901
	H91	H	0.916250	0.913118	0.385988
	H92	H	0.097918	0.621166	0.909678
	H93	H	0.101638	0.392024	0.090255
	H94	H	0.926637	0.620335	0.098528
	H95	H	0.913930	0.392727	0.923688
	H96	H	0.419892	0.124365	0.607413
	H97	H	0.596511	0.891817	0.596064
	H98	H	0.602294	0.123999	0.409202
	H99	H	0.421404	0.890660	0.405491
	H100	H	0.613431	0.412481	0.122481
	H101	H	0.604168	0.598050	0.885197
	H102	H	0.411528	0.605850	0.121883
	H103	H	0.415747	0.418118	0.887211
	H104	H	0.126440	0.598041	0.404433
	H105	H	0.892098	0.588988	0.602418
	H106	H	0.126147	0.409199	0.592348
	H107	H	0.891543	0.412217	0.413030
	H108	H	0.911032	0.620592	0.084382
	H109	H	0.107297	0.387037	0.098080
	H110	H	0.105006	0.624122	0.910280
	H111	H	0.905969	0.383171	0.900157
	H112	H	0.096286	0.912530	0.618520
	H113	H	0.105115	0.102404	0.384444
	H114	H	0.921421	0.109923	0.619679
	H115	H	0.915521	0.915025	0.386662
	H116	H	0.628017	0.107178	0.912432
	H117	H	0.387633	0.099315	0.104216
	H118	H	0.620519	0.911409	0.078344
	H119	H	0.386923	0.911620	0.902779
	C120	C	0.385744	0.014704	0.625035
	C121	C	0.629225	0.998370	0.624246
	C122	C	0.629892	0.014849	0.380713
	C123	C	0.386589	0.998515	0.381084
	C124	C	0.630985	0.383602	0.011161
	C125	C	0.630276	0.627689	0.993715
	C126	C	0.387217	0.628248	0.010670
	C127	C	0.387962	0.384751	0.994323
	C128	C	0.016790	0.628365	0.380698
	C129	C	0.999744	0.627808	0.624118
	C130	C	0.017347	0.385334	0.623612
	C131	C	0.999815	0.385831	0.381196
	C132	C	0.886812	0.514487	0.124253
	C133	C	0.130108	0.497999	0.124152
	C134	C	0.130722	0.514974	0.880063
	C135	C	0.887574	0.497617	0.880908
	C136	C	0.130472	0.883630	0.511602
	C137	C	0.129269	0.127983	0.494824
	C138	C	0.885930	0.129604	0.510762
	C139	C	0.887352	0.885326	0.494809
	C140	C	0.516634	0.127793	0.881503
	C141	C	0.499562	0.127704	0.124222
	C142	C	0.516086	0.884898	0.124021
	C143	C	0.499561	0.885340	0.881190
	C144	C	0.388887	0.891558	0.679814
	C145	C	0.626089	0.121794	0.679387
	C146	C	0.627819	0.891416	0.325958
	C147	C	0.388444	0.121649	0.326162
	C148	C	0.685490	0.386732	0.887498
	C149	C	0.684126	0.623963	0.117331
	C150	C	0.331944	0.625694	0.887694
	C151	C	0.332821	0.388277	0.117592
	C152	C	0.892720	0.683977	0.383366
	C153	C	0.123783	0.681987	0.620730
	C154	C	0.893041	0.331734	0.621450
	C155	C	0.123513	0.329746	0.383315
	C156	C	0.893602	0.388146	0.679625
	C157	C	0.123668	0.625369	0.678601
	C158	C	0.892790	0.626672	0.325626
	C159	C	0.123739	0.386688	0.325701
	C160	C	0.389023	0.683343	0.887524
	C161	C	0.627741	0.682785	0.116948
	C162	C	0.628479	0.328937	0.887969
	C163	C	0.390382	0.330955	0.118019
	C164	C	0.685266	0.891416	0.384009
	C165	C	0.683063	0.121996	0.621105
	C166	C	0.332741	0.890738	0.620962
	C167	C	0.331209	0.121645	0.384146
	C168	C	0.888864	0.391558	0.180459
	C169	C	0.127546	0.620856	0.179265
	C170	C	0.129495	0.391550	0.825286
	C171	C	0.889144	0.621157	0.826171
	C172	C	0.185478	0.887405	0.388139
	C173	C	0.182977	0.124027	0.618407
	C174	C	0.831616	0.125842	0.387338
	C175	C	0.832713	0.888543	0.618255
	C176	C	0.392760	0.183401	0.884768
	C177	C	0.623760	0.181531	0.121644
	C178	C	0.392325	0.830380	0.121567
	C179	C	0.623627	0.830278	0.883679
	C180	C	0.392283	0.888216	0.179031
	C181	C	0.623470	0.124434	0.178710
	C182	C	0.392510	0.125899	0.827493
	C183	C	0.623354	0.887303	0.826386
	C184	C	0.888647	0.184299	0.387526
	C185	C	0.126521	0.182712	0.617897
	C186	C	0.128419	0.829249	0.388199
	C187	C	0.889229	0.829820	0.617851
	C188	C	0.185956	0.391443	0.884036
	C189	C	0.184161	0.621413	0.120470
	C190	C	0.832552	0.390751	0.121559
	C191	C	0.831439	0.620800	0.883735
	C192	C	0.407051	0.101087	0.603354
	C193	C	0.607914	0.912219	0.602759
	C194	C	0.607251	0.100707	0.402429
	C195	C	0.409393	0.912398	0.403153
	C196	C	0.608997	0.405267	0.097523
	C197	C	0.608143	0.606213	0.907610
	C198	C	0.409933	0.605785	0.096392
	C199	C	0.410509	0.406345	0.908451
	C200	C	0.103041	0.605834	0.402743
	C201	C	0.913320	0.605747	0.602607
	C202	C	0.103835	0.406855	0.601498
	C203	C	0.913616	0.408698	0.403503
	C204	C	0.908683	0.600366	0.102176
	C205	C	0.108218	0.411759	0.102285
	C206	C	0.108028	0.601082	0.901411
	C207	C	0.910423	0.411731	0.902567
	C208	C	0.108393	0.905107	0.597685
	C209	C	0.107279	0.106129	0.408749
	C210	C	0.907638	0.107915	0.597251
	C211	C	0.909771	0.907566	0.408805
	C212	C	0.603220	0.105051	0.903156
	C213	C	0.412661	0.106686	0.102856
	C214	C	0.602776	0.906430	0.101731
	C215	C	0.413036	0.907459	0.903439
	Zn216	Zn	0.507764	0.006387	0.753168
	Zn217	Zn	0.507946	0.006807	0.252338
	Zn218	Zn	0.758343	0.505764	0.002300
	Zn219	Zn	0.259153	0.506523	0.002424
	Zn220	Zn	0.008047	0.755882	0.502806
	Zn221	Zn	0.008244	0.257431	0.502548
	Zn222	Zn	0.009073	0.506343	0.751735
	Zn223	Zn	0.008098	0.506416	0.252800
	Zn224	Zn	0.508292	0.756490	0.001713
	Zn225	Zn	0.508877	0.255404	0.003362
	Zn226	Zn	0.758378	0.006524	0.502933
	Zn227	Zn	0.258113	0.006438	0.503214
	N228	N	0.421158	0.969646	0.682326
	N229	N	0.593300	0.043938	0.681437
	N230	N	0.594061	0.969102	0.323670
	N231	N	0.421979	0.043843	0.324040
	N232	N	0.686774	0.420212	0.965112
	N233	N	0.685638	0.590426	0.039818
	N234	N	0.330672	0.592077	0.965256
	N235	N	0.331246	0.421215	0.039861
	N236	N	0.970718	0.685282	0.416770
	N237	N	0.045878	0.683379	0.587350
	N238	N	0.970964	0.329856	0.587479
	N239	N	0.045570	0.328966	0.417048
	N240	N	0.971689	0.420944	0.680945
	N241	N	0.045520	0.592401	0.680834
	N242	N	0.970867	0.592748	0.324058
	N243	N	0.045846	0.420922	0.324274
	N244	N	0.422636	0.685103	0.965063
	N245	N	0.594679	0.684992	0.039196
	N246	N	0.595215	0.326831	0.965868
	N247	N	0.423980	0.328505	0.040325
	N248	N	0.686447	0.969055	0.417614
	N249	N	0.685157	0.044422	0.587505
	N250	N	0.330805	0.968451	0.587461
	N251	N	0.329951	0.044045	0.417548
	N252	N	0.921954	0.469215	0.182077
	N253	N	0.094786	0.542910	0.181616
	N254	N	0.095826	0.469235	0.822675
	N255	N	0.923476	0.543538	0.824155
	N256	N	0.186905	0.920494	0.465880
	N257	N	0.184636	0.090628	0.540792
	N258	N	0.829825	0.092466	0.465083
	N259	N	0.831670	0.922401	0.540962
	N260	N	0.470985	0.184610	0.917627
	N261	N	0.545750	0.183718	0.088467
	N262	N	0.470531	0.828027	0.088144
	N263	N	0.545570	0.828782	0.917110
	N264	N	0.470324	0.921216	0.180630
	N265	N	0.545140	0.091777	0.180518
	N266	N	0.470631	0.092171	0.825114
	N267	N	0.545246	0.920805	0.824784
	N268	N	0.921488	0.186676	0.465452
	N269	N	0.093763	0.185167	0.539976
	N270	N	0.095054	0.826665	0.465868
	N271	N	0.922431	0.827863	0.539907
	N272	N	0.186975	0.469198	0.917273
	N273	N	0.185691	0.543991	0.086808
	N274	N	0.831181	0.468160	0.087094
	N275	N	0.830378	0.543180	0.916870
	O276	O	0.505007	0.522912	0.509149
	H277	H	0.504381	0.527220	0.511007
	H278	H	0.506202	0.522574	0.513089
	O279	O	-0.042451	-0.027432	0.018863
	H280	H	-0.044545	-0.019575	0.022663
	H281	H	-0.049022	-0.033878	0.017943
	O282	O	0.428384	0.495969	0.453037
	H283	H	0.436441	0.501495	0.455898
	H284	H	0.425144	0.492206	0.456668
	O285	O	0.483718	0.485207	0.506413
	H286	H	0.481511	0.487812	0.515008
	H287	H	0.491503	0.484209	0.507942
	O288	O	0.954579	-0.036366	0.030360
	H289	H	0.951002	-0.035095	0.045764
	H290	H	0.950218	-0.042868	0.031540
	O291	O	-0.501026	0.494703	-0.497757
	H292	H	-0.502098	0.501402	-0.503446
	H293	H	-0.512261	0.503825	-0.497720
	O294	O	0.484545	0.524021	0.475630
	H295	H	0.484288	0.524770	0.476305
	H296	H	0.483292	0.515844	0.475399
	O297	O	-0.067642	0.974280	0.030115
	H298	H	-0.069500	0.979657	0.033202
	H299	H	-0.065214	0.983237	0.028516
	O300	O	0.976931	-0.002074	1.061493
	H301	H	0.982585	-0.003353	1.056528
	H302	H	0.981072	-0.006772	1.060686
	O303	O	0.452446	0.528880	0.483519
	H304	H	0.449730	0.529088	0.475015
	H305	H	0.445396	0.516195	0.482277
	O306	O	-0.010082	0.970222	0.993665
	H307	H	-0.008369	0.971362	0.988013
	H308	H	-0.013102	0.966224	0.990245
	O309	O	0.429737	0.467377	0.491246
	H310	H	0.431960	0.467019	0.491418
	H311	H	0.424419	0.471197	0.486300
