data_Molecule from HDF5

_cell_length_a		16.712943
_cell_length_b		16.528132
_cell_length_c		16.643298
_cell_angle_alpha	89.930276
_cell_angle_beta	90.051843
_cell_angle_gamma	89.897099
_symmetry_space_group_name_H-M	'P 1'
_symmetry_Int_Tables_number		1

loop_
	_symmetry_equiv_pos_as_xyz
	x,y,z

loop_
	_atom_site_label
	_atom_site_type_symbol
	_atom_site_fract_x
	_atom_site_fract_y
	_atom_site_fract_z
	H0	H	0.401345	0.830056	0.712978
	H1	H	0.608778	0.144040	0.715909
	H2	H	0.604431	0.829636	0.277520
	H3	H	0.398431	0.142571	0.272516
	H4	H	0.726489	0.380292	0.839657
	H5	H	0.725591	0.593297	0.148756
	H6	H	0.279660	0.596104	0.840668
	H7	H	0.284097	0.383998	0.150896
	H8	H	0.847080	0.704118	0.395045
	H9	H	0.160834	0.706717	0.597891
	H10	H	0.849882	0.265446	0.600758
	H11	H	0.159808	0.267167	0.391196
	H12	H	0.851219	0.380154	0.718411
	H13	H	0.160168	0.591682	0.715998
	H14	H	0.846813	0.588804	0.277793
	H15	H	0.158948	0.381359	0.273139
	H16	H	0.399314	0.708933	0.839033
	H17	H	0.605750	0.706818	0.150141
	H18	H	0.608979	0.266429	0.838272
	H19	H	0.400588	0.267736	0.149856
	H20	H	0.721666	0.829783	0.392355
	H21	H	0.725354	0.143597	0.600817
	H22	H	0.285018	0.830485	0.597995
	H23	H	0.280402	0.142019	0.386473
	H24	H	0.900429	0.331093	0.214011
	H25	H	0.101810	0.647597	0.210498
	H26	H	0.111145	0.331573	0.773564
	H27	H	0.899169	0.643856	0.773302
	H28	H	0.221050	0.886158	0.336751
	H29	H	0.228885	0.096446	0.647941
	H30	H	0.781324	0.094393	0.340103
	H31	H	0.783482	0.881627	0.650291
	H32	H	0.348787	0.211986	0.886795
	H33	H	0.658442	0.209248	0.098343
	H34	H	0.350247	0.765064	0.101393
	H35	H	0.657590	0.765158	0.888981
	H36	H	0.352750	0.878650	0.220228
	H37	H	0.657917	0.094301	0.216345
	H38	H	0.349393	0.097130	0.769391
	H39	H	0.657521	0.882011	0.772486
	H40	H	0.900426	0.207502	0.339154
	H41	H	0.110759	0.209717	0.648418
	H42	H	0.102369	0.772519	0.335846
	H43	H	0.901230	0.766911	0.650804
	H44	H	0.225909	0.332197	0.890375
	H45	H	0.218699	0.648445	0.095628
	H46	H	0.784572	0.330950	0.098253
	H47	H	0.782756	0.643376	0.887635
	H48	H	0.412898	0.099440	0.577519
	H49	H	0.601062	0.873985	0.583188
	H50	H	0.591346	0.099770	0.407317
	H51	H	0.407046	0.871713	0.405816
	H52	H	0.599327	0.397442	0.107761
	H53	H	0.594297	0.574797	0.882431
	H54	H	0.410661	0.585208	0.110266
	H55	H	0.408698	0.402121	0.881775
	H56	H	0.116693	0.578586	0.402085
	H57	H	0.893225	0.578664	0.583134
	H58	H	0.115616	0.396091	0.584056
	H59	H	0.892737	0.395687	0.405876
	H60	H	0.113071	0.400722	0.578606
	H61	H	0.895328	0.575511	0.583383
	H62	H	0.117311	0.579509	0.400615
	H63	H	0.894385	0.399560	0.404892
	H64	H	0.405894	0.571491	0.106813
	H65	H	0.592514	0.575666	0.883237
	H66	H	0.592190	0.405849	0.102659
	H67	H	0.416336	0.405947	0.885823
	H68	H	0.597211	0.101513	0.406060
	H69	H	0.590065	0.873596	0.590181
	H70	H	0.415105	0.101002	0.585000
	H71	H	0.420042	0.874195	0.399172
	H72	H	0.915326	0.599514	0.082179
	H73	H	0.091007	0.374678	0.093131
	H74	H	0.087325	0.596642	0.910976
	H75	H	0.911929	0.372475	0.901849
	H76	H	0.089534	0.892006	0.606573
	H77	H	0.098738	0.075640	0.381548
	H78	H	0.914824	0.065699	0.602525
	H79	H	0.915409	0.895744	0.383479
	H80	H	0.612137	0.071808	0.900868
	H81	H	0.396159	0.069792	0.078855
	H82	H	0.613493	0.897957	0.079028
	H83	H	0.392258	0.897960	0.905165
	H84	H	0.613515	0.903270	0.083898
	H85	H	0.391277	0.075646	0.091090
	H86	H	0.615741	0.081128	0.904312
	H87	H	0.393141	0.900990	0.905178
	H88	H	0.922462	0.080500	0.605641
	H89	H	0.090538	0.068755	0.386196
	H90	H	0.103638	0.894640	0.609735
	H91	H	0.908608	0.894953	0.380891
	H92	H	0.098436	0.601649	0.906879
	H93	H	0.089742	0.379567	0.078042
	H94	H	0.908914	0.601310	0.083516
	H95	H	0.922941	0.377699	0.905636
	H96	H	0.420238	0.097665	0.579885
	H97	H	0.590065	0.878520	0.577819
	H98	H	0.592860	0.101497	0.401501
	H99	H	0.417873	0.878477	0.413599
	H100	H	0.588007	0.394643	0.104666
	H101	H	0.593894	0.576755	0.882803
	H102	H	0.420016	0.575261	0.103673
	H103	H	0.416753	0.397399	0.882484
	H104	H	0.117217	0.580275	0.402589
	H105	H	0.894560	0.577173	0.586844
	H106	H	0.113813	0.403210	0.585479
	H107	H	0.891978	0.397287	0.401619
	H108	H	0.913642	0.602290	0.088610
	H109	H	0.103539	0.373191	0.082992
	H110	H	0.089232	0.600841	0.898407
	H111	H	0.913028	0.377699	0.913992
	H112	H	0.095653	0.905382	0.603719
	H113	H	0.088345	0.080214	0.382986
	H114	H	0.906220	0.078374	0.610017
	H115	H	0.910818	0.901602	0.383865
	H116	H	0.610640	0.074599	0.910550
	H117	H	0.391533	0.084390	0.079129
	H118	H	0.616149	0.896653	0.085978
	H119	H	0.392017	0.899527	0.902277
	C120	C	0.383578	-0.004249	0.614011
	C121	C	0.625390	0.979243	0.616017
	C122	C	0.624927	-0.003455	0.373658
	C123	C	0.382793	0.978053	0.373076
	C124	C	0.625478	0.366408	0.002474
	C125	C	0.624969	0.608261	0.985721
	C126	C	0.380763	0.610371	0.003826
	C127	C	0.382528	0.368855	0.986250
	C128	C	0.012714	0.609110	0.372985
	C129	C	0.996732	0.609018	0.616228
	C130	C	0.012577	0.366096	0.616055
	C131	C	0.995579	0.365297	0.372528
	C132	C	0.881980	0.496725	0.115985
	C133	C	0.123410	0.480898	0.114779
	C134	C	0.124847	0.496430	0.873970
	C135	C	0.883629	0.479153	0.874025
	C136	C	0.125389	0.866847	0.502296
	C137	C	0.125481	0.108155	0.485821
	C138	C	0.882725	0.107764	0.503309
	C139	C	0.881564	0.865669	0.486384
	C140	C	0.511193	0.109664	0.872192
	C141	C	0.495267	0.109119	0.115071
	C142	C	0.512741	0.866438	0.115651
	C143	C	0.494925	0.866913	0.872800
	C144	C	0.382224	0.877631	0.673719
	C145	C	0.627382	0.097029	0.676064
	C146	C	0.624767	0.877359	0.316038
	C147	C	0.379750	0.095684	0.312476
	C148	C	0.686014	0.362775	0.886080
	C149	C	0.684808	0.611178	0.102515
	C150	C	0.320344	0.613798	0.887042
	C151	C	0.323789	0.365884	0.103878
	C152	C	0.894133	0.665553	0.375126
	C153	C	0.114038	0.667644	0.617159
	C154	C	0.896582	0.305375	0.619044
	C155	C	0.112750	0.306336	0.372018
	C156	C	0.897082	0.362570	0.677502
	C157	C	0.113493	0.610589	0.676036
	C158	C	0.894064	0.608022	0.316940
	C159	C	0.112351	0.363417	0.313253
	C160	C	0.379806	0.669742	0.886356
	C161	C	0.625487	0.667547	0.103170
	C162	C	0.627511	0.306014	0.885542
	C163	C	0.381872	0.308257	0.103322
	C164	C	0.682771	0.877546	0.373295
	C165	C	0.685472	0.096713	0.619017
	C166	C	0.324303	0.877737	0.616622
	C167	C	0.321369	0.095368	0.369012
	C168	C	0.881385	0.378307	0.174572
	C169	C	0.121642	0.600292	0.171841
	C170	C	0.128345	0.378675	0.814110
	C171	C	0.880968	0.596673	0.813221
	C172	C	0.181859	0.867289	0.383868
	C173	C	0.187499	0.112991	0.601745
	C174	C	0.822365	0.111341	0.386453
	C175	C	0.823320	0.863630	0.603608
	C176	C	0.395033	0.171098	0.868966
	C177	C	0.611960	0.169057	0.116577
	C178	C	0.396865	0.805531	0.119253
	C179	C	0.611250	0.805972	0.870554
	C180	C	0.397875	0.862072	0.178194
	C181	C	0.611590	0.111988	0.175424
	C182	C	0.395439	0.113860	0.810502
	C183	C	0.611141	0.863992	0.812692
	C184	C	0.881402	0.167635	0.385943
	C185	C	0.128725	0.169417	0.602254
	C186	C	0.122945	0.810748	0.383278
	C187	C	0.882088	0.806850	0.603888
	C188	C	0.185663	0.379010	0.871865
	C189	C	0.179729	0.600524	0.114718
	C190	C	0.823643	0.378405	0.117226
	C191	C	0.823193	0.596579	0.870484
	C192	C	0.408836	0.077793	0.588261
	C193	C	0.600859	0.896985	0.590991
	C194	C	0.600769	0.079355	0.397903
	C195	C	0.407944	0.896341	0.398870
	C196	C	0.600328	0.392045	0.083885
	C197	C	0.600512	0.582972	0.903979
	C198	C	0.405107	0.584684	0.085714
	C199	C	0.406852	0.394551	0.904559
	C200	C	0.095451	0.585926	0.395390
	C201	C	0.915470	0.584233	0.591529
	C202	C	0.093344	0.392472	0.590252
	C203	C	0.914124	0.390424	0.397020
	C204	C	0.905776	0.579492	0.091678
	C205	C	0.100932	0.397634	0.091307
	C206	C	0.099153	0.578459	0.898747
	C207	C	0.908887	0.397331	0.899753
	C208	C	0.102769	0.890414	0.585037
	C209	C	0.099757	0.082307	0.404752
	C210	C	0.907522	0.082081	0.584817
	C211	C	0.904893	0.890282	0.404125
	C212	C	0.591871	0.083288	0.897937
	C213	C	0.413987	0.083775	0.090143
	C214	C	0.593599	0.892107	0.089983
	C215	C	0.413710	0.892111	0.897580
	Zn216	Zn	0.503055	-0.011876	0.743009
	Zn217	Zn	0.504170	-0.012175	0.244765
	Zn218	Zn	0.754325	0.487296	-0.006095
	Zn219	Zn	0.252854	0.488996	-0.004625
	Zn220	Zn	0.004569	0.737869	0.494541
	Zn221	Zn	0.004086	0.236727	0.494552
	Zn222	Zn	0.004103	0.487335	0.745216
	Zn223	Zn	0.003434	0.487617	0.244193
	Zn224	Zn	0.503396	0.737267	-0.005591
	Zn225	Zn	0.502969	0.238784	-0.006480
	Zn226	Zn	0.753131	-0.012694	0.495166
	Zn227	Zn	0.254544	-0.012435	0.494053
	N228	N	0.417999	0.952402	0.672471
	N229	N	0.590937	0.022598	0.674556
	N230	N	0.590172	0.952828	0.315465
	N231	N	0.417332	0.021830	0.314740
	N232	N	0.685041	0.399632	0.959937
	N233	N	0.684932	0.575383	0.028218
	N234	N	0.320749	0.577693	0.961349
	N235	N	0.323841	0.402730	0.029897
	N236	N	0.969092	0.666513	0.409046
	N237	N	0.040285	0.667206	0.580926
	N238	N	0.969661	0.307436	0.581438
	N239	N	0.038964	0.307180	0.407890
	N240	N	0.970376	0.399528	0.675872
	N241	N	0.039469	0.575065	0.675796
	N242	N	0.968858	0.573749	0.315245
	N243	N	0.038148	0.399256	0.313135
	N244	N	0.416676	0.667530	0.959985
	N245	N	0.589144	0.666090	0.029267
	N246	N	0.590220	0.308245	0.958882
	N247	N	0.417522	0.309858	0.029107
	N248	N	0.683466	0.952927	0.408021
	N249	N	0.684608	0.022239	0.582683
	N250	N	0.324820	0.952445	0.580332
	N251	N	0.322919	0.021210	0.405935
	N252	N	0.916772	0.453102	0.174175
	N253	N	0.087649	0.524638	0.172512
	N254	N	0.091305	0.452822	0.815042
	N255	N	0.917837	0.522538	0.815189
	N256	N	0.183828	0.901076	0.459109
	N257	N	0.185760	0.075669	0.528272
	N258	N	0.822726	0.074862	0.460577
	N259	N	0.823025	0.899571	0.529493
	N260	N	0.467985	0.168695	0.906731
	N261	N	0.538457	0.167530	0.079678
	N262	N	0.469239	0.808344	0.080610
	N263	N	0.537881	0.807564	0.907248
	N264	N	0.470914	0.899574	0.175748
	N265	N	0.538005	0.075368	0.174555
	N266	N	0.468673	0.076181	0.812453
	N267	N	0.537838	0.901263	0.814056
	N268	N	0.918056	0.165759	0.459688
	N269	N	0.090734	0.166491	0.529159
	N270	N	0.088673	0.810163	0.458206
	N271	N	0.917971	0.808108	0.529845
	N272	N	0.183703	0.453452	0.908292
	N273	N	0.181254	0.525135	0.080214
	N274	N	0.823802	0.453254	0.081514
	N275	N	0.824449	0.522269	0.907475
	O276	O	-0.207169	0.783768	0.203642
	H277	H	-0.215658	0.797485	0.170307
	H278	H	-0.240168	0.749553	0.233339
	O279	O	0.451672	0.255894	0.436890
	H280	H	0.464894	0.260250	0.411056
	H281	H	0.455129	0.251466	0.437823
	O282	O	1.226884	-0.047353	0.769658
	H283	H	1.235334	-0.036096	0.751725
	H284	H	1.222591	-0.031504	0.764337
	O285	O	0.536550	0.699242	0.712076
	H286	H	0.537135	0.696188	0.714806
	H287	H	0.544582	0.713463	0.722063
	O288	O	0.541179	0.478134	0.596094
	H289	H	0.542109	0.484938	0.603747
	H290	H	0.552145	0.470678	0.600180
	O291	O	0.466880	0.418084	0.486766
	H292	H	0.451652	0.430090	0.475991
	H293	H	0.467521	0.418041	0.494299
	O294	O	1.172523	-0.010234	1.197289
	H295	H	1.166750	-0.007809	1.213992
	H296	H	1.153146	-0.008435	1.198627
	O297	O	0.560597	0.700543	0.458652
	H298	H	0.582792	0.698624	0.476948
	H299	H	0.549648	0.700014	0.486633
	O300	O	0.041361	0.207375	0.966345
	H301	H	0.050297	0.211320	0.960347
	H302	H	0.068010	0.210268	0.964650
	O303	O	0.707830	0.698653	0.705672
	H304	H	0.731467	0.726882	0.737474
	H305	H	0.690972	0.669384	0.708476
	O306	O	0.458982	0.518461	0.429441
	H307	H	0.448764	0.518106	0.435794
	H308	H	0.458220	0.520089	0.425180
	O309	O	0.210290	0.786032	0.791490
	H310	H	0.217847	0.813365	0.809607
	H311	H	0.229859	0.790602	0.781582
	O312	O	0.363530	0.619658	0.676728
	H313	H	0.372350	0.608868	0.657182
	H314	H	0.362586	0.625690	0.676718
	O315	O	0.938151	0.949626	1.026961
	H316	H	0.948721	0.940362	1.025079
	H317	H	0.930748	0.956020	1.020953
	O318	O	0.691032	0.305129	0.678539
	H319	H	0.694132	0.297330	0.673658
	H320	H	0.697215	0.289579	0.692422
	O321	O	-0.047364	1.002968	0.838006
	H322	H	-0.052208	1.010459	0.848546
	H323	H	-0.059100	1.006070	0.832865
	O324	O	0.958716	0.764483	0.220393
	H325	H	0.933521	0.755603	0.228792
	H326	H	0.931726	0.748408	0.237099
	O327	O	0.218953	0.208423	1.031572
	H328	H	0.238831	0.221746	1.046600
	H329	H	0.224379	0.212591	1.065631
	O330	O	0.728134	0.268932	0.458378
	H331	H	0.737955	0.256538	0.470769
	H332	H	0.720629	0.255431	0.458846
	O333	O	0.483727	0.278787	0.705236
	H334	H	0.479990	0.259937	0.712341
	H335	H	0.451704	0.275988	0.711027
	O336	O	0.710034	0.276997	0.283465
	H337	H	0.715305	0.289836	0.321053
	H338	H	0.739315	0.264181	0.258134
	O339	O	0.528277	0.493502	0.553794
	H340	H	0.524964	0.489262	0.565964
	H341	H	0.529108	0.490128	0.548552
	O342	O	0.064257	-0.176361	0.043237
	H343	H	0.058187	-0.166390	0.040544
	H344	H	0.052554	-0.171300	0.057736
	O345	O	0.218168	1.196795	1.201742
	H346	H	0.218033	1.191234	1.221364
	H347	H	0.238451	1.198116	1.223585
	O348	O	-0.068397	0.047052	0.216059
	H349	H	-0.060595	0.052713	0.207149
	H350	H	-0.084667	0.038724	0.224227
	O351	O	0.513495	0.613917	0.514652
	H352	H	0.501715	0.619845	0.529804
	H353	H	0.515063	0.605575	0.528943
	O354	O	-0.135167	0.196866	0.953157
	H355	H	-0.133167	0.199955	0.968495
	H356	H	-0.132884	0.199519	0.970741
	O357	O	0.727044	0.708761	0.526896
	H358	H	0.722495	0.700561	0.566499
	H359	H	0.754688	0.733468	0.537555
	O360	O	0.292609	0.277962	0.702717
	H361	H	0.279844	0.273755	0.705824
	H362	H	0.287497	0.316656	0.693625
	O363	O	0.040149	-0.113276	0.122059
	H364	H	0.038561	-0.096367	0.113679
	H365	H	0.023451	-0.133608	0.132817
	O366	O	0.528405	0.266343	0.280193
	H367	H	0.540041	0.259592	0.256266
	H368	H	0.566904	0.266997	0.276223
	O369	O	0.815128	0.177266	0.184337
	H370	H	0.840664	0.158311	0.169989
	H371	H	0.827673	0.176103	0.174657
	O372	O	1.123203	0.947829	-0.061576
	H373	H	1.127747	0.946794	-0.053821
	H374	H	1.133178	0.955592	-0.071374
	O375	O	1.038655	-0.233633	-0.230819
	H376	H	1.053198	-0.241868	-0.244149
	H377	H	1.071861	-0.247078	-0.243068
	O378	O	0.284239	0.427058	0.425886
	H379	H	0.288040	0.433170	0.439657
	H380	H	0.282621	0.431396	0.423072
	O381	O	-0.028776	1.184271	0.787087
	H382	H	-0.037617	1.208015	0.774724
	H383	H	-0.046353	1.180917	0.793725
	O384	O	0.940974	-0.140421	0.829126
	H385	H	0.952052	-0.138919	0.823345
	H386	H	0.964565	-0.157212	0.826018
	O387	O	0.972777	1.156630	0.060367
	H388	H	0.991346	1.151947	0.062435
	H389	H	0.989423	1.172081	0.063619
	O390	O	0.722363	0.458906	0.268349
	H391	H	0.750551	0.456117	0.253026
	H392	H	0.721313	0.443863	0.279985
	O393	O	0.274795	0.523139	0.267971
	H394	H	0.248724	0.531729	0.248541
	H395	H	0.270561	0.561960	0.269078
	O396	O	0.230127	0.771547	0.962262
	H397	H	0.219085	0.761868	0.961896
	H398	H	0.241991	0.747264	0.956311
	O399	O	-0.215508	0.018699	0.773471
	H400	H	-0.237005	0.018998	0.748196
	H401	H	-0.211079	0.004690	0.786450
	O402	O	0.277322	0.711441	0.456672
	H403	H	0.269172	0.717247	0.430607
	H404	H	0.261210	0.726073	0.430630
	O405	O	0.791758	0.193579	0.781867
	H406	H	0.813162	0.196650	0.813002
	H407	H	0.786656	0.153884	0.793722
	O408	O	0.147504	0.039211	0.157359
	H409	H	0.154759	0.029218	0.155286
	H410	H	0.141777	0.042868	0.143566
	O411	O	0.813028	0.802767	0.809133
	H412	H	0.840486	0.816745	0.812839
	H413	H	0.821283	0.822832	0.833291
	O414	O	0.287190	0.503332	0.556529
	H415	H	0.296028	0.507434	0.543503
	H416	H	0.288403	0.506906	0.560078
	O417	O	0.580103	0.262215	0.540795
	H418	H	0.585817	0.268168	0.540031
	H419	H	0.559088	0.262867	0.544008
	O420	O	0.682389	0.569990	0.455992
	H421	H	0.686411	0.583275	0.470231
	H422	H	0.683216	0.555587	0.465965
	O423	O	0.200617	0.078550	0.937886
	H424	H	0.208537	0.091766	0.942533
	H425	H	0.209594	0.078115	0.943431
	O426	O	0.358605	0.658241	0.574303
	H427	H	0.363192	0.647539	0.563586
	H428	H	0.353173	0.663714	0.550491
	O429	O	0.965791	0.777646	0.958197
	H430	H	0.995470	0.772425	0.960885
	H431	H	0.971557	0.781583	0.935425
	O432	O	0.736891	0.449338	0.538551
	H433	H	0.725469	0.445235	0.536616
	H434	H	0.736226	0.443667	0.538888
	O435	O	0.316564	1.294666	0.303958
	H436	H	0.333802	1.310762	0.325445
	H437	H	0.333145	1.317969	0.319974
	O438	O	-0.226447	-0.061090	-0.072499
	H439	H	-0.221544	-0.066114	-0.074637
	H440	H	-0.224567	-0.066801	-0.057203
	O441	O	-0.030621	-0.029694	0.018570
	H442	H	-0.038317	-0.006032	0.009175
	H443	H	-0.028986	-0.036833	0.017180
	O444	O	0.562568	0.588476	0.294289
	H445	H	0.560266	0.580835	0.296903
	H446	H	0.559370	0.563355	0.298855
	O447	O	-0.109702	1.193186	0.996633
	H448	H	-0.107405	1.199729	1.004227
	H449	H	-0.101247	1.178952	0.997961
	O450	O	0.243373	0.930780	1.047717
	H451	H	0.246563	0.936129	1.053593
	H452	H	0.246805	0.911390	1.035734
	O453	O	0.288446	0.445803	0.712176
	H454	H	0.270473	0.457451	0.732484
	H455	H	0.298902	0.465370	0.697579
	O456	O	0.060796	0.159666	1.172947
	H457	H	0.062426	0.161452	1.187110
	H458	H	0.074655	0.158197	1.179823
	O459	O	0.775427	0.951939	0.219648
	H460	H	0.756714	0.959836	0.241575
	H461	H	0.772879	0.920240	0.224670
	O462	O	0.697086	0.676797	0.299381
	H463	H	0.682465	0.654413	0.323367
	H464	H	0.679728	0.660671	0.317501
	O465	O	0.777555	-0.228450	0.034897
	H466	H	0.783953	-0.243485	0.024365
	H467	H	0.773492	-0.242421	0.035815
	O468	O	0.433500	0.435875	0.287696
	H469	H	0.419446	0.432863	0.296177
	H470	H	0.423754	0.439109	0.275788
	O471	O	0.713158	0.516076	0.678786
	H472	H	0.719601	0.507100	0.674422
	H473	H	0.722005	0.505205	0.679880
	O474	O	0.285984	0.695880	0.281034
	H475	H	0.336857	0.701905	0.276925
	H476	H	0.263223	0.732759	0.248338
	O477	O	0.296070	0.271831	1.516714
	H478	H	0.302995	0.264988	1.519283
	H479	H	0.294716	0.257340	1.518113
	O480	O	0.455124	0.687763	0.292144
	H481	H	0.474794	0.682018	0.298809
	H482	H	0.482540	0.685668	0.291666
	O483	O	0.573598	0.440385	0.717134
	H484	H	0.577026	0.421992	0.717156
	H485	H	0.584622	0.437829	0.727293
	O486	O	0.432744	0.544432	0.726186
	H487	H	0.445934	0.532485	0.725236
	H488	H	0.430189	0.555490	0.730674
	O489	O	1.076082	1.031703	-0.238020
	H490	H	1.064682	1.053651	-0.239019
	H491	H	1.072414	1.031264	-0.230438
	O492	O	0.202663	-0.192350	0.182084
	H493	H	0.191868	-0.164111	0.170665
	H494	H	0.176777	-0.177401	0.164257
	O495	O	0.185261	1.175901	0.809236
	H496	H	0.172319	1.159108	0.818149
	H497	H	0.192828	1.181224	0.810996
	O498	O	0.774572	1.025917	1.064454
	H499	H	0.772117	1.020264	1.076055
	H500	H	0.777910	1.010050	1.068836
	O501	O	0.609350	0.446308	0.331146
	H502	H	0.605776	0.439599	0.337491
	H503	H	0.606841	0.451651	0.328195
