data_Molecule from HDF5

_cell_length_a		16.266638
_cell_length_b		16.237052
_cell_length_c		16.303853
_cell_angle_alpha	89.944908
_cell_angle_beta	90.130708
_cell_angle_gamma	90.113365
_symmetry_space_group_name_H-M	'P 1'
_symmetry_Int_Tables_number		1

loop_
	_symmetry_equiv_pos_as_xyz
	x,y,z

loop_
	_atom_site_label
	_atom_site_type_symbol
	_atom_site_fract_x
	_atom_site_fract_y
	_atom_site_fract_z
	H0	H	0.398815	0.834126	0.715864
	H1	H	0.594795	0.162677	0.715600
	H2	H	0.594724	0.834173	0.289232
	H3	H	0.399122	0.162537	0.287031
	H4	H	0.710769	0.401591	0.836881
	H5	H	0.712146	0.595045	0.164404
	H6	H	0.284991	0.595041	0.837114
	H7	H	0.283318	0.399540	0.164518
	H8	H	0.833095	0.711480	0.402299
	H9	H	0.161053	0.711027	0.597027
	H10	H	0.832973	0.284963	0.596344
	H11	H	0.162253	0.285847	0.404169
	H12	H	0.833152	0.399576	0.715071
	H13	H	0.160599	0.597222	0.715045
	H14	H	0.833168	0.596692	0.285284
	H15	H	0.161078	0.399015	0.284815
	H16	H	0.399875	0.711791	0.837733
	H17	H	0.595972	0.711747	0.165451
	H18	H	0.593263	0.285592	0.836917
	H19	H	0.400682	0.285233	0.165203
	H20	H	0.710312	0.834474	0.404738
	H21	H	0.711645	0.162181	0.600203
	H22	H	0.282182	0.835021	0.599654
	H23	H	0.284223	0.163554	0.404460
	H24	H	0.899318	0.335210	0.214261
	H25	H	0.096991	0.662679	0.215912
	H26	H	0.094931	0.334735	0.786060
	H27	H	0.898609	0.663302	0.786170
	H28	H	0.210254	0.900746	0.336992
	H29	H	0.210978	0.096353	0.664998
	H30	H	0.782004	0.096244	0.337922
	H31	H	0.783803	0.899789	0.665555
	H32	H	0.332975	0.210457	0.903866
	H33	H	0.661099	0.211409	0.098261
	H34	H	0.333299	0.783804	0.098910
	H35	H	0.662044	0.786762	0.905981
	H36	H	0.333592	0.898914	0.216058
	H37	H	0.661328	0.097141	0.216061
	H38	H	0.333392	0.095657	0.787742
	H39	H	0.661356	0.899973	0.788058
	H40	H	0.899444	0.211343	0.336838
	H41	H	0.094489	0.212074	0.664636
	H42	H	0.093232	0.785140	0.336741
	H43	H	0.899393	0.784150	0.665364
	H44	H	0.210132	0.333719	0.903369
	H45	H	0.212442	0.662668	0.098773
	H46	H	0.785134	0.333946	0.097478
	H47	H	0.782789	0.662750	0.901964
	H48	H	0.399703	0.115049	0.587774
	H49	H	0.585758	0.882063	0.597326
	H50	H	0.595150	0.118765	0.403173
	H51	H	0.393772	0.879154	0.408694
	H52	H	0.589992	0.401700	0.117829
	H53	H	0.590764	0.595732	0.883122
	H54	H	0.410700	0.588946	0.115537
	H55	H	0.412083	0.404204	0.886928
	H56	H	0.117075	0.596990	0.401208
	H57	H	0.881963	0.585283	0.594176
	H58	H	0.114014	0.408862	0.597615
	H59	H	0.879702	0.399462	0.405145
	H60	H	0.115859	0.401021	0.596412
	H61	H	0.877335	0.593048	0.597937
	H62	H	0.112749	0.594706	0.416119
	H63	H	0.882770	0.406547	0.410694
	H64	H	0.403567	0.596596	0.119429
	H65	H	0.593615	0.589387	0.884939
	H66	H	0.593984	0.405411	0.118041
	H67	H	0.399310	0.395815	0.880985
	H68	H	0.582355	0.113973	0.406247
	H69	H	0.592465	0.881653	0.591707
	H70	H	0.400041	0.118430	0.602076
	H71	H	0.407579	0.880540	0.400114
	H72	H	0.915674	0.610710	0.084748
	H73	H	0.096895	0.380873	0.089890
	H74	H	0.095863	0.618068	0.903846
	H75	H	0.912038	0.384528	0.907867
	H76	H	0.086648	0.908911	0.614884
	H77	H	0.092468	0.089837	0.384342
	H78	H	0.912672	0.095183	0.616187
	H79	H	0.898346	0.898313	0.381663
	H80	H	0.613268	0.085122	0.905881
	H81	H	0.383337	0.083595	0.091121
	H82	H	0.611250	0.905079	0.085192
	H83	H	0.379744	0.895682	0.913818
	H84	H	0.613065	0.914664	0.102691
	H85	H	0.378655	0.089945	0.103615
	H86	H	0.617072	0.096301	0.903598
	H87	H	0.384079	0.913822	0.912420
	H88	H	0.897200	0.098140	0.621377
	H89	H	0.088153	0.092296	0.384969
	H90	H	0.088959	0.897448	0.619203
	H91	H	0.898651	0.912709	0.386369
	H92	H	0.086273	0.615099	0.904647
	H93	H	0.090093	0.379735	0.102727
	H94	H	0.891153	0.618056	0.087903
	H95	H	0.899121	0.381851	0.912978
	H96	H	0.412825	0.113199	0.595694
	H97	H	0.593641	0.878803	0.600222
	H98	H	0.592128	0.114475	0.415685
	H99	H	0.407147	0.884806	0.416116
	H100	H	0.589556	0.406570	0.116235
	H101	H	0.587039	0.591225	0.886278
	H102	H	0.400375	0.586105	0.118270
	H103	H	0.397853	0.411537	0.884280
	H104	H	0.111448	0.582770	0.405570
	H105	H	0.880645	0.593515	0.589265
	H106	H	0.112700	0.405825	0.590170
	H107	H	0.879720	0.408289	0.401591
	H108	H	0.907340	0.619742	0.107610
	H109	H	0.083483	0.384910	0.090993
	H110	H	0.092428	0.614272	0.912523
	H111	H	0.902261	0.378988	0.899961
	H112	H	0.097640	0.905374	0.619101
	H113	H	0.092174	0.094687	0.383448
	H114	H	0.901592	0.082529	0.615435
	H115	H	0.911480	0.904753	0.387180
	H116	H	0.612592	0.093430	0.914754
	H117	H	0.379309	0.097410	0.091008
	H118	H	0.618232	0.895376	0.101313
	H119	H	0.377227	0.904502	0.897958
	C120	C	0.375863	0.007112	0.623155
	C121	C	0.618600	0.989901	0.624066
	C122	C	0.617958	0.007007	0.380824
	C123	C	0.374941	0.990087	0.379567
	C124	C	0.619268	0.376473	0.009165
	C125	C	0.619154	0.620099	0.992771
	C126	C	0.376290	0.619005	0.009868
	C127	C	0.375092	0.375731	0.992500
	C128	C	0.005212	0.619928	0.378679
	C129	C	0.988312	0.619329	0.621950
	C130	C	0.005792	0.376930	0.622336
	C131	C	0.989321	0.376789	0.378400
	C132	C	0.876490	0.507393	0.121588
	C133	C	0.119022	0.490519	0.122707
	C134	C	0.118855	0.506998	0.879330
	C135	C	0.875773	0.490238	0.878626
	C136	C	0.118516	0.876426	0.509239
	C137	C	0.118696	0.120085	0.492691
	C138	C	0.875319	0.120223	0.509567
	C139	C	0.875083	0.876490	0.493422
	C140	C	0.505838	0.119795	0.879759
	C141	C	0.488612	0.119178	0.123616
	C142	C	0.505554	0.876330	0.123926
	C143	C	0.489143	0.877009	0.880163
	C144	C	0.378697	0.883132	0.677598
	C145	C	0.615667	0.113540	0.678068
	C146	C	0.615368	0.883385	0.326414
	C147	C	0.377843	0.113666	0.324633
	C148	C	0.673511	0.379922	0.885972
	C149	C	0.674368	0.616532	0.115917
	C150	C	0.322064	0.616136	0.886157
	C151	C	0.320747	0.378792	0.115735
	C152	C	0.882032	0.674087	0.381323
	C153	C	0.111912	0.674073	0.618625
	C154	C	0.881641	0.322670	0.617896
	C155	C	0.113046	0.322697	0.382369
	C156	C	0.881899	0.379618	0.676725
	C157	C	0.111895	0.617550	0.676979
	C158	C	0.882202	0.617143	0.323161
	C159	C	0.112416	0.379198	0.323559
	C160	C	0.378775	0.674334	0.886655
	C161	C	0.616727	0.674357	0.116271
	C162	C	0.615007	0.322473	0.885959
	C163	C	0.379000	0.321890	0.116137
	C164	C	0.672457	0.883355	0.384065
	C165	C	0.673607	0.113369	0.620805
	C166	C	0.320797	0.883477	0.620087
	C167	C	0.321203	0.114254	0.383326
	C168	C	0.878928	0.383988	0.176521
	C169	C	0.117008	0.613847	0.177447
	C170	C	0.115365	0.383341	0.824444
	C171	C	0.878129	0.614022	0.823515
	C172	C	0.172736	0.880028	0.385970
	C173	C	0.173309	0.117034	0.616080
	C174	C	0.820176	0.117024	0.386544
	C175	C	0.820882	0.879070	0.616476
	C176	C	0.382120	0.173317	0.883102
	C177	C	0.612217	0.174155	0.120100
	C178	C	0.382273	0.821263	0.120377
	C179	C	0.612618	0.823451	0.884661
	C180	C	0.382523	0.878444	0.178687
	C181	C	0.612139	0.117103	0.178301
	C182	C	0.382491	0.116602	0.825105
	C183	C	0.612171	0.879705	0.825740
	C184	C	0.878157	0.174459	0.386160
	C185	C	0.115564	0.174352	0.615999
	C186	C	0.114443	0.822507	0.385720
	C187	C	0.878460	0.821551	0.616403
	C188	C	0.172709	0.383042	0.882403
	C189	C	0.174703	0.613590	0.119745
	C190	C	0.822204	0.383455	0.118527
	C191	C	0.820773	0.613874	0.881198
	C192	C	0.397719	0.093372	0.601502
	C193	C	0.597059	0.903125	0.602591
	C194	C	0.596304	0.093512	0.402238
	C195	C	0.396522	0.903907	0.401654
	C196	C	0.597700	0.398137	0.095225
	C197	C	0.597039	0.598561	0.906927
	C198	C	0.398290	0.596976	0.095700
	C199	C	0.396739	0.397351	0.906470
	C200	C	0.091507	0.597977	0.401047
	C201	C	0.902178	0.597230	0.600257
	C202	C	0.091793	0.398682	0.601025
	C203	C	0.903085	0.398342	0.399644
	C204	C	0.898394	0.593983	0.099850
	C205	C	0.096785	0.404052	0.100953
	C206	C	0.097834	0.593401	0.900737
	C207	C	0.897830	0.404089	0.900564
	C208	C	0.097441	0.897655	0.595402
	C209	C	0.097203	0.098659	0.406621
	C210	C	0.897280	0.098380	0.595589
	C211	C	0.896424	0.898611	0.407415
	C212	C	0.592293	0.098076	0.901549
	C213	C	0.402503	0.096928	0.101543
	C214	C	0.591966	0.898403	0.102786
	C215	C	0.402393	0.898595	0.901657
	Zn216	Zn	0.497005	-0.001495	0.751873
	Zn217	Zn	0.497216	-0.001657	0.252154
	Zn218	Zn	0.748192	0.498486	0.000703
	Zn219	Zn	0.247243	0.498337	0.001015
	Zn220	Zn	-0.003430	0.747623	0.500825
	Zn221	Zn	-0.002414	0.248519	0.500296
	Zn222	Zn	-0.002464	0.498954	0.750779
	Zn223	Zn	-0.002806	0.498895	0.250200
	Zn224	Zn	0.497044	0.748240	0.001663
	Zn225	Zn	0.496905	0.247384	0.001548
	Zn226	Zn	0.746799	-0.001614	0.501890
	Zn227	Zn	0.246829	-0.001035	0.501310
	N228	N	0.412050	0.961115	0.679687
	N229	N	0.582393	0.035635	0.680216
	N230	N	0.582154	0.961235	0.324343
	N231	N	0.410551	0.035565	0.322369
	N232	N	0.676283	0.412633	0.963661
	N233	N	0.676051	0.583509	0.038308
	N234	N	0.320277	0.582512	0.963675
	N235	N	0.318157	0.411470	0.037893
	N236	N	0.959536	0.676019	0.414949
	N237	N	0.034286	0.675024	0.584915
	N238	N	0.959420	0.320810	0.584882
	N239	N	0.035426	0.321001	0.415707
	N240	N	0.959968	0.412564	0.679599
	N241	N	0.034088	0.584325	0.679121
	N242	N	0.960062	0.584043	0.321631
	N243	N	0.034557	0.411950	0.320867
	N244	N	0.411880	0.676109	0.964387
	N245	N	0.583063	0.676652	0.038725
	N246	N	0.581942	0.320268	0.963573
	N247	N	0.412218	0.319932	0.038567
	N248	N	0.674147	0.961192	0.417388
	N249	N	0.675436	0.035344	0.587832
	N250	N	0.319208	0.961247	0.586604
	N251	N	0.319104	0.036366	0.416577
	N252	N	0.912058	0.461999	0.178304
	N253	N	0.083224	0.536163	0.179341
	N254	N	0.082541	0.461470	0.822429
	N255	N	0.911650	0.536161	0.821851
	N256	N	0.175138	0.912894	0.463648
	N257	N	0.175221	0.084063	0.538410
	N258	N	0.818405	0.084009	0.464233
	N259	N	0.818842	0.912787	0.539017
	N260	N	0.459902	0.175402	0.916502
	N261	N	0.534329	0.175785	0.086961
	N262	N	0.459963	0.819684	0.087255
	N263	N	0.534865	0.821805	0.917915
	N264	N	0.460296	0.911721	0.180906
	N265	N	0.534317	0.083808	0.180466
	N266	N	0.460436	0.083877	0.823317
	N267	N	0.534190	0.912251	0.823055
	N268	N	0.911929	0.176512	0.463708
	N269	N	0.082355	0.176459	0.538333
	N270	N	0.081418	0.820232	0.463307
	N271	N	0.911650	0.820028	0.538889
	N272	N	0.174713	0.460773	0.915982
	N273	N	0.175762	0.535810	0.086366
	N274	N	0.820658	0.461241	0.084929
	N275	N	0.819310	0.536166	0.914944
	O276	O	0.988091	0.102464	1.035417
	H277	H	0.994194	0.108057	1.040522
	H278	H	0.989151	0.101470	1.043714
	O279	O	0.474644	0.511785	0.433879
	H280	H	0.473118	0.520341	0.433660
	H281	H	0.482257	0.512828	0.437616
	O282	O	1.003508	1.077686	0.050691
	H283	H	1.003985	1.078332	0.053157
	H284	H	1.005455	1.083428	0.057940
	O285	O	0.468949	0.511645	0.448716
	H286	H	0.463467	0.515057	0.444327
	H287	H	0.470627	0.515575	0.448100
