data_Molecule from HDF5

_cell_length_a		16.622072
_cell_length_b		16.536117
_cell_length_c		16.599199
_cell_angle_alpha	89.863214
_cell_angle_beta	90.159672
_cell_angle_gamma	89.822993
_symmetry_space_group_name_H-M	'P 1'
_symmetry_Int_Tables_number		1

loop_
	_symmetry_equiv_pos_as_xyz
	x,y,z

loop_
	_atom_site_label
	_atom_site_type_symbol
	_atom_site_fract_x
	_atom_site_fract_y
	_atom_site_fract_z
	H0	H	0.405902	0.840023	0.748866
	H1	H	0.615792	0.153641	0.747612
	H2	H	0.623350	0.843718	0.301118
	H3	H	0.402367	0.150590	0.301273
	H4	H	0.733091	0.392506	0.869701
	H5	H	0.739784	0.606288	0.179537
	H6	H	0.289261	0.604474	0.871850
	H7	H	0.286558	0.385952	0.180101
	H8	H	0.856032	0.718873	0.419014
	H9	H	0.167204	0.719632	0.632072
	H10	H	0.859409	0.273270	0.632977
	H11	H	0.166354	0.270901	0.416621
	H12	H	0.860034	0.388797	0.749588
	H13	H	0.166420	0.605384	0.749942
	H14	H	0.858181	0.605392	0.301000
	H15	H	0.165593	0.385937	0.299282
	H16	H	0.405874	0.718854	0.871447
	H17	H	0.621960	0.721182	0.179458
	H18	H	0.614018	0.278525	0.868229
	H19	H	0.404947	0.271814	0.181743
	H20	H	0.736970	0.843210	0.419029
	H21	H	0.737125	0.150535	0.638122
	H22	H	0.289496	0.840347	0.632654
	H23	H	0.288121	0.151328	0.418563
	H24	H	0.909129	0.341352	0.248939
	H25	H	0.119622	0.653168	0.248081
	H26	H	0.119233	0.340714	0.804872
	H27	H	0.907791	0.651906	0.804800
	H28	H	0.231567	0.892478	0.369729
	H29	H	0.232137	0.099262	0.682523
	H30	H	0.784603	0.108074	0.373498
	H31	H	0.793774	0.894981	0.683954
	H32	H	0.354939	0.216671	0.923764
	H33	H	0.669746	0.214475	0.129355
	H34	H	0.358675	0.771666	0.133183
	H35	H	0.668941	0.776670	0.923365
	H36	H	0.358793	0.887417	0.250478
	H37	H	0.668257	0.099773	0.247697
	H38	H	0.353968	0.099420	0.808052
	H39	H	0.668554	0.894048	0.807365
	H40	H	0.903166	0.221764	0.371347
	H41	H	0.117161	0.217196	0.682082
	H42	H	0.111678	0.780363	0.368162
	H43	H	0.909376	0.776957	0.682695
	H44	H	0.234351	0.340428	0.922253
	H45	H	0.235868	0.652333	0.132828
	H46	H	0.794667	0.339034	0.130788
	H47	H	0.791804	0.652445	0.921074
	H48	H	0.415226	0.110105	0.613101
	H49	H	0.598039	0.886108	0.617921
	H50	H	0.589718	0.104941	0.441169
	H51	H	0.426131	0.883021	0.433523
	H52	H	0.609958	0.404340	0.140774
	H53	H	0.609787	0.581442	0.913025
	H54	H	0.421234	0.584045	0.139458
	H55	H	0.429517	0.415160	0.920073
	H56	H	0.121666	0.585652	0.441109
	H57	H	0.901177	0.583125	0.618643
	H58	H	0.125289	0.402502	0.610157
	H59	H	0.905709	0.410218	0.445295
	H60	H	0.120443	0.414632	0.612226
	H61	H	0.899121	0.590636	0.615139
	H62	H	0.124299	0.584202	0.432557
	H63	H	0.905421	0.418853	0.437874
	H64	H	0.425801	0.578106	0.135874
	H65	H	0.595928	0.577668	0.919052
	H66	H	0.603753	0.409021	0.137007
	H67	H	0.427338	0.400956	0.914904
	H68	H	0.601632	0.107294	0.446206
	H69	H	0.600793	0.887432	0.611804
	H70	H	0.422640	0.110105	0.621445
	H71	H	0.427080	0.887379	0.442771
	H72	H	0.923278	0.609729	0.115898
	H73	H	0.090572	0.389358	0.113593
	H74	H	0.100862	0.609287	0.934857
	H75	H	0.922374	0.382465	0.935274
	H76	H	0.103354	0.910394	0.638393
	H77	H	0.100614	0.089563	0.412659
	H78	H	0.922220	0.086252	0.638916
	H79	H	0.925491	0.911073	0.416551
	H80	H	0.625365	0.086846	0.935991
	H81	H	0.399644	0.087635	0.115373
	H82	H	0.624588	0.905917	0.113519
	H83	H	0.399196	0.908255	0.934165
	H84	H	0.619986	0.911626	0.109376
	H85	H	0.402296	0.084069	0.110369
	H86	H	0.624572	0.087748	0.933035
	H87	H	0.399863	0.904987	0.937607
	H88	H	0.924764	0.079336	0.634247
	H89	H	0.104189	0.083099	0.413186
	H90	H	0.098049	0.907541	0.637775
	H91	H	0.922242	0.905046	0.412698
	H92	H	0.097959	0.607836	0.937839
	H93	H	0.103103	0.388115	0.105123
	H94	H	0.926874	0.608516	0.113434
	H95	H	0.924870	0.383046	0.936286
	H96	H	0.425185	0.105502	0.611912
	H97	H	0.604460	0.882871	0.616171
	H98	H	0.598902	0.110739	0.433874
	H99	H	0.418533	0.882127	0.440240
	H100	H	0.601942	0.401026	0.139836
	H101	H	0.598250	0.591807	0.913018
	H102	H	0.429031	0.585489	0.137902
	H103	H	0.415684	0.411127	0.914304
	H104	H	0.125416	0.592189	0.436091
	H105	H	0.902331	0.584498	0.610249
	H106	H	0.126998	0.407943	0.622226
	H107	H	0.900924	0.408389	0.435158
	H108	H	0.922615	0.608763	0.111445
	H109	H	0.103086	0.381693	0.119202
	H110	H	0.102419	0.608936	0.939812
	H111	H	0.922785	0.383435	0.938438
	H112	H	0.102307	0.904693	0.640004
	H113	H	0.097089	0.083948	0.415760
	H114	H	0.930327	0.085776	0.636126
	H115	H	0.917976	0.911211	0.413780
	H116	H	0.624871	0.089760	0.935357
	H117	H	0.400955	0.081246	0.116009
	H118	H	0.623298	0.913219	0.116797
	H119	H	0.400786	0.909330	0.938259
	C120	C	0.389260	0.005053	0.648118
	C121	C	0.632951	0.988516	0.648037
	C122	C	0.631934	0.005505	0.406569
	C123	C	0.390475	0.987037	0.405053
	C124	C	0.635030	0.374376	0.035013
	C125	C	0.634772	0.617195	1.017602
	C126	C	0.391791	0.616600	0.035340
	C127	C	0.391057	0.375187	1.018575
	C128	C	0.021059	0.619907	0.403327
	C129	C	1.003747	0.618650	0.647132
	C130	C	0.022012	0.375326	0.647570
	C131	C	1.005138	0.376977	0.405062
	C132	C	0.892235	0.505624	0.146869
	C133	C	0.133113	0.488962	0.146467
	C134	C	0.133713	0.505078	0.905028
	C135	C	0.891523	0.487054	0.904655
	C136	C	0.132675	0.875698	0.534820
	C137	C	0.133146	0.117860	0.517042
	C138	C	0.890902	0.118761	0.534393
	C139	C	0.890327	0.876719	0.517511
	C140	C	0.520540	0.118859	0.904037
	C141	C	0.503848	0.116763	0.146581
	C142	C	0.521145	0.875216	0.147410
	C143	C	0.503480	0.875550	0.905010
	C144	C	0.387562	0.887151	0.708602
	C145	C	0.635118	0.105992	0.708719
	C146	C	0.638771	0.889737	0.343385
	C147	C	0.385465	0.103754	0.342493
	C148	C	0.693241	0.373683	0.916599
	C149	C	0.697853	0.622348	0.133365
	C150	C	0.329864	0.621298	0.918710
	C151	C	0.328413	0.369667	0.134219
	C152	C	0.903506	0.679564	0.400676
	C153	C	0.120390	0.679304	0.650075
	C154	C	0.905750	0.313881	0.650990
	C155	C	0.120051	0.312491	0.399502
	C156	C	0.906063	0.371252	0.708892
	C157	C	0.119921	0.622459	0.708913
	C158	C	0.904360	0.622780	0.342105
	C159	C	0.119983	0.370334	0.341529
	C160	C	0.388139	0.678303	0.918516
	C161	C	0.639366	0.679669	0.133573
	C162	C	0.634199	0.317040	0.915948
	C163	C	0.387374	0.312845	0.135075
	C164	C	0.695898	0.889725	0.401711
	C165	C	0.694926	0.104834	0.653580
	C166	C	0.329800	0.887042	0.650593
	C167	C	0.328887	0.104473	0.401116
	C168	C	0.890377	0.387931	0.208226
	C169	C	0.137265	0.606252	0.207704
	C170	C	0.137094	0.387558	0.844925
	C171	C	0.889554	0.605202	0.844895
	C172	C	0.191561	0.874175	0.416697
	C173	C	0.192576	0.118507	0.635326
	C174	C	0.826735	0.124837	0.419184
	C175	C	0.832570	0.875366	0.636368
	C176	C	0.401895	0.176982	0.904565
	C177	C	0.622151	0.175548	0.148381
	C178	C	0.404885	0.812759	0.151126
	C179	C	0.621617	0.816364	0.904199
	C180	C	0.405078	0.869856	0.209612
	C181	C	0.621385	0.118376	0.207164
	C182	C	0.401474	0.118909	0.846982
	C183	C	0.621400	0.874538	0.846447
	C184	C	0.885697	0.181332	0.418118
	C185	C	0.135269	0.177102	0.635039
	C186	C	0.132093	0.818347	0.415729
	C187	C	0.889800	0.816768	0.635787
	C188	C	0.194188	0.387366	0.903256
	C189	C	0.194925	0.605914	0.150256
	C190	C	0.833527	0.386927	0.149425
	C191	C	0.832022	0.605455	0.902532
	C192	C	0.414027	0.087215	0.622769
	C193	C	0.608088	0.906680	0.622420
	C194	C	0.604509	0.086474	0.433081
	C195	C	0.416517	0.905556	0.431416
	C196	C	0.611712	0.398089	0.117665
	C197	C	0.608629	0.591119	0.936254
	C198	C	0.418055	0.590128	0.116573
	C199	C	0.416853	0.401644	0.937534
	C200	C	0.102593	0.594434	0.429197
	C201	C	0.922159	0.593305	0.621738
	C202	C	0.103179	0.401177	0.622034
	C203	C	0.924785	0.404859	0.432019
	C204	C	0.917008	0.587639	0.121138
	C205	C	0.106540	0.407746	0.120251
	C206	C	0.107869	0.587336	0.930161
	C207	C	0.916123	0.404574	0.929521
	C208	C	0.108306	0.900303	0.617179
	C209	C	0.107958	0.092717	0.435201
	C210	C	0.918112	0.091893	0.615137
	C211	C	0.914581	0.901913	0.435832
	C212	C	0.603392	0.094870	0.927715
	C213	C	0.422240	0.091593	0.121156
	C214	C	0.601688	0.902387	0.120785
	C215	C	0.421188	0.900533	0.929486
	Zn216	Zn	0.511231	-0.003104	0.775759
	Zn217	Zn	0.511657	-0.003918	0.276601
	Zn218	Zn	0.763738	0.496107	0.025474
	Zn219	Zn	0.261901	0.496850	0.026805
	Zn220	Zn	0.011682	0.747752	0.525501
	Zn221	Zn	0.012303	0.247327	0.525151
	Zn222	Zn	0.012499	0.496803	0.776340
	Zn223	Zn	0.013408	0.497968	0.275522
	Zn224	Zn	0.512929	0.745908	0.026450
	Zn225	Zn	0.512287	0.246665	0.026213
	Zn226	Zn	0.761523	-0.001604	0.526921
	Zn227	Zn	0.261532	-0.004441	0.525314
	N228	N	0.423739	0.961719	0.707289
	N229	N	0.597011	0.032564	0.705580
	N230	N	0.599329	0.962586	0.346631
	N231	N	0.423363	0.029834	0.344977
	N232	N	0.694171	0.408306	0.991729
	N233	N	0.694971	0.584080	0.060216
	N234	N	0.331951	0.583536	0.992442
	N235	N	0.330780	0.407920	0.060911
	N236	N	0.977049	0.677922	0.438298
	N237	N	0.046842	0.677334	0.612386
	N238	N	0.978965	0.316026	0.613715
	N239	N	0.047648	0.316944	0.438880
	N240	N	0.979524	0.408766	0.706997
	N241	N	0.046269	0.585265	0.707169
	N242	N	0.978618	0.586343	0.343640
	N243	N	0.047609	0.410156	0.345319
	N244	N	0.425964	0.675801	0.992119
	N245	N	0.600525	0.676362	0.060621
	N246	N	0.598944	0.317000	0.990799
	N247	N	0.426015	0.316293	0.062163
	N248	N	0.691721	0.962947	0.440572
	N249	N	0.693700	0.030847	0.616415
	N250	N	0.330586	0.961454	0.613854
	N251	N	0.331842	0.030880	0.439484
	N252	N	0.925899	0.462791	0.206811
	N253	N	0.099542	0.532466	0.205541
	N254	N	0.100387	0.462109	0.845766
	N255	N	0.925542	0.530414	0.845866
	N256	N	0.192036	0.908984	0.491752
	N257	N	0.191628	0.082532	0.560798
	N258	N	0.829740	0.086658	0.492561
	N259	N	0.832323	0.911588	0.561790
	N260	N	0.477220	0.177511	0.938876
	N261	N	0.547963	0.174995	0.111651
	N262	N	0.478116	0.815754	0.113334
	N263	N	0.546927	0.816594	0.939568
	N264	N	0.478458	0.907763	0.207706
	N265	N	0.546724	0.082981	0.206491
	N266	N	0.476349	0.083713	0.846401
	N267	N	0.546759	0.910364	0.846632
	N268	N	0.924969	0.177569	0.490893
	N269	N	0.099319	0.177023	0.560457
	N270	N	0.096430	0.819085	0.490420
	N271	N	0.924569	0.817029	0.560891
	N272	N	0.192352	0.461703	0.939601
	N273	N	0.192730	0.531959	0.113238
	N274	N	0.834027	0.461257	0.112354
	N275	N	0.832994	0.530908	0.938783
	O276	O	-0.279026	0.707946	-0.264544
	H277	H	-0.289633	0.704968	-0.287848
	H278	H	-0.247019	0.735240	-0.234139
	O279	O	0.497713	0.717005	0.307035
	H280	H	0.489234	0.744165	0.284492
	H281	H	0.500010	0.706546	0.315801
	O282	O	1.573086	0.395924	0.489492
	H283	H	1.577978	0.393908	0.484849
	H284	H	1.564811	0.390151	0.498866
	O285	O	0.736977	0.469153	0.303825
	H286	H	0.730307	0.475047	0.302275
	H287	H	0.754988	0.458303	0.281863
	O288	O	-0.205032	0.993396	-0.138843
	H289	H	-0.220503	0.985954	-0.131888
	H290	H	-0.204617	1.005042	-0.133828
	O291	O	0.420602	0.364976	0.640587
	H292	H	0.413322	0.348485	0.660796
	H293	H	0.434420	0.377651	0.639161
	O294	O	1.292472	-0.387365	0.631438
	H295	H	1.283066	-0.375207	0.649953
	H296	H	1.287965	-0.376139	0.609074
	O297	O	0.716442	0.289265	0.316938
	H298	H	0.683316	0.288437	0.322579
	H299	H	0.730306	0.296381	0.310817
	O300	O	-0.252539	0.264673	0.758676
	H301	H	-0.274129	0.246542	0.741071
	H302	H	-0.235725	0.290076	0.759787
	O303	O	0.817349	0.111153	0.134949
	H304	H	0.822110	0.104316	0.133070
	H305	H	0.804938	0.125160	0.132970
	O306	O	0.388083	0.554441	0.673811
	H307	H	0.385402	0.536657	0.688487
	H308	H	0.399402	0.548204	0.667791
	O309	O	0.737434	0.517568	0.739929
	H310	H	0.718142	0.527791	0.746111
	H311	H	0.757005	0.535292	0.767318
	O312	O	0.728245	0.548143	0.508118
	H313	H	0.728441	0.541657	0.513618
	H314	H	0.740528	0.530305	0.527517
	O315	O	1.124793	0.864464	1.139232
	H316	H	1.110665	0.865024	1.152052
	H317	H	1.136790	0.865670	1.153488
	O318	O	0.725508	0.280591	0.523096
	H319	H	0.722871	0.292769	0.503805
	H320	H	0.729921	0.254913	0.509468
	O321	O	-0.044494	1.054752	1.122436
	H322	H	-0.033770	1.056553	1.118123
	H323	H	-0.040147	1.043751	1.127868
	O324	O	1.163067	1.200422	0.098403
	H325	H	1.133249	1.208498	0.107764
	H326	H	1.161146	1.187251	0.096489
	O327	O	0.200093	0.153028	0.862282
	H328	H	0.197233	0.158057	0.868216
	H329	H	0.199314	0.141295	0.875012
	O330	O	1.002842	-0.130886	0.028522
	H331	H	1.016871	-0.146267	0.025336
	H332	H	1.010934	-0.125723	0.016640
	O333	O	0.289678	0.278080	0.560848
	H334	H	0.269452	0.255724	0.547291
	H335	H	0.286378	0.291278	0.542627
	O336	O	0.546259	0.723766	0.749489
	H337	H	0.551828	0.727134	0.771740
	H338	H	0.565526	0.732965	0.762037
	O339	O	1.030585	0.078348	1.078775
	H340	H	1.022662	0.089528	1.082061
	H341	H	1.040092	0.076190	1.073189
	O342	O	-0.630669	-0.658507	0.326812
	H343	H	-0.622771	-0.639549	0.334210
	H344	H	-0.613576	-0.651934	0.346894
	O345	O	0.701573	1.681897	0.338356
	H346	H	0.693021	1.653536	0.356627
	H347	H	0.677303	1.672294	0.354498
	O348	O	-0.470381	0.504153	0.650367
	H349	H	-0.482389	0.517503	0.658117
	H350	H	-0.477721	0.490186	0.667394
	O351	O	0.301948	0.709295	0.511916
	H352	H	0.323536	0.720816	0.528221
	H353	H	0.296880	0.714785	0.523450
	O354	O	-0.174040	-0.187532	0.838806
	H355	H	-0.164647	-0.163080	0.860218
	H356	H	-0.144631	-0.179630	0.853741
	O357	O	0.493368	0.331404	0.721303
	H358	H	0.488722	0.310245	0.732121
	H359	H	0.466300	0.335883	0.721379
	O360	O	0.166983	-0.070779	1.074618
	H361	H	0.169277	-0.079264	1.097970
	H362	H	0.162052	-0.076293	1.079142
	O363	O	0.068583	-0.127487	-0.099873
	H364	H	0.080460	-0.113891	-0.094813
	H365	H	0.083189	-0.124773	-0.101283
	O366	O	0.546407	0.273746	0.307733
	H367	H	0.544238	0.280999	0.302477
	H368	H	0.535822	0.262378	0.285326
	O369	O	1.309059	0.288928	-0.269324
	H370	H	1.289486	0.288823	-0.276943
	H371	H	1.323920	0.285712	-0.295367
	O372	O	0.919699	1.144941	-0.181190
	H373	H	0.925248	1.130636	-0.176916
	H374	H	0.915586	1.144038	-0.190460
	O375	O	1.028286	0.159829	0.190329
	H376	H	1.020387	0.153469	0.203162
	H377	H	1.017467	0.169024	0.166721
	O378	O	0.219271	0.199802	1.151361
	H379	H	0.227799	0.202632	1.158186
	H380	H	0.220467	0.220417	1.167709
	O381	O	0.445598	0.524958	0.592034
	H382	H	0.439749	0.524587	0.590907
	H383	H	0.445072	0.526453	0.596785
	O384	O	0.640451	0.454044	0.614145
	H385	H	0.655727	0.444554	0.595179
	H386	H	0.660304	0.446238	0.624665
	O387	O	0.977654	0.802508	0.233291
	H388	H	0.961139	0.802779	0.233827
	H389	H	0.963632	0.781705	0.252779
	O390	O	0.381963	0.650231	0.573154
	H391	H	0.399717	0.648737	0.564198
	H392	H	0.402921	0.647106	0.579523
	O393	O	0.221347	0.905659	0.234123
	H394	H	0.237326	0.903903	0.247201
	H395	H	0.214421	0.910181	0.249977
	O396	O	0.189237	1.102691	1.022068
	H397	H	0.182804	1.102806	1.034518
	H398	H	0.197095	1.096588	1.026008
	O399	O	0.738346	0.437331	1.536703
	H400	H	0.740940	0.425407	1.524185
	H401	H	0.747806	0.444074	1.562264
	O402	O	0.024313	0.060229	1.141700
	H403	H	-0.000932	0.055280	1.139517
	H404	H	0.011829	0.061442	1.159737
	O405	O	0.861493	-0.017680	1.082194
	H406	H	0.872147	-0.013110	1.089107
	H407	H	0.863609	-0.020806	1.082361
	O408	O	0.055468	0.141459	-0.088339
	H409	H	0.057567	0.139048	-0.098713
	H410	H	0.074574	0.143522	-0.078616
	O411	O	-0.196222	0.793032	0.061032
	H412	H	-0.182674	0.783438	0.049766
	H413	H	-0.188711	0.777991	0.050740
	O414	O	0.504473	0.268920	-0.399640
	H415	H	0.508307	0.294370	-0.402056
	H416	H	0.506411	0.258524	-0.373327
	O417	O	0.484582	0.521901	0.483289
	H418	H	0.490453	0.510302	0.501927
	H419	H	0.485375	0.519123	0.469949
	O420	O	0.481890	0.300965	0.451154
	H421	H	0.497986	0.293845	0.445352
	H422	H	0.491341	0.289085	0.469581
	O423	O	0.019975	-0.149503	1.023144
	H424	H	0.039187	-0.144428	1.024279
	H425	H	0.037904	-0.157865	1.030894
	O426	O	0.789526	0.218178	-0.010428
	H427	H	0.786123	0.219789	-0.044281
	H428	H	0.766027	0.242886	-0.023480
	O429	O	0.810639	0.801420	1.229242
	H430	H	0.788433	0.777527	1.227955
	H431	H	0.804442	0.794376	1.213158
	O432	O	0.809801	-0.024983	0.236122
	H433	H	0.807691	-0.042621	0.234301
	H434	H	0.800705	-0.043888	0.240218
	O435	O	0.146557	0.783480	0.068837
	H436	H	0.147168	0.794893	0.078407
	H437	H	0.164995	0.779386	0.092336
	O438	O	0.210895	-0.204536	-0.178283
	H439	H	0.222824	-0.190207	-0.183628
	H440	H	0.217335	-0.199303	-0.139281
	O441	O	0.091885	0.021624	0.232877
	H442	H	0.075445	0.033514	0.219289
	H443	H	0.098933	0.029978	0.253742
	O444	O	0.501881	0.464710	0.281871
	H445	H	0.501864	0.463751	0.288171
	H446	H	0.487981	0.477030	0.274174
	O447	O	-0.032219	1.072823	0.978742
	H448	H	-0.024634	1.079965	0.992834
	H449	H	-0.030836	1.069411	0.983973
	O450	O	0.180300	0.879940	1.005025
	H451	H	0.165234	0.875239	1.007924
	H452	H	0.190488	0.876235	1.014622
	O453	O	0.536711	0.521649	0.738390
	H454	H	0.520598	0.528674	0.733789
	H455	H	0.546744	0.533426	0.731164
	O456	O	-0.662290	0.462467	0.718474
	H457	H	-0.676568	0.449537	0.728089
	H458	H	-0.670526	0.443592	0.720495
	O459	O	0.736442	0.722389	0.560222
	H460	H	0.747585	0.724333	0.551465
	H461	H	0.748945	0.740506	0.576126
	O462	O	0.509504	0.556567	0.309885
	H463	H	0.498104	0.535245	0.324784
	H464	H	0.509338	0.556978	0.315191
	O465	O	0.877716	0.206951	-0.179289
	H466	H	0.899194	0.185864	-0.177234
	H467	H	0.864941	0.238880	-0.213940
	O468	O	0.311077	0.684558	0.340988
	H469	H	0.316921	0.674663	0.369028
	H470	H	0.331644	0.679634	0.355420
	O471	O	0.543476	0.657172	0.547632
	H472	H	0.552945	0.657725	0.553988
	H473	H	0.550929	0.667085	0.563623
	O474	O	0.298528	0.479150	0.308345
	H475	H	0.300209	0.493867	0.327683
	H476	H	0.276489	0.493055	0.279821
	O477	O	0.280888	0.434634	1.469159
	H478	H	0.272751	0.445752	1.459979
	H479	H	0.289752	0.451648	1.478116
	O480	O	0.014090	0.987994	-0.173032
	H481	H	0.022188	0.987751	-0.157132
	H482	H	0.001364	0.976039	-0.172300
	O483	O	0.571689	0.728455	0.467991
	H484	H	0.574560	0.737878	0.463808
	H485	H	0.577454	0.715274	0.476977
	O486	O	0.225937	0.965123	-0.189209
	H487	H	0.226701	0.973238	-0.185392
	H488	H	0.245040	0.975187	-0.206140
	O489	O	0.923054	0.915117	-0.080324
	H490	H	0.931035	0.904671	-0.078061
	H491	H	0.927503	0.936796	-0.080005
