data_Molecule from HDF5

_cell_length_a		16.095523
_cell_length_b		16.470302
_cell_length_c		16.045103
_cell_angle_alpha	89.864885
_cell_angle_beta	89.534187
_cell_angle_gamma	90.818064
_symmetry_space_group_name_H-M	'P 1'
_symmetry_Int_Tables_number		1

loop_
	_symmetry_equiv_pos_as_xyz
	x,y,z

loop_
	_atom_site_label
	_atom_site_type_symbol
	_atom_site_fract_x
	_atom_site_fract_y
	_atom_site_fract_z
	H0	H	0.393424	0.841544	0.714625
	H1	H	0.596286	0.166995	0.712681
	H2	H	0.593739	0.842022	0.282321
	H3	H	0.401562	0.166672	0.283814
	H4	H	0.706212	0.411818	0.831759
	H5	H	0.708223	0.602912	0.165118
	H6	H	0.290933	0.597156	0.830309
	H7	H	0.278215	0.403856	0.164232
	H8	H	0.831172	0.720175	0.396460
	H9	H	0.158988	0.724655	0.600262
	H10	H	0.832683	0.283057	0.605326
	H11	H	0.161065	0.292530	0.396017
	H12	H	0.829067	0.407343	0.710833
	H13	H	0.162673	0.601443	0.705729
	H14	H	0.828256	0.597120	0.289352
	H15	H	0.161278	0.411853	0.285580
	H16	H	0.396215	0.719301	0.834318
	H17	H	0.597819	0.721877	0.162991
	H18	H	0.597525	0.290404	0.834307
	H19	H	0.388296	0.285059	0.163079
	H20	H	0.709403	0.841822	0.399398
	H21	H	0.713572	0.165650	0.597160
	H22	H	0.275006	0.843077	0.600604
	H23	H	0.284261	0.167312	0.399616
	H24	H	0.894613	0.342222	0.213578
	H25	H	0.095821	0.668254	0.212209
	H26	H	0.089306	0.341718	0.784517
	H27	H	0.902715	0.667629	0.785476
	H28	H	0.206297	0.912723	0.332220
	H29	H	0.208075	0.102468	0.665762
	H30	H	0.788855	0.098891	0.332041
	H31	H	0.780599	0.905749	0.664691
	H32	H	0.330058	0.217776	0.896876
	H33	H	0.658090	0.225096	0.100416
	H34	H	0.331641	0.784073	0.104140
	H35	H	0.659430	0.790485	0.895227
	H36	H	0.329766	0.906306	0.212331
	H37	H	0.663448	0.100596	0.205862
	H38	H	0.328659	0.096225	0.789097
	H39	H	0.661709	0.911629	0.787198
	H40	H	0.896880	0.219667	0.334389
	H41	H	0.097557	0.221257	0.664098
	H42	H	0.098559	0.791229	0.334338
	H43	H	0.890505	0.787132	0.663274
	H44	H	0.207870	0.341435	0.898938
	H45	H	0.213825	0.667022	0.095334
	H46	H	0.774750	0.343507	0.100735
	H47	H	0.784895	0.667939	0.901073
	H48	H	0.396024	0.120916	0.589251
	H49	H	0.589667	0.888376	0.591331
	H50	H	0.611346	0.122929	0.412270
	H51	H	0.398603	0.887448	0.402217
	H52	H	0.581626	0.401615	0.119618
	H53	H	0.582504	0.599248	0.882209
	H54	H	0.402256	0.592019	0.117358
	H55	H	0.403418	0.420970	0.883525
	H56	H	0.112568	0.594841	0.405278
	H57	H	0.878183	0.597007	0.589024
	H58	H	0.116751	0.409284	0.595237
	H59	H	0.876936	0.413071	0.402442
	H60	H	0.113948	0.408444	0.582873
	H61	H	0.877080	0.595242	0.593950
	H62	H	0.115106	0.604566	0.403639
	H63	H	0.873654	0.399565	0.409069
	H64	H	0.407981	0.595235	0.116239
	H65	H	0.591668	0.605869	0.877300
	H66	H	0.593415	0.417900	0.118599
	H67	H	0.415648	0.403709	0.881894
	H68	H	0.591229	0.124651	0.383919
	H69	H	0.587416	0.887544	0.595710
	H70	H	0.405360	0.121891	0.601903
	H71	H	0.405448	0.890777	0.406977
	H72	H	0.909829	0.616591	0.088912
	H73	H	0.084234	0.389263	0.095631
	H74	H	0.088107	0.619315	0.900349
	H75	H	0.893312	0.389368	0.911303
	H76	H	0.091167	0.913529	0.619422
	H77	H	0.092268	0.092150	0.382300
	H78	H	0.909099	0.089534	0.613988
	H79	H	0.901198	0.904952	0.376618
	H80	H	0.617489	0.110126	0.903556
	H81	H	0.380192	0.089014	0.088096
	H82	H	0.614925	0.913807	0.091880
	H83	H	0.376630	0.903669	0.913776
	H84	H	0.615010	0.906564	0.089273
	H85	H	0.375476	0.095566	0.098431
	H86	H	0.609682	0.100384	0.918733
	H87	H	0.377860	0.914028	0.909285
	H88	H	0.908780	0.104052	0.618974
	H89	H	0.082502	0.103112	0.381178
	H90	H	0.080785	0.917333	0.615203
	H91	H	0.901698	0.915792	0.380595
	H92	H	0.097592	0.619543	0.908585
	H93	H	0.083891	0.392443	0.087876
	H94	H	0.894454	0.621835	0.089074
	H95	H	0.897706	0.386435	0.898162
	H96	H	0.410333	0.115761	0.589246
	H97	H	0.584158	0.889750	0.592071
	H98	H	0.577918	0.111807	0.414763
	H99	H	0.396917	0.889900	0.411687
	H100	H	0.574406	0.418537	0.112812
	H101	H	0.593629	0.594845	0.879926
	H102	H	0.403087	0.599390	0.119020
	H103	H	0.393931	0.402859	0.875248
	H104	H	0.111945	0.602231	0.413342
	H105	H	0.874919	0.599880	0.591882
	H106	H	0.111884	0.418163	0.589184
	H107	H	0.880653	0.411073	0.417577
	H108	H	0.903389	0.622762	0.102040
	H109	H	0.090487	0.388620	0.090708
	H110	H	0.099148	0.622748	0.897751
	H111	H	0.906613	0.392003	0.907618
	H112	H	0.081647	0.906154	0.619627
	H113	H	0.097050	0.105987	0.376967
	H114	H	0.896010	0.095470	0.620630
	H115	H	0.910834	0.909405	0.381555
	H116	H	0.612186	0.091596	0.900690
	H117	H	0.376631	0.101094	0.086851
	H118	H	0.612378	0.912623	0.084767
	H119	H	0.374621	0.905310	0.903795
	C120	C	0.372550	0.012745	0.622615
	C121	C	0.617638	0.995827	0.621245
	C122	C	0.619805	0.012329	0.375496
	C123	C	0.374277	0.996511	0.377923
	C124	C	0.614269	0.384941	0.007731
	C125	C	0.618076	0.627997	0.989599
	C126	C	0.376375	0.623545	0.007504
	C127	C	0.372650	0.380379	0.989574
	C128	C	0.003759	0.626785	0.378104
	C129	C	0.986130	0.626852	0.619950
	C130	C	0.004807	0.382653	0.619753
	C131	C	0.986821	0.382226	0.378875
	C132	C	0.871861	0.513414	0.122460
	C133	C	0.117657	0.496963	0.120407
	C134	C	0.119798	0.512930	0.874542
	C135	C	0.873477	0.496542	0.877244
	C136	C	0.115058	0.884977	0.508299
	C137	C	0.118620	0.127842	0.490186
	C138	C	0.876416	0.124764	0.507989
	C139	C	0.873956	0.881843	0.489494
	C140	C	0.503858	0.126623	0.878045
	C141	C	0.486477	0.125367	0.119610
	C142	C	0.504908	0.881823	0.119647
	C143	C	0.486051	0.882288	0.878717
	C144	C	0.373212	0.890483	0.677360
	C145	C	0.616370	0.117989	0.675723
	C146	C	0.614980	0.890445	0.320412
	C147	C	0.379954	0.118571	0.322317
	C148	C	0.669786	0.389316	0.882234
	C149	C	0.671842	0.624106	0.114977
	C150	C	0.325480	0.618951	0.880990
	C151	C	0.316020	0.383280	0.114490
	C152	C	0.880206	0.681820	0.377770
	C153	C	0.110200	0.684801	0.618981
	C154	C	0.881092	0.324075	0.621969
	C155	C	0.111406	0.329542	0.377624
	C156	C	0.879373	0.385579	0.674916
	C157	C	0.111931	0.623499	0.671402
	C158	C	0.878569	0.620392	0.324817
	C159	C	0.111428	0.388557	0.322289
	C160	C	0.377788	0.679884	0.883034
	C161	C	0.617117	0.683671	0.113743
	C162	C	0.615790	0.328875	0.883658
	C163	C	0.370702	0.324122	0.113862
	C164	C	0.672503	0.890220	0.378708
	C165	C	0.674988	0.117441	0.617918
	C166	C	0.314271	0.891294	0.620510
	C167	C	0.321781	0.118775	0.380047
	C168	C	0.873547	0.391009	0.176840
	C169	C	0.116108	0.619353	0.174884
	C170	C	0.112804	0.390248	0.820879
	C171	C	0.880234	0.619099	0.822792
	C172	C	0.170106	0.890254	0.382421
	C173	C	0.171929	0.124262	0.615609
	C174	C	0.824377	0.120491	0.382281
	C175	C	0.817612	0.884433	0.614592
	C176	C	0.379596	0.180215	0.878422
	C177	C	0.610017	0.184311	0.118943
	C178	C	0.380721	0.824139	0.121483
	C179	C	0.610327	0.828785	0.877636
	C180	C	0.379807	0.884390	0.175871
	C181	C	0.612565	0.122584	0.171476
	C182	C	0.378633	0.119571	0.824790
	C183	C	0.611571	0.888987	0.823813
	C184	C	0.878367	0.180452	0.383474
	C185	C	0.116767	0.182940	0.614847
	C186	C	0.115968	0.830233	0.383321
	C187	C	0.872726	0.826027	0.614081
	C188	C	0.171143	0.390153	0.878173
	C189	C	0.174839	0.618814	0.116559
	C190	C	0.814016	0.391668	0.120608
	C191	C	0.821709	0.619307	0.880333
	C192	C	0.396824	0.097576	0.600130
	C193	C	0.594127	0.910585	0.599494
	C194	C	0.599407	0.097565	0.397264
	C195	C	0.394417	0.911437	0.400340
	C196	C	0.590350	0.406434	0.094704
	C197	C	0.595895	0.606293	0.902332
	C198	C	0.398095	0.601776	0.094832
	C199	C	0.397101	0.402643	0.902642
	C200	C	0.090783	0.606524	0.400680
	C201	C	0.899269	0.604215	0.597907
	C202	C	0.091692	0.405317	0.596078
	C203	C	0.899553	0.402158	0.402821
	C204	C	0.895631	0.598569	0.099949
	C205	C	0.093358	0.411930	0.097994
	C206	C	0.100753	0.598358	0.895999
	C207	C	0.893166	0.411416	0.899387
	C208	C	0.091397	0.906177	0.595369
	C209	C	0.096862	0.106867	0.402793
	C210	C	0.898135	0.102861	0.595439
	C211	C	0.897566	0.903652	0.402331
	C212	C	0.590810	0.106474	0.900822
	C213	C	0.399739	0.102051	0.097518
	C214	C	0.591647	0.904511	0.095708
	C215	C	0.399018	0.901904	0.902002
	Zn216	Zn	0.495182	0.003997	0.751709
	Zn217	Zn	0.496482	0.004020	0.246753
	Zn218	Zn	0.743421	0.505332	-0.000769
	Zn219	Zn	0.248135	0.503990	-0.002262
	Zn220	Zn	-0.005052	0.755158	0.499181
	Zn221	Zn	-0.003426	0.254002	0.499387
	Zn222	Zn	-0.003865	0.504856	0.746839
	Zn223	Zn	-0.005140	0.504862	0.251107
	Zn224	Zn	0.495389	0.753433	-0.001260
	Zn225	Zn	0.494306	0.254694	-0.000822
	Zn226	Zn	0.748293	0.003557	0.498208
	Zn227	Zn	0.243819	0.005265	0.499574
	N228	N	0.409049	0.966906	0.678897
	N229	N	0.581359	0.041403	0.677913
	N230	N	0.582996	0.967419	0.318235
	N231	N	0.411746	0.041480	0.320516
	N232	N	0.668880	0.423625	0.960391
	N233	N	0.672306	0.590101	0.036665
	N234	N	0.324591	0.584471	0.959374
	N235	N	0.317100	0.417640	0.036119
	N236	N	0.959240	0.685877	0.410207
	N237	N	0.031000	0.687056	0.587556
	N238	N	0.960014	0.322141	0.588396
	N239	N	0.032816	0.325549	0.412016
	N240	N	0.957264	0.421596	0.673597
	N241	N	0.033890	0.587866	0.672210
	N242	N	0.956428	0.586818	0.324966
	N243	N	0.032891	0.420749	0.322903
	N244	N	0.408656	0.682837	0.962656
	N245	N	0.584097	0.685895	0.034948
	N246	N	0.581819	0.326175	0.962593
	N247	N	0.405349	0.322486	0.035238
	N248	N	0.675735	0.967109	0.412150
	N249	N	0.675898	0.040351	0.584902
	N250	N	0.313786	0.968283	0.587096
	N251	N	0.318219	0.041996	0.414000
	N252	N	0.908566	0.467714	0.178260
	N253	N	0.080954	0.542469	0.177223
	N254	N	0.081715	0.467486	0.818303
	N255	N	0.911586	0.541843	0.820636
	N256	N	0.169590	0.923628	0.461079
	N257	N	0.173334	0.090874	0.537100
	N258	N	0.823205	0.086440	0.460817
	N259	N	0.818388	0.918468	0.536178
	N260	N	0.458505	0.184641	0.910807
	N261	N	0.530703	0.186262	0.087768
	N262	N	0.459491	0.822275	0.087517
	N263	N	0.531370	0.824422	0.911042
	N264	N	0.457962	0.919660	0.174825
	N265	N	0.534797	0.086501	0.171958
	N266	N	0.456996	0.087039	0.824338
	N267	N	0.533219	0.921620	0.824348
	N268	N	0.909852	0.183213	0.462894
	N269	N	0.084565	0.185447	0.535746
	N270	N	0.082895	0.826332	0.462587
	N271	N	0.906950	0.824151	0.535179
	N272	N	0.175834	0.467299	0.910742
	N273	N	0.175893	0.541734	0.083712
	N274	N	0.812676	0.468936	0.087626
	N275	N	0.817523	0.542292	0.913622
	O276	O	-0.064743	0.057161	0.004776
	H277	H	-0.056249	0.051619	0.007146
	H278	H	-0.066082	0.066451	-0.002724
	O279	O	0.418163	0.493102	0.589818
	H280	H	0.426111	0.481776	0.599307
	H281	H	0.419770	0.499084	0.592665
	O282	O	0.422457	0.561788	0.523202
	H283	H	0.424531	0.573922	0.527585
	H284	H	0.432418	0.566639	0.507909
	O285	O	-0.044210	0.935652	1.009757
	H286	H	-0.044272	0.932658	1.016600
	H287	H	-0.041348	0.950660	1.011700
	O288	O	0.412850	0.510968	0.495046
	H289	H	0.412879	0.527232	0.501366
	H290	H	0.412926	0.502400	0.503328
	O291	O	0.949611	1.111070	0.982275
	H292	H	0.955169	1.111026	0.980503
	H293	H	0.945058	1.121392	0.983191
	O294	O	1.478617	0.485307	0.549428
	H295	H	1.471151	0.472961	0.544609
	H296	H	1.484123	0.485489	0.546737
	O297	O	1.034339	-0.041479	1.024522
	H298	H	1.033095	-0.044729	1.028802
	H299	H	1.031694	-0.036399	1.026784
	O300	O	0.578952	0.447383	0.553536
	H301	H	0.565204	0.448675	0.557767
	H302	H	0.583110	0.454862	0.553660
	O303	O	0.934593	-0.003039	-0.021751
	H304	H	0.934783	0.005218	-0.016102
	H305	H	0.937105	-0.005577	-0.029631
	O306	O	-0.094413	0.984247	1.008031
	H307	H	-0.096217	0.976512	1.011706
	H308	H	-0.087397	0.984952	1.009521
	O309	O	0.487978	0.436903	0.496191
	H310	H	0.488446	0.423268	0.494143
	H311	H	0.494614	0.429740	0.502973
	O312	O	0.985211	-0.086880	0.961357
	H313	H	0.980822	-0.083205	0.955745
	H314	H	0.987841	-0.086813	0.967234
	O315	O	0.501280	0.468986	0.640347
	H316	H	0.493380	0.480981	0.643788
	H317	H	0.506796	0.465608	0.641648
	O318	O	0.463799	0.533755	0.487518
	H319	H	0.468793	0.533204	0.485992
	H320	H	0.465005	0.533641	0.487231
	O321	O	1.020459	1.016895	0.996759
	H322	H	1.015281	1.009917	0.993343
	H323	H	1.014538	1.021948	0.990368
	O324	O	0.567197	0.365404	0.488801
	H325	H	0.563405	0.366663	0.489072
	H326	H	0.574927	0.364715	0.498956
	O327	O	0.424200	0.539437	0.568850
	H328	H	0.426618	0.543236	0.570016
	H329	H	0.430283	0.542626	0.564374
	O330	O	1.058273	0.031169	1.001221
	H331	H	1.070784	0.036244	1.005229
	H332	H	1.062292	0.021071	1.004857
	O333	O	1.046182	1.086466	0.020040
	H334	H	1.038952	1.084648	0.029064
	H335	H	1.050930	1.085104	0.013093
	O336	O	0.614062	0.528647	0.512822
	H337	H	0.612496	0.527220	0.514234
	H338	H	0.618001	0.520739	0.502561
	O339	O	0.399136	0.422333	0.563373
	H340	H	0.391257	0.415410	0.562605
	H341	H	0.405275	0.426348	0.568629
	O342	O	-0.034808	1.011760	-0.040066
	H343	H	-0.034836	1.013295	-0.034970
	H344	H	-0.038084	1.012476	-0.056186
	O345	O	0.025629	-0.008390	0.027637
	H346	H	0.010604	-0.010940	0.027582
	H347	H	0.017184	-0.015154	0.030632
	O348	O	0.533740	0.521830	0.425820
	H349	H	0.536482	0.521018	0.426627
	H350	H	0.528895	0.517765	0.418525
	O351	O	0.562065	0.557889	0.346690
	H352	H	0.544798	0.566665	0.344912
	H353	H	0.559736	0.556704	0.348852
	O354	O	0.505929	0.501797	0.431618
	H355	H	0.499113	0.496761	0.425110
	H356	H	0.502767	0.508921	0.425876
	O357	O	0.466679	0.567800	0.379702
	H358	H	0.469534	0.566740	0.371344
	H359	H	0.460024	0.565844	0.380117
	O360	O	0.069484	0.078608	0.084606
	H361	H	0.075692	0.078857	0.084296
	H362	H	0.062143	0.077402	0.090490
	O363	O	0.455495	0.484639	0.402843
	H364	H	0.459683	0.477003	0.410867
	H365	H	0.454796	0.482545	0.402540
	O366	O	-0.063280	-0.024820	1.036858
	H367	H	-0.078293	-0.032687	1.039334
	H368	H	-0.066603	-0.027715	1.041887
	O369	O	0.522950	0.578027	0.484638
	H370	H	0.513935	0.559993	0.471247
	H371	H	0.517147	0.580851	0.485398
