data_Molecule from HDF5

_cell_length_a		16.302213
_cell_length_b		16.181075
_cell_length_c		16.293397
_cell_angle_alpha	90.220653
_cell_angle_beta	89.727591
_cell_angle_gamma	89.776396
_symmetry_space_group_name_H-M	'P 1'
_symmetry_Int_Tables_number		1

loop_
	_symmetry_equiv_pos_as_xyz
	x,y,z

loop_
	_atom_site_label
	_atom_site_type_symbol
	_atom_site_fract_x
	_atom_site_fract_y
	_atom_site_fract_z
	H0	H	0.400296	0.839572	0.712620
	H1	H	0.594243	0.169324	0.713266
	H2	H	0.597685	0.840769	0.283748
	H3	H	0.398357	0.169901	0.286721
	H4	H	0.714683	0.405145	0.837138
	H5	H	0.711574	0.606203	0.163632
	H6	H	0.282000	0.604698	0.837409
	H7	H	0.282303	0.406454	0.163571
	H8	H	0.834432	0.719844	0.405366
	H9	H	0.162663	0.718466	0.596919
	H10	H	0.833855	0.293359	0.598582
	H11	H	0.161920	0.289620	0.401455
	H12	H	0.834454	0.407981	0.715655
	H13	H	0.162105	0.604032	0.714910
	H14	H	0.835021	0.606360	0.286290
	H15	H	0.161414	0.405722	0.284927
	H16	H	0.401726	0.717262	0.835292
	H17	H	0.593943	0.720366	0.163609
	H18	H	0.596494	0.291766	0.835604
	H19	H	0.401161	0.293966	0.164844
	H20	H	0.713538	0.840421	0.398669
	H21	H	0.709399	0.170600	0.598669
	H22	H	0.284810	0.839607	0.596677
	H23	H	0.282041	0.168720	0.401549
	H24	H	0.900810	0.340751	0.213682
	H25	H	0.095368	0.670158	0.213820
	H26	H	0.097997	0.341230	0.784333
	H27	H	0.900522	0.670410	0.788595
	H28	H	0.212424	0.904496	0.336623
	H29	H	0.211729	0.105016	0.663136
	H30	H	0.782575	0.104308	0.335691
	H31	H	0.780864	0.907218	0.662745
	H32	H	0.334169	0.219837	0.903682
	H33	H	0.662975	0.217451	0.095998
	H34	H	0.334175	0.792911	0.097277
	H35	H	0.661833	0.790877	0.900838
	H36	H	0.334690	0.905417	0.215712
	H37	H	0.660672	0.104418	0.215181
	H38	H	0.333417	0.103067	0.787210
	H39	H	0.661098	0.904766	0.783050
	H40	H	0.900947	0.219420	0.335356
	H41	H	0.093117	0.218740	0.664162
	H42	H	0.097188	0.789239	0.337304
	H43	H	0.901717	0.794978	0.664742
	H44	H	0.212797	0.340594	0.900649
	H45	H	0.210410	0.669751	0.098975
	H46	H	0.784391	0.340899	0.098742
	H47	H	0.784797	0.669787	0.904486
	H48	H	0.400711	0.121114	0.587667
	H49	H	0.590753	0.885424	0.597635
	H50	H	0.583457	0.122220	0.402834
	H51	H	0.405371	0.889129	0.412148
	H52	H	0.585402	0.407043	0.116968
	H53	H	0.597178	0.602314	0.880619
	H54	H	0.415173	0.607457	0.115058
	H55	H	0.401648	0.411452	0.882374
	H56	H	0.113616	0.595624	0.408930
	H57	H	0.885960	0.589152	0.592128
	H58	H	0.116092	0.408179	0.595852
	H59	H	0.885626	0.415407	0.415987
	H60	H	0.113531	0.411370	0.587004
	H61	H	0.877834	0.601456	0.606898
	H62	H	0.115400	0.596205	0.403400
	H63	H	0.881822	0.420783	0.399335
	H64	H	0.391443	0.605858	0.121565
	H65	H	0.594843	0.591377	0.884423
	H66	H	0.598984	0.409502	0.119666
	H67	H	0.406399	0.417438	0.885759
	H68	H	0.587755	0.119497	0.414120
	H69	H	0.584278	0.889985	0.587095
	H70	H	0.398457	0.124314	0.598282
	H71	H	0.400437	0.885930	0.403593
	H72	H	0.896733	0.623354	0.088122
	H73	H	0.084149	0.387992	0.098033
	H74	H	0.090927	0.624778	0.902739
	H75	H	0.900952	0.385706	0.904617
	H76	H	0.085673	0.913396	0.614818
	H77	H	0.086925	0.096323	0.384935
	H78	H	0.896691	0.101465	0.617848
	H79	H	0.903629	0.909287	0.381353
	H80	H	0.616849	0.103477	0.900675
	H81	H	0.382018	0.103404	0.090443
	H82	H	0.611414	0.920247	0.089690
	H83	H	0.382520	0.912710	0.909169
	H84	H	0.616873	0.911245	0.099561
	H85	H	0.384361	0.094283	0.090954
	H86	H	0.613490	0.099097	0.911235
	H87	H	0.381873	0.915268	0.904172
	H88	H	0.903601	0.093662	0.614228
	H89	H	0.091290	0.100365	0.381707
	H90	H	0.093691	0.907635	0.619022
	H91	H	0.902359	0.915685	0.383336
	H92	H	0.087086	0.621202	0.909289
	H93	H	0.089961	0.391066	0.083625
	H94	H	0.901755	0.626720	0.103882
	H95	H	0.911818	0.387858	0.903155
	H96	H	0.409098	0.121579	0.595287
	H97	H	0.597489	0.887222	0.586096
	H98	H	0.595147	0.123298	0.405568
	H99	H	0.410314	0.888105	0.402959
	H100	H	0.591337	0.419176	0.114399
	H101	H	0.586246	0.599636	0.884409
	H102	H	0.403242	0.585835	0.113185
	H103	H	0.409258	0.409784	0.884251
	H104	H	0.115826	0.601132	0.406619
	H105	H	0.881225	0.609035	0.588291
	H106	H	0.113879	0.417719	0.594457
	H107	H	0.878212	0.404087	0.404515
	H108	H	0.912728	0.620011	0.092147
	H109	H	0.099073	0.385334	0.094280
	H110	H	0.095001	0.623434	0.908976
	H111	H	0.907174	0.389815	0.913481
	H112	H	0.095306	0.918051	0.616275
	H113	H	0.093326	0.094395	0.383822
	H114	H	0.907330	0.104001	0.615674
	H115	H	0.908545	0.912717	0.384319
	H116	H	0.613642	0.091690	0.902399
	H117	H	0.380409	0.098575	0.098413
	H118	H	0.614855	0.906737	0.085984
	H119	H	0.380061	0.910004	0.904970
	C120	C	0.375496	0.013185	0.621163
	C121	C	0.618408	0.996698	0.619570
	C122	C	0.619105	0.013091	0.377709
	C123	C	0.376507	0.996523	0.378541
	C124	C	0.620229	0.383512	0.008619
	C125	C	0.619733	0.627134	0.991545
	C126	C	0.375606	0.627600	0.008461
	C127	C	0.376778	0.384161	0.992062
	C128	C	0.006811	0.626842	0.379239
	C129	C	0.990202	0.627782	0.622988
	C130	C	0.006180	0.384382	0.621533
	C131	C	0.989687	0.383866	0.378273
	C132	C	0.875939	0.514329	0.122587
	C133	C	0.119148	0.496925	0.121198
	C134	C	0.119727	0.514029	0.878495
	C135	C	0.877831	0.496637	0.879585
	C136	C	0.120048	0.883543	0.508784
	C137	C	0.118710	0.126410	0.491678
	C138	C	0.874770	0.128026	0.507728
	C139	C	0.876516	0.884862	0.491344
	C140	C	0.506364	0.126693	0.877503
	C141	C	0.490066	0.127083	0.121694
	C142	C	0.506169	0.884444	0.120574
	C143	C	0.489577	0.883270	0.876999
	C144	C	0.379149	0.888779	0.675358
	C145	C	0.614942	0.120493	0.675242
	C146	C	0.617494	0.889613	0.322088
	C147	C	0.378240	0.120598	0.324003
	C148	C	0.675899	0.385547	0.885589
	C149	C	0.673578	0.625590	0.114741
	C150	C	0.320657	0.624758	0.885581
	C151	C	0.321000	0.386500	0.115043
	C152	C	0.883222	0.682232	0.383645
	C153	C	0.113580	0.681398	0.618568
	C154	C	0.882670	0.330716	0.618972
	C155	C	0.112962	0.327630	0.380768
	C156	C	0.883242	0.387417	0.677384
	C157	C	0.113377	0.624331	0.676942
	C158	C	0.883622	0.625831	0.324803
	C159	C	0.112736	0.385308	0.322871
	C160	C	0.379857	0.680880	0.884786
	C161	C	0.615392	0.682700	0.114721
	C162	C	0.617549	0.328926	0.884986
	C163	C	0.379802	0.330175	0.115556
	C164	C	0.675187	0.889737	0.379148
	C165	C	0.672123	0.120945	0.618093
	C166	C	0.322054	0.888628	0.617654
	C167	C	0.320619	0.120170	0.381253
	C168	C	0.879610	0.389979	0.176572
	C169	C	0.115972	0.620760	0.176435
	C170	C	0.118256	0.390167	0.822635
	C171	C	0.879721	0.621039	0.825657
	C172	C	0.175128	0.884517	0.385631
	C173	C	0.173417	0.124691	0.614438
	C174	C	0.820473	0.124821	0.384561
	C175	C	0.820531	0.887667	0.614482
	C176	C	0.383092	0.181917	0.882106
	C177	C	0.613688	0.180678	0.117686
	C178	C	0.382993	0.830262	0.117863
	C179	C	0.612901	0.828450	0.880028
	C180	C	0.383309	0.886134	0.176737
	C181	C	0.612404	0.124934	0.177182
	C182	C	0.382677	0.123877	0.824196
	C183	C	0.612283	0.884803	0.821175
	C184	C	0.878915	0.182203	0.384322
	C185	C	0.114451	0.181178	0.615122
	C186	C	0.117265	0.828028	0.385459
	C187	C	0.879998	0.831653	0.615559
	C188	C	0.175321	0.390126	0.880357
	C189	C	0.173211	0.620713	0.119216
	C190	C	0.821844	0.390065	0.119575
	C191	C	0.822704	0.620913	0.883472
	C192	C	0.396381	0.099827	0.599991
	C193	C	0.596954	0.909777	0.596946
	C194	C	0.595518	0.099436	0.400662
	C195	C	0.398760	0.910032	0.399932
	C196	C	0.598298	0.405498	0.094706
	C197	C	0.598892	0.604440	0.905428
	C198	C	0.396855	0.606130	0.094399
	C199	C	0.398993	0.406359	0.906232
	C200	C	0.092536	0.604333	0.400057
	C201	C	0.903920	0.606310	0.602031
	C202	C	0.092246	0.406018	0.599144
	C203	C	0.904203	0.406623	0.400411
	C204	C	0.897212	0.600773	0.100987
	C205	C	0.097584	0.410327	0.098743
	C206	C	0.097543	0.600804	0.900468
	C207	C	0.899930	0.410094	0.900699
	C208	C	0.097977	0.906417	0.594517
	C209	C	0.097040	0.103583	0.405612
	C210	C	0.896303	0.106347	0.593793
	C211	C	0.898513	0.906215	0.405442
	C212	C	0.592431	0.104473	0.898492
	C213	C	0.404428	0.105228	0.099585
	C214	C	0.592165	0.906395	0.098362
	C215	C	0.403547	0.906016	0.899541
	Zn216	Zn	0.497734	0.004587	0.748192
	Zn217	Zn	0.497556	0.004985	0.249846
	Zn218	Zn	0.748648	0.504940	0.000388
	Zn219	Zn	0.247578	0.505435	0.000026
	Zn220	Zn	-0.001560	0.756158	0.500352
	Zn221	Zn	-0.002532	0.255566	0.499884
	Zn222	Zn	-0.001601	0.505488	0.750727
	Zn223	Zn	-0.001852	0.505747	0.249483
	Zn224	Zn	0.498000	0.755961	-0.000483
	Zn225	Zn	0.498368	0.255648	0.000050
	Zn226	Zn	0.746698	0.005927	0.499171
	Zn227	Zn	0.247746	0.004415	0.499582
	N228	N	0.411607	0.967197	0.677872
	N229	N	0.582075	0.042231	0.676193
	N230	N	0.583208	0.967447	0.321152
	N231	N	0.412276	0.042573	0.322097
	N232	N	0.677923	0.418556	0.963546
	N233	N	0.676418	0.591660	0.037187
	N234	N	0.317852	0.592300	0.963490
	N235	N	0.318838	0.419230	0.037157
	N236	N	0.960669	0.683005	0.416885
	N237	N	0.035927	0.683779	0.585866
	N238	N	0.960082	0.328895	0.584773
	N239	N	0.035434	0.326609	0.414494
	N240	N	0.961070	0.420226	0.678858
	N241	N	0.035539	0.591821	0.679759
	N242	N	0.961188	0.592067	0.321881
	N243	N	0.035404	0.419538	0.321081
	N244	N	0.413473	0.682776	0.962109
	N245	N	0.582414	0.683465	0.037226
	N246	N	0.583683	0.327461	0.962434
	N247	N	0.413908	0.328601	0.038154
	N248	N	0.676213	0.967831	0.412901
	N249	N	0.674248	0.042836	0.584232
	N250	N	0.319388	0.966994	0.585074
	N251	N	0.319568	0.042263	0.414393
	N252	N	0.912435	0.468429	0.178845
	N253	N	0.082979	0.542752	0.177527
	N254	N	0.084603	0.468218	0.821316
	N255	N	0.913400	0.542953	0.823162
	N256	N	0.176714	0.918594	0.463150
	N257	N	0.176267	0.091535	0.536538
	N258	N	0.817875	0.092093	0.462382
	N259	N	0.818136	0.919938	0.536452
	N260	N	0.460857	0.183643	0.914520
	N261	N	0.536446	0.182429	0.084104
	N262	N	0.460373	0.829061	0.083687
	N263	N	0.535323	0.827551	0.914111
	N264	N	0.460951	0.919287	0.178422
	N265	N	0.534699	0.092144	0.179612
	N266	N	0.460466	0.090485	0.820921
	N267	N	0.534688	0.918227	0.819467
	N268	N	0.911588	0.184476	0.462041
	N269	N	0.080860	0.182033	0.537814
	N270	N	0.083789	0.827161	0.463073
	N271	N	0.914472	0.829966	0.538054
	N272	N	0.176265	0.468172	0.914526
	N273	N	0.175228	0.542707	0.085369
	N274	N	0.819348	0.468160	0.086920
	N275	N	0.821234	0.542624	0.916108
	O276	O	0.082075	-0.026998	0.975061
	H277	H	0.081135	-0.033544	0.974923
	H278	H	0.089748	-0.027010	0.967496
	O279	O	0.535472	0.436472	0.463565
	H280	H	0.541323	0.440530	0.465575
	H281	H	0.543693	0.430828	0.465061
	O282	O	0.561931	0.439501	0.479203
	H283	H	0.567829	0.426517	0.482634
	H284	H	0.564019	0.428759	0.479522
	O285	O	0.546247	0.391103	0.494512
	H286	H	0.549944	0.385514	0.492447
	H287	H	0.544427	0.399785	0.482453
	O288	O	0.541078	0.409945	0.466673
	H289	H	0.540036	0.407403	0.461902
	H290	H	0.541103	0.402803	0.471126
	O291	O	0.091371	0.972620	0.987723
	H292	H	0.091904	0.968318	0.994913
	H293	H	0.098331	0.969290	0.983020
	O294	O	0.541983	0.371998	0.499109
	H295	H	0.535193	0.369167	0.499877
	H296	H	0.535041	0.384078	0.498883
	O297	O	1.082962	-0.003812	-0.050425
	H298	H	1.090787	-0.006239	-0.052107
	H299	H	1.083406	-0.001695	-0.054821
