data_Molecule from HDF5

_cell_length_a		16.469401
_cell_length_b		16.476488
_cell_length_c		16.356518
_cell_angle_alpha	90.096818
_cell_angle_beta	90.197226
_cell_angle_gamma	89.924855
_symmetry_space_group_name_H-M	'P 1'
_symmetry_Int_Tables_number		1

loop_
	_symmetry_equiv_pos_as_xyz
	x,y,z

loop_
	_atom_site_label
	_atom_site_type_symbol
	_atom_site_fract_x
	_atom_site_fract_y
	_atom_site_fract_z
	H0	H	0.399068	0.854574	0.723490
	H1	H	0.614435	0.167994	0.727411
	H2	H	0.612898	0.854220	0.279599
	H3	H	0.398062	0.168312	0.276209
	H4	H	0.730732	0.398075	0.845614
	H5	H	0.728117	0.618721	0.158832
	H6	H	0.281524	0.616853	0.842988
	H7	H	0.280748	0.401366	0.158174
	H8	H	0.848657	0.736352	0.393408
	H9	H	0.162227	0.735634	0.610389
	H10	H	0.851059	0.284352	0.614318
	H11	H	0.161338	0.286944	0.391484
	H12	H	0.847900	0.405161	0.724864
	H13	H	0.161298	0.620509	0.727369
	H14	H	0.848278	0.618814	0.277987
	H15	H	0.163019	0.405235	0.279429
	H16	H	0.395455	0.734557	0.842960
	H17	H	0.613966	0.735182	0.157760
	H18	H	0.614425	0.283970	0.844923
	H19	H	0.394315	0.283943	0.157142
	H20	H	0.732745	0.857364	0.391168
	H21	H	0.729678	0.169170	0.610580
	H22	H	0.279313	0.856973	0.610757
	H23	H	0.278815	0.167684	0.388847
	H24	H	0.898081	0.355159	0.226392
	H25	H	0.111904	0.669332	0.223725
	H26	H	0.113003	0.355508	0.776775
	H27	H	0.896377	0.668331	0.780004
	H28	H	0.228467	0.904112	0.343934
	H29	H	0.234144	0.124873	0.655835
	H30	H	0.781785	0.121769	0.343476
	H31	H	0.781814	0.905133	0.658464
	H32	H	0.350126	0.235323	0.890303
	H33	H	0.660571	0.237959	0.114208
	H34	H	0.348761	0.788122	0.108089
	H35	H	0.662134	0.784792	0.892438
	H36	H	0.349387	0.903540	0.225016
	H37	H	0.663235	0.118168	0.225638
	H38	H	0.350864	0.120968	0.773580
	H39	H	0.663785	0.903283	0.778884
	H40	H	0.894962	0.238974	0.345492
	H41	H	0.119107	0.240920	0.656678
	H42	H	0.113475	0.787584	0.345036
	H43	H	0.895621	0.788076	0.658034
	H44	H	0.230627	0.355044	0.890551
	H45	H	0.232235	0.666159	0.111857
	H46	H	0.778622	0.355432	0.113810
	H47	H	0.777900	0.665990	0.893051
	H48	H	0.421618	0.122398	0.586973
	H49	H	0.586470	0.903903	0.585606
	H50	H	0.595675	0.124358	0.416898
	H51	H	0.416161	0.900569	0.414805
	H52	H	0.582443	0.422035	0.110909
	H53	H	0.593700	0.592286	0.888607
	H54	H	0.417664	0.599903	0.114793
	H55	H	0.410430	0.424724	0.886787
	H56	H	0.118289	0.604052	0.416522
	H57	H	0.891415	0.604137	0.589962
	H58	H	0.116197	0.423529	0.585792
	H59	H	0.894343	0.424507	0.418232
	H60	H	0.114335	0.430159	0.587330
	H61	H	0.893709	0.600554	0.587127
	H62	H	0.117406	0.597816	0.415464
	H63	H	0.895249	0.430025	0.414797
	H64	H	0.417291	0.596976	0.112515
	H65	H	0.585395	0.596005	0.890522
	H66	H	0.595636	0.416637	0.117144
	H67	H	0.423139	0.429636	0.893025
	H68	H	0.594993	0.126154	0.411716
	H69	H	0.601713	0.900201	0.580352
	H70	H	0.419989	0.123736	0.585536
	H71	H	0.417182	0.899506	0.412854
	H72	H	0.915708	0.624530	0.090332
	H73	H	0.101277	0.395720	0.091772
	H74	H	0.094148	0.624149	0.915473
	H75	H	0.921519	0.398181	0.909325
	H76	H	0.096529	0.925042	0.616026
	H77	H	0.087637	0.098699	0.390278
	H78	H	0.918740	0.093577	0.611989
	H79	H	0.918786	0.925403	0.388217
	H80	H	0.617551	0.098802	0.916998
	H81	H	0.392827	0.098787	0.091876
	H82	H	0.617651	0.922775	0.087016
	H83	H	0.391932	0.917181	0.912792
	H84	H	0.619308	0.922268	0.092135
	H85	H	0.395079	0.100340	0.083033
	H86	H	0.615879	0.094869	0.917919
	H87	H	0.395658	0.925320	0.917032
	H88	H	0.924782	0.100737	0.612179
	H89	H	0.090920	0.102162	0.388070
	H90	H	0.093166	0.930997	0.613096
	H91	H	0.919690	0.924692	0.388115
	H92	H	0.092144	0.622276	0.916434
	H93	H	0.088046	0.398841	0.095618
	H94	H	0.919777	0.621224	0.087574
	H95	H	0.919186	0.401801	0.920446
	H96	H	0.419711	0.123940	0.587947
	H97	H	0.596918	0.896591	0.596000
	H98	H	0.590656	0.123100	0.413809
	H99	H	0.418061	0.901396	0.414383
	H100	H	0.595040	0.431653	0.112644
	H101	H	0.591875	0.601216	0.886637
	H102	H	0.420390	0.598380	0.112794
	H103	H	0.422081	0.415505	0.887815
	H104	H	0.119051	0.601866	0.410245
	H105	H	0.892455	0.599573	0.592107
	H106	H	0.118030	0.426781	0.591936
	H107	H	0.892634	0.424953	0.411845
	H108	H	0.914505	0.622514	0.084863
	H109	H	0.092930	0.401793	0.081994
	H110	H	0.094333	0.622843	0.918248
	H111	H	0.911375	0.396339	0.914452
	H112	H	0.089417	0.924498	0.614122
	H113	H	0.092493	0.097004	0.389188
	H114	H	0.915953	0.102567	0.615848
	H115	H	0.918135	0.924013	0.388369
	H116	H	0.617830	0.095604	0.914066
	H117	H	0.396039	0.091699	0.087046
	H118	H	0.619659	0.917989	0.088988
	H119	H	0.392030	0.925213	0.907319
	C120	C	0.385246	0.020278	0.621755
	C121	C	0.628692	1.003200	0.622922
	C122	C	0.627546	0.021051	0.380112
	C123	C	0.383162	1.003427	0.378737
	C124	C	0.626081	0.388403	0.010441
	C125	C	0.624840	0.630490	0.992677
	C126	C	0.383626	0.632273	0.009487
	C127	C	0.383980	0.388903	0.992649
	C128	C	0.014223	0.634410	0.380201
	C129	C	0.995983	0.634840	0.624167
	C130	C	0.013718	0.391114	0.623388
	C131	C	0.997357	0.392050	0.380793
	C132	C	0.882915	0.519717	0.123131
	C133	C	0.127908	0.502293	0.123583
	C134	C	0.126425	0.519714	0.881585
	C135	C	0.882857	0.502107	0.880590
	C136	C	0.126604	0.891993	0.510545
	C137	C	0.126979	0.134785	0.492139
	C138	C	0.884630	0.134185	0.509956
	C139	C	0.884962	0.891729	0.492744
	C140	C	0.514335	0.130992	0.880871
	C141	C	0.497504	0.131868	0.122743
	C142	C	0.514791	0.888780	0.122608
	C143	C	0.497230	0.888787	0.878996
	C144	C	0.381076	0.902322	0.683496
	C145	C	0.632277	0.120889	0.686422
	C146	C	0.631041	0.902249	0.319052
	C147	C	0.379965	0.121152	0.316447
	C148	C	0.689434	0.382252	0.892700
	C149	C	0.687550	0.635612	0.111203
	C150	C	0.321885	0.635224	0.890460
	C151	C	0.321641	0.384388	0.110804
	C152	C	0.895676	0.695431	0.376183
	C153	C	0.114269	0.696155	0.628625
	C154	C	0.897560	0.326483	0.629883
	C155	C	0.114596	0.328724	0.375686
	C156	C	0.895956	0.386654	0.685387
	C157	C	0.114121	0.638478	0.686702
	C158	C	0.895666	0.637246	0.318428
	C159	C	0.115418	0.387655	0.319265
	C160	C	0.378901	0.693680	0.890487
	C161	C	0.630370	0.693604	0.110881
	C162	C	0.631577	0.324915	0.892519
	C163	C	0.378293	0.325792	0.110306
	C164	C	0.690967	0.903899	0.374657
	C165	C	0.689947	0.121574	0.628251
	C166	C	0.321461	0.903645	0.627055
	C167	C	0.320324	0.120665	0.372495
	C168	C	0.879847	0.402340	0.185905
	C169	C	0.130865	0.621202	0.184465
	C170	C	0.130513	0.402380	0.817930
	C171	C	0.878905	0.620805	0.820062
	C172	C	0.188049	0.886907	0.391564
	C173	C	0.192214	0.141444	0.609142
	C174	C	0.822112	0.139109	0.391502
	C175	C	0.822422	0.887487	0.611008
	C176	C	0.396819	0.194032	0.874120
	C177	C	0.614246	0.195759	0.129452
	C178	C	0.396469	0.827752	0.126437
	C179	C	0.615063	0.826113	0.875240
	C180	C	0.396759	0.885622	0.184461
	C181	C	0.615535	0.136139	0.185360
	C182	C	0.397285	0.136924	0.815972
	C183	C	0.615993	0.885083	0.818479
	C184	C	0.878604	0.197788	0.392341
	C185	C	0.134578	0.199191	0.609553
	C186	C	0.130747	0.828770	0.392257
	C187	C	0.879340	0.829058	0.610868
	C188	C	0.188896	0.401988	0.875081
	C189	C	0.190765	0.619578	0.128607
	C190	C	0.820272	0.402426	0.129506
	C191	C	0.819331	0.619150	0.875969
	C192	C	0.412506	0.101904	0.594603
	C193	C	0.602403	0.921464	0.595369
	C194	C	0.601193	0.103147	0.406528
	C195	C	0.409696	0.921735	0.406196
	C196	C	0.598863	0.415604	0.092308
	C197	C	0.598136	0.604025	0.910241
	C198	C	0.410593	0.606076	0.091897
	C199	C	0.410811	0.415743	0.910620
	C200	C	0.096596	0.608772	0.406424
	C201	C	0.913970	0.608937	0.597511
	C202	C	0.095067	0.418716	0.596216
	C203	C	0.915557	0.418603	0.407496
	C204	C	0.909238	0.601459	0.095480
	C205	C	0.101599	0.420175	0.097283
	C206	C	0.100877	0.601637	0.908817
	C207	C	0.909759	0.420100	0.906907
	C208	C	0.100362	0.919022	0.592790
	C209	C	0.098622	0.107050	0.410420
	C210	C	0.912017	0.106836	0.591936
	C211	C	0.911295	0.917560	0.410087
	C212	C	0.595756	0.104049	0.908564
	C213	C	0.415907	0.104697	0.095206
	C214	C	0.597394	0.913868	0.096613
	C215	C	0.414942	0.915033	0.904773
	Zn216	Zn	0.506787	0.010917	0.751147
	Zn217	Zn	0.506241	0.010986	0.251340
	Zn218	Zn	0.753673	0.510341	0.001664
	Zn219	Zn	0.255962	0.510441	0.001460
	Zn220	Zn	0.005583	0.763047	0.501829
	Zn221	Zn	0.005748	0.262612	0.501533
	Zn222	Zn	0.005085	0.512269	0.752311
	Zn223	Zn	0.005631	0.512383	0.251235
	Zn224	Zn	0.505393	0.760171	0.000436
	Zn225	Zn	0.504924	0.260187	0.001043
	Zn226	Zn	0.756643	0.013179	0.500759
	Zn227	Zn	0.255173	0.013374	0.500648
	N228	N	0.419990	0.975914	0.680186
	N229	N	0.595236	0.046215	0.683369
	N230	N	0.592371	0.976133	0.322261
	N231	N	0.418400	0.047187	0.320224
	N232	N	0.686569	0.420723	0.967336
	N233	N	0.683839	0.596899	0.036832
	N234	N	0.324728	0.597748	0.965362
	N235	N	0.325073	0.423007	0.036627
	N236	N	0.970370	0.693932	0.413698
	N237	N	0.039665	0.694352	0.590768
	N238	N	0.971990	0.328992	0.592158
	N239	N	0.039986	0.331186	0.413307
	N240	N	0.969315	0.426123	0.681575
	N241	N	0.039558	0.601330	0.684321
	N242	N	0.970324	0.599997	0.320851
	N243	N	0.041408	0.425878	0.321888
	N244	N	0.416505	0.692151	0.965609
	N245	N	0.591893	0.690784	0.036202
	N246	N	0.593120	0.328365	0.966852
	N247	N	0.416413	0.328486	0.035778
	N248	N	0.689091	0.978675	0.411658
	N249	N	0.688081	0.047381	0.589589
	N250	N	0.323925	0.978196	0.589328
	N251	N	0.322310	0.046385	0.410723
	N252	N	0.917958	0.476436	0.182129
	N253	N	0.092735	0.547138	0.181696
	N254	N	0.092069	0.476475	0.821856
	N255	N	0.917613	0.546885	0.822659
	N256	N	0.185744	0.925628	0.466103
	N257	N	0.187362	0.101975	0.535251
	N258	N	0.825831	0.100411	0.465757
	N259	N	0.825661	0.925635	0.536456
	N260	N	0.470409	0.190567	0.913692
	N261	N	0.539733	0.193267	0.091303
	N262	N	0.470850	0.829568	0.088789
	N263	N	0.540051	0.828135	0.911962
	N264	N	0.471399	0.922721	0.182361
	N265	N	0.542014	0.097000	0.181167
	N266	N	0.471356	0.098332	0.819924
	N267	N	0.541665	0.923067	0.820554
	N268	N	0.916761	0.195062	0.467150
	N269	N	0.094822	0.195296	0.535601
	N270	N	0.093554	0.831640	0.467198
	N271	N	0.917503	0.831525	0.536366
	N272	N	0.186373	0.475994	0.913970
	N273	N	0.189574	0.544356	0.092082
	N274	N	0.822127	0.476387	0.091169
	N275	N	0.821430	0.544186	0.912689
	O276	O	0.348037	0.253473	0.348972
	H277	H	0.360537	0.248609	0.310801
	H278	H	0.326279	0.265470	0.346462
	O279	O	0.825191	0.188408	0.821072
	H280	H	0.813168	0.202240	0.874332
	H281	H	0.878906	0.202996	0.812453
	O282	O	0.454857	0.317214	0.708352
	H283	H	0.444994	0.292352	0.711467
	H284	H	0.476143	0.308312	0.683522
	O285	O	0.587881	0.736354	0.495704
	H286	H	0.582686	0.744738	0.493852
	H287	H	0.594460	0.759634	0.478879
	O288	O	1.017349	0.871991	0.027250
	H289	H	1.014352	0.864881	0.025101
	H290	H	1.014226	0.885241	0.028638
	O291	O	0.655525	0.499339	0.515953
	H292	H	0.640469	0.492877	0.510070
	H293	H	0.640489	0.513686	0.531265
	O294	O	-0.055407	0.227911	1.063007
	H295	H	-0.036858	0.226646	1.066466
	H296	H	-0.064687	0.219961	1.072803
	O297	O	0.295035	0.604994	0.541440
	H298	H	0.301407	0.605236	0.548256
	H299	H	0.287309	0.594853	0.534115
	O300	O	0.518888	0.300405	0.289306
	H301	H	0.547754	0.302068	0.287736
	H302	H	0.537003	0.290787	0.267959
	O303	O	0.442678	0.463233	0.283225
	H304	H	0.459077	0.451180	0.293610
	H305	H	0.465651	0.457226	0.289283
	O306	O	0.330085	0.340894	0.505836
	H307	H	0.322761	0.354378	0.490345
	H308	H	0.318069	0.330033	0.507566
	O309	O	0.293971	0.536183	0.288759
	H310	H	0.269931	0.536281	0.251868
	H311	H	0.330819	0.515348	0.280240
	O312	O	0.224953	0.995577	0.777955
	H313	H	0.212484	0.943562	0.791768
	H314	H	0.262524	0.990406	0.741181
	O315	O	0.715658	0.489863	0.294123
	H316	H	0.679910	0.505842	0.289944
	H317	H	0.741476	0.495213	0.265082
	O318	O	0.795847	-0.010523	0.211679
	H319	H	0.773277	-0.004478	0.235312
	H320	H	0.822535	0.015248	0.215068
	O321	O	-0.212026	0.227124	-0.017287
	H322	H	-0.193619	0.210008	0.011631
	H323	H	-0.250106	0.265626	-0.019030
	O324	O	0.557537	0.430934	0.712777
	H325	H	0.540543	0.400169	0.710927
	H326	H	0.525977	0.457466	0.705217
	O327	O	0.628190	0.660189	0.446947
	H328	H	0.612921	0.653786	0.422210
	H329	H	0.598321	0.660147	0.455784
	O330	O	-0.206320	0.922465	-0.033131
	H331	H	-0.211185	0.926791	-0.051049
	H332	H	-0.210034	0.948590	-0.036972
	O333	O	0.646307	0.392931	0.555251
	H334	H	0.641294	0.411796	0.549366
	H335	H	0.641231	0.403882	0.557161
	O336	O	-0.014591	0.228046	-0.212916
	H337	H	0.011716	0.189332	-0.221175
	H338	H	-0.014213	0.258555	-0.253018
	O339	O	0.186544	0.838693	0.818180
	H340	H	0.146824	0.823313	0.818704
	H341	H	0.184437	0.825896	0.859837
	O342	O	-0.015175	0.800438	1.217321
	H343	H	-0.031112	0.791518	1.223853
	H344	H	-0.031293	0.787896	1.225638
	O345	O	0.882034	0.804878	-0.070301
	H346	H	0.893848	0.817526	-0.057601
	H347	H	0.857572	0.813418	-0.070844
	O348	O	0.322317	0.700257	0.321789
	H349	H	0.309177	0.656975	0.310663
	H350	H	0.302960	0.715959	0.354244
	O351	O	0.025614	0.798079	0.785786
	H352	H	0.003561	0.799064	0.796782
	H353	H	0.021233	0.771209	0.761521
	O354	O	0.028946	0.954036	0.027862
	H355	H	0.026841	0.945999	0.010778
	H356	H	0.028681	0.967487	0.025119
	O357	O	0.231821	-0.044136	1.054981
	H358	H	0.234511	-0.017612	1.037383
	H359	H	0.228393	-0.054465	1.067943
	O360	O	0.492891	0.296314	0.492907
	H361	H	0.498551	0.301766	0.480286
	H362	H	0.490253	0.295774	0.467404
	O363	O	0.067251	0.080931	0.772314
	H364	H	0.056794	0.047246	0.775548
	H365	H	0.095185	0.060389	0.766133
	O366	O	0.062436	0.229663	0.945198
	H367	H	0.046498	0.225372	0.929008
	H368	H	0.054244	0.232387	0.943705
	O369	O	0.526426	0.730043	0.719937
	H370	H	0.575919	0.720055	0.710336
	H371	H	0.531765	0.760941	0.756587
	O372	O	0.956074	-0.042104	0.786482
	H373	H	0.957399	-0.060746	0.791200
	H374	H	0.918972	-0.032726	0.787992
	O375	O	0.322109	0.331405	0.632972
	H376	H	0.309289	0.315560	0.588420
	H377	H	0.361124	0.332847	0.633676
	O378	O	0.682981	0.692596	0.678593
	H379	H	0.697886	0.641595	0.690830
	H380	H	0.690674	0.700164	0.627445
	O381	O	0.711684	0.657632	0.493897
	H382	H	0.729159	0.663199	0.487393
	H383	H	0.706249	0.650096	0.485003
	O384	O	0.678718	0.330407	0.322022
	H385	H	0.684878	0.375995	0.316052
	H386	H	0.694399	0.317929	0.373637
	O387	O	0.564343	-0.423041	0.294964
	H388	H	0.552376	-0.409580	0.315738
	H389	H	0.548720	-0.408292	0.295675
	O390	O	0.197069	0.027670	0.212914
	H391	H	0.200412	0.018320	0.214747
	H392	H	0.201908	0.032707	0.230232
	O393	O	0.789486	1.032264	0.783028
	H394	H	0.798084	1.077258	0.789490
	H395	H	0.758821	1.045834	0.752079
	O396	O	1.214354	-0.196392	-0.022358
	H397	H	1.212187	-0.179137	-0.003336
	H398	H	1.223681	-0.222720	-0.011415
	O399	O	1.019931	0.222430	1.213997
	H400	H	1.055450	0.218917	1.208376
	H401	H	1.023895	0.251328	1.232195
	O402	O	0.849299	0.839089	0.970201
	H403	H	0.848197	0.842962	0.960359
	H404	H	0.849496	0.849102	0.970992
	O405	O	1.005598	0.994585	-0.022622
	H406	H	0.996046	0.997557	-0.022591
	H407	H	1.025619	1.004111	-0.026648
	O408	O	0.803559	0.072723	0.061669
	H409	H	0.816389	0.062382	0.060428
	H410	H	0.803341	0.072387	0.067693
	O411	O	0.826008	0.828855	0.177160
	H412	H	0.833454	0.824018	0.146787
	H413	H	0.811380	0.875370	0.189253
	O414	O	0.292929	0.507287	0.663982
	H415	H	0.294541	0.476619	0.654202
	H416	H	0.277101	0.504648	0.674288
	O417	O	0.503560	0.599106	0.541899
	H418	H	0.512848	0.599367	0.564977
	H419	H	0.519942	0.619955	0.542420
	O420	O	0.215802	0.218595	0.017840
	H421	H	0.224564	0.228033	0.004082
	H422	H	0.214171	0.223019	-0.001839
	O423	O	0.460654	0.581946	0.687298
	H424	H	0.452024	0.606143	0.687676
	H425	H	0.442053	0.589121	0.693558
	O426	O	0.719940	0.302980	0.481541
	H427	H	0.760659	0.281087	0.483326
	H428	H	0.725975	0.338141	0.513901
	O429	O	0.340085	0.725650	0.471397
	H430	H	0.318224	0.740300	0.474286
	H431	H	0.350628	0.720501	0.497615
	O432	O	0.306847	0.480747	0.501922
	H433	H	0.321742	0.489030	0.506956
	H434	H	0.298294	0.499450	0.471628
	O435	O	0.715564	0.532926	0.714142
	H436	H	0.745822	0.530150	0.751160
	H437	H	0.674192	0.508046	0.717976
	O438	O	-0.049945	0.056002	0.207488
	H439	H	-0.044087	0.075836	0.191928
	H440	H	-0.024181	0.061967	0.214161
	O441	O	1.178806	0.077329	0.180725
	H442	H	1.176642	0.042826	0.185367
	H443	H	1.185955	0.094911	0.142870
	O444	O	0.211441	1.070534	0.935798
	H445	H	0.209656	1.068094	0.928405
	H446	H	0.206672	1.071404	0.905427
	O447	O	0.460968	0.706195	0.326165
	H448	H	0.412950	0.696423	0.332708
	H449	H	0.456774	0.737912	0.291045
	O450	O	0.484811	0.493396	0.527261
	H451	H	0.483647	0.502047	0.544995
	H452	H	0.470484	0.494491	0.529406
	O453	O	0.066060	-0.080077	1.180253
	H454	H	0.061303	-0.080261	1.172169
	H455	H	0.047852	-0.092488	1.185187
