data_Molecule from HDF5

_cell_length_a		16.458770
_cell_length_b		16.224547
_cell_length_c		15.917168
_cell_angle_alpha	88.979775
_cell_angle_beta	88.488626
_cell_angle_gamma	90.804469
_symmetry_space_group_name_H-M	'P 1'
_symmetry_Int_Tables_number		1

loop_
	_symmetry_equiv_pos_as_xyz
	x,y,z

loop_
	_atom_site_label
	_atom_site_type_symbol
	_atom_site_fract_x
	_atom_site_fract_y
	_atom_site_fract_z
	H0	H	0.399426	0.834668	0.715153
	H1	H	0.593445	0.166254	0.696223
	H2	H	0.598265	0.832333	0.285448
	H3	H	0.414906	0.164605	0.282995
	H4	H	0.722389	0.402359	0.831268
	H5	H	0.717499	0.601210	0.161777
	H6	H	0.298547	0.600431	0.828142
	H7	H	0.281399	0.391730	0.160565
	H8	H	0.839010	0.715127	0.396119
	H9	H	0.163302	0.718912	0.589221
	H10	H	0.841949	0.277390	0.606621
	H11	H	0.163560	0.284202	0.390028
	H12	H	0.842422	0.396997	0.719167
	H13	H	0.169163	0.594802	0.696842
	H14	H	0.838728	0.594468	0.283934
	H15	H	0.166242	0.407624	0.277753
	H16	H	0.412010	0.714054	0.829904
	H17	H	0.599309	0.710126	0.163858
	H18	H	0.604798	0.294030	0.827775
	H19	H	0.399869	0.281252	0.161460
	H20	H	0.720841	0.836010	0.391954
	H21	H	0.721897	0.158864	0.596674
	H22	H	0.276578	0.837357	0.607366
	H23	H	0.288781	0.162151	0.389844
	H24	H	0.901166	0.335438	0.214892
	H25	H	0.096732	0.666792	0.197336
	H26	H	0.101027	0.333395	0.784054
	H27	H	0.918391	0.666074	0.784680
	H28	H	0.221016	0.901179	0.331410
	H29	H	0.215247	0.102145	0.661377
	H30	H	0.795452	0.098759	0.329566
	H31	H	0.779038	0.890117	0.660626
	H32	H	0.342361	0.218573	0.895035
	H33	H	0.664747	0.218104	0.091173
	H34	H	0.342633	0.776097	0.106037
	H35	H	0.664931	0.788375	0.892832
	H36	H	0.341543	0.894536	0.218886
	H37	H	0.668601	0.093042	0.199011
	H38	H	0.338086	0.095810	0.786257
	H39	H	0.664564	0.908069	0.777383
	H40	H	0.906960	0.215261	0.331469
	H41	H	0.097246	0.209258	0.663037
	H42	H	0.098903	0.795110	0.326966
	H43	H	0.896551	0.780717	0.661851
	H44	H	0.222625	0.335676	0.891375
	H45	H	0.222667	0.661407	0.093170
	H46	H	0.778641	0.338238	0.107210
	H47	H	0.791505	0.663189	0.890290
	H48	H	0.407609	0.114604	0.584938
	H49	H	0.590542	0.879036	0.591707
	H50	H	0.606773	0.118977	0.390577
	H51	H	0.412065	0.885914	0.419281
	H52	H	0.587382	0.411189	0.114091
	H53	H	0.610144	0.592512	0.874649
	H54	H	0.410426	0.588111	0.115469
	H55	H	0.416054	0.412334	0.877284
	H56	H	0.120378	0.602744	0.387076
	H57	H	0.885893	0.590634	0.595665
	H58	H	0.119309	0.402730	0.586098
	H59	H	0.889711	0.407639	0.411874
	H60	H	0.119577	0.402993	0.585131
	H61	H	0.887691	0.592308	0.587942
	H62	H	0.117678	0.607123	0.402221
	H63	H	0.887165	0.406090	0.405110
	H64	H	0.404649	0.584868	0.116460
	H65	H	0.594778	0.587485	0.879477
	H66	H	0.587701	0.402232	0.116853
	H67	H	0.415414	0.406029	0.874853
	H68	H	0.593058	0.113602	0.398600
	H69	H	0.585505	0.884195	0.584662
	H70	H	0.403048	0.117433	0.584859
	H71	H	0.398223	0.879444	0.412323
	H72	H	0.912268	0.614345	0.081199
	H73	H	0.094802	0.380634	0.090515
	H74	H	0.110084	0.616316	0.901929
	H75	H	0.913763	0.384048	0.911810
	H76	H	0.086690	0.898327	0.617859
	H77	H	0.104251	0.080656	0.378171
	H78	H	0.909267	0.087498	0.616460
	H79	H	0.916293	0.917726	0.380261
	H80	H	0.621211	0.106382	0.895193
	H81	H	0.392505	0.081172	0.083239
	H82	H	0.616644	0.906926	0.080646
	H83	H	0.384232	0.901132	0.901522
	H84	H	0.619909	0.907845	0.094184
	H85	H	0.386096	0.087316	0.100386
	H86	H	0.615152	0.094233	0.901273
	H87	H	0.387381	0.897231	0.917026
	H88	H	0.903686	0.087006	0.617949
	H89	H	0.083363	0.091635	0.381080
	H90	H	0.095216	0.912101	0.616291
	H91	H	0.915215	0.897718	0.373111
	H92	H	0.107464	0.620006	0.890278
	H93	H	0.088188	0.383966	0.086083
	H94	H	0.902460	0.618422	0.083843
	H95	H	0.905864	0.382753	0.913931
	H96	H	0.405701	0.118174	0.589343
	H97	H	0.594110	0.880608	0.581808
	H98	H	0.607035	0.115399	0.406277
	H99	H	0.411706	0.881567	0.403017
	H100	H	0.594543	0.407956	0.116189
	H101	H	0.597925	0.605201	0.874671
	H102	H	0.409074	0.580983	0.114201
	H103	H	0.409435	0.409963	0.874106
	H104	H	0.114353	0.591322	0.398088
	H105	H	0.888415	0.585644	0.590676
	H106	H	0.118844	0.404389	0.585057
	H107	H	0.887684	0.400591	0.410354
	H108	H	0.910123	0.618483	0.091161
	H109	H	0.096006	0.382937	0.081064
	H110	H	0.098350	0.614297	0.898698
	H111	H	0.909003	0.381008	0.906354
	H112	H	0.079898	0.911538	0.611325
	H113	H	0.102828	0.103715	0.371912
	H114	H	0.907165	0.082563	0.615650
	H115	H	0.899134	0.910044	0.372403
	H116	H	0.619384	0.094620	0.886617
	H117	H	0.386931	0.098470	0.084580
	H118	H	0.620849	0.896036	0.086832
	H119	H	0.389891	0.911895	0.911051
	C120	C	0.375255	0.008485	0.620002
	C121	C	0.619932	0.989648	0.613553
	C122	C	0.628303	0.007105	0.371353
	C123	C	0.382292	0.990607	0.377979
	C124	C	0.622137	0.380479	0.005207
	C125	C	0.626381	0.622281	0.987324
	C126	C	0.383528	0.617189	0.005171
	C127	C	0.381636	0.377175	0.985528
	C128	C	0.009940	0.625683	0.370140
	C129	C	0.994915	0.619641	0.615756
	C130	C	0.012401	0.374023	0.619776
	C131	C	0.994365	0.377986	0.375391
	C132	C	0.877841	0.509133	0.119109
	C133	C	0.122703	0.491171	0.112946
	C134	C	0.130817	0.507762	0.869879
	C135	C	0.884484	0.491374	0.877788
	C136	C	0.119475	0.880121	0.505143
	C137	C	0.123338	0.120509	0.487249
	C138	C	0.881729	0.117159	0.506287
	C139	C	0.878460	0.876361	0.485807
	C140	C	0.510986	0.124702	0.870077
	C141	C	0.495948	0.118845	0.115025
	C142	C	0.512323	0.873038	0.120719
	C143	C	0.494295	0.877952	0.876096
	C144	C	0.377674	0.884586	0.678174
	C145	C	0.616170	0.115422	0.663014
	C146	C	0.621440	0.882473	0.320108
	C147	C	0.390387	0.114797	0.319996
	C148	C	0.682085	0.383098	0.880140
	C149	C	0.679806	0.620340	0.112390
	C150	C	0.333768	0.619247	0.878546
	C151	C	0.321357	0.374198	0.110798
	C152	C	0.887654	0.677768	0.375348
	C153	C	0.115960	0.678198	0.609659
	C154	C	0.890685	0.316487	0.624263
	C155	C	0.115724	0.322948	0.372134
	C156	C	0.890732	0.376116	0.680097
	C157	C	0.118930	0.616216	0.663184
	C158	C	0.887445	0.618129	0.319189
	C159	C	0.116927	0.384522	0.316225
	C160	C	0.390349	0.675715	0.879687
	C161	C	0.621072	0.674471	0.113341
	C162	C	0.623570	0.329314	0.878653
	C163	C	0.379993	0.319137	0.111545
	C164	C	0.682459	0.884268	0.373071
	C165	C	0.679660	0.111816	0.612961
	C166	C	0.316790	0.885728	0.624199
	C167	C	0.327884	0.113572	0.373575
	C168	C	0.879842	0.385269	0.177471
	C169	C	0.118796	0.616487	0.162929
	C170	C	0.123981	0.383269	0.818622
	C171	C	0.893809	0.616091	0.821238
	C172	C	0.180049	0.882176	0.380250
	C173	C	0.177493	0.120156	0.612041
	C174	C	0.830706	0.118422	0.380079
	C175	C	0.818634	0.872887	0.610813
	C176	C	0.389903	0.179786	0.874667
	C177	C	0.616975	0.177565	0.110789
	C178	C	0.391082	0.815049	0.124054
	C179	C	0.616343	0.825467	0.874113
	C180	C	0.390273	0.874374	0.180008
	C181	C	0.618953	0.115617	0.164901
	C182	C	0.387857	0.118754	0.820530
	C183	C	0.616261	0.885095	0.816584
	C184	C	0.886408	0.176181	0.381067
	C185	C	0.118630	0.173479	0.613044
	C186	C	0.119538	0.829437	0.378100
	C187	C	0.877478	0.818986	0.611693
	C188	C	0.184436	0.384470	0.872364
	C189	C	0.181606	0.613670	0.111195
	C190	C	0.819010	0.386586	0.123779
	C191	C	0.830659	0.614560	0.874104
	C192	C	0.398479	0.094213	0.594007
	C193	C	0.596758	0.903642	0.592384
	C194	C	0.608169	0.093568	0.392249
	C195	C	0.401632	0.904587	0.403684
	C196	C	0.597248	0.401177	0.092967
	C197	C	0.606848	0.601292	0.899274
	C198	C	0.402447	0.591976	0.092756
	C199	C	0.406258	0.402157	0.898203
	C200	C	0.095507	0.606190	0.389794
	C201	C	0.909431	0.596449	0.597041
	C202	C	0.097302	0.396667	0.593320
	C203	C	0.909975	0.398644	0.401557
	C204	C	0.901296	0.595027	0.092892
	C205	C	0.099897	0.404794	0.092025
	C206	C	0.111227	0.594442	0.890702
	C207	C	0.903837	0.405147	0.903352
	C208	C	0.094465	0.901020	0.592661
	C209	C	0.102956	0.098497	0.399803
	C210	C	0.901013	0.092739	0.594147
	C211	C	0.903021	0.901218	0.398094
	C212	C	0.596517	0.104629	0.888942
	C213	C	0.410633	0.095588	0.095312
	C214	C	0.597294	0.896824	0.095007
	C215	C	0.409129	0.897771	0.902330
	Zn216	Zn	0.500949	0.000422	0.743743
	Zn217	Zn	0.504360	-0.002343	0.246873
	Zn218	Zn	0.750831	0.499987	-0.003078
	Zn219	Zn	0.255176	0.498431	-0.006229
	Zn220	Zn	0.000206	0.752350	0.494728
	Zn221	Zn	0.002608	0.245618	0.497560
	Zn222	Zn	0.006004	0.498135	0.746271
	Zn223	Zn	0.002302	0.500961	0.243175
	Zn224	Zn	0.503631	0.745677	-0.002261
	Zn225	Zn	0.503791	0.251872	-0.005826
	Zn226	Zn	0.752928	-0.002481	0.495781
	Zn227	Zn	0.248925	-0.000266	0.497436
	N228	N	0.413332	0.961866	0.675961
	N229	N	0.579479	0.038623	0.663679
	N230	N	0.588555	0.959933	0.318683
	N231	N	0.423574	0.037277	0.322471
	N232	N	0.681303	0.414323	0.959865
	N233	N	0.683260	0.588372	0.032912
	N234	N	0.329193	0.583693	0.957433
	N235	N	0.322147	0.409525	0.031419
	N236	N	0.964925	0.682678	0.406286
	N237	N	0.037680	0.680859	0.581217
	N238	N	0.967157	0.315287	0.587100
	N239	N	0.038779	0.318963	0.408432
	N240	N	0.967405	0.410945	0.677691
	N241	N	0.042595	0.580496	0.667267
	N242	N	0.964568	0.586640	0.315682
	N243	N	0.040581	0.418024	0.318129
	N244	N	0.420557	0.674520	0.959607
	N245	N	0.588729	0.675884	0.034535
	N246	N	0.586841	0.327520	0.957530
	N247	N	0.416880	0.320792	0.032925
	N248	N	0.686827	0.962663	0.404229
	N249	N	0.682241	0.032591	0.582981
	N250	N	0.315067	0.963792	0.588975
	N251	N	0.322934	0.035455	0.409155
	N252	N	0.915601	0.462521	0.174817
	N253	N	0.082673	0.539343	0.164229
	N254	N	0.091539	0.461005	0.816749
	N255	N	0.926533	0.538417	0.823356
	N256	N	0.180362	0.912962	0.460307
	N257	N	0.180510	0.087580	0.532778
	N258	N	0.827417	0.082629	0.458983
	N259	N	0.819076	0.907934	0.531367
	N260	N	0.467650	0.183813	0.904586
	N261	N	0.539404	0.179824	0.080699
	N262	N	0.467915	0.814332	0.087693
	N263	N	0.539494	0.821035	0.910408
	N264	N	0.466841	0.909382	0.178405
	N265	N	0.542638	0.079529	0.167659
	N266	N	0.464217	0.085473	0.817165
	N267	N	0.539134	0.916717	0.817626
	N268	N	0.917073	0.175804	0.460758
	N269	N	0.085851	0.174000	0.534342
	N270	N	0.082541	0.828093	0.456661
	N271	N	0.913728	0.820958	0.532886
	N272	N	0.189130	0.463011	0.903275
	N273	N	0.184114	0.534625	0.080864
	N274	N	0.817364	0.464773	0.088230
	N275	N	0.824725	0.536035	0.908591
	O276	O	0.582530	0.510613	0.360726
	H277	H	0.579139	0.511637	0.352871
	H278	H	0.584091	0.517457	0.361493
	O279	O	0.512080	0.538947	0.467054
	H280	H	0.508431	0.521841	0.473641
	H281	H	0.516023	0.544174	0.447009
	O282	O	0.922490	1.066343	0.005330
	H283	H	0.929536	1.073886	0.010085
	H284	H	0.916177	1.070894	-0.016531
	O285	O	0.897353	0.123580	0.946716
	H286	H	0.906477	0.114709	0.933782
	H287	H	0.889375	0.116696	0.940322
	O288	O	0.517973	0.518648	0.529883
	H289	H	0.512553	0.532238	0.536347
	H290	H	0.513369	0.522159	0.543640
	O291	O	0.464332	0.573990	0.498830
	H292	H	0.475331	0.569433	0.491758
	H293	H	0.462897	0.563325	0.506970
	O294	O	0.515851	0.442837	0.452640
	H295	H	0.511964	0.449220	0.450048
	H296	H	0.512247	0.463662	0.465232
	O297	O	-0.106442	0.001972	1.112335
	H298	H	-0.098685	-0.012082	1.113527
	H299	H	-0.118772	0.012261	1.119110
	O300	O	0.427942	0.369200	0.431174
	H301	H	0.430687	0.356157	0.429541
	H302	H	0.432434	0.374548	0.429402
	O303	O	0.423886	0.603100	-0.478756
	H304	H	0.417363	0.599158	-0.482634
	H305	H	0.431831	0.594759	-0.464667
	O306	O	0.088516	0.938365	1.034806
	H307	H	0.084750	0.918296	1.019250
	H308	H	0.070010	0.933714	1.036018
	O309	O	0.605992	0.456708	0.427449
	H310	H	0.612119	0.457368	0.425110
	H311	H	0.607779	0.438379	0.440634
	O312	O	0.113383	0.060804	0.084933
	H313	H	0.122586	0.062190	0.086157
	H314	H	0.114645	0.052127	0.096814
	O315	O	0.921600	-0.012326	0.092491
	H316	H	0.932330	-0.005439	0.093419
	H317	H	0.930789	-0.015689	0.111274
	O318	O	1.093499	0.834391	0.943659
	H319	H	1.092149	0.814517	0.943387
	H320	H	1.090141	0.837285	0.929339
	O321	O	0.017988	-0.068179	0.897819
	H322	H	0.010962	-0.058467	0.897845
	H323	H	0.012701	-0.069660	0.900044
	O324	O	0.574393	0.526831	0.510573
	H325	H	0.567499	0.524254	0.502181
	H326	H	0.569509	0.520097	0.492779
	O327	O	0.080552	-0.024881	0.009091
	H328	H	0.083425	-0.024528	-0.002758
	H329	H	0.092690	-0.024657	-0.002130
	O330	O	0.506046	0.517116	0.528565
	H331	H	0.505733	0.521824	0.534273
	H332	H	0.509403	0.511311	0.539027
	O333	O	0.119961	1.076951	1.015140
	H334	H	0.125566	1.070956	1.007404
	H335	H	0.122192	1.073014	1.014179
	O336	O	-0.077937	-0.014575	-0.056780
	H337	H	-0.066840	-0.013273	-0.051512
	H338	H	-0.084642	-0.023432	-0.071433
	O339	O	0.603568	0.367285	0.420776
	H340	H	0.602915	0.374891	0.413877
	H341	H	0.612203	0.374977	0.418243
	O342	O	1.062962	1.019077	0.870395
	H343	H	1.070445	1.016475	0.869483
	H344	H	1.055818	1.041634	0.877953
	O345	O	1.001436	0.884058	-0.055335
	H346	H	0.991572	0.881329	-0.047125
	H347	H	0.992158	0.876626	-0.058522
	O348	O	0.364014	0.426365	0.624817
	H349	H	0.359493	0.408759	0.632071
	H350	H	0.362738	0.420139	0.632483
	O351	O	0.571734	0.505493	0.462548
	H352	H	0.566693	0.513070	0.457502
	H353	H	0.577132	0.516212	0.449766
	O354	O	0.450994	0.435324	0.501273
	H355	H	0.441214	0.449117	0.495205
	H356	H	0.450399	0.422967	0.514340
	O357	O	0.382340	0.376129	1.649037
	H358	H	0.377376	0.371549	1.642494
	H359	H	0.391729	0.384605	1.640007
	O360	O	0.621718	0.605931	0.532013
	H361	H	0.631161	0.616613	0.531435
	H362	H	0.612883	0.603564	0.519664
	O363	O	0.967187	1.015709	1.069083
	H364	H	0.981987	1.031402	1.076914
	H365	H	0.960929	1.018137	1.090948
	O366	O	1.042596	0.979860	1.052101
	H367	H	1.050016	0.984549	1.051118
	H368	H	1.033923	0.979195	1.050228
	O369	O	0.925517	0.054910	0.969256
	H370	H	0.931387	0.054634	0.969434
	H371	H	0.924301	0.059831	0.983889
	O372	O	0.142358	0.101716	0.071847
	H373	H	0.150505	0.098517	0.079629
	H374	H	0.138636	0.086006	0.068708
	O375	O	0.925107	-0.029530	0.043337
	H376	H	0.912046	-0.037489	0.048058
	H377	H	0.912391	-0.027624	0.066607
	O378	O	0.507468	0.428464	0.605300
	H379	H	0.504851	0.431158	0.606254
	H380	H	0.521789	0.411976	0.607850
	O381	O	0.423218	0.548831	0.456141
	H382	H	0.422794	0.556192	0.464627
	H383	H	0.423288	0.541878	0.455184
