data_Molecule from HDF5

_cell_length_a		16.576768
_cell_length_b		16.511652
_cell_length_c		16.658741
_cell_angle_alpha	89.944897
_cell_angle_beta	90.194445
_cell_angle_gamma	89.866942
_symmetry_space_group_name_H-M	'P 1'
_symmetry_Int_Tables_number		1

loop_
	_symmetry_equiv_pos_as_xyz
	x,y,z

loop_
	_atom_site_label
	_atom_site_type_symbol
	_atom_site_fract_x
	_atom_site_fract_y
	_atom_site_fract_z
	H0	H	0.403037	0.843213	0.750946
	H1	H	0.618981	0.153006	0.744972
	H2	H	0.618804	0.840704	0.302915
	H3	H	0.405853	0.151775	0.301452
	H4	H	0.736012	0.388971	0.869973
	H5	H	0.734586	0.601643	0.178108
	H6	H	0.287805	0.606110	0.868015
	H7	H	0.289470	0.390171	0.177311
	H8	H	0.857561	0.718787	0.418673
	H9	H	0.168461	0.719318	0.631752
	H10	H	0.857406	0.275200	0.627770
	H11	H	0.169560	0.276179	0.420532
	H12	H	0.859330	0.388958	0.746702
	H13	H	0.168120	0.604181	0.748826
	H14	H	0.858550	0.604990	0.300083
	H15	H	0.168182	0.390784	0.300982
	H16	H	0.404403	0.721156	0.867719
	H17	H	0.615920	0.716960	0.178635
	H18	H	0.618060	0.274516	0.869857
	H19	H	0.405140	0.273061	0.177432
	H20	H	0.736093	0.841914	0.417352
	H21	H	0.734580	0.153108	0.628970
	H22	H	0.290518	0.840461	0.632188
	H23	H	0.291308	0.152050	0.418522
	H24	H	0.910286	0.339744	0.243778
	H25	H	0.116352	0.654555	0.242631
	H26	H	0.117909	0.339030	0.803960
	H27	H	0.907164	0.651583	0.801686
	H28	H	0.234540	0.890303	0.368100
	H29	H	0.236307	0.102144	0.678708
	H30	H	0.789171	0.104312	0.368804
	H31	H	0.791238	0.891599	0.678623
	H32	H	0.356375	0.220230	0.917688
	H33	H	0.668724	0.216194	0.127795
	H34	H	0.355615	0.776770	0.126440
	H35	H	0.668692	0.777868	0.921151
	H36	H	0.356705	0.891691	0.244436
	H37	H	0.668150	0.100841	0.245308
	H38	H	0.357952	0.107905	0.797797
	H39	H	0.669139	0.893550	0.803988
	H40	H	0.908443	0.218404	0.367401
	H41	H	0.119073	0.218435	0.679264
	H42	H	0.116941	0.775531	0.367684
	H43	H	0.908525	0.775083	0.679042
	H44	H	0.233897	0.339911	0.919937
	H45	H	0.232398	0.654906	0.126277
	H46	H	0.793520	0.339182	0.127067
	H47	H	0.792316	0.652736	0.919348
	H48	H	0.426179	0.104166	0.602258
	H49	H	0.596765	0.886018	0.611499
	H50	H	0.595679	0.109386	0.430026
	H51	H	0.424532	0.882942	0.432802
	H52	H	0.605486	0.407026	0.137011
	H53	H	0.603876	0.581815	0.912406
	H54	H	0.427112	0.584124	0.132002
	H55	H	0.423253	0.408238	0.911719
	H56	H	0.125329	0.583926	0.434827
	H57	H	0.899716	0.591479	0.611813
	H58	H	0.125562	0.408721	0.613187
	H59	H	0.903877	0.411852	0.436338
	H60	H	0.125553	0.408014	0.614683
	H61	H	0.905774	0.581156	0.604951
	H62	H	0.126068	0.585045	0.432836
	H63	H	0.899986	0.409750	0.428931
	H64	H	0.423247	0.591516	0.135287
	H65	H	0.597141	0.586658	0.912146
	H66	H	0.602951	0.409079	0.134904
	H67	H	0.424211	0.412413	0.913402
	H68	H	0.598254	0.106900	0.441411
	H69	H	0.604879	0.884454	0.610053
	H70	H	0.417375	0.111525	0.612923
	H71	H	0.424248	0.883130	0.434333
	H72	H	0.922576	0.610328	0.114229
	H73	H	0.099201	0.383320	0.118622
	H74	H	0.097995	0.607966	0.936880
	H75	H	0.924211	0.384963	0.938838
	H76	H	0.104284	0.911548	0.634323
	H77	H	0.106920	0.090858	0.409512
	H78	H	0.922399	0.082324	0.634395
	H79	H	0.923411	0.905017	0.410937
	H80	H	0.621638	0.086451	0.940230
	H81	H	0.401413	0.083628	0.110305
	H82	H	0.625191	0.906836	0.114681
	H83	H	0.400602	0.909935	0.935867
	H84	H	0.624818	0.906398	0.114538
	H85	H	0.399701	0.083751	0.113794
	H86	H	0.622126	0.079216	0.933381
	H87	H	0.401161	0.911800	0.936362
	H88	H	0.927078	0.085508	0.634070
	H89	H	0.104793	0.078538	0.413790
	H90	H	0.098139	0.908084	0.633309
	H91	H	0.921630	0.913193	0.413085
	H92	H	0.102943	0.609427	0.935248
	H93	H	0.097304	0.387932	0.107277
	H94	H	0.925341	0.609205	0.112144
	H95	H	0.921895	0.381062	0.933227
	H96	H	0.432134	0.107036	0.616026
	H97	H	0.601612	0.882852	0.617335
	H98	H	0.606587	0.112183	0.434690
	H99	H	0.423293	0.882755	0.433680
	H100	H	0.602012	0.405358	0.135366
	H101	H	0.604331	0.589399	0.908999
	H102	H	0.418506	0.584075	0.134125
	H103	H	0.427158	0.409140	0.913596
	H104	H	0.124935	0.586218	0.434793
	H105	H	0.901858	0.579124	0.618094
	H106	H	0.126077	0.407149	0.612955
	H107	H	0.900188	0.404322	0.435530
	H108	H	0.921888	0.609543	0.110517
	H109	H	0.108398	0.383059	0.110357
	H110	H	0.098952	0.609822	0.932102
	H111	H	0.928533	0.384424	0.933173
	H112	H	0.103781	0.905336	0.636907
	H113	H	0.095182	0.087561	0.414552
	H114	H	0.922516	0.087607	0.635800
	H115	H	0.929318	0.909390	0.415230
	H116	H	0.625852	0.088640	0.931290
	H117	H	0.400402	0.087040	0.111571
	H118	H	0.625035	0.907256	0.114158
	H119	H	0.400868	0.911194	0.934571
	C120	C	0.391796	0.005062	0.645128
	C121	C	0.633586	0.988355	0.644646
	C122	C	0.633514	0.006157	0.402798
	C123	C	0.391167	0.986727	0.401693
	C124	C	0.635050	0.374667	0.032956
	C125	C	0.633545	0.617905	1.014423
	C126	C	0.390136	0.619690	0.031284
	C127	C	0.391734	0.376587	1.014870
	C128	C	0.022171	0.618166	0.401995
	C129	C	1.004915	0.617259	0.645076
	C130	C	0.022352	0.375167	0.645318
	C131	C	1.004713	0.376249	0.402172
	C132	C	0.892080	0.505498	0.144282
	C133	C	0.133750	0.488803	0.144035
	C134	C	0.133071	0.505369	0.902853
	C135	C	0.891977	0.486873	0.902438
	C136	C	0.134506	0.875015	0.532175
	C137	C	0.135204	0.118237	0.515345
	C138	C	0.891685	0.118151	0.531571
	C139	C	0.892365	0.876344	0.515379
	C140	C	0.520647	0.118902	0.901662
	C141	C	0.503919	0.117012	0.144539
	C142	C	0.521528	0.875029	0.145662
	C143	C	0.503957	0.877771	0.903006
	C144	C	0.386429	0.889202	0.708970
	C145	C	0.636496	0.106308	0.704644
	C146	C	0.636872	0.887882	0.342785
	C147	C	0.387998	0.104813	0.341815
	C148	C	0.695215	0.371468	0.916422
	C149	C	0.693897	0.619992	0.131598
	C150	C	0.328602	0.623676	0.914634
	C151	C	0.330008	0.372477	0.131020
	C152	C	0.904476	0.678784	0.400028
	C153	C	0.121822	0.678674	0.649191
	C154	C	0.904501	0.314968	0.646969
	C155	C	0.122662	0.316125	0.400861
	C156	C	0.905421	0.371443	0.705905
	C157	C	0.121558	0.621357	0.707493
	C158	C	0.905117	0.622471	0.340819
	C159	C	0.121981	0.373068	0.341885
	C160	C	0.386654	0.681190	0.914631
	C161	C	0.634976	0.677190	0.131943
	C162	C	0.636541	0.314483	0.916308
	C163	C	0.387948	0.314487	0.131046
	C164	C	0.694914	0.888422	0.399946
	C165	C	0.694103	0.106011	0.647146
	C166	C	0.330520	0.887667	0.649722
	C167	C	0.330808	0.104891	0.399808
	C168	C	0.891361	0.386658	0.203670
	C169	C	0.135078	0.607357	0.202993
	C170	C	0.136025	0.386429	0.843745
	C171	C	0.888966	0.604826	0.842135
	C172	C	0.194313	0.872296	0.415058
	C173	C	0.195703	0.120218	0.632105
	C174	C	0.830535	0.121633	0.414954
	C175	C	0.831805	0.873332	0.632158
	C176	C	0.403444	0.180312	0.898723
	C177	C	0.621750	0.176443	0.146506
	C178	C	0.403005	0.816244	0.146008
	C179	C	0.621860	0.817756	0.902056
	C180	C	0.403332	0.873410	0.204419
	C181	C	0.621368	0.119472	0.205146
	C182	C	0.404195	0.124117	0.839357
	C183	C	0.621823	0.875261	0.843915
	C184	C	0.889579	0.178508	0.414272
	C185	C	0.137363	0.178010	0.632480
	C186	C	0.135951	0.814959	0.414853
	C187	C	0.889876	0.815206	0.632260
	C188	C	0.193604	0.386876	0.901443
	C189	C	0.192558	0.607606	0.145202
	C190	C	0.833537	0.386329	0.145934
	C191	C	0.831989	0.605271	0.900318
	C192	C	0.417870	0.086420	0.618127
	C193	C	0.608089	0.905915	0.619820
	C194	C	0.607577	0.087992	0.428086
	C195	C	0.416722	0.904284	0.426384
	C196	C	0.610363	0.400057	0.114512
	C197	C	0.608785	0.593012	0.932527
	C198	C	0.415755	0.593713	0.112658
	C199	C	0.417453	0.402610	0.934037
	C200	C	0.104255	0.592265	0.427035
	C201	C	0.923614	0.591317	0.618970
	C202	C	0.104302	0.400762	0.620568
	C203	C	0.922767	0.401501	0.426807
	C204	C	0.916223	0.588077	0.119475
	C205	C	0.108908	0.406276	0.119183
	C206	C	0.107291	0.587558	0.927556
	C207	C	0.917520	0.404884	0.927828
	C208	C	0.109216	0.900890	0.613629
	C209	C	0.109600	0.092857	0.433816
	C210	C	0.917026	0.092553	0.613423
	C211	C	0.917699	0.901945	0.434249
	C212	C	0.602155	0.092461	0.927600
	C213	C	0.421880	0.091982	0.119232
	C214	C	0.603715	0.899712	0.121493
	C215	C	0.422103	0.903651	0.928104
	Zn216	Zn	0.512868	-0.002294	0.773021
	Zn217	Zn	0.512884	-0.003646	0.274142
	Zn218	Zn	0.763277	0.496372	0.023613
	Zn219	Zn	0.261997	0.497621	0.022842
	Zn220	Zn	0.013477	0.746300	0.523841
	Zn221	Zn	0.012956	0.247364	0.523502
	Zn222	Zn	0.012919	0.496026	0.774112
	Zn223	Zn	0.013226	0.497304	0.272962
	Zn224	Zn	0.512135	0.747540	0.022928
	Zn225	Zn	0.512346	0.246458	0.023567
	Zn226	Zn	0.761994	-0.002626	0.523586
	Zn227	Zn	0.264038	-0.004633	0.523669
	N228	N	0.423586	0.963157	0.706431
	N229	N	0.599569	0.032015	0.703253
	N230	N	0.599382	0.962014	0.344271
	N231	N	0.424668	0.030217	0.342581
	N232	N	0.694402	0.408082	0.990031
	N233	N	0.693261	0.583939	0.057477
	N234	N	0.330564	0.585954	0.988108
	N235	N	0.332333	0.410613	0.057851
	N236	N	0.978507	0.676323	0.437321
	N237	N	0.048406	0.676225	0.610926
	N238	N	0.978467	0.316877	0.610227
	N239	N	0.048691	0.317897	0.437552
	N240	N	0.979714	0.408090	0.704969
	N241	N	0.047810	0.583835	0.705135
	N242	N	0.979227	0.585454	0.341979
	N243	N	0.047662	0.409729	0.342527
	N244	N	0.424274	0.678882	0.988313
	N245	N	0.598364	0.676281	0.057865
	N246	N	0.600068	0.315963	0.990080
	N247	N	0.425674	0.316850	0.057927
	N248	N	0.692986	0.962834	0.436550
	N249	N	0.692438	0.031563	0.610502
	N250	N	0.333621	0.960945	0.610654
	N251	N	0.332577	0.030343	0.436107
	N252	N	0.926768	0.461912	0.203032
	N253	N	0.099429	0.532357	0.202526
	N254	N	0.099401	0.461209	0.844251
	N255	N	0.925366	0.530133	0.843237
	N256	N	0.193831	0.908751	0.489152
	N257	N	0.194402	0.083707	0.558260
	N258	N	0.831773	0.084876	0.488844
	N259	N	0.833012	0.910560	0.558529
	N260	N	0.477013	0.177123	0.936750
	N261	N	0.547675	0.175068	0.109494
	N262	N	0.477566	0.816917	0.110363
	N263	N	0.547417	0.818872	0.937820
	N264	N	0.478119	0.908937	0.204653
	N265	N	0.547021	0.083216	0.204038
	N266	N	0.478234	0.086726	0.841049
	N267	N	0.547331	0.911596	0.844149
	N268	N	0.926897	0.176514	0.488036
	N269	N	0.100437	0.177017	0.558651
	N270	N	0.099768	0.816511	0.488892
	N271	N	0.926903	0.816933	0.558674
	N272	N	0.192077	0.461814	0.937232
	N273	N	0.192004	0.532820	0.109355
	N274	N	0.833807	0.461140	0.109928
	N275	N	0.833454	0.530860	0.937044
	O276	O	-0.231109	0.754979	-0.216277
	H277	H	-0.214974	0.757628	-0.202596
	H278	H	-0.210364	0.756864	-0.196568
	O279	O	0.315683	0.759687	0.263832
	H280	H	0.307139	0.777147	0.248326
	H281	H	0.321211	0.779284	0.252144
	O282	O	1.491952	0.367794	0.431299
	H283	H	1.473358	0.356170	0.444826
	H284	H	1.482420	0.375181	0.425692
	O285	O	0.734333	0.469504	0.300964
	H286	H	0.764616	0.465764	0.279252
	H287	H	0.727301	0.458057	0.318674
	O288	O	-0.180162	0.996278	-0.135818
	H289	H	-0.172606	1.021577	-0.149578
	H290	H	-0.181991	1.002239	-0.144715
	O291	O	0.294309	0.393441	0.742505
	H292	H	0.287280	0.405009	0.743599
	H293	H	0.268074	0.402238	0.753245
	O294	O	1.389338	-0.555871	0.582333
	H295	H	1.383937	-0.541938	0.571984
	H296	H	1.402148	-0.542832	0.573859
	O297	O	0.717951	0.287601	0.310195
	H298	H	0.702004	0.295703	0.321964
	H299	H	0.715783	0.279533	0.294050
	O300	O	-0.292076	0.305095	0.719812
	H301	H	-0.322786	0.313442	0.702773
	H302	H	-0.299066	0.334186	0.701027
	O303	O	0.802260	-0.217504	0.057735
	H304	H	0.785553	-0.237749	0.060095
	H305	H	0.807806	-0.209445	0.079429
	O306	O	0.535238	0.698586	0.747799
	H307	H	0.526003	0.706911	0.747796
	H308	H	0.538462	0.711201	0.760490
	O309	O	0.439160	0.508752	0.750934
	H310	H	0.427119	0.504907	0.744566
	H311	H	0.440314	0.508326	0.764525
	O312	O	0.656871	0.478173	0.539114
	H313	H	0.668843	0.475753	0.525156
	H314	H	0.658717	0.466318	0.547120
	O315	O	1.296079	0.710581	1.433851
	H316	H	1.276081	0.735215	1.415588
	H317	H	1.307052	0.705409	1.413786
	O318	O	0.603833	0.287208	0.476392
	H319	H	0.595761	0.274159	0.457710
	H320	H	0.596672	0.281030	0.474430
	O321	O	-0.146910	1.100666	1.169552
	H322	H	-0.139957	1.100183	1.146789
	H323	H	-0.147685	1.086189	1.166138
	O324	O	1.159537	1.204513	0.229119
	H325	H	1.124928	1.213932	0.231558
	H326	H	1.180294	1.225095	0.245227
	O327	O	0.066886	0.151392	0.976457
	H328	H	0.068159	0.148874	0.988246
	H329	H	0.072033	0.154592	0.977034
	O330	O	1.000141	-0.087666	-0.171761
	H331	H	0.991873	-0.091313	-0.169213
	H332	H	0.989528	-0.080897	-0.172275
	O333	O	0.386340	0.300317	0.533609
	H334	H	0.391666	0.302226	0.536420
	H335	H	0.358724	0.297945	0.538374
	O336	O	0.703183	0.711417	0.563574
	H337	H	0.707590	0.727659	0.589234
	H338	H	0.715010	0.712147	0.582770
	O339	O	1.032773	-0.002448	1.109131
	H340	H	1.027150	0.021081	1.103702
	H341	H	1.042630	0.000327	1.111515
	O342	O	-0.604710	-0.408953	0.326028
	H343	H	-0.584418	-0.408958	0.319721
	H344	H	-0.622893	-0.385661	0.308709
	O345	O	0.704872	1.689735	0.326620
	H346	H	0.684747	1.664816	0.338214
	H347	H	0.691130	1.677377	0.354001
	O348	O	-0.522026	0.469741	0.681153
	H349	H	-0.532559	0.465685	0.683894
	H350	H	-0.533199	0.475795	0.682844
	O351	O	0.310758	0.549081	0.482620
	H352	H	0.333491	0.554485	0.471526
	H353	H	0.296702	0.573441	0.471999
	O354	O	-0.121553	-0.195827	0.889298
	H355	H	-0.110671	-0.187899	0.904124
	H356	H	-0.104785	-0.190085	0.902167
	O357	O	0.507208	0.283460	0.676913
	H358	H	0.491069	0.284453	0.686516
	H359	H	0.501643	0.275067	0.672646
	O360	O	0.214486	0.081814	0.911179
	H361	H	0.207597	0.057768	0.934276
	H362	H	0.206323	0.090947	0.935736
	O363	O	0.068144	-0.083874	-0.071230
	H364	H	0.074936	-0.093445	-0.067433
	H365	H	0.078630	-0.077975	-0.059966
	O366	O	0.565772	0.388829	0.449123
	H367	H	0.548611	0.381093	0.452275
	H368	H	0.557576	0.391584	0.450418
	O369	O	1.244282	0.241724	-0.123881
	H370	H	1.254339	0.275057	-0.112878
	H371	H	1.235613	0.237803	-0.131007
	O372	O	1.025208	1.129596	-0.201123
	H373	H	1.028819	1.111608	-0.208637
	H374	H	1.051792	1.127343	-0.207466
	O375	O	1.123576	0.196210	0.206106
	H376	H	1.113302	0.190473	0.214049
	H377	H	1.114550	0.191714	0.211272
	O378	O	0.234698	0.136668	1.010889
	H379	H	0.236154	0.149684	1.033817
	H380	H	0.229692	0.150259	1.020241
	O381	O	0.627021	0.509217	0.561024
	H382	H	0.632891	0.528210	0.576974
	H383	H	0.621144	0.497164	0.571419
	O384	O	0.510831	0.661944	0.318020
	H385	H	0.526251	0.675008	0.298302
	H386	H	0.520529	0.646978	0.329520
	O387	O	0.979522	0.951881	0.234205
	H388	H	0.967790	0.946309	0.236095
	H389	H	0.979964	0.980752	0.241309
	O390	O	0.327024	0.642222	0.687536
	H391	H	0.314565	0.665264	0.697569
	H392	H	0.332522	0.625698	0.679411
	O393	O	0.231525	1.027753	0.241484
	H394	H	0.251060	1.028962	0.270171
	H395	H	0.223971	1.046775	0.238839
	O396	O	0.218886	0.975303	1.079243
	H397	H	0.211280	0.990169	1.072687
	H398	H	0.210568	0.986108	1.103021
	O399	O	0.570200	0.458525	1.735550
	H400	H	0.562234	0.430223	1.737574
	H401	H	0.574602	0.458701	1.737426
	O402	O	0.115564	-0.120901	1.135832
	H403	H	0.098980	-0.112942	1.122714
	H404	H	0.111315	-0.101798	1.143254
	O405	O	0.777635	0.003082	1.038178
	H406	H	0.777049	-0.008775	1.019641
	H407	H	0.772106	0.012885	1.022652
	O408	O	-0.096012	0.143494	0.139875
	H409	H	-0.117685	0.159824	0.137385
	H410	H	-0.112166	0.118888	0.123776
	O411	O	0.033013	0.784635	-0.142058
	H412	H	0.035246	0.792264	-0.150191
	H413	H	0.046444	0.777024	-0.138411
	O414	O	0.360259	0.279711	-0.499690
	H415	H	0.341192	0.273732	-0.503200
	H416	H	0.360888	0.286198	-0.482439
	O417	O	0.557913	0.515703	0.385394
	H418	H	0.545161	0.510101	0.387520
	H419	H	0.559702	0.508541	0.391562
	O420	O	0.726610	0.303760	0.466900
	H421	H	0.731449	0.296872	0.452204
	H422	H	0.726782	0.293908	0.460650
	O423	O	0.011238	-0.199562	1.166201
	H424	H	-0.001915	-0.203990	1.175833
	H425	H	-0.012602	-0.199027	1.170776
	O426	O	0.799320	0.119091	-0.088421
	H427	H	0.786381	0.148749	-0.089960
	H428	H	0.793904	0.120157	-0.126338
	O429	O	0.808109	0.794874	1.226732
	H430	H	0.776831	0.763648	1.258879
	H431	H	0.827300	0.802469	1.216599
	O432	O	0.805235	-0.029798	0.236649
	H433	H	0.785827	-0.050897	0.242044
	H434	H	0.792441	-0.034401	0.224924
	O435	O	0.221278	0.791058	0.002618
	H436	H	0.201055	0.796936	0.015831
	H437	H	0.244248	0.778734	0.000835
	O438	O	0.205483	-0.197815	-0.168832
	H439	H	0.210353	-0.184598	-0.138026
	H440	H	0.190641	-0.181862	-0.171914
	O441	O	-0.073217	0.131584	0.155008
	H442	H	-0.089978	0.135485	0.151395
	H443	H	-0.083117	0.125719	0.152082
	O444	O	0.567263	0.653161	0.447378
	H445	H	0.576250	0.659671	0.475396
	H446	H	0.566574	0.651867	0.442743
	O447	O	-0.115645	1.091187	1.013057
	H448	H	-0.136879	1.101885	0.996259
	H449	H	-0.111618	1.094664	0.998853
	O450	O	0.028174	0.906199	1.108933
	H451	H	0.008315	0.908112	1.109595
	H452	H	0.023938	0.904195	1.095400
	O453	O	0.721695	0.524496	0.733832
	H454	H	0.745144	0.527984	0.749056
	H455	H	0.714139	0.536135	0.727517
	O456	O	-0.562645	0.491921	0.572181
	H457	H	-0.556340	0.491102	0.571824
	H458	H	-0.557297	0.511033	0.580265
	O459	O	0.738565	0.571586	0.467528
	H460	H	0.745028	0.573902	0.465557
	H461	H	0.737120	0.583582	0.480928
	O462	O	0.293585	0.525155	0.303797
	H463	H	0.290541	0.545734	0.307127
	H464	H	0.277412	0.543665	0.284799
	O465	O	0.808029	0.197530	-0.179835
	H466	H	0.856321	0.207163	-0.190360
	H467	H	0.782664	0.228811	-0.211381
	O468	O	0.389898	0.439752	0.348079
	H469	H	0.393426	0.449918	0.350923
	H470	H	0.394334	0.449399	0.356113
	O471	O	0.453347	0.722518	0.567632
	H472	H	0.429632	0.721782	0.565254
	H473	H	0.462967	0.723319	0.573736
	O474	O	0.366138	0.369486	0.344465
	H475	H	0.367674	0.382305	0.350108
	H476	H	0.369278	0.384164	0.353697
	O477	O	0.349272	0.438404	1.544097
	H478	H	0.346585	0.455155	1.533723
	H479	H	0.342690	0.441274	1.536969
	O480	O	0.013342	1.200002	-0.104187
	H481	H	0.017987	1.193455	-0.112242
	H482	H	0.023347	1.197464	-0.098094
	O483	O	0.660294	0.689925	0.624484
	H484	H	0.644509	0.686571	0.641472
	H485	H	0.672557	0.696644	0.642288
	O486	O	0.227023	0.973874	-0.191750
	H487	H	0.259675	0.964467	-0.213292
	H488	H	0.239137	0.985754	-0.152686
	O489	O	0.960132	0.950966	-0.013243
	H490	H	0.944364	0.956048	-0.016370
	H491	H	0.961852	0.953100	-0.013121
