data_Molecule from HDF5

_cell_length_a		16.336475
_cell_length_b		16.247823
_cell_length_c		16.219446
_cell_angle_alpha	89.720193
_cell_angle_beta	89.838907
_cell_angle_gamma	90.250203
_symmetry_space_group_name_H-M	'P 1'
_symmetry_Int_Tables_number		1

loop_
	_symmetry_equiv_pos_as_xyz
	x,y,z

loop_
	_atom_site_label
	_atom_site_type_symbol
	_atom_site_fract_x
	_atom_site_fract_y
	_atom_site_fract_z
	H0	H	0.405008	0.840758	0.712239
	H1	H	0.602003	0.169453	0.708772
	H2	H	0.600260	0.839319	0.284955
	H3	H	0.408518	0.169346	0.281874
	H4	H	0.719905	0.406144	0.833156
	H5	H	0.718678	0.604236	0.161143
	H6	H	0.289950	0.604963	0.833009
	H7	H	0.287913	0.404098	0.160569
	H8	H	0.840450	0.719421	0.398179
	H9	H	0.166842	0.720340	0.593128
	H10	H	0.841943	0.288004	0.597203
	H11	H	0.167871	0.292434	0.397751
	H12	H	0.840952	0.405852	0.712107
	H13	H	0.167762	0.603812	0.709362
	H14	H	0.840514	0.602944	0.282369
	H15	H	0.167723	0.409685	0.282535
	H16	H	0.408250	0.718471	0.832514
	H17	H	0.601356	0.717104	0.162087
	H18	H	0.602349	0.293176	0.832226
	H19	H	0.404925	0.289421	0.161015
	H20	H	0.719086	0.840701	0.397836
	H21	H	0.718787	0.168815	0.593843
	H22	H	0.288057	0.840807	0.597110
	H23	H	0.290355	0.168841	0.395699
	H24	H	0.905460	0.341398	0.211646
	H25	H	0.101064	0.669730	0.207790
	H26	H	0.101285	0.340634	0.783180
	H27	H	0.908508	0.668900	0.783251
	H28	H	0.218588	0.907514	0.333071
	H29	H	0.218869	0.103691	0.660535
	H30	H	0.791494	0.104844	0.332491
	H31	H	0.787870	0.903797	0.660654
	H32	H	0.340826	0.220029	0.897590
	H33	H	0.666958	0.220961	0.095446
	H34	H	0.340826	0.787888	0.096904
	H35	H	0.667817	0.791655	0.899155
	H36	H	0.341261	0.905219	0.212141
	H37	H	0.668143	0.103301	0.210521
	H38	H	0.340902	0.103221	0.781369
	H39	H	0.668042	0.908031	0.783084
	H40	H	0.908061	0.219174	0.332707
	H41	H	0.102295	0.217331	0.661783
	H42	H	0.100133	0.794554	0.331870
	H43	H	0.904002	0.789209	0.660784
	H44	H	0.217794	0.340998	0.898253
	H45	H	0.218771	0.668500	0.094184
	H46	H	0.787863	0.341789	0.098099
	H47	H	0.790338	0.668387	0.896242
	H48	H	0.411208	0.122734	0.592671
	H49	H	0.606942	0.883585	0.593985
	H50	H	0.603636	0.125397	0.393721
	H51	H	0.409844	0.889987	0.409320
	H52	H	0.594297	0.412659	0.112664
	H53	H	0.606888	0.598472	0.877568
	H54	H	0.410462	0.593226	0.113336
	H55	H	0.412959	0.419592	0.882048
	H56	H	0.125112	0.609559	0.395747
	H57	H	0.888921	0.593338	0.588857
	H58	H	0.119209	0.416463	0.589217
	H59	H	0.890178	0.413253	0.411237
	H60	H	0.122323	0.410535	0.594189
	H61	H	0.886703	0.597492	0.593504
	H62	H	0.118091	0.602487	0.412091
	H63	H	0.889122	0.416075	0.401292
	H64	H	0.412707	0.596232	0.113707
	H65	H	0.594692	0.591135	0.883045
	H66	H	0.596835	0.411458	0.113916
	H67	H	0.415900	0.407637	0.879994
	H68	H	0.588070	0.117270	0.402885
	H69	H	0.587300	0.888914	0.597289
	H70	H	0.415492	0.118982	0.587980
	H71	H	0.407398	0.887015	0.403575
	H72	H	0.910308	0.622258	0.088695
	H73	H	0.094679	0.387975	0.093087
	H74	H	0.096720	0.621737	0.902808
	H75	H	0.908140	0.388685	0.910299
	H76	H	0.092571	0.910821	0.613190
	H77	H	0.095919	0.092014	0.383503
	H78	H	0.909373	0.092112	0.612186
	H79	H	0.917140	0.904798	0.379607
	H80	H	0.620257	0.103139	0.904826
	H81	H	0.387974	0.094252	0.093269
	H82	H	0.615393	0.918133	0.081670
	H83	H	0.389124	0.916990	0.902889
	H84	H	0.622691	0.915049	0.101334
	H85	H	0.387246	0.100871	0.090153
	H86	H	0.618663	0.096598	0.903303
	H87	H	0.385543	0.906318	0.899985
	H88	H	0.915497	0.096479	0.612651
	H89	H	0.093960	0.104587	0.378485
	H90	H	0.099499	0.908834	0.616148
	H91	H	0.901474	0.911471	0.377065
	H92	H	0.098800	0.621292	0.904307
	H93	H	0.096446	0.388006	0.086979
	H94	H	0.909240	0.623265	0.089194
	H95	H	0.906632	0.385860	0.900625
	H96	H	0.408518	0.121388	0.585925
	H97	H	0.595519	0.891628	0.578864
	H98	H	0.604815	0.120108	0.412688
	H99	H	0.413478	0.888474	0.403647
	H100	H	0.596616	0.414088	0.114035
	H101	H	0.594267	0.605985	0.879221
	H102	H	0.409086	0.596509	0.114528
	H103	H	0.404686	0.411686	0.877880
	H104	H	0.119429	0.591422	0.396567
	H105	H	0.887745	0.600465	0.587655
	H106	H	0.119331	0.409011	0.586572
	H107	H	0.886209	0.405977	0.403275
	H108	H	0.910658	0.622283	0.089818
	H109	H	0.100439	0.386056	0.091108
	H110	H	0.099482	0.621886	0.902518
	H111	H	0.915965	0.389550	0.903900
	H112	H	0.098611	0.916285	0.613684
	H113	H	0.105507	0.099428	0.377699
	H114	H	0.909298	0.098941	0.615368
	H115	H	0.914881	0.922036	0.383436
	H116	H	0.621653	0.100546	0.898744
	H117	H	0.390053	0.095339	0.085616
	H118	H	0.623282	0.898707	0.087406
	H119	H	0.389572	0.908513	0.910052
	C120	C	0.382195	0.012968	0.618392
	C121	C	0.625384	0.996485	0.617987
	C122	C	0.626747	0.012700	0.374779
	C123	C	0.382740	0.996732	0.375485
	C124	C	0.625358	0.384077	0.005221
	C125	C	0.626132	0.626211	0.988964
	C126	C	0.383138	0.625173	0.005353
	C127	C	0.381975	0.382806	0.988201
	C128	C	0.012496	0.628436	0.373888
	C129	C	0.995631	0.626198	0.617653
	C130	C	0.012656	0.382745	0.619134
	C131	C	0.996297	0.384085	0.375726
	C132	C	0.881920	0.514141	0.118508
	C133	C	0.125306	0.496235	0.117849
	C134	C	0.126265	0.513300	0.874745
	C135	C	0.882936	0.496314	0.875705
	C136	C	0.124858	0.884488	0.505432
	C137	C	0.126590	0.127043	0.488282
	C138	C	0.883267	0.125770	0.505195
	C139	C	0.882267	0.883244	0.488337
	C140	C	0.512249	0.127458	0.873997
	C141	C	0.496396	0.125923	0.118042
	C142	C	0.512519	0.882079	0.118843
	C143	C	0.495926	0.882960	0.875630
	C144	C	0.384412	0.889469	0.674023
	C145	C	0.622800	0.120276	0.671622
	C146	C	0.622263	0.888851	0.321296
	C147	C	0.386892	0.120305	0.319536
	C148	C	0.681591	0.386362	0.881955
	C149	C	0.680981	0.623926	0.112222
	C150	C	0.328489	0.624019	0.881712
	C151	C	0.326226	0.384376	0.111578
	C152	C	0.889301	0.681939	0.377690
	C153	C	0.118574	0.681704	0.614230
	C154	C	0.890392	0.326357	0.617239
	C155	C	0.118979	0.329892	0.377829
	C156	C	0.889821	0.385143	0.674164
	C157	C	0.118866	0.623914	0.672008
	C158	C	0.889245	0.623967	0.320155
	C159	C	0.118914	0.388256	0.320368
	C160	C	0.387157	0.680511	0.881524
	C161	C	0.622350	0.680069	0.112678
	C162	C	0.622979	0.330087	0.881467
	C163	C	0.384599	0.327630	0.111967
	C164	C	0.681084	0.889296	0.377624
	C165	C	0.680850	0.119979	0.614801
	C166	C	0.325924	0.889894	0.617235
	C167	C	0.328201	0.119893	0.376208
	C168	C	0.884690	0.390471	0.174229
	C169	C	0.121950	0.620484	0.170844
	C170	C	0.122445	0.389740	0.820408
	C171	C	0.886970	0.619883	0.820460
	C172	C	0.179909	0.887655	0.381547
	C173	C	0.181106	0.124309	0.611857
	C174	C	0.829080	0.124638	0.381670
	C175	C	0.826152	0.884305	0.611659
	C176	C	0.389300	0.181809	0.877259
	C177	C	0.618895	0.181810	0.115144
	C178	C	0.389710	0.826065	0.116806
	C179	C	0.619188	0.829087	0.878236
	C180	C	0.389759	0.884114	0.174297
	C181	C	0.619435	0.123580	0.172517
	C182	C	0.389254	0.123802	0.819539
	C183	C	0.619248	0.887193	0.820767
	C184	C	0.887025	0.181563	0.381722
	C185	C	0.123111	0.180767	0.612244
	C186	C	0.121223	0.831407	0.381204
	C187	C	0.883808	0.827287	0.611807
	C188	C	0.180528	0.389959	0.877325
	C189	C	0.180845	0.619624	0.114844
	C190	C	0.826489	0.390541	0.117772
	C191	C	0.828488	0.619718	0.876973
	C192	C	0.405151	0.098747	0.595526
	C193	C	0.603209	0.910208	0.596317
	C194	C	0.605177	0.098831	0.396484
	C195	C	0.404194	0.910784	0.398467
	C196	C	0.602622	0.406153	0.091434
	C197	C	0.604854	0.604813	0.902107
	C198	C	0.404350	0.602210	0.091757
	C199	C	0.404518	0.405971	0.902311
	C200	C	0.098604	0.607435	0.395190
	C201	C	0.909865	0.603907	0.596150
	C202	C	0.098229	0.405500	0.596512
	C203	C	0.910574	0.405579	0.398429
	C204	C	0.903744	0.600274	0.095951
	C205	C	0.103523	0.409798	0.096759
	C206	C	0.104778	0.599485	0.896770
	C207	C	0.903989	0.410331	0.898201
	C208	C	0.103268	0.905699	0.591920
	C209	C	0.104957	0.105170	0.401987
	C210	C	0.904980	0.102682	0.591259
	C211	C	0.904719	0.905935	0.402270
	C212	C	0.597899	0.106285	0.895835
	C213	C	0.410587	0.103325	0.096105
	C214	C	0.598344	0.904373	0.096761
	C215	C	0.410243	0.904476	0.897614
	Zn216	Zn	0.504228	0.004916	0.746468
	Zn217	Zn	0.504408	0.004356	0.247133
	Zn218	Zn	0.754318	0.504748	-0.002718
	Zn219	Zn	0.253936	0.504469	-0.003559
	Zn220	Zn	0.003758	0.755702	0.496727
	Zn221	Zn	0.004757	0.254008	0.497251
	Zn222	Zn	0.004413	0.504986	0.747237
	Zn223	Zn	0.004058	0.505662	0.246063
	Zn224	Zn	0.504667	0.753728	-0.002920
	Zn225	Zn	0.504483	0.255609	-0.003728
	Zn226	Zn	0.754319	0.004714	0.496606
	Zn227	Zn	0.253680	0.005395	0.497007
	N228	N	0.418675	0.966899	0.674960
	N229	N	0.589195	0.042500	0.673875
	N230	N	0.589266	0.966560	0.319503
	N231	N	0.420309	0.042636	0.319166
	N232	N	0.683096	0.419184	0.960049
	N233	N	0.683468	0.591059	0.034170
	N234	N	0.325850	0.590491	0.959806
	N235	N	0.324641	0.418135	0.033724
	N236	N	0.966913	0.684793	0.410290
	N237	N	0.041169	0.683004	0.581315
	N238	N	0.967838	0.324990	0.583574
	N239	N	0.041605	0.327105	0.411536
	N240	N	0.967030	0.419216	0.675543
	N241	N	0.041384	0.589974	0.674202
	N242	N	0.966788	0.591559	0.317466
	N243	N	0.041693	0.421418	0.319284
	N244	N	0.420589	0.681032	0.959280
	N245	N	0.589259	0.681781	0.034775
	N246	N	0.588492	0.328921	0.958931
	N247	N	0.418547	0.326398	0.034188
	N248	N	0.683906	0.967360	0.410043
	N249	N	0.682435	0.041993	0.581992
	N250	N	0.324716	0.967692	0.583139
	N251	N	0.325590	0.042377	0.410493
	N252	N	0.918502	0.468268	0.174879
	N253	N	0.087818	0.542889	0.172464
	N254	N	0.089586	0.467630	0.818472
	N255	N	0.920394	0.542432	0.819783
	N256	N	0.182246	0.919983	0.459903
	N257	N	0.183770	0.091988	0.533708
	N258	N	0.826518	0.090809	0.459581
	N259	N	0.825102	0.918473	0.533896
	N260	N	0.466813	0.184482	0.910045
	N261	N	0.541513	0.183301	0.081841
	N262	N	0.467216	0.824728	0.083120
	N263	N	0.541865	0.826526	0.911647
	N264	N	0.466791	0.918325	0.175516
	N265	N	0.542082	0.089681	0.174455
	N266	N	0.466655	0.090960	0.817512
	N267	N	0.541534	0.919978	0.819029
	N268	N	0.920271	0.182155	0.459540
	N269	N	0.090085	0.182621	0.534370
	N270	N	0.087700	0.829495	0.459044
	N271	N	0.918210	0.826737	0.534391
	N272	N	0.182855	0.467664	0.910345
	N273	N	0.182846	0.541530	0.082379
	N274	N	0.824866	0.468100	0.083646
	N275	N	0.825841	0.541791	0.910626
	O276	O	-0.527516	0.419207	1.516121
	H277	H	-0.524422	0.417227	1.523714
	H278	H	-0.531740	0.420337	1.514374
	O279	O	0.450609	0.457560	0.520013
	H280	H	0.450427	0.460928	0.521938
	H281	H	0.446312	0.452605	0.518682
	O282	O	0.919251	-0.002298	0.031215
	H283	H	0.924952	-0.004408	0.030355
	H284	H	0.911024	-0.005607	0.036729
	O285	O	0.447876	0.400302	0.557592
	H286	H	0.444290	0.405999	0.557847
	H287	H	0.451624	0.390195	0.562358
	O288	O	0.443289	0.431346	0.566549
	H289	H	0.444362	0.421671	0.565036
	H290	H	0.436719	0.437266	0.566839
	O291	O	-0.066477	0.978913	1.030564
	H292	H	-0.059441	0.980671	1.033050
	H293	H	-0.075471	0.973995	1.034163
	O294	O	0.430508	0.383944	0.543918
	H295	H	0.419197	0.367997	0.551224
	H296	H	0.435890	0.394467	0.538410
	O297	O	0.927769	0.000446	0.022678
	H298	H	0.926476	-0.000131	0.028119
	H299	H	0.921489	-0.000460	0.017272
