data_Molecule from HDF5

_cell_length_a		16.198042
_cell_length_b		16.305147
_cell_length_c		16.526888
_cell_angle_alpha	89.976543
_cell_angle_beta	89.926640
_cell_angle_gamma	89.825987
_symmetry_space_group_name_H-M	'P 1'
_symmetry_Int_Tables_number		1

loop_
	_symmetry_equiv_pos_as_xyz
	x,y,z

loop_
	_atom_site_label
	_atom_site_type_symbol
	_atom_site_fract_x
	_atom_site_fract_y
	_atom_site_fract_z
	H0	H	0.391327	0.837824	0.716327
	H1	H	0.604823	0.156945	0.717227
	H2	H	0.603043	0.838929	0.273285
	H3	H	0.387849	0.158342	0.275617
	H4	H	0.718650	0.392610	0.836740
	H5	H	0.715666	0.601324	0.154583
	H6	H	0.279966	0.597909	0.835189
	H7	H	0.275133	0.393553	0.153967
	H8	H	0.834440	0.714573	0.393663
	H9	H	0.159205	0.713030	0.596628
	H10	H	0.835439	0.279466	0.596894
	H11	H	0.160815	0.280361	0.395505
	H12	H	0.835674	0.391131	0.715414
	H13	H	0.157116	0.600579	0.715357
	H14	H	0.836219	0.603132	0.274441
	H15	H	0.157718	0.389842	0.273525
	H16	H	0.391628	0.717980	0.837324
	H17	H	0.599370	0.717822	0.154686
	H18	H	0.601844	0.276097	0.836607
	H19	H	0.390016	0.275782	0.153608
	H20	H	0.713676	0.835949	0.393235
	H21	H	0.714193	0.159364	0.595944
	H22	H	0.282788	0.834950	0.594293
	H23	H	0.280883	0.159671	0.397008
	H24	H	0.890338	0.337888	0.216887
	H25	H	0.105654	0.655644	0.218086
	H26	H	0.102489	0.337272	0.775729
	H27	H	0.886950	0.655036	0.772360
	H28	H	0.218564	0.893479	0.335757
	H29	H	0.218045	0.100798	0.654059
	H30	H	0.777911	0.101127	0.335867
	H31	H	0.771755	0.889366	0.651626
	H32	H	0.333616	0.216125	0.893345
	H33	H	0.656900	0.217149	0.099005
	H34	H	0.332798	0.781544	0.098311
	H35	H	0.658007	0.778077	0.894251
	H36	H	0.334256	0.895441	0.214801
	H37	H	0.655560	0.106352	0.218138
	H38	H	0.335901	0.104671	0.773563
	H39	H	0.656798	0.887645	0.772485
	H40	H	0.892072	0.219233	0.337265
	H41	H	0.105481	0.219715	0.653097
	H42	H	0.105074	0.773508	0.337018
	H43	H	0.889242	0.773589	0.652454
	H44	H	0.213435	0.335637	0.895252
	H45	H	0.212283	0.659459	0.095091
	H46	H	0.775738	0.337669	0.101334
	H47	H	0.778501	0.658754	0.893866
	H48	H	0.407280	0.112621	0.586015
	H49	H	0.587517	0.882407	0.582887
	H50	H	0.578983	0.111173	0.404183
	H51	H	0.409417	0.883975	0.407971
	H52	H	0.573819	0.408961	0.103275
	H53	H	0.587438	0.593263	0.880290
	H54	H	0.408772	0.586358	0.107243
	H55	H	0.401922	0.409552	0.881931
	H56	H	0.110765	0.585446	0.409366
	H57	H	0.884373	0.580556	0.580485
	H58	H	0.110859	0.413938	0.587638
	H59	H	0.879750	0.402097	0.404480
	H60	H	0.116119	0.404383	0.591879
	H61	H	0.879022	0.584039	0.592054
	H62	H	0.111636	0.580530	0.403297
	H63	H	0.885017	0.410934	0.412427
	H64	H	0.405728	0.596514	0.110978
	H65	H	0.589581	0.583830	0.883414
	H66	H	0.588334	0.397883	0.111951
	H67	H	0.409604	0.408226	0.884110
	H68	H	0.590704	0.112498	0.409315
	H69	H	0.582403	0.883372	0.588711
	H70	H	0.408905	0.112379	0.586540
	H71	H	0.405235	0.881414	0.401778
	H72	H	0.908983	0.611433	0.086257
	H73	H	0.092355	0.379672	0.088178
	H74	H	0.095247	0.612680	0.914418
	H75	H	0.904701	0.380392	0.903465
	H76	H	0.083496	0.905019	0.606927
	H77	H	0.087302	0.086832	0.383457
	H78	H	0.910872	0.090841	0.607997
	H79	H	0.910342	0.912347	0.384614
	H80	H	0.609057	0.083239	0.908401
	H81	H	0.383974	0.079518	0.081022
	H82	H	0.608927	0.914821	0.083844
	H83	H	0.383218	0.910458	0.906855
	H84	H	0.612024	0.908183	0.090063
	H85	H	0.378372	0.085051	0.094272
	H86	H	0.612161	0.083933	0.902309
	H87	H	0.381439	0.912242	0.902135
	H88	H	0.902661	0.088643	0.609355
	H89	H	0.086961	0.089767	0.382362
	H90	H	0.090646	0.901163	0.609333
	H91	H	0.911521	0.902235	0.381903
	H92	H	0.090718	0.618561	0.889978
	H93	H	0.079084	0.383631	0.090565
	H94	H	0.908487	0.612401	0.084842
	H95	H	0.913223	0.383637	0.903344
	H96	H	0.408295	0.112127	0.584886
	H97	H	0.580446	0.886200	0.581763
	H98	H	0.588192	0.116843	0.397660
	H99	H	0.412611	0.883057	0.400119
	H100	H	0.592064	0.416819	0.106911
	H101	H	0.580276	0.587945	0.884640
	H102	H	0.397880	0.587824	0.111768
	H103	H	0.405258	0.402201	0.881099
	H104	H	0.114493	0.587516	0.402569
	H105	H	0.879443	0.592896	0.582740
	H106	H	0.112687	0.404694	0.580638
	H107	H	0.882406	0.414365	0.400193
	H108	H	0.906958	0.611907	0.086329
	H109	H	0.084775	0.385287	0.077918
	H110	H	0.071936	0.607771	0.903996
	H111	H	0.909081	0.384310	0.911112
	H112	H	0.090693	0.908768	0.607130
	H113	H	0.089619	0.088328	0.382076
	H114	H	0.908399	0.082281	0.606115
	H115	H	0.902014	0.907280	0.381126
	H116	H	0.611746	0.089619	0.906408
	H117	H	0.379437	0.094573	0.081829
	H118	H	0.609909	0.906216	0.080303
	H119	H	0.380251	0.906768	0.903806
	C120	C	0.376385	0.006119	0.616679
	C121	C	0.617312	0.989475	0.616235
	C122	C	0.617752	0.007138	0.372640
	C123	C	0.376058	0.989245	0.373702
	C124	C	0.617660	0.375795	0.002990
	C125	C	0.617457	0.619632	0.987453
	C126	C	0.373711	0.619967	0.004378
	C127	C	0.374086	0.375537	0.987125
	C128	C	0.005673	0.617179	0.373958
	C129	C	0.987717	0.617421	0.616343
	C130	C	0.006431	0.375791	0.617158
	C131	C	0.989082	0.376704	0.374441
	C132	C	0.875404	0.506226	0.117701
	C133	C	0.117985	0.488463	0.116695
	C134	C	0.117754	0.506359	0.872990
	C135	C	0.875825	0.488571	0.874425
	C136	C	0.119954	0.874172	0.503040
	C137	C	0.119763	0.119570	0.487283
	C138	C	0.875686	0.119224	0.503006
	C139	C	0.874821	0.874803	0.486644
	C140	C	0.504473	0.118201	0.874121
	C141	C	0.486985	0.119133	0.117317
	C142	C	0.503873	0.877792	0.116634
	C143	C	0.487815	0.876593	0.873384
	C144	C	0.374236	0.885455	0.675695
	C145	C	0.621147	0.109409	0.676162
	C146	C	0.620212	0.886481	0.313649
	C147	C	0.372116	0.110364	0.315863
	C148	C	0.678348	0.374246	0.884151
	C149	C	0.676527	0.620689	0.106896
	C150	C	0.317840	0.618267	0.883345
	C151	C	0.315021	0.374936	0.106552
	C152	C	0.883470	0.676096	0.373757
	C153	C	0.110251	0.674617	0.616090
	C154	C	0.883949	0.317812	0.616791
	C155	C	0.111799	0.318745	0.375413
	C156	C	0.884262	0.373610	0.675527
	C157	C	0.109040	0.619012	0.675381
	C158	C	0.884266	0.620315	0.314703
	C159	C	0.110181	0.373425	0.314922
	C160	C	0.373284	0.678076	0.884705
	C161	C	0.618256	0.678405	0.107090
	C162	C	0.620203	0.316086	0.884058
	C163	C	0.371891	0.315902	0.106181
	C164	C	0.675450	0.885047	0.373140
	C165	C	0.676177	0.110512	0.616246
	C166	C	0.319798	0.883993	0.615289
	C167	C	0.318244	0.110947	0.376012
	C168	C	0.872424	0.386106	0.177394
	C169	C	0.122167	0.608353	0.177039
	C170	C	0.119793	0.384995	0.815489
	C171	C	0.870979	0.607981	0.813550
	C172	C	0.179087	0.873878	0.383441
	C173	C	0.178748	0.119970	0.606319
	C174	C	0.816789	0.120542	0.383809
	C175	C	0.812939	0.871794	0.604749
	C176	C	0.382434	0.177185	0.873760
	C177	C	0.608320	0.178492	0.118172
	C178	C	0.382122	0.819528	0.117717
	C179	C	0.609319	0.816836	0.873642
	C180	C	0.382716	0.876213	0.175727
	C181	C	0.607724	0.123131	0.177451
	C182	C	0.383814	0.121876	0.813919
	C183	C	0.608557	0.871627	0.813126
	C184	C	0.874133	0.178974	0.384428
	C185	C	0.122530	0.179321	0.605923
	C186	C	0.122544	0.814124	0.384077
	C187	C	0.871496	0.814062	0.605125
	C188	C	0.175049	0.384337	0.874784
	C189	C	0.175482	0.610243	0.116109
	C190	C	0.815008	0.386067	0.119793
	C191	C	0.816767	0.609892	0.874106
	C192	C	0.401035	0.090616	0.592826
	C193	C	0.591315	0.905724	0.591545
	C194	C	0.593117	0.091430	0.396656
	C195	C	0.401703	0.904558	0.396636
	C196	C	0.592011	0.400631	0.085853
	C197	C	0.592845	0.595372	0.904371
	C198	C	0.397095	0.596834	0.088237
	C199	C	0.398605	0.399675	0.903966
	C200	C	0.090274	0.591814	0.398060
	C201	C	0.903103	0.593037	0.592120
	C202	C	0.091101	0.400538	0.593678
	C203	C	0.904532	0.401702	0.398706
	C204	C	0.900842	0.590166	0.092857
	C205	C	0.092764	0.404762	0.092692
	C206	C	0.092990	0.590985	0.895989
	C207	C	0.901431	0.404701	0.899003
	C208	C	0.095342	0.898207	0.586121
	C209	C	0.095086	0.095242	0.404065
	C210	C	0.900343	0.094340	0.586370
	C211	C	0.900535	0.900110	0.404061
	C212	C	0.588950	0.092824	0.898823
	C213	C	0.402740	0.093656	0.092882
	C214	C	0.588189	0.902630	0.092087
	C215	C	0.403525	0.902420	0.897511
	Zn216	Zn	0.497028	-0.001924	0.745243
	Zn217	Zn	0.495424	-0.001357	0.245230
	Zn218	Zn	0.747378	0.497920	-0.004327
	Zn219	Zn	0.245324	0.498105	-0.005501
	Zn220	Zn	-0.002765	0.745450	0.494842
	Zn221	Zn	-0.002337	0.248509	0.495911
	Zn222	Zn	-0.003672	0.496524	0.745093
	Zn223	Zn	-0.002530	0.497230	0.245389
	Zn224	Zn	0.495281	0.749323	-0.004089
	Zn225	Zn	0.496082	0.246055	-0.004732
	Zn226	Zn	0.745746	-0.002324	0.494612
	Zn227	Zn	0.248852	-0.002569	0.494869
	N228	N	0.408174	0.962714	0.676879
	N229	N	0.585575	0.032926	0.676368
	N230	N	0.585278	0.963526	0.312834
	N231	N	0.407625	0.033719	0.314676
	N232	N	0.676942	0.410614	0.959215
	N233	N	0.676104	0.584804	0.031650
	N234	N	0.317728	0.583036	0.958883
	N235	N	0.316002	0.411232	0.031539
	N236	N	0.959834	0.674125	0.409862
	N237	N	0.033638	0.674145	0.580433
	N238	N	0.960766	0.318906	0.581230
	N239	N	0.035397	0.320521	0.411654
	N240	N	0.961256	0.408893	0.675843
	N241	N	0.031776	0.584404	0.675732
	N242	N	0.961419	0.584641	0.314468
	N243	N	0.032933	0.408701	0.314237
	N244	N	0.407063	0.679457	0.960950
	N245	N	0.582289	0.677942	0.031836
	N246	N	0.583378	0.316810	0.959021
	N247	N	0.408018	0.316258	0.030979
	N248	N	0.674152	0.960958	0.409153
	N249	N	0.674086	0.034715	0.579800
	N250	N	0.320956	0.959990	0.579304
	N251	N	0.320596	0.034520	0.411245
	N252	N	0.908956	0.462082	0.176492
	N253	N	0.087044	0.531733	0.177689
	N254	N	0.084623	0.461897	0.814337
	N255	N	0.907074	0.531701	0.813647
	N256	N	0.177984	0.910272	0.458428
	N257	N	0.177038	0.083155	0.531603
	N258	N	0.817880	0.083765	0.458639
	N259	N	0.815113	0.908960	0.530168
	N260	N	0.458532	0.175114	0.910354
	N261	N	0.532291	0.176058	0.081467
	N262	N	0.458517	0.820357	0.081596
	N263	N	0.533381	0.819839	0.910546
	N264	N	0.459533	0.911801	0.175391
	N265	N	0.531236	0.086905	0.177081
	N266	N	0.460894	0.086167	0.813938
	N267	N	0.531892	0.908337	0.813038
	N268	N	0.910140	0.178187	0.459729
	N269	N	0.086313	0.179070	0.530772
	N270	N	0.086736	0.813891	0.459472
	N271	N	0.909515	0.815741	0.530686
	N272	N	0.173869	0.460766	0.909873
	N273	N	0.173206	0.534767	0.079278
	N274	N	0.816962	0.461735	0.083158
	N275	N	0.819595	0.534512	0.911344
	O276	O	0.589115	0.384359	0.405069
	H277	H	0.594455	0.372663	0.416679
	H278	H	0.591900	0.398330	0.404482
	O279	O	0.556179	0.541141	0.573180
	H280	H	0.548507	0.537303	0.562996
	H281	H	0.560452	0.549014	0.578233
	O282	O	0.391619	0.466942	0.526832
	H283	H	0.388874	0.459652	0.524412
	H284	H	0.390783	0.463778	0.529286
	O285	O	0.787523	-0.026996	0.026052
	H286	H	0.792463	-0.011017	0.017295
	H287	H	0.783748	-0.027777	0.015206
	O288	O	-0.188588	0.180890	0.814308
	H289	H	-0.160582	0.188915	0.827165
	H290	H	-0.186965	0.170782	0.835537
	O291	O	0.634550	0.506935	0.492116
	H292	H	0.629909	0.509042	0.506899
	H293	H	0.630378	0.501645	0.487314
	O294	O	0.407667	0.508244	0.523229
	H295	H	0.431836	0.515994	0.520937
	H296	H	0.405269	0.505391	0.518846
	O297	O	1.055431	0.899957	1.033960
	H298	H	1.049144	0.904987	1.047403
	H299	H	1.057531	0.904536	1.043806
	O300	O	0.049225	0.050575	-0.150481
	H301	H	0.048182	0.044513	-0.153983
	H302	H	0.052753	0.039822	-0.148849
	O303	O	0.422946	0.511829	0.579968
	H304	H	0.423807	0.526220	0.575974
	H305	H	0.436934	0.518507	0.575724
	O306	O	1.189792	0.001178	-0.058232
	H307	H	1.198648	0.004034	-0.055324
	H308	H	1.192285	0.004506	-0.054586
	O309	O	0.622671	0.411730	0.448672
	H310	H	0.618115	0.407569	0.464934
	H311	H	0.619330	0.402443	0.454878
	O312	O	1.026033	0.783513	-0.225413
	H313	H	1.028989	0.779023	-0.231342
	H314	H	1.027381	0.770308	-0.240302
	O315	O	0.577433	0.394174	0.486612
	H316	H	0.575813	0.382162	0.491567
	H317	H	0.579644	0.394281	0.483655
	O318	O	0.318345	0.607023	0.400951
	H319	H	0.328282	0.601708	0.419565
	H320	H	0.331633	0.596683	0.407507
	O321	O	1.168976	0.168477	0.955358
	H322	H	1.168956	0.162787	0.961591
	H323	H	1.157332	0.168857	0.957519
	O324	O	0.072034	-0.016366	1.092937
	H325	H	0.067603	-0.027406	1.093265
	H326	H	0.056774	-0.032946	1.086675
	O327	O	0.422853	0.691913	0.475481
	H328	H	0.405487	0.694876	0.478526
	H329	H	0.423185	0.703412	0.463679
	O330	O	0.357929	0.493212	0.353395
	H331	H	0.339759	0.487504	0.334027
	H332	H	0.364462	0.516361	0.350370
	O333	O	0.960224	0.927189	0.955101
	H334	H	0.951712	0.919069	0.949177
	H335	H	0.966006	0.931380	0.963017
	O336	O	0.503877	0.636049	0.373838
	H337	H	0.507039	0.638283	0.377878
	H338	H	0.499024	0.623461	0.368206
	O339	O	1.177901	0.133226	1.162663
	H340	H	1.179869	0.104590	1.173893
	H341	H	1.168354	0.147393	1.151286
	O342	O	-0.199652	1.195192	0.977460
	H343	H	-0.181217	1.200202	0.991226
	H344	H	-0.205234	1.219040	0.984850
	O345	O	0.013553	1.198545	1.109166
	H346	H	0.031677	1.196506	1.115495
	H347	H	0.014609	1.201149	1.107405
	O348	O	0.511199	0.509464	0.476248
	H349	H	0.519503	0.480154	0.481967
	H350	H	0.521753	0.519350	0.466868
	O351	O	-0.184634	0.008950	0.175875
	H352	H	-0.189247	-0.010268	0.167378
	H353	H	-0.195711	0.014656	0.183292
	O354	O	1.017660	1.035979	-0.126795
	H355	H	1.006588	1.039471	-0.138238
	H356	H	1.012460	1.041282	-0.125585
	O357	O	0.201402	0.958311	-0.185482
	H358	H	0.213460	0.947508	-0.202344
	H359	H	0.203853	0.957138	-0.175134
	O360	O	0.389140	0.384209	0.596048
	H361	H	0.383809	0.383077	0.586876
	H362	H	0.378349	0.390270	0.599562
	O363	O	0.640430	0.629671	0.688352
	H364	H	0.635939	0.635141	0.685640
	H365	H	0.632970	0.639817	0.679512
	O366	O	0.449016	0.575217	0.348763
	H367	H	0.450688	0.564855	0.333889
	H368	H	0.451231	0.558853	0.350578
	O369	O	0.661330	0.497459	0.314529
	H370	H	0.668565	0.483304	0.315504
	H371	H	0.659466	0.499791	0.309540
	O372	O	0.401298	0.390508	0.387399
	H373	H	0.391920	0.395728	0.383860
	H374	H	0.398438	0.378161	0.382830
	O375	O	0.424551	0.544748	0.583727
	H376	H	0.417606	0.543334	0.581761
	H377	H	0.427995	0.539756	0.574022
	O378	O	0.440447	0.371171	0.530514
	H379	H	0.438033	0.364007	0.523619
	H380	H	0.444839	0.371006	0.532488
	O381	O	0.677930	0.537842	0.608718
	H382	H	0.663957	0.565257	0.602752
	H383	H	0.696738	0.543175	0.626155
	O384	O	-0.149814	0.909990	0.877825
	H385	H	-0.146573	0.918666	0.891027
	H386	H	-0.157478	0.921527	0.853300
	O387	O	0.781275	1.021861	-0.224170
	H388	H	0.748453	1.026559	-0.254467
	H389	H	0.795034	1.045574	-0.218315
	O390	O	0.624020	0.560459	0.488560
	H391	H	0.618104	0.554422	0.489442
	H392	H	0.630027	0.557674	0.492415
	O393	O	1.183853	-0.199089	0.831296
	H394	H	1.181455	-0.204207	0.863927
	H395	H	1.173968	-0.188232	0.821286
	O396	O	-0.173775	0.854368	1.190257
	H397	H	-0.172279	0.860503	1.172550
	H398	H	-0.188927	0.857894	1.195416
	O399	O	0.912552	0.808149	1.068402
	H400	H	0.914576	0.814723	1.057700
	H401	H	0.902598	0.806646	1.062428
	O402	O	1.172517	-0.197809	0.981687
	H403	H	1.177621	-0.192293	1.008375
	H404	H	1.180635	-0.203277	0.981571
	O405	O	-0.019445	0.201529	-0.161820
	H406	H	-0.023654	0.210664	-0.167798
	H407	H	-0.007202	0.178706	-0.170015
	O408	O	1.004049	1.148177	1.101486
	H409	H	0.995142	1.144948	1.097716
	H410	H	1.013984	1.154289	1.104468
	O411	O	0.959886	0.859879	0.079796
	H412	H	0.955720	0.842126	0.085744
	H413	H	0.962325	0.863335	0.075725
	O414	O	0.071453	-0.056428	1.200030
	H415	H	0.063410	-0.060800	1.217030
	H416	H	0.051373	-0.068554	1.205868
	O417	O	0.578356	0.378251	0.574698
	H418	H	0.561757	0.366231	0.577739
	H419	H	0.568424	0.374868	0.585868
	O420	O	0.010332	0.907562	-0.065461
	H421	H	0.013786	0.911530	-0.081738
	H422	H	0.017217	0.909868	-0.073762
	O423	O	0.943140	0.086598	0.184076
	H424	H	0.935793	0.094877	0.186341
	H425	H	0.931149	0.060554	0.191029
	O426	O	-0.021835	-0.003551	1.098774
	H427	H	-0.019031	-0.015904	1.081073
	H428	H	-0.033657	-0.002991	1.097661
	O429	O	0.449574	0.415657	0.510753
	H430	H	0.461447	0.440467	0.513969
	H431	H	0.452391	0.412457	0.509059
