data_Molecule from HDF5

_cell_length_a		16.168954
_cell_length_b		16.424266
_cell_length_c		16.556322
_cell_angle_alpha	89.927398
_cell_angle_beta	90.309019
_cell_angle_gamma	89.892731
_symmetry_space_group_name_H-M	'P 1'
_symmetry_Int_Tables_number		1

loop_
	_symmetry_equiv_pos_as_xyz
	x,y,z

loop_
	_atom_site_label
	_atom_site_type_symbol
	_atom_site_fract_x
	_atom_site_fract_y
	_atom_site_fract_z
	H0	H	0.379007	0.844861	0.721826
	H1	H	0.603567	0.155993	0.719505
	H2	H	0.605812	0.844544	0.268260
	H3	H	0.383394	0.157567	0.270522
	H4	H	0.712843	0.395692	0.836414
	H5	H	0.716669	0.606978	0.150831
	H6	H	0.268048	0.609305	0.837729
	H7	H	0.273191	0.398559	0.152894
	H8	H	0.831325	0.721086	0.389155
	H9	H	0.152873	0.722388	0.602293
	H10	H	0.831824	0.280112	0.597894
	H11	H	0.152863	0.278200	0.389517
	H12	H	0.833139	0.392083	0.715526
	H13	H	0.152068	0.608606	0.719009
	H14	H	0.832818	0.608680	0.271626
	H15	H	0.152613	0.393268	0.273358
	H16	H	0.382987	0.725430	0.837730
	H17	H	0.604758	0.727366	0.148519
	H18	H	0.601744	0.275156	0.838678
	H19	H	0.381840	0.274859	0.148952
	H20	H	0.712709	0.840724	0.392304
	H21	H	0.711805	0.158952	0.596407
	H22	H	0.271572	0.840854	0.598869
	H23	H	0.272088	0.158810	0.391043
	H24	H	0.884390	0.343624	0.218095
	H25	H	0.102310	0.658157	0.219446
	H26	H	0.103466	0.343297	0.771724
	H27	H	0.883653	0.656980	0.769966
	H28	H	0.213184	0.894733	0.335509
	H29	H	0.214497	0.101513	0.652312
	H30	H	0.771673	0.103748	0.336335
	H31	H	0.774508	0.896511	0.652317
	H32	H	0.330643	0.220434	0.888158
	H33	H	0.653938	0.219412	0.097366
	H34	H	0.330889	0.782597	0.096653
	H35	H	0.653330	0.781457	0.891606
	H36	H	0.332335	0.893997	0.214455
	H37	H	0.653690	0.105818	0.214347
	H38	H	0.331852	0.106213	0.772036
	H39	H	0.651956	0.891995	0.773167
	H40	H	0.884926	0.222402	0.337544
	H41	H	0.103200	0.221809	0.651324
	H42	H	0.101049	0.774508	0.338315
	H43	H	0.885947	0.776598	0.649998
	H44	H	0.212041	0.341283	0.894455
	H45	H	0.211003	0.661447	0.097651
	H46	H	0.772916	0.341383	0.097657
	H47	H	0.773387	0.660235	0.892026
	H48	H	0.403938	0.112526	0.580555
	H49	H	0.579759	0.885808	0.588318
	H50	H	0.574033	0.112060	0.401506
	H51	H	0.404163	0.884106	0.397747
	H52	H	0.582226	0.411395	0.106284
	H53	H	0.586791	0.589342	0.879917
	H54	H	0.407590	0.599452	0.108349
	H55	H	0.407496	0.408892	0.882953
	H56	H	0.104971	0.585222	0.409312
	H57	H	0.876822	0.587518	0.586314
	H58	H	0.106896	0.410270	0.579104
	H59	H	0.877878	0.408722	0.407806
	H60	H	0.107164	0.416720	0.585021
	H61	H	0.878678	0.590790	0.578360
	H62	H	0.108089	0.585813	0.404056
	H63	H	0.879381	0.416993	0.406862
	H64	H	0.397526	0.590978	0.109222
	H65	H	0.574385	0.585410	0.885498
	H66	H	0.579633	0.410826	0.105305
	H67	H	0.399730	0.410383	0.880226
	H68	H	0.581277	0.111968	0.410003
	H69	H	0.580357	0.886891	0.583516
	H70	H	0.406787	0.113434	0.585587
	H71	H	0.412002	0.888940	0.404311
	H72	H	0.914126	0.611949	0.085708
	H73	H	0.086581	0.387993	0.080066
	H74	H	0.077779	0.613853	0.903978
	H75	H	0.905627	0.387615	0.904468
	H76	H	0.081917	0.916015	0.603725
	H77	H	0.075212	0.085861	0.384699
	H78	H	0.902779	0.088636	0.606977
	H79	H	0.903922	0.905452	0.379323
	H80	H	0.607459	0.087612	0.906644
	H81	H	0.373984	0.091430	0.089446
	H82	H	0.607656	0.909730	0.079995
	H83	H	0.375206	0.913121	0.899245
	H84	H	0.605107	0.916924	0.080199
	H85	H	0.377483	0.093819	0.076754
	H86	H	0.606555	0.087172	0.906329
	H87	H	0.377126	0.909524	0.910783
	H88	H	0.906853	0.091074	0.606234
	H89	H	0.078479	0.094814	0.381494
	H90	H	0.075251	0.907795	0.605217
	H91	H	0.900235	0.913876	0.380794
	H92	H	0.076979	0.613919	0.905013
	H93	H	0.081901	0.385739	0.092118
	H94	H	0.903642	0.611220	0.075729
	H95	H	0.902287	0.385575	0.904616
	H96	H	0.408968	0.110043	0.581120
	H97	H	0.584324	0.884249	0.585892
	H98	H	0.585244	0.115330	0.400113
	H99	H	0.401605	0.886656	0.408090
	H100	H	0.581143	0.408854	0.106749
	H101	H	0.576255	0.598176	0.880429
	H102	H	0.408343	0.586836	0.103479
	H103	H	0.403812	0.416547	0.883791
	H104	H	0.107791	0.590563	0.407784
	H105	H	0.881122	0.582807	0.580590
	H106	H	0.110034	0.408519	0.586789
	H107	H	0.876119	0.412379	0.400599
	H108	H	0.900555	0.617182	0.089444
	H109	H	0.073660	0.390971	0.083505
	H110	H	0.078156	0.613947	0.905186
	H111	H	0.904445	0.385325	0.902132
	H112	H	0.085227	0.907241	0.608377
	H113	H	0.084531	0.086761	0.381146
	H114	H	0.903723	0.093482	0.608658
	H115	H	0.908255	0.911944	0.383280
	H116	H	0.607209	0.088087	0.906297
	H117	H	0.380703	0.081726	0.082891
	H118	H	0.609051	0.914379	0.086581
	H119	H	0.380019	0.920671	0.906600
	C120	C	0.372279	0.007863	0.615043
	C121	C	0.614530	0.990619	0.617289
	C122	C	0.614279	0.008890	0.372371
	C123	C	0.371907	0.991178	0.371794
	C124	C	0.614288	0.377735	0.002501
	C125	C	0.613702	0.623420	0.985393
	C126	C	0.370358	0.624821	0.003125
	C127	C	0.370795	0.379790	0.985977
	C128	C	0.001205	0.620882	0.373832
	C129	C	0.984415	0.620390	0.615450
	C130	C	0.001959	0.379055	0.615467
	C131	C	0.983603	0.379235	0.372985
	C132	C	0.871817	0.509273	0.115827
	C133	C	0.114105	0.492700	0.117057
	C134	C	0.112668	0.509333	0.873539
	C135	C	0.870985	0.491161	0.872101
	C136	C	0.114816	0.876869	0.502425
	C137	C	0.113950	0.120857	0.486243
	C138	C	0.870650	0.122688	0.503312
	C139	C	0.871985	0.878668	0.485310
	C140	C	0.500710	0.120571	0.873403
	C141	C	0.483656	0.121646	0.114996
	C142	C	0.501141	0.880704	0.114334
	C143	C	0.483266	0.880422	0.873320
	C144	C	0.365231	0.890838	0.678579
	C145	C	0.619428	0.108981	0.678096
	C146	C	0.620527	0.890999	0.310410
	C147	C	0.366971	0.110292	0.311136
	C148	C	0.674037	0.376199	0.884173
	C149	C	0.676217	0.625571	0.103327
	C150	C	0.308056	0.627571	0.885079
	C151	C	0.311629	0.378663	0.104778
	C152	C	0.879905	0.681651	0.370588
	C153	C	0.104635	0.682008	0.619498
	C154	C	0.880452	0.319318	0.616728
	C155	C	0.104599	0.318465	0.371172
	C156	C	0.881115	0.375298	0.675248
	C157	C	0.104305	0.625367	0.677786
	C158	C	0.880708	0.625639	0.312176
	C159	C	0.104485	0.375801	0.313365
	C160	C	0.365651	0.685373	0.885068
	C161	C	0.620416	0.685667	0.102361
	C162	C	0.618348	0.316379	0.885251
	C163	C	0.365814	0.316973	0.102710
	C164	C	0.674089	0.888987	0.372149
	C165	C	0.673695	0.110567	0.617074
	C166	C	0.311222	0.888726	0.617233
	C167	C	0.311356	0.110946	0.371121
	C168	C	0.867307	0.390875	0.177170
	C169	C	0.118565	0.611139	0.178304
	C170	C	0.118847	0.390349	0.813197
	C171	C	0.866720	0.610133	0.811086
	C172	C	0.174398	0.875282	0.383595
	C173	C	0.174744	0.120921	0.605036
	C174	C	0.810922	0.123189	0.384025
	C175	C	0.813536	0.877779	0.604661
	C176	C	0.379354	0.180848	0.870175
	C177	C	0.605505	0.180432	0.116125
	C178	C	0.379588	0.821458	0.115682
	C179	C	0.604579	0.820241	0.872237
	C180	C	0.380337	0.877384	0.174017
	C181	C	0.605145	0.123890	0.174463
	C182	C	0.380125	0.124266	0.812046
	C183	C	0.603930	0.875428	0.813311
	C184	C	0.867289	0.182465	0.384795
	C185	C	0.119033	0.180827	0.604354
	C186	C	0.118645	0.815221	0.385054
	C187	C	0.869036	0.818106	0.603554
	C188	C	0.173404	0.389644	0.874155
	C189	C	0.173405	0.612676	0.117995
	C190	C	0.811925	0.389631	0.116934
	C191	C	0.811660	0.611586	0.871700
	C192	C	0.399128	0.090530	0.589516
	C193	C	0.588987	0.907411	0.592788
	C194	C	0.587835	0.091502	0.397065
	C195	C	0.398369	0.908321	0.396256
	C196	C	0.588422	0.403105	0.084745
	C197	C	0.586761	0.598069	0.903337
	C198	C	0.396953	0.599648	0.085422
	C199	C	0.396337	0.405091	0.903766
	C200	C	0.085103	0.594672	0.399652
	C201	C	0.900800	0.594389	0.589167
	C202	C	0.085987	0.404489	0.590714
	C203	C	0.899715	0.405234	0.398009
	C204	C	0.898407	0.592025	0.090713
	C205	C	0.088286	0.409714	0.092111
	C206	C	0.085446	0.592362	0.897495
	C207	C	0.896623	0.407933	0.896588
	C208	C	0.088619	0.902781	0.584331
	C209	C	0.087251	0.096269	0.403853
	C210	C	0.896651	0.098110	0.585742
	C211	C	0.896864	0.903305	0.402794
	C212	C	0.584994	0.095123	0.899020
	C213	C	0.399296	0.096569	0.090075
	C214	C	0.585353	0.906263	0.089542
	C215	C	0.399378	0.906672	0.898245
	Zn216	Zn	0.492670	0.000057	0.745179
	Zn217	Zn	0.492979	0.000003	0.242848
	Zn218	Zn	0.742360	0.500573	-0.005891
	Zn219	Zn	0.241887	0.502653	-0.004937
	Zn220	Zn	-0.007744	0.748582	0.494409
	Zn221	Zn	-0.007009	0.251475	0.494973
	Zn222	Zn	-0.007040	0.499368	0.743533
	Zn223	Zn	-0.007123	0.501003	0.245329
	Zn224	Zn	0.492352	0.752915	-0.006187
	Zn225	Zn	0.491930	0.249095	-0.006629
	Zn226	Zn	0.742375	-0.000427	0.494480
	Zn227	Zn	0.243438	-0.001050	0.493671
	N228	N	0.402962	0.965747	0.677116
	N229	N	0.583458	0.033213	0.678445
	N230	N	0.583845	0.966474	0.310457
	N231	N	0.403905	0.034888	0.311450
	N232	N	0.671682	0.413604	0.958366
	N233	N	0.672098	0.587471	0.029603
	N234	N	0.310638	0.590601	0.959585
	N235	N	0.314780	0.417357	0.031231
	N236	N	0.955829	0.678981	0.408242
	N237	N	0.029052	0.679018	0.581281
	N238	N	0.956533	0.321599	0.580223
	N239	N	0.028424	0.320325	0.407481
	N240	N	0.957677	0.411721	0.674823
	N241	N	0.028507	0.587798	0.675526
	N242	N	0.957149	0.588663	0.313952
	N243	N	0.028334	0.412947	0.314404
	N244	N	0.403565	0.683732	0.959435
	N245	N	0.582147	0.684312	0.028091
	N246	N	0.581840	0.317338	0.959818
	N247	N	0.402030	0.317636	0.027848
	N248	N	0.670583	0.963359	0.409761
	N249	N	0.671016	0.035879	0.580070
	N250	N	0.315784	0.962562	0.578185
	N251	N	0.314000	0.035922	0.407827
	N252	N	0.903805	0.466430	0.176641
	N253	N	0.082809	0.535337	0.178117
	N254	N	0.082167	0.465890	0.812705
	N255	N	0.902601	0.534152	0.810933
	N256	N	0.172457	0.912584	0.457736
	N257	N	0.171833	0.084430	0.530381
	N258	N	0.812621	0.086762	0.458842
	N259	N	0.814860	0.914388	0.529993
	N260	N	0.455348	0.178818	0.907475
	N261	N	0.528804	0.179377	0.079982
	N262	N	0.455812	0.823301	0.079306
	N263	N	0.528523	0.823227	0.908780
	N264	N	0.457098	0.913179	0.173513
	N265	N	0.528307	0.088147	0.174000
	N266	N	0.456750	0.087733	0.813742
	N267	N	0.527509	0.912266	0.814035
	N268	N	0.903700	0.182276	0.459887
	N269	N	0.081599	0.180708	0.529639
	N270	N	0.082639	0.815968	0.460041
	N271	N	0.904403	0.818367	0.528311
	N272	N	0.169868	0.464749	0.910852
	N273	N	0.170664	0.538157	0.080466
	N274	N	0.814471	0.464357	0.079669
	N275	N	0.814021	0.536675	0.908685
	O276	O	0.477758	0.286706	0.712536
	H277	H	0.469344	0.286975	0.717017
	H278	H	0.451819	0.271665	0.727041
	O279	O	0.631934	0.700851	0.487630
	H280	H	0.631847	0.692208	0.467349
	H281	H	0.640641	0.702736	0.467852
	O282	O	0.512406	0.444805	0.382793
	H283	H	0.510208	0.449826	0.381977
	H284	H	0.494988	0.447307	0.394266
	O285	O	1.059152	1.046339	-0.191165
	H286	H	1.059107	1.032065	-0.196916
	H287	H	1.047507	1.046309	-0.192665
	O288	O	0.455527	0.502295	0.705699
	H289	H	0.464144	0.507909	0.701998
	H290	H	0.477491	0.496448	0.712701
	O291	O	0.276571	0.442153	0.440915
	H292	H	0.288413	0.434066	0.444245
	H293	H	0.275118	0.442824	0.457829
	O294	O	1.128374	0.896541	0.878541
	H295	H	1.129364	0.893823	0.892114
	H296	H	1.128383	0.899916	0.873631
	O297	O	0.558451	0.409726	0.368393
	H298	H	0.575246	0.402023	0.349227
	H299	H	0.550113	0.416315	0.367594
	O300	O	0.950237	-0.159795	1.062270
	H301	H	0.939869	-0.149810	1.073010
	H302	H	0.963045	-0.152686	1.066707
	O303	O	0.680252	0.477478	0.541347
	H304	H	0.678773	0.479882	0.540585
	H305	H	0.679857	0.469804	0.556629
	O306	O	-0.067417	0.199792	0.789010
	H307	H	-0.065847	0.214513	0.781686
	H308	H	-0.070949	0.203894	0.793303
	O309	O	0.815980	-0.077348	-0.035620
	H310	H	0.823717	-0.080809	-0.037427
	H311	H	0.813882	-0.076012	-0.056394
	O312	O	0.547364	0.414406	0.278768
	H313	H	0.542791	0.383541	0.275342
	H314	H	0.566197	0.404021	0.264175
	O315	O	0.296619	0.708863	0.479939
	H316	H	0.287830	0.711426	0.489983
	H317	H	0.279302	0.702281	0.488894
	O318	O	0.043498	-0.143447	-0.111601
	H319	H	0.047048	-0.158268	-0.128830
	H320	H	0.051183	-0.137225	-0.103094
	O321	O	0.692114	0.606754	0.479788
	H322	H	0.695436	0.595510	0.476355
	H323	H	0.695189	0.604275	0.460322
	O324	O	0.972119	-0.097169	1.183231
	H325	H	0.975451	-0.088051	1.169839
	H326	H	0.975663	-0.090157	1.188375
	O327	O	0.441297	0.298144	0.316829
	H328	H	0.462825	0.281999	0.294842
	H329	H	0.466522	0.311304	0.336981
	O330	O	-0.045821	1.070104	1.014819
	H331	H	-0.021255	1.082596	1.033627
	H332	H	-0.051132	1.060332	1.006623
	O333	O	-0.195203	1.195782	-0.144332
	H334	H	-0.198932	1.190460	-0.112922
	H335	H	-0.191663	1.215946	-0.154603
	O336	O	1.168061	1.146905	0.041586
	H337	H	1.147906	1.150692	0.032565
	H338	H	1.169607	1.143166	0.031421
	O339	O	-0.007287	1.198128	1.012004
	H340	H	0.004855	1.194898	1.013111
	H341	H	0.012584	1.194577	1.011969
	O342	O	0.317074	0.686575	0.315231
	H343	H	0.307025	0.667012	0.330675
	H344	H	0.305609	0.669193	0.339141
	O345	O	-0.001699	0.071448	0.912917
	H346	H	-0.027320	0.081636	0.915694
	H347	H	0.007368	0.071437	0.930253
	O348	O	0.370045	0.362070	0.408694
	H349	H	0.386581	0.367534	0.424245
	H350	H	0.375361	0.361985	0.398337
	O351	O	1.062831	1.079748	0.012214
	H352	H	1.055476	1.094334	-0.006736
	H353	H	1.052284	1.058632	0.003423
	O354	O	0.817170	0.951402	1.183843
	H355	H	0.815107	0.961252	1.179918
	H356	H	0.800901	0.949937	1.191268
	O357	O	0.066053	0.196540	0.037488
	H358	H	0.047868	0.195952	0.030516
	H359	H	0.062754	0.189158	0.028760
	O360	O	0.282555	0.562263	0.554554
	H361	H	0.296921	0.542967	0.556843
	H362	H	0.289797	0.559797	0.563916
	O363	O	0.477371	-0.379522	-0.449244
	H364	H	0.477444	-0.388637	-0.472429
	H365	H	0.472118	-0.371886	-0.477470
	O366	O	-0.009087	-0.145953	0.951041
	H367	H	-0.003294	-0.154098	0.971611
	H368	H	-0.010818	-0.161373	0.934428
	O369	O	0.968229	0.035788	1.147408
	H370	H	0.975235	0.013021	1.147377
	H371	H	0.972302	0.035111	1.133930
	O372	O	0.489845	0.498499	0.702472
	H373	H	0.496583	0.479536	0.702062
	H374	H	0.515683	0.518481	0.709910
	O375	O	0.709679	0.526757	1.713291
	H376	H	0.744019	0.528778	1.741745
	H377	H	0.701244	0.564682	1.705126
	O378	O	0.620316	0.322335	0.594866
	H379	H	0.596422	0.328454	0.596034
	H380	H	0.599296	0.332786	0.590418
	O381	O	-0.108651	0.998924	-0.014071
	H382	H	-0.113995	0.995024	-0.036214
	H383	H	-0.112224	1.006642	-0.021369
	O384	O	0.474976	0.722028	0.270434
	H385	H	0.450017	0.738991	0.256014
	H386	H	0.440352	0.730932	0.264204
	O387	O	0.550975	0.350598	0.486342
	H388	H	0.558801	0.349738	0.483690
	H389	H	0.559298	0.363784	0.492962
	O390	O	0.568696	0.620111	0.335469
	H391	H	0.544879	0.638613	0.318156
	H392	H	0.592184	0.604176	0.324386
	O393	O	0.783675	0.024595	0.779086
	H394	H	0.766929	0.036861	0.757202
	H395	H	0.778093	0.054813	0.776761
	O396	O	0.495230	0.294771	0.481392
	H397	H	0.476105	0.284048	0.486078
	H398	H	0.505797	0.295930	0.471419
	O399	O	1.163134	1.027275	0.206901
	H400	H	1.158797	1.048511	0.205984
	H401	H	1.181635	1.048449	0.220253
	O402	O	1.101090	0.884540	-0.113315
	H403	H	1.098133	0.884655	-0.109617
	H404	H	1.104941	0.860262	-0.101468
	O405	O	0.510279	0.709626	0.707911
	H406	H	0.511096	0.746868	0.728796
	H407	H	0.493766	0.705677	0.674661
	O408	O	0.290339	0.525229	0.290239
	H409	H	0.285053	0.524716	0.280522
	H410	H	0.285782	0.503604	0.296467
	O411	O	1.049096	1.181750	1.117776
	H412	H	1.056918	1.190952	1.142973
	H413	H	1.061583	1.174588	1.112749
	O414	O	0.626268	0.523512	0.362166
	H415	H	0.622531	0.522104	0.359207
	H416	H	0.641714	0.519088	0.349832
	O417	O	0.062858	0.864454	1.061855
	H418	H	0.064465	0.854400	1.068643
	H419	H	0.054686	0.862518	1.074126
	O420	O	0.096322	0.997462	0.926748
	H421	H	0.096977	0.996893	0.934516
	H422	H	0.094841	1.003422	0.933434
	O423	O	-0.156156	0.902764	0.014605
	H424	H	-0.152451	0.904395	-0.002600
	H425	H	-0.146135	0.900697	0.002471
	O426	O	0.281801	0.452049	0.707986
	H427	H	0.302520	0.468009	0.722224
	H428	H	0.269055	0.469028	0.728369
	O429	O	0.679560	0.686348	0.684563
	H430	H	0.642980	0.698091	0.676602
	H431	H	0.677557	0.685170	0.648070
	O432	O	0.677008	0.332480	0.344201
	H433	H	0.689994	0.333787	0.358581
	H434	H	0.662796	0.334085	0.356613
	O435	O	0.350351	-0.689859	0.656773
	H436	H	0.356998	-0.689006	0.623928
	H437	H	0.331891	-0.650906	0.658032
	O438	O	-0.013723	0.867236	1.152978
	H439	H	-0.036356	0.855638	1.161025
	H440	H	-0.023343	0.865600	1.136836
	O441	O	0.450405	0.588880	0.514692
	H442	H	0.454504	0.595371	0.512153
	H443	H	0.462862	0.581516	0.511636
