data_Molecule from HDF5

_cell_length_a		16.203851
_cell_length_b		16.201712
_cell_length_c		16.243448
_cell_angle_alpha	89.444733
_cell_angle_beta	90.277882
_cell_angle_gamma	89.523583
_symmetry_space_group_name_H-M	'P 1'
_symmetry_Int_Tables_number		1

loop_
	_symmetry_equiv_pos_as_xyz
	x,y,z

loop_
	_atom_site_label
	_atom_site_type_symbol
	_atom_site_fract_x
	_atom_site_fract_y
	_atom_site_fract_z
	H0	H	0.411169	0.834202	0.711941
	H1	H	0.604764	0.163502	0.710112
	H2	H	0.604754	0.833857	0.285871
	H3	H	0.403055	0.162303	0.279147
	H4	H	0.721054	0.400681	0.832150
	H5	H	0.718765	0.594225	0.160388
	H6	H	0.289032	0.599687	0.832501
	H7	H	0.293313	0.399323	0.160906
	H8	H	0.842201	0.715706	0.395073
	H9	H	0.171152	0.706966	0.592893
	H10	H	0.841747	0.284183	0.595404
	H11	H	0.171000	0.284235	0.399937
	H12	H	0.841297	0.399818	0.711179
	H13	H	0.169643	0.593818	0.710902
	H14	H	0.841251	0.600316	0.281111
	H15	H	0.169833	0.399457	0.283833
	H16	H	0.403138	0.717249	0.832475
	H17	H	0.603022	0.708808	0.161394
	H18	H	0.604748	0.285072	0.831621
	H19	H	0.409199	0.282651	0.160026
	H20	H	0.720569	0.834803	0.400250
	H21	H	0.719253	0.163722	0.593066
	H22	H	0.294975	0.833124	0.595778
	H23	H	0.289967	0.162503	0.395841
	H24	H	0.908219	0.334980	0.212839
	H25	H	0.102558	0.663785	0.208139
	H26	H	0.105084	0.334235	0.785859
	H27	H	0.904574	0.662274	0.779376
	H28	H	0.221335	0.900843	0.332166
	H29	H	0.219279	0.093503	0.659651
	H30	H	0.789744	0.100262	0.332018
	H31	H	0.794043	0.899033	0.660147
	H32	H	0.341779	0.215377	0.894813
	H33	H	0.670785	0.209099	0.094363
	H34	H	0.340171	0.785295	0.094983
	H35	H	0.670387	0.784605	0.901588
	H36	H	0.341350	0.898796	0.212921
	H37	H	0.670314	0.094403	0.210496
	H38	H	0.342580	0.102288	0.777998
	H39	H	0.670846	0.899468	0.786117
	H40	H	0.904944	0.216106	0.332642
	H41	H	0.104349	0.208329	0.661113
	H42	H	0.104648	0.786432	0.331114
	H43	H	0.910312	0.783096	0.659643
	H44	H	0.221010	0.334724	0.899560
	H45	H	0.218143	0.664194	0.093780
	H46	H	0.793127	0.334667	0.097209
	H47	H	0.790406	0.663464	0.895707
	H48	H	0.421627	0.110849	0.581440
	H49	H	0.600650	0.878208	0.602940
	H50	H	0.605143	0.118570	0.403832
	H51	H	0.408364	0.880639	0.408942
	H52	H	0.600250	0.401789	0.112955
	H53	H	0.597267	0.597525	0.877700
	H54	H	0.403911	0.585007	0.113816
	H55	H	0.414420	0.413946	0.881420
	H56	H	0.124635	0.587540	0.396374
	H57	H	0.886450	0.596267	0.587004
	H58	H	0.121067	0.404244	0.585299
	H59	H	0.891192	0.410289	0.410661
	H60	H	0.123007	0.407927	0.596958
	H61	H	0.890438	0.589600	0.583310
	H62	H	0.125712	0.597330	0.400569
	H63	H	0.887676	0.412408	0.396321
	H64	H	0.421435	0.587537	0.109343
	H65	H	0.601122	0.589752	0.878225
	H66	H	0.600880	0.402573	0.113895
	H67	H	0.416012	0.401816	0.878388
	H68	H	0.593998	0.118106	0.394470
	H69	H	0.591605	0.885650	0.587529
	H70	H	0.401052	0.117865	0.581485
	H71	H	0.414405	0.878936	0.397627
	H72	H	0.912897	0.615480	0.085980
	H73	H	0.104794	0.382289	0.084649
	H74	H	0.096138	0.618992	0.892883
	H75	H	0.925028	0.385220	0.906553
	H76	H	0.105091	0.905640	0.613243
	H77	H	0.090096	0.096415	0.379893
	H78	H	0.903641	0.090348	0.616047
	H79	H	0.905423	0.903407	0.375141
	H80	H	0.626163	0.094252	0.900115
	H81	H	0.386950	0.090316	0.090758
	H82	H	0.623943	0.896615	0.089824
	H83	H	0.389158	0.913644	0.897816
	H84	H	0.620315	0.907996	0.087521
	H85	H	0.388005	0.095022	0.087236
	H86	H	0.622598	0.093147	0.907600
	H87	H	0.384828	0.901001	0.900958
	H88	H	0.916107	0.084362	0.610148
	H89	H	0.104123	0.097899	0.375348
	H90	H	0.096869	0.901160	0.612141
	H91	H	0.912178	0.916145	0.380622
	H92	H	0.089216	0.613856	0.906629
	H93	H	0.102700	0.379573	0.097930
	H94	H	0.907229	0.617000	0.086752
	H95	H	0.904807	0.381024	0.914829
	H96	H	0.412715	0.119043	0.599049
	H97	H	0.609744	0.879730	0.586670
	H98	H	0.591487	0.113256	0.407739
	H99	H	0.420301	0.883368	0.407226
	H100	H	0.599866	0.403111	0.113016
	H101	H	0.593222	0.590489	0.880263
	H102	H	0.411169	0.601023	0.117463
	H103	H	0.404115	0.407169	0.876977
	H104	H	0.121994	0.589056	0.407853
	H105	H	0.887920	0.589394	0.591505
	H106	H	0.125919	0.396994	0.592191
	H107	H	0.885873	0.399600	0.402089
	H108	H	0.911844	0.617763	0.091029
	H109	H	0.092261	0.383827	0.091482
	H110	H	0.104788	0.617436	0.906172
	H111	H	0.908956	0.376652	0.893910
	H112	H	0.103951	0.896719	0.615891
	H113	H	0.099339	0.084220	0.380559
	H114	H	0.916807	0.098662	0.614818
	H115	H	0.919994	0.902541	0.378955
	H116	H	0.622937	0.086571	0.902279
	H117	H	0.389862	0.089074	0.085723
	H118	H	0.623881	0.904421	0.099274
	H119	H	0.390403	0.909598	0.910766
	C120	C	0.385310	0.006948	0.617347
	C121	C	0.628536	0.990286	0.618847
	C122	C	0.626558	0.007796	0.374883
	C123	C	0.384241	0.989500	0.374882
	C124	C	0.628473	0.375578	0.004709
	C125	C	0.626119	0.619540	0.987657
	C126	C	0.382674	0.621200	0.004854
	C127	C	0.384231	0.377851	0.987506
	C128	C	0.014997	0.621161	0.373144
	C129	C	0.996906	0.618933	0.616601
	C130	C	0.014507	0.375569	0.619353
	C131	C	0.997269	0.378055	0.375706
	C132	C	0.883626	0.507699	0.117752
	C133	C	0.127279	0.490756	0.118220
	C134	C	0.126217	0.507822	0.875485
	C135	C	0.883257	0.489626	0.874839
	C136	C	0.129716	0.874989	0.504829
	C137	C	0.126711	0.119501	0.487413
	C138	C	0.883259	0.120949	0.505174
	C139	C	0.885159	0.877643	0.486821
	C140	C	0.515275	0.121343	0.873436
	C141	C	0.497261	0.118775	0.116833
	C142	C	0.513834	0.875420	0.119992
	C143	C	0.497095	0.878188	0.876041
	C144	C	0.389634	0.882959	0.673818
	C145	C	0.625342	0.114271	0.672420
	C146	C	0.624889	0.883323	0.322357
	C147	C	0.384090	0.113288	0.317826
	C148	C	0.683318	0.379542	0.881065
	C149	C	0.681208	0.615202	0.111419
	C150	C	0.326639	0.620440	0.881471
	C151	C	0.330619	0.379070	0.111612
	C152	C	0.891134	0.677510	0.374962
	C153	C	0.121435	0.671187	0.613911
	C154	C	0.890594	0.321866	0.615753
	C155	C	0.121484	0.322317	0.379372
	C156	C	0.890688	0.378992	0.673632
	C157	C	0.120630	0.614954	0.672743
	C158	C	0.890920	0.620341	0.317977
	C159	C	0.121022	0.379486	0.321625
	C160	C	0.383555	0.678533	0.881588
	C161	C	0.623616	0.672308	0.111826
	C162	C	0.625268	0.322305	0.880717
	C163	C	0.387877	0.321070	0.111144
	C164	C	0.682340	0.883807	0.379253
	C165	C	0.682020	0.114434	0.614087
	C166	C	0.332063	0.882729	0.616104
	C167	C	0.327705	0.113344	0.375767
	C168	C	0.887424	0.384013	0.174471
	C169	C	0.123628	0.614638	0.171573
	C170	C	0.125319	0.383584	0.822256
	C171	C	0.884384	0.613406	0.818020
	C172	C	0.184025	0.879716	0.381153
	C173	C	0.182284	0.114955	0.610638
	C174	C	0.827620	0.119946	0.381346
	C175	C	0.831422	0.878981	0.610919
	C176	C	0.391145	0.177583	0.874489
	C177	C	0.621276	0.172259	0.114675
	C178	C	0.389742	0.821889	0.116318
	C179	C	0.621187	0.822466	0.880412
	C180	C	0.390255	0.878571	0.174792
	C181	C	0.621064	0.115357	0.172736
	C182	C	0.391518	0.120916	0.817017
	C183	C	0.621214	0.879507	0.822796
	C184	C	0.884789	0.177668	0.381606
	C185	C	0.124662	0.172094	0.611477
	C186	C	0.126377	0.822625	0.380713
	C187	C	0.889191	0.821485	0.610731
	C188	C	0.182872	0.383872	0.878878
	C189	C	0.181095	0.614731	0.114483
	C190	C	0.830404	0.383806	0.116709
	C191	C	0.827795	0.613774	0.875698
	C192	C	0.405982	0.093583	0.594341
	C193	C	0.607107	0.903563	0.598204
	C194	C	0.603577	0.094318	0.395682
	C195	C	0.407467	0.903195	0.397975
	C196	C	0.606937	0.396428	0.090924
	C197	C	0.603782	0.598782	0.901185
	C198	C	0.405460	0.597986	0.091171
	C199	C	0.405344	0.400696	0.901331
	C200	C	0.101674	0.598147	0.395087
	C201	C	0.910430	0.597919	0.593882
	C202	C	0.101056	0.396778	0.597877
	C203	C	0.910554	0.400682	0.396869
	C204	C	0.904573	0.594364	0.094779
	C205	C	0.106170	0.404296	0.097484
	C206	C	0.103514	0.594397	0.895852
	C207	C	0.906386	0.403419	0.898074
	C208	C	0.108277	0.894948	0.591383
	C209	C	0.104351	0.099044	0.400865
	C210	C	0.905719	0.098017	0.591412
	C211	C	0.906352	0.900571	0.400717
	C212	C	0.601640	0.098175	0.896582
	C213	C	0.410497	0.097729	0.094471
	C214	C	0.600404	0.896731	0.098614
	C215	C	0.410527	0.901265	0.897076
	Zn216	Zn	0.506481	-0.000597	0.747112
	Zn217	Zn	0.505595	-0.001544	0.247058
	Zn218	Zn	0.755398	0.498709	-0.004219
	Zn219	Zn	0.255068	0.499406	-0.003533
	Zn220	Zn	0.006727	0.747862	0.494778
	Zn221	Zn	0.005725	0.248266	0.496569
	Zn222	Zn	0.004920	0.498197	0.747192
	Zn223	Zn	0.005785	0.499432	0.246550
	Zn224	Zn	0.504835	0.748599	-0.003603
	Zn225	Zn	0.505518	0.247904	-0.004591
	Zn226	Zn	0.755757	-0.000833	0.496088
	Zn227	Zn	0.256147	-0.002133	0.496197
	N228	N	0.421933	0.961327	0.674676
	N229	N	0.592736	0.036183	0.675411
	N230	N	0.591026	0.961516	0.319575
	N231	N	0.418777	0.035432	0.317143
	N232	N	0.685119	0.412116	0.958984
	N233	N	0.682708	0.583015	0.033327
	N234	N	0.326196	0.585523	0.959054
	N235	N	0.328161	0.413756	0.033952
	N236	N	0.969223	0.678189	0.408467
	N237	N	0.043564	0.673749	0.579491
	N238	N	0.968543	0.319549	0.582716
	N239	N	0.043367	0.321413	0.412431
	N240	N	0.968854	0.411692	0.675919
	N241	N	0.042311	0.583117	0.674402
	N242	N	0.968902	0.585569	0.317211
	N243	N	0.042939	0.413275	0.319083
	N244	N	0.417564	0.679230	0.959489
	N245	N	0.590061	0.675195	0.033812
	N246	N	0.592048	0.319461	0.958584
	N247	N	0.420541	0.320124	0.033011
	N248	N	0.683446	0.962214	0.411276
	N249	N	0.684493	0.036155	0.581953
	N250	N	0.329390	0.960758	0.581737
	N251	N	0.327500	0.035415	0.410356
	N252	N	0.919929	0.462232	0.175155
	N253	N	0.090948	0.536534	0.174319
	N254	N	0.090512	0.461372	0.820068
	N255	N	0.918066	0.535269	0.817305
	N256	N	0.186395	0.911276	0.459387
	N257	N	0.183611	0.082988	0.532394
	N258	N	0.826505	0.085470	0.459178
	N259	N	0.828824	0.913298	0.533185
	N260	N	0.468998	0.177762	0.909100
	N261	N	0.543239	0.174481	0.080695
	N262	N	0.467616	0.819790	0.082984
	N263	N	0.542963	0.821628	0.912924
	N264	N	0.468440	0.911293	0.176997
	N265	N	0.542885	0.082773	0.174134
	N266	N	0.469697	0.086777	0.816112
	N267	N	0.543029	0.913426	0.820007
	N268	N	0.918726	0.178455	0.459471
	N269	N	0.090871	0.175023	0.533675
	N270	N	0.093235	0.819328	0.458604
	N271	N	0.921929	0.820350	0.532556
	N272	N	0.183605	0.462158	0.911133
	N273	N	0.183460	0.536713	0.081921
	N274	N	0.828000	0.461695	0.082177
	N275	N	0.827005	0.535842	0.910591
	O276	O	1.042092	1.004523	-0.071593
	H277	H	1.049526	0.989746	-0.077085
	H278	H	1.039616	0.998441	-0.077829
	O279	O	-0.025015	-0.009413	0.899777
	H280	H	-0.023342	-0.001964	0.907336
	H281	H	-0.019786	-0.014296	0.906864
	O282	O	-0.000870	-0.051813	0.050307
	H283	H	-0.002831	-0.047591	0.052017
	H284	H	-0.001738	-0.044156	0.051934
	O285	O	0.437373	0.538450	0.430758
	H286	H	0.436799	0.533258	0.414920
	H287	H	0.442025	0.543331	0.423853
	O288	O	0.031269	0.026584	0.003525
	H289	H	0.038345	0.027518	0.007639
	H290	H	0.026238	0.019059	0.003058
	O291	O	-0.005794	0.958875	-0.033066
	H292	H	-0.004010	0.956133	-0.029908
	H293	H	-0.018955	0.959828	-0.031140
	O294	O	-0.059906	1.104506	-0.066933
	H295	H	-0.064760	1.109097	-0.065050
	H296	H	-0.055371	1.103576	-0.073558
	O297	O	0.532099	0.494984	0.508693
	H298	H	0.527997	0.487383	0.513976
	H299	H	0.529831	0.489991	0.501881
	O300	O	0.549940	0.551986	0.560329
	H301	H	0.542346	0.555454	0.567804
	H302	H	0.542906	0.550973	0.556891
	O303	O	0.944414	0.107247	0.928428
	H304	H	0.938210	0.108979	0.910157
	H305	H	0.935008	0.118128	0.921261
	O306	O	-0.071068	0.946181	1.049712
	H307	H	-0.073699	0.946217	1.053691
	H308	H	-0.078414	0.948367	1.048606
	O309	O	0.023215	1.012758	0.918907
	H310	H	0.011960	1.016797	0.906704
	H311	H	0.028713	1.016220	0.921715
	O312	O	-0.004398	-0.017203	0.953746
	H313	H	-0.010484	-0.014930	0.953181
	H314	H	-0.003793	-0.015198	0.955527
	O315	O	0.514741	0.505512	0.416695
	H316	H	0.513817	0.509123	0.407519
	H317	H	0.518999	0.501090	0.420321
	O318	O	0.013931	0.018813	1.035641
	H319	H	0.020709	0.016971	1.027868
	H320	H	0.014049	0.017271	1.034417
	O321	O	0.530334	0.529481	0.444541
	H322	H	0.544935	0.532327	0.440964
	H323	H	0.524545	0.528296	0.453247
	O324	O	0.804961	-0.217627	1.253863
	H325	H	0.799423	-0.211262	1.258494
	H326	H	0.807307	-0.211120	1.256466
	O327	O	0.980905	0.975415	1.004824
	H328	H	0.983706	0.975069	1.009073
	H329	H	0.982069	0.982411	1.013108
	O330	O	0.563678	0.435261	0.422927
	H331	H	0.560349	0.430205	0.416285
	H332	H	0.565824	0.432785	0.431815
	O333	O	0.491091	0.516181	0.455305
	H334	H	0.497630	0.526027	0.450729
	H335	H	0.486506	0.520155	0.442689
	O336	O	0.435552	0.547545	0.536769
	H337	H	0.431148	0.548955	0.537303
	H338	H	0.430748	0.560925	0.535036
	O339	O	0.448282	0.502249	0.547312
	H340	H	0.451812	0.500442	0.542247
	H341	H	0.444729	0.510596	0.543556
	O342	O	0.532426	0.397849	0.475491
	H343	H	0.524578	0.394393	0.492375
	H344	H	0.535095	0.391737	0.480347
	O345	O	0.447071	0.499706	0.425096
	H346	H	0.454527	0.503402	0.427985
	H347	H	0.452545	0.502118	0.416752
