data_Molecule from HDF5

_cell_length_a		16.576062
_cell_length_b		16.599497
_cell_length_c		16.581295
_cell_angle_alpha	90.235571
_cell_angle_beta	90.172727
_cell_angle_gamma	90.082148
_symmetry_space_group_name_H-M	'P 1'
_symmetry_Int_Tables_number		1

loop_
	_symmetry_equiv_pos_as_xyz
	x,y,z

loop_
	_atom_site_label
	_atom_site_type_symbol
	_atom_site_fract_x
	_atom_site_fract_y
	_atom_site_fract_z
	H0	H	0.397062	0.841018	0.718146
	H1	H	0.607089	0.152553	0.717849
	H2	H	0.608699	0.841986	0.270907
	H3	H	0.388597	0.146718	0.268895
	H4	H	0.723650	0.390582	0.841083
	H5	H	0.726575	0.606084	0.150863
	H6	H	0.277859	0.603336	0.841884
	H7	H	0.276123	0.387607	0.149182
	H8	H	0.845849	0.717313	0.390560
	H9	H	0.156125	0.720218	0.604552
	H10	H	0.845669	0.274726	0.600966
	H11	H	0.156260	0.273277	0.389314
	H12	H	0.845777	0.392466	0.716990
	H13	H	0.157872	0.602284	0.717723
	H14	H	0.846523	0.602184	0.272743
	H15	H	0.156633	0.389602	0.273455
	H16	H	0.397224	0.716714	0.840146
	H17	H	0.611434	0.722086	0.151187
	H18	H	0.608816	0.273209	0.841604
	H19	H	0.391530	0.271371	0.148463
	H20	H	0.724280	0.841281	0.387766
	H21	H	0.721873	0.153255	0.598995
	H22	H	0.276964	0.842706	0.604386
	H23	H	0.274327	0.148547	0.386965
	H24	H	0.898669	0.339972	0.214747
	H25	H	0.107817	0.652511	0.218331
	H26	H	0.104554	0.339929	0.776266
	H27	H	0.897517	0.653797	0.776354
	H28	H	0.226372	0.885498	0.343247
	H29	H	0.222938	0.102070	0.652680
	H30	H	0.779231	0.099727	0.340689
	H31	H	0.782239	0.893556	0.653868
	H32	H	0.345341	0.217329	0.890394
	H33	H	0.654551	0.220901	0.105417
	H34	H	0.346103	0.773729	0.100602
	H35	H	0.658993	0.776149	0.892584
	H36	H	0.346003	0.887470	0.219005
	H37	H	0.653944	0.106016	0.222118
	H38	H	0.344617	0.098984	0.776095
	H39	H	0.660470	0.894606	0.779647
	H40	H	0.894411	0.217529	0.341316
	H41	H	0.107420	0.218650	0.652432
	H42	H	0.108146	0.772035	0.341953
	H43	H	0.896090	0.775755	0.652926
	H44	H	0.222622	0.341143	0.890401
	H45	H	0.222489	0.653151	0.100922
	H46	H	0.780418	0.341621	0.100031
	H47	H	0.781011	0.653762	0.892114
	H48	H	0.411386	0.107702	0.583380
	H49	H	0.591614	0.883319	0.589431
	H50	H	0.588730	0.107712	0.407297
	H51	H	0.415938	0.888798	0.417364
	H52	H	0.590474	0.410021	0.108021
	H53	H	0.593895	0.587035	0.883519
	H54	H	0.413971	0.586916	0.108636
	H55	H	0.417567	0.409678	0.885583
	H56	H	0.112991	0.581689	0.406373
	H57	H	0.889896	0.584392	0.585415
	H58	H	0.111068	0.407962	0.577555
	H59	H	0.886974	0.406347	0.400035
	H60	H	0.112358	0.414656	0.589714
	H61	H	0.889093	0.586288	0.586176
	H62	H	0.113995	0.587282	0.408960
	H63	H	0.889293	0.401263	0.410134
	H64	H	0.412357	0.585612	0.108031
	H65	H	0.590125	0.581631	0.886295
	H66	H	0.589083	0.411272	0.106510
	H67	H	0.412961	0.405515	0.883954
	H68	H	0.584996	0.105047	0.410485
	H69	H	0.591490	0.884375	0.586281
	H70	H	0.412851	0.109417	0.588069
	H71	H	0.409630	0.882567	0.408339
	H72	H	0.914836	0.607579	0.083319
	H73	H	0.089258	0.384515	0.085990
	H74	H	0.093333	0.607544	0.911724
	H75	H	0.909198	0.383084	0.902622
	H76	H	0.088720	0.910072	0.607419
	H77	H	0.088567	0.083022	0.385249
	H78	H	0.907377	0.079299	0.607991
	H79	H	0.912575	0.907707	0.385065
	H80	H	0.614797	0.086886	0.905660
	H81	H	0.393139	0.083484	0.072369
	H82	H	0.612782	0.912976	0.087950
	H83	H	0.388573	0.906704	0.901983
	H84	H	0.613727	0.905603	0.081898
	H85	H	0.390629	0.074225	0.086734
	H86	H	0.614287	0.088272	0.909152
	H87	H	0.388416	0.902281	0.907375
	H88	H	0.920357	0.085693	0.606494
	H89	H	0.087728	0.083988	0.385887
	H90	H	0.088193	0.909766	0.607226
	H91	H	0.912931	0.905827	0.385244
	H92	H	0.092895	0.611088	0.904583
	H93	H	0.090890	0.385841	0.082727
	H94	H	0.913192	0.609166	0.085309
	H95	H	0.916271	0.387149	0.905315
	H96	H	0.416413	0.107215	0.584669
	H97	H	0.594662	0.882499	0.587233
	H98	H	0.590277	0.105745	0.412541
	H99	H	0.421088	0.886759	0.405458
	H100	H	0.588263	0.408912	0.106968
	H101	H	0.587377	0.588259	0.885602
	H102	H	0.413957	0.586194	0.107919
	H103	H	0.411223	0.411132	0.885484
	H104	H	0.111347	0.582597	0.412155
	H105	H	0.889344	0.585971	0.583813
	H106	H	0.116560	0.401299	0.588193
	H107	H	0.891420	0.412666	0.408515
	H108	H	0.915681	0.608638	0.085982
	H109	H	0.092591	0.383986	0.085385
	H110	H	0.086224	0.607610	0.907796
	H111	H	0.909700	0.386323	0.910959
	H112	H	0.088320	0.909642	0.608430
	H113	H	0.088091	0.084902	0.384833
	H114	H	0.909461	0.093117	0.611799
	H115	H	0.911709	0.906646	0.384515
	H116	H	0.612792	0.084833	0.908187
	H117	H	0.385354	0.090686	0.086250
	H118	H	0.609086	0.913711	0.079159
	H119	H	0.391730	0.908122	0.907939
	C120	C	0.380791	0.004990	0.617923
	C121	C	0.623869	0.987426	0.618918
	C122	C	0.621842	0.004205	0.375711
	C123	C	0.379385	0.986924	0.375347
	C124	C	0.622209	0.376373	0.004566
	C125	C	0.623771	0.618956	0.987627
	C126	C	0.380875	0.618086	0.005048
	C127	C	0.380246	0.375545	0.987180
	C128	C	0.010174	0.616855	0.375649
	C129	C	0.992574	0.618106	0.618066
	C130	C	0.010106	0.375556	0.617420
	C131	C	0.992787	0.374642	0.374296
	C132	C	0.881911	0.505403	0.116853
	C133	C	0.123807	0.487852	0.117861
	C134	C	0.122731	0.505378	0.875203
	C135	C	0.880083	0.488966	0.874839
	C136	C	0.122401	0.874967	0.505549
	C137	C	0.121966	0.117409	0.488078
	C138	C	0.880090	0.117609	0.505316
	C139	C	0.879859	0.874779	0.488022
	C140	C	0.510336	0.117966	0.875271
	C141	C	0.491562	0.117473	0.117176
	C142	C	0.509593	0.876036	0.116337
	C143	C	0.493737	0.874748	0.874887
	C144	C	0.378370	0.887745	0.677998
	C145	C	0.625366	0.105887	0.677696
	C146	C	0.626024	0.888335	0.312394
	C147	C	0.372360	0.101651	0.311055
	C148	C	0.683288	0.372543	0.887800
	C149	C	0.685648	0.623108	0.104529
	C150	C	0.319153	0.620954	0.888192
	C151	C	0.317488	0.370615	0.102979
	C152	C	0.892756	0.677325	0.372312
	C153	C	0.109866	0.679203	0.621632
	C154	C	0.892433	0.315317	0.619672
	C155	C	0.109887	0.313910	0.371352
	C156	C	0.892650	0.373486	0.677287
	C157	C	0.110531	0.620654	0.678120
	C158	C	0.893114	0.619983	0.314000
	C159	C	0.110011	0.371633	0.313790
	C160	C	0.378367	0.677368	0.887381
	C161	C	0.628233	0.680796	0.104620
	C162	C	0.626199	0.314124	0.888174
	C163	C	0.374760	0.312877	0.102759
	C164	C	0.683526	0.887908	0.370731
	C165	C	0.682388	0.106047	0.619004
	C166	C	0.318962	0.888510	0.621507
	C167	C	0.315495	0.102160	0.369406
	C168	C	0.880095	0.387180	0.175247
	C169	C	0.125952	0.605516	0.178147
	C170	C	0.123651	0.387488	0.815346
	C171	C	0.878731	0.606761	0.815732
	C172	C	0.184719	0.869581	0.389417
	C173	C	0.182808	0.120387	0.605570
	C174	C	0.819478	0.118948	0.387533
	C175	C	0.821027	0.873824	0.606228
	C176	C	0.391908	0.177025	0.872638
	C177	C	0.607800	0.180063	0.122747
	C178	C	0.392789	0.813834	0.119271
	C179	C	0.611849	0.815684	0.873753
	C180	C	0.392754	0.870680	0.177978
	C181	C	0.607634	0.122901	0.180729
	C182	C	0.392005	0.118636	0.815488
	C183	C	0.612408	0.874492	0.817406
	C184	C	0.876455	0.177577	0.388060
	C185	C	0.125326	0.178366	0.605393
	C186	C	0.126289	0.812738	0.388713
	C187	C	0.878209	0.815750	0.605958
	C188	C	0.182223	0.387793	0.872399
	C189	C	0.183314	0.605762	0.119917
	C190	C	0.821149	0.388022	0.118539
	C191	C	0.821069	0.606773	0.873554
	C192	C	0.406180	0.086809	0.592602
	C193	C	0.599621	0.904880	0.594526
	C194	C	0.595524	0.085207	0.402538
	C195	C	0.407467	0.906960	0.402842
	C196	C	0.596452	0.402653	0.086125
	C197	C	0.597819	0.593022	0.906258
	C198	C	0.406256	0.593244	0.087047
	C199	C	0.406608	0.401668	0.906060
	C200	C	0.091618	0.591257	0.401728
	C201	C	0.910812	0.592741	0.592497
	C202	C	0.091936	0.400633	0.592204
	C203	C	0.910731	0.399623	0.398997
	C204	C	0.907377	0.587040	0.092235
	C205	C	0.098361	0.406066	0.092166
	C206	C	0.098021	0.587423	0.900696
	C207	C	0.904555	0.406840	0.899328
	C208	C	0.095996	0.901840	0.586328
	C209	C	0.095740	0.091274	0.406563
	C210	C	0.905381	0.093045	0.587327
	C211	C	0.905103	0.899636	0.406197
	C212	C	0.592459	0.093891	0.900492
	C213	C	0.410804	0.090545	0.089773
	C214	C	0.590730	0.903113	0.090457
	C215	C	0.411082	0.898611	0.898975
	Zn216	Zn	0.502220	-0.003530	0.747101
	Zn217	Zn	0.500117	-0.003870	0.246171
	Zn218	Zn	0.751679	0.497356	-0.003634
	Zn219	Zn	0.252234	0.496744	-0.003781
	Zn220	Zn	0.001156	0.746247	0.496855
	Zn221	Zn	0.001548	0.246674	0.495753
	Zn222	Zn	0.001459	0.497397	0.746372
	Zn223	Zn	0.002291	0.496460	0.246378
	Zn224	Zn	0.502707	0.746889	-0.003745
	Zn225	Zn	0.501125	0.246678	-0.003687
	Zn226	Zn	0.751658	-0.004007	0.496550
	Zn227	Zn	0.250929	-0.003906	0.496896
	N228	N	0.416209	0.961248	0.675828
	N229	N	0.590025	0.031034	0.677937
	N230	N	0.588113	0.961740	0.315346
	N231	N	0.411401	0.028960	0.314443
	N232	N	0.680925	0.410679	0.961357
	N233	N	0.682952	0.585191	0.030987
	N234	N	0.320596	0.584892	0.962457
	N235	N	0.320699	0.409075	0.029935
	N236	N	0.966600	0.675649	0.409870
	N237	N	0.035518	0.677736	0.584818
	N238	N	0.966658	0.316269	0.583229
	N239	N	0.035966	0.315696	0.408468
	N240	N	0.966876	0.410088	0.676124
	N241	N	0.036651	0.583372	0.676152
	N242	N	0.967120	0.583164	0.315836
	N243	N	0.036114	0.408662	0.315432
	N244	N	0.416224	0.675767	0.961118
	N245	N	0.590392	0.678502	0.030885
	N246	N	0.588874	0.316251	0.961966
	N247	N	0.413288	0.316082	0.029837
	N248	N	0.680851	0.960876	0.409655
	N249	N	0.681755	0.031308	0.583167
	N250	N	0.320349	0.962516	0.584949
	N251	N	0.319665	0.029758	0.408597
	N252	N	0.916871	0.461316	0.174590
	N253	N	0.089821	0.531094	0.177205
	N254	N	0.087678	0.461798	0.816704
	N255	N	0.914635	0.532336	0.816212
	N256	N	0.182382	0.907683	0.463051
	N257	N	0.181152	0.083301	0.531424
	N258	N	0.821409	0.082532	0.461582
	N259	N	0.821474	0.909506	0.531690
	N260	N	0.466580	0.177071	0.908777
	N261	N	0.534636	0.176948	0.084071
	N262	N	0.466559	0.816972	0.081911
	N263	N	0.536738	0.815339	0.908337
	N264	N	0.466287	0.908805	0.176244
	N265	N	0.534171	0.084648	0.177716
	N266	N	0.466627	0.083071	0.816658
	N267	N	0.537692	0.910258	0.817625
	N268	N	0.913248	0.176985	0.462334
	N269	N	0.088492	0.176822	0.531214
	N270	N	0.088174	0.815796	0.461995
	N271	N	0.914010	0.815987	0.531310
	N272	N	0.182034	0.462152	0.908718
	N273	N	0.182184	0.531455	0.083198
	N274	N	0.821847	0.462636	0.083182
	N275	N	0.821653	0.532402	0.909437
	O276	O	0.101729	0.954904	-0.054080
	H277	H	0.088246	0.952569	-0.053893
	H278	H	0.099092	0.938539	-0.058815
	O279	O	0.363962	0.482514	0.521573
	H280	H	0.362328	0.484571	0.524049
	H281	H	0.359027	0.471963	0.508788
	O282	O	1.105174	0.187533	0.882308
	H283	H	1.104494	0.161267	0.872153
	H284	H	1.124552	0.199401	0.887857
	O285	O	0.548458	0.369188	0.658980
	H286	H	0.538955	0.379764	0.645046
	H287	H	0.548140	0.361659	0.661480
	O288	O	0.448706	0.723147	0.528807
	H289	H	0.436496	0.713125	0.514080
	H290	H	0.456955	0.727599	0.518383
	O291	O	0.278829	0.270957	0.523668
	H292	H	0.295839	0.285716	0.536364
	H293	H	0.241373	0.234031	0.530385
	O294	O	0.825019	0.201075	0.994575
	H295	H	0.819836	0.191940	0.970401
	H296	H	0.819745	0.214874	0.973822
	O297	O	0.450212	0.707520	0.291624
	H298	H	0.448923	0.708067	0.276610
	H299	H	0.454608	0.695575	0.273605
	O300	O	-0.039679	0.210989	0.782086
	H301	H	-0.032945	0.228620	0.762526
	H302	H	-0.011570	0.199107	0.783710
	O303	O	0.673195	0.707578	0.532552
	H304	H	0.677369	0.725381	0.535511
	H305	H	0.665179	0.701648	0.523538
	O306	O	0.720459	0.427986	0.463468
	H307	H	0.733692	0.425970	0.463382
	H308	H	0.714554	0.431460	0.458836
	O309	O	0.428029	0.557812	0.716456
	H310	H	0.431973	0.548804	0.717009
	H311	H	0.434291	0.546748	0.710061
	O312	O	0.535719	0.717206	0.718639
	H313	H	0.540661	0.726177	0.727881
	H314	H	0.520214	0.727426	0.727367
	O315	O	0.988543	0.951973	1.002157
	H316	H	0.977227	0.952414	0.988649
	H317	H	0.983449	0.940678	1.004326
	O318	O	0.355988	0.443328	0.452242
	H319	H	0.354745	0.430748	0.444975
	H320	H	0.358082	0.445419	0.464932
	O321	O	0.207942	0.795957	0.788668
	H322	H	0.239116	0.761909	0.767498
	H323	H	0.207985	0.786790	0.831629
	O324	O	0.974061	0.778704	0.215708
	H325	H	0.948103	0.778808	0.206113
	H326	H	0.973951	0.756128	0.243148
	O327	O	0.023577	0.202792	1.212384
	H328	H	0.026865	0.221097	1.210033
	H329	H	0.027762	0.211380	1.197802
	O330	O	0.544142	0.437328	0.332569
	H331	H	0.545161	0.439049	0.326152
	H332	H	0.543424	0.434340	0.334337
	O333	O	0.465758	0.277376	0.719186
	H334	H	0.479887	0.256560	0.737839
	H335	H	0.484277	0.279344	0.705832
	O336	O	0.710925	0.292715	0.287976
	H337	H	0.727769	0.264522	0.261188
	H338	H	0.695385	0.284070	0.318385
	O339	O	0.791742	0.027436	0.862123
	H340	H	0.788350	0.044801	0.852967
	H341	H	0.776593	0.026410	0.851455
	O342	O	0.001527	0.119578	0.120343
	H343	H	-0.004893	0.141813	0.104087
	H344	H	-0.018798	0.105429	0.113976
	O345	O	0.086436	0.917899	1.203524
	H346	H	0.097818	0.907909	1.204489
	H347	H	0.076628	0.910812	1.214953
	O348	O	0.285361	0.247470	0.277545
	H349	H	0.296871	0.244554	0.276241
	H350	H	0.265536	0.224223	0.255165
	O351	O	0.692121	0.664709	0.327690
	H352	H	0.678714	0.651401	0.333688
	H353	H	0.678271	0.646423	0.330537
	O354	O	0.031368	0.158534	0.981311
	H355	H	0.016191	0.155037	0.974384
	H356	H	0.024169	0.156018	0.969063
	O357	O	0.661672	0.532410	0.458302
	H358	H	0.652994	0.530971	0.443030
	H359	H	0.674222	0.543374	0.448490
	O360	O	0.300323	0.289439	0.702623
	H361	H	0.334208	0.294732	0.692303
	H362	H	0.312464	0.307965	0.693512
	O363	O	-0.160671	-0.005387	0.147147
	H364	H	-0.146010	-0.000540	0.161301
	H365	H	-0.158569	0.002870	0.138414
	O366	O	0.653109	0.456618	0.558445
	H367	H	0.657313	0.479432	0.572351
	H368	H	0.649197	0.464979	0.537750
	O369	O	0.809456	0.185655	0.186163
	H370	H	0.830769	0.180866	0.180275
	H371	H	0.815576	0.166648	0.157178
	O372	O	0.829927	0.816172	-0.172113
	H373	H	0.840488	0.829067	-0.161759
	H374	H	0.817878	0.817466	-0.193602
	O375	O	0.779134	0.057097	0.071421
	H376	H	0.772998	0.054393	0.074599
	H377	H	0.772578	0.040480	0.066893
	O378	O	0.535048	0.441082	0.361583
	H379	H	0.530035	0.434917	0.373837
	H380	H	0.516746	0.443919	0.369815
	O381	O	-0.037918	0.913586	0.816473
	H382	H	-0.018859	0.908498	0.802928
	H383	H	-0.046544	0.919734	0.803756
	O384	O	0.796562	0.202716	0.799222
	H385	H	0.830546	0.196936	0.797823
	H386	H	0.786094	0.230103	0.771310
	O387	O	1.053356	0.969338	0.020356
	H388	H	1.034823	0.959447	0.014675
	H389	H	1.055112	0.967556	0.002046
	O390	O	0.519328	0.271684	0.275716
	H391	H	0.520599	0.284274	0.296183
	H392	H	0.528381	0.241350	0.244767
	O393	O	0.574050	0.690777	0.457490
	H394	H	0.564221	0.672630	0.451863
	H395	H	0.569968	0.700817	0.442407
	O396	O	0.176240	0.984265	0.955695
	H397	H	0.168961	0.987449	0.964915
	H398	H	0.171793	0.972185	0.938074
	O399	O	0.028694	0.038994	0.781540
	H400	H	0.034383	0.024190	0.776796
	H401	H	0.039021	0.033118	0.781014
	O402	O	0.372321	0.564042	0.500271
	H403	H	0.357570	0.586974	0.490181
	H404	H	0.366763	0.549003	0.482927
	O405	O	0.912973	0.016019	1.188737
	H406	H	0.930071	0.004981	1.191261
	H407	H	0.920321	0.028039	1.185386
	O408	O	0.196929	0.176189	0.031107
	H409	H	0.198489	0.161071	0.025487
	H410	H	0.183832	0.189015	0.023500
	O411	O	0.704275	0.700190	0.699765
	H412	H	0.717412	0.699446	0.674276
	H413	H	0.668886	0.703759	0.692129
	O414	O	0.622483	0.279939	0.542788
	H415	H	0.628614	0.291022	0.524555
	H416	H	0.635975	0.267481	0.530029
	O417	O	0.364200	0.504130	0.545921
	H418	H	0.358561	0.504071	0.550405
	H419	H	0.368807	0.506133	0.545694
	O420	O	0.311291	0.686206	0.686538
	H421	H	0.326812	0.669378	0.666605
	H422	H	0.328591	0.666572	0.669568
	O423	O	-0.006223	0.059964	0.850916
	H424	H	-0.013379	0.061241	0.828094
	H425	H	0.003828	0.062810	0.853403
	O426	O	0.281055	0.716797	0.478515
	H427	H	0.274772	0.725178	0.451274
	H428	H	0.275375	0.735913	0.461808
	O429	O	0.923594	0.830557	0.999878
	H430	H	0.918559	0.824352	0.998811
	H431	H	0.907415	0.834782	1.011252
	O432	O	0.597757	0.553225	0.471572
	H433	H	0.608924	0.555198	0.473272
	H434	H	0.593207	0.566209	0.479741
	O435	O	0.211622	0.791356	-0.040063
	H436	H	0.209858	0.778615	-0.025052
	H437	H	0.215977	0.799344	-0.015462
	O438	O	0.215830	-0.003567	0.189486
	H439	H	0.218184	0.009799	0.185665
	H440	H	0.236514	0.010142	0.191949
	O441	O	0.181258	0.175567	0.170613
	H442	H	0.151893	0.172649	0.160305
	H443	H	0.182909	0.148675	0.148513
	O444	O	0.321088	0.343616	0.363307
	H445	H	0.302772	0.311737	0.365977
	H446	H	0.313489	0.339950	0.356604
	O447	O	0.042593	0.834382	0.780735
	H448	H	0.050667	0.809970	0.759469
	H449	H	0.063847	0.836157	0.784238
	O450	O	0.149774	0.811410	1.124382
	H451	H	0.137517	0.829869	1.119000
	H452	H	0.128560	0.815344	1.122603
	O453	O	0.300094	0.457250	0.708539
	H454	H	0.292600	0.440811	0.725231
	H455	H	0.296485	0.470108	0.713163
	O456	O	0.208569	0.015899	0.786574
	H457	H	0.206404	-0.026216	0.787156
	H458	H	0.236618	0.013592	0.756729
	O459	O	0.801691	0.795286	0.198492
	H460	H	0.804506	0.818658	0.201888
	H461	H	0.781316	0.783793	0.203783
	O462	O	0.724702	0.469507	0.270629
	H463	H	0.741966	0.444182	0.252145
	H464	H	0.730213	0.443895	0.265146
	O465	O	0.833773	-0.100326	-0.016867
	H466	H	0.824256	-0.098416	-0.028032
	H467	H	0.841226	-0.095581	-0.031093
	O468	O	0.299358	0.515916	0.272323
	H469	H	0.304353	0.502715	0.298241
	H470	H	0.266859	0.516589	0.247630
	O471	O	0.538256	0.479910	0.666205
	H472	H	0.549601	0.489841	0.676217
	H473	H	0.548884	0.474878	0.662566
	O474	O	0.302025	0.681479	0.296444
	H475	H	0.302594	0.654275	0.280759
	H476	H	0.315999	0.681402	0.293641
	O477	O	0.551810	0.569814	1.265306
	H478	H	0.567049	0.557857	1.250418
	H479	H	0.533045	0.537584	1.267856
	O480	O	0.478212	0.265732	0.444153
	H481	H	0.466050	0.277113	0.444418
	H482	H	0.468960	0.277032	0.436036
	O483	O	0.718541	0.526228	0.712219
	H484	H	0.729608	0.542883	0.726108
	H485	H	0.722522	0.543724	0.715790
	O486	O	0.698596	0.298090	0.691207
	H487	H	0.688199	0.317342	0.676477
	H488	H	0.689481	0.304907	0.683264
	O489	O	0.867283	0.797862	0.002384
	H490	H	0.864466	0.795411	-0.001510
	H491	H	0.859402	0.797576	0.014427
