data_Molecule from HDF5

_cell_length_a		16.183728
_cell_length_b		16.148800
_cell_length_c		16.498906
_cell_angle_alpha	90.023760
_cell_angle_beta	90.299814
_cell_angle_gamma	89.877074
_symmetry_space_group_name_H-M	'P 1'
_symmetry_Int_Tables_number		1

loop_
	_symmetry_equiv_pos_as_xyz
	x,y,z

loop_
	_atom_site_label
	_atom_site_type_symbol
	_atom_site_fract_x
	_atom_site_fract_y
	_atom_site_fract_z
	H0	H	0.391525	0.831682	0.714772
	H1	H	0.602203	0.156041	0.715457
	H2	H	0.603725	0.833454	0.276149
	H3	H	0.392913	0.157214	0.278167
	H4	H	0.715373	0.388924	0.835452
	H5	H	0.717004	0.596777	0.154649
	H6	H	0.277747	0.594658	0.833672
	H7	H	0.280136	0.394017	0.155908
	H8	H	0.834110	0.709829	0.395251
	H9	H	0.162696	0.706539	0.593208
	H10	H	0.833813	0.279542	0.594225
	H11	H	0.161788	0.281186	0.400033
	H12	H	0.836938	0.385968	0.716103
	H13	H	0.158770	0.599229	0.716037
	H14	H	0.835813	0.599571	0.274165
	H15	H	0.160644	0.390305	0.279147
	H16	H	0.391189	0.714017	0.834960
	H17	H	0.597765	0.710771	0.155917
	H18	H	0.596580	0.274248	0.835136
	H19	H	0.396745	0.277973	0.156251
	H20	H	0.713424	0.830695	0.396188
	H21	H	0.712443	0.158340	0.596443
	H22	H	0.283740	0.829604	0.593484
	H23	H	0.282246	0.158065	0.396391
	H24	H	0.893931	0.332332	0.213504
	H25	H	0.103057	0.655644	0.214319
	H26	H	0.103769	0.332838	0.775790
	H27	H	0.891685	0.655889	0.775384
	H28	H	0.213886	0.894034	0.334759
	H29	H	0.215122	0.093879	0.656932
	H30	H	0.777372	0.098321	0.335610
	H31	H	0.781331	0.892533	0.655562
	H32	H	0.331443	0.207740	0.897448
	H33	H	0.659779	0.210192	0.095291
	H34	H	0.331399	0.781982	0.092113
	H35	H	0.659564	0.776468	0.895395
	H36	H	0.334698	0.890708	0.215059
	H37	H	0.659106	0.099008	0.215650
	H38	H	0.334149	0.098510	0.774620
	H39	H	0.657936	0.887402	0.776154
	H40	H	0.896699	0.211573	0.334215
	H41	H	0.100153	0.212701	0.656233
	H42	H	0.099814	0.775868	0.335149
	H43	H	0.898118	0.777173	0.655927
	H44	H	0.208790	0.329672	0.898522
	H45	H	0.210448	0.658423	0.093773
	H46	H	0.782682	0.329834	0.093661
	H47	H	0.778628	0.656819	0.892568
	H48	H	0.411395	0.108169	0.582906
	H49	H	0.583122	0.879446	0.586516
	H50	H	0.585179	0.108801	0.408370
	H51	H	0.414435	0.879553	0.403594
	H52	H	0.589545	0.402297	0.109384
	H53	H	0.596210	0.585609	0.878105
	H54	H	0.406902	0.591192	0.108528
	H55	H	0.401118	0.394607	0.878015
	H56	H	0.114622	0.582783	0.400143
	H57	H	0.881406	0.584919	0.583524
	H58	H	0.117192	0.402826	0.596315
	H59	H	0.879822	0.399858	0.400998
	H60	H	0.112700	0.400302	0.579586
	H61	H	0.882078	0.581480	0.586212
	H62	H	0.114501	0.586948	0.404279
	H63	H	0.882483	0.407081	0.405431
	H64	H	0.399227	0.587831	0.110342
	H65	H	0.583521	0.575310	0.884902
	H66	H	0.589236	0.404284	0.108121
	H67	H	0.397228	0.405910	0.880180
	H68	H	0.590129	0.112425	0.404385
	H69	H	0.591641	0.877442	0.583504
	H70	H	0.404571	0.111375	0.585935
	H71	H	0.403500	0.877643	0.409089
	H72	H	0.915506	0.606914	0.082365
	H73	H	0.091040	0.376575	0.085635
	H74	H	0.076385	0.608595	0.904225
	H75	H	0.912469	0.379685	0.905097
	H76	H	0.085043	0.904925	0.607230
	H77	H	0.090563	0.089889	0.380813
	H78	H	0.911065	0.089663	0.609774
	H79	H	0.898197	0.904689	0.379468
	H80	H	0.610420	0.079273	0.906457
	H81	H	0.378887	0.088802	0.086604
	H82	H	0.614527	0.901492	0.091537
	H83	H	0.380267	0.904942	0.903812
	H84	H	0.611841	0.902040	0.083458
	H85	H	0.382466	0.080143	0.086566
	H86	H	0.612784	0.082434	0.900536
	H87	H	0.381580	0.907383	0.903249
	H88	H	0.902525	0.089593	0.611917
	H89	H	0.091510	0.086220	0.381154
	H90	H	0.091336	0.894838	0.612435
	H91	H	0.910041	0.908867	0.384592
	H92	H	0.092344	0.611199	0.911195
	H93	H	0.089620	0.375214	0.092075
	H94	H	0.901496	0.611185	0.080206
	H95	H	0.905723	0.377399	0.906681
	H96	H	0.411298	0.109790	0.590113
	H97	H	0.589284	0.876203	0.591759
	H98	H	0.583731	0.111378	0.401860
	H99	H	0.405546	0.875113	0.396675
	H100	H	0.587236	0.403357	0.108710
	H101	H	0.580090	0.591826	0.880850
	H102	H	0.405113	0.582696	0.106865
	H103	H	0.408561	0.402789	0.882762
	H104	H	0.112977	0.581222	0.405340
	H105	H	0.881072	0.585001	0.588118
	H106	H	0.110124	0.415728	0.586986
	H107	H	0.880191	0.407818	0.397273
	H108	H	0.907690	0.613010	0.093146
	H109	H	0.084307	0.377999	0.088167
	H110	H	0.088797	0.614987	0.895512
	H111	H	0.908484	0.376772	0.899555
	H112	H	0.097307	0.906057	0.611155
	H113	H	0.087473	0.087537	0.381682
	H114	H	0.905938	0.082100	0.607498
	H115	H	0.908774	0.896232	0.379969
	H116	H	0.612687	0.086220	0.906398
	H117	H	0.378683	0.084223	0.094167
	H118	H	0.611392	0.909973	0.088436
	H119	H	0.379898	0.905944	0.901390
	C120	C	0.377351	0.002061	0.616216
	C121	C	0.618963	0.985339	0.617921
	C122	C	0.618313	0.003313	0.374615
	C123	C	0.376633	0.985579	0.373839
	C124	C	0.619165	0.370977	0.003742
	C125	C	0.618080	0.615649	0.986638
	C126	C	0.372937	0.617041	0.002884
	C127	C	0.373518	0.371654	0.986787
	C128	C	0.006849	0.615562	0.372516
	C129	C	0.989225	0.614486	0.615956
	C130	C	0.006195	0.373852	0.617169
	C131	C	0.989014	0.374131	0.373139
	C132	C	0.877149	0.502573	0.115480
	C133	C	0.119095	0.484588	0.117606
	C134	C	0.116675	0.503373	0.874418
	C135	C	0.876290	0.485328	0.873270
	C136	C	0.120716	0.871966	0.504199
	C137	C	0.120500	0.117089	0.487351
	C138	C	0.875128	0.117818	0.503920
	C139	C	0.876594	0.872940	0.487166
	C140	C	0.504320	0.114435	0.873825
	C141	C	0.487896	0.115540	0.118424
	C142	C	0.504738	0.874283	0.117155
	C143	C	0.487911	0.873157	0.873246
	C144	C	0.374870	0.880110	0.674459
	C145	C	0.620258	0.107600	0.676118
	C146	C	0.620723	0.881561	0.316293
	C147	C	0.374963	0.108288	0.317055
	C148	C	0.676393	0.370069	0.883285
	C149	C	0.677351	0.615827	0.106835
	C150	C	0.315781	0.615247	0.881990
	C151	C	0.318073	0.373721	0.107680
	C152	C	0.883418	0.672387	0.374034
	C153	C	0.112825	0.669969	0.614331
	C154	C	0.883323	0.316741	0.614985
	C155	C	0.112625	0.318397	0.377947
	C156	C	0.884756	0.370277	0.675663
	C157	C	0.110567	0.616604	0.675566
	C158	C	0.884455	0.617134	0.313996
	C159	C	0.111944	0.372736	0.317914
	C160	C	0.372230	0.674895	0.882678
	C161	C	0.617835	0.672728	0.107448
	C162	C	0.617280	0.312838	0.883263
	C163	C	0.376002	0.315794	0.107847
	C164	C	0.676048	0.880347	0.375497
	C165	C	0.675501	0.108731	0.616999
	C166	C	0.320798	0.878950	0.614470
	C167	C	0.319729	0.108810	0.375699
	C168	C	0.875722	0.380658	0.173863
	C169	C	0.120554	0.607431	0.174841
	C170	C	0.119947	0.381153	0.816029
	C171	C	0.873482	0.607258	0.814791
	C172	C	0.176281	0.873334	0.383025
	C173	C	0.177272	0.114925	0.608562
	C174	C	0.816829	0.117581	0.383416
	C175	C	0.820097	0.873336	0.607698
	C176	C	0.380894	0.170735	0.875980
	C177	C	0.611054	0.172490	0.116239
	C178	C	0.381192	0.818603	0.114011
	C179	C	0.610429	0.814687	0.875005
	C180	C	0.382724	0.873104	0.174842
	C181	C	0.610506	0.116983	0.175894
	C182	C	0.382485	0.116539	0.814905
	C183	C	0.609678	0.870032	0.815596
	C184	C	0.876039	0.174431	0.382915
	C185	C	0.119877	0.173969	0.608145
	C186	C	0.119444	0.814559	0.383273
	C187	C	0.878134	0.815716	0.607833
	C188	C	0.172674	0.379559	0.876770
	C189	C	0.174129	0.608612	0.114935
	C190	C	0.820168	0.379456	0.114539
	C191	C	0.817417	0.607847	0.873242
	C192	C	0.401875	0.087670	0.592962
	C193	C	0.595027	0.900024	0.594129
	C194	C	0.593584	0.088826	0.398256
	C195	C	0.400582	0.899677	0.396637
	C196	C	0.595560	0.395899	0.087201
	C197	C	0.593704	0.591502	0.903094
	C198	C	0.396837	0.593935	0.086793
	C199	C	0.395783	0.394281	0.902245
	C200	C	0.091984	0.590785	0.396295
	C201	C	0.903751	0.590778	0.592556
	C202	C	0.091371	0.398943	0.594341
	C203	C	0.903103	0.398020	0.394657
	C204	C	0.901279	0.588057	0.091854
	C205	C	0.095188	0.398789	0.095269
	C206	C	0.092783	0.589371	0.896996
	C207	C	0.901447	0.400035	0.897055
	C208	C	0.097957	0.895156	0.588227
	C209	C	0.096975	0.094453	0.403129
	C210	C	0.899382	0.094011	0.587837
	C211	C	0.899111	0.896346	0.403154
	C212	C	0.589794	0.089775	0.897599
	C213	C	0.402391	0.091620	0.095551
	C214	C	0.590270	0.897658	0.094462
	C215	C	0.402531	0.898717	0.896198
	Zn216	Zn	0.497209	-0.006290	0.744764
	Zn217	Zn	0.497358	-0.005212	0.246403
	Zn218	Zn	0.748207	0.493423	-0.005461
	Zn219	Zn	0.243951	0.494330	-0.005154
	Zn220	Zn	-0.002047	0.742946	0.495442
	Zn221	Zn	-0.002450	0.246997	0.495617
	Zn222	Zn	-0.003187	0.494115	0.745541
	Zn223	Zn	-0.001664	0.494018	0.244128
	Zn224	Zn	0.495769	0.746003	-0.005050
	Zn225	Zn	0.496146	0.242197	-0.004164
	Zn226	Zn	0.746302	-0.005484	0.495712
	Zn227	Zn	0.249618	-0.006019	0.495363
	N228	N	0.409422	0.957828	0.675484
	N229	N	0.586025	0.029631	0.676941
	N230	N	0.585886	0.959145	0.315646
	N231	N	0.409559	0.030554	0.315740
	N232	N	0.677718	0.405416	0.959105
	N233	N	0.677556	0.581046	0.030790
	N234	N	0.316042	0.579910	0.957794
	N235	N	0.316336	0.407636	0.031372
	N236	N	0.960385	0.671856	0.409566
	N237	N	0.036191	0.668747	0.577903
	N238	N	0.959870	0.318934	0.579276
	N239	N	0.035161	0.319178	0.411770
	N240	N	0.962184	0.405254	0.676845
	N241	N	0.032718	0.582719	0.676687
	N242	N	0.962362	0.582725	0.312937
	N243	N	0.033857	0.406462	0.314698
	N244	N	0.407200	0.676021	0.958727
	N245	N	0.581955	0.673097	0.031626
	N246	N	0.582199	0.313572	0.958944
	N247	N	0.409770	0.314413	0.031651
	N248	N	0.674364	0.957295	0.411372
	N249	N	0.674969	0.031756	0.581371
	N250	N	0.322387	0.955916	0.578682
	N251	N	0.320483	0.031359	0.410411
	N252	N	0.910231	0.458433	0.174625
	N253	N	0.087202	0.529293	0.176683
	N254	N	0.085785	0.459232	0.814368
	N255	N	0.909227	0.530010	0.814632
	N256	N	0.177360	0.908048	0.459082
	N257	N	0.177907	0.080199	0.532372
	N258	N	0.815786	0.083247	0.459777
	N259	N	0.818827	0.908257	0.531707
	N260	N	0.457821	0.169613	0.911897
	N261	N	0.533993	0.171402	0.081013
	N262	N	0.458113	0.819120	0.078730
	N263	N	0.533490	0.816561	0.909947
	N264	N	0.460606	0.906789	0.176928
	N265	N	0.532928	0.082617	0.177374
	N266	N	0.460464	0.082536	0.813430
	N267	N	0.532267	0.905458	0.814390
	N268	N	0.911329	0.174743	0.458874
	N269	N	0.085299	0.175441	0.531975
	N270	N	0.085757	0.813193	0.459570
	N271	N	0.912383	0.815164	0.531688
	N272	N	0.170914	0.456493	0.912440
	N273	N	0.173531	0.531216	0.080108
	N274	N	0.820980	0.456274	0.078872
	N275	N	0.818923	0.530927	0.908894
	O276	O	-0.034267	-0.021543	-0.017071
	H277	H	-0.024722	-0.026617	-0.015957
	H278	H	-0.015469	-0.025226	-0.007117
	O279	O	0.823216	-0.122430	1.131472
	H280	H	0.819593	-0.113185	1.110882
	H281	H	0.809183	-0.118226	1.143361
	O282	O	0.867976	-0.039000	0.066651
	H283	H	0.862398	-0.019589	0.059509
	H284	H	0.870849	-0.040802	0.055831
	O285	O	-0.043779	0.917368	0.124120
	H286	H	-0.049740	0.934135	0.125081
	H287	H	-0.045105	0.896856	0.133764
	O288	O	0.550838	0.527946	0.469784
	H289	H	0.552550	0.529624	0.476281
	H290	H	0.552769	0.518091	0.473564
	O291	O	0.337565	0.534432	0.353732
	H292	H	0.322686	0.549471	0.331665
	H293	H	0.344621	0.563547	0.372156
	O294	O	1.077384	0.855730	1.000695
	H295	H	1.079681	0.855847	1.004144
	H296	H	1.073066	0.847460	1.018496
	O297	O	-0.081657	-0.057437	-0.037338
	H298	H	-0.078834	-0.060687	-0.040961
	H299	H	-0.075056	-0.048683	-0.021006
	O300	O	0.618612	0.501041	0.564048
	H301	H	0.623691	0.494534	0.568956
	H302	H	0.612919	0.506344	0.574065
	O303	O	-0.058479	1.069849	1.051763
	H304	H	-0.062504	1.062763	1.041210
	H305	H	-0.060577	1.081387	1.057721
	O306	O	0.560259	0.427018	0.437022
	H307	H	0.564959	0.427387	0.434050
	H308	H	0.560792	0.450117	0.443122
	O309	O	1.054539	-0.043411	-0.068297
	H310	H	1.052636	-0.031166	-0.064333
	H311	H	1.044701	-0.051499	-0.078954
	O312	O	0.097049	0.148570	1.099338
	H313	H	0.099416	0.147624	1.085772
	H314	H	0.102139	0.154306	1.111624
	O315	O	0.393327	0.382780	0.568230
	H316	H	0.397882	0.381996	0.562954
	H317	H	0.380224	0.360941	0.571255
	O318	O	0.402764	0.496416	0.356371
	H319	H	0.395732	0.493956	0.349464
	H320	H	0.398436	0.519872	0.356200
	O321	O	0.567851	0.457745	0.430888
	H322	H	0.582324	0.464431	0.426336
	H323	H	0.562065	0.453365	0.431176
	O324	O	0.415003	0.604330	0.637064
	H325	H	0.427936	0.593364	0.639550
	H326	H	0.414156	0.580642	0.643320
	O327	O	0.145754	1.074278	1.178347
	H328	H	0.152433	1.086175	1.180348
	H329	H	0.142450	1.052132	1.186588
	O330	O	0.437185	0.417434	0.687840
	H331	H	0.433778	0.407987	0.677085
	H332	H	0.433536	0.406342	0.694608
	O333	O	-0.106875	1.131707	0.872428
	H334	H	-0.116095	1.131299	0.882046
	H335	H	-0.097106	1.135986	0.864792
	O336	O	1.108166	0.959657	0.918507
	H337	H	1.103184	0.953691	0.917215
	H338	H	1.117890	0.961526	0.905446
	O339	O	0.476422	0.508281	0.422695
	H340	H	0.475255	0.507734	0.421264
	H341	H	0.484857	0.511197	0.427718
	O342	O	0.919810	-0.139182	0.061153
	H343	H	0.916147	-0.149986	0.059907
	H344	H	0.916647	-0.157992	0.055168
	O345	O	0.665303	0.550007	0.591008
	H346	H	0.669207	0.550319	0.590491
	H347	H	0.661042	0.536924	0.589895
	O348	O	0.953761	0.941979	0.966328
	H349	H	0.941466	0.949482	0.968060
	H350	H	0.968024	0.960228	0.975710
	O351	O	1.016882	1.056430	-0.100618
	H352	H	1.014818	1.074263	-0.121459
	H353	H	1.017127	1.044709	-0.094518
	O354	O	0.522834	0.454961	0.524374
	H355	H	0.507326	0.465508	0.505773
	H356	H	0.517578	0.438628	0.532059
	O357	O	0.427312	0.545011	0.604077
	H358	H	0.422292	0.529778	0.601279
	H359	H	0.407239	0.541182	0.607267
	O360	O	-0.038141	0.032504	-0.139777
	H361	H	-0.034399	0.029159	-0.137427
	H362	H	-0.047320	0.032912	-0.143787
	O363	O	0.601204	0.631786	0.641865
	H364	H	0.591423	0.640982	0.641338
	H365	H	0.588869	0.636314	0.653796
	O366	O	0.457058	0.693310	0.388228
	H367	H	0.455253	0.691859	0.401471
	H368	H	0.464089	0.708961	0.385125
	O369	O	0.454272	0.471224	0.422063
	H370	H	0.456530	0.471750	0.416217
	H371	H	0.457238	0.468611	0.427633
	O372	O	0.426201	0.331354	0.522365
	H373	H	0.434838	0.327139	0.522660
	H374	H	0.432875	0.338326	0.507737
	O375	O	0.532378	0.544971	0.329398
	H376	H	0.547097	0.559312	0.346497
	H377	H	0.509467	0.535900	0.332687
	O378	O	0.559016	0.441838	0.478397
	H379	H	0.555639	0.445927	0.469106
	H380	H	0.573041	0.445804	0.475324
	O381	O	0.453809	0.618716	0.437507
	H382	H	0.459777	0.615623	0.463028
	H383	H	0.447524	0.597970	0.425336
	O384	O	0.096015	0.939729	0.003868
	H385	H	0.096784	0.941644	-0.000178
	H386	H	0.084559	0.943672	0.018555
	O387	O	1.034617	-0.032974	0.871831
	H388	H	1.041659	-0.022421	0.884826
	H389	H	1.036609	-0.035184	0.865710
	O390	O	-0.165229	1.101296	0.082814
	H391	H	-0.162286	1.107748	0.076375
	H392	H	-0.157151	1.108250	0.092485
	O393	O	0.935222	1.016028	0.055702
	H394	H	0.939047	1.002077	0.047106
	H395	H	0.922283	1.004751	0.048467
	O396	O	0.588653	0.392895	0.411306
	H397	H	0.599747	0.371023	0.396137
	H398	H	0.599518	0.398369	0.422026
	O399	O	0.047487	1.115396	0.964439
	H400	H	0.052714	1.105409	0.968122
	H401	H	0.044951	1.101479	0.972424
	O402	O	1.028472	1.055538	0.915749
	H403	H	1.034965	1.048559	0.935305
	H404	H	1.020121	1.047721	0.907187
	O405	O	0.559272	1.445610	0.524647
	H406	H	0.552961	1.447251	0.526130
	H407	H	0.556199	1.451680	0.506130
