data_Molecule from HDF5

_cell_length_a		16.373368
_cell_length_b		16.441119
_cell_length_c		16.095633
_cell_angle_alpha	90.147754
_cell_angle_beta	89.784268
_cell_angle_gamma	90.291168
_symmetry_space_group_name_H-M	'P 1'
_symmetry_Int_Tables_number		1

loop_
	_symmetry_equiv_pos_as_xyz
	x,y,z

loop_
	_atom_site_label
	_atom_site_type_symbol
	_atom_site_fract_x
	_atom_site_fract_y
	_atom_site_fract_z
	H0	H	0.398998	0.828776	0.717927
	H1	H	0.600310	0.151868	0.717901
	H2	H	0.599719	0.829311	0.281617
	H3	H	0.401716	0.151540	0.286038
	H4	H	0.715139	0.389145	0.839198
	H5	H	0.712861	0.592374	0.166578
	H6	H	0.282058	0.590037	0.838552
	H7	H	0.281452	0.388333	0.165975
	H8	H	0.839796	0.709473	0.395565
	H9	H	0.158623	0.708568	0.606358
	H10	H	0.838191	0.267258	0.607255
	H11	H	0.158540	0.269035	0.395226
	H12	H	0.835446	0.389299	0.718406
	H13	H	0.160611	0.586461	0.715253
	H14	H	0.835307	0.585400	0.289670
	H15	H	0.159105	0.388952	0.283460
	H16	H	0.396565	0.706161	0.838643
	H17	H	0.600372	0.708480	0.165066
	H18	H	0.601872	0.274339	0.839088
	H19	H	0.395471	0.272690	0.164881
	H20	H	0.720165	0.830277	0.392024
	H21	H	0.720693	0.148982	0.605243
	H22	H	0.279932	0.829842	0.604828
	H23	H	0.280062	0.149525	0.396196
	H24	H	0.895553	0.328000	0.219080
	H25	H	0.097388	0.650735	0.219511
	H26	H	0.098420	0.328749	0.784520
	H27	H	0.897934	0.651024	0.785469
	H28	H	0.216124	0.887355	0.337852
	H29	H	0.214143	0.090100	0.665183
	H30	H	0.782785	0.090500	0.338594
	H31	H	0.778143	0.884701	0.663731
	H32	H	0.339982	0.210728	0.895347
	H33	H	0.658331	0.214046	0.107154
	H34	H	0.339101	0.770286	0.106489
	H35	H	0.658704	0.769344	0.894814
	H36	H	0.337417	0.891286	0.217122
	H37	H	0.661349	0.092576	0.217654
	H38	H	0.336370	0.086280	0.788812
	H39	H	0.661794	0.892439	0.785734
	H40	H	0.895831	0.206597	0.339698
	H41	H	0.101277	0.205972	0.664482
	H42	H	0.101683	0.771183	0.339049
	H43	H	0.895189	0.771975	0.665262
	H44	H	0.219179	0.330529	0.896627
	H45	H	0.219308	0.648877	0.109420
	H46	H	0.774497	0.330779	0.107964
	H47	H	0.779941	0.650076	0.898492
	H48	H	0.396322	0.107952	0.591840
	H49	H	0.594721	0.874958	0.588575
	H50	H	0.592619	0.102473	0.416707
	H51	H	0.413061	0.880542	0.418140
	H52	H	0.595142	0.404259	0.120440
	H53	H	0.586434	0.580314	0.886818
	H54	H	0.412548	0.582995	0.117594
	H55	H	0.415950	0.391497	0.885048
	H56	H	0.118070	0.590953	0.408154
	H57	H	0.884505	0.580593	0.589395
	H58	H	0.112785	0.404061	0.597349
	H59	H	0.886054	0.391981	0.420982
	H60	H	0.116437	0.388777	0.595952
	H61	H	0.882047	0.578454	0.595665
	H62	H	0.109768	0.580469	0.423487
	H63	H	0.885074	0.403682	0.412310
	H64	H	0.405629	0.584524	0.121208
	H65	H	0.591044	0.583598	0.884400
	H66	H	0.580827	0.407463	0.115206
	H67	H	0.398484	0.397864	0.881571
	H68	H	0.595566	0.105294	0.409881
	H69	H	0.588264	0.874526	0.597465
	H70	H	0.410164	0.105617	0.602282
	H71	H	0.396321	0.872620	0.412697
	H72	H	0.904164	0.607325	0.103074
	H73	H	0.085087	0.375496	0.094568
	H74	H	0.094253	0.605445	0.909408
	H75	H	0.907102	0.376091	0.912104
	H76	H	0.083501	0.901366	0.615707
	H77	H	0.090751	0.075202	0.385100
	H78	H	0.914008	0.075630	0.615056
	H79	H	0.912536	0.898263	0.386462
	H80	H	0.612434	0.080826	0.911917
	H81	H	0.386813	0.078586	0.088862
	H82	H	0.615002	0.895672	0.090466
	H83	H	0.383691	0.892899	0.912681
	H84	H	0.612548	0.899665	0.085155
	H85	H	0.384029	0.081631	0.095582
	H86	H	0.616162	0.084950	0.908088
	H87	H	0.385727	0.898580	0.913628
	H88	H	0.909356	0.080392	0.619156
	H89	H	0.086073	0.080666	0.384707
	H90	H	0.089071	0.890977	0.621267
	H91	H	0.909380	0.897747	0.385211
	H92	H	0.088842	0.603860	0.909981
	H93	H	0.088790	0.377326	0.086313
	H94	H	0.913415	0.600581	0.092237
	H95	H	0.905864	0.377002	0.914469
	H96	H	0.411176	0.100992	0.585629
	H97	H	0.584913	0.878615	0.588195
	H98	H	0.587751	0.103531	0.410432
	H99	H	0.409995	0.873640	0.400605
	H100	H	0.583708	0.393434	0.121529
	H101	H	0.591308	0.577799	0.885087
	H102	H	0.406662	0.576935	0.118214
	H103	H	0.411820	0.409100	0.889438
	H104	H	0.112951	0.571509	0.405641
	H105	H	0.881832	0.585078	0.593984
	H106	H	0.109740	0.396257	0.583582
	H107	H	0.879600	0.390511	0.406855
	H108	H	0.899000	0.604137	0.088369
	H109	H	0.093856	0.373923	0.092900
	H110	H	0.092642	0.603480	0.914568
	H111	H	0.904539	0.375977	0.912618
	H112	H	0.095805	0.902038	0.619882
	H113	H	0.093624	0.082173	0.382559
	H114	H	0.907150	0.074248	0.617548
	H115	H	0.910204	0.900840	0.386750
	H116	H	0.614360	0.086624	0.914197
	H117	H	0.384276	0.086434	0.088814
	H118	H	0.613365	0.902847	0.091512
	H119	H	0.383146	0.896884	0.907066
	C120	C	0.376656	-0.001678	0.623624
	C121	C	0.620547	0.981635	0.622555
	C122	C	0.622108	-0.001691	0.379193
	C123	C	0.376815	0.981440	0.379325
	C124	C	0.618048	0.370762	0.011078
	C125	C	0.619839	0.611724	0.993298
	C126	C	0.378120	0.610939	0.010716
	C127	C	0.377809	0.369059	0.993387
	C128	C	0.007293	0.610470	0.381444
	C129	C	0.989560	0.611030	0.623518
	C130	C	0.006414	0.366237	0.623917
	C131	C	0.989920	0.366111	0.381028
	C132	C	0.874148	0.497912	0.125398
	C133	C	0.119665	0.481343	0.123381
	C134	C	0.121271	0.498278	0.879937
	C135	C	0.876182	0.481998	0.881611
	C136	C	0.120429	0.867765	0.510807
	C137	C	0.120178	0.109816	0.492281
	C138	C	0.878719	0.108447	0.510044
	C139	C	0.877545	0.867287	0.492914
	C140	C	0.507846	0.112776	0.880535
	C141	C	0.491035	0.113270	0.122591
	C142	C	0.507680	0.868971	0.121667
	C143	C	0.490543	0.866903	0.879614
	C144	C	0.378703	0.877118	0.679831
	C145	C	0.620417	0.103019	0.679829
	C146	C	0.620176	0.877395	0.320400
	C147	C	0.380050	0.102878	0.323219
	C148	C	0.676700	0.369913	0.888183
	C149	C	0.675787	0.612045	0.117039
	C150	C	0.320914	0.609726	0.887535
	C151	C	0.320237	0.369173	0.116736
	C152	C	0.887119	0.668958	0.378951
	C153	C	0.110735	0.668839	0.624158
	C154	C	0.885904	0.307492	0.625384
	C155	C	0.110441	0.308691	0.378035
	C156	C	0.884542	0.368108	0.680841
	C157	C	0.111655	0.608491	0.678935
	C158	C	0.884887	0.607317	0.325858
	C159	C	0.110784	0.368146	0.321958
	C160	C	0.377902	0.667395	0.887481
	C161	C	0.619506	0.669687	0.116305
	C162	C	0.620111	0.312920	0.888078
	C163	C	0.377020	0.311555	0.116169
	C164	C	0.680067	0.877960	0.375515
	C165	C	0.680253	0.101652	0.623599
	C166	C	0.319225	0.877730	0.623695
	C167	C	0.319633	0.101805	0.378517
	C168	C	0.874817	0.376884	0.181830
	C169	C	0.118319	0.602275	0.181664
	C170	C	0.119454	0.377229	0.822318
	C171	C	0.877993	0.602745	0.823886
	C172	C	0.178105	0.867658	0.387521
	C173	C	0.176326	0.109582	0.615827
	C174	C	0.821081	0.109567	0.387589
	C175	C	0.818135	0.866527	0.615212
	C176	C	0.387325	0.170227	0.878740
	C177	C	0.611112	0.173206	0.124774
	C178	C	0.386762	0.810385	0.123955
	C179	C	0.611328	0.809603	0.877554
	C180	C	0.385948	0.870579	0.179051
	C181	C	0.612649	0.112613	0.179625
	C182	C	0.385588	0.108693	0.825040
	C183	C	0.612786	0.870571	0.823002
	C184	C	0.877616	0.167250	0.388158
	C185	C	0.120272	0.167365	0.615447
	C186	C	0.121080	0.809890	0.387949
	C187	C	0.876242	0.810141	0.615979
	C188	C	0.179260	0.378009	0.878360
	C189	C	0.178995	0.601262	0.126746
	C190	C	0.814693	0.378279	0.126255
	C191	C	0.818894	0.602164	0.880074
	C192	C	0.399635	0.083027	0.600234
	C193	C	0.596293	0.897795	0.598238
	C194	C	0.598606	0.081883	0.404741
	C195	C	0.399686	0.897273	0.403371
	C196	C	0.593680	0.394635	0.096728
	C197	C	0.596483	0.587671	0.907565
	C198	C	0.401560	0.588154	0.096678
	C199	C	0.401782	0.392621	0.907433
	C200	C	0.091553	0.587654	0.405291
	C201	C	0.904800	0.587935	0.599942
	C202	C	0.091003	0.389546	0.599602
	C203	C	0.905571	0.388711	0.406070
	C204	C	0.898370	0.582161	0.101434
	C205	C	0.095913	0.397403	0.098552
	C206	C	0.098514	0.582174	0.904256
	C207	C	0.899210	0.398007	0.906172
	C208	C	0.096357	0.891246	0.596604
	C209	C	0.097017	0.086278	0.406424
	C210	C	0.903136	0.083844	0.595184
	C211	C	0.903179	0.891805	0.407919
	C212	C	0.592318	0.090556	0.904410
	C213	C	0.406895	0.089178	0.098388
	C214	C	0.591825	0.892558	0.096473
	C215	C	0.406118	0.889535	0.903908
	Zn216	Zn	0.499115	-0.009641	0.752030
	Zn217	Zn	0.499932	-0.009555	0.250571
	Zn218	Zn	0.745992	0.490669	0.002608
	Zn219	Zn	0.250007	0.489764	0.002797
	Zn220	Zn	-0.001461	0.739969	0.502128
	Zn221	Zn	-0.000935	0.236582	0.502020
	Zn222	Zn	-0.002324	0.489686	0.752359
	Zn223	Zn	-0.002266	0.488912	0.252771
	Zn224	Zn	0.499441	0.738765	0.001802
	Zn225	Zn	0.499032	0.242594	0.001492
	Zn226	Zn	0.750098	-0.011482	0.500950
	Zn227	Zn	0.247828	-0.010226	0.501525
	N228	N	0.413556	0.953304	0.679985
	N229	N	0.584125	0.027481	0.679413
	N230	N	0.585150	0.953281	0.322195
	N231	N	0.415058	0.027077	0.323693
	N232	N	0.675578	0.405269	0.965649
	N233	N	0.675896	0.576696	0.039531
	N234	N	0.320717	0.575656	0.965356
	N235	N	0.320647	0.404208	0.039184
	N236	N	0.964128	0.671190	0.412746
	N237	N	0.033495	0.670898	0.590694
	N238	N	0.962779	0.306233	0.590864
	N239	N	0.034153	0.307171	0.413918
	N240	N	0.960689	0.403813	0.680133
	N241	N	0.035406	0.573417	0.678625
	N242	N	0.960630	0.571621	0.327117
	N243	N	0.034811	0.402992	0.323517
	N244	N	0.412914	0.668175	0.965009
	N245	N	0.585482	0.669598	0.038341
	N246	N	0.584498	0.313394	0.965420
	N247	N	0.411850	0.311381	0.038301
	N248	N	0.681344	0.953942	0.411484
	N249	N	0.680543	0.025052	0.589014
	N250	N	0.317929	0.954164	0.589409
	N251	N	0.317505	0.025210	0.412592
	N252	N	0.911184	0.452311	0.181292
	N253	N	0.082102	0.526694	0.179746
	N254	N	0.084128	0.452875	0.823101
	N255	N	0.913104	0.526919	0.824763
	N256	N	0.177690	0.902951	0.465039
	N257	N	0.176566	0.074709	0.538210
	N258	N	0.821832	0.073576	0.464459
	N259	N	0.818872	0.901305	0.537653
	N260	N	0.464504	0.172962	0.912333
	N261	N	0.534550	0.173674	0.090072
	N262	N	0.463581	0.809202	0.088982
	N263	N	0.534304	0.806926	0.911696
	N264	N	0.461825	0.906392	0.177656
	N265	N	0.537032	0.075936	0.178377
	N266	N	0.461453	0.073589	0.826071
	N267	N	0.536649	0.905476	0.824151
	N268	N	0.912909	0.166567	0.465445
	N269	N	0.086123	0.167837	0.537588
	N270	N	0.085790	0.809921	0.465493
	N271	N	0.912432	0.810453	0.538801
	N272	N	0.180696	0.454324	0.913397
	N273	N	0.179924	0.525147	0.091228
	N274	N	0.814126	0.454823	0.092056
	N275	N	0.817814	0.526258	0.915486
	O276	O	0.343470	0.546066	0.444368
	H277	H	0.335339	0.548441	0.443714
	H278	H	0.353265	0.542669	0.448359
	O279	O	0.439996	0.517213	0.454193
	H280	H	0.432274	0.515939	0.441318
	H281	H	0.442590	0.517960	0.450684
	O282	O	0.921059	0.175203	0.875210
	H283	H	0.924384	0.183401	0.889377
	H284	H	0.910244	0.183369	0.857630
	O285	O	0.382192	0.403933	0.628499
	H286	H	0.370548	0.396000	0.652957
	H287	H	0.381349	0.428294	0.623212
	O288	O	0.935714	1.130971	0.907235
	H289	H	0.947634	1.123143	0.898929
	H290	H	0.933879	1.123597	0.903343
	O291	O	0.106834	1.079990	-0.142676
	H292	H	0.098635	1.060482	-0.140359
	H293	H	0.109843	1.082632	-0.113600
	O294	O	0.493776	0.430643	0.406931
	H295	H	0.486289	0.430157	0.401426
	H296	H	0.487254	0.442667	0.418991
	O297	O	0.513153	0.540676	0.594802
	H298	H	0.514496	0.540794	0.580595
	H299	H	0.509143	0.519830	0.594487
	O300	O	0.641211	0.478362	0.359726
	H301	H	0.638551	0.477694	0.361311
	H302	H	0.644204	0.485396	0.369312
	O303	O	0.480309	0.483604	0.426406
	H304	H	0.482859	0.469147	0.433529
	H305	H	0.491630	0.504809	0.423830
	O306	O	0.568649	0.530765	0.531376
	H307	H	0.560646	0.531611	0.534524
	H308	H	0.564747	0.535276	0.513673
	O309	O	0.638370	0.592457	0.621114
	H310	H	0.631990	0.569210	0.616998
	H311	H	0.660270	0.587679	0.609043
	O312	O	-0.107281	0.054677	0.105873
	H313	H	-0.104584	0.067093	0.105748
	H314	H	-0.108971	0.058634	0.116237
	O315	O	0.484992	0.399172	0.566277
	H316	H	0.490587	0.405382	0.568910
	H317	H	0.478076	0.403685	0.567865
	O318	O	0.149568	0.873452	0.821378
	H319	H	0.151706	0.873436	0.811545
	H320	H	0.154715	0.881768	0.819226
	O321	O	0.634604	0.592258	0.513053
	H322	H	0.651121	0.599065	0.518784
	H323	H	0.615706	0.593921	0.537131
	O324	O	-0.041557	0.805893	0.085163
	H325	H	-0.042510	0.806656	0.084657
	H326	H	-0.042644	0.807354	0.074377
	O327	O	0.304296	0.398367	0.513010
	H328	H	0.293590	0.381988	0.532279
	H329	H	0.312429	0.405800	0.511479
	O330	O	-0.144949	0.078389	0.998152
	H331	H	-0.128495	0.090205	0.991183
	H332	H	-0.147409	0.083128	0.994066
	O333	O	0.062705	-0.042913	1.118684
	H334	H	0.061308	-0.028051	1.103951
	H335	H	0.056385	-0.050913	1.117263
	O336	O	0.474472	0.525785	0.334517
	H337	H	0.467061	0.529645	0.334462
	H338	H	0.461042	0.536639	0.343948
	O339	O	0.933043	0.106994	-0.050087
	H340	H	0.931916	0.102708	-0.055106
	H341	H	0.940502	0.104927	-0.047336
	O342	O	0.004486	0.034943	0.202771
	H343	H	0.005414	0.032184	0.221406
	H344	H	0.017853	0.029464	0.201919
	O345	O	0.886049	0.132772	1.041954
	H346	H	0.884671	0.129264	1.023187
	H347	H	0.881876	0.133886	1.041627
	O348	O	1.008067	0.916944	0.025051
	H349	H	1.012930	0.904595	0.021529
	H350	H	1.012348	0.918621	0.029911
	O351	O	0.351994	0.538535	0.387285
	H352	H	0.337990	0.545678	0.391461
	H353	H	0.370846	0.548723	0.387602
	O354	O	0.913032	0.043664	0.914697
	H355	H	0.904871	0.052842	0.918600
	H356	H	0.894615	0.036698	0.910963
	O357	O	0.630161	0.372099	0.426035
	H358	H	0.641623	0.370078	0.420722
	H359	H	0.627732	0.375421	0.412243
	O360	O	0.570883	0.571797	0.556408
	H361	H	0.567393	0.555543	0.555305
	H362	H	0.554155	0.561465	0.556329
	O363	O	-0.087614	1.033932	0.929544
	H364	H	-0.081215	1.036657	0.953100
	H365	H	-0.096764	1.023094	0.915125
	O366	O	0.489358	0.300509	0.502690
	H367	H	0.479237	0.311418	0.500767
	H368	H	0.482843	0.285871	0.517265
	O369	O	0.075587	0.831276	-0.158272
	H370	H	0.092038	0.837990	-0.156265
	H371	H	0.066219	0.828814	-0.176053
	O372	O	0.378208	0.539693	0.618914
	H373	H	0.390639	0.539842	0.605356
	H374	H	0.386418	0.536121	0.623122
	O375	O	0.674601	0.546526	0.633022
	H376	H	0.666914	0.533309	0.635902
	H377	H	0.674316	0.532781	0.631081
	O378	O	0.881124	0.855161	0.087202
	H379	H	0.890972	0.846409	0.077666
	H380	H	0.872698	0.858248	0.087860
	O381	O	0.931954	-0.129133	-0.051165
	H382	H	0.929706	-0.130776	-0.038339
	H383	H	0.938702	-0.131653	-0.060464
	O384	O	0.836551	0.800561	0.055786
	H385	H	0.850084	0.784376	0.057496
	H386	H	0.845015	0.796501	0.043876
	O387	O	0.179197	0.098730	0.046816
	H388	H	0.187737	0.109780	0.055286
	H389	H	0.188527	0.091963	0.067669
	O390	O	0.110471	1.024034	0.074188
	H391	H	0.097543	1.029993	0.088023
	H392	H	0.112230	1.005105	0.076934
	O393	O	1.105705	1.019696	0.861614
	H394	H	1.096584	1.016313	0.851000
	H395	H	1.096747	1.031696	0.871883
	O396	O	0.407783	0.457486	0.618344
	H397	H	0.408931	0.448732	0.633496
	H398	H	0.391159	0.462824	0.622073
	O399	O	0.048983	0.976271	1.165689
	H400	H	0.041268	0.988807	1.177212
	H401	H	0.046631	0.971892	1.168387
	O402	O	0.348437	0.485930	0.642412
	H403	H	0.346962	0.485971	0.624778
	H404	H	0.356453	0.485143	0.631548
	O405	O	1.102826	0.969257	0.114670
	H406	H	1.106313	0.961061	0.118714
	H407	H	1.094883	0.963054	0.109973
	O408	O	1.184736	0.819628	-0.031196
	H409	H	1.197309	0.804693	-0.034570
	H410	H	1.184839	0.831921	-0.037014
	O411	O	0.972716	0.161551	1.038140
	H412	H	0.966271	0.165033	1.054077
	H413	H	0.956301	0.159257	1.022257
	O414	O	0.613881	0.360473	0.489504
	H415	H	0.600910	0.356550	0.483636
	H416	H	0.618997	0.355775	0.470886
	O417	O	0.527084	0.658563	0.546652
	H418	H	0.548899	0.660181	0.553532
	H419	H	0.537718	0.667524	0.547534
