data_Molecule from HDF5

_cell_length_a		16.188107
_cell_length_b		16.250598
_cell_length_c		16.316264
_cell_angle_alpha	90.232046
_cell_angle_beta	90.081354
_cell_angle_gamma	89.808199
_symmetry_space_group_name_H-M	'P 1'
_symmetry_Int_Tables_number		1

loop_
	_symmetry_equiv_pos_as_xyz
	x,y,z

loop_
	_atom_site_label
	_atom_site_type_symbol
	_atom_site_fract_x
	_atom_site_fract_y
	_atom_site_fract_z
	H0	H	0.403813	0.839853	0.716884
	H1	H	0.601684	0.167760	0.720027
	H2	H	0.602337	0.840986	0.288138
	H3	H	0.401515	0.167957	0.288470
	H4	H	0.716132	0.404591	0.839526
	H5	H	0.715742	0.602029	0.167343
	H6	H	0.288222	0.599854	0.839406
	H7	H	0.289730	0.407774	0.166821
	H8	H	0.837840	0.717361	0.406794
	H9	H	0.167520	0.718028	0.601419
	H10	H	0.837980	0.292592	0.600225
	H11	H	0.167329	0.289277	0.405260
	H12	H	0.838449	0.406299	0.717366
	H13	H	0.167240	0.603447	0.718160
	H14	H	0.838477	0.604604	0.288763
	H15	H	0.167244	0.404511	0.288625
	H16	H	0.402990	0.717499	0.839321
	H17	H	0.601678	0.719899	0.166104
	H18	H	0.601589	0.286952	0.840604
	H19	H	0.403658	0.289259	0.166517
	H20	H	0.715709	0.839828	0.405732
	H21	H	0.714794	0.168882	0.601543
	H22	H	0.290703	0.838903	0.598543
	H23	H	0.287009	0.167979	0.406329
	H24	H	0.903028	0.340786	0.218005
	H25	H	0.101486	0.667858	0.218523
	H26	H	0.102741	0.341432	0.786744
	H27	H	0.902811	0.668641	0.789324
	H28	H	0.215837	0.905608	0.339805
	H29	H	0.216092	0.102816	0.667335
	H30	H	0.787754	0.101527	0.339228
	H31	H	0.789699	0.909499	0.667441
	H32	H	0.338602	0.217805	0.905064
	H33	H	0.667240	0.216530	0.101877
	H34	H	0.337796	0.791043	0.100223
	H35	H	0.667477	0.789760	0.905423
	H36	H	0.338158	0.904535	0.218008
	H37	H	0.667053	0.103635	0.219048
	H38	H	0.338657	0.102762	0.788881
	H39	H	0.666607	0.902393	0.787719
	H40	H	0.901579	0.219836	0.339732
	H41	H	0.100113	0.219662	0.666760
	H42	H	0.100947	0.788609	0.340138
	H43	H	0.904078	0.791578	0.667220
	H44	H	0.215121	0.339058	0.906161
	H45	H	0.216198	0.668216	0.101481
	H46	H	0.790916	0.339327	0.099025
	H47	H	0.787519	0.668609	0.906059
	H48	H	0.408647	0.120045	0.592615
	H49	H	0.593439	0.886977	0.599630
	H50	H	0.587440	0.120206	0.407976
	H51	H	0.408780	0.884866	0.401707
	H52	H	0.588560	0.412039	0.117191
	H53	H	0.598637	0.593188	0.887033
	H54	H	0.410350	0.596696	0.118472
	H55	H	0.414996	0.411683	0.888982
	H56	H	0.116861	0.596735	0.420059
	H57	H	0.885610	0.598435	0.596363
	H58	H	0.120301	0.409407	0.592835
	H59	H	0.886563	0.411759	0.416629
	H60	H	0.118430	0.415449	0.594798
	H61	H	0.885373	0.598450	0.598068
	H62	H	0.119622	0.587558	0.405183
	H63	H	0.887199	0.420059	0.407290
	H64	H	0.411424	0.599379	0.119505
	H65	H	0.590249	0.594402	0.888414
	H66	H	0.598065	0.401464	0.123321
	H67	H	0.409030	0.403383	0.884862
	H68	H	0.596032	0.120182	0.417293
	H69	H	0.593582	0.889125	0.593010
	H70	H	0.407032	0.121876	0.600136
	H71	H	0.416815	0.890133	0.410307
	H72	H	0.915742	0.619293	0.098667
	H73	H	0.094871	0.389108	0.091349
	H74	H	0.100025	0.623668	0.907286
	H75	H	0.908682	0.387805	0.911894
	H76	H	0.088293	0.907527	0.619225
	H77	H	0.099641	0.107584	0.382741
	H78	H	0.897743	0.095037	0.621397
	H79	H	0.912663	0.910606	0.387788
	H80	H	0.623065	0.097968	0.905974
	H81	H	0.389196	0.095747	0.085841
	H82	H	0.619840	0.909697	0.096566
	H83	H	0.383607	0.912158	0.904210
	H84	H	0.619207	0.912113	0.095422
	H85	H	0.385999	0.087250	0.103605
	H86	H	0.619034	0.097477	0.917414
	H87	H	0.384603	0.905839	0.911068
	H88	H	0.917670	0.092964	0.614946
	H89	H	0.101730	0.086152	0.388882
	H90	H	0.102480	0.906815	0.623457
	H91	H	0.908081	0.905915	0.384745
	H92	H	0.089774	0.620167	0.907849
	H93	H	0.099999	0.385537	0.097186
	H94	H	0.907826	0.619768	0.090593
	H95	H	0.907377	0.385664	0.906125
	H96	H	0.413759	0.119984	0.598510
	H97	H	0.599954	0.886259	0.595899
	H98	H	0.599492	0.124725	0.406077
	H99	H	0.405006	0.886829	0.413824
	H100	H	0.603016	0.415891	0.120165
	H101	H	0.595630	0.601146	0.886223
	H102	H	0.408845	0.598121	0.119827
	H103	H	0.404422	0.413185	0.886571
	H104	H	0.124240	0.605032	0.405799
	H105	H	0.884476	0.598965	0.597173
	H106	H	0.120824	0.411594	0.599198
	H107	H	0.883149	0.407481	0.404623
	H108	H	0.904793	0.623941	0.100716
	H109	H	0.091315	0.387628	0.100053
	H110	H	0.096175	0.619820	0.916058
	H111	H	0.913101	0.388348	0.907163
	H112	H	0.096682	0.919050	0.617526
	H113	H	0.081414	0.096327	0.391011
	H114	H	0.910510	0.111324	0.622561
	H115	H	0.906001	0.912384	0.387347
	H116	H	0.618499	0.087720	0.910946
	H117	H	0.380656	0.106901	0.099975
	H118	H	0.620841	0.911606	0.097944
	H119	H	0.387349	0.914305	0.912315
	C120	C	0.381264	0.011988	0.624767
	C121	C	0.624232	0.995821	0.625434
	C122	C	0.623661	0.013113	0.381715
	C123	C	0.380781	0.995434	0.381032
	C124	C	0.624758	0.381176	0.012073
	C125	C	0.624189	0.625477	0.994972
	C126	C	0.380619	0.625786	0.011243
	C127	C	0.381083	0.381546	0.994716
	C128	C	0.011366	0.625407	0.382287
	C129	C	0.993968	0.626622	0.625492
	C130	C	0.011177	0.383947	0.624257
	C131	C	0.994254	0.383132	0.381061
	C132	C	0.881036	0.512432	0.124538
	C133	C	0.124023	0.495846	0.124976
	C134	C	0.123698	0.512871	0.882026
	C135	C	0.880560	0.496104	0.880960
	C136	C	0.124131	0.882121	0.511813
	C137	C	0.123393	0.125830	0.495488
	C138	C	0.879977	0.127274	0.511386
	C139	C	0.880655	0.882453	0.495140
	C140	C	0.511385	0.123745	0.882487
	C141	C	0.494275	0.125134	0.125218
	C142	C	0.510862	0.882808	0.124699
	C143	C	0.494097	0.881750	0.881141
	C144	C	0.383622	0.888596	0.678879
	C145	C	0.621790	0.119016	0.681493
	C146	C	0.622127	0.889519	0.326689
	C147	C	0.382190	0.119193	0.326688
	C148	C	0.679206	0.383604	0.888638
	C149	C	0.678945	0.622905	0.118174
	C150	C	0.325787	0.621461	0.888112
	C151	C	0.326960	0.385884	0.118103
	C152	C	0.887156	0.680138	0.385549
	C153	C	0.118233	0.680622	0.622278
	C154	C	0.887095	0.329907	0.620983
	C155	C	0.118069	0.327021	0.384162
	C156	C	0.887563	0.386333	0.679332
	C157	C	0.118046	0.623954	0.680370
	C158	C	0.887440	0.623938	0.326958
	C159	C	0.117803	0.384039	0.325821
	C160	C	0.382576	0.679992	0.888249
	C161	C	0.621884	0.681260	0.117689
	C162	C	0.622210	0.325218	0.889161
	C163	C	0.383474	0.327031	0.117805
	C164	C	0.678609	0.889262	0.385040
	C165	C	0.677940	0.119707	0.622708
	C166	C	0.327185	0.888059	0.620174
	C167	C	0.325185	0.119214	0.385174
	C168	C	0.883400	0.389577	0.179703
	C169	C	0.121613	0.619215	0.180277
	C170	C	0.122471	0.389673	0.825630
	C171	C	0.882727	0.619663	0.826837
	C172	C	0.178476	0.884606	0.388719
	C173	C	0.178247	0.123513	0.618538
	C174	C	0.825066	0.123204	0.388249
	C175	C	0.826691	0.887454	0.618504
	C176	C	0.387527	0.179239	0.885057
	C177	C	0.618179	0.179452	0.122697
	C178	C	0.387029	0.828288	0.121478
	C179	C	0.618217	0.826980	0.884550
	C180	C	0.387224	0.885026	0.179785
	C181	C	0.617981	0.123100	0.180893
	C182	C	0.387478	0.122073	0.827385
	C183	C	0.617956	0.883519	0.826444
	C184	C	0.881878	0.181768	0.388469
	C185	C	0.120570	0.181633	0.618140
	C186	C	0.121443	0.826594	0.388943
	C187	C	0.883391	0.828757	0.618209
	C188	C	0.178461	0.388590	0.884776
	C189	C	0.178997	0.619186	0.122709
	C190	C	0.827800	0.388603	0.120471
	C191	C	0.825245	0.619487	0.884730
	C192	C	0.403248	0.098110	0.603411
	C193	C	0.602247	0.909658	0.602795
	C194	C	0.601072	0.099293	0.403882
	C195	C	0.403362	0.909621	0.402212
	C196	C	0.603054	0.403255	0.097944
	C197	C	0.601408	0.602942	0.909471
	C198	C	0.403423	0.604411	0.097235
	C199	C	0.403023	0.402977	0.909051
	C200	C	0.097973	0.602968	0.403933
	C201	C	0.907630	0.604934	0.603738
	C202	C	0.097562	0.405876	0.602244
	C203	C	0.907813	0.406288	0.403145
	C204	C	0.902923	0.598803	0.102905
	C205	C	0.102053	0.409889	0.102720
	C206	C	0.101750	0.598775	0.904014
	C207	C	0.903264	0.409635	0.902224
	C208	C	0.102153	0.904519	0.597806
	C209	C	0.100871	0.103244	0.409598
	C210	C	0.902147	0.106110	0.597323
	C211	C	0.902572	0.903356	0.408877
	C212	C	0.597850	0.100982	0.904814
	C213	C	0.407818	0.103087	0.102948
	C214	C	0.597641	0.904812	0.103015
	C215	C	0.407563	0.904196	0.902937
	Zn216	Zn	0.502734	0.003567	0.753554
	Zn217	Zn	0.502831	0.004163	0.253034
	Zn218	Zn	0.752584	0.503541	0.003192
	Zn219	Zn	0.252282	0.503789	0.003490
	Zn220	Zn	0.002521	0.753894	0.503524
	Zn221	Zn	0.001868	0.255543	0.503002
	Zn222	Zn	0.002720	0.504720	0.752888
	Zn223	Zn	0.002481	0.504995	0.253018
	Zn224	Zn	0.502374	0.754533	0.002791
	Zn225	Zn	0.502980	0.252453	0.003666
	Zn226	Zn	0.751710	0.004490	0.503432
	Zn227	Zn	0.252476	0.003706	0.503615
	N228	N	0.416671	0.966474	0.681705
	N229	N	0.589188	0.040869	0.683063
	N230	N	0.588598	0.967358	0.324691
	N231	N	0.415998	0.041487	0.323900
	N232	N	0.680728	0.417693	0.965939
	N233	N	0.680300	0.588892	0.040737
	N234	N	0.324718	0.588339	0.965461
	N235	N	0.325484	0.419157	0.040698
	N236	N	0.965044	0.681195	0.419041
	N237	N	0.040239	0.682439	0.588842
	N238	N	0.964902	0.328381	0.587339
	N239	N	0.039985	0.326128	0.417485
	N240	N	0.965662	0.419336	0.681142
	N241	N	0.039857	0.591087	0.682517
	N242	N	0.965713	0.590711	0.324767
	N243	N	0.039938	0.418098	0.323786
	N244	N	0.415979	0.682776	0.965885
	N245	N	0.588515	0.683088	0.040170
	N246	N	0.589205	0.323460	0.966788
	N247	N	0.416682	0.324551	0.040185
	N248	N	0.679571	0.967093	0.418691
	N249	N	0.679466	0.042170	0.588427
	N250	N	0.325727	0.965834	0.587206
	N251	N	0.324119	0.041496	0.418262
	N252	N	0.915850	0.467673	0.182207
	N253	N	0.088188	0.541664	0.181886
	N254	N	0.089262	0.467493	0.823896
	N255	N	0.916317	0.541732	0.824306
	N256	N	0.180104	0.918595	0.465990
	N257	N	0.179990	0.089507	0.541149
	N258	N	0.823657	0.089978	0.465724
	N259	N	0.824732	0.919977	0.540861
	N260	N	0.465538	0.180295	0.918640
	N261	N	0.540392	0.180829	0.088868
	N262	N	0.464744	0.827143	0.087599
	N263	N	0.540294	0.825979	0.917974
	N264	N	0.465444	0.918043	0.181901
	N265	N	0.539805	0.089918	0.182373
	N266	N	0.465502	0.088493	0.825633
	N267	N	0.539710	0.916685	0.824051
	N268	N	0.914956	0.184696	0.466190
	N269	N	0.087276	0.183160	0.540523
	N270	N	0.088221	0.825011	0.466671
	N271	N	0.916328	0.825759	0.540454
	N272	N	0.179314	0.466126	0.919313
	N273	N	0.180504	0.541484	0.089066
	N274	N	0.826137	0.466153	0.087067
	N275	N	0.823901	0.541616	0.917513
	O276	O	0.527804	0.563444	0.456174
	H277	H	0.527366	0.552430	0.470207
	H278	H	0.520151	0.575817	0.467440
	O279	O	0.035299	0.015924	-0.001002
	H280	H	0.038647	0.018483	0.002010
	H281	H	0.035724	0.012125	-0.003311
	O282	O	0.580720	0.553504	0.502307
	H283	H	0.596268	0.548744	0.500628
	H284	H	0.574161	0.541157	0.487055
	O285	O	0.487067	0.507873	0.440664
	H286	H	0.482373	0.504154	0.449196
	H287	H	0.489533	0.514704	0.437965
	O288	O	1.025580	-0.022569	-0.004105
	H289	H	1.029257	-0.021633	0.001518
	H290	H	1.024063	-0.027220	0.001099
	O291	O	-0.446196	0.553846	-0.466242
	H292	H	-0.440090	0.560049	-0.467021
	H293	H	-0.437103	0.568372	-0.452283
	O294	O	0.582929	0.500865	0.429657
	H295	H	0.579487	0.497061	0.425101
	H296	H	0.576984	0.502654	0.423958
	O297	O	0.046234	1.031786	-0.005703
	H298	H	0.043871	1.032595	-0.014604
	H299	H	0.044035	1.034777	-0.014104
	O300	O	1.014711	-0.003081	0.985290
	H301	H	1.014824	-0.003598	0.987361
	H302	H	1.017775	-0.000934	0.988381
	O303	O	0.564001	0.553250	0.558480
	H304	H	0.572967	0.544803	0.551408
	H305	H	0.564042	0.563837	0.560021
	O306	O	0.041498	1.003151	1.048911
	H307	H	0.048012	1.003623	1.049633
	H308	H	0.037473	1.004550	1.052063
	O309	O	0.525009	0.494427	0.514179
	H310	H	0.527069	0.490086	0.513360
	H311	H	0.521588	0.496169	0.508872
