data_Molecule from HDF5

_cell_length_a		16.336409
_cell_length_b		16.401036
_cell_length_c		16.380749
_cell_angle_alpha	90.082586
_cell_angle_beta	90.145350
_cell_angle_gamma	90.019285
_symmetry_space_group_name_H-M	'P 1'
_symmetry_Int_Tables_number		1

loop_
	_symmetry_equiv_pos_as_xyz
	x,y,z

loop_
	_atom_site_label
	_atom_site_type_symbol
	_atom_site_fract_x
	_atom_site_fract_y
	_atom_site_fract_z
	H0	H	0.396324	0.850562	0.720942
	H1	H	0.604345	0.171198	0.721740
	H2	H	0.604309	0.850925	0.283320
	H3	H	0.394500	0.170242	0.281290
	H4	H	0.718863	0.406257	0.842091
	H5	H	0.719592	0.612941	0.163189
	H6	H	0.282671	0.611501	0.841591
	H7	H	0.281706	0.407935	0.162833
	H8	H	0.840463	0.729294	0.398996
	H9	H	0.161149	0.728934	0.606445
	H10	H	0.840420	0.289747	0.605656
	H11	H	0.162163	0.291312	0.399423
	H12	H	0.840435	0.406298	0.720750
	H13	H	0.161126	0.612310	0.721275
	H14	H	0.840623	0.613536	0.282962
	H15	H	0.161892	0.408205	0.284515
	H16	H	0.397947	0.728408	0.842218
	H17	H	0.605044	0.731548	0.162452
	H18	H	0.604299	0.289450	0.842312
	H19	H	0.395621	0.290019	0.161821
	H20	H	0.720899	0.851644	0.398594
	H21	H	0.720422	0.171259	0.605544
	H22	H	0.282293	0.850055	0.604689
	H23	H	0.280936	0.170577	0.399559
	H24	H	0.896522	0.350164	0.223275
	H25	H	0.104979	0.670489	0.222352
	H26	H	0.103507	0.349825	0.783514
	H27	H	0.896622	0.669353	0.782579
	H28	H	0.220072	0.906223	0.342097
	H29	H	0.221291	0.113442	0.662779
	H30	H	0.780563	0.115169	0.342763
	H31	H	0.782796	0.908941	0.662696
	H32	H	0.339376	0.229606	0.898807
	H33	H	0.660661	0.231302	0.108305
	H34	H	0.338528	0.792461	0.103920
	H35	H	0.660456	0.791595	0.899513
	H36	H	0.339310	0.906234	0.221631
	H37	H	0.660262	0.116709	0.224911
	H38	H	0.339966	0.113558	0.782285
	H39	H	0.660432	0.907711	0.784048
	H40	H	0.897693	0.229586	0.342319
	H41	H	0.107353	0.231284	0.662103
	H42	H	0.106187	0.788590	0.343154
	H43	H	0.897772	0.791357	0.662407
	H44	H	0.218422	0.349563	0.899861
	H45	H	0.219077	0.670567	0.104793
	H46	H	0.778397	0.351303	0.108105
	H47	H	0.781391	0.669688	0.899295
	H48	H	0.413256	0.121638	0.587208
	H49	H	0.583936	0.900431	0.589228
	H50	H	0.596816	0.126475	0.415597
	H51	H	0.408570	0.896368	0.411562
	H52	H	0.588238	0.427280	0.113116
	H53	H	0.586562	0.602684	0.888811
	H54	H	0.412799	0.599448	0.115738
	H55	H	0.405219	0.416990	0.886401
	H56	H	0.113090	0.595603	0.414156
	H57	H	0.887810	0.595603	0.593129
	H58	H	0.115854	0.420401	0.594406
	H59	H	0.886556	0.422006	0.408926
	H60	H	0.116117	0.418760	0.591643
	H61	H	0.883720	0.603424	0.595372
	H62	H	0.117227	0.600213	0.408227
	H63	H	0.885439	0.416107	0.413532
	H64	H	0.410587	0.606150	0.117833
	H65	H	0.593128	0.603728	0.886868
	H66	H	0.583845	0.418217	0.115084
	H67	H	0.409033	0.426689	0.890140
	H68	H	0.585745	0.126136	0.405971
	H69	H	0.600441	0.896121	0.588249
	H70	H	0.406127	0.126274	0.592597
	H71	H	0.411344	0.896420	0.409608
	H72	H	0.917846	0.617751	0.083403
	H73	H	0.099000	0.394316	0.091343
	H74	H	0.095468	0.624689	0.916817
	H75	H	0.916137	0.399847	0.918905
	H76	H	0.088272	0.914088	0.617040
	H77	H	0.088172	0.104783	0.388611
	H78	H	0.916026	0.099595	0.614506
	H79	H	0.919289	0.922170	0.391736
	H80	H	0.613805	0.097308	0.911181
	H81	H	0.387468	0.102005	0.087791
	H82	H	0.616799	0.919902	0.097557
	H83	H	0.386851	0.925714	0.911491
	H84	H	0.613346	0.916715	0.087837
	H85	H	0.388812	0.095617	0.090666
	H86	H	0.616189	0.103691	0.910724
	H87	H	0.382734	0.917566	0.905211
	H88	H	0.911167	0.104702	0.618146
	H89	H	0.095383	0.100681	0.387180
	H90	H	0.097799	0.919746	0.618270
	H91	H	0.909218	0.911185	0.385626
	H92	H	0.092305	0.626476	0.904959
	H93	H	0.086865	0.394978	0.100953
	H94	H	0.900152	0.626132	0.090542
	H95	H	0.900931	0.394223	0.914652
	H96	H	0.414847	0.124657	0.596841
	H97	H	0.591454	0.894180	0.602044
	H98	H	0.584172	0.120414	0.419565
	H99	H	0.411538	0.897631	0.412737
	H100	H	0.593995	0.419740	0.117861
	H101	H	0.591072	0.598006	0.888872
	H102	H	0.406497	0.600803	0.118421
	H103	H	0.416267	0.417880	0.889541
	H104	H	0.115965	0.603205	0.416547
	H105	H	0.886965	0.602634	0.586673
	H106	H	0.114331	0.421918	0.591868
	H107	H	0.888807	0.422389	0.416114
	H108	H	0.916548	0.624356	0.103196
	H109	H	0.085324	0.399790	0.086267
	H110	H	0.084023	0.621881	0.912838
	H111	H	0.913993	0.394221	0.903364
	H112	H	0.088841	0.924356	0.613980
	H113	H	0.088578	0.096314	0.390445
	H114	H	0.908678	0.097372	0.615986
	H115	H	0.904246	0.926553	0.387974
	H116	H	0.613886	0.101338	0.916577
	H117	H	0.385480	0.100914	0.094969
	H118	H	0.611897	0.927041	0.091391
	H119	H	0.385840	0.915658	0.915557
	C120	C	0.379869	0.018671	0.623270
	C121	C	0.623054	1.002609	0.624406
	C122	C	0.621351	0.019364	0.381746
	C123	C	0.378630	1.002451	0.380145
	C124	C	0.620865	0.389267	0.010272
	C125	C	0.622173	0.632653	0.994155
	C126	C	0.378985	0.632309	0.011087
	C127	C	0.378754	0.389102	0.994024
	C128	C	0.009297	0.631276	0.381251
	C129	C	0.991950	0.631824	0.623855
	C130	C	0.009491	0.388490	0.623567
	C131	C	0.992490	0.388514	0.381207
	C132	C	0.879300	0.518018	0.124244
	C133	C	0.122069	0.502260	0.123929
	C134	C	0.121636	0.518408	0.880640
	C135	C	0.878741	0.501120	0.880569
	C136	C	0.122785	0.888481	0.510804
	C137	C	0.122783	0.131979	0.494251
	C138	C	0.880106	0.132099	0.510869
	C139	C	0.879611	0.889119	0.493835
	C140	C	0.508743	0.132121	0.880874
	C141	C	0.492713	0.131856	0.123916
	C142	C	0.508318	0.889603	0.123379
	C143	C	0.491359	0.888926	0.880156
	C144	C	0.378221	0.898439	0.681871
	C145	C	0.623622	0.123065	0.682984
	C146	C	0.622955	0.899087	0.322515
	C147	C	0.376891	0.122648	0.321522
	C148	C	0.679596	0.387990	0.889802
	C149	C	0.680751	0.632832	0.114729
	C150	C	0.321080	0.631628	0.890143
	C151	C	0.320690	0.388811	0.114617
	C152	C	0.888585	0.690093	0.380025
	C153	C	0.112859	0.689805	0.625074
	C154	C	0.888570	0.329535	0.624306
	C155	C	0.113589	0.330250	0.380433
	C156	C	0.888250	0.387351	0.681686
	C157	C	0.112881	0.631496	0.682262
	C158	C	0.888554	0.632010	0.322568
	C159	C	0.113639	0.388174	0.322963
	C160	C	0.378727	0.689422	0.890094
	C161	C	0.623710	0.691679	0.114630
	C162	C	0.622560	0.329621	0.890224
	C163	C	0.377238	0.330026	0.114208
	C164	C	0.681001	0.899446	0.380012
	C165	C	0.681567	0.123071	0.625134
	C166	C	0.321175	0.898453	0.623824
	C167	C	0.320137	0.122720	0.380143
	C168	C	0.877605	0.398068	0.183693
	C169	C	0.123263	0.622540	0.182505
	C170	C	0.122340	0.398007	0.822574
	C171	C	0.877860	0.621431	0.821951
	C172	C	0.181251	0.887522	0.390363
	C173	C	0.181946	0.132705	0.614613
	C174	C	0.820252	0.133491	0.390616
	C175	C	0.821883	0.889315	0.614623
	C176	C	0.387714	0.190613	0.879741
	C177	C	0.612568	0.191685	0.126429
	C178	C	0.386968	0.831048	0.123653
	C179	C	0.612344	0.830807	0.880204
	C180	C	0.387385	0.888410	0.181788
	C181	C	0.612497	0.134515	0.184512
	C182	C	0.387910	0.132817	0.821769
	C183	C	0.612510	0.888669	0.822925
	C184	C	0.878729	0.190368	0.390279
	C185	C	0.125289	0.191482	0.614247
	C186	C	0.124522	0.828891	0.390659
	C187	C	0.879058	0.830819	0.614414
	C188	C	0.179641	0.397995	0.880641
	C189	C	0.180134	0.622654	0.124139
	C190	C	0.819064	0.398482	0.126166
	C191	C	0.820570	0.621810	0.880144
	C192	C	0.404496	0.102528	0.599006
	C193	C	0.598826	0.918659	0.600161
	C194	C	0.596195	0.102675	0.406557
	C195	C	0.403233	0.918669	0.404263
	C196	C	0.595981	0.414563	0.093779
	C197	C	0.597422	0.608364	0.910071
	C198	C	0.402998	0.608962	0.095424
	C199	C	0.403181	0.413468	0.910352
	C200	C	0.093487	0.606952	0.405992
	C201	C	0.907913	0.607655	0.598950
	C202	C	0.093432	0.413152	0.599576
	C203	C	0.908715	0.413086	0.405711
	C204	C	0.904323	0.601077	0.099525
	C205	C	0.097339	0.418116	0.099757
	C206	C	0.097426	0.602600	0.904488
	C207	C	0.903223	0.417649	0.905223
	C208	C	0.098609	0.912575	0.594670
	C209	C	0.097804	0.107484	0.410390
	C210	C	0.904865	0.107712	0.594497
	C211	C	0.903893	0.913030	0.410141
	C212	C	0.592767	0.107805	0.905625
	C213	C	0.408916	0.106773	0.098432
	C214	C	0.592136	0.913984	0.099173
	C215	C	0.407211	0.912670	0.903834
	Zn216	Zn	0.500481	0.010393	0.752135
	Zn217	Zn	0.500301	0.011046	0.252457
	Zn218	Zn	0.750225	0.509989	0.002011
	Zn219	Zn	0.249998	0.510809	0.002605
	Zn220	Zn	0.001135	0.759926	0.502194
	Zn221	Zn	0.001509	0.260563	0.502808
	Zn222	Zn	0.000180	0.509400	0.751755
	Zn223	Zn	0.001414	0.510004	0.252953
	Zn224	Zn	0.500066	0.760899	0.002378
	Zn225	Zn	0.500070	0.260557	0.002857
	Zn226	Zn	0.750928	0.011149	0.502270
	Zn227	Zn	0.251187	0.010244	0.502559
	N228	N	0.414092	0.974199	0.681572
	N229	N	0.588198	0.046984	0.682823
	N230	N	0.586617	0.974690	0.323326
	N231	N	0.412369	0.046623	0.321203
	N232	N	0.678726	0.424376	0.965598
	N233	N	0.679944	0.597057	0.038653
	N234	N	0.321094	0.596833	0.966437
	N235	N	0.321437	0.424832	0.038929
	N236	N	0.964819	0.689800	0.415656
	N237	N	0.036573	0.690005	0.589495
	N238	N	0.964907	0.329946	0.589223
	N239	N	0.037278	0.330243	0.415771
	N240	N	0.964241	0.423319	0.681310
	N241	N	0.036638	0.596086	0.681754
	N242	N	0.964717	0.596394	0.323224
	N243	N	0.037555	0.423829	0.323360
	N244	N	0.413995	0.689843	0.966288
	N245	N	0.587973	0.691692	0.038605
	N246	N	0.587112	0.330138	0.966193
	N247	N	0.412691	0.330157	0.038287
	N248	N	0.680132	0.975235	0.415996
	N249	N	0.681177	0.047176	0.589476
	N250	N	0.322426	0.974106	0.587892
	N251	N	0.321044	0.046993	0.415811
	N252	N	0.914481	0.473258	0.182530
	N253	N	0.087926	0.546517	0.182463
	N254	N	0.086857	0.473993	0.822640
	N255	N	0.913241	0.545440	0.822104
	N256	N	0.180416	0.923776	0.466146
	N257	N	0.180478	0.096354	0.538904
	N258	N	0.820824	0.098083	0.466638
	N259	N	0.821986	0.924799	0.538777
	N260	N	0.463921	0.190446	0.915603
	N261	N	0.536835	0.190230	0.089606
	N262	N	0.463200	0.831608	0.088111
	N263	N	0.536093	0.830637	0.915091
	N264	N	0.463641	0.924036	0.182005
	N265	N	0.536853	0.098032	0.183053
	N266	N	0.464062	0.097205	0.822473
	N267	N	0.536333	0.924001	0.822751
	N268	N	0.915012	0.189865	0.466004
	N269	N	0.089068	0.190958	0.538466
	N270	N	0.088935	0.829381	0.466541
	N271	N	0.914274	0.830480	0.538256
	N272	N	0.179362	0.474057	0.916101
	N273	N	0.179822	0.546650	0.088809
	N274	N	0.820028	0.473889	0.089738
	N275	N	0.820977	0.545979	0.915885
	O276	O	0.540942	0.541082	0.441983
	H277	H	0.543196	0.545882	0.446615
	H278	H	0.562276	0.542071	0.443806
	O279	O	0.530880	0.692194	0.594247
	H280	H	0.534104	0.694663	0.578691
	H281	H	0.536107	0.700378	0.607063
	O282	O	0.297842	0.629974	0.454819
	H283	H	0.306825	0.613536	0.427027
	H284	H	0.276899	0.643203	0.441978
	O285	O	0.971182	0.025063	0.182779
	H286	H	0.973653	0.034973	0.175849
	H287	H	0.969386	0.027324	0.182632
	O288	O	0.147435	0.150329	1.031839
	H289	H	0.120058	0.144000	1.025491
	H290	H	0.165631	0.172697	1.033743
	O291	O	0.332246	0.396266	0.486222
	H292	H	0.332880	0.380346	0.480030
	H293	H	0.332457	0.398385	0.493329
	O294	O	0.651719	0.360407	0.320619
	H295	H	0.664142	0.384901	0.328456
	H296	H	0.664856	0.372304	0.332869
	O297	O	1.161311	1.027480	1.005371
	H298	H	1.154847	1.048734	1.006335
	H299	H	1.173348	1.033614	1.023777
	O300	O	0.048329	-0.106893	-0.014717
	H301	H	0.052035	-0.102573	-0.020962
	H302	H	0.048892	-0.121462	-0.018933
	O303	O	0.364934	0.645788	0.386601
	H304	H	0.377655	0.628296	0.382492
	H305	H	0.366012	0.638824	0.385357
	O306	O	0.858076	0.090462	-0.025201
	H307	H	0.855392	0.102335	-0.024036
	H308	H	0.862578	0.069990	-0.023046
	O309	O	0.641660	0.432295	0.555650
	H310	H	0.618604	0.426512	0.551146
	H311	H	0.641786	0.424497	0.551234
	O312	O	1.086165	0.907199	-0.154541
	H313	H	1.101190	0.890107	-0.150969
	H314	H	1.087487	0.895961	-0.161697
	O315	O	0.697051	0.534988	0.692254
	H316	H	0.689316	0.526941	0.692743
	H317	H	0.715147	0.535101	0.706193
	O318	O	0.330552	0.376900	0.683931
	H319	H	0.320190	0.399146	0.686385
	H320	H	0.335304	0.393594	0.673167
	O321	O	0.821098	0.074129	0.890817
	H322	H	0.831429	0.067933	0.885719
	H323	H	0.817496	0.060836	0.884627
	O324	O	0.021290	-0.080543	1.158916
	H325	H	0.023325	-0.086187	1.156028
	H326	H	0.020954	-0.078626	1.165449
	O327	O	0.531298	0.577214	0.653579
	H328	H	0.519355	0.566545	0.643626
	H329	H	0.525070	0.573240	0.654893
	O330	O	0.588939	0.500021	0.402179
	H331	H	0.592809	0.493609	0.411586
	H332	H	0.586142	0.498340	0.417389
	O333	O	0.712405	0.771898	0.773414
	H334	H	0.710277	0.771099	0.771076
	H335	H	0.710635	0.762379	0.774959
	O336	O	0.321080	0.530514	0.575469
	H337	H	0.326538	0.532344	0.568554
	H338	H	0.314593	0.544440	0.577616
	O339	O	0.800440	-0.122692	0.961433
	H340	H	0.805726	-0.116024	0.980760
	H341	H	0.785210	-0.144632	0.960385
	O342	O	-0.309118	0.723250	0.578062
	H343	H	-0.299385	0.740901	0.580319
	H344	H	-0.316322	0.725732	0.594602
	O345	O	0.119722	1.153971	1.195868
	H346	H	0.110796	1.153443	1.170840
	H347	H	0.103007	1.157304	1.206657
	O348	O	-0.108861	-0.048828	-0.137610
	H349	H	-0.112419	-0.060032	-0.148224
	H350	H	-0.115995	-0.049814	-0.121740
	O351	O	0.041882	0.004156	0.142489
	H352	H	0.039067	0.012403	0.140034
	H353	H	0.049195	0.004601	0.143473
	O354	O	1.597049	1.320871	0.450466
	H355	H	1.606789	1.309638	0.450020
	H356	H	1.596617	1.317164	0.455445
	O357	O	-0.061701	0.898436	-0.131290
	H358	H	-0.075014	0.894043	-0.118736
	H359	H	-0.050352	0.894422	-0.130316
	O360	O	0.612266	0.593055	0.379094
	H361	H	0.617110	0.598491	0.383461
	H362	H	0.609043	0.603777	0.375493
	O363	O	0.583602	0.680031	0.416762
	H364	H	0.582573	0.671985	0.427524
	H365	H	0.570146	0.688331	0.413996
	O366	O	0.453629	0.616843	0.563689
	H367	H	0.447474	0.609744	0.556475
	H368	H	0.441864	0.613376	0.573637
	O369	O	0.410969	0.328879	0.685773
	H370	H	0.384181	0.325797	0.692104
	H371	H	0.403852	0.327457	0.701003
	O372	O	0.482414	0.409517	0.592997
	H373	H	0.458830	0.410779	0.604070
	H374	H	0.475823	0.404844	0.606796
	O375	O	0.456144	0.536383	0.306508
	H376	H	0.462649	0.534778	0.294921
	H377	H	0.458154	0.534182	0.305729
	O378	O	0.897283	0.041761	-0.026020
	H379	H	0.889787	0.029313	-0.027961
	H380	H	0.910419	0.049100	-0.029732
	O381	O	0.419831	0.572097	0.650279
	H382	H	0.427026	0.588377	0.638158
	H383	H	0.438553	0.569718	0.648689
	O384	O	-0.127210	0.900544	1.131575
	H385	H	-0.117838	0.915115	1.136463
	H386	H	-0.108703	0.906111	1.134211
	O387	O	1.041732	1.083004	-0.070214
	H388	H	1.044232	1.067515	-0.082576
	H389	H	1.041672	1.088096	-0.064696
	O390	O	0.600684	0.492981	0.402437
	H391	H	0.601777	0.507212	0.412206
	H392	H	0.601144	0.492157	0.406321
	O393	O	1.168638	-0.031951	1.030683
	H394	H	1.175964	-0.032307	1.040290
	H395	H	1.165287	-0.032927	1.043677
	O396	O	-0.572198	0.347231	0.484703
	H397	H	-0.579064	0.336329	0.486320
	H398	H	-0.567081	0.350029	0.457287
	O399	O	0.533383	0.377219	0.369340
	H400	H	0.538341	0.353329	0.362369
	H401	H	0.553965	0.397557	0.376299
	O402	O	0.943653	0.097533	1.061026
	H403	H	0.919368	0.102692	1.077480
	H404	H	0.948920	0.090524	1.040332
	O405	O	0.117679	-0.052016	-0.117004
	H406	H	0.106768	-0.048877	-0.115636
	H407	H	0.110480	-0.061604	-0.098151
	O408	O	1.112998	0.993394	0.872678
	H409	H	1.110210	0.987114	0.872050
	H410	H	1.114410	1.005398	0.866943
	O411	O	1.099780	1.084360	0.173965
	H412	H	1.107017	1.109222	0.173699
	H413	H	1.109842	1.084384	0.182584
	O414	O	-0.064094	0.207555	1.052672
	H415	H	-0.072065	0.217125	1.038321
	H416	H	-0.074173	0.205570	1.044784
	O417	O	0.920152	0.177416	1.058575
	H418	H	0.924816	0.170853	1.027974
	H419	H	0.904848	0.203340	1.055884
	O420	O	0.060071	1.177834	-0.145073
	H421	H	0.055463	1.176223	-0.151611
	H422	H	0.067836	1.162901	-0.144092
	O423	O	0.980872	-0.123509	-0.143805
	H424	H	0.966802	-0.128382	-0.140718
	H425	H	0.988067	-0.125653	-0.126655
	O426	O	0.017396	-0.118535	1.108573
	H427	H	0.006212	-0.113140	1.123796
	H428	H	0.029147	-0.117376	1.105636
	O429	O	0.380206	0.417356	0.388104
	H430	H	0.386272	0.402492	0.382687
	H431	H	0.396693	0.419375	0.383272
