data_Molecule from HDF5

_cell_length_a		16.281052
_cell_length_b		16.226780
_cell_length_c		16.322622
_cell_angle_alpha	89.955977
_cell_angle_beta	89.702887
_cell_angle_gamma	90.050127
_symmetry_space_group_name_H-M	'P 1'
_symmetry_Int_Tables_number		1

loop_
	_symmetry_equiv_pos_as_xyz
	x,y,z

loop_
	_atom_site_label
	_atom_site_type_symbol
	_atom_site_fract_x
	_atom_site_fract_y
	_atom_site_fract_z
	H0	H	0.398959	0.832344	0.705016
	H1	H	0.596941	0.160085	0.703114
	H2	H	0.598756	0.832589	0.274782
	H3	H	0.398892	0.159010	0.272877
	H4	H	0.718674	0.395357	0.827465
	H5	H	0.715219	0.595397	0.152417
	H6	H	0.285534	0.597171	0.826871
	H7	H	0.282635	0.395954	0.151696
	H8	H	0.835350	0.710166	0.390920
	H9	H	0.162955	0.712306	0.585532
	H10	H	0.835380	0.282495	0.589363
	H11	H	0.162810	0.282253	0.390630
	H12	H	0.837519	0.395307	0.707139
	H13	H	0.163836	0.595834	0.702171
	H14	H	0.836647	0.596065	0.272938
	H15	H	0.163177	0.396830	0.273283
	H16	H	0.402235	0.711340	0.826685
	H17	H	0.597864	0.710605	0.153295
	H18	H	0.600240	0.281149	0.825590
	H19	H	0.400145	0.280889	0.152516
	H20	H	0.714992	0.833241	0.389091
	H21	H	0.713115	0.160170	0.588284
	H22	H	0.284414	0.831764	0.588390
	H23	H	0.287604	0.160836	0.392839
	H24	H	0.899239	0.332245	0.204763
	H25	H	0.099513	0.659398	0.204564
	H26	H	0.100767	0.332533	0.772374
	H27	H	0.901332	0.659382	0.774335
	H28	H	0.214971	0.899225	0.325949
	H29	H	0.213906	0.096713	0.652911
	H30	H	0.785178	0.096318	0.325893
	H31	H	0.782066	0.896856	0.651516
	H32	H	0.336621	0.211538	0.891925
	H33	H	0.663510	0.210611	0.086128
	H34	H	0.336197	0.781279	0.088662
	H35	H	0.663740	0.781627	0.889376
	H36	H	0.336755	0.896476	0.204959
	H37	H	0.662701	0.096688	0.204099
	H38	H	0.335512	0.095987	0.774963
	H39	H	0.662114	0.895771	0.771722
	H40	H	0.901516	0.211586	0.326287
	H41	H	0.095863	0.211273	0.653242
	H42	H	0.098519	0.783336	0.325257
	H43	H	0.898225	0.780659	0.652015
	H44	H	0.215392	0.332142	0.889270
	H45	H	0.213597	0.660267	0.086931
	H46	H	0.785384	0.331831	0.088062
	H47	H	0.785220	0.659547	0.889583
	H48	H	0.401840	0.114752	0.583446
	H49	H	0.592096	0.877904	0.586174
	H50	H	0.595276	0.115131	0.394040
	H51	H	0.398035	0.880580	0.406425
	H52	H	0.585023	0.413586	0.100057
	H53	H	0.588471	0.594710	0.873633
	H54	H	0.405499	0.596399	0.108584
	H55	H	0.405777	0.399250	0.871714
	H56	H	0.118456	0.601722	0.400350
	H57	H	0.881683	0.593165	0.583755
	H58	H	0.115656	0.407953	0.583737
	H59	H	0.883456	0.404615	0.396650
	H60	H	0.117765	0.399135	0.581052
	H61	H	0.885155	0.586559	0.577603
	H62	H	0.109444	0.579920	0.403903
	H63	H	0.882863	0.404861	0.396310
	H64	H	0.399709	0.584468	0.106483
	H65	H	0.601249	0.588817	0.871272
	H66	H	0.585598	0.390626	0.106821
	H67	H	0.404955	0.408946	0.873985
	H68	H	0.587603	0.112531	0.393397
	H69	H	0.585081	0.881500	0.580620
	H70	H	0.407780	0.114059	0.586731
	H71	H	0.402164	0.873738	0.385080
	H72	H	0.915099	0.607070	0.071301
	H73	H	0.090309	0.380220	0.080605
	H74	H	0.094326	0.610829	0.901968
	H75	H	0.912665	0.380597	0.898159
	H76	H	0.092988	0.904431	0.605450
	H77	H	0.103651	0.085546	0.372299
	H78	H	0.912524	0.088865	0.603136
	H79	H	0.904229	0.903915	0.371995
	H80	H	0.619824	0.092231	0.887933
	H81	H	0.384899	0.079436	0.088083
	H82	H	0.616685	0.904884	0.083862
	H83	H	0.383142	0.907351	0.893038
	H84	H	0.617362	0.900694	0.081018
	H85	H	0.378719	0.097275	0.087319
	H86	H	0.614669	0.092505	0.902360
	H87	H	0.382022	0.897473	0.896492
	H88	H	0.901678	0.095323	0.608050
	H89	H	0.085484	0.083647	0.377582
	H90	H	0.090287	0.905022	0.604959
	H91	H	0.907547	0.905852	0.373854
	H92	H	0.098917	0.615212	0.892265
	H93	H	0.093547	0.379060	0.080502
	H94	H	0.895369	0.615493	0.080152
	H95	H	0.907149	0.379282	0.900637
	H96	H	0.407393	0.111226	0.580336
	H97	H	0.594143	0.880100	0.576862
	H98	H	0.591309	0.111676	0.400885
	H99	H	0.418771	0.882219	0.397834
	H100	H	0.605311	0.404627	0.109062
	H101	H	0.590594	0.581149	0.877005
	H102	H	0.412313	0.585737	0.103031
	H103	H	0.413301	0.404469	0.875513
	H104	H	0.118847	0.585670	0.383078
	H105	H	0.883885	0.584687	0.587069
	H106	H	0.113763	0.405131	0.574841
	H107	H	0.882674	0.403493	0.396690
	H108	H	0.914408	0.614459	0.092967
	H109	H	0.091140	0.378059	0.083582
	H110	H	0.087868	0.611621	0.892137
	H111	H	0.907915	0.378519	0.894720
	H112	H	0.090408	0.902486	0.605712
	H113	H	0.092152	0.100042	0.371728
	H114	H	0.900321	0.082466	0.604811
	H115	H	0.907679	0.901204	0.372333
	H116	H	0.613354	0.080141	0.894899
	H117	H	0.386649	0.088775	0.072543
	H118	H	0.615156	0.905082	0.079539
	H119	H	0.385665	0.904841	0.902560
	C120	C	0.376854	0.004517	0.611949
	C121	C	0.619380	0.987913	0.609700
	C122	C	0.620486	0.004926	0.367358
	C123	C	0.378118	0.987448	0.368136
	C124	C	0.621931	0.373967	-0.002288
	C125	C	0.621974	0.617642	0.981433
	C126	C	0.378225	0.617763	-0.001876
	C127	C	0.378221	0.374409	0.980955
	C128	C	0.007672	0.617780	0.366983
	C129	C	0.991653	0.617732	0.610746
	C130	C	0.007843	0.374585	0.610583
	C131	C	0.991145	0.375363	0.367760
	C132	C	0.878287	0.504414	0.110878
	C133	C	0.120698	0.487476	0.110198
	C134	C	0.122783	0.504486	0.866434
	C135	C	0.879777	0.487572	0.868542
	C136	C	0.120451	0.875674	0.497368
	C137	C	0.121703	0.118785	0.481397
	C138	C	0.877155	0.118078	0.497473
	C139	C	0.876935	0.874695	0.480367
	C140	C	0.508026	0.117519	0.867042
	C141	C	0.491465	0.117478	0.110776
	C142	C	0.508189	0.874475	0.110711
	C143	C	0.491334	0.874041	0.867415
	C144	C	0.378651	0.881265	0.667005
	C145	C	0.617485	0.111203	0.665475
	C146	C	0.618743	0.881595	0.312425
	C147	C	0.379782	0.110553	0.312127
	C148	C	0.679444	0.375465	0.875683
	C149	C	0.677478	0.616212	0.103980
	C150	C	0.323651	0.616476	0.875400
	C151	C	0.321271	0.375621	0.103323
	C152	C	0.884604	0.672976	0.369849
	C153	C	0.114267	0.674099	0.607023
	C154	C	0.884605	0.319939	0.609298
	C155	C	0.114131	0.320212	0.370120
	C156	C	0.885570	0.376046	0.667994
	C157	C	0.114628	0.616276	0.664979
	C158	C	0.885092	0.616087	0.311410
	C159	C	0.114124	0.376835	0.311571
	C160	C	0.381699	0.673284	0.875346
	C161	C	0.618718	0.673023	0.104229
	C162	C	0.620483	0.318776	0.874813
	C163	C	0.379822	0.318499	0.103579
	C164	C	0.676546	0.881999	0.369292
	C165	C	0.675143	0.111188	0.608196
	C166	C	0.321755	0.881087	0.608962
	C167	C	0.324080	0.111341	0.371212
	C168	C	0.879434	0.381244	0.166855
	C169	C	0.119363	0.610940	0.166092
	C170	C	0.120940	0.381314	0.810713
	C171	C	0.881410	0.610455	0.812573
	C172	C	0.177017	0.878222	0.374633
	C173	C	0.175939	0.116822	0.604263
	C174	C	0.822967	0.116124	0.374600
	C175	C	0.820699	0.876487	0.603013
	C176	C	0.385073	0.173481	0.870281
	C177	C	0.614576	0.172708	0.107008
	C178	C	0.385180	0.818923	0.108860
	C179	C	0.614542	0.819073	0.869097
	C180	C	0.385473	0.875968	0.166988
	C181	C	0.614148	0.116014	0.165663
	C182	C	0.384471	0.115580	0.812923
	C183	C	0.613773	0.875907	0.810622
	C184	C	0.880900	0.173761	0.374874
	C185	C	0.117013	0.173530	0.604459
	C186	C	0.118993	0.820692	0.374281
	C187	C	0.878463	0.818928	0.603145
	C188	C	0.177932	0.381114	0.868831
	C189	C	0.176055	0.611060	0.107600
	C190	C	0.822568	0.381064	0.108880
	C191	C	0.823614	0.610535	0.869827
	C192	C	0.399194	0.090942	0.590089
	C193	C	0.596918	0.902039	0.587704
	C194	C	0.597987	0.090764	0.389680
	C195	C	0.399896	0.901093	0.389893
	C196	C	0.598702	0.396325	0.083225
	C197	C	0.600038	0.594790	0.896058
	C198	C	0.399546	0.595450	0.083886
	C199	C	0.401267	0.397392	0.895747
	C200	C	0.093431	0.595534	0.389133
	C201	C	0.905780	0.594794	0.589151
	C202	C	0.093608	0.397475	0.586948
	C203	C	0.905120	0.397725	0.390039
	C204	C	0.901441	0.590280	0.088143
	C205	C	0.098233	0.401516	0.088099
	C206	C	0.100352	0.590179	0.888847
	C207	C	0.902668	0.401617	0.891239
	C208	C	0.097942	0.897690	0.583011
	C209	C	0.100336	0.096275	0.395915
	C210	C	0.898555	0.095442	0.583271
	C211	C	0.899722	0.897070	0.394867
	C212	C	0.593676	0.094836	0.888568
	C213	C	0.405569	0.094883	0.089155
	C214	C	0.594092	0.896856	0.088235
	C215	C	0.405773	0.896663	0.890441
	Zn216	Zn	0.498910	-0.004106	0.739080
	Zn217	Zn	0.499277	-0.004102	0.239515
	Zn218	Zn	0.750957	0.496197	-0.010116
	Zn219	Zn	0.249858	0.496503	-0.010865
	Zn220	Zn	-0.001005	0.746534	0.488784
	Zn221	Zn	-0.001121	0.246575	0.489419
	Zn222	Zn	0.000192	0.495678	0.738733
	Zn223	Zn	-0.000137	0.496119	0.238483
	Zn224	Zn	0.500291	0.745859	-0.010555
	Zn225	Zn	0.500101	0.245399	-0.011054
	Zn226	Zn	0.748402	-0.003496	0.488870
	Zn227	Zn	0.249917	-0.003465	0.489921
	N228	N	0.411905	0.959088	0.669152
	N229	N	0.583439	0.033564	0.666540
	N230	N	0.584641	0.959002	0.311054
	N231	N	0.412617	0.032511	0.310062
	N232	N	0.680357	0.409115	0.953017
	N233	N	0.679607	0.582271	0.026716
	N234	N	0.321390	0.582469	0.952714
	N235	N	0.320293	0.409695	0.026265
	N236	N	0.961744	0.674095	0.403965
	N237	N	0.036711	0.675079	0.574133
	N238	N	0.961659	0.319053	0.574296
	N239	N	0.036732	0.319159	0.404375
	N240	N	0.963371	0.409409	0.668711
	N241	N	0.037271	0.581891	0.667110
	N242	N	0.962548	0.582432	0.309683
	N243	N	0.036610	0.410536	0.310149
	N244	N	0.414951	0.674151	0.952549
	N245	N	0.585208	0.673970	0.027057
	N246	N	0.585344	0.317841	0.951636
	N247	N	0.414535	0.317617	0.026466
	N248	N	0.677917	0.959801	0.402724
	N249	N	0.676345	0.033730	0.574035
	N250	N	0.320770	0.958910	0.575321
	N251	N	0.322934	0.033901	0.405441
	N252	N	0.913524	0.458741	0.168012
	N253	N	0.085676	0.533241	0.167680
	N254	N	0.087354	0.458858	0.809047
	N255	N	0.915573	0.532893	0.811602
	N256	N	0.177990	0.911709	0.452028
	N257	N	0.178852	0.083593	0.526964
	N258	N	0.820662	0.082266	0.451924
	N259	N	0.819573	0.910354	0.525729
	N260	N	0.462555	0.174914	0.903093
	N261	N	0.537235	0.173454	0.073582
	N262	N	0.462554	0.817899	0.074656
	N263	N	0.537437	0.817894	0.903827
	N264	N	0.462816	0.909971	0.168129
	N265	N	0.536435	0.082576	0.168163
	N266	N	0.461919	0.081409	0.810837
	N267	N	0.536254	0.909717	0.809740
	N268	N	0.913940	0.174804	0.452239
	N269	N	0.084088	0.175063	0.526979
	N270	N	0.084575	0.818876	0.451423
	N271	N	0.912739	0.817605	0.525905
	N272	N	0.179305	0.458736	0.902651
	N273	N	0.176842	0.533513	0.073387
	N274	N	0.821872	0.458725	0.074804
	N275	N	0.822445	0.532991	0.903816
	O276	O	0.494968	0.501342	0.493855
	H277	H	0.503885	0.505229	0.502404
	H278	H	0.493815	0.502250	0.500442
	O279	O	0.482820	0.469961	0.537332
	H280	H	0.480267	0.472491	0.533342
	H281	H	0.488180	0.476378	0.540976
	O282	O	0.525864	0.446228	0.526784
	H283	H	0.530568	0.435520	0.522948
	H284	H	0.521932	0.451149	0.522693
	O285	O	-0.044414	0.991689	0.987905
	H286	H	-0.049474	0.992990	0.994800
	H287	H	-0.051572	0.984032	0.980271
	O288	O	0.458903	0.503375	0.536908
	H289	H	0.445509	0.505993	0.530447
	H290	H	0.457459	0.495764	0.546798
	O291	O	0.015559	-0.000526	0.998912
	H292	H	0.020891	-0.005752	0.992136
	H293	H	0.013115	0.008708	1.002988
	O294	O	0.463496	0.461663	0.513784
	H295	H	0.467530	0.452603	0.506790
	H296	H	0.468256	0.466850	0.523306
	O297	O	0.501656	0.458650	0.534017
	H298	H	0.507888	0.455020	0.529628
	H299	H	0.514264	0.456368	0.526872
	O300	O	1.027888	0.922419	0.948428
	H301	H	1.022200	0.920861	0.936984
	H302	H	1.043498	0.912072	0.935399
	O303	O	0.458344	0.569740	0.580435
	H304	H	0.447360	0.565346	0.588738
	H305	H	0.456655	0.580522	0.581163
	O306	O	1.043688	-0.090223	0.989679
	H307	H	1.058065	-0.094068	0.985383
	H308	H	1.034990	-0.098954	0.988720
	O309	O	0.534529	0.510261	0.513140
	H310	H	0.543541	0.515694	0.514983
	H311	H	0.532396	0.506576	0.516579
	O312	O	0.000257	0.962837	0.968694
	H313	H	-0.000665	0.970216	0.974082
	H314	H	0.008758	0.961434	0.974294
	O315	O	1.085060	-0.053517	0.945502
	H316	H	1.088184	-0.054481	0.938466
	H317	H	1.090277	-0.051630	0.958856
	O318	O	-0.017654	-0.053131	-0.040728
	H319	H	-0.016880	-0.049550	-0.039497
	H320	H	-0.019331	-0.054933	-0.049696
	O321	O	0.523494	0.381313	0.562447
	H322	H	0.527858	0.381315	0.567540
	H323	H	0.529210	0.382190	0.561574
	O324	O	0.575880	0.487746	0.406341
	H325	H	0.570567	0.491968	0.403096
	H326	H	0.576028	0.494655	0.399930
	O327	O	1.026154	0.937351	-0.051233
	H328	H	1.028511	0.936883	-0.049374
	H329	H	1.027225	0.936838	-0.037411
	O330	O	0.488987	0.540201	0.452840
	H331	H	0.481977	0.539258	0.451194
	H332	H	0.481609	0.534791	0.450739
	O333	O	0.472342	0.503968	0.490194
	H334	H	0.468945	0.497059	0.484878
	H335	H	0.469174	0.498552	0.494766
