data_Molecule from HDF5

_cell_length_a		16.190850
_cell_length_b		16.345745
_cell_length_c		16.277440
_cell_angle_alpha	90.029945
_cell_angle_beta	89.842692
_cell_angle_gamma	90.371336
_symmetry_space_group_name_H-M	'P 1'
_symmetry_Int_Tables_number		1

loop_
	_symmetry_equiv_pos_as_xyz
	x,y,z

loop_
	_atom_site_label
	_atom_site_type_symbol
	_atom_site_fract_x
	_atom_site_fract_y
	_atom_site_fract_z
	H0	H	0.402588	0.842729	0.712946
	H1	H	0.605040	0.168114	0.711908
	H2	H	0.603525	0.842956	0.278533
	H3	H	0.406822	0.168510	0.280709
	H4	H	0.717521	0.408377	0.833032
	H5	H	0.717854	0.605650	0.159973
	H6	H	0.290662	0.601418	0.832272
	H7	H	0.289721	0.407869	0.160738
	H8	H	0.839947	0.718359	0.398213
	H9	H	0.168057	0.722003	0.596925
	H10	H	0.841090	0.287612	0.597515
	H11	H	0.169030	0.292249	0.397359
	H12	H	0.840351	0.403380	0.711951
	H13	H	0.169132	0.603842	0.710490
	H14	H	0.839999	0.601417	0.282860
	H15	H	0.169009	0.406661	0.281410
	H16	H	0.403331	0.720853	0.832216
	H17	H	0.604147	0.723048	0.158758
	H18	H	0.604209	0.289323	0.833788
	H19	H	0.401376	0.288746	0.159500
	H20	H	0.717393	0.841406	0.396284
	H21	H	0.720149	0.168446	0.593296
	H22	H	0.288593	0.841571	0.595212
	H23	H	0.292810	0.169254	0.399568
	H24	H	0.902565	0.341812	0.212047
	H25	H	0.105586	0.666934	0.213152
	H26	H	0.102950	0.341781	0.780909
	H27	H	0.905685	0.666821	0.779886
	H28	H	0.218072	0.907895	0.332187
	H29	H	0.217771	0.102173	0.660638
	H30	H	0.793304	0.100832	0.332063
	H31	H	0.788529	0.906290	0.659733
	H32	H	0.339743	0.220095	0.896605
	H33	H	0.667120	0.223046	0.095380
	H34	H	0.340273	0.789868	0.094960
	H35	H	0.667243	0.790707	0.893228
	H36	H	0.340212	0.904808	0.211374
	H37	H	0.668645	0.105813	0.208413
	H38	H	0.339344	0.102358	0.782698
	H39	H	0.668359	0.907622	0.780819
	H40	H	0.906869	0.218705	0.333187
	H41	H	0.105412	0.220901	0.659425
	H42	H	0.103471	0.789732	0.333479
	H43	H	0.902722	0.788918	0.659330
	H44	H	0.218564	0.341494	0.897674
	H45	H	0.220068	0.667896	0.095197
	H46	H	0.785399	0.342466	0.096242
	H47	H	0.790023	0.668216	0.896819
	H48	H	0.405123	0.122134	0.587876
	H49	H	0.591276	0.889655	0.593555
	H50	H	0.595318	0.119841	0.401561
	H51	H	0.408767	0.887466	0.397786
	H52	H	0.600005	0.415633	0.114432
	H53	H	0.587435	0.600562	0.882634
	H54	H	0.414712	0.603046	0.112447
	H55	H	0.408341	0.410494	0.878936
	H56	H	0.122037	0.596007	0.400734
	H57	H	0.885598	0.597417	0.595474
	H58	H	0.120894	0.411105	0.584718
	H59	H	0.886475	0.411782	0.399599
	H60	H	0.120879	0.417133	0.590088
	H61	H	0.887211	0.601845	0.585383
	H62	H	0.122978	0.602117	0.404472
	H63	H	0.886301	0.405695	0.405207
	H64	H	0.407987	0.600068	0.113704
	H65	H	0.602520	0.606048	0.875823
	H66	H	0.589257	0.417789	0.109472
	H67	H	0.411266	0.414452	0.881475
	H68	H	0.602162	0.121295	0.405784
	H69	H	0.593499	0.892211	0.583911
	H70	H	0.414371	0.122792	0.596299
	H71	H	0.417434	0.890690	0.402306
	H72	H	0.913208	0.618024	0.083928
	H73	H	0.092580	0.391478	0.085033
	H74	H	0.092470	0.617233	0.908863
	H75	H	0.913335	0.387436	0.897234
	H76	H	0.098913	0.907207	0.615070
	H77	H	0.098434	0.090122	0.381470
	H78	H	0.903835	0.092038	0.614278
	H79	H	0.920538	0.897505	0.378064
	H80	H	0.620239	0.091537	0.898969
	H81	H	0.387495	0.094241	0.088671
	H82	H	0.619766	0.918621	0.085988
	H83	H	0.387291	0.918285	0.897878
	H84	H	0.622734	0.912864	0.091838
	H85	H	0.386166	0.097871	0.091335
	H86	H	0.623649	0.106858	0.900857
	H87	H	0.384285	0.904221	0.903189
	H88	H	0.919887	0.090795	0.608968
	H89	H	0.090444	0.104550	0.380230
	H90	H	0.099889	0.917669	0.612323
	H91	H	0.897467	0.910206	0.375667
	H92	H	0.104448	0.622099	0.905683
	H93	H	0.102415	0.386422	0.088391
	H94	H	0.906073	0.622339	0.091373
	H95	H	0.915417	0.392651	0.909513
	H96	H	0.415585	0.117611	0.584603
	H97	H	0.601106	0.887534	0.589810
	H98	H	0.601339	0.122815	0.397400
	H99	H	0.408104	0.889856	0.407936
	H100	H	0.591669	0.406832	0.114298
	H101	H	0.600609	0.589837	0.881812
	H102	H	0.413702	0.596075	0.110748
	H103	H	0.413682	0.409528	0.880796
	H104	H	0.119448	0.596937	0.407190
	H105	H	0.889840	0.590500	0.587446
	H106	H	0.123825	0.409188	0.592596
	H107	H	0.889040	0.413434	0.407735
	H108	H	0.917586	0.620447	0.094147
	H109	H	0.093657	0.387370	0.095937
	H110	H	0.095183	0.621102	0.896083
	H111	H	0.903236	0.388215	0.906162
	H112	H	0.090171	0.912981	0.611465
	H113	H	0.106518	0.103664	0.376231
	H114	H	0.914815	0.105228	0.615139
	H115	H	0.918293	0.923096	0.385546
	H116	H	0.617355	0.098422	0.912658
	H117	H	0.386913	0.098643	0.086625
	H118	H	0.621629	0.909995	0.083923
	H119	H	0.390457	0.915118	0.912249
	C120	C	0.381888	0.013499	0.618925
	C121	C	0.625662	0.997302	0.617780
	C122	C	0.627204	0.013601	0.372938
	C123	C	0.383288	0.997242	0.374466
	C124	C	0.623576	0.384679	0.004767
	C125	C	0.626058	0.628323	0.987660
	C126	C	0.382888	0.627520	0.004245
	C127	C	0.381526	0.383067	0.988269
	C128	C	0.013008	0.626098	0.375399
	C129	C	0.996119	0.625867	0.618242
	C130	C	0.012910	0.383155	0.618265
	C131	C	0.996078	0.382842	0.375003
	C132	C	0.881836	0.513085	0.118841
	C133	C	0.125818	0.496152	0.118417
	C134	C	0.126020	0.512755	0.874819
	C135	C	0.882327	0.496624	0.875217
	C136	C	0.125126	0.883999	0.504819
	C137	C	0.126812	0.127490	0.487770
	C138	C	0.884157	0.124934	0.504832
	C139	C	0.882259	0.882326	0.487804
	C140	C	0.511944	0.126978	0.875292
	C141	C	0.495351	0.126738	0.117085
	C142	C	0.512907	0.884374	0.116561
	C143	C	0.495462	0.883869	0.874278
	C144	C	0.383117	0.891187	0.674653
	C145	C	0.624466	0.119740	0.673081
	C146	C	0.623909	0.891292	0.316940
	C147	C	0.386014	0.119764	0.318848
	C148	C	0.679738	0.387348	0.881934
	C149	C	0.680703	0.626144	0.110924
	C150	C	0.328043	0.622960	0.881105
	C151	C	0.326352	0.386245	0.111747
	C152	C	0.889169	0.680747	0.377556
	C153	C	0.119138	0.683305	0.616917
	C154	C	0.889995	0.326257	0.617151
	C155	C	0.119916	0.329489	0.377291
	C156	C	0.889597	0.384100	0.673998
	C157	C	0.119821	0.624313	0.673178
	C158	C	0.889180	0.622781	0.320234
	C159	C	0.119744	0.386275	0.319503
	C160	C	0.383956	0.682469	0.881247
	C161	C	0.624023	0.684670	0.110084
	C162	C	0.623456	0.328323	0.882271
	C163	C	0.382066	0.327152	0.110974
	C164	C	0.680389	0.890424	0.375837
	C165	C	0.681960	0.119644	0.614372
	C166	C	0.326371	0.890610	0.615904
	C167	C	0.329513	0.120415	0.378024
	C168	C	0.882623	0.390503	0.174222
	C169	C	0.124547	0.618694	0.173892
	C170	C	0.123594	0.390329	0.819142
	C171	C	0.884834	0.618599	0.818332
	C172	C	0.180169	0.886878	0.381272
	C173	C	0.181384	0.123904	0.611164
	C174	C	0.830023	0.122214	0.381185
	C175	C	0.826214	0.885213	0.610728
	C176	C	0.388644	0.181805	0.877055
	C177	C	0.618683	0.183695	0.114886
	C178	C	0.389269	0.828220	0.114942
	C179	C	0.618520	0.828542	0.874063
	C180	C	0.389290	0.885278	0.172734
	C181	C	0.619262	0.125696	0.171455
	C182	C	0.388571	0.123970	0.819840
	C183	C	0.619145	0.886768	0.818225
	C184	C	0.886365	0.180930	0.381934
	C185	C	0.125241	0.182772	0.610570
	C186	C	0.123501	0.828150	0.381956
	C187	C	0.883317	0.827102	0.610727
	C188	C	0.181097	0.390156	0.877042
	C189	C	0.181855	0.619104	0.115829
	C190	C	0.824131	0.391137	0.116855
	C191	C	0.827734	0.619299	0.876961
	C192	C	0.405072	0.098831	0.596313
	C193	C	0.602197	0.911747	0.595610
	C194	C	0.605997	0.099284	0.395005
	C195	C	0.404953	0.911528	0.396364
	C196	C	0.600330	0.406970	0.090567
	C197	C	0.603699	0.605399	0.902163
	C198	C	0.405441	0.605942	0.090073
	C199	C	0.404427	0.405021	0.902632
	C200	C	0.099156	0.604765	0.397533
	C201	C	0.909809	0.603236	0.595970
	C202	C	0.099460	0.405822	0.595753
	C203	C	0.909596	0.404063	0.397573
	C204	C	0.905410	0.598119	0.096455
	C205	C	0.102985	0.410722	0.096274
	C206	C	0.104005	0.598097	0.897080
	C207	C	0.904200	0.411539	0.897642
	C208	C	0.102778	0.906052	0.590728
	C209	C	0.104851	0.105785	0.401459
	C210	C	0.906259	0.102636	0.590523
	C211	C	0.905384	0.903984	0.402070
	C212	C	0.598272	0.105203	0.897545
	C213	C	0.409326	0.103894	0.095170
	C214	C	0.598862	0.907140	0.093936
	C215	C	0.409539	0.906180	0.897456
	Zn216	Zn	0.504137	0.005440	0.747417
	Zn217	Zn	0.504833	0.005422	0.245152
	Zn218	Zn	0.753062	0.505497	-0.003124
	Zn219	Zn	0.254153	0.504914	-0.003273
	Zn220	Zn	0.004284	0.754297	0.496861
	Zn221	Zn	0.004756	0.255089	0.496811
	Zn222	Zn	0.004404	0.504169	0.746054
	Zn223	Zn	0.004405	0.504186	0.247291
	Zn224	Zn	0.504309	0.756595	-0.005007
	Zn225	Zn	0.503027	0.255353	-0.003471
	Zn226	Zn	0.755087	0.004574	0.495400
	Zn227	Zn	0.254057	0.005292	0.496080
	N228	N	0.417043	0.968577	0.676563
	N229	N	0.590029	0.042537	0.675121
	N230	N	0.591514	0.968920	0.315139
	N231	N	0.418594	0.042237	0.316606
	N232	N	0.679760	0.421782	0.959128
	N233	N	0.682141	0.591986	0.033889
	N234	N	0.327216	0.589399	0.958655
	N235	N	0.325868	0.420468	0.034468
	N236	N	0.967066	0.682808	0.411163
	N237	N	0.041143	0.684267	0.583459
	N238	N	0.967749	0.325632	0.583050
	N239	N	0.042002	0.327117	0.410960
	N240	N	0.967206	0.418869	0.674626
	N241	N	0.042335	0.589323	0.674123
	N242	N	0.966943	0.589511	0.318778
	N243	N	0.041693	0.419062	0.318193
	N244	N	0.417110	0.685566	0.958841
	N245	N	0.590661	0.686080	0.032277
	N246	N	0.589282	0.326737	0.959740
	N247	N	0.415501	0.325108	0.033348
	N248	N	0.682343	0.967444	0.410137
	N249	N	0.682905	0.042397	0.580896
	N250	N	0.325570	0.967610	0.581704
	N251	N	0.327598	0.043240	0.411830
	N252	N	0.917882	0.467216	0.175698
	N253	N	0.090613	0.541341	0.175649
	N254	N	0.090165	0.467482	0.817562
	N255	N	0.918319	0.541502	0.817301
	N256	N	0.181258	0.920700	0.458508
	N257	N	0.182322	0.090117	0.533616
	N258	N	0.828686	0.088020	0.458424
	N259	N	0.825310	0.918582	0.533213
	N260	N	0.466391	0.183671	0.910710
	N261	N	0.540734	0.184324	0.081596
	N262	N	0.466854	0.827525	0.080557
	N263	N	0.540563	0.826484	0.907889
	N264	N	0.466995	0.919817	0.173849
	N265	N	0.541794	0.090679	0.172802
	N266	N	0.466331	0.090535	0.818642
	N267	N	0.541442	0.920402	0.818061
	N268	N	0.919511	0.182610	0.459691
	N269	N	0.092047	0.185034	0.532896
	N270	N	0.090068	0.826205	0.459894
	N271	N	0.917518	0.825129	0.533291
	N272	N	0.182684	0.467300	0.910935
	N273	N	0.182915	0.541972	0.082123
	N274	N	0.823737	0.468231	0.082955
	N275	N	0.825992	0.542475	0.911445
	O276	O	-0.014528	0.026107	0.010103
	H277	H	-0.014723	0.024526	0.003928
	H278	H	-0.010542	0.021161	0.015061
	O279	O	0.479043	0.573024	0.500092
	H280	H	0.475193	0.568525	0.520143
	H281	H	0.476082	0.567563	0.505347
	O282	O	0.553441	0.550301	0.501380
	H283	H	0.557543	0.542436	0.502990
	H284	H	0.550193	0.541546	0.493898
	O285	O	1.029584	-0.028328	0.931174
	H286	H	1.025872	-0.026508	0.927965
	H287	H	1.040217	-0.036251	0.926907
	O288	O	0.949343	-0.030213	0.020963
	H289	H	0.958560	-0.045122	0.035095
	H290	H	0.939376	-0.026659	0.010482
	O291	O	0.536362	0.498104	0.542832
	H292	H	0.538334	0.500603	0.546931
	H293	H	0.536335	0.504448	0.537305
	O294	O	0.997976	-0.003634	0.962411
	H295	H	0.995917	0.002288	0.956797
	H296	H	1.004014	0.000138	0.965283
	O297	O	0.073790	-0.028554	-0.087090
	H298	H	0.067609	-0.021992	-0.097809
	H299	H	0.079366	-0.024889	-0.090763
	O300	O	0.454181	0.554239	0.555029
	H301	H	0.457576	0.561356	0.558935
	H302	H	0.457366	0.551329	0.557834
	O303	O	0.485958	0.391544	0.528436
	H304	H	0.475334	0.387543	0.531548
	H305	H	0.487599	0.388308	0.551334
	O306	O	0.998248	-0.076552	0.030558
	H307	H	0.996189	-0.080336	0.038367
	H308	H	0.996985	-0.073785	0.025107
	O309	O	-0.127017	-0.103457	1.032413
	H310	H	-0.132040	-0.108933	1.042534
	H311	H	-0.132421	-0.110283	1.026575
	O312	O	1.039800	0.954156	1.037563
	H313	H	1.034150	0.961882	1.030066
	H314	H	1.050421	0.954444	1.027106
	O315	O	0.488229	0.506263	0.450189
	H316	H	0.485623	0.509351	0.459000
	H317	H	0.483925	0.508111	0.445295
	O318	O	0.423119	0.471878	0.566171
	H319	H	0.421545	0.472292	0.569529
	H320	H	0.424442	0.475584	0.571543
	O321	O	0.045303	1.040094	1.033923
	H322	H	0.040797	1.047431	1.040291
	H323	H	0.048908	1.040370	1.041788
	O324	O	0.538266	0.510154	0.552989
	H325	H	0.540755	0.517064	0.550250
	H326	H	0.546539	0.515079	0.538445
	O327	O	0.699408	0.690983	0.335895
	H328	H	0.687856	0.691773	0.334626
	H329	H	0.702181	0.678443	0.326068
	O330	O	0.600160	0.589609	0.496036
	H331	H	0.598071	0.583269	0.487892
	H332	H	0.604141	0.594707	0.502100
	O333	O	0.519302	0.530869	0.469308
	H334	H	0.525164	0.522536	0.465572
	H335	H	0.525110	0.534203	0.476458
	O336	O	0.501976	0.517003	0.473907
	H337	H	0.504779	0.513721	0.481035
	H338	H	0.502315	0.520690	0.479275
	O339	O	1.026674	1.013049	0.018670
	H340	H	1.020504	1.012350	0.024182
	H341	H	1.033985	1.009255	0.019527
	O342	O	0.521804	0.480962	0.600225
	H343	H	0.531215	0.484136	0.594959
	H344	H	0.514904	0.492552	0.592886
	O345	O	0.566207	0.547710	0.456412
	H346	H	0.568179	0.550917	0.444161
	H347	H	0.562682	0.553103	0.444339
	O348	O	0.000442	-0.021660	-0.000872
	H349	H	0.002988	-0.019613	-0.003529
	H350	H	0.004391	-0.020934	-0.008988
	O351	O	-0.052383	0.954311	0.988990
	H352	H	-0.054247	0.944379	0.983358
	H353	H	-0.052726	0.955938	0.995862
	O354	O	0.446160	0.528803	0.453880
	H355	H	0.460563	0.535577	0.445605
	H356	H	0.436241	0.538213	0.448006
	O357	O	-0.060016	0.912276	1.055964
	H358	H	-0.048459	0.908953	1.050233
	H359	H	-0.063205	0.921386	1.058091
