data_Molecule from HDF5

_cell_length_a		16.268091
_cell_length_b		16.211294
_cell_length_c		16.344655
_cell_angle_alpha	90.074721
_cell_angle_beta	90.889089
_cell_angle_gamma	90.191486
_symmetry_space_group_name_H-M	'P 1'
_symmetry_Int_Tables_number		1

loop_
	_symmetry_equiv_pos_as_xyz
	x,y,z

loop_
	_atom_site_label
	_atom_site_type_symbol
	_atom_site_fract_x
	_atom_site_fract_y
	_atom_site_fract_z
	H0	H	0.396746	0.837064	0.714242
	H1	H	0.599841	0.164320	0.720248
	H2	H	0.592481	0.836591	0.287587
	H3	H	0.391989	0.163580	0.281382
	H4	H	0.709489	0.398323	0.838162
	H5	H	0.714288	0.599634	0.162919
	H6	H	0.276291	0.600513	0.839461
	H7	H	0.280253	0.396711	0.163458
	H8	H	0.831143	0.713949	0.400060
	H9	H	0.157396	0.718609	0.603786
	H10	H	0.831977	0.285789	0.595469
	H11	H	0.159066	0.286064	0.403821
	H12	H	0.831227	0.401337	0.712656
	H13	H	0.156483	0.605178	0.721412
	H14	H	0.834087	0.603392	0.279802
	H15	H	0.159778	0.401682	0.288292
	H16	H	0.393442	0.714714	0.837933
	H17	H	0.598626	0.716070	0.163299
	H18	H	0.591360	0.285020	0.837613
	H19	H	0.397449	0.283197	0.162830
	H20	H	0.707737	0.837031	0.404890
	H21	H	0.713169	0.166007	0.602664
	H22	H	0.281234	0.837851	0.597777
	H23	H	0.279577	0.164859	0.400227
	H24	H	0.897875	0.337568	0.215459
	H25	H	0.099690	0.664933	0.219894
	H26	H	0.093707	0.337885	0.784462
	H27	H	0.891564	0.664642	0.782756
	H28	H	0.208220	0.900769	0.338078
	H29	H	0.216649	0.104027	0.662287
	H30	H	0.775618	0.103544	0.339069
	H31	H	0.781917	0.902358	0.663615
	H32	H	0.333148	0.215129	0.898430
	H33	H	0.659112	0.215663	0.103851
	H34	H	0.332054	0.785572	0.094902
	H35	H	0.659782	0.784446	0.903829
	H36	H	0.332773	0.898131	0.213103
	H37	H	0.657411	0.101445	0.219956
	H38	H	0.334387	0.101725	0.780664
	H39	H	0.660197	0.899524	0.786795
	H40	H	0.893622	0.216169	0.337435
	H41	H	0.096918	0.216488	0.663594
	H42	H	0.089313	0.787114	0.337857
	H43	H	0.897194	0.786984	0.663669
	H44	H	0.208356	0.335827	0.902611
	H45	H	0.214777	0.663915	0.102922
	H46	H	0.783735	0.336611	0.097865
	H47	H	0.777431	0.664115	0.899216
	H48	H	0.412517	0.117696	0.598190
	H49	H	0.586704	0.883259	0.600463
	H50	H	0.596360	0.119969	0.412978
	H51	H	0.408177	0.886360	0.406811
	H52	H	0.587658	0.404844	0.116338
	H53	H	0.583143	0.593870	0.885844
	H54	H	0.412135	0.596649	0.115951
	H55	H	0.388800	0.406537	0.881309
	H56	H	0.114176	0.601282	0.409067
	H57	H	0.878913	0.593744	0.588061
	H58	H	0.111386	0.410741	0.595682
	H59	H	0.877608	0.406697	0.401656
	H60	H	0.111847	0.411038	0.595980
	H61	H	0.877921	0.590511	0.594992
	H62	H	0.109843	0.594213	0.417839
	H63	H	0.880970	0.407789	0.413011
	H64	H	0.400721	0.594014	0.118746
	H65	H	0.588565	0.593537	0.883997
	H66	H	0.595666	0.406604	0.118279
	H67	H	0.404368	0.418030	0.890822
	H68	H	0.582250	0.119941	0.398062
	H69	H	0.586037	0.887643	0.590101
	H70	H	0.411023	0.113743	0.584074
	H71	H	0.396656	0.884538	0.412755
	H72	H	0.901819	0.620328	0.094927
	H73	H	0.086380	0.384311	0.098018
	H74	H	0.081947	0.615574	0.910193
	H75	H	0.906233	0.384284	0.900567
	H76	H	0.098865	0.916763	0.617314
	H77	H	0.092347	0.093664	0.382706
	H78	H	0.910683	0.089571	0.613319
	H79	H	0.904917	0.908657	0.387132
	H80	H	0.613728	0.092570	0.907831
	H81	H	0.380687	0.089768	0.086601
	H82	H	0.611430	0.909937	0.091847
	H83	H	0.381063	0.903223	0.908685
	H84	H	0.612815	0.911005	0.099896
	H85	H	0.379051	0.088381	0.095123
	H86	H	0.612235	0.094246	0.915108
	H87	H	0.382079	0.913388	0.907158
	H88	H	0.907568	0.099906	0.617170
	H89	H	0.084708	0.090681	0.386789
	H90	H	0.080742	0.915040	0.612350
	H91	H	0.897585	0.903522	0.382596
	H92	H	0.085866	0.615306	0.915434
	H93	H	0.086425	0.386284	0.093013
	H94	H	0.910495	0.617079	0.094686
	H95	H	0.905917	0.387869	0.911592
	H96	H	0.399064	0.120086	0.591594
	H97	H	0.595450	0.883573	0.593414
	H98	H	0.577224	0.112713	0.416626
	H99	H	0.398320	0.880946	0.399805
	H100	H	0.590645	0.412950	0.114911
	H101	H	0.585929	0.588981	0.885611
	H102	H	0.408112	0.584828	0.114039
	H103	H	0.408464	0.398516	0.885148
	H104	H	0.111520	0.588791	0.406472
	H105	H	0.877187	0.598214	0.593611
	H106	H	0.111813	0.409905	0.596082
	H107	H	0.881700	0.416973	0.405175
	H108	H	0.904810	0.616719	0.087050
	H109	H	0.090096	0.383788	0.094814
	H110	H	0.088478	0.618094	0.910181
	H111	H	0.896634	0.382309	0.906838
	H112	H	0.090016	0.899429	0.619824
	H113	H	0.084747	0.099015	0.383405
	H114	H	0.899631	0.092070	0.617663
	H115	H	0.896050	0.913593	0.384475
	H116	H	0.609950	0.088309	0.912964
	H117	H	0.377443	0.096557	0.091014
	H118	H	0.613789	0.904122	0.095975
	H119	H	0.378555	0.907256	0.899213
	C120	C	0.377049	0.009405	0.620580
	C121	C	0.619325	0.992994	0.624103
	C122	C	0.614565	0.009522	0.380589
	C123	C	0.372041	0.992043	0.377122
	C124	C	0.618005	0.378249	0.009019
	C125	C	0.617455	0.621932	0.992091
	C126	C	0.374871	0.621281	0.009092
	C127	C	0.372883	0.377541	0.992723
	C128	C	0.003915	0.623563	0.379658
	C129	C	0.985543	0.624265	0.623425
	C130	C	0.003580	0.380873	0.622205
	C131	C	0.987884	0.380757	0.379259
	C132	C	0.876914	0.509533	0.120668
	C133	C	0.118799	0.492538	0.124892
	C134	C	0.114786	0.508663	0.881607
	C135	C	0.872320	0.492647	0.877310
	C136	C	0.116690	0.880417	0.508935
	C137	C	0.118265	0.123977	0.491999
	C138	C	0.874157	0.123455	0.509025
	C139	C	0.872330	0.879936	0.492274
	C140	C	0.504829	0.121352	0.880303
	C141	C	0.486746	0.121641	0.122131
	C142	C	0.504420	0.878727	0.121937
	C143	C	0.488297	0.878557	0.878136
	C144	C	0.377586	0.886229	0.676158
	C145	C	0.619270	0.115762	0.681366
	C146	C	0.612935	0.885882	0.325279
	C147	C	0.372915	0.114744	0.320310
	C148	C	0.671675	0.379006	0.886638
	C149	C	0.675706	0.620204	0.114304
	C150	C	0.315784	0.619868	0.887641
	C151	C	0.318403	0.378099	0.114752
	C152	C	0.880714	0.677628	0.379576
	C153	C	0.108322	0.680739	0.623436
	C154	C	0.880693	0.323968	0.617661
	C155	C	0.110543	0.324464	0.383315
	C156	C	0.880220	0.381557	0.675504
	C157	C	0.107819	0.624328	0.682174
	C158	C	0.882415	0.622625	0.319809
	C159	C	0.110975	0.382025	0.325838
	C160	C	0.374272	0.676773	0.886864
	C161	C	0.618322	0.678095	0.114500
	C162	C	0.612998	0.322417	0.886447
	C163	C	0.376617	0.321337	0.114603
	C164	C	0.669844	0.885985	0.383960
	C165	C	0.675503	0.116496	0.622935
	C166	C	0.320109	0.886436	0.618243
	C167	C	0.317102	0.115580	0.379290
	C168	C	0.878612	0.386215	0.176711
	C169	C	0.119146	0.615743	0.181320
	C170	C	0.113216	0.386179	0.824011
	C171	C	0.872682	0.615709	0.821238
	C172	C	0.170728	0.881174	0.386775
	C173	C	0.176598	0.123135	0.614043
	C174	C	0.815159	0.122492	0.387339
	C175	C	0.818844	0.881915	0.614780
	C176	C	0.382065	0.177597	0.878772
	C177	C	0.609710	0.177844	0.122861
	C178	C	0.381107	0.822996	0.116861
	C179	C	0.610993	0.822342	0.882344
	C180	C	0.381522	0.879138	0.175400
	C181	C	0.608849	0.121124	0.180783
	C182	C	0.382807	0.121190	0.820225
	C183	C	0.611188	0.879730	0.824324
	C184	C	0.873875	0.178673	0.386486
	C185	C	0.117158	0.179087	0.614729
	C186	C	0.111588	0.824661	0.386624
	C187	C	0.876198	0.824433	0.614744
	C188	C	0.170330	0.385305	0.882772
	C189	C	0.176253	0.615421	0.123238
	C190	C	0.821599	0.385746	0.118432
	C191	C	0.815675	0.615304	0.879086
	C192	C	0.400643	0.095162	0.597900
	C193	C	0.596476	0.907152	0.601238
	C194	C	0.591841	0.095401	0.402702
	C195	C	0.394453	0.906191	0.399845
	C196	C	0.597350	0.401280	0.094197
	C197	C	0.593126	0.598828	0.907077
	C198	C	0.399811	0.598458	0.094436
	C199	C	0.394285	0.400766	0.907766
	C200	C	0.089786	0.601246	0.404167
	C201	C	0.899896	0.601053	0.599203
	C202	C	0.089451	0.403892	0.601937
	C203	C	0.902363	0.403623	0.400444
	C204	C	0.899190	0.595398	0.098523
	C205	C	0.094697	0.406926	0.101919
	C206	C	0.092132	0.594190	0.905248
	C207	C	0.895901	0.406967	0.899819
	C208	C	0.095935	0.903687	0.594214
	C209	C	0.094176	0.101233	0.406400
	C210	C	0.898737	0.100478	0.593990
	C211	C	0.893285	0.902128	0.406974
	C212	C	0.589984	0.098386	0.904987
	C213	C	0.401157	0.098387	0.097901
	C214	C	0.590503	0.901497	0.101722
	C215	C	0.402704	0.901314	0.898808
	Zn216	Zn	0.497614	0.001107	0.750704
	Zn217	Zn	0.494206	0.000291	0.250343
	Zn218	Zn	0.746287	0.500307	0.000298
	Zn219	Zn	0.245585	0.499786	0.002248
	Zn220	Zn	-0.006137	0.751771	0.500898
	Zn221	Zn	-0.004328	0.251708	0.500213
	Zn222	Zn	-0.005683	0.502123	0.750643
	Zn223	Zn	-0.002953	0.501891	0.251266
	Zn224	Zn	0.496041	0.750549	0.000684
	Zn225	Zn	0.495856	0.249935	0.001143
	Zn226	Zn	0.744945	0.002231	0.501400
	Zn227	Zn	0.246260	0.002136	0.500449
	N228	N	0.412301	0.963838	0.677547
	N229	N	0.585159	0.038056	0.682267
	N230	N	0.579058	0.963647	0.323401
	N231	N	0.406409	0.036923	0.318850
	N232	N	0.674963	0.412967	0.963730
	N233	N	0.675380	0.586028	0.037122
	N234	N	0.316082	0.586246	0.964905
	N235	N	0.315891	0.412232	0.037775
	N236	N	0.957369	0.678277	0.416279
	N237	N	0.031123	0.680864	0.587611
	N238	N	0.958443	0.323102	0.585517
	N239	N	0.032971	0.323469	0.415839
	N240	N	0.957544	0.416014	0.678568
	N241	N	0.030501	0.590048	0.682115
	N242	N	0.960185	0.589631	0.319961
	N243	N	0.033790	0.416260	0.323276
	N244	N	0.410535	0.677602	0.963417
	N245	N	0.582567	0.679172	0.037659
	N246	N	0.580388	0.321905	0.963554
	N247	N	0.409967	0.320932	0.037811
	N248	N	0.671064	0.963809	0.417647
	N249	N	0.675772	0.039208	0.588142
	N250	N	0.319714	0.963980	0.584351
	N251	N	0.316175	0.038290	0.413797
	N252	N	0.912165	0.464213	0.178188
	N253	N	0.084707	0.538277	0.182665
	N254	N	0.079623	0.463919	0.822943
	N255	N	0.907314	0.538387	0.820161
	N256	N	0.173993	0.915196	0.464022
	N257	N	0.177266	0.089552	0.536800
	N258	N	0.815070	0.088947	0.464646
	N259	N	0.816362	0.915893	0.537745
	N260	N	0.458684	0.177788	0.915478
	N261	N	0.532546	0.178354	0.087018
	N262	N	0.458701	0.822425	0.084398
	N263	N	0.533568	0.821378	0.915132
	N264	N	0.459061	0.912952	0.178852
	N265	N	0.531421	0.086922	0.180488
	N266	N	0.460343	0.087330	0.820730
	N267	N	0.534074	0.913940	0.821721
	N268	N	0.909864	0.179343	0.463150
	N269	N	0.081778	0.179993	0.537632
	N270	N	0.079055	0.823721	0.463672
	N271	N	0.908703	0.822889	0.537628
	N272	N	0.171265	0.462543	0.918020
	N273	N	0.176274	0.537721	0.089003
	N274	N	0.820299	0.463169	0.084226
	N275	N	0.815300	0.537788	0.913244
	O276	O	0.853330	0.051255	0.977226
	H277	H	0.859983	0.062750	0.963583
	H278	H	0.851224	0.063707	0.955884
	O279	O	0.391873	0.565630	0.396254
	H280	H	0.383225	0.575704	0.396337
	H281	H	0.391777	0.571240	0.392363
	O282	O	0.467104	0.577048	0.567399
	H283	H	0.464922	0.592585	0.565974
	H284	H	0.468243	0.577518	0.565912
	O285	O	0.588285	0.599611	0.583167
	H286	H	0.574851	0.593576	0.578760
	H287	H	0.596069	0.600449	0.597535
	O288	O	0.540707	0.515367	0.648465
	H289	H	0.545412	0.514023	0.651389
	H290	H	0.544190	0.527074	0.644267
	O291	O	0.110322	0.044256	0.978870
	H292	H	0.107532	0.038900	0.992465
	H293	H	0.101241	0.059452	0.967761
	O294	O	0.994113	0.899256	-0.160778
	H295	H	0.999426	0.901242	-0.169036
	H296	H	1.008291	0.887270	-0.150071
	O297	O	1.009141	1.001987	0.113724
	H298	H	1.006105	1.005373	0.124096
	H299	H	1.003549	1.005060	0.105387
	O300	O	0.486256	0.588811	0.473714
	H301	H	0.484008	0.581095	0.463761
	H302	H	0.470675	0.581780	0.467097
	O303	O	0.503354	0.461897	0.410884
	H304	H	0.503133	0.466914	0.425999
	H305	H	0.497715	0.456955	0.411024
	O306	O	0.516473	0.406025	0.564310
	H307	H	0.507885	0.414908	0.559623
	H308	H	0.516886	0.406645	0.567740
	O309	O	0.394436	0.525102	0.403698
	H310	H	0.393858	0.518934	0.405534
	H311	H	0.387422	0.522527	0.394653
	O312	O	1.054543	0.948681	1.003051
	H313	H	1.044659	0.944750	1.012536
	H314	H	1.050516	0.947894	0.999904
	O315	O	1.118926	1.016252	0.042770
	H316	H	1.124422	1.016483	0.051806
	H317	H	1.107564	1.028743	0.030548
	O318	O	0.469699	0.439036	0.522524
	H319	H	0.467079	0.446907	0.523084
	H320	H	0.470314	0.449875	0.514248
	O321	O	0.643794	0.388169	0.441815
	H322	H	0.649088	0.396188	0.434010
	H323	H	0.649455	0.391670	0.454272
	O324	O	0.047579	1.055881	1.169960
	H325	H	0.034136	1.065758	1.175029
	H326	H	0.048596	1.058001	1.165518
	O327	O	-0.056571	1.175481	0.950865
	H328	H	-0.048049	1.183139	0.950121
	H329	H	-0.057290	1.162946	0.952097
	O330	O	0.050082	0.133081	-0.034003
	H331	H	0.061973	0.128582	-0.040056
	H332	H	0.046649	0.139210	-0.028423
	O333	O	0.493538	0.433919	0.480010
	H334	H	0.505100	0.427865	0.486094
	H335	H	0.477006	0.434988	0.470530
	O336	O	0.052985	0.000068	-0.138550
	H337	H	0.075941	0.006398	-0.137339
	H338	H	0.063897	0.005705	-0.133625
	O339	O	0.002428	0.104273	-0.108777
	H340	H	0.009253	0.113149	-0.096834
	H341	H	-0.003420	0.098378	-0.114817
	O342	O	0.415661	0.503301	0.615462
	H343	H	0.419455	0.501550	0.600887
	H344	H	0.414777	0.506407	0.633428
	O345	O	0.046088	1.075081	0.982361
	H346	H	0.036162	1.074473	0.995664
	H347	H	0.050798	1.084882	0.978537
	O348	O	0.405605	0.507699	0.500251
	H349	H	0.399512	0.503480	0.502340
	H350	H	0.409347	0.509627	0.489714
	O351	O	0.584577	0.462821	0.519207
	H352	H	0.595165	0.462025	0.529850
	H353	H	0.575364	0.462358	0.513333
	O354	O	0.104069	1.028414	0.100598
	H355	H	0.102362	1.032080	0.110816
	H356	H	0.088608	1.032738	0.102611
	O357	O	0.526486	0.412913	0.389915
	H358	H	0.521139	0.405073	0.378498
	H359	H	0.526520	0.406686	0.382419
	O360	O	0.904435	-0.043572	1.007651
	H361	H	0.900649	-0.053500	1.004190
	H362	H	0.898800	-0.035641	1.002663
	O363	O	0.441030	0.487147	0.553512
	H364	H	0.438541	0.496859	0.549900
	H365	H	0.438455	0.475326	0.558605
	O366	O	0.368141	0.506620	0.457301
	H367	H	0.361911	0.497314	0.458571
	H368	H	0.361969	0.522171	0.453698
	O369	O	0.999854	-0.074870	0.159194
	H370	H	0.977900	-0.082790	0.150246
	H371	H	1.001518	-0.065932	0.164416
	O372	O	0.552334	0.616340	0.519393
	H373	H	0.553589	0.625888	0.519396
	H374	H	0.559328	0.611136	0.536188
	O375	O	0.972101	-0.130802	1.047846
	H376	H	0.981275	-0.126399	1.060714
	H377	H	0.962524	-0.126224	1.049957
	O378	O	-0.119012	1.102169	-0.035954
	H379	H	-0.115666	1.101312	-0.054149
	H380	H	-0.124214	1.096983	-0.050621
	O381	O	0.428846	0.461212	0.448284
	H382	H	0.429852	0.464164	0.453621
	H383	H	0.429834	0.468173	0.443603
	O384	O	0.941323	0.879440	-0.034384
	H385	H	0.935116	0.871146	-0.036664
	H386	H	0.950510	0.874469	-0.042665
	O387	O	1.017186	-0.059855	0.931654
	H388	H	1.017342	-0.049720	0.927764
	H389	H	1.021166	-0.067504	0.933611
	O390	O	0.888734	1.037992	0.031346
	H391	H	0.886393	1.042782	0.034223
	H392	H	0.873950	1.026530	0.012146
	O393	O	0.618565	0.532655	0.445600
	H394	H	0.627398	0.533032	0.446293
	H395	H	0.624072	0.518776	0.439526
