data_Molecule from HDF5

_cell_length_a		16.380444
_cell_length_b		16.394200
_cell_length_c		16.493979
_cell_angle_alpha	89.977020
_cell_angle_beta	90.020621
_cell_angle_gamma	90.038391
_symmetry_space_group_name_H-M	'P 1'
_symmetry_Int_Tables_number		1

loop_
	_symmetry_equiv_pos_as_xyz
	x,y,z

loop_
	_atom_site_label
	_atom_site_type_symbol
	_atom_site_fract_x
	_atom_site_fract_y
	_atom_site_fract_z
	H0	H	0.386649	0.832719	0.730909
	H1	H	0.604518	0.148114	0.734522
	H2	H	0.605115	0.832345	0.287104
	H3	H	0.391546	0.148661	0.285685
	H4	H	0.721147	0.382398	0.850244
	H5	H	0.716223	0.591888	0.166335
	H6	H	0.273009	0.597268	0.850579
	H7	H	0.272822	0.382414	0.165261
	H8	H	0.837019	0.711610	0.404794
	H9	H	0.155643	0.714293	0.614501
	H10	H	0.838723	0.270147	0.614415
	H11	H	0.155738	0.271659	0.403300
	H12	H	0.838500	0.384389	0.730367
	H13	H	0.154383	0.600520	0.732453
	H14	H	0.838470	0.597944	0.287163
	H15	H	0.154687	0.385264	0.286109
	H16	H	0.388527	0.713922	0.850342
	H17	H	0.600540	0.709155	0.166253
	H18	H	0.603770	0.266614	0.850322
	H19	H	0.392908	0.268979	0.166420
	H20	H	0.719445	0.833621	0.402987
	H21	H	0.717931	0.150763	0.616034
	H22	H	0.272862	0.833090	0.613731
	H23	H	0.275598	0.150303	0.401171
	H24	H	0.890975	0.333974	0.230463
	H25	H	0.104198	0.650049	0.229560
	H26	H	0.102477	0.332898	0.785652
	H27	H	0.891112	0.649396	0.788322
	H28	H	0.217349	0.886869	0.349707
	H29	H	0.217752	0.095884	0.667006
	H30	H	0.774627	0.098054	0.350439
	H31	H	0.775291	0.888561	0.667235
	H32	H	0.337980	0.213028	0.901309
	H33	H	0.656633	0.209854	0.112254
	H34	H	0.336924	0.770518	0.109727
	H35	H	0.657009	0.772127	0.905566
	H36	H	0.338139	0.881767	0.230203
	H37	H	0.655484	0.094909	0.228998
	H38	H	0.337111	0.096275	0.787223
	H39	H	0.654465	0.884090	0.785982
	H40	H	0.891805	0.214137	0.350323
	H41	H	0.100626	0.212044	0.667977
	H42	H	0.100414	0.771495	0.349674
	H43	H	0.890140	0.770475	0.667058
	H44	H	0.217625	0.331838	0.901708
	H45	H	0.217210	0.650142	0.110830
	H46	H	0.780238	0.330879	0.110616
	H47	H	0.776083	0.649391	0.903637
	H48	H	0.401947	0.106935	0.600913
	H49	H	0.593042	0.877715	0.592561
	H50	H	0.581731	0.101784	0.422547
	H51	H	0.408519	0.877549	0.418643
	H52	H	0.587329	0.391619	0.123185
	H53	H	0.589388	0.575389	0.894357
	H54	H	0.411025	0.583599	0.120347
	H55	H	0.409275	0.401939	0.896637
	H56	H	0.109847	0.583186	0.421706
	H57	H	0.883738	0.579659	0.597211
	H58	H	0.111192	0.398845	0.596781
	H59	H	0.882123	0.404592	0.414274
	H60	H	0.107335	0.408002	0.593847
	H61	H	0.883113	0.580465	0.599968
	H62	H	0.110497	0.578767	0.419032
	H63	H	0.882394	0.400726	0.422385
	H64	H	0.401792	0.579648	0.122348
	H65	H	0.581485	0.579534	0.895918
	H66	H	0.595344	0.404270	0.122134
	H67	H	0.408453	0.401086	0.895473
	H68	H	0.590002	0.105627	0.418802
	H69	H	0.581334	0.877789	0.605451
	H70	H	0.416077	0.102780	0.602744
	H71	H	0.407229	0.877907	0.419995
	H72	H	0.900365	0.606223	0.090960
	H73	H	0.083615	0.378590	0.095408
	H74	H	0.095675	0.610704	0.911195
	H75	H	0.906271	0.376918	0.920892
	H76	H	0.076318	0.904264	0.617055
	H77	H	0.084319	0.076391	0.398174
	H78	H	0.911068	0.085372	0.621499
	H79	H	0.901974	0.906220	0.395181
	H80	H	0.610263	0.076274	0.915096
	H81	H	0.381929	0.078298	0.101162
	H82	H	0.609223	0.904658	0.098722
	H83	H	0.380607	0.899069	0.915834
	H84	H	0.613088	0.898190	0.102786
	H85	H	0.383792	0.081779	0.093557
	H86	H	0.609038	0.081238	0.924188
	H87	H	0.383180	0.899081	0.921816
	H88	H	0.902746	0.083240	0.623715
	H89	H	0.082017	0.088459	0.394830
	H90	H	0.088949	0.895749	0.624321
	H91	H	0.911991	0.907450	0.399203
	H92	H	0.070832	0.601124	0.914103
	H93	H	0.086302	0.377147	0.098875
	H94	H	0.906255	0.608815	0.106571
	H95	H	0.907934	0.375456	0.914811
	H96	H	0.408853	0.101316	0.589964
	H97	H	0.577021	0.883671	0.589701
	H98	H	0.581437	0.105656	0.412855
	H99	H	0.406404	0.877246	0.418062
	H100	H	0.581120	0.403263	0.116836
	H101	H	0.588472	0.583939	0.892474
	H102	H	0.408836	0.573843	0.117480
	H103	H	0.407473	0.402038	0.895497
	H104	H	0.112106	0.583019	0.417434
	H105	H	0.883762	0.582259	0.598117
	H106	H	0.111240	0.406445	0.602769
	H107	H	0.885353	0.408745	0.421054
	H108	H	0.916236	0.601873	0.094659
	H109	H	0.081913	0.378208	0.099591
	H110	H	0.088215	0.599802	0.934995
	H111	H	0.912438	0.377499	0.919137
	H112	H	0.091417	0.911751	0.619957
	H113	H	0.093378	0.083383	0.393369
	H114	H	0.907604	0.077112	0.618829
	H115	H	0.909227	0.898008	0.395371
	H116	H	0.605910	0.072025	0.922964
	H117	H	0.385363	0.073831	0.095141
	H118	H	0.610531	0.897325	0.095011
	H119	H	0.383528	0.904183	0.918355
	C120	C	0.375201	-0.000801	0.629924
	C121	C	0.617014	0.983785	0.629715
	C122	C	0.618162	-0.000245	0.386292
	C123	C	0.375437	0.982707	0.386431
	C124	C	0.620242	0.367252	0.016296
	C125	C	0.618113	0.610819	0.999017
	C126	C	0.374472	0.611798	0.016110
	C127	C	0.375413	0.368698	0.999782
	C128	C	0.005494	0.613685	0.387342
	C129	C	0.988205	0.613629	0.631057
	C130	C	0.005436	0.371224	0.630077
	C131	C	0.988186	0.371410	0.386844
	C132	C	0.875983	0.500411	0.129089
	C133	C	0.117440	0.482827	0.129638
	C134	C	0.117891	0.499380	0.886720
	C135	C	0.875731	0.481439	0.886479
	C136	C	0.117859	0.871122	0.516034
	C137	C	0.118769	0.114450	0.500090
	C138	C	0.874832	0.114497	0.517167
	C139	C	0.875066	0.871679	0.500827
	C140	C	0.504230	0.110626	0.887289
	C141	C	0.488657	0.110659	0.128784
	C142	C	0.505520	0.868088	0.130099
	C143	C	0.487489	0.868069	0.886082
	C144	C	0.370211	0.880165	0.690554
	C145	C	0.621394	0.101491	0.692716
	C146	C	0.622428	0.880296	0.326734
	C147	C	0.373325	0.101470	0.325572
	C148	C	0.680785	0.364365	0.897818
	C149	C	0.676987	0.611357	0.118618
	C150	C	0.313509	0.614957	0.897691
	C151	C	0.314006	0.364978	0.118152
	C152	C	0.885450	0.672662	0.385744
	C153	C	0.107490	0.674493	0.633407
	C154	C	0.886140	0.310433	0.632219
	C155	C	0.107716	0.311457	0.385022
	C156	C	0.886141	0.367537	0.690124
	C157	C	0.107102	0.617488	0.691908
	C158	C	0.886150	0.616155	0.326966
	C159	C	0.107327	0.368279	0.326508
	C160	C	0.371282	0.673126	0.897716
	C161	C	0.619417	0.669668	0.118631
	C162	C	0.622415	0.306587	0.897752
	C163	C	0.373394	0.308371	0.118762
	C164	C	0.679490	0.881033	0.384727
	C165	C	0.677867	0.102816	0.633750
	C166	C	0.313437	0.880329	0.632080
	C167	C	0.315997	0.102319	0.383609
	C168	C	0.873954	0.381028	0.189586
	C169	C	0.121532	0.602411	0.189189
	C170	C	0.120423	0.380175	0.826092
	C171	C	0.872715	0.601463	0.827139
	C172	C	0.177483	0.868804	0.397144
	C173	C	0.178299	0.115222	0.619546
	C174	C	0.814739	0.116423	0.398035
	C175	C	0.815443	0.870162	0.619959
	C176	C	0.385548	0.172490	0.883822
	C177	C	0.608790	0.169887	0.130237
	C178	C	0.384959	0.809407	0.129695
	C179	C	0.608211	0.810198	0.885396
	C180	C	0.385795	0.865065	0.189604
	C181	C	0.608129	0.112898	0.188618
	C182	C	0.384889	0.114108	0.826991
	C183	C	0.606992	0.866110	0.826033
	C184	C	0.873052	0.174186	0.397906
	C185	C	0.119828	0.172970	0.619979
	C186	C	0.119137	0.811212	0.397257
	C187	C	0.872629	0.811336	0.619715
	C188	C	0.177674	0.379597	0.884201
	C189	C	0.177963	0.602342	0.130285
	C190	C	0.818476	0.379403	0.130054
	C191	C	0.815388	0.601294	0.884671
	C192	C	0.401455	0.082177	0.604960
	C193	C	0.591269	0.901344	0.603437
	C194	C	0.591845	0.082768	0.411022
	C195	C	0.400195	0.899420	0.411691
	C196	C	0.595137	0.392499	0.099217
	C197	C	0.593559	0.586716	0.915809
	C198	C	0.399978	0.586212	0.098537
	C199	C	0.400979	0.394294	0.917369
	C200	C	0.089122	0.588835	0.412272
	C201	C	0.905115	0.587998	0.605855
	C202	C	0.088391	0.396986	0.604983
	C203	C	0.905012	0.397055	0.412114
	C204	C	0.900546	0.583879	0.104494
	C205	C	0.091449	0.399608	0.105167
	C206	C	0.092262	0.582406	0.912654
	C207	C	0.901422	0.398345	0.911217
	C208	C	0.092820	0.896596	0.598791
	C209	C	0.093852	0.089954	0.417251
	C210	C	0.899876	0.089250	0.599758
	C211	C	0.900543	0.896638	0.418144
	C212	C	0.586974	0.083872	0.913208
	C213	C	0.405277	0.085205	0.103810
	C214	C	0.589146	0.892908	0.105756
	C215	C	0.404144	0.893232	0.911368
	Zn216	Zn	0.495827	-0.009820	0.758774
	Zn217	Zn	0.497170	-0.010525	0.257996
	Zn218	Zn	0.748462	0.490040	0.007667
	Zn219	Zn	0.245874	0.489923	0.007875
	Zn220	Zn	-0.003699	0.741876	0.508960
	Zn221	Zn	-0.002982	0.243072	0.508771
	Zn222	Zn	-0.003226	0.491484	0.758919
	Zn223	Zn	-0.003094	0.492703	0.258446
	Zn224	Zn	0.497043	0.740277	0.007859
	Zn225	Zn	0.497093	0.239395	0.007931
	Zn226	Zn	0.745391	-0.007364	0.508711
	Zn227	Zn	0.247064	-0.007902	0.507981
	N228	N	0.407846	0.955161	0.689380
	N229	N	0.583873	0.026607	0.690099
	N230	N	0.584940	0.955206	0.327678
	N231	N	0.409678	0.025819	0.327234
	N232	N	0.679487	0.401334	0.972596
	N233	N	0.676448	0.575668	0.043241
	N234	N	0.315619	0.577336	0.972233
	N235	N	0.315071	0.401759	0.043124
	N236	N	0.960769	0.671298	0.422549
	N237	N	0.032605	0.672175	0.596035
	N238	N	0.961271	0.312813	0.595280
	N239	N	0.032548	0.313254	0.421931
	N240	N	0.961211	0.404812	0.688832
	N241	N	0.031874	0.580229	0.690396
	N242	N	0.962018	0.580283	0.327805
	N243	N	0.031935	0.404891	0.327703
	N244	N	0.408727	0.671213	0.972259
	N245	N	0.583598	0.669677	0.043233
	N246	N	0.585540	0.308308	0.972492
	N247	N	0.410812	0.310497	0.044280
	N248	N	0.676892	0.956289	0.421207
	N249	N	0.675047	0.028740	0.594979
	N250	N	0.316363	0.955220	0.594912
	N251	N	0.317033	0.027275	0.420548
	N252	N	0.909209	0.457205	0.189301
	N253	N	0.084580	0.527087	0.188849
	N254	N	0.084211	0.455713	0.827551
	N255	N	0.909280	0.525956	0.827848
	N256	N	0.176729	0.905395	0.472166
	N257	N	0.178061	0.079881	0.543991
	N258	N	0.815574	0.080117	0.473091
	N259	N	0.816763	0.906888	0.545103
	N260	N	0.460855	0.170398	0.920693
	N261	N	0.533332	0.168526	0.093763
	N262	N	0.460386	0.811051	0.093454
	N263	N	0.532694	0.811031	0.921704
	N264	N	0.461913	0.900541	0.190027
	N265	N	0.532399	0.076743	0.187944
	N266	N	0.459871	0.076472	0.828857
	N267	N	0.530733	0.901021	0.826149
	N268	N	0.909584	0.173232	0.472941
	N269	N	0.083971	0.172769	0.544634
	N270	N	0.083025	0.812329	0.472394
	N271	N	0.908977	0.812049	0.544676
	N272	N	0.175990	0.454734	0.921198
	N273	N	0.175689	0.526839	0.094147
	N274	N	0.819894	0.454417	0.092985
	N275	N	0.817143	0.525741	0.920677
	O276	O	0.299191	0.700595	0.490971
	H277	H	0.307601	0.688888	0.476564
	H278	H	0.277734	0.725486	0.476277
	O279	O	0.287900	0.419255	0.564142
	H280	H	0.298992	0.432309	0.580008
	H281	H	0.279683	0.401942	0.548217
	O282	O	0.465447	0.395746	0.711726
	H283	H	0.459091	0.374901	0.712641
	H284	H	0.460755	0.401528	0.691200
	O285	O	1.142034	1.140277	0.001119
	H286	H	1.161306	1.168544	0.006682
	H287	H	1.126670	1.124601	0.020302
	O288	O	0.387885	0.474731	0.614667
	H289	H	0.367371	0.465962	0.620501
	H290	H	0.380626	0.495406	0.598442
	O291	O	0.524001	0.709755	0.725218
	H292	H	0.505094	0.723398	0.706781
	H293	H	0.516310	0.726919	0.750494
	O294	O	1.141369	0.921209	1.097210
	H295	H	1.135885	0.931039	1.110402
	H296	H	1.137713	0.904891	1.107976
	O297	O	0.300581	0.566170	0.308660
	H298	H	0.286033	0.546854	0.316678
	H299	H	0.296162	0.543099	0.304582
	O300	O	0.549250	0.517700	0.378670
	H301	H	0.532776	0.510837	0.376695
	H302	H	0.548723	0.526742	0.395418
	O303	O	0.390105	0.561470	0.515230
	H304	H	0.380878	0.573140	0.506465
	H305	H	0.387168	0.536188	0.515170
	O306	O	0.160457	-0.095560	0.833310
	H307	H	0.162969	-0.095317	0.834496
	H308	H	0.173803	-0.097546	0.837571
	O309	O	0.921636	-0.041177	-0.080058
	H310	H	0.932794	-0.045421	-0.085746
	H311	H	0.945039	-0.060239	-0.086776
	O312	O	0.699317	0.403516	0.499015
	H313	H	0.703282	0.407027	0.490836
	H314	H	0.708150	0.426276	0.486478
	O315	O	0.553598	0.371234	0.718833
	H316	H	0.542994	0.378639	0.732140
	H317	H	0.553775	0.370837	0.715818
	O318	O	-0.195347	-0.055764	0.058307
	H319	H	-0.191554	-0.047103	0.049241
	H320	H	-0.207296	-0.040483	0.069485
	O321	O	0.707449	0.322804	0.415760
	H322	H	0.728809	0.310542	0.413702
	H323	H	0.711862	0.330906	0.406124
	O324	O	0.442192	0.513090	0.610586
	H325	H	0.439812	0.527891	0.596052
	H326	H	0.441720	0.500979	0.602456
	O327	O	0.646371	0.581352	0.391199
	H328	H	0.647297	0.597634	0.394899
	H329	H	0.651093	0.569003	0.403757
	O330	O	0.133085	1.000101	0.964553
	H331	H	0.132821	1.022927	0.971599
	H332	H	0.148259	1.001561	0.973995
	O333	O	-0.205032	1.275807	0.284549
	H334	H	-0.231815	1.264956	0.266988
	H335	H	-0.213195	1.292550	0.293978
	O336	O	1.134454	0.866048	-0.009873
	H337	H	1.124760	0.855126	0.001632
	H338	H	1.134454	0.879865	-0.011395
	O339	O	-0.071773	0.844016	0.827867
	H340	H	-0.065779	0.846145	0.817231
	H341	H	-0.070592	0.849072	0.829413
	O342	O	0.030858	0.856761	0.144657
	H343	H	0.019513	0.842484	0.146394
	H344	H	0.041860	0.869627	0.143409
	O345	O	-0.167511	0.197206	1.006023
	H346	H	-0.173236	0.204743	0.990735
	H347	H	-0.176086	0.201200	0.990794
	O348	O	0.705836	0.703898	0.529100
	H349	H	0.709425	0.705391	0.569635
	H350	H	0.712393	0.725517	0.542258
	O351	O	1.038888	1.157899	0.070501
	H352	H	1.034260	1.164737	0.088473
	H353	H	1.057756	1.161447	0.065295
	O354	O	0.845664	0.946306	0.921249
	H355	H	0.851178	0.959440	0.924313
	H356	H	0.825912	0.945878	0.911189
	O357	O	-0.033137	0.176929	-0.145155
	H358	H	-0.019239	0.170398	-0.137755
	H359	H	-0.022196	0.192558	-0.157215
	O360	O	0.513150	0.514023	0.322247
	H361	H	0.516185	0.496442	0.323316
	H362	H	0.502247	0.504823	0.319015
	O363	O	1.008555	-0.038077	0.130822
	H364	H	1.003135	-0.024410	0.127831
	H365	H	1.007144	-0.024878	0.127364
	O366	O	0.031275	-0.011823	0.812462
	H367	H	0.043436	-0.016215	0.804120
	H368	H	0.026716	-0.032046	0.813083
	O369	O	0.894260	-0.205433	1.182290
	H370	H	0.888142	-0.213157	1.181792
	H371	H	0.924395	-0.212437	1.172863
	O372	O	0.896023	0.182978	0.244646
	H373	H	0.895446	0.207165	0.235608
	H374	H	0.895943	0.188936	0.237207
	O375	O	0.376787	-0.570269	0.705453
	H376	H	0.387113	-0.559746	0.703510
	H377	H	0.387454	-0.536849	0.713467
	O378	O	0.511287	0.694820	0.461255
	H379	H	0.523173	0.695189	0.462397
	H380	H	0.528828	0.699129	0.470644
	O381	O	-0.085276	0.903988	0.017184
	H382	H	-0.076911	0.892609	0.003185
	H383	H	-0.080206	0.901892	0.027923
	O384	O	0.437626	0.375293	0.508043
	H385	H	0.449188	0.365820	0.505065
	H386	H	0.420222	0.362599	0.522220
	O387	O	0.299861	0.296680	0.611274
	H388	H	0.288492	0.289511	0.613277
	H389	H	0.314137	0.309567	0.637715
	O390	O	1.032362	0.971525	0.158563
	H391	H	1.025351	0.962999	0.162662
	H392	H	1.039879	0.967317	0.154113
	O393	O	1.481396	0.329375	0.317620
	H394	H	1.480144	0.317221	0.312108
	H395	H	1.470534	0.341436	0.336583
	O396	O	0.705712	0.516638	0.720420
	H397	H	0.698821	0.492789	0.726366
	H398	H	0.720745	0.504979	0.735404
	O399	O	0.364650	0.686926	0.318644
	H400	H	0.345270	0.645534	0.311535
	H401	H	0.393106	0.703243	0.300089
	O402	O	1.178329	1.174186	0.186268
	H403	H	1.152250	1.174424	0.189200
	H404	H	1.171892	1.146985	0.193663
	O405	O	0.646126	0.515896	0.494987
	H406	H	0.648761	0.525365	0.507748
	H407	H	0.645092	0.522720	0.484168
	O408	O	0.449682	0.327054	0.364447
	H409	H	0.461828	0.336362	0.367144
	H410	H	0.442149	0.307812	0.377067
	O411	O	0.997729	1.056865	1.085642
	H412	H	1.009944	1.052118	1.090462
	H413	H	0.972597	1.060788	1.092579
	O414	O	0.520301	0.305240	0.478716
	H415	H	0.534138	0.295707	0.481622
	H416	H	0.528219	0.305936	0.496690
	O417	O	-0.127634	0.938274	0.833224
	H418	H	-0.127440	0.941154	0.837920
	H419	H	-0.124868	0.934512	0.833079
	O420	O	-0.045510	1.072222	0.974152
	H421	H	-0.040293	1.075738	0.968225
	H422	H	-0.062620	1.063187	0.984870
	O423	O	-0.015082	0.823767	-0.104277
	H424	H	-0.016295	0.809033	-0.100530
	H425	H	-0.026075	0.821377	-0.105376
	O426	O	0.398518	0.531616	0.680577
	H427	H	0.405067	0.540682	0.677392
	H428	H	0.400515	0.539740	0.665466
	O429	O	0.684408	0.678125	0.689498
	H430	H	0.631191	0.688598	0.702347
	H431	H	0.693920	0.625129	0.701922
	O432	O	0.500541	0.674365	0.372434
	H433	H	0.502637	0.679178	0.366299
	H434	H	0.508527	0.665821	0.372022
	O435	O	-0.135096	0.113842	0.103808
	H436	H	-0.137209	0.101008	0.124977
	H437	H	-0.134142	0.106951	0.094410
	O438	O	0.079721	0.956143	1.099551
	H439	H	0.078820	0.946166	1.101962
	H440	H	0.080987	0.955008	1.091444
	O441	O	0.442879	0.370909	0.399798
	H442	H	0.451806	0.368632	0.403460
	H443	H	0.453575	0.361275	0.402217
