data_Molecule from HDF5

_cell_length_a		16.303252
_cell_length_b		16.342845
_cell_length_c		16.144940
_cell_angle_alpha	90.175700
_cell_angle_beta	89.647027
_cell_angle_gamma	90.291308
_symmetry_space_group_name_H-M	'P 1'
_symmetry_Int_Tables_number		1

loop_
	_symmetry_equiv_pos_as_xyz
	x,y,z

loop_
	_atom_site_label
	_atom_site_type_symbol
	_atom_site_fract_x
	_atom_site_fract_y
	_atom_site_fract_z
	H0	H	0.397896	0.839880	0.711583
	H1	H	0.594711	0.167172	0.707648
	H2	H	0.594425	0.839614	0.279283
	H3	H	0.399292	0.165746	0.281698
	H4	H	0.712554	0.407124	0.830359
	H5	H	0.716069	0.607869	0.158414
	H6	H	0.287835	0.602067	0.829602
	H7	H	0.279969	0.402943	0.157928
	H8	H	0.835755	0.717794	0.393373
	H9	H	0.160447	0.719931	0.596001
	H10	H	0.834936	0.285399	0.596818
	H11	H	0.160048	0.284444	0.390612
	H12	H	0.835240	0.403265	0.711453
	H13	H	0.162575	0.599951	0.705244
	H14	H	0.834733	0.598731	0.281083
	H15	H	0.161284	0.404044	0.278658
	H16	H	0.402586	0.717210	0.830892
	H17	H	0.599391	0.719674	0.159356
	H18	H	0.600172	0.288701	0.830913
	H19	H	0.395652	0.289304	0.159685
	H20	H	0.712608	0.839042	0.392828
	H21	H	0.716838	0.163006	0.597497
	H22	H	0.280176	0.839185	0.596765
	H23	H	0.282265	0.164423	0.397363
	H24	H	0.897623	0.339674	0.208788
	H25	H	0.099040	0.664799	0.211433
	H26	H	0.097562	0.339698	0.778220
	H27	H	0.903331	0.665634	0.780132
	H28	H	0.213920	0.901881	0.331383
	H29	H	0.210739	0.101389	0.660440
	H30	H	0.783780	0.098548	0.330420
	H31	H	0.780090	0.900040	0.659234
	H32	H	0.336787	0.221349	0.894250
	H33	H	0.659950	0.222233	0.097205
	H34	H	0.337141	0.783571	0.098942
	H35	H	0.661890	0.789380	0.893542
	H36	H	0.334125	0.905131	0.208450
	H37	H	0.661442	0.102438	0.208825
	H38	H	0.333507	0.100095	0.785289
	H39	H	0.660963	0.907277	0.779350
	H40	H	0.896569	0.216984	0.331424
	H41	H	0.096462	0.218100	0.659273
	H42	H	0.098495	0.787185	0.330650
	H43	H	0.897456	0.786417	0.659851
	H44	H	0.216568	0.340970	0.891240
	H45	H	0.215676	0.665751	0.095128
	H46	H	0.777729	0.342564	0.097693
	H47	H	0.784617	0.666408	0.893815
	H48	H	0.405676	0.120442	0.599413
	H49	H	0.588037	0.884846	0.593233
	H50	H	0.594782	0.117469	0.405888
	H51	H	0.400788	0.885858	0.403195
	H52	H	0.588874	0.409815	0.113539
	H53	H	0.584932	0.583795	0.884475
	H54	H	0.408865	0.579072	0.106941
	H55	H	0.420321	0.417267	0.883236
	H56	H	0.114758	0.600359	0.406580
	H57	H	0.882867	0.597985	0.582603
	H58	H	0.112645	0.417704	0.589713
	H59	H	0.880463	0.407220	0.397692
	H60	H	0.118890	0.399989	0.590810
	H61	H	0.883718	0.589068	0.588065
	H62	H	0.110297	0.589608	0.407502
	H63	H	0.881255	0.403092	0.407019
	H64	H	0.419871	0.603594	0.111117
	H65	H	0.584239	0.611508	0.875582
	H66	H	0.592256	0.414461	0.112672
	H67	H	0.408711	0.398262	0.874348
	H68	H	0.592885	0.119473	0.400422
	H69	H	0.583120	0.889025	0.584550
	H70	H	0.409029	0.115051	0.581748
	H71	H	0.404457	0.885390	0.398741
	H72	H	0.907079	0.616763	0.080139
	H73	H	0.096895	0.384651	0.088231
	H74	H	0.099940	0.624486	0.887757
	H75	H	0.908283	0.388197	0.904825
	H76	H	0.093524	0.915524	0.612577
	H77	H	0.090745	0.082480	0.381900
	H78	H	0.906542	0.100004	0.613648
	H79	H	0.916890	0.899443	0.377926
	H80	H	0.616437	0.094441	0.895609
	H81	H	0.384286	0.096705	0.079326
	H82	H	0.611240	0.910716	0.074706
	H83	H	0.379796	0.902401	0.901958
	H84	H	0.613496	0.921650	0.093468
	H85	H	0.382607	0.089006	0.091060
	H86	H	0.616841	0.105158	0.903043
	H87	H	0.384173	0.909356	0.912028
	H88	H	0.899141	0.090078	0.613025
	H89	H	0.081457	0.097807	0.379077
	H90	H	0.081215	0.909312	0.610165
	H91	H	0.894180	0.904611	0.373255
	H92	H	0.080772	0.614435	0.901005
	H93	H	0.084098	0.388573	0.087767
	H94	H	0.902388	0.621339	0.090337
	H95	H	0.902464	0.387699	0.905174
	H96	H	0.392730	0.120703	0.586804
	H97	H	0.592773	0.885775	0.584426
	H98	H	0.589109	0.117547	0.404467
	H99	H	0.406816	0.887378	0.404270
	H100	H	0.587176	0.415056	0.110916
	H101	H	0.608822	0.595858	0.872308
	H102	H	0.393004	0.599034	0.117556
	H103	H	0.397905	0.419167	0.876408
	H104	H	0.115254	0.593167	0.397622
	H105	H	0.879451	0.596955	0.592769
	H106	H	0.111114	0.407011	0.574809
	H107	H	0.884550	0.413475	0.405740
	H108	H	0.913462	0.617603	0.090408
	H109	H	0.091740	0.389539	0.076893
	H110	H	0.102896	0.618277	0.912468
	H111	H	0.904908	0.387052	0.900260
	H112	H	0.091205	0.902276	0.615682
	H113	H	0.099325	0.097284	0.373831
	H114	H	0.911345	0.089579	0.608734
	H115	H	0.908501	0.921012	0.382888
	H116	H	0.611814	0.094219	0.908097
	H117	H	0.378882	0.102324	0.091313
	H118	H	0.619511	0.900680	0.092421
	H119	H	0.382480	0.914160	0.900799
	C120	C	0.373825	0.010840	0.618696
	C121	C	0.617972	0.993987	0.616447
	C122	C	0.619949	0.010652	0.373426
	C123	C	0.375752	0.993947	0.374101
	C124	C	0.619293	0.383922	0.003805
	C125	C	0.621525	0.626160	0.986203
	C126	C	0.378781	0.623507	0.003330
	C127	C	0.377272	0.382043	0.986300
	C128	C	0.006318	0.623465	0.373736
	C129	C	0.990355	0.623422	0.616352
	C130	C	0.006655	0.379590	0.616022
	C131	C	0.989376	0.378693	0.372263
	C132	C	0.876792	0.511628	0.116342
	C133	C	0.120422	0.494654	0.114928
	C134	C	0.122592	0.511535	0.871022
	C135	C	0.877807	0.495209	0.874083
	C136	C	0.118908	0.880348	0.503971
	C137	C	0.119009	0.122735	0.486913
	C138	C	0.876681	0.121832	0.503445
	C139	C	0.876063	0.878774	0.486559
	C140	C	0.506772	0.126001	0.874248
	C141	C	0.489583	0.125529	0.116740
	C142	C	0.507193	0.881223	0.116928
	C143	C	0.489678	0.881264	0.874600
	C144	C	0.376612	0.888628	0.674001
	C145	C	0.615534	0.117540	0.670671
	C146	C	0.615698	0.888199	0.317120
	C147	C	0.378468	0.116738	0.319176
	C148	C	0.674764	0.386299	0.879511
	C149	C	0.677518	0.625894	0.109599
	C150	C	0.324896	0.621888	0.879131
	C151	C	0.319154	0.383308	0.109327
	C152	C	0.884330	0.679560	0.374331
	C153	C	0.112367	0.680315	0.614426
	C154	C	0.883729	0.323766	0.616267
	C155	C	0.111574	0.322886	0.371783
	C156	C	0.884115	0.382116	0.673439
	C157	C	0.113439	0.620764	0.669211
	C158	C	0.883654	0.620164	0.318433
	C159	C	0.112182	0.382279	0.315926
	C160	C	0.381713	0.679479	0.879903
	C161	C	0.619712	0.682027	0.110054
	C162	C	0.618895	0.327293	0.880036
	C163	C	0.376808	0.326727	0.109999
	C164	C	0.674605	0.887830	0.373467
	C165	C	0.676056	0.115476	0.615669
	C166	C	0.318681	0.888054	0.616405
	C167	C	0.320248	0.116082	0.376638
	C168	C	0.877755	0.388673	0.171237
	C169	C	0.119197	0.616508	0.172831
	C170	C	0.119455	0.388848	0.815248
	C171	C	0.881692	0.617445	0.817930
	C172	C	0.175740	0.881742	0.380415
	C173	C	0.173347	0.121286	0.610952
	C174	C	0.821784	0.119114	0.379473
	C175	C	0.818678	0.880106	0.610124
	C176	C	0.384751	0.182118	0.875363
	C177	C	0.611569	0.183197	0.116546
	C178	C	0.385145	0.823667	0.116843
	C179	C	0.612819	0.827003	0.874494
	C180	C	0.383543	0.884007	0.171626
	C181	C	0.612285	0.123828	0.172267
	C182	C	0.383219	0.121850	0.820836
	C183	C	0.612638	0.885881	0.817915
	C184	C	0.877301	0.178290	0.380150
	C185	C	0.116436	0.179402	0.610378
	C186	C	0.118216	0.824733	0.380061
	C187	C	0.876889	0.823599	0.610444
	C188	C	0.178582	0.389509	0.871547
	C189	C	0.177134	0.617067	0.114925
	C190	C	0.817889	0.390370	0.116067
	C191	C	0.822662	0.617622	0.874393
	C192	C	0.396045	0.096552	0.595976
	C193	C	0.594746	0.908501	0.594005
	C194	C	0.598605	0.095898	0.396912
	C195	C	0.397616	0.908396	0.395757
	C196	C	0.596111	0.406446	0.089847
	C197	C	0.599329	0.603585	0.899966
	C198	C	0.400785	0.600684	0.089593
	C199	C	0.401802	0.404994	0.900290
	C200	C	0.091439	0.600892	0.396788
	C201	C	0.904301	0.601078	0.594608
	C202	C	0.092073	0.401804	0.592161
	C203	C	0.904253	0.401209	0.396345
	C204	C	0.900828	0.596578	0.093670
	C205	C	0.097712	0.409643	0.091212
	C206	C	0.100872	0.596931	0.893744
	C207	C	0.898974	0.409823	0.896754
	C208	C	0.095643	0.902703	0.590418
	C209	C	0.096936	0.099425	0.400593
	C210	C	0.899010	0.099603	0.589618
	C211	C	0.899602	0.901633	0.400415
	C212	C	0.592777	0.104264	0.895845
	C213	C	0.404113	0.102624	0.093837
	C214	C	0.592665	0.904295	0.093753
	C215	C	0.404301	0.902294	0.898045
	Zn216	Zn	0.497087	0.003996	0.746856
	Zn217	Zn	0.497728	0.003144	0.244725
	Zn218	Zn	0.748086	0.504777	-0.004968
	Zn219	Zn	0.250165	0.503410	-0.006311
	Zn220	Zn	-0.001950	0.751974	0.495331
	Zn221	Zn	-0.002595	0.250815	0.494402
	Zn222	Zn	-0.000903	0.502243	0.744572
	Zn223	Zn	-0.001832	0.501959	0.244682
	Zn224	Zn	0.499679	0.752138	-0.004294
	Zn225	Zn	0.498214	0.254685	-0.004600
	Zn226	Zn	0.748571	0.000555	0.495179
	Zn227	Zn	0.246585	0.001509	0.495767
	N228	N	0.410135	0.965925	0.675644
	N229	N	0.580042	0.040931	0.671261
	N230	N	0.582612	0.965539	0.316592
	N231	N	0.412211	0.039848	0.317415
	N232	N	0.675023	0.420862	0.957102
	N233	N	0.678745	0.591875	0.031552
	N234	N	0.322884	0.587884	0.957043
	N235	N	0.319151	0.416758	0.031231
	N236	N	0.961565	0.681485	0.408191
	N237	N	0.034692	0.681839	0.581824
	N238	N	0.960686	0.322228	0.581243
	N239	N	0.034111	0.320578	0.406145
	N240	N	0.961566	0.416201	0.673405
	N241	N	0.036370	0.585990	0.670162
	N242	N	0.960540	0.585956	0.317858
	N243	N	0.035193	0.416264	0.316025
	N244	N	0.414420	0.680575	0.958266
	N245	N	0.585620	0.682523	0.032438
	N246	N	0.584827	0.325785	0.958382
	N247	N	0.412136	0.325800	0.032286
	N248	N	0.677483	0.964943	0.407836
	N249	N	0.677670	0.037665	0.582508
	N250	N	0.316616	0.965446	0.583037
	N251	N	0.318247	0.038772	0.409863
	N252	N	0.913526	0.465092	0.171840
	N253	N	0.084645	0.539530	0.172917
	N254	N	0.085505	0.465551	0.814828
	N255	N	0.915596	0.540403	0.817677
	N256	N	0.176482	0.915355	0.458601
	N257	N	0.175042	0.086664	0.533123
	N258	N	0.821079	0.084849	0.457178
	N259	N	0.817941	0.913677	0.532061
	N260	N	0.462549	0.184950	0.907533
	N261	N	0.534365	0.184471	0.082918
	N262	N	0.463010	0.821852	0.083492
	N263	N	0.535575	0.824158	0.909265
	N264	N	0.460429	0.918960	0.171808
	N265	N	0.535428	0.088311	0.172397
	N266	N	0.460233	0.087490	0.820205
	N267	N	0.535348	0.918931	0.817705
	N268	N	0.911056	0.179758	0.458061
	N269	N	0.083567	0.180531	0.532072
	N270	N	0.083549	0.823656	0.457985
	N271	N	0.911913	0.822727	0.532731
	N272	N	0.180861	0.466894	0.905418
	N273	N	0.178048	0.540338	0.079498
	N274	N	0.817104	0.467773	0.082847
	N275	N	0.820178	0.540675	0.908372
	O276	O	-0.001867	-0.021631	0.095783
	H277	H	0.000629	-0.011105	0.100970
	H278	H	-0.004159	-0.027823	0.095015
	O279	O	0.628621	0.517065	0.442458
	H280	H	0.639042	0.509259	0.455565
	H281	H	0.630095	0.513824	0.437406
	O282	O	0.499027	0.489046	0.437697
	H283	H	0.499412	0.480887	0.446870
	H284	H	0.506574	0.485106	0.430950
	O285	O	-0.020335	1.019944	1.044603
	H286	H	-0.026712	1.012054	1.049756
	H287	H	-0.008087	1.008665	1.054903
	O288	O	0.443463	0.618754	0.408282
	H289	H	0.437111	0.631012	0.416967
	H290	H	0.450129	0.610446	0.402075
	O291	O	1.086469	1.067666	1.079595
	H292	H	1.079953	1.071820	1.092379
	H293	H	1.083963	1.068429	1.076056
	O294	O	1.013354	0.994542	0.916433
	H295	H	1.010887	0.997092	0.915241
	H296	H	1.017591	0.999428	0.917323
	O297	O	1.015422	0.044305	1.022094
	H298	H	1.015878	0.045681	1.032120
	H299	H	1.009324	0.034771	1.015440
	O300	O	0.488579	0.473930	0.395273
	H301	H	0.488658	0.479023	0.393612
	H302	H	0.492714	0.475805	0.385868
	O303	O	0.959594	0.051421	0.042251
	H304	H	0.965664	0.060397	0.042177
	H305	H	0.964333	0.050727	0.049621
	O306	O	-0.025408	1.031016	0.953646
	H307	H	-0.038961	1.027351	0.948658
	H308	H	-0.025401	1.015656	0.954723
	O309	O	0.395825	0.502286	0.422447
	H310	H	0.403782	0.513832	0.421896
	H311	H	0.399205	0.494946	0.418842
	O312	O	1.014452	-0.052323	1.030172
	H313	H	1.017093	-0.056756	1.022287
	H314	H	1.019641	-0.046386	1.015447
	O315	O	0.424818	0.477037	0.495050
	H316	H	0.415125	0.471712	0.489515
	H317	H	0.413082	0.476268	0.505604
	O318	O	0.572899	0.460406	0.488641
	H319	H	0.568227	0.450520	0.481009
	H320	H	0.569018	0.456326	0.487602
	O321	O	0.949004	0.956693	0.980247
	H322	H	0.964970	0.964047	0.987204
	H323	H	0.953700	0.952212	0.973542
	O324	O	0.445913	0.476108	0.519625
	H325	H	0.440314	0.481572	0.518202
	H326	H	0.451560	0.481258	0.510087
	O327	O	0.531600	0.428815	0.460210
	H328	H	0.527871	0.433296	0.453993
	H329	H	0.531797	0.430204	0.466915
	O330	O	0.982382	0.043531	1.035056
	H331	H	0.970295	0.052984	1.033088
	H332	H	0.995285	0.044660	1.036534
	O333	O	1.100337	0.944081	-0.074617
	H334	H	1.103853	0.955003	-0.083452
	H335	H	1.103626	0.952632	-0.074366
	O336	O	0.527618	0.513656	0.443651
	H337	H	0.525876	0.514482	0.442770
	H338	H	0.531848	0.509616	0.450797
	O339	O	0.459882	0.439435	0.507947
	H340	H	0.444619	0.434345	0.497493
	H341	H	0.462031	0.440850	0.502263
	O342	O	0.005543	1.003605	-0.034833
	H343	H	0.001693	1.001252	-0.021011
	H344	H	0.012384	1.008968	-0.033271
	O345	O	-0.085109	0.025367	-0.079122
	H346	H	-0.095441	0.033338	-0.075736
	H347	H	-0.085552	0.016296	-0.093039
	O348	O	0.554524	0.513306	0.587288
	H349	H	0.548876	0.512322	0.582590
	H350	H	0.552452	0.508822	0.587537
	O351	O	0.477382	0.443098	0.539552
	H352	H	0.476556	0.434031	0.535119
	H353	H	0.475603	0.443932	0.545082
	O354	O	0.497245	0.526918	0.473762
	H355	H	0.494198	0.526136	0.468108
	H356	H	0.496193	0.535275	0.478780
	O357	O	0.144944	0.227656	0.868755
	H358	H	0.143199	0.221829	0.871808
	H359	H	0.149398	0.222151	0.875343
	O360	O	0.094854	0.049509	-0.013884
	H361	H	0.087074	0.060735	-0.008805
	H362	H	0.105916	0.047118	-0.012845
	O363	O	0.537175	0.612327	0.556693
	H364	H	0.555037	0.622442	0.565608
	H365	H	0.535603	0.611182	0.546662
	O366	O	0.046406	-0.004010	1.049856
	H367	H	0.044027	-0.000910	1.045984
	H368	H	0.038066	-0.017071	1.040521
	O369	O	0.477471	0.565046	0.535248
	H370	H	0.472080	0.580519	0.545053
	H371	H	0.465093	0.568810	0.537349
