data_Molecule from HDF5

_cell_length_a		16.257234
_cell_length_b		16.301846
_cell_length_c		16.309760
_cell_angle_alpha	90.066956
_cell_angle_beta	90.110393
_cell_angle_gamma	90.080244
_symmetry_space_group_name_H-M	'P 1'
_symmetry_Int_Tables_number		1

loop_
	_symmetry_equiv_pos_as_xyz
	x,y,z

loop_
	_atom_site_label
	_atom_site_type_symbol
	_atom_site_fract_x
	_atom_site_fract_y
	_atom_site_fract_z
	H0	H	0.400179	0.835683	0.716682
	H1	H	0.599536	0.162558	0.717115
	H2	H	0.596985	0.835035	0.287084
	H3	H	0.401071	0.162406	0.287125
	H4	H	0.715159	0.401674	0.838574
	H5	H	0.715378	0.598943	0.165626
	H6	H	0.285596	0.597112	0.838418
	H7	H	0.287329	0.401903	0.165481
	H8	H	0.835313	0.711511	0.404337
	H9	H	0.163377	0.714105	0.600389
	H10	H	0.835778	0.284733	0.600695
	H11	H	0.164442	0.285154	0.403830
	H12	H	0.836178	0.400481	0.717102
	H13	H	0.164215	0.598435	0.716300
	H14	H	0.836725	0.597683	0.287071
	H15	H	0.164925	0.401591	0.288906
	H16	H	0.400640	0.714527	0.838169
	H17	H	0.598349	0.714171	0.165422
	H18	H	0.599726	0.284810	0.838839
	H19	H	0.402697	0.285825	0.165374
	H20	H	0.712738	0.834591	0.404033
	H21	H	0.715631	0.161950	0.601349
	H22	H	0.285549	0.835027	0.598545
	H23	H	0.286808	0.162878	0.404844
	H24	H	0.902320	0.335707	0.216286
	H25	H	0.099299	0.662998	0.217204
	H26	H	0.099497	0.337100	0.786557
	H27	H	0.901789	0.663933	0.787920
	H28	H	0.211962	0.902252	0.337922
	H29	H	0.213785	0.097098	0.665438
	H30	H	0.784305	0.097661	0.338230
	H31	H	0.785133	0.899725	0.665618
	H32	H	0.336133	0.213379	0.903717
	H33	H	0.664225	0.214057	0.100992
	H34	H	0.336193	0.784743	0.100529
	H35	H	0.664166	0.785980	0.903124
	H36	H	0.335403	0.901781	0.214383
	H37	H	0.662862	0.098412	0.217353
	H38	H	0.336062	0.099048	0.786919
	H39	H	0.663047	0.899751	0.786174
	H40	H	0.900207	0.214723	0.338870
	H41	H	0.097762	0.213779	0.665727
	H42	H	0.097886	0.784477	0.338705
	H43	H	0.900894	0.785149	0.665669
	H44	H	0.212492	0.335491	0.904830
	H45	H	0.215902	0.663441	0.101212
	H46	H	0.785064	0.336426	0.100942
	H47	H	0.786972	0.664295	0.905010
	H48	H	0.415657	0.112858	0.596292
	H49	H	0.591899	0.881967	0.598653
	H50	H	0.587537	0.112645	0.410928
	H51	H	0.399327	0.882625	0.417342
	H52	H	0.590484	0.405138	0.117474
	H53	H	0.594480	0.587522	0.886274
	H54	H	0.415730	0.591305	0.115087
	H55	H	0.409189	0.407576	0.885531
	H56	H	0.121139	0.601436	0.401991
	H57	H	0.882045	0.595009	0.598333
	H58	H	0.114791	0.411161	0.595860
	H59	H	0.883580	0.398727	0.415493
	H60	H	0.117354	0.404922	0.597331
	H61	H	0.883587	0.593599	0.592597
	H62	H	0.114985	0.596691	0.421520
	H63	H	0.887668	0.415610	0.412129
	H64	H	0.407576	0.599704	0.119450
	H65	H	0.588395	0.596782	0.886767
	H66	H	0.595736	0.405406	0.119237
	H67	H	0.405649	0.401975	0.883923
	H68	H	0.597163	0.115201	0.413039
	H69	H	0.588843	0.884186	0.592968
	H70	H	0.400281	0.114676	0.587169
	H71	H	0.400616	0.877974	0.398123
	H72	H	0.907993	0.616523	0.098321
	H73	H	0.091327	0.383543	0.098395
	H74	H	0.091755	0.617529	0.905675
	H75	H	0.906579	0.381616	0.902437
	H76	H	0.094698	0.905824	0.618624
	H77	H	0.093708	0.092450	0.384986
	H78	H	0.910488	0.097292	0.618595
	H79	H	0.902614	0.903566	0.384739
	H80	H	0.617264	0.099575	0.913016
	H81	H	0.382028	0.099072	0.093211
	H82	H	0.619583	0.904678	0.103184
	H83	H	0.381909	0.905768	0.905618
	H84	H	0.616334	0.901375	0.088695
	H85	H	0.384734	0.090127	0.091348
	H86	H	0.613845	0.086916	0.912178
	H87	H	0.384287	0.903979	0.913036
	H88	H	0.901146	0.093494	0.619594
	H89	H	0.091236	0.092709	0.386003
	H90	H	0.091940	0.908932	0.617214
	H91	H	0.905928	0.909382	0.387494
	H92	H	0.089959	0.614457	0.913930
	H93	H	0.095686	0.383280	0.092784
	H94	H	0.911036	0.614850	0.095134
	H95	H	0.912939	0.386583	0.911123
	H96	H	0.401653	0.119009	0.604350
	H97	H	0.594917	0.881992	0.593178
	H98	H	0.593537	0.116851	0.403254
	H99	H	0.416269	0.884992	0.407657
	H100	H	0.592848	0.409752	0.117008
	H101	H	0.598018	0.597164	0.883531
	H102	H	0.403733	0.587512	0.118307
	H103	H	0.402535	0.407646	0.885491
	H104	H	0.114095	0.582237	0.406520
	H105	H	0.882989	0.589532	0.596770
	H106	H	0.114775	0.406194	0.591020
	H107	H	0.880663	0.404524	0.398960
	H108	H	0.905907	0.615948	0.093422
	H109	H	0.098484	0.381406	0.098834
	H110	H	0.098013	0.615829	0.911611
	H111	H	0.902065	0.383882	0.912773
	H112	H	0.090506	0.904770	0.617830
	H113	H	0.092349	0.094915	0.384612
	H114	H	0.908332	0.087914	0.616338
	H115	H	0.909511	0.903388	0.385803
	H116	H	0.618632	0.092466	0.901844
	H117	H	0.381488	0.093100	0.100164
	H118	H	0.613559	0.915649	0.093679
	H119	H	0.384795	0.910898	0.909775
	C120	C	0.377669	0.007326	0.623584
	C121	C	0.620950	0.990675	0.623838
	C122	C	0.621171	0.006883	0.380101
	C123	C	0.377681	0.990353	0.380021
	C124	C	0.621898	0.378296	0.010321
	C125	C	0.622454	0.622104	0.993567
	C126	C	0.379384	0.621061	0.009890
	C127	C	0.378704	0.378139	0.993423
	C128	C	0.008380	0.621452	0.380718
	C129	C	0.991211	0.621518	0.624050
	C130	C	0.007978	0.378194	0.624001
	C131	C	0.992378	0.377842	0.380644
	C132	C	0.879284	0.507811	0.123913
	C133	C	0.123693	0.491216	0.124904
	C134	C	0.121500	0.507808	0.881412
	C135	C	0.878896	0.492268	0.880566
	C136	C	0.120629	0.878034	0.510032
	C137	C	0.121103	0.121484	0.493530
	C138	C	0.877760	0.121042	0.509917
	C139	C	0.877613	0.876823	0.493966
	C140	C	0.508237	0.121225	0.880349
	C141	C	0.491171	0.122137	0.124055
	C142	C	0.508133	0.878474	0.123260
	C143	C	0.491709	0.878247	0.880438
	C144	C	0.379638	0.884436	0.678772
	C145	C	0.619371	0.113693	0.679232
	C146	C	0.618001	0.883941	0.324713
	C147	C	0.380498	0.113632	0.325078
	C148	C	0.677133	0.380836	0.887221
	C149	C	0.677249	0.619110	0.116770
	C150	C	0.323424	0.618083	0.887092
	C151	C	0.324779	0.381044	0.116694
	C152	C	0.884710	0.674930	0.383513
	C153	C	0.114834	0.676203	0.621025
	C154	C	0.884820	0.322601	0.621236
	C155	C	0.115819	0.323439	0.383662
	C156	C	0.885002	0.379817	0.679334
	C157	C	0.115028	0.618978	0.678655
	C158	C	0.885392	0.618454	0.325024
	C159	C	0.115978	0.381192	0.326603
	C160	C	0.380851	0.676155	0.886857
	C161	C	0.619632	0.676835	0.116675
	C162	C	0.619880	0.322780	0.887425
	C163	C	0.381842	0.323320	0.116479
	C164	C	0.675925	0.883783	0.382569
	C165	C	0.677219	0.113528	0.621745
	C166	C	0.322503	0.884049	0.620292
	C167	C	0.323600	0.113871	0.383249
	C168	C	0.881918	0.384595	0.178488
	C169	C	0.120446	0.614211	0.179367
	C170	C	0.119396	0.385562	0.825146
	C171	C	0.881694	0.615223	0.825895
	C172	C	0.174646	0.881268	0.386742
	C173	C	0.176367	0.118299	0.616570
	C174	C	0.822322	0.118086	0.387249
	C175	C	0.822958	0.879725	0.616840
	C176	C	0.385082	0.175952	0.882860
	C177	C	0.614929	0.176402	0.121491
	C178	C	0.384956	0.822957	0.120681
	C179	C	0.614945	0.823231	0.882663
	C180	C	0.384504	0.881294	0.176998
	C181	C	0.614227	0.118891	0.179246
	C182	C	0.385016	0.118682	0.825189
	C183	C	0.614508	0.880096	0.824781
	C184	C	0.879711	0.176475	0.387484
	C185	C	0.118458	0.175822	0.616942
	C186	C	0.117886	0.822837	0.387096
	C187	C	0.880031	0.822081	0.616798
	C188	C	0.175698	0.384732	0.884047
	C189	C	0.178719	0.614172	0.122079
	C190	C	0.823678	0.384898	0.121205
	C191	C	0.824595	0.615358	0.883971
	C192	C	0.399490	0.093136	0.602101
	C193	C	0.598523	0.905089	0.601454
	C194	C	0.599179	0.092774	0.402419
	C195	C	0.399074	0.904261	0.401364
	C196	C	0.599760	0.400290	0.095854
	C197	C	0.600250	0.600052	0.907641
	C198	C	0.402256	0.599467	0.095431
	C199	C	0.399736	0.399461	0.907298
	C200	C	0.094526	0.599783	0.403307
	C201	C	0.905255	0.599301	0.602366
	C202	C	0.093449	0.400806	0.601499
	C203	C	0.906320	0.399629	0.402423
	C204	C	0.901738	0.593524	0.102018
	C205	C	0.101591	0.405059	0.102952
	C206	C	0.099558	0.593860	0.903924
	C207	C	0.900778	0.406209	0.902526
	C208	C	0.098737	0.900172	0.595755
	C209	C	0.098856	0.099905	0.407482
	C210	C	0.900132	0.099261	0.595944
	C211	C	0.899483	0.898840	0.408216
	C212	C	0.594324	0.099395	0.902643
	C213	C	0.404997	0.100622	0.101531
	C214	C	0.594309	0.900761	0.101726
	C215	C	0.405873	0.900296	0.902877
	Zn216	Zn	0.499555	-0.000596	0.752539
	Zn217	Zn	0.499012	-0.000935	0.251820
	Zn218	Zn	0.750317	0.500041	0.002190
	Zn219	Zn	0.250756	0.499231	0.002008
	Zn220	Zn	-0.000481	0.749188	0.502563
	Zn221	Zn	0.000063	0.249853	0.501836
	Zn222	Zn	0.000027	0.500406	0.752380
	Zn223	Zn	0.000767	0.499647	0.252698
	Zn224	Zn	0.500363	0.750219	0.001859
	Zn225	Zn	0.500224	0.249726	0.001709
	Zn226	Zn	0.749684	-0.001558	0.502250
	Zn227	Zn	0.249318	-0.000643	0.501471
	N228	N	0.412998	0.961879	0.681073
	N229	N	0.585285	0.036377	0.680635
	N230	N	0.584847	0.961727	0.323076
	N231	N	0.413437	0.035940	0.322910
	N232	N	0.678597	0.414675	0.964512
	N233	N	0.679059	0.585811	0.039264
	N234	N	0.322559	0.584316	0.964458
	N235	N	0.322629	0.414280	0.039289
	N236	N	0.962246	0.676922	0.417344
	N237	N	0.037043	0.677981	0.587894
	N238	N	0.962278	0.321494	0.587254
	N239	N	0.037960	0.321378	0.416658
	N240	N	0.962334	0.413971	0.680944
	N241	N	0.037306	0.585571	0.680578
	N242	N	0.963347	0.585820	0.323376
	N243	N	0.038204	0.414445	0.324744
	N244	N	0.414875	0.678193	0.964167
	N245	N	0.586463	0.678926	0.039123
	N246	N	0.586096	0.321181	0.964765
	N247	N	0.414494	0.321071	0.038654
	N248	N	0.677917	0.961090	0.416312
	N249	N	0.678607	0.036062	0.588047
	N250	N	0.321120	0.961414	0.586452
	N251	N	0.321821	0.036457	0.416680
	N252	N	0.915638	0.462110	0.180265
	N253	N	0.087076	0.536689	0.181400
	N254	N	0.086520	0.463263	0.823452
	N255	N	0.914671	0.537515	0.823767
	N256	N	0.176399	0.914940	0.464110
	N257	N	0.177926	0.085254	0.538960
	N258	N	0.821148	0.084337	0.464512
	N259	N	0.821206	0.913080	0.539429
	N260	N	0.462739	0.177528	0.916596
	N261	N	0.537245	0.178730	0.088012
	N262	N	0.462863	0.821101	0.087878
	N263	N	0.537627	0.822173	0.917021
	N264	N	0.461950	0.915112	0.178590
	N265	N	0.536398	0.085723	0.180809
	N266	N	0.462692	0.085417	0.823670
	N267	N	0.536947	0.913520	0.823389
	N268	N	0.913438	0.178376	0.464834
	N269	N	0.085054	0.178106	0.539359
	N270	N	0.085051	0.820709	0.464757
	N271	N	0.913496	0.820390	0.539380
	N272	N	0.177228	0.462025	0.918127
	N273	N	0.180683	0.536503	0.088876
	N274	N	0.822011	0.462370	0.087789
	N275	N	0.822639	0.537839	0.917105
	O276	O	0.965752	0.976680	0.032148
	H277	H	0.971998	0.980808	0.035386
	H278	H	0.963226	0.975217	0.032461
	O279	O	0.033253	0.018293	0.002546
	H280	H	0.027428	0.016322	-0.007320
	H281	H	0.039614	0.018675	0.011459
	O282	O	-0.030052	0.019760	0.991147
	H283	H	-0.030729	0.022149	0.993203
	H284	H	-0.028668	0.024657	0.985001
	O285	O	0.554880	0.486772	0.475568
	H286	H	0.568733	0.474138	0.474902
	H287	H	0.560900	0.491253	0.482818
	O288	O	0.505976	0.420404	0.521971
	H289	H	0.492477	0.414275	0.526395
	H290	H	0.502964	0.422368	0.532625
	O291	O	0.486019	0.443645	0.490267
	H292	H	0.485993	0.439552	0.485790
	H293	H	0.496881	0.444143	0.489302
	O294	O	0.000823	0.031970	-0.078468
	H295	H	-0.005710	0.032743	-0.084323
	H296	H	0.005203	0.034182	-0.080750
	O297	O	0.544343	0.502962	0.478861
	H298	H	0.549310	0.497126	0.479626
	H299	H	0.552862	0.505518	0.482510
	O300	O	0.037735	0.944984	0.912252
	H301	H	0.038055	0.933075	0.904993
	H302	H	0.041998	0.946076	0.915749
	O303	O	0.509243	0.431152	0.469534
	H304	H	0.506478	0.430107	0.455669
	H305	H	0.504130	0.434000	0.461454
	O306	O	0.014696	0.005831	0.939878
	H307	H	0.026253	0.000418	0.942787
	H308	H	0.011762	0.000162	0.946768
	O309	O	1.007866	1.034899	0.944997
	H310	H	1.011270	1.029089	0.943375
	H311	H	1.002972	1.037790	0.944664
	O312	O	0.548137	0.444764	0.507177
	H313	H	0.548182	0.437972	0.505335
	H314	H	0.545613	0.439607	0.508967
	O315	O	0.544434	0.407708	0.449237
	H316	H	0.540721	0.408310	0.447508
	H317	H	0.536398	0.406212	0.443288
	O318	O	-0.035156	1.022240	-0.007971
	H319	H	-0.038048	1.025629	-0.010317
	H320	H	-0.045300	1.031306	-0.003603
	O321	O	0.977577	1.020625	0.004143
	H322	H	0.965381	1.015971	-0.007426
	H323	H	0.977088	1.022620	0.013003
