data_Molecule from HDF5

_cell_length_a		16.488301
_cell_length_b		16.640435
_cell_length_c		16.841245
_cell_angle_alpha	90.087008
_cell_angle_beta	89.985392
_cell_angle_gamma	90.086972
_symmetry_space_group_name_H-M	'P 1'
_symmetry_Int_Tables_number		1

loop_
	_symmetry_equiv_pos_as_xyz
	x,y,z

loop_
	_atom_site_label
	_atom_site_type_symbol
	_atom_site_fract_x
	_atom_site_fract_y
	_atom_site_fract_z
	H0	H	0.387191	0.873664	0.709827
	H1	H	0.611809	0.175733	0.706831
	H2	H	0.613461	0.872203	0.254389
	H3	H	0.394951	0.177351	0.258521
	H4	H	0.728095	0.414801	0.831706
	H5	H	0.726934	0.631656	0.135018
	H6	H	0.274886	0.633820	0.831586
	H7	H	0.278390	0.416304	0.133795
	H8	H	0.848204	0.747583	0.373073
	H9	H	0.156872	0.747226	0.589105
	H10	H	0.843663	0.305082	0.585278
	H11	H	0.159460	0.307221	0.382515
	H12	H	0.845192	0.417672	0.703906
	H13	H	0.155801	0.633652	0.705683
	H14	H	0.849420	0.634403	0.256267
	H15	H	0.159067	0.419344	0.263750
	H16	H	0.387948	0.752968	0.834509
	H17	H	0.613936	0.750891	0.132388
	H18	H	0.613621	0.296586	0.832504
	H19	H	0.396264	0.300096	0.133937
	H20	H	0.725176	0.869511	0.373548
	H21	H	0.722810	0.178404	0.586907
	H22	H	0.277983	0.870044	0.587847
	H23	H	0.281913	0.178876	0.377536
	H24	H	0.895106	0.369950	0.204539
	H25	H	0.112103	0.676367	0.205965
	H26	H	0.108735	0.370529	0.758361
	H27	H	0.893113	0.677531	0.758907
	H28	H	0.220555	0.922825	0.326644
	H29	H	0.223026	0.127950	0.635606
	H30	H	0.782142	0.125501	0.327457
	H31	H	0.777048	0.915594	0.634944
	H32	H	0.347310	0.243405	0.877925
	H33	H	0.660132	0.242181	0.085177
	H34	H	0.346969	0.802082	0.086791
	H35	H	0.655623	0.797952	0.871405
	H36	H	0.348439	0.915776	0.204467
	H37	H	0.657635	0.130887	0.204116
	H38	H	0.347696	0.130307	0.760172
	H39	H	0.654380	0.910684	0.754946
	H40	H	0.897281	0.243670	0.327921
	H41	H	0.106964	0.245434	0.636084
	H42	H	0.106110	0.803608	0.327864
	H43	H	0.892284	0.798073	0.633985
	H44	H	0.220160	0.367521	0.878460
	H45	H	0.222335	0.678432	0.084650
	H46	H	0.784112	0.367571	0.083998
	H47	H	0.779277	0.678243	0.877660
	H48	H	0.411736	0.135212	0.568944
	H49	H	0.584457	0.913308	0.571792
	H50	H	0.593523	0.134772	0.394626
	H51	H	0.411945	0.912468	0.390760
	H52	H	0.593743	0.434313	0.093593
	H53	H	0.586082	0.612663	0.873963
	H54	H	0.415934	0.613219	0.092263
	H55	H	0.415450	0.429533	0.870486
	H56	H	0.116147	0.613183	0.391868
	H57	H	0.888315	0.615551	0.567820
	H58	H	0.114544	0.435954	0.574184
	H59	H	0.886334	0.434014	0.386207
	H60	H	0.114013	0.433899	0.570957
	H61	H	0.892476	0.606943	0.565844
	H62	H	0.113027	0.612812	0.397667
	H63	H	0.887723	0.431235	0.394145
	H64	H	0.412026	0.609775	0.091181
	H65	H	0.592011	0.609422	0.872764
	H66	H	0.588312	0.435379	0.090965
	H67	H	0.408826	0.433543	0.870779
	H68	H	0.589164	0.135641	0.388897
	H69	H	0.586020	0.914094	0.566327
	H70	H	0.417485	0.134949	0.574428
	H71	H	0.415269	0.912623	0.389128
	H72	H	0.909921	0.636033	0.066150
	H73	H	0.092415	0.408572	0.076849
	H74	H	0.088715	0.634134	0.895944
	H75	H	0.919422	0.413981	0.888064
	H76	H	0.088534	0.932711	0.592090
	H77	H	0.095648	0.117834	0.369119
	H78	H	0.913949	0.113902	0.591890
	H79	H	0.912634	0.932394	0.372322
	H80	H	0.617386	0.105091	0.882852
	H81	H	0.390466	0.110496	0.070524
	H82	H	0.615165	0.934765	0.068201
	H83	H	0.394622	0.943045	0.899329
	H84	H	0.612518	0.940034	0.065318
	H85	H	0.389219	0.110450	0.071949
	H86	H	0.618144	0.119745	0.896442
	H87	H	0.389517	0.939049	0.890336
	H88	H	0.911701	0.116201	0.593692
	H89	H	0.092670	0.112190	0.371994
	H90	H	0.093681	0.936122	0.592623
	H91	H	0.912087	0.939222	0.374500
	H92	H	0.090744	0.635996	0.892890
	H93	H	0.085230	0.412673	0.074786
	H94	H	0.915674	0.637463	0.079481
	H95	H	0.918788	0.415459	0.898551
	H96	H	0.418888	0.131749	0.567864
	H97	H	0.589559	0.912223	0.569930
	H98	H	0.586360	0.132197	0.394683
	H99	H	0.415603	0.912628	0.393420
	H100	H	0.589013	0.429951	0.093984
	H101	H	0.587024	0.606489	0.876502
	H102	H	0.417202	0.608538	0.090102
	H103	H	0.415422	0.436426	0.873233
	H104	H	0.113216	0.607245	0.393805
	H105	H	0.889192	0.608244	0.575088
	H106	H	0.112604	0.436864	0.571548
	H107	H	0.889866	0.438877	0.391746
	H108	H	0.923681	0.631920	0.068600
	H109	H	0.091931	0.411756	0.068956
	H110	H	0.086690	0.634911	0.892159
	H111	H	0.910407	0.411187	0.893077
	H112	H	0.088127	0.938314	0.590443
	H113	H	0.089297	0.118357	0.372146
	H114	H	0.910742	0.112719	0.592480
	H115	H	0.918413	0.935758	0.375169
	H116	H	0.609857	0.102640	0.900506
	H117	H	0.389816	0.112079	0.071449
	H118	H	0.613540	0.939794	0.071668
	H119	H	0.390671	0.932704	0.899401
	C120	C	0.380559	0.032580	0.603728
	C121	C	0.621525	1.014688	0.602644
	C122	C	0.623504	0.032237	0.359614
	C123	C	0.381594	1.015124	0.359630
	C124	C	0.624301	0.400650	-0.008277
	C125	C	0.623691	0.644730	0.974166
	C126	C	0.380152	0.644663	-0.009013
	C127	C	0.380705	0.400910	0.972796
	C128	C	0.011525	0.644704	0.360981
	C129	C	0.992888	0.644630	0.602826
	C130	C	0.009769	0.403059	0.603970
	C131	C	0.992581	0.402955	0.360715
	C132	C	0.882586	0.532723	0.103357
	C133	C	0.123620	0.513674	0.104544
	C134	C	0.122161	0.532609	0.860954
	C135	C	0.881295	0.515621	0.861164
	C136	C	0.122599	0.903508	0.489996
	C137	C	0.124053	0.147030	0.473348
	C138	C	0.879993	0.145514	0.490624
	C139	C	0.879822	0.901532	0.474072
	C140	C	0.511987	0.142962	0.861272
	C141	C	0.493750	0.143751	0.102902
	C142	C	0.511272	0.903879	0.101880
	C143	C	0.492745	0.902088	0.860585
	C144	C	0.372659	0.918254	0.666797
	C145	C	0.627723	0.130145	0.664988
	C146	C	0.629617	0.917587	0.296466
	C147	C	0.378076	0.131410	0.299527
	C148	C	0.687309	0.396958	0.877477
	C149	C	0.686297	0.649356	0.088660
	C150	C	0.316331	0.650419	0.877477
	C151	C	0.319455	0.398116	0.087873
	C152	C	0.895041	0.706956	0.356067
	C153	C	0.109693	0.706811	0.606846
	C154	C	0.891376	0.344036	0.604784
	C155	C	0.111856	0.345212	0.361913
	C156	C	0.892145	0.400044	0.663658
	C157	C	0.109337	0.650097	0.664691
	C158	C	0.895699	0.650485	0.297953
	C159	C	0.111753	0.401215	0.303280
	C160	C	0.373165	0.709402	0.878496
	C161	C	0.629794	0.708598	0.087527
	C162	C	0.630228	0.338090	0.877966
	C163	C	0.377709	0.340283	0.087978
	C164	C	0.685063	0.916296	0.355928
	C165	C	0.683090	0.131282	0.605352
	C166	C	0.318271	0.916527	0.606343
	C167	C	0.321870	0.132114	0.358564
	C168	C	0.878396	0.416041	0.163641
	C169	C	0.128246	0.630252	0.164719
	C170	C	0.125889	0.416715	0.799436
	C171	C	0.876082	0.631509	0.800085
	C172	C	0.181428	0.902870	0.373440
	C173	C	0.183551	0.147468	0.589302
	C174	C	0.821397	0.145281	0.374173
	C175	C	0.817670	0.897804	0.588806
	C176	C	0.394234	0.203572	0.859291
	C177	C	0.612186	0.203290	0.104407
	C178	C	0.394237	0.842017	0.105532
	C179	C	0.608617	0.838636	0.854690
	C180	C	0.394815	0.898743	0.163576
	C181	C	0.611304	0.147745	0.163264
	C182	C	0.394427	0.147356	0.800826
	C183	C	0.608023	0.895056	0.796644
	C184	C	0.878846	0.203975	0.374308
	C185	C	0.125325	0.205255	0.589702
	C186	C	0.124638	0.843542	0.374259
	C187	C	0.875036	0.839362	0.588471
	C188	C	0.181495	0.415080	0.858920
	C189	C	0.183292	0.631117	0.104702
	C190	C	0.823021	0.414888	0.103978
	C191	C	0.819560	0.631876	0.859021
	C192	C	0.408311	0.112985	0.577793
	C193	C	0.594214	0.934109	0.576775
	C194	C	0.596767	0.113280	0.385294
	C195	C	0.407169	0.933689	0.384075
	C196	C	0.597591	0.426173	0.071989
	C197	C	0.596124	0.617400	0.895071
	C198	C	0.407454	0.617971	0.070588
	C199	C	0.406180	0.426127	0.892497
	C200	C	0.092905	0.618416	0.387174
	C201	C	0.911260	0.617843	0.577111
	C202	C	0.092252	0.428335	0.579218
	C203	C	0.909654	0.427621	0.383889
	C204	C	0.908791	0.613959	0.078569
	C205	C	0.097437	0.432027	0.080206
	C206	C	0.096305	0.613832	0.886365
	C207	C	0.908211	0.434572	0.886180
	C208	C	0.097554	0.928593	0.570710
	C209	C	0.099655	0.123025	0.392365
	C210	C	0.905007	0.121321	0.571751
	C211	C	0.906908	0.927952	0.394631
	C212	C	0.593573	0.116730	0.886189
	C213	C	0.411314	0.118269	0.078380
	C214	C	0.592568	0.930739	0.075736
	C215	C	0.412333	0.930280	0.888291
	Zn216	Zn	0.501503	0.022631	0.732638
	Zn217	Zn	0.502624	0.023774	0.231267
	Zn218	Zn	0.753233	0.523564	-0.016865
	Zn219	Zn	0.251126	0.522840	-0.018007
	Zn220	Zn	0.001901	0.772448	0.482262
	Zn221	Zn	0.001117	0.275818	0.482322
	Zn222	Zn	0.001129	0.524510	0.731378
	Zn223	Zn	0.002624	0.523818	0.233057
	Zn224	Zn	0.502458	0.774619	-0.017739
	Zn225	Zn	0.502900	0.271159	-0.017583
	Zn226	Zn	0.750560	0.022751	0.482036
	Zn227	Zn	0.253278	0.024008	0.481701
	N228	N	0.410889	0.991469	0.665205
	N229	N	0.590085	0.056501	0.663757
	N230	N	0.591800	0.990921	0.298634
	N231	N	0.414468	0.057551	0.300017
	N232	N	0.683902	0.435210	0.949543
	N233	N	0.682802	0.610380	0.017097
	N234	N	0.320897	0.610522	0.948484
	N235	N	0.320980	0.434894	0.015172
	N236	N	0.968005	0.703362	0.394929
	N237	N	0.036140	0.703558	0.568974
	N238	N	0.965813	0.345597	0.568477
	N239	N	0.036543	0.345945	0.396789
	N240	N	0.967010	0.436065	0.663396
	N241	N	0.035463	0.611960	0.662465
	N242	N	0.969301	0.612310	0.300753
	N243	N	0.036367	0.436059	0.301905
	N244	N	0.412715	0.705787	0.950106
	N245	N	0.591497	0.705932	0.015249
	N246	N	0.591677	0.340276	0.950029
	N247	N	0.415009	0.341553	0.015177
	N248	N	0.681082	0.988593	0.394802
	N249	N	0.679511	0.058441	0.567280
	N250	N	0.322931	0.988830	0.567672
	N251	N	0.323965	0.058766	0.395494
	N252	N	0.914642	0.490343	0.163681
	N253	N	0.091960	0.555878	0.164966
	N254	N	0.089931	0.490952	0.800174
	N255	N	0.913565	0.558006	0.801188
	N256	N	0.180722	0.939073	0.446643
	N257	N	0.183324	0.112104	0.515801
	N258	N	0.821756	0.109858	0.447617
	N259	N	0.820362	0.935794	0.516554
	N260	N	0.468348	0.201214	0.896166
	N261	N	0.537880	0.201004	0.067725
	N262	N	0.467937	0.844878	0.067945
	N263	N	0.535727	0.842665	0.893791
	N264	N	0.468852	0.936246	0.161791
	N265	N	0.536416	0.111514	0.162677
	N266	N	0.468594	0.110297	0.801962
	N267	N	0.534603	0.933793	0.800026
	N268	N	0.914359	0.204567	0.448025
	N269	N	0.089032	0.205399	0.516512
	N270	N	0.089031	0.843466	0.447943
	N271	N	0.912870	0.841298	0.515992
	N272	N	0.179544	0.488301	0.896328
	N273	N	0.180585	0.557410	0.068101
	N274	N	0.825551	0.488381	0.067051
	N275	N	0.822678	0.558630	0.896242
	O276	O	-0.203262	1.229487	0.196146
	H277	H	-0.207729	1.223305	0.173187
	H278	H	-0.224337	1.244289	0.204211
	O279	O	0.983171	0.882696	0.954426
	H280	H	0.978643	0.884324	0.938139
	H281	H	0.975132	0.876172	0.940555
	O282	O	0.988149	-0.022316	1.094792
	H283	H	0.998833	-0.009442	1.083282
	H284	H	0.991072	-0.023798	1.094211
	O285	O	0.309754	0.366140	0.306964
	H286	H	0.326912	0.367846	0.337755
	H287	H	0.328963	0.396197	0.309551
	O288	O	0.527845	0.299430	0.259065
	H289	H	0.535085	0.302157	0.241161
	H290	H	0.547896	0.293201	0.241974
	O291	O	0.513029	0.718123	0.533408
	H292	H	0.504644	0.722008	0.533386
	H293	H	0.503852	0.705396	0.533639
	O294	O	1.093114	-0.002522	1.118635
	H295	H	1.096553	0.015520	1.097804
	H296	H	1.094759	0.005894	1.137217
	O297	O	0.435418	0.335198	0.690958
	H298	H	0.427400	0.317083	0.702486
	H299	H	0.431986	0.338969	0.688465
	O300	O	0.204984	-0.179772	0.948970
	H301	H	0.206236	-0.168507	0.959196
	H302	H	0.206455	-0.193478	0.954714
	O303	O	0.292357	0.311290	0.705328
	H304	H	0.287785	0.295977	0.688450
	H305	H	0.305403	0.340319	0.697907
	O306	O	0.367145	0.502249	0.521830
	H307	H	0.366887	0.504419	0.517393
	H308	H	0.363209	0.504477	0.528054
	O309	O	0.480603	0.739431	0.256280
	H310	H	0.485174	0.755684	0.233539
	H311	H	0.487733	0.723754	0.270811
	O312	O	0.275450	0.508513	0.655258
	H313	H	0.246170	0.509798	0.673748
	H314	H	0.279994	0.504067	0.632825
	O315	O	0.711607	0.487388	1.259574
	H316	H	0.715392	0.495388	1.286984
	H317	H	0.741976	0.485654	1.241978
	O318	O	0.395892	0.433572	0.476398
	H319	H	0.399422	0.436580	0.462690
	H320	H	0.395455	0.451488	0.471553
	O321	O	-0.579043	0.627977	0.375846
	H322	H	-0.586512	0.619621	0.381117
	H323	H	-0.574838	0.623816	0.383940
	O324	O	1.204329	0.822373	-0.216332
	H325	H	1.180998	0.824627	-0.188624
	H326	H	1.197741	0.842681	-0.216830
	O327	O	0.037523	0.246487	1.204343
	H328	H	0.035970	0.273243	1.233615
	H329	H	0.023063	0.226402	1.197087
	O330	O	0.687902	0.566685	0.397490
	H331	H	0.696165	0.573031	0.411375
	H332	H	0.685612	0.580669	0.406671
	O333	O	0.288103	0.298440	0.522437
	H334	H	0.292987	0.297060	0.515719
	H335	H	0.268894	0.288784	0.512478
	O336	O	0.547555	0.590277	0.595098
	H337	H	0.543422	0.584130	0.584150
	H338	H	0.538905	0.580555	0.591574
	O339	O	1.053821	-0.202961	1.038943
	H340	H	1.036277	-0.203220	1.019662
	H341	H	1.050002	-0.200384	1.044607
	O342	O	0.556874	-0.245481	0.414068
	H343	H	0.563090	-0.245600	0.411281
	H344	H	0.541975	-0.258912	0.417197
	O345	O	-0.113673	1.003711	1.047627
	H346	H	-0.109374	1.003096	1.039014
	H347	H	-0.107462	1.009361	1.040240
	O348	O	0.063484	0.021724	-0.006058
	H349	H	0.065199	0.010155	-0.017313
	H350	H	0.072822	0.024099	-0.005594
	O351	O	0.028929	-0.192596	0.764141
	H352	H	0.025331	-0.166325	0.760375
	H353	H	0.030348	-0.218999	0.738569
	O354	O	0.191120	-0.165178	1.173000
	H355	H	0.175856	-0.160239	1.166295
	H356	H	0.172008	-0.143672	1.163809
	O357	O	0.722607	0.552454	0.706276
	H358	H	0.717730	0.538401	0.726706
	H359	H	0.729430	0.541293	0.714082
	O360	O	0.661879	0.376367	0.593606
	H361	H	0.647855	0.394458	0.588883
	H362	H	0.641929	0.380152	0.604761
	O363	O	0.212114	-0.001248	-0.231821
	H364	H	0.228724	-0.001285	-0.233428
	H365	H	0.208662	-0.010317	-0.230064
	O366	O	0.349744	0.668058	0.547477
	H367	H	0.346203	0.684299	0.573607
	H368	H	0.330990	0.680869	0.532401
	O369	O	0.831407	0.031504	0.174305
	H370	H	0.824706	0.033616	0.178096
	H371	H	0.841803	0.023671	0.161871
	O372	O	0.981232	1.169918	0.014693
	H373	H	0.999175	1.178615	0.017879
	H374	H	0.979660	1.168906	0.003134
	O375	O	0.794649	-0.184298	0.185278
	H376	H	0.815353	-0.154833	0.190185
	H377	H	0.801746	-0.188922	0.170721
	O378	O	0.725757	0.745951	0.501322
	H379	H	0.721646	0.758775	0.505556
	H380	H	0.738637	0.763137	0.515601
	O381	O	-0.196860	1.222816	0.948932
	H382	H	-0.183829	1.235592	0.960683
	H383	H	-0.201233	1.228524	0.954566
	O384	O	1.222716	0.059748	0.924205
	H385	H	1.224992	0.068652	0.925327
	H386	H	1.223894	0.066711	0.934209
	O387	O	1.083900	1.048977	0.097891
	H388	H	1.064947	1.037815	0.096186
	H389	H	1.092636	1.073965	0.101474
	O390	O	0.281530	0.548961	0.255390
	H391	H	0.266706	0.577483	0.245284
	H392	H	0.265256	0.561851	0.250234
	O393	O	0.703542	0.319871	0.299656
	H394	H	0.698265	0.346788	0.293659
	H395	H	0.709232	0.313257	0.336220
	O396	O	0.716784	0.324453	0.446468
	H397	H	0.696381	0.336627	0.477212
	H398	H	0.745492	0.295274	0.451565
	O399	O	0.058236	-0.047935	0.845009
	H400	H	0.045078	-0.054163	0.856514
	H401	H	0.058001	-0.037094	0.849970
	O402	O	0.289153	0.734407	0.273710
	H403	H	0.337233	0.734024	0.267603
	H404	H	0.266153	0.762201	0.259828
	O405	O	0.803650	-0.781836	1.778630
	H406	H	0.820982	-0.775936	1.803917
	H407	H	0.796822	-0.787763	1.775903
	O408	O	-0.181685	-0.089781	-0.085171
	H409	H	-0.183520	-0.097363	-0.080834
	H410	H	-0.185032	-0.097353	-0.080326
	O411	O	0.567418	0.462646	0.723230
	H412	H	0.546621	0.454359	0.726951
	H413	H	0.547446	0.459481	0.723992
	O414	O	0.792423	0.048827	0.765769
	H415	H	0.790050	0.057466	0.791150
	H416	H	0.765982	0.055987	0.743073
	O417	O	0.307831	0.702616	0.665542
	H418	H	0.323775	0.708991	0.669722
	H419	H	0.305145	0.718228	0.685601
	O420	O	0.504753	0.743141	0.709144
	H421	H	0.513440	0.773077	0.727178
	H422	H	0.524065	0.737050	0.690166
	O423	O	-0.304580	-0.326637	1.327036
	H424	H	-0.322379	-0.339950	1.323333
	H425	H	-0.291599	-0.306740	1.321343
	O426	O	0.583860	0.569395	0.367995
	H427	H	0.564806	0.570172	0.371681
	H428	H	0.586010	0.578868	0.356967
	O429	O	0.930551	1.084300	1.204399
	H430	H	0.918877	1.084695	1.193670
	H431	H	0.908880	1.099464	1.197679
	O432	O	0.544867	0.305712	0.559218
	H433	H	0.518519	0.310544	0.562255
	H434	H	0.537837	0.306153	0.553209
	O435	O	0.223353	1.241739	0.012211
	H436	H	0.255885	1.276649	0.017145
	H437	H	0.211878	1.233998	0.055669
	O438	O	-0.214273	-0.188316	0.013181
	H439	H	-0.218886	-0.196585	0.024916
	H440	H	-0.225764	-0.193775	0.011879
	O441	O	0.057702	0.238393	-0.078117
	H442	H	0.063041	0.239837	-0.090436
	H443	H	0.073491	0.240885	-0.084544
	O444	O	0.441103	0.573994	0.727292
	H445	H	0.421962	0.576315	0.733829
	H446	H	0.432195	0.594048	0.727202
	O447	O	-0.019244	0.803371	1.190029
	H448	H	-0.020634	0.796064	1.192684
	H449	H	-0.018781	0.805498	1.202608
	O450	O	-0.143307	1.152650	1.071936
	H451	H	-0.125196	1.149591	1.079681
	H452	H	-0.130366	1.136270	1.064552
	O453	O	0.557062	0.579199	0.235062
	H454	H	0.553245	0.580392	0.246810
	H455	H	0.586200	0.570631	0.233650
	O456	O	-0.094760	0.030715	0.849303
	H457	H	-0.097161	0.039012	0.842964
	H458	H	-0.092774	0.038079	0.851514
	O459	O	0.648532	0.358889	0.653631
	H460	H	0.644297	0.370464	0.630124
	H461	H	0.665004	0.324996	0.661428
	O462	O	0.960163	0.035713	0.941209
	H463	H	0.962479	0.035862	0.931040
	H464	H	0.959706	0.049543	0.936296
	O465	O	1.276326	-0.250297	0.449834
	H466	H	1.245323	-0.230132	0.450122
	H467	H	1.286588	-0.248393	0.422110
	O468	O	0.349142	0.454787	0.481318
	H469	H	0.378749	0.447867	0.481359
	H470	H	0.347235	0.482193	0.473672
	O471	O	0.633729	0.476985	0.492728
	H472	H	0.625708	0.494675	0.489148
	H473	H	0.642627	0.467284	0.511692
	O474	O	-0.168970	0.849737	-0.202658
	H475	H	-0.180589	0.842974	-0.214665
	H476	H	-0.171989	0.858113	-0.206786
	O477	O	0.479904	0.341455	1.387972
	H478	H	0.493424	0.331304	1.360818
	H479	H	0.482900	0.339250	1.395869
	O480	O	0.435590	0.460510	0.262656
	H481	H	0.432117	0.468708	0.260158
	H482	H	0.430759	0.481213	0.256921
	O483	O	0.227613	0.249262	0.207967
	H484	H	0.209507	0.259963	0.227825
	H485	H	0.243869	0.265668	0.230148
	O486	O	1.485272	-0.455086	0.607130
	H487	H	1.487860	-0.462711	0.615463
	H488	H	1.485006	-0.460598	0.591018
	O489	O	1.213340	1.058679	0.187467
	H490	H	1.212568	1.069951	0.197440
	H491	H	1.225296	1.080719	0.192073
	O492	O	0.183889	0.209823	-0.201788
	H493	H	0.193250	0.208187	-0.209523
	H494	H	0.191246	0.199982	-0.190124
	O495	O	-0.030576	1.241489	0.757696
	H496	H	-0.028329	1.241236	0.755037
	H497	H	-0.038853	1.257590	0.740676
	O498	O	1.053032	1.090002	0.757900
	H499	H	1.069305	1.088004	0.755230
	H500	H	1.042700	1.098232	0.754899
	O501	O	0.713211	0.732693	0.693048
	H502	H	0.692091	0.714935	0.685636
	H503	H	0.706229	0.708124	0.684841
