data_Molecule from HDF5

_cell_length_a		16.267399
_cell_length_b		16.347537
_cell_length_c		16.324757
_cell_angle_alpha	89.999148
_cell_angle_beta	90.053161
_cell_angle_gamma	90.040708
_symmetry_space_group_name_H-M	'P 1'
_symmetry_Int_Tables_number		1

loop_
	_symmetry_equiv_pos_as_xyz
	x,y,z

loop_
	_atom_site_label
	_atom_site_type_symbol
	_atom_site_fract_x
	_atom_site_fract_y
	_atom_site_fract_z
	H0	H	0.404694	0.842453	0.707802
	H1	H	0.602127	0.168320	0.709395
	H2	H	0.600423	0.841849	0.279479
	H3	H	0.403652	0.168076	0.277781
	H4	H	0.717149	0.407589	0.830079
	H5	H	0.717472	0.602254	0.157310
	H6	H	0.289705	0.601434	0.830223
	H7	H	0.288237	0.406530	0.157472
	H8	H	0.838914	0.719070	0.396045
	H9	H	0.166629	0.719731	0.591776
	H10	H	0.838757	0.291447	0.591567
	H11	H	0.167539	0.292823	0.396281
	H12	H	0.838246	0.408269	0.706765
	H13	H	0.166695	0.604271	0.707636
	H14	H	0.838277	0.602468	0.280302
	H15	H	0.167049	0.408091	0.279624
	H16	H	0.402855	0.721214	0.830980
	H17	H	0.602880	0.720708	0.156532
	H18	H	0.600874	0.290739	0.830498
	H19	H	0.404338	0.289768	0.156631
	H20	H	0.716786	0.841790	0.396081
	H21	H	0.716987	0.168620	0.591438
	H22	H	0.289448	0.842152	0.590714
	H23	H	0.289139	0.168940	0.396383
	H24	H	0.904296	0.342497	0.208486
	H25	H	0.102872	0.668738	0.209459
	H26	H	0.100225	0.343005	0.779084
	H27	H	0.904512	0.669155	0.778424
	H28	H	0.216584	0.908795	0.329796
	H29	H	0.216494	0.103549	0.657660
	H30	H	0.788430	0.103344	0.330028
	H31	H	0.789893	0.908327	0.658123
	H32	H	0.339343	0.219919	0.894676
	H33	H	0.666216	0.221112	0.093173
	H34	H	0.339477	0.790305	0.092439
	H35	H	0.666814	0.791314	0.894739
	H36	H	0.338847	0.907463	0.207237
	H37	H	0.666933	0.104634	0.208715
	H38	H	0.339343	0.102430	0.780548
	H39	H	0.666149	0.906459	0.778240
	H40	H	0.904551	0.220447	0.329861
	H41	H	0.100486	0.220555	0.656974
	H42	H	0.101318	0.791304	0.330060
	H43	H	0.904474	0.790388	0.656639
	H44	H	0.216226	0.341944	0.896025
	H45	H	0.217400	0.669115	0.091809
	H46	H	0.789097	0.341964	0.090669
	H47	H	0.789015	0.669250	0.895690
	H48	H	0.405989	0.122568	0.588208
	H49	H	0.591249	0.890077	0.591211
	H50	H	0.603942	0.123210	0.403588
	H51	H	0.405113	0.887304	0.397615
	H52	H	0.600582	0.407456	0.112504
	H53	H	0.593693	0.603374	0.876573
	H54	H	0.406755	0.594988	0.110223
	H55	H	0.409070	0.404268	0.875346
	H56	H	0.117285	0.597123	0.405501
	H57	H	0.883675	0.602179	0.591559
	H58	H	0.119054	0.412404	0.588047
	H59	H	0.885489	0.406945	0.401083
	H60	H	0.118763	0.411062	0.586467
	H61	H	0.887371	0.602216	0.580473
	H62	H	0.120165	0.595830	0.394779
	H63	H	0.889447	0.415701	0.405554
	H64	H	0.415807	0.595977	0.108147
	H65	H	0.600267	0.598654	0.876603
	H66	H	0.598057	0.418434	0.108013
	H67	H	0.401704	0.416267	0.877106
	H68	H	0.593233	0.122989	0.391891
	H69	H	0.594661	0.891825	0.581761
	H70	H	0.410785	0.121763	0.590294
	H71	H	0.412588	0.889488	0.396992
	H72	H	0.907360	0.619748	0.078958
	H73	H	0.095218	0.389701	0.089405
	H74	H	0.084511	0.619356	0.894621
	H75	H	0.912223	0.390451	0.897551
	H76	H	0.091905	0.915082	0.607354
	H77	H	0.093561	0.109360	0.376060
	H78	H	0.915843	0.098937	0.607221
	H79	H	0.907699	0.915170	0.377966
	H80	H	0.620851	0.106476	0.904456
	H81	H	0.383313	0.102884	0.094018
	H82	H	0.621849	0.911878	0.096379
	H83	H	0.384894	0.912625	0.894725
	H84	H	0.620134	0.905368	0.080091
	H85	H	0.388344	0.102831	0.076761
	H86	H	0.616373	0.092625	0.905296
	H87	H	0.386099	0.906359	0.904567
	H88	H	0.908296	0.104521	0.612125
	H89	H	0.104857	0.096031	0.375428
	H90	H	0.095042	0.906127	0.610873
	H91	H	0.912603	0.911921	0.378485
	H92	H	0.098580	0.618859	0.912444
	H93	H	0.092573	0.391603	0.085806
	H94	H	0.904664	0.624738	0.093040
	H95	H	0.910351	0.390902	0.902687
	H96	H	0.410162	0.121087	0.585130
	H97	H	0.600714	0.887529	0.588900
	H98	H	0.589662	0.116195	0.405766
	H99	H	0.408626	0.890639	0.404087
	H100	H	0.589536	0.410559	0.107826
	H101	H	0.593049	0.595468	0.880142
	H102	H	0.410295	0.603104	0.110763
	H103	H	0.415554	0.415166	0.880980
	H104	H	0.121564	0.605569	0.400047
	H105	H	0.888693	0.592361	0.586558
	H106	H	0.119390	0.413170	0.586677
	H107	H	0.885801	0.415708	0.395737
	H108	H	0.918582	0.619388	0.089468
	H109	H	0.097763	0.390615	0.085228
	H110	H	0.105662	0.626974	0.892475
	H111	H	0.906459	0.389193	0.898821
	H112	H	0.101393	0.913590	0.610818
	H113	H	0.088469	0.093267	0.381876
	H114	H	0.906486	0.094828	0.608871
	H115	H	0.907818	0.909603	0.377180
	H116	H	0.622351	0.097760	0.893415
	H117	H	0.389965	0.087599	0.086444
	H118	H	0.615379	0.922113	0.083898
	H119	H	0.389526	0.918143	0.904406
	C120	C	0.381198	0.013810	0.615881
	C121	C	0.624089	0.997294	0.615801
	C122	C	0.624338	0.013133	0.372058
	C123	C	0.380899	0.997313	0.371522
	C124	C	0.624360	0.384026	0.001685
	C125	C	0.625058	0.627263	0.985288
	C126	C	0.381630	0.626982	0.002268
	C127	C	0.380712	0.383399	0.985618
	C128	C	0.011124	0.627263	0.372228
	C129	C	0.994864	0.627102	0.614809
	C130	C	0.010623	0.384245	0.615146
	C131	C	0.995016	0.384381	0.372123
	C132	C	0.881543	0.513643	0.115273
	C133	C	0.124454	0.497835	0.115621
	C134	C	0.124104	0.513656	0.872101
	C135	C	0.880999	0.497814	0.871422
	C136	C	0.124318	0.884046	0.501762
	C137	C	0.124177	0.127562	0.485841
	C138	C	0.881251	0.127745	0.501534
	C139	C	0.881345	0.883958	0.485854
	C140	C	0.511663	0.127130	0.872591
	C141	C	0.495073	0.127102	0.115044
	C142	C	0.511014	0.884110	0.115166
	C143	C	0.494657	0.883931	0.872388
	C144	C	0.384007	0.890945	0.669993
	C145	C	0.621964	0.120011	0.670916
	C146	C	0.621449	0.890394	0.317213
	C147	C	0.383782	0.119782	0.316484
	C148	C	0.679116	0.386783	0.878783
	C149	C	0.679866	0.623459	0.108553
	C150	C	0.326999	0.623412	0.879015
	C151	C	0.326017	0.386032	0.108516
	C152	C	0.887798	0.681705	0.375028
	C153	C	0.117888	0.681711	0.612156
	C154	C	0.887311	0.329633	0.611887
	C155	C	0.118311	0.329818	0.375249
	C156	C	0.887306	0.387406	0.669434
	C157	C	0.118009	0.624393	0.669632
	C158	C	0.887472	0.623706	0.317765
	C159	C	0.118083	0.387147	0.317336
	C160	C	0.383829	0.682096	0.879367
	C161	C	0.622825	0.681979	0.108219
	C162	C	0.621326	0.329108	0.878947
	C163	C	0.383536	0.328020	0.108310
	C164	C	0.679050	0.890451	0.375333
	C165	C	0.679409	0.120032	0.612776
	C166	C	0.326795	0.890927	0.611795
	C167	C	0.326527	0.120124	0.374944
	C168	C	0.883871	0.391041	0.170336
	C169	C	0.122747	0.620319	0.171208
	C170	C	0.121145	0.391333	0.817102
	C171	C	0.883468	0.620340	0.816135
	C172	C	0.178633	0.887860	0.378464
	C173	C	0.178581	0.123944	0.608886
	C174	C	0.826244	0.124172	0.378687
	C175	C	0.826968	0.887000	0.608957
	C176	C	0.388277	0.181794	0.874692
	C177	C	0.617682	0.182729	0.113234
	C178	C	0.388215	0.828582	0.112632
	C179	C	0.618004	0.829275	0.874713
	C180	C	0.387847	0.886733	0.169772
	C181	C	0.618007	0.124964	0.170676
	C182	C	0.388399	0.123838	0.817620
	C183	C	0.617689	0.886542	0.816781
	C184	C	0.883959	0.182483	0.378491
	C185	C	0.121513	0.182684	0.608431
	C186	C	0.121637	0.829320	0.378731
	C187	C	0.884054	0.828636	0.608369
	C188	C	0.178628	0.390914	0.875364
	C189	C	0.180160	0.620405	0.113111
	C190	C	0.826458	0.390825	0.111884
	C191	C	0.826206	0.620415	0.874309
	C192	C	0.402742	0.099939	0.594296
	C193	C	0.602072	0.911886	0.593738
	C194	C	0.602187	0.098757	0.393943
	C195	C	0.402380	0.911363	0.393172
	C196	C	0.602489	0.405761	0.087368
	C197	C	0.602692	0.605424	0.899813
	C198	C	0.404342	0.604734	0.087623
	C199	C	0.402435	0.405377	0.899948
	C200	C	0.097433	0.605830	0.393840
	C201	C	0.908694	0.605090	0.592824
	C202	C	0.096963	0.405916	0.593388
	C203	C	0.909044	0.406328	0.394300
	C204	C	0.903631	0.599313	0.093488
	C205	C	0.101784	0.412588	0.093359
	C206	C	0.102528	0.599501	0.893544
	C207	C	0.903115	0.412100	0.893281
	C208	C	0.102640	0.905371	0.587637
	C209	C	0.101989	0.106003	0.399972
	C210	C	0.903522	0.105831	0.587209
	C211	C	0.902917	0.905910	0.399991
	C212	C	0.597622	0.105426	0.894573
	C213	C	0.409215	0.104324	0.092406
	C214	C	0.597014	0.906537	0.093144
	C215	C	0.409102	0.905992	0.894527
	Zn216	Zn	0.502744	0.005600	0.744184
	Zn217	Zn	0.503012	0.005568	0.243078
	Zn218	Zn	0.753196	0.505625	-0.006701
	Zn219	Zn	0.252671	0.505589	-0.005832
	Zn220	Zn	0.003127	0.755331	0.493532
	Zn221	Zn	0.002811	0.256229	0.493835
	Zn222	Zn	0.002560	0.506046	0.742903
	Zn223	Zn	0.002999	0.505819	0.244079
	Zn224	Zn	0.503524	0.755832	-0.006059
	Zn225	Zn	0.502924	0.255409	-0.006494
	Zn226	Zn	0.752745	0.005198	0.494041
	Zn227	Zn	0.252740	0.005680	0.493903
	N228	N	0.416874	0.968420	0.672609
	N229	N	0.588518	0.042697	0.673010
	N230	N	0.588079	0.967664	0.315175
	N231	N	0.416604	0.042154	0.314213
	N232	N	0.681059	0.420390	0.956015
	N233	N	0.681264	0.590125	0.031217
	N234	N	0.325624	0.589678	0.956194
	N235	N	0.324144	0.419634	0.031262
	N236	N	0.965569	0.683909	0.408148
	N237	N	0.040381	0.683287	0.578648
	N238	N	0.965033	0.327689	0.578876
	N239	N	0.040688	0.328046	0.408721
	N240	N	0.965129	0.420569	0.671616
	N241	N	0.040264	0.591198	0.671486
	N242	N	0.965178	0.590349	0.316086
	N243	N	0.040490	0.420267	0.315436
	N244	N	0.416956	0.684514	0.956963
	N245	N	0.589404	0.684397	0.030741
	N246	N	0.588003	0.327326	0.956291
	N247	N	0.416859	0.326286	0.030816
	N248	N	0.680733	0.967631	0.408901
	N249	N	0.680791	0.042930	0.579227
	N250	N	0.325092	0.968402	0.578756
	N251	N	0.324637	0.043005	0.408437
	N252	N	0.917411	0.468308	0.172475
	N253	N	0.088603	0.543318	0.172614
	N254	N	0.087932	0.468609	0.814982
	N255	N	0.916899	0.543053	0.814414
	N256	N	0.180611	0.920997	0.455829
	N257	N	0.180159	0.090166	0.531657
	N258	N	0.824643	0.090777	0.456042
	N259	N	0.825476	0.920919	0.531684
	N260	N	0.465789	0.183754	0.908258
	N261	N	0.540363	0.183981	0.079309
	N262	N	0.465874	0.826931	0.079357
	N263	N	0.540630	0.827497	0.908552
	N264	N	0.465341	0.920424	0.171415
	N265	N	0.540421	0.091039	0.171946
	N266	N	0.465980	0.090352	0.816337
	N267	N	0.540162	0.920117	0.815410
	N268	N	0.917636	0.184609	0.455856
	N269	N	0.088332	0.184768	0.530894
	N270	N	0.088482	0.827001	0.456321
	N271	N	0.917112	0.826533	0.530903
	N272	N	0.180641	0.468169	0.908723
	N273	N	0.181269	0.543470	0.079150
	N274	N	0.824981	0.468032	0.078568
	N275	N	0.824800	0.543267	0.908002
	O276	O	1.010051	0.035913	1.027618
	H277	H	1.018983	0.031507	1.033851
	H278	H	1.008103	0.032888	1.028481
	O279	O	0.009114	0.040768	1.009466
	H280	H	0.007954	0.043095	1.007659
	H281	H	0.004221	0.039348	1.010004
	O282	O	1.045856	1.031173	0.045792
	H283	H	1.047067	1.037984	0.051619
	H284	H	1.042721	1.033317	0.041180
	O285	O	0.010015	-0.006470	1.019631
	H286	H	0.010297	-0.003396	1.026405
	H287	H	0.018397	-0.010408	1.018555
