data_Molecule from HDF5

_cell_length_a		16.657687
_cell_length_b		16.518952
_cell_length_c		16.609156
_cell_angle_alpha	90.036023
_cell_angle_beta	89.809828
_cell_angle_gamma	90.154791
_symmetry_space_group_name_H-M	'P 1'
_symmetry_Int_Tables_number		1

loop_
	_symmetry_equiv_pos_as_xyz
	x,y,z

loop_
	_atom_site_label
	_atom_site_type_symbol
	_atom_site_fract_x
	_atom_site_fract_y
	_atom_site_fract_z
	H0	H	0.405886	0.838120	0.714498
	H1	H	0.618699	0.149480	0.715533
	H2	H	0.618416	0.837680	0.271548
	H3	H	0.408884	0.150259	0.270771
	H4	H	0.733972	0.391829	0.836952
	H5	H	0.735010	0.601946	0.149126
	H6	H	0.289191	0.603297	0.838911
	H7	H	0.287117	0.384734	0.146127
	H8	H	0.858808	0.719105	0.386038
	H9	H	0.167836	0.719629	0.598691
	H10	H	0.856635	0.275473	0.595750
	H11	H	0.170153	0.278516	0.391773
	H12	H	0.857276	0.391744	0.713400
	H13	H	0.166635	0.605160	0.716210
	H14	H	0.857887	0.603424	0.269384
	H15	H	0.168574	0.391852	0.271657
	H16	H	0.408832	0.716192	0.837067
	H17	H	0.617729	0.716177	0.149320
	H18	H	0.615377	0.276304	0.835865
	H19	H	0.405448	0.271260	0.147122
	H20	H	0.734404	0.838149	0.386572
	H21	H	0.733650	0.150701	0.598859
	H22	H	0.288798	0.839612	0.600215
	H23	H	0.293027	0.151359	0.387006
	H24	H	0.909233	0.336349	0.211002
	H25	H	0.117981	0.650807	0.213555
	H26	H	0.118425	0.339045	0.770971
	H27	H	0.910333	0.652538	0.773346
	H28	H	0.237878	0.887658	0.339459
	H29	H	0.233059	0.099568	0.649348
	H30	H	0.792080	0.100791	0.336753
	H31	H	0.791018	0.889646	0.647635
	H32	H	0.358877	0.217193	0.886755
	H33	H	0.668895	0.217203	0.098152
	H34	H	0.357223	0.773668	0.097158
	H35	H	0.670134	0.776321	0.889731
	H36	H	0.357800	0.889629	0.214984
	H37	H	0.669305	0.101950	0.214913
	H38	H	0.358390	0.099858	0.771258
	H39	H	0.667605	0.888908	0.769747
	H40	H	0.910630	0.214508	0.335191
	H41	H	0.113085	0.211836	0.651450
	H42	H	0.119718	0.772299	0.338762
	H43	H	0.908839	0.774843	0.648743
	H44	H	0.236078	0.340292	0.884691
	H45	H	0.235379	0.650083	0.098526
	H46	H	0.793367	0.336369	0.096132
	H47	H	0.794366	0.652437	0.890559
	H48	H	0.434276	0.105769	0.587112
	H49	H	0.601928	0.881102	0.582187
	H50	H	0.606958	0.108071	0.404395
	H51	H	0.415520	0.881776	0.410482
	H52	H	0.602521	0.413447	0.101641
	H53	H	0.603212	0.584323	0.881765
	H54	H	0.422763	0.584315	0.105193
	H55	H	0.421109	0.409513	0.881413
	H56	H	0.122762	0.581259	0.402061
	H57	H	0.902893	0.585533	0.577846
	H58	H	0.127569	0.406641	0.590605
	H59	H	0.901237	0.406437	0.403338
	H60	H	0.127401	0.397309	0.582766
	H61	H	0.903702	0.578976	0.580809
	H62	H	0.123922	0.584230	0.403777
	H63	H	0.899465	0.404600	0.399808
	H64	H	0.422933	0.577380	0.102497
	H65	H	0.606350	0.585991	0.880277
	H66	H	0.596267	0.399328	0.105775
	H67	H	0.429495	0.410379	0.883970
	H68	H	0.600676	0.107282	0.399595
	H69	H	0.598944	0.882658	0.580367
	H70	H	0.424072	0.103017	0.572336
	H71	H	0.427096	0.880385	0.395998
	H72	H	0.923816	0.609069	0.087832
	H73	H	0.098801	0.383666	0.080598
	H74	H	0.100804	0.605487	0.910353
	H75	H	0.920334	0.380120	0.898846
	H76	H	0.102911	0.915538	0.602582
	H77	H	0.104112	0.083997	0.381507
	H78	H	0.921692	0.086763	0.605228
	H79	H	0.925815	0.909427	0.381904
	H80	H	0.622262	0.078817	0.905913
	H81	H	0.403948	0.082584	0.079463
	H82	H	0.623649	0.907721	0.079368
	H83	H	0.399516	0.901373	0.901828
	H84	H	0.625296	0.906793	0.086326
	H85	H	0.404050	0.079188	0.081718
	H86	H	0.625074	0.081867	0.901278
	H87	H	0.401896	0.903515	0.906219
	H88	H	0.919393	0.083143	0.605326
	H89	H	0.103171	0.086966	0.380347
	H90	H	0.094404	0.907424	0.601928
	H91	H	0.926960	0.905345	0.380662
	H92	H	0.106089	0.609466	0.903317
	H93	H	0.100288	0.383639	0.077680
	H94	H	0.928095	0.605051	0.079182
	H95	H	0.927896	0.383461	0.902125
	H96	H	0.417190	0.111266	0.587192
	H97	H	0.602672	0.882573	0.578455
	H98	H	0.600089	0.105044	0.407229
	H99	H	0.432657	0.887657	0.411285
	H100	H	0.611348	0.402756	0.108703
	H101	H	0.606533	0.582033	0.881274
	H102	H	0.428888	0.581944	0.101959
	H103	H	0.427063	0.402485	0.880845
	H104	H	0.122091	0.580883	0.405320
	H105	H	0.900682	0.584502	0.584798
	H106	H	0.122738	0.408254	0.578962
	H107	H	0.900134	0.401730	0.403392
	H108	H	0.918071	0.607355	0.078939
	H109	H	0.101690	0.381966	0.080526
	H110	H	0.097036	0.606080	0.901696
	H111	H	0.921037	0.383032	0.907002
	H112	H	0.105149	0.905077	0.607270
	H113	H	0.106088	0.085358	0.379542
	H114	H	0.924126	0.083199	0.603855
	H115	H	0.922553	0.907076	0.380403
	H116	H	0.623965	0.085134	0.906502
	H117	H	0.402084	0.082378	0.083054
	H118	H	0.626093	0.901161	0.081989
	H119	H	0.401453	0.906341	0.901392
	C120	C	0.391862	0.003345	0.614516
	C121	C	0.633815	0.985349	0.613569
	C122	C	0.634773	0.003353	0.371294
	C123	C	0.392601	0.986156	0.372365
	C124	C	0.634197	0.373964	0.001471
	C125	C	0.636036	0.616341	0.984673
	C126	C	0.392438	0.614887	0.000929
	C127	C	0.391629	0.373279	0.984315
	C128	C	0.021089	0.616088	0.370820
	C129	C	1.004865	0.616757	0.613907
	C130	C	0.022100	0.373597	0.614918
	C131	C	1.004259	0.373969	0.371471
	C132	C	0.891358	0.502886	0.113981
	C133	C	0.133414	0.485951	0.113160
	C134	C	0.134332	0.504273	0.871456
	C135	C	0.892398	0.486557	0.871966
	C136	C	0.134537	0.875032	0.501735
	C137	C	0.134441	0.116362	0.484740
	C138	C	0.890770	0.116704	0.501277
	C139	C	0.892213	0.874138	0.483838
	C140	C	0.521380	0.114814	0.872052
	C141	C	0.505722	0.115320	0.114164
	C142	C	0.521635	0.873167	0.114671
	C143	C	0.504072	0.872204	0.871085
	C144	C	0.388047	0.885501	0.674736
	C145	C	0.636475	0.102561	0.674806
	C146	C	0.636568	0.884871	0.311580
	C147	C	0.390636	0.103716	0.311450
	C148	C	0.693362	0.372909	0.883507
	C149	C	0.695086	0.619480	0.102280
	C150	C	0.330608	0.619902	0.884927
	C151	C	0.328685	0.367991	0.099869
	C152	C	0.905021	0.678261	0.367863
	C153	C	0.121254	0.678721	0.616757
	C154	C	0.903725	0.314920	0.615451
	C155	C	0.122815	0.316616	0.371353
	C156	C	0.904130	0.372578	0.673698
	C157	C	0.120707	0.621656	0.675144
	C158	C	0.904834	0.620630	0.309768
	C159	C	0.121996	0.373255	0.312114
	C160	C	0.390223	0.676035	0.884067
	C161	C	0.636761	0.676431	0.102351
	C162	C	0.635015	0.315373	0.883033
	C163	C	0.387450	0.311407	0.100281
	C164	C	0.694313	0.885115	0.368791
	C165	C	0.693693	0.103262	0.616663
	C166	C	0.330124	0.886057	0.617628
	C167	C	0.332896	0.104167	0.369095
	C168	C	0.890301	0.384007	0.172183
	C169	C	0.136384	0.603712	0.173578
	C170	C	0.136781	0.386506	0.810720
	C171	C	0.891569	0.605487	0.813387
	C172	C	0.196267	0.870594	0.385286
	C173	C	0.192896	0.117918	0.602446
	C174	C	0.832205	0.118805	0.383472
	C175	C	0.831622	0.871369	0.601192
	C176	C	0.405151	0.176360	0.868885
	C177	C	0.622296	0.176867	0.116604
	C178	C	0.404147	0.813328	0.116602
	C179	C	0.622567	0.814663	0.870199
	C180	C	0.404458	0.871147	0.174792
	C181	C	0.622448	0.119306	0.174656
	C182	C	0.404849	0.118094	0.811515
	C183	C	0.621543	0.870553	0.810635
	C184	C	0.891000	0.175641	0.382917
	C185	C	0.133357	0.173815	0.603457
	C186	C	0.138229	0.812968	0.385157
	C187	C	0.889887	0.814128	0.601348
	C188	C	0.195131	0.386893	0.867372
	C189	C	0.194793	0.603243	0.116526
	C190	C	0.832572	0.384001	0.115009
	C191	C	0.833846	0.605230	0.871253
	C192	C	0.417881	0.085430	0.589379
	C193	C	0.608430	0.903305	0.587687
	C194	C	0.609890	0.085520	0.396619
	C195	C	0.417932	0.904672	0.398440
	C196	C	0.610092	0.398219	0.083915
	C197	C	0.612112	0.591378	0.902590
	C198	C	0.417768	0.588551	0.082089
	C199	C	0.418376	0.399872	0.903221
	C200	C	0.101838	0.589656	0.396475
	C201	C	0.923746	0.590408	0.588366
	C202	C	0.104412	0.397385	0.591000
	C203	C	0.921763	0.397501	0.395424
	C204	C	0.916127	0.585580	0.089235
	C205	C	0.107615	0.404189	0.087078
	C206	C	0.108827	0.585790	0.897771
	C207	C	0.916191	0.403723	0.895823
	C208	C	0.108299	0.901649	0.583000
	C209	C	0.111134	0.092444	0.402037
	C210	C	0.914663	0.091486	0.583464
	C211	C	0.917816	0.900020	0.402220
	C212	C	0.602601	0.089044	0.897250
	C213	C	0.424615	0.088897	0.088844
	C214	C	0.603626	0.897974	0.089672
	C215	C	0.422366	0.896630	0.895887
	Zn216	Zn	0.512659	-0.006271	0.742978
	Zn217	Zn	0.514089	-0.005468	0.243679
	Zn218	Zn	0.763670	0.495071	-0.006610
	Zn219	Zn	0.262571	0.494276	-0.007505
	Zn220	Zn	0.013403	0.745574	0.492425
	Zn221	Zn	0.012773	0.244833	0.492679
	Zn222	Zn	0.013386	0.496100	0.743016
	Zn223	Zn	0.012347	0.494651	0.241650
	Zn224	Zn	0.513579	0.743978	-0.006623
	Zn225	Zn	0.513332	0.244257	-0.007256
	Zn226	Zn	0.762751	-0.005412	0.492370
	Zn227	Zn	0.263774	-0.004443	0.493606
	N228	N	0.425964	0.959357	0.672791
	N229	N	0.599938	0.028046	0.673231
	N230	N	0.600274	0.959437	0.312916
	N231	N	0.426916	0.029382	0.313167
	N232	N	0.693400	0.408216	0.958351
	N233	N	0.694826	0.582821	0.028029
	N234	N	0.331704	0.582632	0.958784
	N235	N	0.331101	0.405769	0.026394
	N236	N	0.978374	0.675604	0.405320
	N237	N	0.048102	0.675911	0.579398
	N238	N	0.978129	0.315186	0.579629
	N239	N	0.048398	0.316579	0.407353
	N240	N	0.978780	0.408081	0.673649
	N241	N	0.047315	0.583704	0.673449
	N242	N	0.977936	0.582516	0.311486
	N243	N	0.047116	0.407674	0.311795
	N244	N	0.428023	0.673080	0.957263
	N245	N	0.600715	0.674714	0.028118
	N246	N	0.599049	0.315893	0.957459
	N247	N	0.426089	0.314618	0.027249
	N248	N	0.693403	0.959846	0.405240
	N249	N	0.692275	0.029221	0.579330
	N250	N	0.332354	0.960562	0.580821
	N251	N	0.333868	0.030024	0.406403
	N252	N	0.925964	0.459203	0.171833
	N253	N	0.098936	0.529650	0.171655
	N254	N	0.099629	0.460615	0.812787
	N255	N	0.927231	0.530658	0.813635
	N256	N	0.194168	0.908392	0.458813
	N257	N	0.194002	0.083261	0.527263
	N258	N	0.831776	0.083101	0.458051
	N259	N	0.832696	0.907732	0.526913
	N260	N	0.478713	0.174515	0.905765
	N261	N	0.548608	0.174825	0.079787
	N262	N	0.478218	0.814420	0.080024
	N263	N	0.548536	0.815287	0.906888
	N264	N	0.478679	0.907403	0.173776
	N265	N	0.548904	0.081646	0.173265
	N266	N	0.478159	0.080393	0.813413
	N267	N	0.546809	0.905380	0.810740
	N268	N	0.926595	0.174704	0.457434
	N269	N	0.097893	0.173278	0.528943
	N270	N	0.100519	0.815625	0.458619
	N271	N	0.926717	0.815622	0.527278
	N272	N	0.193795	0.461041	0.904421
	N273	N	0.193177	0.528957	0.079689
	N274	N	0.832843	0.459197	0.079745
	N275	N	0.834220	0.530284	0.906925
	O276	O	0.077881	0.954429	0.176734
	H277	H	0.058228	0.971963	0.175354
	H278	H	0.069194	0.953592	0.180438
	O279	O	0.538558	0.290729	0.279400
	H280	H	0.527618	0.280637	0.267777
	H281	H	0.549199	0.299477	0.269505
	O282	O	0.855800	-0.170508	0.802001
	H283	H	0.865879	-0.143296	0.812941
	H284	H	0.865423	-0.155236	0.816920
	O285	O	0.224287	0.780962	0.966295
	H286	H	0.219218	0.762118	0.965382
	H287	H	0.233459	0.788139	0.953544
	O288	O	0.447075	0.382638	0.619367
	H289	H	0.452998	0.386387	0.625964
	H290	H	0.444403	0.389047	0.622792
	O291	O	0.486231	0.274942	0.468259
	H292	H	0.488714	0.278850	0.451143
	H293	H	0.470162	0.270963	0.473735
	O294	O	0.705437	0.303575	0.684287
	H295	H	0.680687	0.314742	0.662481
	H296	H	0.691408	0.330691	0.672437
	O297	O	0.495526	0.658458	0.345142
	H298	H	0.489985	0.680959	0.340131
	H299	H	0.489334	0.655356	0.349161
	O300	O	-0.196836	0.199985	0.786221
	H301	H	-0.156848	0.197526	0.783246
	H302	H	-0.226029	0.233626	0.752726
	O303	O	0.318885	0.357046	0.368729
	H304	H	0.321656	0.382350	0.386392
	H305	H	0.328553	0.355076	0.384294
	O306	O	0.313757	0.695806	0.419145
	H307	H	0.312808	0.705303	0.412917
	H308	H	0.322557	0.706719	0.419717
	O309	O	0.551788	0.713909	0.715885
	H310	H	0.537221	0.701923	0.700856
	H311	H	0.544831	0.744670	0.746378
	O312	O	0.581076	0.559178	0.592528
	H313	H	0.581922	0.571136	0.599413
	H314	H	0.571819	0.544684	0.584276
	O315	O	1.018374	0.831353	0.779284
	H316	H	1.006552	0.828694	0.786433
	H317	H	1.001554	0.853601	0.770367
	O318	O	0.556725	0.324595	0.555712
	H319	H	0.546576	0.321349	0.540238
	H320	H	0.564626	0.324765	0.554473
	O321	O	0.219413	0.959335	0.933755
	H322	H	0.223607	0.965367	0.937395
	H323	H	0.212111	0.963798	0.925522
	O324	O	1.040059	1.204109	0.217152
	H325	H	1.059247	1.227919	0.238201
	H326	H	1.067558	1.214233	0.220357
	O327	O	0.001024	0.006135	1.107790
	H328	H	-0.005478	0.023156	1.105319
	H329	H	0.005221	0.011543	1.124336
	O330	O	0.732906	0.273519	0.457119
	H331	H	0.749571	0.244286	0.464362
	H332	H	0.729795	0.281938	0.443987
	O333	O	0.639214	0.610812	0.287622
	H334	H	0.629521	0.627563	0.282992
	H335	H	0.649408	0.617969	0.295798
	O336	O	0.522943	0.612962	0.279342
	H337	H	0.529097	0.618264	0.293477
	H338	H	0.518972	0.639225	0.265713
	O339	O	0.746660	-0.279867	0.724641
	H340	H	0.771844	-0.251317	0.755513
	H341	H	0.712139	-0.269628	0.730960
	O342	O	0.006137	-0.220891	0.178186
	H343	H	0.007492	-0.228757	0.188993
	H344	H	-0.000464	-0.217393	0.173600
	O345	O	0.047964	1.040894	0.924670
	H346	H	0.062639	1.050304	0.934751
	H347	H	0.032265	1.050670	0.935594
	O348	O	0.272278	0.256926	0.252400
	H349	H	0.286513	0.238570	0.263854
	H350	H	0.295581	0.286389	0.274179
	O351	O	0.459858	0.390205	0.301830
	H352	H	0.467840	0.413068	0.297753
	H353	H	0.461938	0.398636	0.293519
	O354	O	-0.004719	0.153046	1.040235
	H355	H	-0.009509	0.143934	1.040080
	H356	H	-0.012270	0.173578	1.047922
	O357	O	0.350593	0.504978	0.403681
	H358	H	0.352790	0.508946	0.398333
	H359	H	0.369054	0.519605	0.391704
	O360	O	0.508498	0.320469	0.705227
	H361	H	0.512062	0.319453	0.706658
	H362	H	0.526332	0.344053	0.714701
	O363	O	-0.163116	0.008451	0.097121
	H364	H	-0.165598	0.016886	0.102336
	H365	H	-0.170872	0.011183	0.119635
	O366	O	0.544556	0.470096	0.708002
	H367	H	0.558552	0.491848	0.710690
	H368	H	0.531502	0.482092	0.703861
	O369	O	1.031288	-0.082083	-0.195041
	H370	H	1.021412	-0.076716	-0.185338
	H371	H	1.016097	-0.068923	-0.194145
	O372	O	0.809697	0.798899	0.024865
	H373	H	0.802356	0.787403	0.018524
	H374	H	0.805632	0.815055	0.005720
	O375	O	0.920463	0.000636	0.118834
	H376	H	0.928419	0.026416	0.113845
	H377	H	0.899955	0.010698	0.134937
	O378	O	0.327297	0.677270	0.673240
	H379	H	0.316609	0.683706	0.673660
	H380	H	0.313497	0.679705	0.682161
	O381	O	0.220184	0.787336	0.788904
	H382	H	0.221725	0.820382	0.806971
	H383	H	0.173357	0.783435	0.792147
	O384	O	0.862992	0.129933	1.166258
	H385	H	0.851925	0.141986	1.161032
	H386	H	0.871427	0.134439	1.169266
	O387	O	1.189402	0.817425	0.174785
	H388	H	1.179138	0.838167	0.161481
	H389	H	1.172407	0.827426	0.153894
	O390	O	0.361285	0.509698	0.271957
	H391	H	0.358081	0.526745	0.264314
	H392	H	0.358727	0.511379	0.274834
	O393	O	0.729637	0.460504	0.278092
	H394	H	0.725109	0.481973	0.290783
	H395	H	0.752932	0.463877	0.257133
	O396	O	-0.053759	1.121828	1.016461
	H397	H	-0.042011	1.124481	1.034608
	H398	H	-0.064337	1.141225	1.015087
	O399	O	-0.205159	0.017401	0.778138
	H400	H	-0.204525	0.042053	0.773205
	H401	H	-0.220978	0.033832	0.770714
	O402	O	0.662874	0.499154	0.433117
	H403	H	0.664048	0.507784	0.435496
	H404	H	0.666305	0.509336	0.436097
	O405	O	0.988050	0.122810	0.799720
	H406	H	0.999771	0.132604	0.802860
	H407	H	1.001633	0.134229	0.801651
	O408	O	0.223706	0.201151	0.011231
	H409	H	0.215832	0.205943	0.029544
	H410	H	0.237210	0.216666	0.018402
	O411	O	0.699919	0.708282	0.504945
	H412	H	0.705468	0.721745	0.533525
	H413	H	0.711563	0.714509	0.520166
	O414	O	0.488597	0.548642	0.465107
	H415	H	0.481613	0.540878	0.469947
	H416	H	0.482579	0.545656	0.459630
	O417	O	0.294089	0.468937	0.707208
	H418	H	0.266689	0.468332	0.725470
	H419	H	0.305893	0.467407	0.690130
	O420	O	-0.079091	0.978168	0.953446
	H421	H	-0.077813	0.991176	0.951626
	H422	H	-0.080705	0.990209	0.957127
	O423	O	-0.004264	0.211634	0.846592
	H424	H	-0.006054	0.220689	0.852756
	H425	H	0.002945	0.214495	0.838183
	O426	O	0.461203	0.715726	0.566035
	H427	H	0.462736	0.707271	0.563031
	H428	H	0.449306	0.713400	0.572467
	O429	O	0.946302	0.780366	0.936608
	H430	H	0.954492	0.771425	0.942014
	H431	H	0.956832	0.801414	0.951074
	O432	O	0.306786	0.279833	0.704704
	H433	H	0.346509	0.284466	0.696897
	H434	H	0.311450	0.312179	0.691334
	O435	O	-0.191015	0.878858	0.196848
	H436	H	-0.202766	0.889279	0.201527
	H437	H	-0.184183	0.865312	0.186791
	O438	O	0.243124	0.032536	-0.052995
	H439	H	0.238186	0.040284	-0.072394
	H440	H	0.248048	0.057537	-0.050174
	O441	O	0.227625	0.082312	0.131472
	H442	H	0.237399	0.059135	0.115951
	H443	H	0.247328	0.103642	0.142537
	O444	O	0.578347	0.630006	0.436350
	H445	H	0.589855	0.641129	0.419061
	H446	H	0.594557	0.630004	0.443971
	O447	O	0.115740	0.978428	0.863584
	H448	H	0.110668	0.987043	0.852690
	H449	H	0.112605	0.983402	0.860432
	O450	O	0.066267	0.811212	1.000897
	H451	H	0.078770	0.812947	1.005160
	H452	H	0.051964	0.834080	1.000308
	O453	O	0.201511	0.181390	0.807623
	H454	H	0.202304	0.157027	0.820000
	H455	H	0.234545	0.211239	0.777655
	O456	O	0.223979	0.035587	1.202804
	H457	H	0.216453	0.024620	1.193760
	H458	H	0.236854	0.020436	1.218976
	O459	O	0.748562	0.712030	0.341508
	H460	H	0.737331	0.709982	0.330031
	H461	H	0.766078	0.708402	0.353808
	O462	O	0.708442	0.294986	0.295669
	H463	H	0.709618	0.342188	0.286969
	H464	H	0.686279	0.289221	0.321248
	O465	O	0.879262	0.012102	0.037119
	H466	H	0.888336	0.020935	0.051370
	H467	H	0.881956	0.037448	0.033890
	O468	O	0.277793	0.549039	0.542277
	H469	H	0.279765	0.556857	0.531504
	H470	H	0.278949	0.558940	0.546343
	O471	O	0.635532	0.649749	0.432010
	H472	H	0.639584	0.663963	0.439806
	H473	H	0.635541	0.649696	0.425884
	O474	O	0.302644	0.653761	0.279198
	H475	H	0.289633	0.660816	0.267335
	H476	H	0.295675	0.669342	0.269788
	O477	O	0.428037	0.517336	1.687660
	H478	H	0.430466	0.532212	1.680828
	H479	H	0.430951	0.524757	1.685305
	O480	O	0.295179	0.271019	0.528960
	H481	H	0.283340	0.252957	0.538234
	H482	H	0.290275	0.269318	0.531157
	O483	O	0.733692	0.419634	0.542832
	H484	H	0.735640	0.419107	0.531968
	H485	H	0.727246	0.414695	0.538582
	O486	O	0.727041	0.517179	0.707322
	H487	H	0.749218	0.530381	0.710072
	H488	H	0.737672	0.544751	0.702574
	O489	O	0.788842	1.211996	-0.043293
	H490	H	0.795071	1.204532	-0.085771
	H491	H	0.765574	1.244534	-0.044756
