data_Molecule from HDF5

_cell_length_a		16.601163
_cell_length_b		16.670831
_cell_length_c		16.724272
_cell_angle_alpha	89.930956
_cell_angle_beta	89.852429
_cell_angle_gamma	89.866959
_symmetry_space_group_name_H-M	'P 1'
_symmetry_Int_Tables_number		1

loop_
	_symmetry_equiv_pos_as_xyz
	x,y,z

loop_
	_atom_site_label
	_atom_site_type_symbol
	_atom_site_fract_x
	_atom_site_fract_y
	_atom_site_fract_z
	H0	H	0.384708	0.857678	0.707548
	H1	H	0.600334	0.164043	0.708910
	H2	H	0.604449	0.859570	0.260699
	H3	H	0.383164	0.164096	0.258529
	H4	H	0.715904	0.403932	0.831621
	H5	H	0.718805	0.619663	0.136070
	H6	H	0.267827	0.619527	0.833499
	H7	H	0.270390	0.403457	0.138266
	H8	H	0.838412	0.733495	0.378962
	H9	H	0.143642	0.738620	0.597205
	H10	H	0.841009	0.286900	0.591660
	H11	H	0.143517	0.282146	0.370904
	H12	H	0.840159	0.402299	0.708467
	H13	H	0.143966	0.622839	0.711648
	H14	H	0.838836	0.618353	0.261715
	H15	H	0.144316	0.397705	0.255355
	H16	H	0.382214	0.736520	0.833770
	H17	H	0.607877	0.740416	0.132783
	H18	H	0.598850	0.288979	0.829309
	H19	H	0.387279	0.288323	0.138906
	H20	H	0.715729	0.858081	0.380205
	H21	H	0.717897	0.163194	0.595552
	H22	H	0.269890	0.857749	0.590987
	H23	H	0.265552	0.162801	0.372415
	H24	H	0.887554	0.356568	0.207976
	H25	H	0.096606	0.666575	0.203066
	H26	H	0.099688	0.357100	0.761726
	H27	H	0.885869	0.664130	0.763674
	H28	H	0.216940	0.904557	0.330999
	H29	H	0.215970	0.118161	0.637882
	H30	H	0.770753	0.119526	0.331182
	H31	H	0.776940	0.911291	0.640633
	H32	H	0.335173	0.228132	0.883347
	H33	H	0.650354	0.226297	0.084170
	H34	H	0.339638	0.787037	0.093826
	H35	H	0.648572	0.790842	0.881150
	H36	H	0.340629	0.901533	0.210535
	H37	H	0.649749	0.112212	0.202153
	H38	H	0.334984	0.112871	0.767135
	H39	H	0.648022	0.907766	0.765830
	H40	H	0.885430	0.235990	0.331907
	H41	H	0.101821	0.235763	0.636478
	H42	H	0.100642	0.788470	0.330133
	H43	H	0.888188	0.790050	0.638446
	H44	H	0.213431	0.355232	0.879486
	H45	H	0.212666	0.665566	0.087042
	H46	H	0.771586	0.354954	0.091373
	H47	H	0.771928	0.665002	0.882253
	H48	H	0.405172	0.122486	0.578022
	H49	H	0.576738	0.900464	0.577417
	H50	H	0.582401	0.122734	0.398004
	H51	H	0.412355	0.903637	0.394711
	H52	H	0.580626	0.418508	0.095589
	H53	H	0.580194	0.595177	0.876249
	H54	H	0.405050	0.599842	0.095461
	H55	H	0.412326	0.418332	0.876551
	H56	H	0.106392	0.601301	0.390346
	H57	H	0.881927	0.594341	0.576958
	H58	H	0.101196	0.431274	0.569791
	H59	H	0.884920	0.425273	0.399332
	H60	H	0.105860	0.424068	0.576798
	H61	H	0.879933	0.604944	0.573377
	H62	H	0.104325	0.603079	0.398511
	H63	H	0.884989	0.427064	0.398251
	H64	H	0.404188	0.594953	0.094656
	H65	H	0.578123	0.596283	0.876494
	H66	H	0.581708	0.416323	0.097011
	H67	H	0.399118	0.413827	0.869576
	H68	H	0.581937	0.124151	0.393400
	H69	H	0.586060	0.901017	0.569209
	H70	H	0.407732	0.120694	0.571708
	H71	H	0.409042	0.905422	0.404355
	H72	H	0.910472	0.621370	0.077699
	H73	H	0.082407	0.397628	0.075427
	H74	H	0.075440	0.617122	0.904238
	H75	H	0.902763	0.396180	0.892598
	H76	H	0.088477	0.926925	0.595800
	H77	H	0.085076	0.090683	0.375110
	H78	H	0.905748	0.102292	0.595667
	H79	H	0.904073	0.922895	0.373229
	H80	H	0.607198	0.111280	0.900259
	H81	H	0.382511	0.099601	0.069509
	H82	H	0.608046	0.918070	0.078241
	H83	H	0.379887	0.918721	0.899581
	H84	H	0.600883	0.920978	0.061915
	H85	H	0.381112	0.093724	0.075782
	H86	H	0.599115	0.089088	0.900691
	H87	H	0.382041	0.925827	0.896639
	H88	H	0.903495	0.098279	0.594902
	H89	H	0.070419	0.094880	0.379764
	H90	H	0.073516	0.927689	0.590180
	H91	H	0.904745	0.920596	0.372247
	H92	H	0.089110	0.624371	0.897330
	H93	H	0.076654	0.401048	0.073304
	H94	H	0.905987	0.617379	0.066635
	H95	H	0.909009	0.400034	0.895300
	H96	H	0.401630	0.123319	0.572082
	H97	H	0.587769	0.896346	0.580478
	H98	H	0.578172	0.122725	0.395748
	H99	H	0.403655	0.900882	0.397670
	H100	H	0.583100	0.418073	0.096157
	H101	H	0.580124	0.597776	0.875865
	H102	H	0.408678	0.596749	0.092826
	H103	H	0.400644	0.428418	0.874956
	H104	H	0.102556	0.595165	0.395036
	H105	H	0.885415	0.597529	0.566456
	H106	H	0.103600	0.421196	0.565999
	H107	H	0.883242	0.425807	0.397313
	H108	H	0.897777	0.623065	0.074822
	H109	H	0.081995	0.400836	0.069114
	H110	H	0.074819	0.622167	0.888240
	H111	H	0.902628	0.399401	0.899498
	H112	H	0.078456	0.914089	0.597031
	H113	H	0.080173	0.105943	0.371877
	H114	H	0.908264	0.098449	0.593808
	H115	H	0.902432	0.921681	0.371336
	H116	H	0.609029	0.097865	0.880936
	H117	H	0.378971	0.101646	0.076966
	H118	H	0.600782	0.934032	0.073918
	H119	H	0.378239	0.920312	0.892185
	C120	C	0.371699	0.019512	0.605700
	C121	C	0.614971	1.001661	0.607822
	C122	C	0.614547	0.020917	0.363785
	C123	C	0.372818	1.003393	0.363552
	C124	C	0.614553	0.386660	-0.006273
	C125	C	0.614572	0.631154	0.976342
	C126	C	0.371817	0.631132	-0.006588
	C127	C	0.371381	0.388120	0.975807
	C128	C	0.001475	0.632491	0.362807
	C129	C	0.983684	0.632852	0.606341
	C130	C	0.001991	0.391038	0.604796
	C131	C	0.985221	0.390606	0.363398
	C132	C	0.871397	0.518595	0.106531
	C133	C	0.113352	0.501688	0.105137
	C134	C	0.113360	0.519095	0.863575
	C135	C	0.871351	0.501069	0.863853
	C136	C	0.114072	0.889596	0.492716
	C137	C	0.113662	0.131888	0.475952
	C138	C	0.871953	0.133529	0.493480
	C139	C	0.872352	0.890583	0.475339
	C140	C	0.501113	0.130896	0.863295
	C141	C	0.484599	0.129666	0.104365
	C142	C	0.501971	0.889557	0.106047
	C143	C	0.483373	0.889608	0.864278
	C144	C	0.367439	0.903705	0.666595
	C145	C	0.617942	0.117581	0.668936
	C146	C	0.619898	0.905420	0.302501
	C147	C	0.366429	0.117945	0.299796
	C148	C	0.675377	0.385293	0.877564
	C149	C	0.677902	0.636931	0.090261
	C150	C	0.309091	0.636328	0.879064
	C151	C	0.310591	0.385563	0.091812
	C152	C	0.884859	0.693423	0.360290
	C153	C	0.098076	0.696747	0.613007
	C154	C	0.886713	0.328115	0.609469
	C155	C	0.098793	0.325220	0.355613
	C156	C	0.886243	0.385335	0.667341
	C157	C	0.098126	0.639082	0.670201
	C158	C	0.885059	0.636080	0.302431
	C159	C	0.098995	0.382602	0.298076
	C160	C	0.366093	0.694621	0.879322
	C161	C	0.622473	0.696749	0.088661
	C162	C	0.617295	0.328146	0.876610
	C163	C	0.368644	0.327974	0.092155
	C164	C	0.675806	0.904620	0.361504
	C165	C	0.676284	0.117348	0.612067
	C166	C	0.310469	0.903910	0.608552
	C167	C	0.307967	0.117326	0.356781
	C168	C	0.869041	0.402522	0.167370
	C169	C	0.115284	0.619374	0.163883
	C170	C	0.117033	0.403135	0.802510
	C171	C	0.868039	0.617841	0.804023
	C172	C	0.176095	0.886214	0.376959
	C173	C	0.175680	0.136079	0.591308
	C174	C	0.810841	0.137422	0.377857
	C175	C	0.814831	0.890893	0.593299
	C176	C	0.382267	0.188829	0.863820
	C177	C	0.603290	0.187106	0.103648
	C178	C	0.386223	0.827607	0.111143
	C179	C	0.601500	0.830812	0.862754
	C180	C	0.386724	0.884368	0.169227
	C181	C	0.602984	0.130338	0.162029
	C182	C	0.382348	0.131546	0.806169
	C183	C	0.601325	0.888793	0.805541
	C184	C	0.868017	0.195290	0.378128
	C185	C	0.119000	0.194678	0.590628
	C186	C	0.118304	0.828560	0.376914
	C187	C	0.870573	0.831117	0.592247
	C188	C	0.173616	0.402377	0.861100
	C189	C	0.172713	0.618981	0.106040
	C190	C	0.811741	0.401694	0.109375
	C191	C	0.811273	0.618078	0.862677
	C192	C	0.397539	0.100992	0.580912
	C193	C	0.590371	0.920366	0.582836
	C194	C	0.588430	0.102108	0.388851
	C195	C	0.400648	0.923924	0.391124
	C196	C	0.589048	0.410692	0.075018
	C197	C	0.587347	0.603897	0.896789
	C198	C	0.398477	0.604750	0.073446
	C199	C	0.396797	0.413091	0.894709
	C200	C	0.083188	0.607072	0.387504
	C201	C	0.903168	0.606254	0.579586
	C202	C	0.082579	0.418008	0.578318
	C203	C	0.905173	0.418449	0.390813
	C204	C	0.897211	0.599652	0.080556
	C205	C	0.087700	0.420917	0.079921
	C206	C	0.087340	0.600261	0.889134
	C207	C	0.897297	0.419632	0.888575
	C208	C	0.087751	0.915561	0.573389
	C209	C	0.086423	0.104863	0.396307
	C210	C	0.898354	0.107317	0.574010
	C211	C	0.896784	0.914769	0.393668
	C212	C	0.583547	0.106484	0.887241
	C213	C	0.402287	0.105327	0.080796
	C214	C	0.582146	0.916400	0.078957
	C215	C	0.401330	0.914465	0.889179
	Zn216	Zn	0.491554	0.010249	0.735191
	Zn217	Zn	0.493669	0.010747	0.234776
	Zn218	Zn	0.742854	0.509150	-0.014499
	Zn219	Zn	0.242596	0.509929	-0.015816
	Zn220	Zn	-0.006915	0.760767	0.484331
	Zn221	Zn	-0.006138	0.262018	0.484092
	Zn222	Zn	-0.007320	0.511001	0.734405
	Zn223	Zn	-0.006927	0.510900	0.234789
	Zn224	Zn	0.492969	0.760328	-0.014972
	Zn225	Zn	0.492681	0.259061	-0.015975
	Zn226	Zn	0.743127	0.012596	0.485059
	Zn227	Zn	0.243005	0.011117	0.484226
	N228	N	0.405039	0.976859	0.665040
	N229	N	0.580315	0.044494	0.666589
	N230	N	0.582337	0.978666	0.303848
	N231	N	0.406207	0.045957	0.303684
	N232	N	0.674131	0.420980	0.951593
	N233	N	0.672939	0.596487	0.019272
	N234	N	0.312547	0.597271	0.951079
	N235	N	0.312108	0.422316	0.018433
	N236	N	0.958546	0.691354	0.397344
	N237	N	0.026052	0.692866	0.573380
	N238	N	0.959607	0.331770	0.570985
	N239	N	0.027096	0.330352	0.396024
	N240	N	0.959015	0.423863	0.664651
	N241	N	0.025929	0.599665	0.666040
	N242	N	0.958740	0.598978	0.303736
	N243	N	0.027244	0.422917	0.302932
	N244	N	0.404582	0.691607	0.951521
	N245	N	0.583290	0.693129	0.016857
	N246	N	0.580195	0.328804	0.949922
	N247	N	0.406000	0.329435	0.018971
	N248	N	0.672687	0.977664	0.399158
	N249	N	0.674569	0.044489	0.574312
	N250	N	0.313165	0.977045	0.571335
	N251	N	0.311895	0.045155	0.395975
	N252	N	0.905166	0.476352	0.165746
	N253	N	0.079180	0.545375	0.163875
	N254	N	0.080389	0.477026	0.803689
	N255	N	0.904444	0.543748	0.804152
	N256	N	0.173832	0.923207	0.450179
	N257	N	0.172740	0.097826	0.518870
	N258	N	0.813020	0.099708	0.450815
	N259	N	0.815512	0.927037	0.519426
	N260	N	0.457412	0.189015	0.898335
	N261	N	0.528430	0.187213	0.068727
	N262	N	0.459047	0.830375	0.072533
	N263	N	0.526862	0.830804	0.898224
	N264	N	0.459789	0.922107	0.166482
	N265	N	0.527949	0.095974	0.163064
	N266	N	0.457365	0.096702	0.805335
	N267	N	0.526608	0.924388	0.806079
	N268	N	0.905411	0.193045	0.451216
	N269	N	0.081373	0.192476	0.517743
	N270	N	0.080637	0.830227	0.450183
	N271	N	0.905267	0.830487	0.517714
	N272	N	0.171577	0.475630	0.898196
	N273	N	0.172237	0.544718	0.070844
	N274	N	0.812790	0.475239	0.072492
	N275	N	0.813097	0.544348	0.898949
	O276	O	0.132687	1.156605	-0.119642
	H277	H	0.158996	1.179356	-0.130465
	H278	H	0.140893	1.156690	-0.107925
	O279	O	0.788255	1.029085	1.019975
	H280	H	0.782192	1.035554	1.033753
	H281	H	0.788114	1.039341	1.026641
	O282	O	0.942851	-0.001196	1.083775
	H283	H	0.932840	-0.016536	1.083124
	H284	H	0.945570	-0.009464	1.094492
	O285	O	0.445307	0.418397	0.594171
	H286	H	0.417893	0.413941	0.605838
	H287	H	0.445705	0.434135	0.591408
	O288	O	0.377176	0.723010	0.453183
	H289	H	0.382690	0.724483	0.450391
	H290	H	0.371299	0.724166	0.452528
	O291	O	0.344182	0.654642	0.435787
	H292	H	0.323645	0.665368	0.437034
	H293	H	0.368128	0.652758	0.431824
	O294	O	0.971376	0.152163	1.026050
	H295	H	0.965667	0.164934	1.020075
	H296	H	0.972018	0.145789	1.025307
	O297	O	0.524619	0.276582	0.591669
	H298	H	0.531985	0.279199	0.580412
	H299	H	0.529804	0.282891	0.585141
	O300	O	-0.042977	0.135244	0.996640
	H301	H	-0.053779	0.142643	0.998111
	H302	H	-0.053525	0.137517	0.990270
	O303	O	0.436738	0.685227	0.559965
	H304	H	0.432513	0.689240	0.575026
	H305	H	0.432685	0.697197	0.565573
	O306	O	0.574419	0.568492	0.559967
	H307	H	0.576656	0.574009	0.557132
	H308	H	0.561780	0.576235	0.562857
	O309	O	0.486301	0.732793	0.251653
	H310	H	0.468059	0.743910	0.260313
	H311	H	0.467389	0.750061	0.237133
	O312	O	0.256439	0.453787	0.411141
	H313	H	0.252341	0.459123	0.430133
	H314	H	0.255647	0.456071	0.402256
	O315	O	0.712870	0.484127	1.253645
	H316	H	0.739607	0.478761	1.242336
	H317	H	0.712910	0.478800	1.262051
	O318	O	0.437424	0.314779	0.425590
	H319	H	0.428840	0.310145	0.426304
	H320	H	0.430231	0.317984	0.413961
	O321	O	-0.553717	0.579207	0.549112
	H322	H	-0.550805	0.579421	0.560504
	H323	H	-0.555736	0.582883	0.556346
	O324	O	1.217250	0.787906	-0.240604
	H325	H	1.196365	0.806243	-0.242442
	H326	H	1.209191	0.797952	-0.201413
	O327	O	-0.211789	-0.196694	1.014205
	H328	H	-0.229229	-0.199879	1.027008
	H329	H	-0.222109	-0.189693	1.005328
	O330	O	0.431905	0.431599	0.261726
	H331	H	0.459620	0.403890	0.250044
	H332	H	0.451507	0.449510	0.270409
	O333	O	0.266031	0.288309	0.500359
	H334	H	0.251340	0.270908	0.518436
	H335	H	0.262035	0.285261	0.490987
	O336	O	0.557112	0.748141	0.435317
	H337	H	0.561113	0.758005	0.443664
	H338	H	0.558014	0.746904	0.459133
	O339	O	1.180300	-0.009289	0.766051
	H340	H	1.182721	0.007901	0.772626
	H341	H	1.185236	-0.021145	0.753669
	O342	O	0.262643	-0.263585	0.251945
	H343	H	0.270644	-0.298562	0.256951
	H344	H	0.279555	-0.268146	0.278812
	O345	O	-0.204499	1.039076	0.777721
	H346	H	-0.205198	1.054952	0.773586
	H347	H	-0.212506	1.063630	0.770825
	O348	O	0.014657	0.185441	0.152444
	H349	H	0.019889	0.189363	0.140710
	H350	H	0.014287	0.184283	0.155553
	O351	O	0.109957	0.110836	0.933486
	H352	H	0.098543	0.114450	0.939709
	H353	H	0.116832	0.122402	0.923992
	O354	O	-0.017415	-0.012276	0.978450
	H355	H	0.002794	-0.005768	0.975596
	H356	H	-0.020649	-0.000186	0.971351
	O357	O	0.694184	0.554291	0.708639
	H358	H	0.707161	0.559914	0.726134
	H359	H	0.694509	0.586851	0.707185
	O360	O	0.691133	0.334066	0.660953
	H361	H	0.686894	0.346521	0.637358
	H362	H	0.665962	0.352850	0.652034
	O363	O	0.190779	-0.172827	-0.081601
	H364	H	0.191237	-0.170276	-0.061764
	H365	H	0.201256	-0.161954	-0.071613
	O366	O	0.526377	0.738850	0.714343
	H367	H	0.539426	0.714014	0.714695
	H368	H	0.526669	0.772319	0.751140
	O369	O	0.958210	-0.198863	0.193842
	H370	H	0.961086	-0.194261	0.192979
	H371	H	0.961598	-0.217528	0.202403
	O372	O	1.275319	1.289054	-0.294208
	H373	H	1.280953	1.313583	-0.318808
	H374	H	1.315204	1.284893	-0.295438
	O375	O	1.047153	-0.194032	-0.210572
	H376	H	1.040391	-0.207242	-0.206148
	H377	H	1.051784	-0.185919	-0.201156
	O378	O	0.618865	0.574082	0.355718
	H379	H	0.596282	0.570534	0.358498
	H380	H	0.606525	0.574970	0.363795
	O381	O	0.213853	1.011227	1.146172
	H382	H	0.221046	1.022995	1.152523
	H383	H	0.212208	1.017838	1.163410
	O384	O	0.954438	0.019657	0.979002
	H385	H	0.974141	0.020737	0.977814
	H386	H	0.953890	0.017740	0.962790
	O387	O	1.301421	1.321713	0.297172
	H388	H	1.306219	1.336180	0.314209
	H389	H	1.327298	1.333436	0.297556
	O390	O	0.266250	0.539224	0.256545
	H391	H	0.258194	0.526521	0.251522
	H392	H	0.261417	0.523663	0.237456
	O393	O	0.697511	0.288143	0.264963
	H394	H	0.735142	0.261341	0.238125
	H395	H	0.702753	0.325976	0.277158
	O396	O	0.707724	0.282977	0.472254
	H397	H	0.730097	0.267074	0.449664
	H398	H	0.713596	0.293840	0.452895
	O399	O	-0.195878	-0.071787	0.937683
	H400	H	-0.187298	-0.047872	0.929512
	H401	H	-0.199890	-0.055949	0.950073
	O402	O	0.163783	0.838462	0.146577
	H403	H	0.153204	0.863189	0.141100
	H404	H	0.189432	0.809336	0.177799
	O405	O	0.776762	-0.772001	1.766856
	H406	H	0.794257	-0.768632	1.772975
	H407	H	0.750638	-0.744423	1.736006
	O408	O	0.001106	-0.063406	-0.069019
	H409	H	0.003681	-0.064038	-0.066996
	H410	H	0.009436	-0.061169	-0.072285
	O411	O	0.568406	0.441123	0.702784
	H412	H	0.589792	0.456097	0.698166
	H413	H	0.550807	0.450957	0.702479
	O414	O	1.118565	-0.061259	1.000512
	H415	H	1.131474	-0.052625	1.008293
	H416	H	1.105106	-0.054247	0.997325
	O417	O	0.318122	0.685696	0.679675
	H418	H	0.290355	0.699941	0.706450
	H419	H	0.313748	0.680057	0.675694
	O420	O	0.449314	0.571597	0.723401
	H421	H	0.450871	0.570718	0.728626
	H422	H	0.431093	0.569084	0.725350
	O423	O	-0.435698	-0.454125	1.248624
	H424	H	-0.435307	-0.432136	1.243355
	H425	H	-0.418408	-0.465470	1.252652
	O426	O	0.719436	0.742553	0.251802
	H427	H	0.714774	0.732879	0.261806
	H428	H	0.702689	0.714209	0.278384
	O429	O	0.849782	0.907483	1.189834
	H430	H	0.860454	0.900771	1.171396
	H431	H	0.825757	0.881836	1.207154
	O432	O	0.514353	0.387091	0.418872
	H433	H	0.515322	0.388461	0.431513
	H434	H	0.514809	0.377078	0.410919
	O435	O	0.205860	1.228290	0.014991
	H436	H	0.199392	1.228558	0.047379
	H437	H	0.229205	1.236988	0.018604
	O438	O	-0.224343	-0.014415	0.203456
	H439	H	-0.235642	-0.042331	0.215825
	H440	H	-0.231809	-0.039005	0.215498
	O441	O	0.099105	0.123300	-0.214954
	H442	H	0.091513	0.115068	-0.219530
	H443	H	0.121639	0.148363	-0.220563
	O444	O	0.267428	0.492437	0.712933
	H445	H	0.250686	0.474452	0.721736
	H446	H	0.251476	0.496293	0.707020
	O447	O	0.053757	1.050714	1.175983
	H448	H	0.052830	1.031855	1.179586
	H449	H	0.046280	1.046404	1.178408
	O450	O	0.074088	1.011014	1.120091
	H451	H	0.094290	0.988676	1.111183
	H452	H	0.064809	1.012612	1.119822
	O453	O	0.393180	0.516150	0.410044
	H454	H	0.369380	0.507143	0.398902
	H455	H	0.401904	0.523234	0.397179
	O456	O	0.004794	-0.195949	0.983451
	H457	H	-0.000623	-0.191024	0.982121
	H458	H	-0.006039	-0.200691	1.016227
	O459	O	0.718797	0.712192	0.522272
	H460	H	0.710182	0.688179	0.542122
	H461	H	0.755786	0.738356	0.520961
	O462	O	0.773846	0.230424	0.951544
	H463	H	0.784169	0.211858	0.922811
	H464	H	0.740532	0.263937	0.949849
	O465	O	1.250395	-0.426686	0.531134
	H466	H	1.261152	-0.400996	0.534790
	H467	H	1.246867	-0.430711	0.528597
	O468	O	0.641841	0.408083	0.432228
	H469	H	0.644008	0.421903	0.454647
	H470	H	0.623626	0.412088	0.434411
	O471	O	0.705976	0.725310	0.695935
	H472	H	0.683119	0.723249	0.680657
	H473	H	0.737537	0.757401	0.728233
	O474	O	-0.033631	0.959841	-0.240090
	H475	H	-0.037107	0.959115	-0.241161
	H476	H	-0.041021	0.965997	-0.240935
	O477	O	0.719439	0.450130	1.566292
	H478	H	0.715191	0.460341	1.575175
	H479	H	0.723939	0.449514	1.579291
	O480	O	0.524849	0.279967	0.253267
	H481	H	0.529870	0.252015	0.234286
	H482	H	0.564293	0.275584	0.252907
	O483	O	0.390206	0.636714	0.400795
	H484	H	0.404930	0.644171	0.401848
	H485	H	0.395340	0.612005	0.407116
	O486	O	1.716395	-0.409828	0.446622
	H487	H	1.699623	-0.408626	0.461736
	H488	H	1.718601	-0.420508	0.451788
	O489	O	1.199685	1.215880	0.183814
	H490	H	1.205418	1.233789	0.198861
	H491	H	1.176594	1.203725	0.190744
	O492	O	0.429066	0.304127	-0.310130
	H493	H	0.439624	0.289223	-0.295410
	H494	H	0.450057	0.302166	-0.322591
	O495	O	-0.164528	1.165752	1.180041
	H496	H	-0.148406	1.150842	1.167601
	H497	H	-0.152687	1.142607	1.171125
	O498	O	0.972693	1.222410	0.770246
	H499	H	0.978198	1.231140	0.764296
	H500	H	0.971781	1.218416	0.764240
	O501	O	0.805093	0.821320	0.794804
	H502	H	0.815647	0.843362	0.816688
	H503	H	0.834611	0.832836	0.808026
