data_Molecule from HDF5

_cell_length_a		16.234303
_cell_length_b		16.319195
_cell_length_c		16.338057
_cell_angle_alpha	89.961184
_cell_angle_beta	89.988422
_cell_angle_gamma	89.910411
_symmetry_space_group_name_H-M	'P 1'
_symmetry_Int_Tables_number		1

loop_
	_symmetry_equiv_pos_as_xyz
	x,y,z

loop_
	_atom_site_label
	_atom_site_type_symbol
	_atom_site_fract_x
	_atom_site_fract_y
	_atom_site_fract_z
	H0	H	0.397909	0.850628	0.717999
	H1	H	0.596863	0.176574	0.715057
	H2	H	0.598460	0.850289	0.286219
	H3	H	0.398679	0.176370	0.285840
	H4	H	0.713209	0.415559	0.837297
	H5	H	0.711800	0.609645	0.164140
	H6	H	0.283026	0.613360	0.837488
	H7	H	0.284035	0.416181	0.164207
	H8	H	0.834512	0.727668	0.402140
	H9	H	0.162756	0.726843	0.598454
	H10	H	0.833732	0.299093	0.599789
	H11	H	0.162275	0.298304	0.401652
	H12	H	0.834315	0.413883	0.716674
	H13	H	0.162865	0.610991	0.715141
	H14	H	0.835037	0.613033	0.286051
	H15	H	0.162246	0.414711	0.286768
	H16	H	0.400003	0.729389	0.838064
	H17	H	0.597225	0.726905	0.164190
	H18	H	0.600157	0.296472	0.838646
	H19	H	0.397781	0.296196	0.163603
	H20	H	0.712840	0.849494	0.403865
	H21	H	0.712314	0.176957	0.599153
	H22	H	0.285259	0.849330	0.598541
	H23	H	0.283356	0.176464	0.402657
	H24	H	0.899862	0.349577	0.216532
	H25	H	0.097209	0.677028	0.214783
	H26	H	0.098059	0.349313	0.786058
	H27	H	0.900583	0.676166	0.786179
	H28	H	0.212070	0.916053	0.337336
	H29	H	0.212262	0.110425	0.664401
	H30	H	0.782948	0.112034	0.337701
	H31	H	0.784955	0.916326	0.664826
	H32	H	0.334692	0.228550	0.902408
	H33	H	0.662337	0.226733	0.099251
	H34	H	0.335117	0.799533	0.098394
	H35	H	0.663509	0.799784	0.903100
	H36	H	0.334515	0.914941	0.215300
	H37	H	0.662347	0.112276	0.216018
	H38	H	0.334705	0.112984	0.786219
	H39	H	0.662977	0.915157	0.786230
	H40	H	0.897849	0.230503	0.338047
	H41	H	0.096565	0.228250	0.664402
	H42	H	0.096809	0.798627	0.338223
	H43	H	0.899419	0.798363	0.664200
	H44	H	0.212687	0.349192	0.904439
	H45	H	0.211397	0.677751	0.096435
	H46	H	0.784234	0.349882	0.098783
	H47	H	0.786503	0.677698	0.905048
	H48	H	0.402166	0.130970	0.599805
	H49	H	0.585816	0.897460	0.601006
	H50	H	0.579393	0.126783	0.406926
	H51	H	0.405642	0.896127	0.404123
	H52	H	0.590187	0.420471	0.115761
	H53	H	0.589193	0.598567	0.887202
	H54	H	0.402026	0.601984	0.115517
	H55	H	0.403118	0.415611	0.883349
	H56	H	0.117501	0.610159	0.404701
	H57	H	0.883415	0.610080	0.585784
	H58	H	0.114136	0.428804	0.600368
	H59	H	0.880621	0.424849	0.399887
	H60	H	0.118488	0.410387	0.596779
	H61	H	0.884559	0.596720	0.595012
	H62	H	0.114752	0.607867	0.413065
	H63	H	0.880310	0.413243	0.410907
	H64	H	0.411144	0.607301	0.115478
	H65	H	0.585965	0.615927	0.883870
	H66	H	0.591464	0.418321	0.116360
	H67	H	0.405007	0.427370	0.887531
	H68	H	0.595219	0.127183	0.418256
	H69	H	0.588047	0.901089	0.587296
	H70	H	0.412791	0.127427	0.594446
	H71	H	0.410216	0.899434	0.409203
	H72	H	0.902343	0.630097	0.094902
	H73	H	0.093801	0.393951	0.105122
	H74	H	0.097174	0.632416	0.902588
	H75	H	0.904042	0.399049	0.917127
	H76	H	0.090280	0.908081	0.620619
	H77	H	0.087704	0.102745	0.387578
	H78	H	0.910434	0.105987	0.614616
	H79	H	0.897811	0.905024	0.378062
	H80	H	0.617339	0.108330	0.904333
	H81	H	0.380891	0.107579	0.094967
	H82	H	0.619030	0.915010	0.100670
	H83	H	0.380700	0.916885	0.905069
	H84	H	0.614564	0.917221	0.087510
	H85	H	0.382606	0.106076	0.091187
	H86	H	0.615475	0.107886	0.910888
	H87	H	0.383806	0.919717	0.914263
	H88	H	0.904404	0.112886	0.618450
	H89	H	0.088107	0.110426	0.384600
	H90	H	0.102389	0.925054	0.618187
	H91	H	0.895587	0.935279	0.386159
	H92	H	0.084303	0.627991	0.903066
	H93	H	0.080973	0.401760	0.091940
	H94	H	0.906811	0.629677	0.098049
	H95	H	0.899596	0.393277	0.901750
	H96	H	0.401987	0.128413	0.587598
	H97	H	0.598582	0.894660	0.595077
	H98	H	0.596880	0.133508	0.400117
	H99	H	0.402834	0.897253	0.411025
	H100	H	0.592630	0.420515	0.116552
	H101	H	0.602685	0.608771	0.881140
	H102	H	0.402393	0.612039	0.119368
	H103	H	0.414506	0.419374	0.887195
	H104	H	0.113921	0.601822	0.406046
	H105	H	0.878677	0.610420	0.601461
	H106	H	0.110336	0.421642	0.582951
	H107	H	0.885863	0.427987	0.415005
	H108	H	0.907063	0.628227	0.092413
	H109	H	0.099666	0.397546	0.086157
	H110	H	0.092319	0.627634	0.913636
	H111	H	0.914359	0.399220	0.904772
	H112	H	0.082018	0.925276	0.612574
	H113	H	0.094506	0.105863	0.383672
	H114	H	0.901245	0.103856	0.616770
	H115	H	0.922728	0.919766	0.390134
	H116	H	0.614365	0.103206	0.906418
	H117	H	0.382371	0.103065	0.094930
	H118	H	0.614173	0.927498	0.096581
	H119	H	0.383700	0.926583	0.906581
	C120	C	0.376746	0.021058	0.622819
	C121	C	0.619834	1.005327	0.622895
	C122	C	0.619628	0.021453	0.379896
	C123	C	0.376820	1.005008	0.379074
	C124	C	0.621017	0.391213	0.008818
	C125	C	0.620400	0.635118	0.992322
	C126	C	0.377078	0.635553	0.008833
	C127	C	0.377907	0.391799	0.993117
	C128	C	0.006948	0.634841	0.380034
	C129	C	0.990628	0.634191	0.622332
	C130	C	0.006098	0.391767	0.622574
	C131	C	0.990252	0.392670	0.379912
	C132	C	0.876490	0.521368	0.123617
	C133	C	0.120179	0.505606	0.122352
	C134	C	0.120743	0.521477	0.878454
	C135	C	0.877602	0.505296	0.879446
	C136	C	0.119855	0.891301	0.509325
	C137	C	0.119431	0.135030	0.492792
	C138	C	0.876357	0.136288	0.509056
	C139	C	0.876471	0.891447	0.492973
	C140	C	0.507151	0.134861	0.879351
	C141	C	0.490103	0.134385	0.122510
	C142	C	0.507228	0.891758	0.123058
	C143	C	0.490760	0.892472	0.879770
	C144	C	0.378809	0.898842	0.678861
	C145	C	0.617654	0.127784	0.677736
	C146	C	0.618271	0.898837	0.324501
	C147	C	0.378458	0.127616	0.323768
	C148	C	0.675947	0.394459	0.886273
	C149	C	0.674491	0.631234	0.115453
	C150	C	0.321498	0.633586	0.886214
	C151	C	0.321998	0.394725	0.115699
	C152	C	0.883418	0.689941	0.381892
	C153	C	0.113732	0.689220	0.619611
	C154	C	0.882789	0.336837	0.620391
	C155	C	0.113383	0.336469	0.381721
	C156	C	0.883029	0.393596	0.678430
	C157	C	0.113888	0.631620	0.677459
	C158	C	0.883716	0.632986	0.324327
	C159	C	0.113480	0.394147	0.324572
	C160	C	0.379404	0.691231	0.886428
	C161	C	0.617329	0.689377	0.115253
	C162	C	0.619574	0.335429	0.886871
	C163	C	0.378572	0.335332	0.115465
	C164	C	0.675259	0.898428	0.382858
	C165	C	0.675016	0.128033	0.620035
	C166	C	0.322039	0.898466	0.620051
	C167	C	0.320964	0.127731	0.381754
	C168	C	0.879423	0.398615	0.178673
	C169	C	0.117934	0.628284	0.177231
	C170	C	0.118714	0.397996	0.823978
	C171	C	0.880193	0.627829	0.824383
	C172	C	0.174239	0.895243	0.386154
	C173	C	0.174674	0.131805	0.615645
	C174	C	0.820795	0.133251	0.386310
	C175	C	0.822334	0.894945	0.615975
	C176	C	0.383613	0.190637	0.881894
	C177	C	0.613600	0.189237	0.120239
	C178	C	0.384057	0.836928	0.119714
	C179	C	0.614412	0.837248	0.881996
	C180	C	0.383808	0.894294	0.177782
	C181	C	0.613376	0.132366	0.178345
	C182	C	0.383534	0.133347	0.824266
	C183	C	0.614299	0.895134	0.824535
	C184	C	0.878118	0.191743	0.386400
	C185	C	0.117035	0.190019	0.615694
	C186	C	0.117158	0.836902	0.386520
	C187	C	0.879005	0.836246	0.615497
	C188	C	0.175820	0.398148	0.882364
	C189	C	0.174558	0.628664	0.118322
	C190	C	0.821986	0.398510	0.120181
	C191	C	0.823722	0.628634	0.883416
	C192	C	0.399012	0.106847	0.600534
	C193	C	0.597615	0.919772	0.600903
	C194	C	0.597202	0.106862	0.401932
	C195	C	0.399515	0.919607	0.401674
	C196	C	0.598162	0.413351	0.094166
	C197	C	0.598941	0.613991	0.906245
	C198	C	0.398917	0.613435	0.094611
	C199	C	0.400866	0.414127	0.907944
	C200	C	0.093091	0.613052	0.401508
	C201	C	0.904505	0.612107	0.600435
	C202	C	0.092172	0.413904	0.600232
	C203	C	0.904515	0.415473	0.402155
	C204	C	0.898718	0.607296	0.101610
	C205	C	0.097986	0.419761	0.100617
	C206	C	0.098075	0.607011	0.900093
	C207	C	0.899481	0.419322	0.901403
	C208	C	0.097726	0.912961	0.595080
	C209	C	0.096888	0.112868	0.407458
	C210	C	0.898748	0.114085	0.594471
	C211	C	0.898641	0.913708	0.406961
	C212	C	0.593308	0.112973	0.900878
	C213	C	0.404162	0.112167	0.100154
	C214	C	0.593679	0.913648	0.101367
	C215	C	0.404812	0.914564	0.902075
	Zn216	Zn	0.498542	0.013753	0.751150
	Zn217	Zn	0.498764	0.013521	0.250951
	Zn218	Zn	0.748676	0.513730	0.000812
	Zn219	Zn	0.248770	0.513577	0.000160
	Zn220	Zn	-0.001817	0.763173	0.500964
	Zn221	Zn	-0.001711	0.264317	0.500820
	Zn222	Zn	-0.001484	0.512671	0.750778
	Zn223	Zn	-0.001070	0.513594	0.251795
	Zn224	Zn	0.499125	0.763874	0.000793
	Zn225	Zn	0.498989	0.262335	0.000799
	Zn226	Zn	0.748277	0.013507	0.501277
	Zn227	Zn	0.248005	0.012864	0.501021
	N228	N	0.412050	0.976469	0.680718
	N229	N	0.583983	0.050595	0.679428
	N230	N	0.584534	0.976155	0.322584
	N231	N	0.412518	0.050495	0.322118
	N232	N	0.676733	0.428764	0.963226
	N233	N	0.676539	0.598152	0.038084
	N234	N	0.320079	0.599540	0.963259
	N235	N	0.321578	0.429240	0.038892
	N236	N	0.960840	0.691148	0.415953
	N237	N	0.036063	0.690817	0.586096
	N238	N	0.960241	0.335756	0.586272
	N239	N	0.035746	0.335472	0.415537
	N240	N	0.960766	0.427299	0.679797
	N241	N	0.036223	0.597975	0.679066
	N242	N	0.961400	0.599216	0.323085
	N243	N	0.036119	0.428350	0.323375
	N244	N	0.413108	0.692553	0.963669
	N245	N	0.584420	0.691654	0.037630
	N246	N	0.585807	0.333550	0.963999
	N247	N	0.412752	0.333630	0.038246
	N248	N	0.676208	0.975637	0.416849
	N249	N	0.676600	0.050780	0.586683
	N250	N	0.320688	0.975456	0.585959
	N251	N	0.320038	0.050426	0.415752
	N252	N	0.912372	0.476224	0.180910
	N253	N	0.084832	0.550713	0.179852
	N254	N	0.085566	0.475597	0.821055
	N255	N	0.912875	0.550121	0.822038
	N256	N	0.175902	0.928529	0.463498
	N257	N	0.176091	0.098229	0.538378
	N258	N	0.819667	0.099319	0.463507
	N259	N	0.820826	0.928767	0.538720
	N260	N	0.461423	0.191652	0.915417
	N261	N	0.536090	0.190491	0.086120
	N262	N	0.461818	0.835316	0.086323
	N263	N	0.536830	0.835753	0.915812
	N264	N	0.461528	0.927747	0.179660
	N265	N	0.535597	0.099085	0.179837
	N266	N	0.461047	0.099492	0.822493
	N267	N	0.536355	0.928462	0.822737
	N268	N	0.912006	0.193401	0.463565
	N269	N	0.083690	0.192378	0.538292
	N270	N	0.084130	0.834506	0.463975
	N271	N	0.911812	0.834018	0.537795
	N272	N	0.177024	0.475691	0.915607
	N273	N	0.175824	0.551322	0.084725
	N274	N	0.819982	0.475976	0.086802
	N275	N	0.821928	0.551205	0.916877
	O276	O	-0.514516	-0.557007	1.472138
	H277	H	-0.526931	-0.559256	1.475595
	H278	H	-0.521971	-0.552487	1.470497
	O279	O	0.535947	0.422908	0.537954
	H280	H	0.532691	0.414026	0.530098
	H281	H	0.538777	0.417605	0.530736
	O282	O	0.490662	0.458612	0.554333
	H283	H	0.483773	0.456593	0.558998
	H284	H	0.496114	0.454573	0.557700
	O285	O	0.473850	0.493359	0.546569
	H286	H	0.480024	0.494992	0.553131
	H287	H	0.474851	0.490524	0.553748
	O288	O	0.467920	0.439706	0.505795
	H289	H	0.468799	0.444489	0.504253
	H290	H	0.470662	0.444618	0.497969
	O291	O	0.494187	0.515841	0.487234
	H292	H	0.498718	0.522600	0.491841
	H293	H	0.489808	0.515101	0.487560
	O294	O	0.476712	0.525135	0.485816
	H295	H	0.479567	0.521578	0.488214
	H296	H	0.475773	0.529340	0.480607
	O297	O	1.457329	-0.518209	-0.448206
	H298	H	1.460723	-0.516829	-0.446114
	H299	H	1.458900	-0.526609	-0.449081
