data_Molecule from HDF5

_cell_length_a		16.456436
_cell_length_b		16.640667
_cell_length_c		16.711444
_cell_angle_alpha	89.885367
_cell_angle_beta	89.942087
_cell_angle_gamma	89.759206
_symmetry_space_group_name_H-M	'P 1'
_symmetry_Int_Tables_number		1

loop_
	_symmetry_equiv_pos_as_xyz
	x,y,z

loop_
	_atom_site_label
	_atom_site_type_symbol
	_atom_site_fract_x
	_atom_site_fract_y
	_atom_site_fract_z
	H0	H	0.402067	0.841564	0.717705
	H1	H	0.614144	0.152756	0.713012
	H2	H	0.623725	0.845570	0.265356
	H3	H	0.399529	0.147941	0.266085
	H4	H	0.733601	0.391064	0.838091
	H5	H	0.731514	0.600686	0.147714
	H6	H	0.286740	0.604572	0.838246
	H7	H	0.286384	0.390254	0.146023
	H8	H	0.853376	0.717525	0.387757
	H9	H	0.164846	0.720900	0.601545
	H10	H	0.852502	0.279795	0.595647
	H11	H	0.167693	0.276481	0.389028
	H12	H	0.853058	0.392818	0.712664
	H13	H	0.163982	0.606320	0.718036
	H14	H	0.853158	0.601940	0.272906
	H15	H	0.167675	0.391929	0.272335
	H16	H	0.402082	0.721764	0.838502
	H17	H	0.620121	0.721494	0.144842
	H18	H	0.618129	0.272918	0.839066
	H19	H	0.401476	0.271585	0.144968
	H20	H	0.732388	0.841426	0.388689
	H21	H	0.727178	0.154816	0.593068
	H22	H	0.286889	0.841571	0.600864
	H23	H	0.286227	0.149861	0.385208
	H24	H	0.908137	0.340567	0.212708
	H25	H	0.114085	0.653267	0.213202
	H26	H	0.119677	0.343125	0.768835
	H27	H	0.904500	0.652658	0.771167
	H28	H	0.235342	0.888469	0.338734
	H29	H	0.229272	0.097145	0.649110
	H30	H	0.796569	0.094921	0.334266
	H31	H	0.792199	0.895205	0.650273
	H32	H	0.352246	0.215601	0.889397
	H33	H	0.668347	0.213851	0.093924
	H34	H	0.355293	0.774660	0.099557
	H35	H	0.669189	0.775731	0.888372
	H36	H	0.358002	0.886187	0.218814
	H37	H	0.666962	0.100810	0.212576
	H38	H	0.351789	0.098782	0.774611
	H39	H	0.669730	0.892977	0.774085
	H40	H	0.910908	0.213085	0.335344
	H41	H	0.115486	0.217162	0.647209
	H42	H	0.119088	0.772481	0.338943
	H43	H	0.903998	0.773946	0.647654
	H44	H	0.234382	0.342709	0.886345
	H45	H	0.227380	0.655479	0.093766
	H46	H	0.795970	0.338484	0.091987
	H47	H	0.792029	0.654449	0.891443
	H48	H	0.427587	0.103936	0.581135
	H49	H	0.602620	0.884464	0.583276
	H50	H	0.598091	0.109281	0.398988
	H51	H	0.426960	0.890348	0.417208
	H52	H	0.595553	0.402877	0.103152
	H53	H	0.599766	0.588644	0.880754
	H54	H	0.424076	0.583065	0.100681
	H55	H	0.419956	0.409750	0.881524
	H56	H	0.120162	0.582353	0.410143
	H57	H	0.897306	0.584314	0.582876
	H58	H	0.125674	0.406272	0.586002
	H59	H	0.896492	0.406586	0.403203
	H60	H	0.122654	0.404869	0.576585
	H61	H	0.899738	0.586341	0.577795
	H62	H	0.122924	0.579896	0.399437
	H63	H	0.896614	0.408382	0.399766
	H64	H	0.423154	0.589884	0.103535
	H65	H	0.602073	0.583544	0.881716
	H66	H	0.605323	0.401300	0.106471
	H67	H	0.425707	0.410628	0.883340
	H68	H	0.599011	0.107754	0.404396
	H69	H	0.602731	0.883660	0.585964
	H70	H	0.417591	0.107444	0.578293
	H71	H	0.418186	0.881134	0.402535
	H72	H	0.922845	0.608712	0.083840
	H73	H	0.100943	0.384361	0.085042
	H74	H	0.096433	0.606782	0.907051
	H75	H	0.917683	0.385398	0.909044
	H76	H	0.095477	0.911937	0.600804
	H77	H	0.098689	0.085007	0.382070
	H78	H	0.921938	0.093940	0.606779
	H79	H	0.918646	0.903483	0.380281
	H80	H	0.623296	0.085194	0.900575
	H81	H	0.399436	0.079971	0.078733
	H82	H	0.623494	0.903361	0.074909
	H83	H	0.397770	0.906735	0.903586
	H84	H	0.618346	0.915010	0.073374
	H85	H	0.397075	0.084388	0.083301
	H86	H	0.625164	0.086130	0.902008
	H87	H	0.398623	0.908752	0.905579
	H88	H	0.914027	0.091436	0.607487
	H89	H	0.098280	0.086149	0.381543
	H90	H	0.094008	0.906599	0.601514
	H91	H	0.920027	0.910499	0.383360
	H92	H	0.098032	0.609096	0.901952
	H93	H	0.096977	0.386936	0.083984
	H94	H	0.918908	0.608739	0.082062
	H95	H	0.919222	0.381102	0.894490
	H96	H	0.421174	0.108889	0.588145
	H97	H	0.600100	0.884657	0.585019
	H98	H	0.603416	0.109902	0.401276
	H99	H	0.436528	0.887736	0.400045
	H100	H	0.602136	0.410495	0.102955
	H101	H	0.596297	0.584658	0.882680
	H102	H	0.417909	0.584912	0.104270
	H103	H	0.424341	0.404751	0.881453
	H104	H	0.125737	0.590486	0.403037
	H105	H	0.899780	0.580339	0.578757
	H106	H	0.120963	0.413608	0.581014
	H107	H	0.895463	0.404650	0.400037
	H108	H	0.919343	0.610656	0.086097
	H109	H	0.100769	0.385578	0.080956
	H110	H	0.092692	0.607030	0.902674
	H111	H	0.931295	0.388164	0.901351
	H112	H	0.098885	0.908080	0.602507
	H113	H	0.099782	0.085863	0.381771
	H114	H	0.919630	0.086585	0.604526
	H115	H	0.925969	0.905398	0.382308
	H116	H	0.623661	0.084947	0.903000
	H117	H	0.398112	0.086421	0.077503
	H118	H	0.624215	0.911841	0.085132
	H119	H	0.398545	0.909483	0.903440
	C120	C	0.389194	0.004021	0.614854
	C121	C	0.632122	0.988298	0.614694
	C122	C	0.633401	0.006128	0.369721
	C123	C	0.390965	0.987348	0.372160
	C124	C	0.633106	0.373536	0.001362
	C125	C	0.631944	0.617626	0.984002
	C126	C	0.388448	0.619552	0.000858
	C127	C	0.389026	0.375410	0.983890
	C128	C	0.019198	0.617323	0.372095
	C129	C	1.001547	0.617345	0.613460
	C130	C	0.019051	0.376347	0.613349
	C131	C	1.001247	0.375322	0.370497
	C132	C	0.890027	0.505071	0.113864
	C133	C	0.131161	0.489271	0.113974
	C134	C	0.130269	0.505685	0.871208
	C135	C	0.889792	0.488427	0.870911
	C136	C	0.131325	0.875035	0.500356
	C137	C	0.131729	0.117293	0.484073
	C138	C	0.889525	0.119097	0.501411
	C139	C	0.889095	0.875026	0.484762
	C140	C	0.519150	0.117255	0.871089
	C141	C	0.501949	0.116289	0.112124
	C142	C	0.519607	0.876055	0.112395
	C143	C	0.502673	0.875718	0.871644
	C144	C	0.384837	0.888037	0.676738
	C145	C	0.632759	0.106247	0.673000
	C146	C	0.639169	0.890735	0.307949
	C147	C	0.383598	0.102366	0.308287
	C148	C	0.693334	0.372216	0.884559
	C149	C	0.692363	0.619920	0.100555
	C150	C	0.326895	0.622838	0.884702
	C151	C	0.327076	0.372124	0.099638
	C152	C	0.900775	0.677533	0.369784
	C153	C	0.118311	0.679629	0.618394
	C154	C	0.900391	0.318260	0.614628
	C155	C	0.120385	0.316167	0.369830
	C156	C	0.900642	0.374565	0.673110
	C157	C	0.117894	0.622857	0.676378
	C158	C	0.900779	0.619995	0.312584
	C159	C	0.120353	0.373504	0.312025
	C160	C	0.384255	0.681143	0.885081
	C161	C	0.636334	0.679568	0.099360
	C162	C	0.636043	0.313690	0.884975
	C163	C	0.384049	0.312812	0.099070
	C164	C	0.693600	0.888898	0.368893
	C165	C	0.689105	0.107164	0.613677
	C166	C	0.327577	0.887850	0.618394
	C167	C	0.327284	0.103213	0.367548
	C168	C	0.889478	0.387220	0.172460
	C169	C	0.132618	0.606788	0.173018
	C170	C	0.136163	0.389368	0.809995
	C171	C	0.886831	0.606200	0.811877
	C172	C	0.194048	0.870974	0.385021
	C173	C	0.190162	0.117148	0.601848
	C174	C	0.834429	0.115810	0.381944
	C175	C	0.830632	0.875083	0.602610
	C176	C	0.399861	0.176090	0.870346
	C177	C	0.620612	0.175036	0.113188
	C178	C	0.402482	0.814490	0.117229
	C179	C	0.621694	0.815803	0.869932
	C180	C	0.403645	0.870203	0.176258
	C181	C	0.619982	0.118870	0.172063
	C182	C	0.399445	0.117902	0.813486
	C183	C	0.621934	0.874306	0.813206
	C184	C	0.891379	0.174468	0.382379
	C185	C	0.133330	0.176423	0.601194
	C186	C	0.136252	0.813225	0.384896
	C187	C	0.886400	0.814898	0.601435
	C188	C	0.193219	0.389338	0.868518
	C189	C	0.188577	0.607877	0.113468
	C190	C	0.833868	0.386046	0.112470
	C191	C	0.830845	0.606856	0.871606
	C192	C	0.414854	0.085464	0.589537
	C193	C	0.608613	0.905886	0.591438
	C194	C	0.607340	0.087774	0.394388
	C195	C	0.419200	0.907340	0.399071
	C196	C	0.608080	0.397911	0.082970
	C197	C	0.606479	0.592539	0.902853
	C198	C	0.414399	0.593473	0.081826
	C199	C	0.415843	0.401107	0.902950
	C200	C	0.101669	0.591537	0.397181
	C201	C	0.920119	0.591016	0.587230
	C202	C	0.101809	0.401183	0.588364
	C203	C	0.918071	0.399464	0.394296
	C204	C	0.913564	0.587783	0.090516
	C205	C	0.106736	0.407192	0.090147
	C206	C	0.103165	0.586601	0.896524
	C207	C	0.915379	0.406281	0.894749
	C208	C	0.103997	0.901458	0.580607
	C209	C	0.106395	0.092893	0.402987
	C210	C	0.911971	0.097037	0.584566
	C211	C	0.914387	0.899380	0.403218
	C212	C	0.602228	0.092520	0.894889
	C213	C	0.419606	0.090840	0.087122
	C214	C	0.600981	0.902599	0.085470
	C215	C	0.419884	0.900903	0.896815
	Zn216	Zn	0.510414	-0.003503	0.743208
	Zn217	Zn	0.510856	-0.003914	0.241713
	Zn218	Zn	0.761127	0.496069	-0.007274
	Zn219	Zn	0.260066	0.498020	-0.007636
	Zn220	Zn	0.010526	0.745414	0.492671
	Zn221	Zn	0.010603	0.248050	0.492377
	Zn222	Zn	0.010445	0.496860	0.741338
	Zn223	Zn	0.010318	0.497096	0.243221
	Zn224	Zn	0.511070	0.747469	-0.007504
	Zn225	Zn	0.510085	0.245481	-0.008139
	Zn226	Zn	0.760592	-0.002507	0.492594
	Zn227	Zn	0.261152	-0.004510	0.492642
	N228	N	0.422521	0.961367	0.674583
	N229	N	0.598517	0.031220	0.674124
	N230	N	0.602438	0.964847	0.308228
	N231	N	0.422306	0.029248	0.310826
	N232	N	0.691729	0.408693	0.958015
	N233	N	0.689737	0.582040	0.027743
	N234	N	0.329444	0.585151	0.957840
	N235	N	0.329903	0.410114	0.026867
	N236	N	0.975537	0.676023	0.406186
	N237	N	0.045149	0.676115	0.579562
	N238	N	0.975285	0.318907	0.578295
	N239	N	0.045264	0.317241	0.405577
	N240	N	0.975766	0.409933	0.672532
	N241	N	0.044341	0.584602	0.673281
	N242	N	0.975610	0.583137	0.313721
	N243	N	0.045267	0.409467	0.312040
	N244	N	0.421740	0.679401	0.958393
	N245	N	0.599373	0.678340	0.025840
	N246	N	0.599377	0.314149	0.958741
	N247	N	0.422087	0.314842	0.025891
	N248	N	0.690154	0.961901	0.406495
	N249	N	0.689046	0.032855	0.578026
	N250	N	0.330219	0.961138	0.580437
	N251	N	0.331523	0.030664	0.406690
	N252	N	0.923169	0.462480	0.173687
	N253	N	0.097964	0.531871	0.173852
	N254	N	0.097975	0.462710	0.811342
	N255	N	0.922374	0.531456	0.811060
	N256	N	0.191147	0.908669	0.457813
	N257	N	0.189374	0.081210	0.528046
	N258	N	0.832710	0.082361	0.457212
	N259	N	0.831918	0.911679	0.528885
	N260	N	0.475282	0.175968	0.905267
	N261	N	0.545973	0.173858	0.076703
	N262	N	0.475791	0.817865	0.078242
	N263	N	0.546290	0.816230	0.905241
	N264	N	0.477576	0.907993	0.173267
	N265	N	0.545034	0.083220	0.171590
	N266	N	0.474833	0.082258	0.813613
	N267	N	0.546655	0.910322	0.813720
	N268	N	0.924212	0.177132	0.457853
	N269	N	0.098129	0.177272	0.526766
	N270	N	0.097865	0.815530	0.457823
	N271	N	0.921611	0.814390	0.526927
	N272	N	0.189896	0.462697	0.906013
	N273	N	0.188196	0.533602	0.077830
	N274	N	0.833904	0.460456	0.077002
	N275	N	0.832190	0.532349	0.907282
	O276	O	-0.205216	1.192293	-0.033085
	H277	H	-0.214984	1.199249	-0.059279
	H278	H	-0.212925	1.201414	-0.040312
	O279	O	0.565282	0.297626	0.275380
	H280	H	0.548575	0.288504	0.261271
	H281	H	0.543571	0.295165	0.278790
	O282	O	0.991815	-0.040868	1.007314
	H283	H	0.980745	-0.046607	1.023845
	H284	H	0.990669	-0.037234	0.999854
	O285	O	0.214090	0.963481	0.829640
	H286	H	0.200302	0.973618	0.826943
	H287	H	0.219013	0.979527	0.830841
	O288	O	0.393358	0.544328	0.361034
	H289	H	0.382730	0.538499	0.348455
	H290	H	0.406628	0.531700	0.355239
	O291	O	0.641618	0.436803	0.492189
	H292	H	0.639007	0.417085	0.479150
	H293	H	0.643249	0.446820	0.505704
	O294	O	0.705897	0.536800	0.695996
	H295	H	0.737601	0.538986	0.728241
	H296	H	0.702787	0.568542	0.685247
	O297	O	0.739174	0.269242	0.452803
	H298	H	0.758677	0.252046	0.427395
	H299	H	0.749983	0.262557	0.425166
	O300	O	-0.189600	0.203696	0.786485
	H301	H	-0.195994	0.161288	0.787422
	H302	H	-0.224450	0.234110	0.754423
	O303	O	0.293079	0.440842	0.532061
	H304	H	0.287922	0.429435	0.548097
	H305	H	0.295769	0.421626	0.546825
	O306	O	0.302629	0.704057	0.280868
	H307	H	0.307968	0.692612	0.301480
	H308	H	0.314104	0.684843	0.293909
	O309	O	0.542999	0.722658	0.714565
	H310	H	0.539480	0.749962	0.744219
	H311	H	0.528988	0.690159	0.722434
	O312	O	0.550425	0.554827	0.252518
	H313	H	0.568036	0.564274	0.261834
	H314	H	0.564073	0.561097	0.252104
	O315	O	0.792676	1.037921	0.770621
	H316	H	0.794029	1.015301	0.784805
	H317	H	0.771910	1.036392	0.746366
	O318	O	0.447162	0.436001	0.258875
	H319	H	0.437311	0.455957	0.256181
	H320	H	0.458436	0.446534	0.252572
	O321	O	0.156133	1.165061	1.071042
	H322	H	0.139812	1.168664	1.060138
	H323	H	0.154845	1.183880	1.066836
	O324	O	1.019953	1.196454	0.182864
	H325	H	1.012222	1.208517	0.179878
	H326	H	1.031648	1.178206	0.179982
	O327	O	0.078164	-0.211765	1.067916
	H328	H	0.097437	-0.199744	1.052057
	H329	H	0.091432	-0.224280	1.082070
	O330	O	0.676342	0.464511	0.450630
	H331	H	0.655306	0.450110	0.458169
	H332	H	0.696340	0.440451	0.423276
	O333	O	0.309515	0.580614	0.492135
	H334	H	0.334372	0.572929	0.496577
	H335	H	0.301779	0.560427	0.503984
	O336	O	0.499511	0.718446	0.272334
	H337	H	0.480603	0.720819	0.272578
	H338	H	0.496828	0.729381	0.264128
	O339	O	0.848880	-0.156694	0.866856
	H340	H	0.866143	-0.155313	0.899376
	H341	H	0.853131	-0.173425	0.859799
	O342	O	0.210458	-0.192215	0.053757
	H343	H	0.215517	-0.188610	0.066120
	H344	H	0.223088	-0.204958	0.067696
	O345	O	0.056390	1.032135	1.010109
	H346	H	0.046417	1.040012	1.002735
	H347	H	0.054137	1.018782	1.015026
	O348	O	0.321563	0.306852	0.302291
	H349	H	0.328250	0.322625	0.302629
	H350	H	0.316463	0.301435	0.294089
	O351	O	0.400739	0.268090	0.444329
	H352	H	0.385880	0.265315	0.468937
	H353	H	0.391708	0.253406	0.445313
	O354	O	0.079252	0.207061	0.963931
	H355	H	0.069380	0.214801	0.954973
	H356	H	0.067814	0.213801	0.962454
	O357	O	0.718210	0.556139	0.507877
	H358	H	0.725844	0.554832	0.494142
	H359	H	0.728277	0.546222	0.526923
	O360	O	0.628845	0.562398	0.676239
	H361	H	0.647654	0.573484	0.665642
	H362	H	0.601791	0.572643	0.673682
	O363	O	-0.043223	-0.178915	0.056840
	H364	H	-0.027345	-0.193132	0.056829
	H365	H	-0.056734	-0.172331	0.073715
	O366	O	0.436197	0.689709	0.536066
	H367	H	0.429662	0.693652	0.544813
	H368	H	0.428832	0.691692	0.547632
	O369	O	0.821210	-0.183041	-0.016929
	H370	H	0.828342	-0.179412	0.000577
	H371	H	0.812125	-0.192458	-0.015337
	O372	O	1.019056	0.994907	-0.192191
	H373	H	1.015169	0.973750	-0.188648
	H374	H	1.017906	0.994416	-0.190050
	O375	O	1.151739	-0.133613	0.018453
	H376	H	1.165765	-0.143620	0.035750
	H377	H	1.156404	-0.134773	0.019949
	O378	O	0.353899	0.274317	0.725502
	H379	H	0.345669	0.267123	0.750113
	H380	H	0.364174	0.270846	0.732975
	O381	O	0.325258	0.672423	0.674515
	H382	H	0.325118	0.660752	0.678257
	H383	H	0.312817	0.679986	0.677678
	O384	O	1.183194	-0.003148	0.957753
	H385	H	1.182996	-0.015086	0.967356
	H386	H	1.188746	0.002272	0.967884
	O387	O	1.140273	0.929827	0.164479
	H388	H	1.147960	0.934341	0.168076
	H389	H	1.136365	0.923462	0.176292
	O390	O	0.531185	0.421828	0.438336
	H391	H	0.526468	0.417205	0.440449
	H392	H	0.514574	0.419213	0.430616
	O393	O	0.728267	0.466273	0.272442
	H394	H	0.740361	0.431867	0.262229
	H395	H	0.737509	0.447103	0.262951
	O396	O	-0.152316	0.975981	1.185947
	H397	H	-0.160203	0.957307	1.201280
	H398	H	-0.167941	0.964384	1.184112
	O399	O	-0.174477	0.178991	1.179099
	H400	H	-0.150084	0.157604	1.170094
	H401	H	-0.158039	0.165290	1.155923
	O402	O	0.570868	0.381402	0.644323
	H403	H	0.580748	0.394671	0.640182
	H404	H	0.576929	0.392702	0.632802
	O405	O	0.987055	0.208450	1.003687
	H406	H	0.978057	0.189948	0.989211
	H407	H	0.985840	0.208825	1.012937
	O408	O	0.213235	0.192199	0.189572
	H409	H	0.192758	0.186881	0.193261
	H410	H	0.213110	0.200631	0.155671
	O411	O	0.701607	0.301993	0.689587
	H412	H	0.681975	0.311653	0.663689
	H413	H	0.682077	0.329699	0.677852
	O414	O	0.299507	0.713351	0.470360
	H415	H	0.289693	0.710408	0.469750
	H416	H	0.283042	0.710442	0.477673
	O417	O	0.307976	0.437554	0.694587
	H418	H	0.291930	0.428793	0.713018
	H419	H	0.319386	0.423604	0.681598
	O420	O	0.014368	0.869017	1.208786
	H421	H	0.004329	0.871271	1.212131
	H422	H	0.015979	0.856760	1.200517
	O423	O	0.029783	-0.207649	0.783460
	H424	H	0.034343	-0.202294	0.804210
	H425	H	0.031131	-0.228396	0.778175
	O426	O	0.555934	0.723331	0.462402
	H427	H	0.537102	0.727327	0.491633
	H428	H	0.552985	0.717505	0.455141
	O429	O	1.216040	0.786373	0.782271
	H430	H	1.221968	0.799583	0.790994
	H431	H	1.191096	0.802765	0.787272
	O432	O	0.293491	0.280713	0.589161
	H433	H	0.286005	0.269485	0.590804
	H434	H	0.295550	0.288160	0.609189
	O435	O	-0.189648	0.788639	0.198049
	H436	H	-0.210995	0.774794	0.203592
	H437	H	-0.178035	0.777667	0.216065
	O438	O	-0.014697	0.217455	-0.225238
	H439	H	-0.038244	0.229016	-0.240389
	H440	H	-0.042222	0.229928	-0.230138
	O441	O	0.199157	0.153395	-0.131331
	H442	H	0.190128	0.140531	-0.125268
	H443	H	0.188253	0.143880	-0.116275
	O444	O	0.701458	0.693950	0.298626
	H445	H	0.676530	0.682098	0.315359
	H446	H	0.684117	0.673270	0.318149
	O447	O	-0.180922	1.028247	0.984036
	H448	H	-0.190498	1.058102	0.970221
	H449	H	-0.172729	1.013555	0.979638
	O450	O	0.068463	1.016158	0.794027
	H451	H	0.058169	1.012658	0.787655
	H452	H	0.044488	1.030543	0.788895
	O453	O	-0.083823	-0.017102	0.956831
	H454	H	-0.068829	-0.011554	0.958547
	H455	H	-0.090221	-0.028829	0.968581
	O456	O	0.204470	0.010743	1.205960
	H457	H	0.198522	0.021286	1.196171
	H458	H	0.226379	0.019491	1.224208
	O459	O	0.543864	0.586876	0.537996
	H460	H	0.551754	0.591533	0.535288
	H461	H	0.557061	0.591152	0.528462
	O462	O	0.727560	0.283861	0.276327
	H463	H	0.673343	0.277305	0.271493
	H464	H	0.755202	0.248810	0.242444
	O465	O	0.890745	0.056113	0.123110
	H466	H	0.890564	0.053056	0.119305
	H467	H	0.873298	0.057370	0.112367
	O468	O	0.483614	0.275405	0.657402
	H469	H	0.481937	0.269803	0.664716
	H470	H	0.474233	0.267051	0.664750
	O471	O	0.728134	0.716262	0.529974
	H472	H	0.743057	0.724239	0.528112
	H473	H	0.731295	0.725102	0.515443
	O474	O	0.501934	0.340250	0.531572
	H475	H	0.498741	0.340740	0.545246
	H476	H	0.490360	0.329662	0.515067
	O477	O	0.312139	0.464878	1.326011
	H478	H	0.290068	0.460227	1.313716
	H479	H	0.306228	0.468906	1.343065
	O480	O	0.613588	0.427430	0.555880
	H481	H	0.622182	0.423102	0.553297
	H482	H	0.621639	0.427293	0.553731
	O483	O	0.461248	0.567150	0.725769
	H484	H	0.446896	0.558593	0.724048
	H485	H	0.469650	0.559166	0.707472
	O486	O	0.400803	0.529991	0.510689
	H487	H	0.405759	0.536423	0.521303
	H488	H	0.399359	0.531568	0.514021
	O489	O	0.803400	0.751247	-0.216112
	H490	H	0.796508	0.741669	-0.227845
	H491	H	0.796342	0.757697	-0.216365
