data_Molecule from HDF5

_cell_length_a		16.511971
_cell_length_b		16.618493
_cell_length_c		16.534808
_cell_angle_alpha	89.822352
_cell_angle_beta	89.857498
_cell_angle_gamma	89.984904
_symmetry_space_group_name_H-M	'P 1'
_symmetry_Int_Tables_number		1

loop_
	_symmetry_equiv_pos_as_xyz
	x,y,z

loop_
	_atom_site_label
	_atom_site_type_symbol
	_atom_site_fract_x
	_atom_site_fract_y
	_atom_site_fract_z
	H0	H	0.389761	0.853501	0.725496
	H1	H	0.604647	0.161791	0.722828
	H2	H	0.601238	0.849575	0.282172
	H3	H	0.392313	0.163641	0.276710
	H4	H	0.718948	0.406241	0.844710
	H5	H	0.720876	0.613775	0.158192
	H6	H	0.276941	0.613219	0.845173
	H7	H	0.272817	0.396586	0.155988
	H8	H	0.844364	0.730497	0.394652
	H9	H	0.155203	0.730887	0.608181
	H10	H	0.843656	0.284306	0.607310
	H11	H	0.155201	0.284412	0.391289
	H12	H	0.844730	0.400390	0.724658
	H13	H	0.156152	0.613559	0.722942
	H14	H	0.842453	0.614032	0.280323
	H15	H	0.154617	0.400439	0.275502
	H16	H	0.391736	0.730109	0.846101
	H17	H	0.605406	0.730321	0.157384
	H18	H	0.605432	0.285953	0.845870
	H19	H	0.387939	0.280463	0.155315
	H20	H	0.720045	0.850941	0.396575
	H21	H	0.721752	0.162388	0.605935
	H22	H	0.274873	0.852948	0.607868
	H23	H	0.276381	0.164383	0.393728
	H24	H	0.891743	0.352088	0.225645
	H25	H	0.107136	0.663086	0.223419
	H26	H	0.107202	0.351695	0.777672
	H27	H	0.895222	0.662480	0.779847
	H28	H	0.222507	0.902187	0.343146
	H29	H	0.220445	0.113820	0.657258
	H30	H	0.776772	0.114544	0.343021
	H31	H	0.780253	0.904689	0.657477
	H32	H	0.343841	0.232759	0.892601
	H33	H	0.655478	0.230915	0.109057
	H34	H	0.342075	0.781867	0.111690
	H35	H	0.654542	0.786805	0.896411
	H36	H	0.341912	0.898672	0.226499
	H37	H	0.656789	0.111825	0.221410
	H38	H	0.342972	0.116134	0.777753
	H39	H	0.653715	0.901211	0.778428
	H40	H	0.891721	0.230954	0.342883
	H41	H	0.106118	0.231060	0.656241
	H42	H	0.110000	0.783665	0.344351
	H43	H	0.895867	0.786851	0.656388
	H44	H	0.223526	0.351615	0.894134
	H45	H	0.222572	0.663086	0.106762
	H46	H	0.775864	0.351720	0.109401
	H47	H	0.779313	0.663086	0.897741
	H48	H	0.409830	0.119247	0.587788
	H49	H	0.584720	0.896782	0.588641
	H50	H	0.592092	0.120131	0.412491
	H51	H	0.408406	0.897246	0.416073
	H52	H	0.581254	0.417539	0.112041
	H53	H	0.592530	0.599102	0.886831
	H54	H	0.414155	0.592794	0.111653
	H55	H	0.418177	0.418420	0.892131
	H56	H	0.110872	0.587085	0.406349
	H57	H	0.889986	0.595005	0.584551
	H58	H	0.111897	0.419812	0.590348
	H59	H	0.888163	0.421240	0.412110
	H60	H	0.112246	0.415804	0.586609
	H61	H	0.888031	0.592104	0.592330
	H62	H	0.116017	0.603141	0.409386
	H63	H	0.886847	0.417867	0.412214
	H64	H	0.412762	0.595354	0.113562
	H65	H	0.587975	0.595209	0.890582
	H66	H	0.589401	0.413301	0.116737
	H67	H	0.409457	0.417316	0.887620
	H68	H	0.587328	0.120182	0.405961
	H69	H	0.590835	0.895177	0.588020
	H70	H	0.410592	0.119033	0.589904
	H71	H	0.410930	0.896361	0.410798
	H72	H	0.910207	0.616713	0.084985
	H73	H	0.082162	0.398180	0.089184
	H74	H	0.089656	0.618491	0.911300
	H75	H	0.906762	0.393693	0.913701
	H76	H	0.087781	0.926897	0.608587
	H77	H	0.087322	0.094299	0.390118
	H78	H	0.912356	0.105202	0.613870
	H79	H	0.912034	0.922146	0.388516
	H80	H	0.611376	0.096062	0.911073
	H81	H	0.390097	0.090833	0.086063
	H82	H	0.609737	0.921097	0.090946
	H83	H	0.387304	0.918793	0.917970
	H84	H	0.610962	0.915424	0.090722
	H85	H	0.387032	0.093885	0.091288
	H86	H	0.610229	0.096806	0.913697
	H87	H	0.385781	0.922411	0.910478
	H88	H	0.901724	0.092966	0.612660
	H89	H	0.084707	0.095429	0.390165
	H90	H	0.079663	0.914202	0.609778
	H91	H	0.914769	0.916439	0.387109
	H92	H	0.085461	0.617867	0.910340
	H93	H	0.086869	0.398880	0.084269
	H94	H	0.905009	0.621299	0.092378
	H95	H	0.909953	0.393523	0.908843
	H96	H	0.412040	0.119358	0.588257
	H97	H	0.588207	0.893859	0.593453
	H98	H	0.584723	0.117635	0.413093
	H99	H	0.413705	0.899604	0.415129
	H100	H	0.589309	0.422939	0.114095
	H101	H	0.585864	0.601563	0.888903
	H102	H	0.411098	0.592293	0.112810
	H103	H	0.411882	0.425843	0.892858
	H104	H	0.107944	0.594309	0.421443
	H105	H	0.886020	0.600144	0.590279
	H106	H	0.109454	0.420878	0.585778
	H107	H	0.888036	0.419090	0.415138
	H108	H	0.914617	0.617964	0.093206
	H109	H	0.088375	0.395319	0.090328
	H110	H	0.086939	0.617163	0.914585
	H111	H	0.912350	0.395486	0.913918
	H112	H	0.093511	0.914387	0.615169
	H113	H	0.086705	0.097255	0.388919
	H114	H	0.917414	0.091609	0.607288
	H115	H	0.908146	0.916751	0.386762
	H116	H	0.610441	0.094418	0.913372
	H117	H	0.388109	0.096892	0.085024
	H118	H	0.607650	0.918116	0.086186
	H119	H	0.383739	0.914365	0.912020
	C120	C	0.377036	0.016516	0.622150
	C121	C	0.620145	0.998357	0.621940
	C122	C	0.620003	0.015798	0.379163
	C123	C	0.377312	1.000072	0.379263
	C124	C	0.619406	0.386704	0.010433
	C125	C	0.621025	0.630148	0.992585
	C126	C	0.379010	0.627051	0.009384
	C127	C	0.377640	0.385448	0.992610
	C128	C	0.008587	0.628647	0.379609
	C129	C	0.991429	0.628761	0.621971
	C130	C	0.008061	0.385983	0.621108
	C131	C	0.990645	0.386217	0.379077
	C132	C	0.876777	0.515734	0.123491
	C133	C	0.119954	0.499829	0.121626
	C134	C	0.121341	0.515229	0.879258
	C135	C	0.878276	0.497945	0.880207
	C136	C	0.121357	0.885745	0.508273
	C137	C	0.119240	0.128854	0.492560
	C138	C	0.877014	0.129780	0.508041
	C139	C	0.879709	0.887271	0.491533
	C140	C	0.507529	0.129453	0.879241
	C141	C	0.490979	0.128021	0.121653
	C142	C	0.506301	0.884780	0.123482
	C143	C	0.489321	0.886781	0.880895
	C144	C	0.372775	0.899779	0.684034
	C145	C	0.623053	0.115489	0.682586
	C146	C	0.620935	0.897129	0.320890
	C147	C	0.374363	0.116997	0.317564
	C148	C	0.679226	0.386150	0.891867
	C149	C	0.680988	0.631919	0.110845
	C150	C	0.317240	0.631098	0.892384
	C151	C	0.314074	0.379953	0.109087
	C152	C	0.891010	0.689962	0.376589
	C153	C	0.108492	0.690163	0.625907
	C154	C	0.890520	0.325003	0.625242
	C155	C	0.108179	0.325110	0.374386
	C156	C	0.890910	0.382464	0.683359
	C157	C	0.108691	0.631663	0.683057
	C158	C	0.890169	0.631763	0.319810
	C159	C	0.107836	0.382800	0.316431
	C160	C	0.374392	0.689377	0.892696
	C161	C	0.623916	0.690389	0.110271
	C162	C	0.623025	0.326687	0.892376
	C163	C	0.371298	0.321927	0.108854
	C164	C	0.679790	0.897720	0.377950
	C165	C	0.681150	0.115486	0.624398
	C166	C	0.315493	0.899621	0.625661
	C167	C	0.316498	0.117285	0.375619
	C168	C	0.874085	0.398770	0.184906
	C169	C	0.124402	0.616330	0.183134
	C170	C	0.125075	0.398324	0.818216
	C171	C	0.876675	0.615584	0.820293
	C172	C	0.182663	0.883675	0.390550
	C173	C	0.180345	0.132032	0.609970
	C174	C	0.816152	0.132702	0.390378
	C175	C	0.820349	0.885996	0.610312
	C176	C	0.390636	0.191763	0.875429
	C177	C	0.608282	0.190084	0.126323
	C178	C	0.389070	0.822941	0.128362
	C179	C	0.607477	0.826734	0.878274
	C180	C	0.388758	0.880975	0.185644
	C181	C	0.609076	0.130735	0.182348
	C182	C	0.390148	0.133713	0.818161
	C183	C	0.606981	0.883781	0.819690
	C184	C	0.873824	0.190648	0.390447
	C185	C	0.123340	0.190316	0.609499
	C186	C	0.126483	0.824550	0.391257
	C187	C	0.877472	0.827482	0.610049
	C188	C	0.182952	0.398479	0.876048
	C189	C	0.182073	0.616223	0.124984
	C190	C	0.816261	0.398447	0.127058
	C191	C	0.819185	0.615960	0.878918
	C192	C	0.403519	0.097852	0.596055
	C193	C	0.595012	0.916784	0.597151
	C194	C	0.595093	0.097836	0.403481
	C195	C	0.403455	0.918869	0.406139
	C196	C	0.594016	0.410720	0.092822
	C197	C	0.595981	0.605582	0.910247
	C198	C	0.405333	0.600892	0.091259
	C199	C	0.405234	0.412738	0.911846
	C200	C	0.090392	0.602506	0.405253
	C201	C	0.909362	0.603144	0.595976
	C202	C	0.090039	0.411595	0.595077
	C203	C	0.908874	0.412029	0.405641
	C204	C	0.902562	0.597416	0.097583
	C205	C	0.093325	0.418683	0.095377
	C206	C	0.094860	0.596589	0.904847
	C207	C	0.902796	0.415704	0.905059
	C208	C	0.094734	0.911201	0.589995
	C209	C	0.093560	0.103010	0.410896
	C210	C	0.903074	0.103793	0.589941
	C211	C	0.904620	0.911447	0.409033
	C212	C	0.589411	0.103449	0.905212
	C213	C	0.409692	0.101458	0.095117
	C214	C	0.588203	0.910857	0.096938
	C215	C	0.407053	0.911540	0.906233
	Zn216	Zn	0.497830	0.007737	0.751150
	Zn217	Zn	0.498450	0.006931	0.249887
	Zn218	Zn	0.748690	0.507176	0.002279
	Zn219	Zn	0.249535	0.506782	0.001531
	Zn220	Zn	0.000257	0.757642	0.500027
	Zn221	Zn	-0.000808	0.257738	0.499999
	Zn222	Zn	-0.000137	0.506426	0.750427
	Zn223	Zn	-0.000734	0.508146	0.251065
	Zn224	Zn	0.497662	0.757219	0.001882
	Zn225	Zn	0.499245	0.257267	0.001352
	Zn226	Zn	0.749478	0.007199	0.499755
	Zn227	Zn	0.248625	0.008258	0.500391
	N228	N	0.410137	0.973611	0.682228
	N229	N	0.585739	0.041762	0.681109
	N230	N	0.584602	0.971471	0.321312
	N231	N	0.411348	0.042923	0.319586
	N232	N	0.677225	0.422578	0.966321
	N233	N	0.679544	0.595220	0.036516
	N234	N	0.320024	0.593167	0.966091
	N235	N	0.318061	0.418930	0.035781
	N236	N	0.965767	0.688326	0.412944
	N237	N	0.034385	0.688420	0.588414
	N238	N	0.964388	0.327183	0.587203
	N239	N	0.034242	0.327125	0.412517
	N240	N	0.965084	0.419502	0.681105
	N241	N	0.034661	0.594040	0.680764
	N242	N	0.964341	0.594272	0.321434
	N243	N	0.033657	0.419977	0.319067
	N244	N	0.411836	0.687117	0.966849
	N245	N	0.587354	0.689698	0.035728
	N246	N	0.586815	0.326709	0.967215
	N247	N	0.410322	0.325230	0.035630
	N248	N	0.679735	0.972529	0.413020
	N249	N	0.679478	0.041657	0.587401
	N250	N	0.317912	0.973208	0.588054
	N251	N	0.318186	0.043395	0.413205
	N252	N	0.910804	0.472928	0.182939
	N253	N	0.086424	0.542787	0.181071
	N254	N	0.087536	0.472101	0.819848
	N255	N	0.912612	0.541132	0.821023
	N256	N	0.179808	0.920978	0.464570
	N257	N	0.177767	0.094096	0.536392
	N258	N	0.817571	0.095856	0.464876
	N259	N	0.821562	0.922313	0.535652
	N260	N	0.464926	0.189413	0.912708
	N261	N	0.533805	0.188675	0.089487
	N262	N	0.463356	0.825020	0.090478
	N263	N	0.533167	0.828434	0.915735
	N264	N	0.462702	0.918718	0.182591
	N265	N	0.534961	0.092993	0.179915
	N266	N	0.463987	0.095738	0.820394
	N267	N	0.532390	0.920256	0.820992
	N268	N	0.910794	0.189010	0.464792
	N269	N	0.086253	0.188623	0.535259
	N270	N	0.089239	0.825651	0.465612
	N271	N	0.913662	0.827942	0.535232
	N272	N	0.180982	0.472351	0.913073
	N273	N	0.179459	0.542679	0.087587
	N274	N	0.817633	0.472432	0.089716
	N275	N	0.819941	0.541656	0.915517
	O276	O	0.943152	0.795600	0.217139
	H277	H	0.940438	0.791262	0.226802
	H278	H	0.936133	0.793108	0.213886
	O279	O	0.174355	0.021589	0.794791
	H280	H	0.189372	0.018327	0.774245
	H281	H	0.169401	-0.007533	0.796260
	O282	O	0.709705	0.488716	0.643434
	H283	H	0.720047	0.487642	0.618403
	H284	H	0.701177	0.478495	0.646473
	O285	O	0.286885	0.293808	0.520792
	H286	H	0.278401	0.273394	0.517184
	H287	H	0.279574	0.311776	0.511445
	O288	O	0.837877	-0.183689	0.837008
	H289	H	0.858623	-0.177014	0.839297
	H290	H	0.845181	-0.178368	0.838809
	O291	O	0.709176	0.719150	0.680615
	H292	H	0.699632	0.694947	0.683967
	H293	H	0.725935	0.724704	0.705506
	O294	O	0.206685	0.114079	-0.096170
	H295	H	0.198565	0.090487	-0.088213
	H296	H	0.205221	0.096949	-0.101536
	O297	O	0.999216	-0.064994	0.144500
	H298	H	0.990912	-0.054447	0.139803
	H299	H	0.991900	-0.056987	0.146873
	O300	O	0.182233	-0.048613	0.112165
	H301	H	0.174315	-0.040049	0.129788
	H302	H	0.171720	-0.043243	0.110487
	O303	O	0.024734	0.034997	-0.001077
	H304	H	0.008867	0.027200	-0.002208
	H305	H	0.050032	0.047226	0.005791
	O306	O	1.151863	-0.181865	-0.011150
	H307	H	1.152955	-0.171658	-0.019509
	H308	H	1.155348	-0.185356	0.007183
	O309	O	0.552334	0.561801	0.279127
	H310	H	0.571668	0.556012	0.286879
	H311	H	0.556693	0.556445	0.279788
	O312	O	0.411400	0.495357	0.484304
	H313	H	0.414817	0.508421	0.495194
	H314	H	0.419183	0.495102	0.487573
	O315	O	0.486554	0.727793	0.502015
	H316	H	0.468391	0.727286	0.501504
	H317	H	0.505913	0.728179	0.508557
	O318	O	0.936241	1.096455	-0.048064
	H319	H	0.948246	1.103123	-0.045594
	H320	H	0.948409	1.107001	-0.042723
	O321	O	0.335980	0.699351	0.661863
	H322	H	0.329440	0.699760	0.664543
	H323	H	0.336913	0.704416	0.667779
	O324	O	0.784243	0.211208	0.965183
	H325	H	0.771297	0.216641	0.973222
	H326	H	0.774896	0.209252	0.981760
	O327	O	0.655718	0.615672	0.701945
	H328	H	0.663979	0.609998	0.699906
	H329	H	0.646980	0.612679	0.704520
	O330	O	0.313816	0.683593	0.318148
	H331	H	0.353005	0.684018	0.307194
	H332	H	0.321139	0.689312	0.353536
	O333	O	0.434695	0.490414	0.511925
	H334	H	0.431265	0.504620	0.521845
	H335	H	0.418858	0.492985	0.514199
	O336	O	0.416690	0.420431	0.294841
	H337	H	0.421871	0.429019	0.294297
	H338	H	0.399510	0.437575	0.293208
	O339	O	0.284777	0.719533	0.477229
	H340	H	0.279148	0.714823	0.471732
	H341	H	0.271716	0.733507	0.483889
	O342	O	0.098260	0.800327	-0.145448
	H343	H	0.085577	0.786582	-0.127684
	H344	H	0.079294	0.801591	-0.144426
	O345	O	0.467135	0.525617	0.721849
	H346	H	0.478366	0.547976	0.728586
	H347	H	0.464949	0.527820	0.712045
	O348	O	0.308139	0.313183	0.692580
	H349	H	0.303803	0.332133	0.678725
	H350	H	0.285911	0.304527	0.689547
	O351	O	0.191882	0.198496	1.186982
	H352	H	0.189844	0.207739	1.169952
	H353	H	0.171498	0.187180	1.180809
	O354	O	0.823502	-0.170222	1.025819
	H355	H	0.824019	-0.166775	1.018481
	H356	H	0.802011	-0.183821	1.017038
	O357	O	0.471720	0.720228	0.287149
	H358	H	0.494904	0.708672	0.299678
	H359	H	0.478471	0.748233	0.261212
	O360	O	0.352417	0.445677	0.403856
	H361	H	0.352090	0.465605	0.403943
	H362	H	0.345111	0.438254	0.399255
	O363	O	0.681385	0.326331	0.312174
	H364	H	0.683363	0.316841	0.351376
	H365	H	0.645363	0.313101	0.309350
	O366	O	0.793423	0.214176	0.792922
	H367	H	0.761505	0.248359	0.764975
	H368	H	0.796845	0.220323	0.834054
	O369	O	-0.102476	0.201983	1.081805
	H370	H	-0.098537	0.191128	1.081404
	H371	H	-0.106543	0.185435	1.078951
	O372	O	-0.013403	1.114898	0.913385
	H373	H	-0.024518	1.122125	0.909844
	H374	H	-0.021339	1.124429	0.911023
	O375	O	0.904217	0.019517	0.209386
	H376	H	0.913081	0.013316	0.206039
	H377	H	0.892364	0.010098	0.223685
	O378	O	0.714193	0.292953	0.474455
	H379	H	0.732556	0.277992	0.479484
	H380	H	0.689917	0.275807	0.490377
	O381	O	0.172475	0.974825	0.024784
	H382	H	0.174928	0.959988	-0.002094
	H383	H	0.175978	0.984940	0.044517
	O384	O	0.476079	0.287668	0.717591
	H385	H	0.454034	0.277061	0.733211
	H386	H	0.448691	0.282786	0.722516
	O387	O	0.092910	1.018228	0.786854
	H388	H	0.076023	1.021175	0.790537
	H389	H	0.112915	1.006729	0.791117
	O390	O	0.204121	1.215715	1.016927
	H391	H	0.217200	1.234003	1.015887
	H392	H	0.214722	1.192207	1.010822
	O393	O	1.028449	0.221992	0.216583
	H394	H	1.021022	0.225542	0.193130
	H395	H	1.029443	0.245909	0.242220
	O396	O	0.422795	0.334669	0.424973
	H397	H	0.433460	0.338811	0.410369
	H398	H	0.431523	0.341975	0.416042
	O399	O	0.510713	0.728982	0.689314
	H400	H	0.523446	0.728585	0.683424
	H401	H	0.512113	0.743885	0.696995
	O402	O	0.950259	0.190393	0.790321
	H403	H	0.929580	0.217075	0.768892
	H404	H	0.944049	0.182143	0.791023
	O405	O	0.714746	0.483588	0.285152
	H406	H	0.718636	0.451277	0.285503
	H407	H	0.730539	0.466601	0.264831
	O408	O	0.786634	1.012592	0.786446
	H409	H	0.774555	1.033874	0.769548
	H410	H	0.779548	1.034821	0.781872
	O411	O	0.778860	0.925173	0.220441
	H412	H	0.767433	0.920653	0.246754
	H413	H	0.777306	0.900834	0.217385
	O414	O	0.216449	0.033058	0.216354
	H415	H	0.212276	0.024574	0.231783
	H416	H	0.227696	0.057887	0.228888
	O417	O	0.626207	0.611618	0.453090
	H418	H	0.633553	0.604411	0.447552
	H419	H	0.615889	0.603272	0.460897
	O420	O	1.002047	-0.194767	0.917694
	H421	H	1.008282	-0.182042	0.924772
	H422	H	1.007187	-0.186089	0.923426
	O423	O	0.973078	0.964941	-0.096787
	H424	H	0.959059	0.961738	-0.098958
	H425	H	0.983366	0.977716	-0.099111
	O426	O	0.610446	0.425831	0.494104
	H427	H	0.615729	0.438798	0.482529
	H428	H	0.596786	0.423906	0.488027
	O429	O	0.309623	0.580906	0.542726
	H430	H	0.316300	0.584762	0.561975
	H431	H	0.303821	0.572655	0.535291
	O432	O	0.796309	-0.017867	0.932134
	H433	H	0.801256	0.000078	0.923953
	H434	H	0.785289	-0.019533	0.915067
	O435	O	0.627573	0.487954	0.524236
	H436	H	0.619339	0.487215	0.522796
	H437	H	0.623720	0.490265	0.513814
	O438	O	0.283079	0.524939	0.283131
	H439	H	0.262113	0.529980	0.269701
	H440	H	0.281013	0.555546	0.282806
	O441	O	0.771802	0.777702	0.192554
	H442	H	0.789206	0.780561	0.203255
	H443	H	0.750663	0.759645	0.174899
	O444	O	0.517605	0.291112	0.285083
	H445	H	0.510950	0.285181	0.261276
	H446	H	0.503180	0.308150	0.270977
	O447	O	0.689032	0.315927	0.690676
	H448	H	0.671714	0.330395	0.668916
	H449	H	0.673214	0.337147	0.672509
	O450	O	0.840621	0.089125	0.074086
	H451	H	0.840498	0.071989	0.058652
	H452	H	0.846017	0.066721	0.105027
	O453	O	0.637362	0.651307	0.492024
	H454	H	0.629577	0.635939	0.510971
	H455	H	0.652849	0.666320	0.500283
	O456	O	0.201996	0.807032	0.801853
	H457	H	0.187330	0.801713	0.818836
	H458	H	0.176356	0.812002	0.817580
	O459	O	0.502094	0.509307	0.693665
	H460	H	0.504894	0.499513	0.699314
	H461	H	0.491425	0.510176	0.696664
	O462	O	0.561949	0.277891	0.546522
	H463	H	0.538960	0.278955	0.548235
	H464	H	0.542088	0.280780	0.556947
	O465	O	0.284527	0.479998	0.710338
	H466	H	0.271831	0.484507	0.731142
	H467	H	0.291819	0.483860	0.713486
	O468	O	-0.005040	0.783831	0.022610
	H469	H	-0.008820	0.791740	0.019134
	H470	H	-0.007024	0.783496	0.038452
	O471	O	0.678413	0.687055	0.444002
	H472	H	0.670784	0.677483	0.458119
	H473	H	0.693446	0.699158	0.455259
	O474	O	0.955563	0.999306	0.163991
	H475	H	0.951476	0.999338	0.161946
	H476	H	0.960263	1.018375	0.163672
	O477	O	0.077379	0.182162	0.899047
	H478	H	0.070761	0.180038	0.894343
	H479	H	0.064683	0.179313	0.904858
