data_Molecule from HDF5

_cell_length_a		16.316802
_cell_length_b		16.322815
_cell_length_c		16.306031
_cell_angle_alpha	89.997363
_cell_angle_beta	89.823960
_cell_angle_gamma	89.974896
_symmetry_space_group_name_H-M	'P 1'
_symmetry_Int_Tables_number		1

loop_
	_symmetry_equiv_pos_as_xyz
	x,y,z

loop_
	_atom_site_label
	_atom_site_type_symbol
	_atom_site_fract_x
	_atom_site_fract_y
	_atom_site_fract_z
	H0	H	0.399648	0.837536	0.714103
	H1	H	0.595539	0.164628	0.713867
	H2	H	0.596003	0.837335	0.285723
	H3	H	0.399119	0.164002	0.284505
	H4	H	0.713182	0.401494	0.836119
	H5	H	0.711850	0.599250	0.162138
	H6	H	0.285351	0.599140	0.834626
	H7	H	0.283286	0.402507	0.162243
	H8	H	0.833784	0.715510	0.400560
	H9	H	0.160673	0.716682	0.596926
	H10	H	0.834077	0.287315	0.596690
	H11	H	0.161374	0.287149	0.399212
	H12	H	0.835363	0.401855	0.715141
	H13	H	0.161550	0.599076	0.711516
	H14	H	0.834214	0.599522	0.284014
	H15	H	0.160773	0.403468	0.283288
	H16	H	0.401610	0.716319	0.836370
	H17	H	0.596614	0.714986	0.162138
	H18	H	0.598587	0.285391	0.836442
	H19	H	0.400692	0.286589	0.163026
	H20	H	0.712817	0.837972	0.401596
	H21	H	0.710846	0.165331	0.595887
	H22	H	0.282460	0.837851	0.598707
	H23	H	0.283296	0.164114	0.400790
	H24	H	0.899634	0.337943	0.213386
	H25	H	0.096289	0.665162	0.212248
	H26	H	0.097507	0.337328	0.783116
	H27	H	0.900277	0.664460	0.784759
	H28	H	0.212701	0.902524	0.335341
	H29	H	0.211172	0.099885	0.662896
	H30	H	0.783066	0.100052	0.335743
	H31	H	0.783020	0.903563	0.662196
	H32	H	0.335919	0.216029	0.901395
	H33	H	0.662574	0.214700	0.097665
	H34	H	0.335173	0.786305	0.098296
	H35	H	0.661973	0.786527	0.901321
	H36	H	0.335292	0.902780	0.214300
	H37	H	0.661987	0.098014	0.213903
	H38	H	0.334763	0.098995	0.786598
	H39	H	0.661808	0.901700	0.784282
	H40	H	0.899211	0.216485	0.335492
	H41	H	0.094980	0.216108	0.662164
	H42	H	0.096447	0.786615	0.335256
	H43	H	0.897316	0.786079	0.662019
	H44	H	0.213972	0.336826	0.899574
	H45	H	0.212451	0.664251	0.095809
	H46	H	0.782808	0.337725	0.098029
	H47	H	0.782889	0.663660	0.901035
	H48	H	0.399966	0.116535	0.586581
	H49	H	0.588921	0.885838	0.593857
	H50	H	0.590333	0.115690	0.410983
	H51	H	0.408923	0.882889	0.394853
	H52	H	0.594602	0.413446	0.115221
	H53	H	0.588187	0.591184	0.883658
	H54	H	0.406693	0.608222	0.118527
	H55	H	0.410430	0.420887	0.888199
	H56	H	0.110643	0.588287	0.408219
	H57	H	0.883826	0.593277	0.586587
	H58	H	0.112897	0.412507	0.590929
	H59	H	0.882805	0.416839	0.402582
	H60	H	0.115889	0.405969	0.593261
	H61	H	0.881514	0.589782	0.596422
	H62	H	0.115671	0.595294	0.397566
	H63	H	0.877661	0.401468	0.399819
	H64	H	0.390700	0.586298	0.117007
	H65	H	0.590878	0.598903	0.881908
	H66	H	0.584402	0.406957	0.113819
	H67	H	0.416380	0.396665	0.883011
	H68	H	0.596519	0.119069	0.404220
	H69	H	0.590224	0.885900	0.589809
	H70	H	0.399858	0.119865	0.599691
	H71	H	0.413024	0.889554	0.415562
	H72	H	0.905471	0.615178	0.085272
	H73	H	0.086863	0.385634	0.094070
	H74	H	0.085429	0.612639	0.910593
	H75	H	0.903952	0.384116	0.904637
	H76	H	0.090415	0.909200	0.614533
	H77	H	0.091526	0.090072	0.384553
	H78	H	0.908434	0.098489	0.615063
	H79	H	0.914353	0.910198	0.386281
	H80	H	0.612397	0.089828	0.909543
	H81	H	0.381367	0.094569	0.097043
	H82	H	0.613676	0.909200	0.089980
	H83	H	0.382295	0.909399	0.905222
	H84	H	0.615677	0.909421	0.097015
	H85	H	0.382880	0.097476	0.089386
	H86	H	0.616038	0.092361	0.899922
	H87	H	0.381362	0.905505	0.907502
	H88	H	0.898996	0.096822	0.617098
	H89	H	0.087825	0.096220	0.383100
	H90	H	0.088001	0.907446	0.614162
	H91	H	0.902534	0.898272	0.379001
	H92	H	0.101578	0.617626	0.908039
	H93	H	0.091089	0.386408	0.086516
	H94	H	0.899588	0.619251	0.093224
	H95	H	0.908486	0.385514	0.904839
	H96	H	0.411376	0.115088	0.593785
	H97	H	0.592576	0.884025	0.592596
	H98	H	0.587334	0.117644	0.401389
	H99	H	0.393067	0.882453	0.410278
	H100	H	0.593941	0.402284	0.118295
	H101	H	0.596109	0.592909	0.881668
	H102	H	0.416436	0.584337	0.108727
	H103	H	0.392664	0.405409	0.877939
	H104	H	0.113834	0.601770	0.409874
	H105	H	0.879684	0.600276	0.594316
	H106	H	0.112306	0.406484	0.585803
	H107	H	0.883561	0.405683	0.414874
	H108	H	0.909647	0.616203	0.094841
	H109	H	0.095095	0.383483	0.093332
	H110	H	0.090573	0.618623	0.895087
	H111	H	0.905697	0.386073	0.908551
	H112	H	0.091045	0.906141	0.615707
	H113	H	0.094872	0.095777	0.382074
	H114	H	0.904796	0.089442	0.613864
	H115	H	0.897472	0.915970	0.381970
	H116	H	0.616207	0.099460	0.907281
	H117	H	0.383854	0.089504	0.090485
	H118	H	0.616030	0.903309	0.093185
	H119	H	0.384050	0.908944	0.909152
	C120	C	0.375831	0.008960	0.621418
	C121	C	0.619156	0.993048	0.620854
	C122	C	0.619861	0.009456	0.377519
	C123	C	0.376326	0.992832	0.378159
	C124	C	0.620094	0.378856	0.007757
	C125	C	0.619381	0.622167	0.990632
	C126	C	0.376802	0.622308	0.007230
	C127	C	0.377526	0.379308	0.990877
	C128	C	0.005434	0.623223	0.376690
	C129	C	0.989545	0.622898	0.620148
	C130	C	0.005969	0.379669	0.619547
	C131	C	0.989438	0.379627	0.376917
	C132	C	0.876077	0.509229	0.120170
	C133	C	0.119627	0.493037	0.119616
	C134	C	0.120925	0.508467	0.876145
	C135	C	0.876765	0.492922	0.877270
	C136	C	0.119053	0.879273	0.506625
	C137	C	0.119522	0.122921	0.491008
	C138	C	0.876287	0.123153	0.507118
	C139	C	0.875892	0.879928	0.490457
	C140	C	0.507036	0.122340	0.877709
	C141	C	0.490576	0.122082	0.120749
	C142	C	0.506861	0.879190	0.121506
	C143	C	0.490438	0.879148	0.878063
	C144	C	0.378821	0.886222	0.676364
	C145	C	0.616235	0.116055	0.675715
	C146	C	0.616802	0.886268	0.323106
	C147	C	0.379040	0.115380	0.322671
	C148	C	0.675450	0.381359	0.885004
	C149	C	0.674211	0.619539	0.113459
	C150	C	0.322852	0.619673	0.883749
	C151	C	0.321516	0.381704	0.113734
	C152	C	0.882602	0.678041	0.379566
	C153	C	0.112210	0.678179	0.617124
	C154	C	0.882953	0.324922	0.617679
	C155	C	0.112365	0.324621	0.378825
	C156	C	0.883509	0.381891	0.676076
	C157	C	0.112702	0.619811	0.674030
	C158	C	0.882807	0.620289	0.321829
	C159	C	0.112298	0.382856	0.321590
	C160	C	0.380386	0.678018	0.884605
	C161	C	0.617161	0.677370	0.113498
	C162	C	0.618596	0.323544	0.885122
	C163	C	0.379633	0.324118	0.114009
	C164	C	0.674520	0.886550	0.380985
	C165	C	0.673559	0.116395	0.617361
	C166	C	0.320953	0.886244	0.618840
	C167	C	0.321660	0.115596	0.380754
	C168	C	0.878965	0.386434	0.175336
	C169	C	0.116878	0.615997	0.174672
	C170	C	0.118444	0.385914	0.820956
	C171	C	0.879925	0.615769	0.822773
	C172	C	0.174988	0.881841	0.384161
	C173	C	0.173704	0.120609	0.613994
	C174	C	0.821010	0.120544	0.384338
	C175	C	0.820453	0.882305	0.613303
	C176	C	0.384339	0.177773	0.880904
	C177	C	0.613780	0.176955	0.118165
	C178	C	0.383952	0.824401	0.118523
	C179	C	0.613466	0.824853	0.880974
	C180	C	0.383923	0.881948	0.176303
	C181	C	0.613470	0.119096	0.175802
	C182	C	0.383807	0.119441	0.823839
	C183	C	0.613139	0.881885	0.822679
	C184	C	0.878917	0.178113	0.384175
	C185	C	0.116031	0.178493	0.613532
	C186	C	0.116973	0.824364	0.383984
	C187	C	0.878055	0.824709	0.613378
	C188	C	0.176380	0.385764	0.878665
	C189	C	0.174618	0.615781	0.116841
	C190	C	0.820833	0.386312	0.118180
	C191	C	0.821291	0.615331	0.880104
	C192	C	0.397352	0.094839	0.599748
	C193	C	0.597186	0.907420	0.598702
	C194	C	0.597748	0.095331	0.399077
	C195	C	0.398437	0.907068	0.400331
	C196	C	0.597436	0.400929	0.093664
	C197	C	0.597947	0.600731	0.904616
	C198	C	0.398388	0.599642	0.092711
	C199	C	0.399828	0.401257	0.905133
	C200	C	0.091317	0.601464	0.398626
	C201	C	0.903768	0.600955	0.598739
	C202	C	0.091532	0.401827	0.596743
	C203	C	0.903590	0.401446	0.399122
	C204	C	0.898338	0.594762	0.097828
	C205	C	0.097598	0.407336	0.097801
	C206	C	0.099127	0.594194	0.898153
	C207	C	0.899353	0.407266	0.899643
	C208	C	0.096599	0.901258	0.592597
	C209	C	0.097829	0.100545	0.405204
	C210	C	0.897714	0.101365	0.593032
	C211	C	0.898191	0.901821	0.404620
	C212	C	0.592752	0.100333	0.899270
	C213	C	0.404968	0.100460	0.098751
	C214	C	0.592688	0.900916	0.099752
	C215	C	0.404634	0.901256	0.900734
	Zn216	Zn	0.497856	0.000805	0.749598
	Zn217	Zn	0.498091	0.000920	0.249583
	Zn218	Zn	0.747635	0.500501	-0.001207
	Zn219	Zn	0.248544	0.500545	-0.001642
	Zn220	Zn	-0.003178	0.751319	0.498771
	Zn221	Zn	-0.002600	0.251267	0.498280
	Zn222	Zn	-0.001328	0.500938	0.748340
	Zn223	Zn	-0.002487	0.501396	0.248343
	Zn224	Zn	0.498854	0.750793	-0.000295
	Zn225	Zn	0.499254	0.250907	-0.000689
	Zn226	Zn	0.748013	0.001500	0.499187
	Zn227	Zn	0.247431	0.001080	0.499535
	N228	N	0.412338	0.963409	0.677845
	N229	N	0.582983	0.038609	0.677693
	N230	N	0.583296	0.963659	0.321094
	N231	N	0.412501	0.037956	0.321112
	N232	N	0.676340	0.415093	0.962364
	N233	N	0.675490	0.585627	0.036188
	N234	N	0.320446	0.585777	0.961072
	N235	N	0.320127	0.415018	0.036390
	N236	N	0.959858	0.679950	0.413027
	N237	N	0.034561	0.680363	0.584456
	N238	N	0.959917	0.323419	0.583429
	N239	N	0.034898	0.322876	0.412679
	N240	N	0.961131	0.415237	0.677369
	N241	N	0.035439	0.586102	0.676033
	N242	N	0.960090	0.586829	0.320173
	N243	N	0.034954	0.416269	0.320230
	N244	N	0.413067	0.679673	0.962121
	N245	N	0.583830	0.679107	0.036264
	N246	N	0.584771	0.321965	0.962418
	N247	N	0.413614	0.322376	0.036509
	N248	N	0.676354	0.964029	0.414076
	N249	N	0.675566	0.038897	0.583923
	N250	N	0.318726	0.963779	0.585488
	N251	N	0.319956	0.038430	0.414518
	N252	N	0.912481	0.463696	0.176755
	N253	N	0.083140	0.538673	0.176325
	N254	N	0.084708	0.463180	0.819309
	N255	N	0.913816	0.538560	0.821134
	N256	N	0.176141	0.915450	0.461669
	N257	N	0.175719	0.086611	0.536746
	N258	N	0.819340	0.086775	0.461790
	N259	N	0.819401	0.916217	0.536173
	N260	N	0.462000	0.179790	0.913665
	N261	N	0.536434	0.178976	0.084662
	N262	N	0.461566	0.822392	0.085303
	N263	N	0.536194	0.823040	0.914702
	N264	N	0.461176	0.915316	0.178263
	N265	N	0.536094	0.085828	0.177551
	N266	N	0.461075	0.085909	0.821716
	N267	N	0.535468	0.915078	0.820894
	N268	N	0.912636	0.179438	0.461237
	N269	N	0.083218	0.180017	0.535930
	N270	N	0.082949	0.822704	0.461149
	N271	N	0.911822	0.823114	0.535803
	N272	N	0.177878	0.463040	0.912298
	N273	N	0.176521	0.538392	0.083481
	N274	N	0.819111	0.463613	0.084338
	N275	N	0.819526	0.538003	0.913290
	O276	O	1.114993	-0.018589	0.961431
	H277	H	1.114203	-0.028009	0.961232
	H278	H	1.125761	-0.020715	0.960360
	O279	O	0.304726	0.408864	0.677707
	H280	H	0.308605	0.407052	0.676090
	H281	H	0.304870	0.403846	0.669449
	O282	O	1.091399	1.006315	-0.033620
	H283	H	1.096958	1.006349	-0.041396
	H284	H	1.089184	0.998898	-0.032631
	O285	O	0.291157	0.401628	0.698113
	H286	H	0.285353	0.402595	0.696339
	H287	H	0.284850	0.400516	0.697590
