data_Molecule from HDF5

_cell_length_a		16.340614
_cell_length_b		16.273802
_cell_length_c		16.330093
_cell_angle_alpha	89.905169
_cell_angle_beta	90.056445
_cell_angle_gamma	90.079301
_symmetry_space_group_name_H-M	'P 1'
_symmetry_Int_Tables_number		1

loop_
	_symmetry_equiv_pos_as_xyz
	x,y,z

loop_
	_atom_site_label
	_atom_site_type_symbol
	_atom_site_fract_x
	_atom_site_fract_y
	_atom_site_fract_z
	H0	H	0.406785	0.843487	0.707091
	H1	H	0.602427	0.171052	0.706369
	H2	H	0.602272	0.843106	0.278832
	H3	H	0.406768	0.171144	0.278106
	H4	H	0.720148	0.408021	0.829406
	H5	H	0.720422	0.606048	0.155743
	H6	H	0.289613	0.606610	0.829946
	H7	H	0.289682	0.407148	0.155290
	H8	H	0.841702	0.722061	0.394354
	H9	H	0.168160	0.720795	0.589659
	H10	H	0.842115	0.291651	0.590636
	H11	H	0.167871	0.292902	0.394833
	H12	H	0.841662	0.408575	0.706208
	H13	H	0.167404	0.606614	0.708315
	H14	H	0.841151	0.605172	0.277721
	H15	H	0.167828	0.408524	0.277815
	H16	H	0.406863	0.721603	0.829460
	H17	H	0.602333	0.720655	0.156754
	H18	H	0.601776	0.294122	0.828682
	H19	H	0.407505	0.292525	0.155137
	H20	H	0.718393	0.842427	0.395989
	H21	H	0.719369	0.170952	0.590702
	H22	H	0.290399	0.843217	0.591208
	H23	H	0.290513	0.170531	0.394287
	H24	H	0.906834	0.342931	0.206357
	H25	H	0.102366	0.671203	0.206437
	H26	H	0.101353	0.342800	0.778871
	H27	H	0.906556	0.670122	0.776959
	H28	H	0.219948	0.908602	0.329986
	H29	H	0.219408	0.105699	0.656394
	H30	H	0.789992	0.105968	0.330524
	H31	H	0.790093	0.907371	0.656363
	H32	H	0.340898	0.221480	0.894267
	H33	H	0.668136	0.221164	0.089533
	H34	H	0.340745	0.791995	0.091225
	H35	H	0.667691	0.792925	0.895686
	H36	H	0.341086	0.907220	0.207958
	H37	H	0.667666	0.106063	0.207521
	H38	H	0.341301	0.105226	0.777438
	H39	H	0.668198	0.909400	0.779333
	H40	H	0.908152	0.220131	0.329232
	H41	H	0.102981	0.221625	0.656035
	H42	H	0.103109	0.793531	0.329724
	H43	H	0.908253	0.793104	0.656485
	H44	H	0.218382	0.343065	0.894469
	H45	H	0.219358	0.671068	0.090775
	H46	H	0.790591	0.343223	0.090129
	H47	H	0.790797	0.670624	0.893583
	H48	H	0.410660	0.124699	0.586038
	H49	H	0.596705	0.891155	0.585168
	H50	H	0.597345	0.123347	0.397100
	H51	H	0.409207	0.892201	0.406262
	H52	H	0.603381	0.412808	0.110006
	H53	H	0.593168	0.601400	0.877795
	H54	H	0.412239	0.608956	0.111385
	H55	H	0.414184	0.410945	0.875685
	H56	H	0.120982	0.597950	0.393254
	H57	H	0.891862	0.592657	0.580956
	H58	H	0.120894	0.419721	0.590591
	H59	H	0.891131	0.420263	0.400783
	H60	H	0.124256	0.408095	0.587577
	H61	H	0.886277	0.599668	0.594907
	H62	H	0.122438	0.607341	0.398556
	H63	H	0.886485	0.412937	0.391481
	H64	H	0.402615	0.595573	0.110135
	H65	H	0.600489	0.603281	0.875679
	H66	H	0.597786	0.419938	0.106720
	H67	H	0.405436	0.413465	0.874485
	H68	H	0.596636	0.122265	0.401401
	H69	H	0.599394	0.890773	0.584869
	H70	H	0.413713	0.122840	0.585907
	H71	H	0.406557	0.887411	0.395437
	H72	H	0.911167	0.624116	0.086778
	H73	H	0.099127	0.391001	0.084869
	H74	H	0.102133	0.621896	0.906741
	H75	H	0.914820	0.390672	0.897580
	H76	H	0.101613	0.915618	0.609445
	H77	H	0.100736	0.097750	0.378039
	H78	H	0.916141	0.100847	0.608759
	H79	H	0.911204	0.920065	0.378616
	H80	H	0.620468	0.100136	0.897982
	H81	H	0.387819	0.096484	0.093651
	H82	H	0.619384	0.914344	0.086523
	H83	H	0.388475	0.920217	0.895364
	H84	H	0.619971	0.913809	0.086441
	H85	H	0.386284	0.108501	0.084629
	H86	H	0.620832	0.102906	0.898887
	H87	H	0.386440	0.907749	0.897535
	H88	H	0.908770	0.103406	0.611107
	H89	H	0.094881	0.098830	0.378388
	H90	H	0.096282	0.916266	0.607920
	H91	H	0.914766	0.912472	0.377093
	H92	H	0.101795	0.626651	0.891926
	H93	H	0.098440	0.389948	0.087194
	H94	H	0.914283	0.622918	0.084841
	H95	H	0.912373	0.391930	0.903265
	H96	H	0.411764	0.123110	0.583099
	H97	H	0.598056	0.890644	0.587074
	H98	H	0.600741	0.123436	0.400095
	H99	H	0.417976	0.891961	0.397948
	H100	H	0.593619	0.410886	0.108018
	H101	H	0.598861	0.596160	0.878232
	H102	H	0.418543	0.595107	0.105298
	H103	H	0.411792	0.419170	0.878261
	H104	H	0.118635	0.598649	0.403179
	H105	H	0.887766	0.608889	0.581048
	H106	H	0.118334	0.415474	0.579433
	H107	H	0.887972	0.408154	0.403041
	H108	H	0.911310	0.622981	0.083050
	H109	H	0.096628	0.391354	0.085420
	H110	H	0.088762	0.620967	0.898955
	H111	H	0.908903	0.389354	0.898804
	H112	H	0.097877	0.911008	0.609806
	H113	H	0.098182	0.102991	0.375848
	H114	H	0.909554	0.095677	0.608822
	H115	H	0.906770	0.913331	0.375890
	H116	H	0.620370	0.100528	0.900310
	H117	H	0.392049	0.095741	0.079399
	H118	H	0.619885	0.914280	0.086044
	H119	H	0.391473	0.914940	0.906758
	C120	C	0.383323	0.015355	0.614030
	C121	C	0.626573	0.998992	0.614305
	C122	C	0.626233	0.014782	0.371554
	C123	C	0.383410	0.998944	0.371311
	C124	C	0.626457	0.386003	0.000375
	C125	C	0.626585	0.629198	0.984762
	C126	C	0.382734	0.628703	0.001170
	C127	C	0.382967	0.385931	0.984011
	C128	C	0.012840	0.629113	0.370674
	C129	C	0.996449	0.628583	0.613966
	C130	C	0.013183	0.385621	0.613919
	C131	C	0.996544	0.385380	0.370674
	C132	C	0.883442	0.515406	0.113939
	C133	C	0.125971	0.499318	0.113817
	C134	C	0.125759	0.515010	0.870904
	C135	C	0.883466	0.498624	0.870934
	C136	C	0.126909	0.885597	0.501406
	C137	C	0.126700	0.128933	0.484901
	C138	C	0.883596	0.128420	0.501557
	C139	C	0.883064	0.885779	0.484922
	C140	C	0.512822	0.129370	0.870616
	C141	C	0.496421	0.128564	0.114089
	C142	C	0.512065	0.885083	0.114591
	C143	C	0.496259	0.885566	0.871463
	C144	C	0.386115	0.892262	0.669005
	C145	C	0.623338	0.122061	0.668825
	C146	C	0.623048	0.891741	0.317092
	C147	C	0.386195	0.122166	0.315928
	C148	C	0.681319	0.388355	0.877697
	C149	C	0.682394	0.626590	0.107268
	C150	C	0.327840	0.626672	0.878269
	C151	C	0.328331	0.387784	0.106906
	C152	C	0.890152	0.684100	0.373229
	C153	C	0.119561	0.683059	0.610633
	C154	C	0.890502	0.330188	0.611013
	C155	C	0.119263	0.330775	0.373956
	C156	C	0.890393	0.388094	0.668466
	C157	C	0.119112	0.626364	0.669319
	C158	C	0.890028	0.626209	0.315449
	C159	C	0.119218	0.388414	0.316120
	C160	C	0.385889	0.683875	0.878215
	C161	C	0.623643	0.683383	0.107887
	C162	C	0.622877	0.331332	0.877505
	C163	C	0.386680	0.330721	0.106876
	C164	C	0.681115	0.891623	0.374674
	C165	C	0.681656	0.121933	0.611670
	C166	C	0.328333	0.892147	0.611489
	C167	C	0.328339	0.121929	0.373544
	C168	C	0.886268	0.391939	0.168496
	C169	C	0.123445	0.622036	0.168927
	C170	C	0.123212	0.391832	0.815953
	C171	C	0.886289	0.621686	0.815537
	C172	C	0.181842	0.887982	0.378574
	C173	C	0.181920	0.126286	0.607439
	C174	C	0.828437	0.125855	0.378791
	C175	C	0.828425	0.887757	0.607924
	C176	C	0.389598	0.183861	0.873534
	C177	C	0.619446	0.183299	0.110648
	C178	C	0.389365	0.829980	0.111643
	C179	C	0.619121	0.830737	0.874568
	C180	C	0.389648	0.886987	0.169931
	C181	C	0.619132	0.126126	0.169238
	C182	C	0.389770	0.126229	0.815509
	C183	C	0.619377	0.888693	0.816910
	C184	C	0.886845	0.182964	0.378315
	C185	C	0.124072	0.183867	0.607472
	C186	C	0.123582	0.830978	0.378459
	C187	C	0.886673	0.830613	0.607855
	C188	C	0.181007	0.392087	0.873504
	C189	C	0.181222	0.622296	0.111200
	C190	C	0.828329	0.392127	0.111026
	C191	C	0.828459	0.621797	0.873171
	C192	C	0.405445	0.101451	0.591654
	C193	C	0.604525	0.912980	0.592251
	C194	C	0.604564	0.100877	0.393160
	C195	C	0.404955	0.912776	0.393329
	C196	C	0.604699	0.408030	0.086168
	C197	C	0.604009	0.606937	0.899233
	C198	C	0.404769	0.606520	0.086793
	C199	C	0.404224	0.407945	0.898359
	C200	C	0.098553	0.607726	0.392022
	C201	C	0.910859	0.606803	0.591967
	C202	C	0.099008	0.407940	0.592324
	C203	C	0.910610	0.407297	0.392106
	C204	C	0.905685	0.601173	0.091393
	C205	C	0.104417	0.413027	0.092054
	C206	C	0.103836	0.600974	0.892693
	C207	C	0.905596	0.412798	0.893393
	C208	C	0.105038	0.907750	0.586958
	C209	C	0.104405	0.106563	0.399317
	C210	C	0.905338	0.106493	0.587317
	C211	C	0.904593	0.908534	0.399570
	C212	C	0.598292	0.107632	0.892656
	C213	C	0.410754	0.106702	0.092233
	C214	C	0.597693	0.907523	0.092710
	C215	C	0.410700	0.907790	0.893350
	Zn216	Zn	0.504395	0.007270	0.742684
	Zn217	Zn	0.504098	0.006699	0.242742
	Zn218	Zn	0.754867	0.507197	-0.007804
	Zn219	Zn	0.254255	0.507308	-0.007748
	Zn220	Zn	0.004768	0.757453	0.492776
	Zn221	Zn	0.005263	0.257204	0.492623
	Zn222	Zn	0.004725	0.506757	0.742575
	Zn223	Zn	0.004845	0.507034	0.242423
	Zn224	Zn	0.504273	0.756830	-0.006654
	Zn225	Zn	0.504683	0.257580	-0.007751
	Zn226	Zn	0.755078	0.006913	0.493107
	Zn227	Zn	0.255137	0.007005	0.493205
	N228	N	0.419448	0.970011	0.670886
	N229	N	0.589713	0.044523	0.670499
	N230	N	0.589801	0.969359	0.314911
	N231	N	0.419631	0.044577	0.314635
	N232	N	0.683414	0.421664	0.955059
	N233	N	0.683937	0.593243	0.029846
	N234	N	0.325858	0.593068	0.955604
	N235	N	0.325911	0.421370	0.029568
	N236	N	0.967367	0.685987	0.406924
	N237	N	0.042268	0.684506	0.576889
	N238	N	0.967889	0.328603	0.577725
	N239	N	0.041983	0.329088	0.407399
	N240	N	0.967599	0.421925	0.670224
	N241	N	0.041606	0.593343	0.671766
	N242	N	0.967251	0.592547	0.313932
	N243	N	0.041809	0.421499	0.313959
	N244	N	0.419455	0.685051	0.955626
	N245	N	0.589741	0.685250	0.030689
	N246	N	0.589179	0.330019	0.954793
	N247	N	0.420030	0.329493	0.029526
	N248	N	0.683104	0.969357	0.407886
	N249	N	0.683719	0.044281	0.578688
	N250	N	0.326924	0.969700	0.577806
	N251	N	0.326669	0.044495	0.407549
	N252	N	0.919616	0.469622	0.170645
	N253	N	0.089839	0.544696	0.170576
	N254	N	0.089549	0.469287	0.814410
	N255	N	0.919594	0.544080	0.813881
	N256	N	0.183823	0.921444	0.455792
	N257	N	0.183570	0.092682	0.530126
	N258	N	0.826563	0.092478	0.456217
	N259	N	0.825965	0.921144	0.530531
	N260	N	0.466895	0.185898	0.907216
	N261	N	0.542190	0.185169	0.076975
	N262	N	0.466602	0.828722	0.077987
	N263	N	0.541865	0.828716	0.907771
	N264	N	0.467070	0.920361	0.171945
	N265	N	0.541694	0.092759	0.171260
	N266	N	0.467129	0.093166	0.813612
	N267	N	0.541874	0.922199	0.814839
	N268	N	0.920805	0.184369	0.455461
	N269	N	0.090301	0.185332	0.530279
	N270	N	0.090024	0.829406	0.455831
	N271	N	0.920157	0.829409	0.530557
	N272	N	0.182667	0.469731	0.907022
	N273	N	0.183124	0.544574	0.077906
	N274	N	0.826622	0.469784	0.077608
	N275	N	0.826842	0.544303	0.906978
	O276	O	0.953670	-0.027135	1.025138
	H277	H	0.950238	-0.023593	1.012990
	H278	H	0.961871	-0.028634	1.027683
	O279	O	-0.040944	-0.019635	1.094171
	H280	H	-0.046101	-0.022636	1.100538
	H281	H	-0.044730	-0.023769	1.109535
	O282	O	0.943684	0.954893	0.052794
	H283	H	0.939967	0.956497	0.056592
	H284	H	0.947664	0.954891	0.064196
	O285	O	-0.063701	-0.039378	1.087176
	H286	H	-0.069584	-0.043735	1.081293
	H287	H	-0.063259	-0.035668	1.078879
