data_Molecule from HDF5

_cell_length_a		16.352209
_cell_length_b		16.224144
_cell_length_c		16.393459
_cell_angle_alpha	90.111655
_cell_angle_beta	89.915964
_cell_angle_gamma	90.337558
_symmetry_space_group_name_H-M	'P 1'
_symmetry_Int_Tables_number		1

loop_
	_symmetry_equiv_pos_as_xyz
	x,y,z

loop_
	_atom_site_label
	_atom_site_type_symbol
	_atom_site_fract_x
	_atom_site_fract_y
	_atom_site_fract_z
	H0	H	0.397699	0.835499	0.719113
	H1	H	0.606570	0.158753	0.715903
	H2	H	0.602144	0.834728	0.280299
	H3	H	0.397275	0.157618	0.281208
	H4	H	0.721691	0.394286	0.840506
	H5	H	0.718722	0.601329	0.162458
	H6	H	0.282542	0.599501	0.838807
	H7	H	0.278220	0.390227	0.159773
	H8	H	0.838580	0.708752	0.400720
	H9	H	0.161507	0.715868	0.603525
	H10	H	0.839518	0.275699	0.603384
	H11	H	0.161663	0.275647	0.396586
	H12	H	0.840990	0.389107	0.721103
	H13	H	0.161415	0.599649	0.719940
	H14	H	0.841110	0.598196	0.281872
	H15	H	0.160031	0.388721	0.278207
	H16	H	0.402755	0.713083	0.836671
	H17	H	0.601045	0.716185	0.161714
	H18	H	0.602810	0.279690	0.838820
	H19	H	0.396720	0.275918	0.159991
	H20	H	0.714826	0.833056	0.396193
	H21	H	0.719281	0.157467	0.599594
	H22	H	0.283048	0.833364	0.602252
	H23	H	0.281991	0.157153	0.397141
	H24	H	0.898307	0.332854	0.217512
	H25	H	0.104957	0.657852	0.220201
	H26	H	0.103541	0.332927	0.783558
	H27	H	0.900334	0.656968	0.782529
	H28	H	0.218684	0.891394	0.339457
	H29	H	0.219331	0.097436	0.661021
	H30	H	0.784315	0.095543	0.337346
	H31	H	0.779233	0.893596	0.659865
	H32	H	0.339078	0.211474	0.900319
	H33	H	0.661449	0.215983	0.101617
	H34	H	0.338796	0.781102	0.097603
	H35	H	0.664089	0.782974	0.899363
	H36	H	0.340495	0.891844	0.217441
	H37	H	0.660951	0.102369	0.218653
	H38	H	0.340514	0.100076	0.781384
	H39	H	0.662344	0.896572	0.780934
	H40	H	0.901813	0.210486	0.338017
	H41	H	0.101776	0.212143	0.661641
	H42	H	0.097503	0.779970	0.337998
	H43	H	0.898411	0.779234	0.662023
	H44	H	0.217930	0.333555	0.898545
	H45	H	0.217656	0.660192	0.101864
	H46	H	0.782377	0.334913	0.102589
	H47	H	0.789253	0.660656	0.902245
	H48	H	0.414297	0.109895	0.587074
	H49	H	0.586822	0.883079	0.583474
	H50	H	0.598029	0.114446	0.408971
	H51	H	0.407144	0.877625	0.403558
	H52	H	0.596092	0.405141	0.116209
	H53	H	0.595199	0.590878	0.885556
	H54	H	0.410356	0.584646	0.112664
	H55	H	0.413458	0.405536	0.887038
	H56	H	0.112742	0.584300	0.418626
	H57	H	0.884263	0.584077	0.599782
	H58	H	0.116618	0.398224	0.588896
	H59	H	0.885909	0.397937	0.414882
	H60	H	0.112510	0.410353	0.588176
	H61	H	0.884884	0.590381	0.588922
	H62	H	0.115028	0.579676	0.405136
	H63	H	0.889697	0.410644	0.411591
	H64	H	0.412046	0.590388	0.113269
	H65	H	0.597417	0.590799	0.884599
	H66	H	0.591287	0.414687	0.111480
	H67	H	0.406836	0.404001	0.884862
	H68	H	0.588149	0.113149	0.403106
	H69	H	0.595642	0.877639	0.591607
	H70	H	0.406796	0.112480	0.586855
	H71	H	0.416228	0.882543	0.407814
	H72	H	0.905880	0.613617	0.089797
	H73	H	0.094238	0.378622	0.094960
	H74	H	0.077109	0.607686	0.907636
	H75	H	0.910425	0.377554	0.902154
	H76	H	0.091748	0.904928	0.614806
	H77	H	0.088185	0.084941	0.386524
	H78	H	0.901052	0.084701	0.615665
	H79	H	0.902030	0.898369	0.382193
	H80	H	0.617911	0.089604	0.903613
	H81	H	0.385956	0.080431	0.094447
	H82	H	0.616230	0.904683	0.088945
	H83	H	0.387619	0.907564	0.910550
	H84	H	0.614886	0.911097	0.089560
	H85	H	0.384207	0.090287	0.092173
	H86	H	0.617413	0.092358	0.909650
	H87	H	0.385780	0.907961	0.904827
	H88	H	0.910501	0.079536	0.610827
	H89	H	0.094481	0.086921	0.384276
	H90	H	0.091753	0.905770	0.615169
	H91	H	0.906469	0.905994	0.385224
	H92	H	0.097235	0.609500	0.922849
	H93	H	0.082737	0.382848	0.092426
	H94	H	0.910320	0.614564	0.100643
	H95	H	0.917762	0.384808	0.915315
	H96	H	0.410490	0.112785	0.593466
	H97	H	0.583571	0.880782	0.596146
	H98	H	0.588926	0.109590	0.414177
	H99	H	0.407002	0.881545	0.414412
	H100	H	0.584807	0.405310	0.113287
	H101	H	0.597412	0.589183	0.886143
	H102	H	0.406714	0.589114	0.114228
	H103	H	0.408262	0.410275	0.887378
	H104	H	0.118924	0.593634	0.408783
	H105	H	0.889036	0.578515	0.590003
	H106	H	0.117417	0.405663	0.598400
	H107	H	0.884652	0.402618	0.402437
	H108	H	0.917285	0.610006	0.091988
	H109	H	0.091709	0.383232	0.083238
	H110	H	0.099532	0.617174	0.898490
	H111	H	0.901264	0.378915	0.916560
	H112	H	0.091304	0.904661	0.614813
	H113	H	0.093175	0.081058	0.386769
	H114	H	0.911850	0.090631	0.615671
	H115	H	0.910935	0.898086	0.385163
	H116	H	0.615411	0.086206	0.907931
	H117	H	0.387896	0.084181	0.085075
	H118	H	0.617821	0.908190	0.094605
	H119	H	0.385967	0.902939	0.907260
	C120	C	0.379800	0.004838	0.620465
	C121	C	0.621197	0.987660	0.620284
	C122	C	0.621386	0.004981	0.377628
	C123	C	0.379157	0.987055	0.377838
	C124	C	0.622530	0.376591	0.008321
	C125	C	0.624944	0.620623	0.992436
	C126	C	0.380003	0.618275	0.007165
	C127	C	0.378245	0.374869	0.991907
	C128	C	0.009123	0.615775	0.380466
	C129	C	0.992286	0.616785	0.623289
	C130	C	0.009132	0.372876	0.622479
	C131	C	0.992404	0.372409	0.378262
	C132	C	0.879762	0.505226	0.123585
	C133	C	0.121886	0.488160	0.121975
	C134	C	0.121906	0.504330	0.879291
	C135	C	0.880880	0.487776	0.880958
	C136	C	0.121507	0.873864	0.508625
	C137	C	0.122731	0.115906	0.491826
	C138	C	0.878765	0.115360	0.507629
	C139	C	0.876287	0.871782	0.490749
	C140	C	0.509881	0.118911	0.877610
	C141	C	0.492009	0.117715	0.121321
	C142	C	0.509728	0.876177	0.120808
	C143	C	0.493329	0.876591	0.877926
	C144	C	0.378975	0.883484	0.679397
	C145	C	0.624003	0.109952	0.677222
	C146	C	0.620954	0.883051	0.319542
	C147	C	0.378345	0.108907	0.319781
	C148	C	0.682056	0.375349	0.888245
	C149	C	0.680565	0.620525	0.113942
	C150	C	0.322268	0.618252	0.886327
	C151	C	0.318546	0.372469	0.111913
	C152	C	0.887427	0.671634	0.380871
	C153	C	0.113075	0.676421	0.623142
	C154	C	0.888153	0.314657	0.622420
	C155	C	0.113325	0.314536	0.377614
	C156	C	0.888848	0.370952	0.681370
	C157	C	0.113238	0.618628	0.681074
	C158	C	0.888591	0.616054	0.322002
	C159	C	0.112499	0.371044	0.318716
	C160	C	0.382183	0.674951	0.885458
	C161	C	0.622135	0.677909	0.113603
	C162	C	0.622490	0.318639	0.887299
	C163	C	0.377294	0.315242	0.111970
	C164	C	0.677218	0.882182	0.377300
	C165	C	0.680320	0.109204	0.619382
	C166	C	0.321822	0.882428	0.621262
	C167	C	0.320878	0.108680	0.377301
	C168	C	0.879293	0.382131	0.179430
	C169	C	0.123151	0.609827	0.180352
	C170	C	0.122558	0.381928	0.821959
	C171	C	0.881658	0.609391	0.822507
	C172	C	0.179089	0.873041	0.387643
	C173	C	0.180206	0.116557	0.612985
	C174	C	0.822798	0.114713	0.385842
	C175	C	0.819165	0.873953	0.612245
	C176	C	0.387768	0.174138	0.879827
	C177	C	0.613061	0.177197	0.121330
	C178	C	0.387709	0.818564	0.118775
	C179	C	0.615267	0.820792	0.879111
	C180	C	0.388305	0.874084	0.178249
	C181	C	0.612734	0.120496	0.179652
	C182	C	0.388721	0.118987	0.820441
	C183	C	0.614521	0.877087	0.819981
	C184	C	0.881287	0.172015	0.386185
	C185	C	0.121523	0.173407	0.613227
	C186	C	0.118977	0.817354	0.386914
	C187	C	0.878048	0.816985	0.613204
	C188	C	0.179314	0.382102	0.879508
	C189	C	0.179763	0.610681	0.121903
	C190	C	0.821517	0.383088	0.122334
	C191	C	0.826298	0.611161	0.881994
	C192	C	0.403669	0.089721	0.596199
	C193	C	0.596045	0.902516	0.597109
	C194	C	0.598372	0.090193	0.401693
	C195	C	0.403208	0.902468	0.401682
	C196	C	0.597662	0.401138	0.091995
	C197	C	0.603084	0.597102	0.907290
	C198	C	0.402926	0.594825	0.091666
	C199	C	0.402490	0.399565	0.908222
	C200	C	0.093709	0.592585	0.404087
	C201	C	0.908032	0.591437	0.599732
	C202	C	0.093589	0.397553	0.598526
	C203	C	0.908442	0.396653	0.402605
	C204	C	0.904242	0.590564	0.100877
	C205	C	0.097048	0.403470	0.097425
	C206	C	0.098099	0.589302	0.902842
	C207	C	0.903514	0.402409	0.904364
	C208	C	0.098487	0.898086	0.593112
	C209	C	0.098916	0.091356	0.407803
	C210	C	0.901250	0.091872	0.592223
	C211	C	0.899451	0.894189	0.406118
	C212	C	0.594810	0.096116	0.900273
	C213	C	0.407859	0.092533	0.097456
	C214	C	0.594212	0.900879	0.097942
	C215	C	0.408463	0.899623	0.900757
	Zn216	Zn	0.501444	-0.001948	0.748809
	Zn217	Zn	0.500535	-0.003473	0.250027
	Zn218	Zn	0.752884	0.498005	0.001549
	Zn219	Zn	0.249477	0.496838	0.000024
	Zn220	Zn	-0.000362	0.744573	0.500862
	Zn221	Zn	0.000592	0.244480	0.500192
	Zn222	Zn	0.000797	0.494567	0.751564
	Zn223	Zn	0.001142	0.495626	0.251233
	Zn224	Zn	0.501838	0.747996	-0.000848
	Zn225	Zn	0.500878	0.246200	-0.000339
	Zn226	Zn	0.748186	-0.005127	0.498551
	Zn227	Zn	0.251248	-0.004803	0.499604
	N228	N	0.414489	0.960543	0.678920
	N229	N	0.587906	0.033326	0.677941
	N230	N	0.586961	0.960390	0.319600
	N231	N	0.413926	0.032295	0.320115
	N232	N	0.682020	0.410807	0.964504
	N233	N	0.682414	0.585570	0.037373
	N234	N	0.320838	0.583947	0.962939
	N235	N	0.319286	0.409111	0.036416
	N236	N	0.963513	0.671604	0.416551
	N237	N	0.036865	0.675222	0.588002
	N238	N	0.964161	0.315818	0.586517
	N239	N	0.037709	0.315515	0.414095
	N240	N	0.965286	0.406656	0.681500
	N241	N	0.037141	0.582005	0.681294
	N242	N	0.965246	0.581754	0.321843
	N243	N	0.036289	0.406335	0.318898
	N244	N	0.417553	0.674857	0.961604
	N245	N	0.588383	0.678049	0.036938
	N246	N	0.586145	0.319251	0.962892
	N247	N	0.413892	0.316740	0.036453
	N248	N	0.677680	0.958976	0.412866
	N249	N	0.678507	0.032033	0.584489
	N250	N	0.322339	0.958920	0.585304
	N251	N	0.321148	0.032069	0.412726
	N252	N	0.914785	0.459165	0.180318
	N253	N	0.088288	0.532534	0.180891
	N254	N	0.087702	0.458917	0.821513
	N255	N	0.914716	0.531651	0.821592
	N256	N	0.180805	0.907331	0.464495
	N257	N	0.181330	0.081917	0.536401
	N258	N	0.821261	0.080173	0.462456
	N259	N	0.817747	0.907131	0.535226
	N260	N	0.464378	0.174490	0.914361
	N261	N	0.536921	0.175781	0.085866
	N262	N	0.464067	0.819570	0.083953
	N263	N	0.539044	0.820399	0.914272
	N264	N	0.465198	0.908956	0.179787
	N265	N	0.536484	0.084312	0.179815
	N266	N	0.465821	0.085562	0.818824
	N267	N	0.537474	0.910994	0.818965
	N268	N	0.915402	0.172508	0.462751
	N269	N	0.086338	0.173081	0.536972
	N270	N	0.083915	0.817728	0.463181
	N271	N	0.912716	0.815487	0.536701
	N272	N	0.179115	0.459217	0.914346
	N273	N	0.179248	0.533813	0.086444
	N274	N	0.821566	0.460603	0.088609
	N275	N	0.825608	0.534520	0.917446
	O276	O	-0.105024	0.004204	-0.024131
	H277	H	-0.113129	-0.007063	-0.024752
	H278	H	-0.103768	0.011862	-0.038290
	O279	O	-0.680809	0.503218	-0.700369
	H280	H	-0.703795	0.515491	-0.709154
	H281	H	-0.680346	0.528241	-0.698969
	O282	O	1.465434	-0.650732	0.672325
	H283	H	1.471162	-0.664064	0.685960
	H284	H	1.435856	-0.658428	0.667503
	O285	O	-0.061778	1.070055	0.022114
	H286	H	-0.058969	1.070854	0.027380
	H287	H	-0.067241	1.059075	0.009392
	O288	O	0.649597	0.556025	0.567512
	H289	H	0.639023	0.545965	0.563426
	H290	H	0.670370	0.548146	0.572872
	O291	O	0.485657	0.505551	0.582364
	H292	H	0.505731	0.499674	0.571771
	H293	H	0.487915	0.510454	0.579168
	O294	O	1.292440	1.280547	0.659389
	H295	H	1.289826	1.299229	0.656309
	H296	H	1.285012	1.268482	0.635122
	O297	O	0.101758	-0.074750	0.012275
	H298	H	0.103263	-0.067355	0.021920
	H299	H	0.112871	-0.078843	0.002995
	O300	O	0.353805	0.649101	0.364515
	H301	H	0.375044	0.663270	0.365081
	H302	H	0.366364	0.642148	0.370032
	O303	O	-0.394914	0.416233	1.524197
	H304	H	-0.398698	0.417789	1.525109
	H305	H	-0.393061	0.412409	1.526208
	O306	O	0.596007	0.569336	0.647936
	H307	H	0.594490	0.552012	0.645838
	H308	H	0.580025	0.566984	0.648534
	O309	O	1.066478	0.021128	-0.125652
	H310	H	1.073301	0.005408	-0.124904
	H311	H	1.071026	0.020143	-0.126469
	O312	O	0.421277	0.391241	1.670519
	H313	H	0.418458	0.371795	1.673103
	H314	H	0.400829	0.399831	1.665945
	O315	O	0.317129	1.548375	0.449536
	H316	H	0.328914	1.566127	0.452677
	H317	H	0.316617	1.551503	0.425669
	O318	O	0.422352	0.536997	0.379761
	H319	H	0.422049	0.536205	0.367304
	H320	H	0.409855	0.537849	0.385628
	O321	O	0.305329	0.457429	0.496281
	H322	H	0.301657	0.453079	0.475471
	H323	H	0.311533	0.461268	0.497022
	O324	O	0.549700	0.304661	0.299611
	H325	H	0.537090	0.312542	0.285709
	H326	H	0.535188	0.303642	0.289415
	O327	O	-0.314884	1.342294	1.330765
	H328	H	-0.328815	1.341073	1.327994
	H329	H	-0.337754	1.337980	1.336593
	O330	O	0.648173	0.430498	0.609328
	H331	H	0.650278	0.416661	0.598144
	H332	H	0.642770	0.424325	0.603495
	O333	O	0.435653	0.682303	0.553100
	H334	H	0.428540	0.685109	0.550296
	H335	H	0.451867	0.692621	0.565183
	O336	O	-0.006671	-0.003205	0.017263
	H337	H	-0.008449	0.010584	0.029320
	H338	H	-0.006643	-0.009947	0.015547
	O339	O	1.112483	1.079333	0.091893
	H340	H	1.117149	1.086227	0.095138
	H341	H	1.111386	1.091289	0.093491
	O342	O	0.998549	0.054340	-0.095556
	H343	H	1.010536	0.044331	-0.094393
	H344	H	0.989389	0.049535	-0.104052
	O345	O	0.590599	0.619824	0.544857
	H346	H	0.586933	0.621524	0.555374
	H347	H	0.602200	0.625364	0.555641
	O348	O	0.681943	0.499706	0.322524
	H349	H	0.693912	0.489269	0.304782
	H350	H	0.690889	0.483485	0.346686
	O351	O	0.950021	0.974183	0.005216
	H352	H	0.947989	0.976925	0.019448
	H353	H	0.947150	0.986137	0.010178
	O354	O	0.978175	0.111384	1.028469
	H355	H	0.983626	0.121086	1.026691
	H356	H	0.983797	0.101051	1.011291
	O357	O	0.582857	0.625553	0.647804
	H358	H	0.570485	0.609069	0.649139
	H359	H	0.573700	0.617831	0.665010
	O360	O	-0.149047	0.058423	0.035101
	H361	H	-0.161342	0.067852	0.039995
	H362	H	-0.140972	0.055771	0.031639
	O363	O	0.527784	0.548248	0.402419
	H364	H	0.524152	0.545322	0.401216
	H365	H	0.550069	0.555957	0.413984
	O366	O	1.043057	0.961065	1.039821
	H367	H	1.035180	0.956656	1.037576
	H368	H	1.038491	0.964924	1.047081
	O369	O	0.917886	-0.089845	0.060201
	H370	H	0.919956	-0.086624	0.072854
	H371	H	0.901843	-0.103455	0.059596
	O372	O	0.327121	0.554197	0.670932
	H373	H	0.318125	0.559530	0.662029
	H374	H	0.323719	0.553189	0.661672
	O375	O	0.148598	0.988306	0.984129
	H376	H	0.137217	0.990225	0.973666
	H377	H	0.148650	0.984355	0.992026
	O378	O	0.437192	0.336230	0.449496
	H379	H	0.430487	0.352173	0.446167
	H380	H	0.441097	0.339816	0.446845
	O381	O	0.685257	0.689530	0.554593
	H382	H	0.697833	0.694129	0.569297
	H383	H	0.685985	0.703494	0.580676
	O384	O	0.052073	0.994570	-0.069638
	H385	H	0.041543	0.986428	-0.076909
	H386	H	0.047878	0.991521	-0.066330
	O387	O	0.557849	0.407945	1.501722
	H388	H	0.570017	0.416166	1.493590
	H389	H	0.552796	0.414380	1.504952
	O390	O	0.048653	0.950037	-0.028827
	H391	H	0.057431	0.966455	-0.025501
	H392	H	0.037575	0.952689	-0.042943
	O393	O	1.032828	0.951082	-0.043802
	H394	H	1.036844	0.938523	-0.053748
	H395	H	1.037477	0.959070	-0.039312
	O396	O	0.477231	0.634719	0.309818
	H397	H	0.503550	0.632244	0.299587
	H398	H	0.481839	0.631880	0.319969
	O399	O	0.010360	0.878148	0.937614
	H400	H	0.024738	0.878870	0.942887
	H401	H	0.005494	0.870622	0.923856
	O402	O	1.029300	0.940604	1.140857
	H403	H	1.028866	0.948360	1.138819
	H404	H	1.027171	0.946612	1.142144
	O405	O	0.552965	0.362525	0.588030
	H406	H	0.541625	0.353953	0.584005
	H407	H	0.549807	0.364126	0.592006
