data_Molecule from HDF5

_cell_length_a		16.392655
_cell_length_b		16.253231
_cell_length_c		16.226030
_cell_angle_alpha	90.163284
_cell_angle_beta	89.964286
_cell_angle_gamma	90.380032
_symmetry_space_group_name_H-M	'P 1'
_symmetry_Int_Tables_number		1

loop_
	_symmetry_equiv_pos_as_xyz
	x,y,z

loop_
	_atom_site_label
	_atom_site_type_symbol
	_atom_site_fract_x
	_atom_site_fract_y
	_atom_site_fract_z
	H0	H	0.411447	0.852411	0.705946
	H1	H	0.612112	0.179402	0.707115
	H2	H	0.608772	0.853042	0.274943
	H3	H	0.415069	0.180444	0.279864
	H4	H	0.727365	0.415912	0.831910
	H5	H	0.727423	0.620886	0.156711
	H6	H	0.293904	0.616276	0.830913
	H7	H	0.293437	0.414366	0.156744
	H8	H	0.849283	0.730181	0.394434
	H9	H	0.172037	0.733680	0.596342
	H10	H	0.849990	0.296281	0.593285
	H11	H	0.174447	0.300702	0.394283
	H12	H	0.847255	0.415719	0.707574
	H13	H	0.172623	0.615632	0.710833
	H14	H	0.847993	0.610933	0.281369
	H15	H	0.172306	0.415320	0.276384
	H16	H	0.411551	0.728480	0.829110
	H17	H	0.607694	0.732186	0.157426
	H18	H	0.609178	0.303617	0.829676
	H19	H	0.408896	0.299214	0.155670
	H20	H	0.726189	0.852336	0.389053
	H21	H	0.730795	0.177630	0.593007
	H22	H	0.295170	0.853028	0.592250
	H23	H	0.294262	0.177131	0.389169
	H24	H	0.908799	0.351205	0.209243
	H25	H	0.109079	0.678395	0.210175
	H26	H	0.107616	0.351194	0.780133
	H27	H	0.913192	0.678724	0.780520
	H28	H	0.228694	0.912185	0.330036
	H29	H	0.231662	0.118597	0.654557
	H30	H	0.799200	0.113406	0.328862
	H31	H	0.791913	0.910806	0.653870
	H32	H	0.348493	0.232208	0.890384
	H33	H	0.671479	0.235821	0.092875
	H34	H	0.348894	0.799122	0.092245
	H35	H	0.672746	0.800239	0.892154
	H36	H	0.348675	0.915377	0.208168
	H37	H	0.672668	0.119357	0.208372
	H38	H	0.349301	0.114848	0.774075
	H39	H	0.673775	0.916900	0.776160
	H40	H	0.915266	0.227983	0.329468
	H41	H	0.112640	0.230182	0.657356
	H42	H	0.111656	0.797348	0.330527
	H43	H	0.912201	0.801544	0.657414
	H44	H	0.227247	0.353538	0.891716
	H45	H	0.227754	0.678192	0.097603
	H46	H	0.788511	0.354489	0.098403
	H47	H	0.797421	0.679238	0.895877
	H48	H	0.421278	0.131744	0.583931
	H49	H	0.598148	0.900750	0.583440
	H50	H	0.613444	0.136524	0.393804
	H51	H	0.419301	0.900208	0.402336
	H52	H	0.600435	0.422742	0.111843
	H53	H	0.601365	0.608856	0.877146
	H54	H	0.413508	0.612331	0.112607
	H55	H	0.426490	0.422415	0.879194
	H56	H	0.128248	0.607435	0.395597
	H57	H	0.891958	0.610148	0.596986
	H58	H	0.128618	0.424710	0.595475
	H59	H	0.896162	0.423945	0.400419
	H60	H	0.127698	0.415524	0.583493
	H61	H	0.895883	0.614342	0.579869
	H62	H	0.126233	0.611742	0.407743
	H63	H	0.894320	0.415989	0.399563
	H64	H	0.416105	0.602560	0.109180
	H65	H	0.606946	0.609706	0.875890
	H66	H	0.604032	0.430566	0.110105
	H67	H	0.410764	0.417303	0.872115
	H68	H	0.598192	0.130884	0.398032
	H69	H	0.604040	0.900290	0.577127
	H70	H	0.422586	0.131568	0.581727
	H71	H	0.415682	0.897943	0.397890
	H72	H	0.916672	0.633433	0.091532
	H73	H	0.103938	0.395852	0.092255
	H74	H	0.094792	0.631273	0.897022
	H75	H	0.917737	0.399984	0.903388
	H76	H	0.102887	0.919306	0.610368
	H77	H	0.106957	0.104630	0.377211
	H78	H	0.907661	0.104041	0.613221
	H79	H	0.913456	0.912391	0.371787
	H80	H	0.623394	0.111987	0.909475
	H81	H	0.395602	0.102206	0.090342
	H82	H	0.623872	0.924237	0.078303
	H83	H	0.396865	0.923880	0.898020
	H84	H	0.625169	0.930111	0.086040
	H85	H	0.392826	0.115382	0.086215
	H86	H	0.623758	0.101178	0.896558
	H87	H	0.394723	0.921312	0.897905
	H88	H	0.925400	0.093603	0.603889
	H89	H	0.101620	0.104892	0.378357
	H90	H	0.109898	0.929183	0.609751
	H91	H	0.914645	0.931159	0.377719
	H92	H	0.102033	0.628019	0.913484
	H93	H	0.095734	0.402585	0.083121
	H94	H	0.923402	0.629866	0.086797
	H95	H	0.914871	0.398236	0.903303
	H96	H	0.420464	0.131558	0.581168
	H97	H	0.605981	0.897835	0.585457
	H98	H	0.610624	0.130406	0.409416
	H99	H	0.421302	0.898908	0.396809
	H100	H	0.595955	0.429047	0.107612
	H101	H	0.605471	0.604204	0.878252
	H102	H	0.422783	0.610566	0.109446
	H103	H	0.413188	0.434764	0.879361
	H104	H	0.123146	0.600212	0.404404
	H105	H	0.899000	0.597633	0.585318
	H106	H	0.122855	0.429814	0.582405
	H107	H	0.896888	0.418910	0.406528
	H108	H	0.915728	0.631117	0.083213
	H109	H	0.107758	0.400026	0.079233
	H110	H	0.111764	0.634646	0.900664
	H111	H	0.916683	0.398889	0.901653
	H112	H	0.099118	0.929162	0.605547
	H113	H	0.104291	0.109217	0.376185
	H114	H	0.926842	0.115112	0.610950
	H115	H	0.930086	0.920019	0.379403
	H116	H	0.629117	0.117464	0.894354
	H117	H	0.398077	0.105238	0.077387
	H118	H	0.628328	0.920977	0.086457
	H119	H	0.396053	0.921863	0.900818
	C120	C	0.391055	0.024121	0.612214
	C121	C	0.633220	1.007354	0.612755
	C122	C	0.634434	0.024592	0.369766
	C123	C	0.390346	1.007122	0.370539
	C124	C	0.630523	0.397051	0.002199
	C125	C	0.632635	0.637974	0.985272
	C126	C	0.388446	0.637233	0.002164
	C127	C	0.387368	0.394529	0.984799
	C128	C	0.019273	0.635772	0.373208
	C129	C	1.002183	0.637366	0.617077
	C130	C	0.019312	0.393094	0.616099
	C131	C	1.002702	0.391366	0.372154
	C132	C	0.887969	0.523781	0.116743
	C133	C	0.131896	0.506899	0.115738
	C134	C	0.131489	0.523729	0.873285
	C135	C	0.888637	0.506795	0.873624
	C136	C	0.133092	0.894417	0.501369
	C137	C	0.134421	0.136504	0.484425
	C138	C	0.891717	0.134312	0.501399
	C139	C	0.889543	0.892358	0.484250
	C140	C	0.518854	0.138560	0.870113
	C141	C	0.502130	0.138912	0.114167
	C142	C	0.518788	0.895295	0.113424
	C143	C	0.502483	0.893315	0.869349
	C144	C	0.391723	0.901443	0.668178
	C145	C	0.632627	0.130156	0.669519
	C146	C	0.630168	0.901810	0.313107
	C147	C	0.393558	0.130762	0.316262
	C148	C	0.688406	0.396755	0.880186
	C149	C	0.688648	0.639367	0.108012
	C150	C	0.332285	0.635729	0.879630
	C151	C	0.331373	0.394769	0.107710
	C152	C	0.897543	0.691544	0.374944
	C153	C	0.123978	0.694577	0.615925
	C154	C	0.897665	0.335645	0.613647
	C155	C	0.125562	0.337623	0.373536
	C156	C	0.896544	0.395043	0.670561
	C157	C	0.124144	0.636062	0.673057
	C158	C	0.896793	0.632512	0.318561
	C159	C	0.124323	0.394657	0.315004
	C160	C	0.391345	0.691175	0.878368
	C161	C	0.629056	0.694676	0.108235
	C162	C	0.629311	0.341238	0.878899
	C163	C	0.389078	0.337791	0.107140
	C164	C	0.688809	0.901419	0.369554
	C165	C	0.691185	0.129365	0.612193
	C166	C	0.333509	0.901792	0.611981
	C167	C	0.333633	0.129134	0.370949
	C168	C	0.888824	0.400735	0.171756
	C169	C	0.129880	0.629472	0.172531
	C170	C	0.128518	0.400666	0.817324
	C171	C	0.892063	0.629840	0.818128
	C172	C	0.189587	0.893691	0.378672
	C173	C	0.192082	0.137219	0.606568
	C174	C	0.836683	0.133201	0.378123
	C175	C	0.831513	0.892250	0.605827
	C176	C	0.396990	0.194073	0.870808
	C177	C	0.623371	0.196980	0.112992
	C178	C	0.397140	0.838121	0.112036
	C179	C	0.624449	0.838166	0.871450
	C180	C	0.397111	0.896310	0.169574
	C181	C	0.623857	0.139011	0.170517
	C182	C	0.397303	0.135767	0.812915
	C183	C	0.624831	0.896368	0.813851
	C184	C	0.894214	0.190470	0.378492
	C185	C	0.132875	0.192499	0.607991
	C186	C	0.131415	0.836343	0.379019
	C187	C	0.891417	0.837730	0.607581
	C188	C	0.187715	0.401609	0.873217
	C189	C	0.188975	0.629270	0.116537
	C190	C	0.828874	0.402322	0.116656
	C191	C	0.834624	0.630082	0.875553
	C192	C	0.414437	0.109621	0.588862
	C193	C	0.609498	0.921602	0.589057
	C194	C	0.613711	0.110394	0.393536
	C195	C	0.412351	0.921471	0.392646
	C196	C	0.607002	0.420677	0.087761
	C197	C	0.611045	0.614523	0.899321
	C198	C	0.410898	0.615053	0.088214
	C199	C	0.410047	0.418086	0.899089
	C200	C	0.104051	0.613122	0.395886
	C201	C	0.917508	0.614225	0.594087
	C202	C	0.104359	0.416503	0.593628
	C203	C	0.917913	0.413098	0.395439
	C204	C	0.911714	0.609364	0.093833
	C205	C	0.109018	0.421502	0.091839
	C206	C	0.109453	0.609223	0.896936
	C207	C	0.910101	0.421156	0.896147
	C208	C	0.110613	0.918874	0.586614
	C209	C	0.111082	0.113081	0.399410
	C210	C	0.913692	0.111179	0.587224
	C211	C	0.912576	0.914837	0.398156
	C212	C	0.603415	0.116740	0.893422
	C213	C	0.417483	0.114688	0.091205
	C214	C	0.603738	0.918428	0.090297
	C215	C	0.417900	0.915698	0.892132
	Zn216	Zn	0.511249	0.015815	0.740871
	Zn217	Zn	0.511053	0.016624	0.242764
	Zn218	Zn	0.760262	0.516359	-0.004920
	Zn219	Zn	0.260367	0.515952	-0.005805
	Zn220	Zn	0.011231	0.765704	0.494064
	Zn221	Zn	0.012657	0.263416	0.494003
	Zn222	Zn	0.010044	0.514860	0.745185
	Zn223	Zn	0.010054	0.514171	0.244303
	Zn224	Zn	0.510645	0.765108	-0.007765
	Zn225	Zn	0.509863	0.268131	-0.007482
	Zn226	Zn	0.762432	0.014125	0.491594
	Zn227	Zn	0.262414	0.015573	0.492153
	N228	N	0.426727	0.978509	0.668434
	N229	N	0.597449	0.053072	0.669817
	N230	N	0.597360	0.979456	0.313004
	N231	N	0.428026	0.053881	0.315891
	N232	N	0.689239	0.430597	0.957949
	N233	N	0.691044	0.605017	0.030626
	N234	N	0.330296	0.602951	0.957748
	N235	N	0.330298	0.429383	0.030432
	N236	N	0.974769	0.694064	0.407884
	N237	N	0.047105	0.695743	0.581853
	N238	N	0.975113	0.334158	0.580706
	N239	N	0.049082	0.335440	0.408381
	N240	N	0.973178	0.429793	0.672304
	N241	N	0.047568	0.601219	0.673973
	N242	N	0.973456	0.598566	0.317408
	N243	N	0.047030	0.427017	0.313749
	N244	N	0.425501	0.692404	0.955715
	N245	N	0.594751	0.693860	0.030777
	N246	N	0.593879	0.341521	0.955773
	N247	N	0.422857	0.337368	0.029591
	N248	N	0.691603	0.978770	0.404125
	N249	N	0.691808	0.051742	0.577916
	N250	N	0.333054	0.979180	0.577916
	N251	N	0.331285	0.051246	0.403904
	N252	N	0.925060	0.477209	0.171770
	N253	N	0.094924	0.552317	0.172181
	N254	N	0.094259	0.477752	0.817353
	N255	N	0.924993	0.552324	0.816851
	N256	N	0.190813	0.929067	0.455712
	N257	N	0.193118	0.103005	0.528928
	N258	N	0.835169	0.098756	0.455454
	N259	N	0.830308	0.925428	0.528074
	N260	N	0.473462	0.195833	0.905703
	N261	N	0.546797	0.196819	0.078313
	N262	N	0.473906	0.837332	0.077815
	N263	N	0.547481	0.835868	0.905127
	N264	N	0.473841	0.931024	0.170682
	N265	N	0.547504	0.103643	0.171485
	N266	N	0.473902	0.101872	0.812314
	N267	N	0.548011	0.930022	0.812397
	N268	N	0.927894	0.191054	0.456170
	N269	N	0.097798	0.192416	0.531036
	N270	N	0.096817	0.837038	0.456157
	N271	N	0.926902	0.837879	0.530707
	N272	N	0.189792	0.479085	0.907306
	N273	N	0.190287	0.552028	0.081743
	N274	N	0.828599	0.479859	0.082952
	N275	N	0.832430	0.552595	0.909565
	O276	O	-0.119264	-0.019244	0.935278
	H277	H	-0.107960	-0.019479	0.950017
	H278	H	-0.124266	-0.017352	0.944308
	O279	O	0.909666	0.052575	0.923574
	H280	H	0.895653	0.038318	0.929065
	H281	H	0.893854	0.058115	0.927662
	O282	O	1.026567	0.948300	-0.081868
	H283	H	1.027399	0.941642	-0.067198
	H284	H	1.031555	0.945521	-0.076053
	O285	O	1.004657	0.100767	0.957680
	H286	H	1.003114	0.114028	0.948009
	H287	H	0.996914	0.105035	0.964428
	O288	O	0.536067	0.627787	0.507338
	H289	H	0.550590	0.629987	0.507584
	H290	H	0.547676	0.614438	0.513683
	O291	O	0.514648	0.574480	0.505473
	H292	H	0.521793	0.582825	0.495501
	H293	H	0.511342	0.567462	0.502554
	O294	O	0.508299	0.508632	0.503596
	H295	H	0.508960	0.521331	0.502740
	H296	H	0.515069	0.514809	0.506565
	O297	O	0.038422	0.070285	1.042009
	H298	H	0.053049	0.078227	1.054950
	H299	H	0.031262	0.063073	1.039112
	O300	O	0.029078	-0.008248	0.085816
	H301	H	0.040692	-0.016153	0.090115
	H302	H	0.046069	-0.004399	0.090382
	O303	O	0.445246	0.461076	0.500125
	H304	H	0.442671	0.467544	0.507423
	H305	H	0.440446	0.473110	0.510968
	O306	O	0.176626	1.098518	0.970465
	H307	H	0.192592	1.087733	0.967073
	H308	H	0.167091	1.096383	0.976364
	O309	O	0.541163	0.535043	0.425224
	H310	H	0.551889	0.531399	0.417035
	H311	H	0.548747	0.542499	0.436683
	O312	O	-0.473022	0.480851	0.467920
	H313	H	-0.476226	0.480254	0.457185
	H314	H	-0.474360	0.482626	0.478261
	O315	O	0.564306	-0.495237	-0.449575
	H316	H	0.573505	-0.506739	-0.449815
	H317	H	0.553477	-0.485936	-0.446514
	O318	O	0.955927	1.142898	0.966478
	H319	H	0.966410	1.151647	0.963394
	H320	H	0.958712	1.153379	0.966179
	O321	O	-0.011951	-0.036907	0.841924
	H322	H	-0.006250	-0.025063	0.829497
	H323	H	0.008015	-0.036624	0.837317
	O324	O	0.422228	0.408708	0.595422
	H325	H	0.415269	0.405069	0.593684
	H326	H	0.422334	0.409931	0.606127
	O327	O	-0.043346	0.004987	0.051804
	H328	H	-0.039927	0.010888	0.064217
	H329	H	-0.051876	-0.001182	0.046963
	O330	O	1.088250	0.922430	0.041489
	H331	H	1.086596	0.926052	0.038116
	H332	H	1.081935	0.927483	0.041598
	O333	O	0.094178	0.974860	0.952949
	H334	H	0.085544	0.973668	0.948246
	H335	H	0.102153	0.975870	0.950826
	O336	O	0.142012	-0.027115	0.034209
	H337	H	0.146684	-0.032975	0.027849
	H338	H	0.140988	-0.027491	0.032683
	O339	O	0.568324	0.590890	0.519774
	H340	H	0.563832	0.572511	0.510133
	H341	H	0.574916	0.602751	0.526185
	O342	O	0.929381	1.023726	0.991387
	H343	H	0.939035	1.033390	0.990022
	H344	H	0.927529	1.020136	0.978263
	O345	O	0.882264	0.970685	0.108040
	H346	H	0.903510	0.972634	0.098847
	H347	H	0.871510	0.968701	0.110278
	O348	O	0.522086	0.489842	0.537934
	H349	H	0.509260	0.480435	0.543396
	H350	H	0.525822	0.492983	0.538539
	O351	O	1.096810	0.029554	0.083138
	H352	H	1.109889	0.024714	0.081294
	H353	H	1.090023	0.027168	0.097995
	O354	O	0.511918	0.499851	0.498944
	H355	H	0.517038	0.509925	0.493317
	H356	H	0.512401	0.500876	0.491982
	O357	O	0.414279	0.543688	1.481298
	H358	H	0.411034	0.551826	1.482702
	H359	H	0.414537	0.548867	1.482189
	O360	O	-0.014907	-0.036218	0.042956
	H361	H	-0.021215	-0.035618	0.053223
	H362	H	-0.018446	-0.041473	0.050298
	O363	O	0.548809	0.602448	0.543236
	H364	H	0.553347	0.606956	0.542636
	H365	H	0.554614	0.604967	0.536025
	O366	O	1.064273	0.977345	0.825065
	H367	H	1.051093	0.979073	0.823067
	H368	H	1.077020	0.977309	0.819662
	O369	O	0.983175	0.102669	1.139744
	H370	H	0.984551	0.120720	1.136509
	H371	H	0.983207	0.110241	1.137202
	O372	O	0.027708	0.162416	0.074131
	H373	H	0.035842	0.165074	0.063945
	H374	H	0.024201	0.170924	0.083362
	O375	O	0.519685	-0.471394	0.504198
	H376	H	0.520241	-0.476759	0.503425
	H377	H	0.508523	-0.465772	0.508922
	O378	O	0.965343	-0.102993	0.907086
	H379	H	0.955378	-0.108738	0.911014
	H380	H	0.949017	-0.104362	0.905173
	O381	O	0.565830	0.557422	0.411757
	H382	H	0.570991	0.548304	0.412824
	H383	H	0.560301	0.562869	0.414076
