data_Molecule from HDF5

_cell_length_a		16.284327
_cell_length_b		16.318389
_cell_length_c		16.321075
_cell_angle_alpha	90.115140
_cell_angle_beta	90.049633
_cell_angle_gamma	89.972586
_symmetry_space_group_name_H-M	'P 1'
_symmetry_Int_Tables_number		1

loop_
	_symmetry_equiv_pos_as_xyz
	x,y,z

loop_
	_atom_site_label
	_atom_site_type_symbol
	_atom_site_fract_x
	_atom_site_fract_y
	_atom_site_fract_z
	H0	H	0.404345	0.844216	0.709971
	H1	H	0.601534	0.170964	0.711692
	H2	H	0.601841	0.845826	0.279893
	H3	H	0.404309	0.171731	0.281221
	H4	H	0.716495	0.409976	0.831598
	H5	H	0.716767	0.605092	0.159595
	H6	H	0.288428	0.605330	0.832112
	H7	H	0.290699	0.410649	0.159898
	H8	H	0.839580	0.722540	0.397445
	H9	H	0.166846	0.721531	0.593651
	H10	H	0.839136	0.294444	0.593310
	H11	H	0.166221	0.293309	0.397046
	H12	H	0.838970	0.410960	0.709085
	H13	H	0.166528	0.605856	0.710415
	H14	H	0.839407	0.606146	0.281866
	H15	H	0.166307	0.409450	0.280842
	H16	H	0.404115	0.722540	0.832442
	H17	H	0.600430	0.722556	0.159253
	H18	H	0.600470	0.293090	0.832190
	H19	H	0.405338	0.293272	0.158844
	H20	H	0.716723	0.844495	0.397500
	H21	H	0.717054	0.171644	0.594023
	H22	H	0.287638	0.845006	0.593026
	H23	H	0.287813	0.171932	0.397677
	H24	H	0.903951	0.344988	0.211108
	H25	H	0.101239	0.671521	0.209899
	H26	H	0.101240	0.344080	0.780405
	H27	H	0.903232	0.671179	0.781819
	H28	H	0.217092	0.909478	0.332351
	H29	H	0.217032	0.106625	0.659017
	H30	H	0.788441	0.105943	0.332364
	H31	H	0.788711	0.911002	0.659215
	H32	H	0.339351	0.223224	0.896313
	H33	H	0.665991	0.222420	0.094704
	H34	H	0.339168	0.794461	0.093533
	H35	H	0.666625	0.793069	0.896166
	H36	H	0.339785	0.909089	0.211071
	H37	H	0.666352	0.106426	0.209733
	H38	H	0.339081	0.106306	0.780747
	H39	H	0.666570	0.909892	0.781429
	H40	H	0.903999	0.222940	0.332622
	H41	H	0.101704	0.223637	0.658555
	H42	H	0.101766	0.792710	0.332714
	H43	H	0.903341	0.793474	0.658834
	H44	H	0.216872	0.343846	0.897854
	H45	H	0.218016	0.670823	0.094193
	H46	H	0.789880	0.343660	0.092883
	H47	H	0.787705	0.670690	0.898131
	H48	H	0.414252	0.125909	0.600832
	H49	H	0.594278	0.894568	0.582022
	H50	H	0.593035	0.122683	0.405594
	H51	H	0.408725	0.892979	0.406022
	H52	H	0.592805	0.404312	0.114321
	H53	H	0.604260	0.590795	0.879802
	H54	H	0.402627	0.603121	0.114010
	H55	H	0.411523	0.417603	0.881599
	H56	H	0.119000	0.601202	0.404475
	H57	H	0.886503	0.599462	0.589711
	H58	H	0.121467	0.414252	0.595076
	H59	H	0.889039	0.415074	0.410390
	H60	H	0.118699	0.411810	0.584267
	H61	H	0.885877	0.603571	0.590884
	H62	H	0.119438	0.599392	0.402184
	H63	H	0.887860	0.423219	0.398964
	H64	H	0.411100	0.595516	0.108924
	H65	H	0.583078	0.599481	0.883784
	H66	H	0.606618	0.415937	0.113809
	H67	H	0.411789	0.411568	0.879453
	H68	H	0.599998	0.125611	0.403949
	H69	H	0.603411	0.889476	0.590340
	H70	H	0.415959	0.118985	0.579957
	H71	H	0.409050	0.891852	0.400019
	H72	H	0.917099	0.620346	0.083949
	H73	H	0.099776	0.390036	0.091530
	H74	H	0.102522	0.622764	0.911771
	H75	H	0.914489	0.393198	0.900850
	H76	H	0.091777	0.921479	0.609343
	H77	H	0.091587	0.112119	0.377428
	H78	H	0.901324	0.094555	0.612340
	H79	H	0.909401	0.918955	0.381270
	H80	H	0.619817	0.096087	0.895173
	H81	H	0.385976	0.105573	0.085424
	H82	H	0.620036	0.918716	0.095851
	H83	H	0.387505	0.915366	0.905494
	H84	H	0.620472	0.907927	0.086086
	H85	H	0.387762	0.097541	0.086612
	H86	H	0.621564	0.109715	0.903794
	H87	H	0.387168	0.917069	0.899949
	H88	H	0.919641	0.098655	0.608208
	H89	H	0.106140	0.098733	0.376798
	H90	H	0.090932	0.907788	0.612394
	H91	H	0.913320	0.912368	0.380301
	H92	H	0.099568	0.626837	0.893391
	H93	H	0.093454	0.391782	0.091023
	H94	H	0.900846	0.625602	0.085474
	H95	H	0.907808	0.391867	0.905412
	H96	H	0.396926	0.126757	0.587546
	H97	H	0.591254	0.892385	0.594817
	H98	H	0.594774	0.125426	0.398633
	H99	H	0.413343	0.893662	0.403026
	H100	H	0.590588	0.422114	0.107856
	H101	H	0.600093	0.612750	0.875105
	H102	H	0.414585	0.607250	0.112529
	H103	H	0.406533	0.414804	0.878445
	H104	H	0.120830	0.602559	0.401959
	H105	H	0.886825	0.602598	0.587098
	H106	H	0.116733	0.422185	0.587642
	H107	H	0.883062	0.409349	0.398402
	H108	H	0.911069	0.626018	0.099166
	H109	H	0.097312	0.392124	0.085352
	H110	H	0.084945	0.619311	0.904170
	H111	H	0.907711	0.389123	0.897822
	H112	H	0.103344	0.914740	0.613382
	H113	H	0.088293	0.093390	0.383478
	H114	H	0.908199	0.112346	0.615322
	H115	H	0.906144	0.912920	0.378241
	H116	H	0.615779	0.095865	0.910839
	H117	H	0.384566	0.101583	0.092750
	H118	H	0.615056	0.921023	0.082074
	H119	H	0.385321	0.911775	0.901977
	C120	C	0.380593	0.016053	0.617775
	C121	C	0.624360	1.000083	0.617325
	C122	C	0.624502	0.016581	0.374200
	C123	C	0.381212	1.000288	0.374102
	C124	C	0.624580	0.386088	0.003784
	C125	C	0.624233	0.629223	0.987396
	C126	C	0.381013	0.629982	0.003913
	C127	C	0.381911	0.386248	0.987674
	C128	C	0.011404	0.629597	0.374466
	C129	C	0.994660	0.630088	0.617639
	C130	C	0.010762	0.387425	0.616977
	C131	C	0.994536	0.386902	0.373894
	C132	C	0.881563	0.515839	0.117203
	C133	C	0.125098	0.499438	0.117779
	C134	C	0.124305	0.515510	0.874294
	C135	C	0.881154	0.499271	0.873756
	C136	C	0.124077	0.886373	0.504032
	C137	C	0.123939	0.129996	0.487442
	C138	C	0.881154	0.130090	0.503985
	C139	C	0.881102	0.886662	0.487592
	C140	C	0.510918	0.129145	0.874198
	C141	C	0.494471	0.129436	0.116715
	C142	C	0.510843	0.887161	0.117104
	C143	C	0.494610	0.886207	0.873856
	C144	C	0.383797	0.893145	0.672236
	C145	C	0.621768	0.122755	0.672902
	C146	C	0.622199	0.894190	0.318395
	C147	C	0.383795	0.123038	0.319154
	C148	C	0.678849	0.389213	0.880499
	C149	C	0.678947	0.626084	0.110888
	C150	C	0.325804	0.626467	0.881036
	C151	C	0.327530	0.389507	0.110624
	C152	C	0.888453	0.684721	0.377053
	C153	C	0.118017	0.683917	0.614332
	C154	C	0.887788	0.332555	0.613771
	C155	C	0.117564	0.331656	0.376898
	C156	C	0.887745	0.390143	0.671403
	C157	C	0.117698	0.626925	0.672718
	C158	C	0.888347	0.626832	0.319601
	C159	C	0.117528	0.388787	0.318812
	C160	C	0.383354	0.684572	0.880965
	C161	C	0.621469	0.684418	0.110569
	C162	C	0.621457	0.331032	0.880746
	C163	C	0.384563	0.331174	0.110309
	C164	C	0.679716	0.893747	0.376348
	C165	C	0.679414	0.122807	0.614914
	C166	C	0.325850	0.893311	0.614293
	C167	C	0.326101	0.123255	0.377139
	C168	C	0.884350	0.393219	0.172347
	C169	C	0.122071	0.622397	0.172472
	C170	C	0.122031	0.392652	0.818715
	C171	C	0.883367	0.622391	0.819686
	C172	C	0.179303	0.888870	0.381091
	C173	C	0.179208	0.127272	0.610150
	C174	C	0.826448	0.126713	0.381036
	C175	C	0.826067	0.889787	0.610352
	C176	C	0.388034	0.184642	0.876376
	C177	C	0.617366	0.184418	0.114656
	C178	C	0.388024	0.832094	0.114440
	C179	C	0.617772	0.830972	0.876195
	C180	C	0.388245	0.889247	0.172606
	C181	C	0.617483	0.126904	0.171826
	C182	C	0.387881	0.126672	0.818884
	C183	C	0.617801	0.888808	0.819064
	C184	C	0.883854	0.184755	0.381096
	C185	C	0.121794	0.185216	0.609998
	C186	C	0.122017	0.830925	0.381275
	C187	C	0.883579	0.831838	0.610291
	C188	C	0.179516	0.392548	0.876940
	C189	C	0.180119	0.622191	0.115215
	C190	C	0.827195	0.392737	0.113981
	C191	C	0.826078	0.622197	0.877647
	C192	C	0.402733	0.101947	0.595941
	C193	C	0.602560	0.914374	0.595486
	C194	C	0.602366	0.102372	0.396347
	C195	C	0.403782	0.914776	0.396506
	C196	C	0.603115	0.407667	0.089715
	C197	C	0.602366	0.607489	0.901796
	C198	C	0.403094	0.608385	0.089602
	C199	C	0.403717	0.408080	0.901905
	C200	C	0.097601	0.607598	0.396347
	C201	C	0.908501	0.608247	0.595725
	C202	C	0.096913	0.409435	0.595280
	C203	C	0.908698	0.409283	0.395990
	C204	C	0.903205	0.601889	0.095699
	C205	C	0.103212	0.413474	0.095673
	C206	C	0.102093	0.600955	0.896481
	C207	C	0.903411	0.413482	0.894940
	C208	C	0.101984	0.908337	0.589658
	C209	C	0.101890	0.107826	0.401375
	C210	C	0.903272	0.108313	0.589871
	C211	C	0.903069	0.908376	0.402005
	C212	C	0.596726	0.107052	0.896489
	C213	C	0.408198	0.107766	0.094869
	C214	C	0.596516	0.909466	0.094508
	C215	C	0.408921	0.908283	0.896031
	Zn216	Zn	0.503065	0.007731	0.746209
	Zn217	Zn	0.502772	0.008687	0.245453
	Zn218	Zn	0.752880	0.507570	-0.004319
	Zn219	Zn	0.253125	0.507532	-0.003920
	Zn220	Zn	0.003058	0.757949	0.495835
	Zn221	Zn	0.002816	0.258635	0.495641
	Zn222	Zn	0.002545	0.508013	0.745664
	Zn223	Zn	0.003193	0.508175	0.245787
	Zn224	Zn	0.503053	0.758366	-0.004468
	Zn225	Zn	0.502846	0.257661	-0.004291
	Zn226	Zn	0.752919	0.008497	0.495430
	Zn227	Zn	0.252299	0.008550	0.495537
	N228	N	0.417179	0.970673	0.674288
	N229	N	0.588408	0.045450	0.674562
	N230	N	0.588776	0.971578	0.316924
	N231	N	0.417317	0.045664	0.317277
	N232	N	0.680924	0.422733	0.957919
	N233	N	0.680889	0.592516	0.033448
	N234	N	0.324222	0.593258	0.958497
	N235	N	0.326101	0.423275	0.033473
	N236	N	0.966028	0.686368	0.410500
	N237	N	0.040490	0.685941	0.580825
	N238	N	0.965475	0.330685	0.580809
	N239	N	0.040031	0.330315	0.410437
	N240	N	0.965192	0.423763	0.673106
	N241	N	0.039859	0.594221	0.674860
	N242	N	0.965894	0.593285	0.317935
	N243	N	0.040291	0.422604	0.317119
	N244	N	0.416895	0.686859	0.958231
	N245	N	0.588235	0.686541	0.033175
	N246	N	0.588679	0.328907	0.958305
	N247	N	0.417761	0.329290	0.032842
	N248	N	0.681046	0.970891	0.410513
	N249	N	0.680921	0.045649	0.580923
	N250	N	0.323414	0.970733	0.581601
	N251	N	0.324240	0.045852	0.410389
	N252	N	0.917570	0.470848	0.174353
	N253	N	0.088635	0.544971	0.174323
	N254	N	0.088498	0.470004	0.816914
	N255	N	0.916931	0.545090	0.817259
	N256	N	0.180809	0.922623	0.458501
	N257	N	0.180673	0.093802	0.532706
	N258	N	0.824853	0.093463	0.458377
	N259	N	0.824524	0.923144	0.533128
	N260	N	0.465536	0.186479	0.909866
	N261	N	0.539901	0.185823	0.080840
	N262	N	0.465303	0.830657	0.080676
	N263	N	0.540162	0.829244	0.909680
	N264	N	0.465662	0.922754	0.174376
	N265	N	0.540002	0.093411	0.173248
	N266	N	0.465289	0.092822	0.817581
	N267	N	0.540470	0.922396	0.817508
	N268	N	0.917312	0.186797	0.458633
	N269	N	0.088147	0.186798	0.532716
	N270	N	0.088405	0.829184	0.458486
	N271	N	0.917165	0.829718	0.533033
	N272	N	0.180892	0.469841	0.910942
	N273	N	0.181998	0.544806	0.081927
	N274	N	0.825397	0.469978	0.080526
	N275	N	0.824643	0.544671	0.910555
	O276	O	1.016630	-0.084474	0.945884
	H277	H	1.023350	-0.093820	0.939782
	H278	H	1.020860	-0.079725	0.942637
	O279	O	0.007688	-0.043187	0.946293
	H280	H	0.005693	-0.052364	0.944532
	H281	H	0.006725	-0.043221	0.940904
	O282	O	1.036970	0.928455	-0.058535
	H283	H	1.041081	0.932450	-0.053357
	H284	H	1.036861	0.932029	-0.062757
	O285	O	0.016763	-0.073461	0.963932
	H286	H	0.013475	-0.076612	0.962637
	H287	H	0.017887	-0.074832	0.969713
