data_Molecule from HDF5

_cell_length_a		16.336406
_cell_length_b		16.289020
_cell_length_c		16.297987
_cell_angle_alpha	89.979140
_cell_angle_beta	89.754011
_cell_angle_gamma	90.014753
_symmetry_space_group_name_H-M	'P 1'
_symmetry_Int_Tables_number		1

loop_
	_symmetry_equiv_pos_as_xyz
	x,y,z

loop_
	_atom_site_label
	_atom_site_type_symbol
	_atom_site_fract_x
	_atom_site_fract_y
	_atom_site_fract_z
	H0	H	0.402601	0.836401	0.712918
	H1	H	0.605162	0.161332	0.711541
	H2	H	0.605775	0.836588	0.277524
	H3	H	0.405278	0.162012	0.279983
	H4	H	0.722762	0.395556	0.833679
	H5	H	0.721409	0.600286	0.157322
	H6	H	0.287083	0.600249	0.833051
	H7	H	0.284788	0.394615	0.156385
	H8	H	0.842155	0.716658	0.391631
	H9	H	0.165812	0.716741	0.594565
	H10	H	0.843452	0.278820	0.598025
	H11	H	0.166102	0.280584	0.390310
	H12	H	0.843615	0.395396	0.714192
	H13	H	0.165476	0.601980	0.711578
	H14	H	0.841978	0.598646	0.277803
	H15	H	0.166510	0.397545	0.277041
	H16	H	0.402593	0.717817	0.833948
	H17	H	0.606144	0.716457	0.157215
	H18	H	0.607539	0.279805	0.834653
	H19	H	0.403618	0.283315	0.158494
	H20	H	0.720830	0.836549	0.393665
	H21	H	0.721209	0.160764	0.597031
	H22	H	0.284708	0.836989	0.599124
	H23	H	0.289017	0.161640	0.394629
	H24	H	0.904626	0.334863	0.210413
	H25	H	0.104544	0.660627	0.210853
	H26	H	0.108376	0.337260	0.775427
	H27	H	0.899963	0.659640	0.775696
	H28	H	0.223586	0.897823	0.332462
	H29	H	0.221910	0.102830	0.655838
	H30	H	0.787794	0.100852	0.332456
	H31	H	0.784276	0.894877	0.655936
	H32	H	0.343499	0.217134	0.895193
	H33	H	0.665461	0.216715	0.099042
	H34	H	0.343559	0.778067	0.101906
	H35	H	0.665376	0.780295	0.892048
	H36	H	0.342492	0.897753	0.214448
	H37	H	0.665659	0.100002	0.212451
	H38	H	0.344304	0.104133	0.776415
	H39	H	0.664619	0.893984	0.774686
	H40	H	0.903232	0.216527	0.332363
	H41	H	0.105389	0.217169	0.655513
	H42	H	0.106384	0.782757	0.331385
	H43	H	0.900489	0.779339	0.655624
	H44	H	0.222227	0.336407	0.893287
	H45	H	0.222287	0.659427	0.098038
	H46	H	0.785363	0.336843	0.099027
	H47	H	0.786112	0.659432	0.892690
	H48	H	0.408976	0.112610	0.578751
	H49	H	0.596540	0.882617	0.587033
	H50	H	0.591162	0.113067	0.403756
	H51	H	0.415775	0.885740	0.408708
	H52	H	0.594157	0.405579	0.110816
	H53	H	0.599269	0.589987	0.879114
	H54	H	0.415922	0.597155	0.112349
	H55	H	0.411764	0.412919	0.880498
	H56	H	0.117148	0.583537	0.402357
	H57	H	0.888951	0.591228	0.587006
	H58	H	0.123745	0.398650	0.586844
	H59	H	0.889197	0.411671	0.395833
	H60	H	0.114599	0.409749	0.572444
	H61	H	0.890459	0.589534	0.581794
	H62	H	0.121930	0.593749	0.395214
	H63	H	0.886766	0.398710	0.403556
	H64	H	0.404368	0.585894	0.112618
	H65	H	0.594896	0.587009	0.881599
	H66	H	0.598404	0.407381	0.112781
	H67	H	0.419662	0.407051	0.881405
	H68	H	0.599910	0.114565	0.408194
	H69	H	0.591412	0.884760	0.587066
	H70	H	0.409193	0.117694	0.593906
	H71	H	0.408857	0.882169	0.405924
	H72	H	0.915679	0.613432	0.091070
	H73	H	0.099817	0.381379	0.084833
	H74	H	0.095239	0.613044	0.906260
	H75	H	0.897308	0.376566	0.901769
	H76	H	0.087035	0.907872	0.607412
	H77	H	0.094627	0.091467	0.378330
	H78	H	0.909181	0.085535	0.609725
	H79	H	0.900152	0.918574	0.379114
	H80	H	0.619749	0.081963	0.897355
	H81	H	0.385673	0.091460	0.098576
	H82	H	0.619249	0.906463	0.086508
	H83	H	0.390480	0.910243	0.904567
	H84	H	0.618127	0.908309	0.083903
	H85	H	0.388174	0.100113	0.082060
	H86	H	0.621807	0.098263	0.903039
	H87	H	0.389137	0.906421	0.905983
	H88	H	0.917297	0.087416	0.607613
	H89	H	0.099412	0.089612	0.377912
	H90	H	0.096904	0.901297	0.611897
	H91	H	0.928226	0.912805	0.385682
	H92	H	0.096531	0.613894	0.903377
	H93	H	0.094155	0.381103	0.089344
	H94	H	0.914884	0.611428	0.081546
	H95	H	0.926892	0.383287	0.891591
	H96	H	0.421874	0.111362	0.586927
	H97	H	0.593879	0.884192	0.582177
	H98	H	0.599800	0.116875	0.398202
	H99	H	0.415454	0.883223	0.400813
	H100	H	0.595306	0.410615	0.110486
	H101	H	0.594286	0.591515	0.879812
	H102	H	0.418813	0.582473	0.105829
	H103	H	0.411515	0.403098	0.878610
	H104	H	0.118859	0.595241	0.407635
	H105	H	0.891021	0.585394	0.585879
	H106	H	0.117855	0.417552	0.590401
	H107	H	0.891814	0.410792	0.410287
	H108	H	0.907654	0.615575	0.086122
	H109	H	0.093933	0.384075	0.083174
	H110	H	0.093851	0.613037	0.903477
	H111	H	0.918813	0.390223	0.921254
	H112	H	0.098508	0.914123	0.608605
	H113	H	0.096361	0.086530	0.380112
	H114	H	0.911911	0.093373	0.611323
	H115	H	0.911353	0.892263	0.373350
	H116	H	0.616069	0.085426	0.913665
	H117	H	0.392046	0.081308	0.084857
	H118	H	0.618726	0.909452	0.087792
	H119	H	0.390272	0.909908	0.908319
	C120	C	0.381950	0.007181	0.617852
	C121	C	0.624628	0.990677	0.615795
	C122	C	0.626598	0.007409	0.372834
	C123	C	0.384129	0.991071	0.375160
	C124	C	0.626636	0.376610	0.004470
	C125	C	0.626262	0.619881	0.987111
	C126	C	0.382734	0.619909	0.003867
	C127	C	0.383533	0.377186	0.987149
	C128	C	0.012139	0.620573	0.371899
	C129	C	0.996381	0.619864	0.615215
	C130	C	0.012743	0.376692	0.615534
	C131	C	0.996007	0.376697	0.372374
	C132	C	0.882645	0.506601	0.116714
	C133	C	0.125897	0.489248	0.116313
	C134	C	0.126237	0.506980	0.873159
	C135	C	0.883345	0.489892	0.873692
	C136	C	0.125467	0.877741	0.502344
	C137	C	0.126239	0.120198	0.485548
	C138	C	0.882999	0.119747	0.502684
	C139	C	0.881936	0.876390	0.485905
	C140	C	0.513127	0.120172	0.874638
	C141	C	0.495555	0.120768	0.118145
	C142	C	0.512383	0.877305	0.117585
	C143	C	0.495857	0.877573	0.874609
	C144	C	0.382222	0.885428	0.675132
	C145	C	0.624690	0.112510	0.673434
	C146	C	0.625301	0.885231	0.316061
	C147	C	0.385621	0.113396	0.318664
	C148	C	0.684248	0.376237	0.882443
	C149	C	0.682815	0.619392	0.108968
	C150	C	0.325671	0.619929	0.881634
	C151	C	0.324604	0.376354	0.108348
	C152	C	0.890574	0.677475	0.372705
	C153	C	0.117490	0.677860	0.614370
	C154	C	0.891845	0.317839	0.617204
	C155	C	0.117607	0.319509	0.371895
	C156	C	0.891781	0.376221	0.674697
	C157	C	0.117412	0.620789	0.672612
	C158	C	0.890269	0.618847	0.316061
	C159	C	0.117922	0.377704	0.315366
	C160	C	0.383235	0.678149	0.882114
	C161	C	0.625347	0.677468	0.108789
	C162	C	0.626764	0.318802	0.882837
	C163	C	0.383692	0.320693	0.109390
	C164	C	0.683037	0.885345	0.373539
	C165	C	0.682205	0.112459	0.615976
	C166	C	0.323769	0.885859	0.618053
	C167	C	0.327762	0.113284	0.375743
	C168	C	0.883926	0.384147	0.173295
	C169	C	0.124581	0.611569	0.173084
	C170	C	0.127265	0.385543	0.814539
	C171	C	0.881853	0.611116	0.815141
	C172	C	0.184110	0.878209	0.380840
	C173	C	0.183573	0.121682	0.607342
	C174	C	0.826142	0.120061	0.380920
	C175	C	0.823393	0.875638	0.607439
	C176	C	0.391931	0.178430	0.875228
	C177	C	0.617030	0.178275	0.118190
	C178	C	0.391262	0.818392	0.119393
	C179	C	0.617139	0.819246	0.873392
	C180	C	0.390740	0.877907	0.175429
	C181	C	0.617121	0.120042	0.174709
	C182	C	0.392247	0.122047	0.816272
	C183	C	0.616723	0.875646	0.814675
	C184	C	0.883873	0.177514	0.380934
	C185	C	0.125373	0.178497	0.607203
	C186	C	0.125804	0.821043	0.380348
	C187	C	0.881421	0.818168	0.607344
	C188	C	0.184150	0.385103	0.873080
	C189	C	0.183395	0.611080	0.117025
	C190	C	0.824847	0.385030	0.117605
	C191	C	0.825043	0.611153	0.873408
	C192	C	0.406184	0.092075	0.593772
	C193	C	0.600890	0.905882	0.592112
	C194	C	0.603713	0.092738	0.396464
	C195	C	0.406892	0.906056	0.398413
	C196	C	0.602885	0.400654	0.089411
	C197	C	0.602996	0.596358	0.902147
	C198	C	0.406173	0.595644	0.088215
	C199	C	0.407482	0.400841	0.902370
	C200	C	0.097312	0.597601	0.395075
	C201	C	0.911810	0.595669	0.591873
	C202	C	0.096916	0.401417	0.590566
	C203	C	0.911227	0.400273	0.396294
	C204	C	0.905930	0.591521	0.093201
	C205	C	0.102827	0.404351	0.092640
	C206	C	0.102325	0.591295	0.897530
	C207	C	0.907450	0.405396	0.897807
	C208	C	0.101164	0.901059	0.587088
	C209	C	0.103490	0.096296	0.400888
	C210	C	0.906041	0.095650	0.587442
	C211	C	0.906075	0.900931	0.401281
	C212	C	0.597399	0.095716	0.898008
	C213	C	0.410760	0.097627	0.094973
	C214	C	0.596720	0.901040	0.093142
	C215	C	0.411754	0.901839	0.899248
	Zn216	Zn	0.504356	-0.001026	0.746034
	Zn217	Zn	0.504297	-0.000906	0.245965
	Zn218	Zn	0.754731	0.497751	-0.004686
	Zn219	Zn	0.254285	0.498201	-0.005058
	Zn220	Zn	0.003982	0.748900	0.493783
	Zn221	Zn	0.004687	0.248003	0.493877
	Zn222	Zn	0.004796	0.498527	0.744478
	Zn223	Zn	0.004065	0.497855	0.244073
	Zn224	Zn	0.504136	0.748671	-0.004236
	Zn225	Zn	0.504738	0.248839	-0.003300
	Zn226	Zn	0.754048	-0.001109	0.494901
	Zn227	Zn	0.253912	-0.000902	0.495064
	N228	N	0.417666	0.962069	0.675054
	N229	N	0.589699	0.035725	0.673689
	N230	N	0.591178	0.962328	0.315464
	N231	N	0.420353	0.036499	0.318568
	N232	N	0.684297	0.411359	0.959194
	N233	N	0.683725	0.584563	0.032090
	N234	N	0.325283	0.584349	0.958183
	N235	N	0.324464	0.411095	0.031428
	N236	N	0.967406	0.678508	0.406702
	N237	N	0.041145	0.677303	0.579456
	N238	N	0.967950	0.318322	0.581027
	N239	N	0.040875	0.318891	0.406890
	N240	N	0.968142	0.411873	0.673891
	N241	N	0.040948	0.585428	0.673226
	N242	N	0.967060	0.584205	0.315449
	N243	N	0.041207	0.412512	0.315448
	N244	N	0.417793	0.678325	0.958960
	N245	N	0.591104	0.678042	0.031868
	N246	N	0.591818	0.318803	0.959752
	N247	N	0.419568	0.321039	0.032959
	N248	N	0.683857	0.962369	0.408027
	N249	N	0.682563	0.035607	0.581089
	N250	N	0.323573	0.962785	0.583087
	N251	N	0.326576	0.036295	0.410290
	N252	N	0.919136	0.460834	0.172994
	N253	N	0.089532	0.534798	0.172877
	N254	N	0.092038	0.462170	0.814414
	N255	N	0.917568	0.534698	0.815295
	N256	N	0.184151	0.912636	0.457807
	N257	N	0.184143	0.086119	0.530945
	N258	N	0.825508	0.084738	0.457713
	N259	N	0.823618	0.911157	0.530813
	N260	N	0.467986	0.177342	0.910889
	N261	N	0.540520	0.178631	0.083432
	N262	N	0.467917	0.818031	0.084048
	N263	N	0.541238	0.820503	0.910144
	N264	N	0.466888	0.913626	0.174604
	N265	N	0.540698	0.084959	0.174697
	N266	N	0.468528	0.086411	0.815860
	N267	N	0.540510	0.911698	0.815574
	N268	N	0.918554	0.177444	0.457522
	N269	N	0.090529	0.177764	0.530557
	N270	N	0.090203	0.820412	0.457003
	N271	N	0.916929	0.818565	0.530738
	N272	N	0.183439	0.461442	0.908982
	N273	N	0.184374	0.534198	0.082290
	N274	N	0.823750	0.462001	0.083026
	N275	N	0.825915	0.534810	0.909238
	O276	O	0.087075	-0.015416	0.051183
	H277	H	0.076300	-0.008959	0.059274
	H278	H	0.087227	-0.003971	0.042653
	O279	O	0.033880	-0.123094	-0.026131
	H280	H	0.040881	-0.117290	-0.039164
	H281	H	0.023954	-0.130330	-0.025583
	O282	O	1.052807	-0.003216	0.104442
	H283	H	1.047120	0.000924	0.092324
	H284	H	1.050687	-0.001261	0.103841
	O285	O	-0.039845	1.115083	-0.076515
	H286	H	-0.029035	1.117156	-0.078196
	H287	H	-0.044462	1.122703	-0.061100
	O288	O	0.430547	0.561322	0.437658
	H289	H	0.434199	0.564627	0.444001
	H290	H	0.440382	0.571681	0.440571
	O291	O	0.523934	0.460573	0.467387
	H292	H	0.528671	0.466641	0.454741
	H293	H	0.531069	0.461655	0.453368
	O294	O	0.918845	0.928129	1.100955
	H295	H	0.932688	0.914517	1.105241
	H296	H	0.928967	0.919382	1.094231
	O297	O	-0.142212	0.059619	0.043785
	H298	H	-0.146156	0.050659	0.065863
	H299	H	-0.134082	0.062636	0.043713
	O300	O	0.458279	0.351164	0.607025
	H301	H	0.455387	0.354407	0.604657
	H302	H	0.461209	0.333140	0.598845
	O303	O	-0.094587	0.929784	0.999947
	H304	H	-0.096842	0.924386	1.008335
	H305	H	-0.106403	0.928384	1.003791
	O306	O	0.546735	0.486039	0.470038
	H307	H	0.545565	0.474300	0.473605
	H308	H	0.532628	0.487321	0.460907
	O309	O	0.995358	-0.064909	-0.039447
	H310	H	1.001619	-0.068521	-0.034870
	H311	H	0.984887	-0.054239	-0.048490
	O312	O	-0.100794	0.012398	1.179767
	H313	H	-0.094934	-0.002446	1.176611
	H314	H	-0.104496	-0.001567	1.195116
	O315	O	0.171920	1.053786	0.860488
	H316	H	0.182918	1.047185	0.870092
	H317	H	0.182337	1.041290	0.864494
	O318	O	0.554038	0.530934	0.573501
	H319	H	0.542085	0.518756	0.579186
	H320	H	0.562098	0.518829	0.568822
	O321	O	0.465842	0.407212	0.647639
	H322	H	0.454847	0.408404	0.648403
	H323	H	0.463617	0.409622	0.649312
	O324	O	0.545394	0.614363	0.579828
	H325	H	0.547695	0.598441	0.586866
	H326	H	0.543315	0.628763	0.579625
	O327	O	-0.238043	1.206963	1.369213
	H328	H	-0.232050	1.207543	1.362112
	H329	H	-0.244440	1.205608	1.361221
	O330	O	0.429527	0.605985	0.456862
	H331	H	0.423763	0.581415	0.451830
	H332	H	0.429100	0.605423	0.465948
	O333	O	-0.045609	1.081758	0.899546
	H334	H	-0.061320	1.091816	0.896511
	H335	H	-0.049766	1.062509	0.918470
	O336	O	1.029658	1.042519	0.850338
	H337	H	1.049140	1.034233	0.838851
	H338	H	1.027607	1.049095	0.846510
	O339	O	0.473135	0.529823	0.534148
	H340	H	0.473754	0.546326	0.532809
	H341	H	0.481367	0.525790	0.535837
	O342	O	0.860965	-0.092520	0.039299
	H343	H	0.873804	-0.092097	0.041483
	H344	H	0.860481	-0.077658	0.027793
	O345	O	0.581479	0.562544	0.438538
	H346	H	0.586309	0.572513	0.440146
	H347	H	0.562196	0.562315	0.454569
	O348	O	1.062359	0.969395	0.821610
	H349	H	1.059706	0.972481	0.815538
	H350	H	1.063019	0.955771	0.816778
	O351	O	0.945543	1.020485	-0.120900
	H352	H	0.951276	1.030719	-0.124401
	H353	H	0.933422	1.027472	-0.141652
	O354	O	0.928407	0.090071	0.897859
	H355	H	0.930702	0.096630	0.903264
	H356	H	0.927445	0.102196	0.889169
	O357	O	0.628860	0.564339	0.591713
	H358	H	0.637250	0.561262	0.601534
	H359	H	0.619887	0.561738	0.586074
	O360	O	-0.051782	0.169491	0.025877
	H361	H	-0.042567	0.166737	0.016181
	H362	H	-0.063418	0.175897	0.024072
	O363	O	0.452378	0.410465	0.502084
	H364	H	0.445207	0.419564	0.498607
	H365	H	0.449467	0.405329	0.495982
	O366	O	0.647293	0.473635	0.468470
	H367	H	0.646394	0.474156	0.481158
	H368	H	0.653702	0.475471	0.460858
	O369	O	0.443833	0.642118	0.403978
	H370	H	0.433709	0.645554	0.406161
	H371	H	0.459772	0.640211	0.395051
	O372	O	0.510091	0.446487	0.365014
	H373	H	0.516714	0.445047	0.369754
	H374	H	0.502579	0.445078	0.360837
	O375	O	0.561555	0.573569	0.535104
	H376	H	0.560787	0.568663	0.536001
	H377	H	0.568461	0.580123	0.530900
	O378	O	0.479740	0.468501	0.407492
	H379	H	0.478431	0.477217	0.418176
	H380	H	0.474091	0.472534	0.399171
	O381	O	0.388237	0.559368	0.453365
	H382	H	0.385896	0.547397	0.453541
	H383	H	0.390337	0.553922	0.458015
	O384	O	0.103701	1.078439	0.131996
	H385	H	0.109188	1.078890	0.131809
	H386	H	0.110411	1.085839	0.118049
	O387	O	1.114220	0.042007	1.096770
	H388	H	1.115138	0.037093	1.099341
	H389	H	1.096797	0.036034	1.098030
	O390	O	-0.072828	0.912106	-0.029316
	H391	H	-0.067276	0.920553	-0.035563
	H392	H	-0.081723	0.899518	-0.027791
	O393	O	0.912603	0.970723	-0.031480
	H394	H	0.900142	0.965967	-0.030491
	H395	H	0.912494	0.969945	-0.037645
	O396	O	0.404293	0.471633	0.496082
	H397	H	0.406490	0.477138	0.498375
	H398	H	0.417387	0.475813	0.485841
	O399	O	0.160442	0.814708	0.876944
	H400	H	0.167182	0.807036	0.887530
	H401	H	0.150627	0.805138	0.861628
	O402	O	1.100162	0.825877	0.951295
	H403	H	1.096179	0.835290	0.963570
	H404	H	1.101630	0.829799	0.950746
	O405	O	0.373103	0.538382	0.435712
	H406	H	0.383664	0.540371	0.437820
	H407	H	0.367820	0.535590	0.438419
