data_Molecule from HDF5

_cell_length_a		16.480518
_cell_length_b		16.391726
_cell_length_c		16.269501
_cell_angle_alpha	90.038313
_cell_angle_beta	89.959022
_cell_angle_gamma	90.136074
_symmetry_space_group_name_H-M	'P 1'
_symmetry_Int_Tables_number		1

loop_
	_symmetry_equiv_pos_as_xyz
	x,y,z

loop_
	_atom_site_label
	_atom_site_type_symbol
	_atom_site_fract_x
	_atom_site_fract_y
	_atom_site_fract_z
	H0	H	0.393172	0.840878	0.716954
	H1	H	0.597982	0.161770	0.715948
	H2	H	0.598827	0.841438	0.279407
	H3	H	0.395684	0.161703	0.279694
	H4	H	0.716185	0.398147	0.837251
	H5	H	0.716617	0.606202	0.158931
	H6	H	0.276870	0.604357	0.838345
	H7	H	0.277456	0.395144	0.159227
	H8	H	0.837070	0.721443	0.395544
	H9	H	0.153456	0.724915	0.606421
	H10	H	0.837137	0.280334	0.603463
	H11	H	0.154371	0.281654	0.394664
	H12	H	0.837299	0.397295	0.719151
	H13	H	0.156206	0.604307	0.717948
	H14	H	0.836426	0.602750	0.280632
	H15	H	0.155575	0.399878	0.280408
	H16	H	0.392331	0.720070	0.837662
	H17	H	0.599457	0.719603	0.159618
	H18	H	0.599836	0.284223	0.836249
	H19	H	0.393876	0.280568	0.158706
	H20	H	0.718042	0.842709	0.390834
	H21	H	0.718796	0.159552	0.604989
	H22	H	0.273448	0.843232	0.604994
	H23	H	0.278146	0.161617	0.395230
	H24	H	0.894224	0.341075	0.216765
	H25	H	0.099428	0.661274	0.217802
	H26	H	0.098321	0.341298	0.779453
	H27	H	0.892295	0.660980	0.777362
	H28	H	0.214780	0.897954	0.337905
	H29	H	0.218050	0.109484	0.657385
	H30	H	0.777038	0.105149	0.337710
	H31	H	0.773591	0.894786	0.657956
	H32	H	0.339347	0.220911	0.894033
	H33	H	0.656552	0.224339	0.104592
	H34	H	0.339373	0.778672	0.105177
	H35	H	0.654896	0.778722	0.890337
	H36	H	0.337848	0.897712	0.218647
	H37	H	0.656773	0.106427	0.219649
	H38	H	0.337926	0.103044	0.780085
	H39	H	0.655155	0.896405	0.775942
	H40	H	0.892459	0.220017	0.337447
	H41	H	0.099554	0.221615	0.658870
	H42	H	0.099968	0.781305	0.338641
	H43	H	0.891103	0.781743	0.659455
	H44	H	0.216888	0.342082	0.893545
	H45	H	0.221080	0.658383	0.108077
	H46	H	0.773118	0.343357	0.106189
	H47	H	0.774103	0.659925	0.890676
	H48	H	0.406621	0.115770	0.588055
	H49	H	0.585472	0.889069	0.580083
	H50	H	0.588162	0.114349	0.413052
	H51	H	0.402831	0.886705	0.409923
	H52	H	0.592185	0.419319	0.112431
	H53	H	0.580413	0.586390	0.887336
	H54	H	0.404672	0.585423	0.112630
	H55	H	0.402263	0.407045	0.881384
	H56	H	0.107868	0.591059	0.412979
	H57	H	0.882691	0.594445	0.587065
	H58	H	0.108561	0.407044	0.582011
	H59	H	0.882375	0.407154	0.413000
	H60	H	0.107982	0.417373	0.589623
	H61	H	0.885388	0.587814	0.583834
	H62	H	0.109408	0.590299	0.405937
	H63	H	0.883081	0.415079	0.408200
	H64	H	0.413530	0.588762	0.110599
	H65	H	0.585864	0.597166	0.881647
	H66	H	0.577868	0.414227	0.109203
	H67	H	0.404640	0.418082	0.885183
	H68	H	0.589383	0.115787	0.408086
	H69	H	0.591982	0.884685	0.588152
	H70	H	0.406521	0.115043	0.586865
	H71	H	0.405076	0.886840	0.406797
	H72	H	0.908058	0.614178	0.086228
	H73	H	0.086855	0.386113	0.090841
	H74	H	0.086424	0.615186	0.907899
	H75	H	0.908287	0.392011	0.920875
	H76	H	0.085938	0.918759	0.611769
	H77	H	0.089036	0.092004	0.382958
	H78	H	0.908126	0.085200	0.610785
	H79	H	0.907472	0.914596	0.384361
	H80	H	0.614034	0.095277	0.902664
	H81	H	0.384201	0.097565	0.084989
	H82	H	0.607964	0.918949	0.087873
	H83	H	0.385840	0.919335	0.906482
	H84	H	0.613177	0.908231	0.093615
	H85	H	0.388952	0.086982	0.083230
	H86	H	0.611055	0.095683	0.911468
	H87	H	0.379864	0.904632	0.902393
	H88	H	0.910342	0.094249	0.613683
	H89	H	0.086050	0.089181	0.384091
	H90	H	0.080359	0.912438	0.612072
	H91	H	0.909426	0.910351	0.384752
	H92	H	0.087136	0.614114	0.912430
	H93	H	0.086250	0.388711	0.086409
	H94	H	0.904222	0.615867	0.087296
	H95	H	0.896713	0.384401	0.907676
	H96	H	0.405575	0.115759	0.587453
	H97	H	0.581417	0.887659	0.590514
	H98	H	0.584519	0.114594	0.409908
	H99	H	0.406407	0.888278	0.409881
	H100	H	0.588281	0.405046	0.116003
	H101	H	0.593354	0.586200	0.882566
	H102	H	0.407349	0.594519	0.114957
	H103	H	0.413130	0.409548	0.885361
	H104	H	0.111031	0.596459	0.408994
	H105	H	0.882665	0.587814	0.591212
	H106	H	0.112357	0.406382	0.594069
	H107	H	0.879584	0.407309	0.404157
	H108	H	0.907374	0.615712	0.090299
	H109	H	0.090253	0.386451	0.087781
	H110	H	0.090183	0.615875	0.910831
	H111	H	0.914625	0.389094	0.903428
	H112	H	0.087827	0.910992	0.614912
	H113	H	0.084999	0.093100	0.383417
	H114	H	0.901453	0.090439	0.614145
	H115	H	0.904996	0.911160	0.383516
	H116	H	0.610389	0.087503	0.906577
	H117	H	0.383675	0.089540	0.093442
	H118	H	0.609417	0.907658	0.080730
	H119	H	0.385943	0.907611	0.917745
	C120	C	0.374370	0.010039	0.619924
	C121	C	0.617957	0.992422	0.619060
	C122	C	0.618348	0.009661	0.377218
	C123	C	0.374951	0.992976	0.376924
	C124	C	0.617786	0.381335	0.006370
	C125	C	0.618305	0.622588	0.989853
	C126	C	0.376287	0.621594	0.006997
	C127	C	0.375356	0.379003	0.989818
	C128	C	0.004551	0.623384	0.377503
	C129	C	0.988177	0.622480	0.620121
	C130	C	0.004313	0.379012	0.620281
	C131	C	0.987236	0.379484	0.377388
	C132	C	0.874933	0.510099	0.119653
	C133	C	0.119147	0.492202	0.121083
	C134	C	0.118394	0.509709	0.877994
	C135	C	0.875093	0.493417	0.877573
	C136	C	0.116604	0.881695	0.507262
	C137	C	0.117798	0.123400	0.489403
	C138	C	0.875142	0.121842	0.506972
	C139	C	0.874542	0.879818	0.489915
	C140	C	0.506385	0.123075	0.876166
	C141	C	0.489818	0.123665	0.120018
	C142	C	0.505350	0.879586	0.119909
	C143	C	0.488621	0.878814	0.876058
	C144	C	0.373573	0.889440	0.678372
	C145	C	0.618061	0.113290	0.677470
	C146	C	0.618516	0.889541	0.317973
	C147	C	0.375946	0.113675	0.318830
	C148	C	0.676733	0.380034	0.885322
	C149	C	0.677085	0.624683	0.110764
	C150	C	0.316626	0.622984	0.886277
	C151	C	0.316986	0.376997	0.110820
	C152	C	0.884697	0.681914	0.376472
	C153	C	0.106751	0.683780	0.623443
	C154	C	0.884759	0.320038	0.621918
	C155	C	0.107047	0.321191	0.376236
	C156	C	0.884831	0.378380	0.679408
	C157	C	0.108038	0.623789	0.679017
	C158	C	0.884278	0.622615	0.319643
	C159	C	0.107614	0.380052	0.319456
	C160	C	0.374156	0.680590	0.885902
	C161	C	0.618897	0.681350	0.110905
	C162	C	0.618805	0.323185	0.884837
	C163	C	0.374955	0.319665	0.110523
	C164	C	0.677691	0.890143	0.373637
	C165	C	0.678033	0.112264	0.622028
	C166	C	0.314045	0.890487	0.622497
	C167	C	0.317248	0.113523	0.376135
	C168	C	0.874195	0.389465	0.178576
	C169	C	0.119518	0.612607	0.179777
	C170	C	0.118243	0.389385	0.818638
	C171	C	0.873408	0.612904	0.816748
	C172	C	0.175630	0.879459	0.386335
	C173	C	0.177639	0.126689	0.609879
	C174	C	0.816333	0.123643	0.385885
	C175	C	0.813835	0.877064	0.610076
	C176	C	0.386731	0.181342	0.875339
	C177	C	0.608922	0.184179	0.122719
	C178	C	0.386455	0.819407	0.122790
	C179	C	0.607383	0.818940	0.872682
	C180	C	0.385858	0.878282	0.179698
	C181	C	0.609145	0.125741	0.180315
	C182	C	0.386157	0.122698	0.818718
	C183	C	0.607453	0.877599	0.815618
	C184	C	0.873662	0.181036	0.385940
	C185	C	0.118937	0.182780	0.610289
	C186	C	0.118288	0.821552	0.386523
	C187	C	0.872295	0.820643	0.610891
	C188	C	0.177449	0.389736	0.875320
	C189	C	0.179985	0.611342	0.124788
	C190	C	0.814120	0.390633	0.123262
	C191	C	0.814443	0.612346	0.873481
	C192	C	0.399047	0.093797	0.594809
	C193	C	0.593349	0.908967	0.593659
	C194	C	0.594030	0.093195	0.402898
	C195	C	0.398190	0.908905	0.401646
	C196	C	0.593156	0.405820	0.090746
	C197	C	0.593790	0.597213	0.905833
	C198	C	0.401174	0.596771	0.090911
	C199	C	0.399643	0.404404	0.905783
	C200	C	0.087833	0.599533	0.402080
	C201	C	0.905112	0.597410	0.594632
	C202	C	0.087902	0.403229	0.595593
	C203	C	0.903477	0.403002	0.401333
	C204	C	0.899508	0.593522	0.094948
	C205	C	0.094737	0.408829	0.095849
	C206	C	0.094622	0.593341	0.903144
	C207	C	0.899563	0.410087	0.903227
	C208	C	0.091789	0.906751	0.591072
	C209	C	0.093628	0.098500	0.405430
	C210	C	0.899565	0.097131	0.591009
	C211	C	0.899945	0.904917	0.405998
	C212	C	0.590074	0.099602	0.900177
	C213	C	0.407274	0.098390	0.094648
	C214	C	0.588497	0.904396	0.094828
	C215	C	0.405396	0.903284	0.901716
	Zn216	Zn	0.496707	0.001124	0.747618
	Zn217	Zn	0.497600	0.001637	0.248640
	Zn218	Zn	0.745923	0.501373	-0.001255
	Zn219	Zn	0.247422	0.500722	-0.000472
	Zn220	Zn	-0.004108	0.752316	0.499519
	Zn221	Zn	-0.004744	0.249802	0.498402
	Zn222	Zn	-0.003465	0.501456	0.748970
	Zn223	Zn	-0.003846	0.501373	0.248582
	Zn224	Zn	0.496870	0.750436	-0.001955
	Zn225	Zn	0.498328	0.252111	-0.002655
	Zn226	Zn	0.746873	0.000829	0.498067
	Zn227	Zn	0.245795	0.002279	0.498972
	N228	N	0.410465	0.964735	0.676598
	N229	N	0.581313	0.037937	0.675591
	N230	N	0.582367	0.965001	0.320096
	N231	N	0.410682	0.037541	0.318944
	N232	N	0.676159	0.415314	0.962016
	N233	N	0.677214	0.589340	0.034283
	N234	N	0.317619	0.587118	0.962685
	N235	N	0.317185	0.413182	0.034807
	N236	N	0.960573	0.682667	0.411663
	N237	N	0.031131	0.683146	0.587634
	N238	N	0.960187	0.320294	0.585776
	N239	N	0.031173	0.320688	0.411518
	N240	N	0.960325	0.414172	0.678437
	N241	N	0.033212	0.586720	0.677172
	N242	N	0.959711	0.587189	0.320139
	N243	N	0.032150	0.415489	0.320060
	N244	N	0.410405	0.679920	0.961913
	N245	N	0.583198	0.680222	0.034514
	N246	N	0.582693	0.324028	0.961037
	N247	N	0.410670	0.320857	0.034164
	N248	N	0.677759	0.965939	0.409672
	N249	N	0.678195	0.036113	0.586572
	N250	N	0.314317	0.966642	0.586954
	N251	N	0.316320	0.037342	0.411302
	N252	N	0.911472	0.464538	0.176404
	N253	N	0.082371	0.537553	0.177496
	N254	N	0.082275	0.464849	0.820154
	N255	N	0.910638	0.537965	0.819435
	N256	N	0.174950	0.915986	0.462392
	N257	N	0.177121	0.090512	0.533738
	N258	N	0.817001	0.087443	0.462168
	N259	N	0.815227	0.913118	0.533839
	N260	N	0.462535	0.181668	0.910344
	N261	N	0.533913	0.183023	0.085902
	N262	N	0.461757	0.820044	0.086533
	N263	N	0.532226	0.819396	0.909482
	N264	N	0.460880	0.915123	0.177985
	N265	N	0.534155	0.088832	0.178869
	N266	N	0.461681	0.087370	0.818860
	N267	N	0.532559	0.914094	0.817727
	N268	N	0.909565	0.180027	0.462109
	N269	N	0.082276	0.180791	0.534471
	N270	N	0.082255	0.822662	0.462694
	N271	N	0.909517	0.822301	0.535271
	N272	N	0.177591	0.465465	0.911761
	N273	N	0.179961	0.535409	0.089046
	N274	N	0.814297	0.466653	0.087465
	N275	N	0.815549	0.537136	0.910914
	O276	O	0.649888	0.550785	0.415821
	H277	H	0.643486	0.556135	0.434775
	H278	H	0.650365	0.549554	0.437110
	O279	O	0.312879	0.666177	0.320429
	H280	H	0.328795	0.677388	0.313345
	H281	H	0.318131	0.668694	0.323052
	O282	O	0.575671	0.603039	0.415480
	H283	H	0.578436	0.599897	0.412945
	H284	H	0.577254	0.619549	0.414749
	O285	O	0.866350	0.125533	-0.175665
	H286	H	0.884062	0.126586	-0.182952
	H287	H	0.872728	0.109262	-0.181293
	O288	O	-0.166073	-0.168985	1.172916
	H289	H	-0.151410	-0.145431	1.168336
	H290	H	-0.168318	-0.166457	1.166702
	O291	O	0.390560	0.511066	0.388244
	H292	H	0.385549	0.529608	0.369811
	H293	H	0.390716	0.521703	0.411016
	O294	O	0.435788	0.410172	0.373492
	H295	H	0.437379	0.423375	0.371935
	H296	H	0.450820	0.409369	0.379584
	O297	O	0.837421	0.980202	1.161552
	H298	H	0.840871	0.969261	1.169806
	H299	H	0.830941	0.978772	1.156293
	O300	O	-0.174498	-0.215408	0.025990
	H301	H	-0.158871	-0.202550	0.032237
	H302	H	-0.200017	-0.247481	0.027063
	O303	O	0.431277	0.372755	0.513696
	H304	H	0.431798	0.376761	0.491630
	H305	H	0.439340	0.388846	0.516298
	O306	O	1.007512	0.062379	-0.157628
	H307	H	1.004443	0.061214	-0.146015
	H308	H	1.001072	0.082799	-0.173016
	O309	O	0.456230	0.445413	0.454933
	H310	H	0.447374	0.464948	0.449886
	H311	H	0.444085	0.456397	0.467548
	O312	O	0.895641	0.904589	-0.100740
	H313	H	0.894282	0.916195	-0.085907
	H314	H	0.908507	0.899024	-0.108570
	O315	O	0.415989	0.318624	0.642286
	H316	H	0.409937	0.308811	0.643452
	H317	H	0.411594	0.310309	0.609370
	O318	O	0.490667	0.664250	0.536625
	H319	H	0.477056	0.666961	0.543032
	H320	H	0.486431	0.655435	0.546368
	O321	O	0.786450	0.019786	0.933535
	H322	H	0.798232	0.031249	0.936254
	H323	H	0.766004	0.016941	0.935184
	O324	O	0.061529	-0.191367	0.817527
	H325	H	0.044476	-0.196692	0.824916
	H326	H	0.069506	-0.200423	0.818837
	O327	O	0.587564	0.347069	0.507553
	H328	H	0.571505	0.340204	0.501580
	H329	H	0.577758	0.337221	0.504050
	O330	O	0.481258	0.492195	0.613288
	H331	H	0.479470	0.498465	0.613377
	H332	H	0.473009	0.505377	0.607213
	O333	O	1.127553	1.107043	1.003795
	H334	H	1.131556	1.092375	0.992618
	H335	H	1.136941	1.104661	1.003570
	O336	O	0.306888	0.550776	0.471875
	H337	H	0.302329	0.541838	0.470726
	H338	H	0.315852	0.538056	0.466128
	O339	O	0.975002	0.091085	1.099106
	H340	H	0.971949	0.099935	1.108000
	H341	H	0.970870	0.090672	1.093604
	O342	O	-0.023725	0.904525	1.215430
	H343	H	-0.041021	0.903657	1.221048
	H344	H	-0.040793	0.892540	1.218831
	O345	O	0.043162	1.019650	0.872659
	H346	H	0.040461	1.034478	0.894877
	H347	H	0.048015	1.020155	0.859106
	O348	O	0.208281	0.245294	0.249318
	H349	H	0.182397	0.250779	0.250698
	H350	H	0.214482	0.245841	0.261217
	O351	O	0.171358	0.042429	-0.199036
	H352	H	0.172153	0.038883	-0.197418
	H353	H	0.175604	0.026909	-0.206806
	O354	O	1.475532	1.580351	0.602353
	H355	H	1.495191	1.566446	0.598341
	H356	H	1.463169	1.584987	0.616550
	O357	O	-0.209546	1.180840	-0.068039
	H358	H	-0.222177	1.210739	-0.063063
	H359	H	-0.205885	1.171115	-0.101168
	O360	O	0.473051	0.516348	0.455480
	H361	H	0.470612	0.500491	0.461350
	H362	H	0.486055	0.514277	0.438505
	O363	O	0.624611	0.552460	0.553371
	H364	H	0.628484	0.557401	0.552857
	H365	H	0.617693	0.538025	0.567763
	O366	O	0.562176	0.654003	0.597218
	H367	H	0.556872	0.653126	0.610516
	H368	H	0.552175	0.644874	0.605622
	O369	O	0.343592	0.323975	0.518171
	H370	H	0.339996	0.327738	0.504553
	H371	H	0.327130	0.325961	0.502434
	O372	O	0.450683	0.605000	0.446310
	H373	H	0.451260	0.599644	0.432013
	H374	H	0.443502	0.623360	0.444792
	O375	O	0.547732	0.398269	0.640998
	H376	H	0.537838	0.387195	0.649498
	H377	H	0.542326	0.383129	0.636838
	O378	O	1.057725	-0.146802	0.002908
	H379	H	1.050112	-0.146237	0.017953
	H380	H	1.057930	-0.153322	0.004849
	O381	O	0.633156	0.522602	0.487800
	H382	H	0.625728	0.527652	0.501852
	H383	H	0.630221	0.530856	0.493386
	O384	O	0.055484	0.834354	1.115644
	H385	H	0.058924	0.830099	1.103906
	H386	H	0.056199	0.841133	1.117793
	O387	O	0.971133	1.148304	0.094988
	H388	H	0.982486	1.153367	0.102506
	H389	H	0.978387	1.145155	0.090475
	O390	O	0.641589	0.528224	0.610676
	H391	H	0.641047	0.526937	0.610630
	H392	H	0.636299	0.506902	0.607576
	O393	O	0.956388	0.086437	1.062682
	H394	H	0.960245	0.066710	1.063967
	H395	H	0.945670	0.098784	1.065820
	O396	O	-0.082908	1.065236	1.075705
	H397	H	-0.094183	1.058615	1.082441
	H398	H	-0.080600	1.065675	1.072992
	O399	O	0.488335	0.520531	0.550089
	H400	H	0.488634	0.498113	0.551676
	H401	H	0.496848	0.523037	0.569525
	O402	O	0.900779	-0.037708	0.894057
	H403	H	0.886991	-0.028944	0.886400
	H404	H	0.890759	-0.044741	0.911076
	O405	O	0.092784	-0.052578	-0.032539
	H406	H	0.086272	-0.056813	-0.030545
	H407	H	0.083857	-0.026829	-0.026484
	O408	O	1.193302	1.011450	1.128899
	H409	H	1.211239	1.016254	1.145472
	H410	H	1.184924	1.029311	1.120375
	O411	O	1.201046	1.187944	0.022878
	H412	H	1.197030	1.185227	0.047129
	H413	H	1.226185	1.190589	0.028297
	O414	O	0.007028	0.101010	1.030567
	H415	H	0.001674	0.104149	1.020590
	H416	H	0.014599	0.098773	1.022589
	O417	O	0.442515	0.626458	0.397954
	H418	H	0.446038	0.638003	0.398990
	H419	H	0.453470	0.633800	0.398063
	O420	O	0.079368	1.050764	-0.147752
	H421	H	0.091904	1.033968	-0.161802
	H422	H	0.076167	1.043322	-0.143722
	O423	O	1.049451	-0.062380	0.089710
	H424	H	1.045140	-0.055093	0.087888
	H425	H	1.051701	-0.066575	0.089476
	O426	O	0.196568	-0.195675	0.925492
	H427	H	0.205171	-0.186168	0.923391
	H428	H	0.204399	-0.188855	0.939443
	O429	O	0.577699	0.338119	0.342165
	H430	H	0.586356	0.316686	0.332195
	H431	H	0.592313	0.354308	0.353960
