data_Molecule from HDF5

_cell_length_a		16.394839
_cell_length_b		16.265090
_cell_length_c		16.380314
_cell_angle_alpha	89.929075
_cell_angle_beta	90.152968
_cell_angle_gamma	89.871296
_symmetry_space_group_name_H-M	'P 1'
_symmetry_Int_Tables_number		1

loop_
	_symmetry_equiv_pos_as_xyz
	x,y,z

loop_
	_atom_site_label
	_atom_site_type_symbol
	_atom_site_fract_x
	_atom_site_fract_y
	_atom_site_fract_z
	H0	H	0.381790	0.817356	0.720503
	H1	H	0.587120	0.140496	0.717568
	H2	H	0.587350	0.816984	0.282476
	H3	H	0.381426	0.140783	0.282481
	H4	H	0.705260	0.373108	0.839134
	H5	H	0.706793	0.581372	0.159496
	H6	H	0.267363	0.581118	0.838238
	H7	H	0.266960	0.374575	0.159372
	H8	H	0.826779	0.698524	0.394255
	H9	H	0.147071	0.694845	0.602120
	H10	H	0.823973	0.262055	0.599005
	H11	H	0.148278	0.263011	0.402281
	H12	H	0.826362	0.373285	0.719694
	H13	H	0.147361	0.579251	0.717910
	H14	H	0.826853	0.582023	0.278656
	H15	H	0.146506	0.374095	0.281157
	H16	H	0.381419	0.699142	0.840050
	H17	H	0.587500	0.694419	0.162243
	H18	H	0.586716	0.260001	0.838625
	H19	H	0.384490	0.261068	0.160825
	H20	H	0.706910	0.818749	0.394179
	H21	H	0.704915	0.139727	0.603403
	H22	H	0.266372	0.816822	0.603187
	H23	H	0.266890	0.141438	0.399563
	H24	H	0.884253	0.316761	0.217200
	H25	H	0.089228	0.639420	0.218166
	H26	H	0.088961	0.315628	0.782161
	H27	H	0.881514	0.639065	0.779695
	H28	H	0.206599	0.872822	0.341323
	H29	H	0.203937	0.081761	0.660599
	H30	H	0.765965	0.080069	0.338652
	H31	H	0.764063	0.869820	0.658994
	H32	H	0.325159	0.197796	0.897893
	H33	H	0.646730	0.194811	0.101826
	H34	H	0.324817	0.759453	0.102763
	H35	H	0.647239	0.761046	0.901100
	H36	H	0.324286	0.874558	0.219520
	H37	H	0.645883	0.079964	0.219548
	H38	H	0.326286	0.085560	0.778893
	H39	H	0.645627	0.873067	0.781350
	H40	H	0.884040	0.195317	0.337837
	H41	H	0.085668	0.193794	0.661658
	H42	H	0.088357	0.760190	0.338806
	H43	H	0.882054	0.755316	0.659246
	H44	H	0.206359	0.317027	0.894919
	H45	H	0.204580	0.639791	0.102379
	H46	H	0.767269	0.317075	0.102958
	H47	H	0.765817	0.639429	0.895391
	H48	H	0.394125	0.094251	0.595963
	H49	H	0.584751	0.860513	0.591720
	H50	H	0.568530	0.089827	0.415695
	H51	H	0.393528	0.863757	0.411297
	H52	H	0.579022	0.390807	0.113193
	H53	H	0.576676	0.566528	0.886341
	H54	H	0.400205	0.564076	0.111306
	H55	H	0.401774	0.385259	0.886461
	H56	H	0.101911	0.566854	0.405278
	H57	H	0.873904	0.569004	0.581383
	H58	H	0.100845	0.387694	0.594265
	H59	H	0.873172	0.392590	0.407303
	H60	H	0.101865	0.381699	0.593079
	H61	H	0.874727	0.559027	0.590152
	H62	H	0.101348	0.571471	0.410438
	H63	H	0.868958	0.385337	0.401243
	H64	H	0.394768	0.574240	0.115620
	H65	H	0.573016	0.568139	0.886857
	H66	H	0.574736	0.386276	0.113279
	H67	H	0.389369	0.384219	0.882055
	H68	H	0.582804	0.095404	0.414404
	H69	H	0.569798	0.863228	0.598768
	H70	H	0.400895	0.090375	0.587753
	H71	H	0.394089	0.863255	0.410213
	H72	H	0.900357	0.591153	0.086034
	H73	H	0.077710	0.365188	0.083329
	H74	H	0.082375	0.594231	0.909995
	H75	H	0.902815	0.364410	0.906142
	H76	H	0.082667	0.885794	0.617112
	H77	H	0.074087	0.073616	0.384793
	H78	H	0.896081	0.069766	0.613708
	H79	H	0.907463	0.890561	0.390801
	H80	H	0.600821	0.074451	0.913572
	H81	H	0.371100	0.066472	0.095157
	H82	H	0.604797	0.878281	0.100660
	H83	H	0.372096	0.890472	0.910204
	H84	H	0.596844	0.884492	0.081619
	H85	H	0.368385	0.073939	0.094761
	H86	H	0.595792	0.060977	0.913421
	H87	H	0.372441	0.888452	0.911111
	H88	H	0.892118	0.069756	0.614097
	H89	H	0.081131	0.069340	0.383539
	H90	H	0.074209	0.895244	0.611259
	H91	H	0.892268	0.879022	0.382080
	H92	H	0.073004	0.593614	0.902582
	H93	H	0.081950	0.360246	0.093137
	H94	H	0.891778	0.593639	0.085900
	H95	H	0.893988	0.365090	0.916651
	H96	H	0.390415	0.093567	0.585645
	H97	H	0.572095	0.866566	0.582480
	H98	H	0.573101	0.096212	0.402580
	H99	H	0.394769	0.864656	0.410928
	H100	H	0.580946	0.384967	0.115465
	H101	H	0.576493	0.570868	0.885183
	H102	H	0.388283	0.564124	0.114455
	H103	H	0.394036	0.395339	0.886231
	H104	H	0.099299	0.564904	0.411115
	H105	H	0.870053	0.571181	0.594060
	H106	H	0.100190	0.385830	0.588655
	H107	H	0.870915	0.383654	0.410476
	H108	H	0.896472	0.594698	0.093364
	H109	H	0.070611	0.364270	0.092548
	H110	H	0.071707	0.590094	0.913822
	H111	H	0.889655	0.359629	0.904534
	H112	H	0.069292	0.882901	0.613998
	H113	H	0.074306	0.065499	0.386872
	H114	H	0.894412	0.066736	0.613052
	H115	H	0.887962	0.899036	0.387414
	H116	H	0.601557	0.066632	0.902636
	H117	H	0.371676	0.069978	0.088590
	H118	H	0.597497	0.898885	0.098197
	H119	H	0.372779	0.891304	0.911560
	C120	C	0.363651	-0.013562	0.621769
	C121	C	0.606691	0.970150	0.621494
	C122	C	0.605768	-0.012816	0.379611
	C123	C	0.362956	0.970730	0.379542
	C124	C	0.608505	0.355894	0.007990
	C125	C	0.606629	0.598894	0.992194
	C126	C	0.363470	0.599848	0.007995
	C127	C	0.364240	0.357011	0.990944
	C128	C	-0.004928	0.599124	0.377582
	C129	C	0.978641	0.597886	0.620196
	C130	C	-0.005117	0.354768	0.622135
	C131	C	0.977603	0.356643	0.377288
	C132	C	0.865295	0.486766	0.119761
	C133	C	0.107805	0.469743	0.120565
	C134	C	0.107104	0.486083	0.878162
	C135	C	0.864048	0.469527	0.877712
	C136	C	0.106638	0.856804	0.508395
	C137	C	0.106605	0.099672	0.491731
	C138	C	0.863610	0.099883	0.507525
	C139	C	0.863736	0.855869	0.491696
	C140	C	0.493633	0.099467	0.878545
	C141	C	0.476867	0.099954	0.122683
	C142	C	0.493529	0.856107	0.123538
	C143	C	0.477881	0.857727	0.880015
	C144	C	0.363052	0.865469	0.680757
	C145	C	0.606671	0.091946	0.678931
	C146	C	0.606411	0.865578	0.321398
	C147	C	0.362394	0.092324	0.321824
	C148	C	0.665981	0.354793	0.887089
	C149	C	0.666284	0.599716	0.112279
	C150	C	0.305864	0.600575	0.886793
	C151	C	0.306290	0.356069	0.111621
	C152	C	0.874544	0.658370	0.375952
	C153	C	0.098990	0.656156	0.621230
	C154	C	0.872890	0.299095	0.620181
	C155	C	0.099526	0.300315	0.380409
	C156	C	0.874021	0.354672	0.679924
	C157	C	0.099065	0.598553	0.678939
	C158	C	0.874634	0.600936	0.317984
	C159	C	0.098622	0.355898	0.320484
	C160	C	0.362839	0.659135	0.887697
	C161	C	0.607051	0.656176	0.113404
	C162	C	0.607126	0.298322	0.886979
	C163	C	0.364798	0.299476	0.112283
	C164	C	0.666007	0.866362	0.376994
	C165	C	0.665289	0.091512	0.622273
	C166	C	0.305530	0.865202	0.622585
	C167	C	0.305227	0.092570	0.379863
	C168	C	0.864721	0.365344	0.178467
	C169	C	0.108220	0.591024	0.178650
	C170	C	0.107874	0.364421	0.820408
	C171	C	0.862827	0.590767	0.818987
	C172	C	0.166198	0.855254	0.388533
	C173	C	0.164310	0.100010	0.612758
	C174	C	0.805677	0.099313	0.386430
	C175	C	0.803922	0.852151	0.611216
	C176	C	0.373192	0.158754	0.878231
	C177	C	0.598143	0.156966	0.121964
	C178	C	0.372883	0.798236	0.122618
	C179	C	0.598699	0.799345	0.880787
	C180	C	0.372746	0.855453	0.180866
	C181	C	0.597833	0.099441	0.180288
	C182	C	0.373813	0.102817	0.818931
	C183	C	0.597943	0.855093	0.821080
	C184	C	0.863906	0.156942	0.386167
	C185	C	0.105642	0.156212	0.613083
	C186	C	0.107342	0.799016	0.387391
	C187	C	0.862647	0.794917	0.611267
	C188	C	0.166226	0.365070	0.876940
	C189	C	0.165857	0.591133	0.121312
	C190	C	0.806727	0.365452	0.121301
	C191	C	0.805328	0.591015	0.876749
	C192	C	0.387802	0.070961	0.596904
	C193	C	0.582673	0.885707	0.597816
	C194	C	0.581694	0.071733	0.403906
	C195	C	0.387116	0.885957	0.403667
	C196	C	0.585161	0.380385	0.092172
	C197	C	0.582343	0.575330	0.908005
	C198	C	0.387463	0.574792	0.091995
	C199	C	0.388177	0.381183	0.906928
	C200	C	0.078862	0.574757	0.401940
	C201	C	0.894696	0.573413	0.595818
	C202	C	0.079119	0.378019	0.598857
	C203	C	0.893132	0.380347	0.399756
	C204	C	0.889373	0.571239	0.095464
	C205	C	0.083745	0.385161	0.096587
	C206	C	0.082705	0.570829	0.901973
	C207	C	0.888389	0.384887	0.901944
	C208	C	0.082305	0.880968	0.592326
	C209	C	0.083230	0.076294	0.407153
	C210	C	0.887354	0.075822	0.591822
	C211	C	0.888471	0.882063	0.408352
	C212	C	0.577503	0.074632	0.902947
	C213	C	0.392392	0.076918	0.099370
	C214	C	0.577692	0.880273	0.100465
	C215	C	0.394203	0.882787	0.904040
	Zn216	Zn	0.485468	-0.021841	0.750383
	Zn217	Zn	0.484541	-0.021336	0.251342
	Zn218	Zn	0.736566	0.477864	-0.001054
	Zn219	Zn	0.235590	0.478114	-0.001039
	Zn220	Zn	-0.013406	0.727233	0.499400
	Zn221	Zn	-0.014234	0.228102	0.499438
	Zn222	Zn	-0.014001	0.477861	0.749601
	Zn223	Zn	-0.013557	0.478248	0.248383
	Zn224	Zn	0.485519	0.728353	0.000680
	Zn225	Zn	0.485776	0.228202	0.000009
	Zn226	Zn	0.734754	-0.021756	0.500131
	Zn227	Zn	0.234420	-0.021636	0.500386
	N228	N	0.398339	0.942053	0.680321
	N229	N	0.571161	0.015439	0.678820
	N230	N	0.569285	0.941554	0.323129
	N231	N	0.397288	0.015471	0.321259
	N232	N	0.666959	0.389789	0.963429
	N233	N	0.666148	0.564807	0.035857
	N234	N	0.305937	0.564787	0.962794
	N235	N	0.305662	0.391003	0.035177
	N236	N	0.950245	0.657433	0.412159
	N237	N	0.023189	0.655816	0.585518
	N238	N	0.948948	0.299058	0.585074
	N239	N	0.023400	0.300633	0.415103
	N240	N	0.950765	0.388716	0.681280
	N241	N	0.022819	0.563248	0.678638
	N242	N	0.950421	0.564648	0.318918
	N243	N	0.021744	0.389950	0.318143
	N244	N	0.397970	0.658815	0.964113
	N245	N	0.570687	0.655821	0.037709
	N246	N	0.571992	0.298875	0.963142
	N247	N	0.400157	0.299766	0.036319
	N248	N	0.665407	0.942662	0.412783
	N249	N	0.665410	0.014749	0.587229
	N250	N	0.305652	0.941581	0.586828
	N251	N	0.305363	0.015576	0.414897
	N252	N	0.900439	0.441751	0.177672
	N253	N	0.072760	0.514599	0.178233
	N254	N	0.071522	0.440817	0.821057
	N255	N	0.898450	0.513998	0.819204
	N256	N	0.165761	0.890559	0.464684
	N257	N	0.164884	0.065449	0.536374
	N258	N	0.805316	0.064594	0.463047
	N259	N	0.804568	0.889280	0.535804
	N260	N	0.448750	0.157040	0.914493
	N261	N	0.521871	0.157293	0.086751
	N262	N	0.449024	0.798369	0.087845
	N263	N	0.522923	0.800799	0.916714
	N264	N	0.448930	0.890541	0.181799
	N265	N	0.521367	0.065113	0.180929
	N266	N	0.449668	0.066685	0.819021
	N267	N	0.521816	0.890626	0.820431
	N268	N	0.899154	0.157438	0.462390
	N269	N	0.070242	0.155903	0.536891
	N270	N	0.071015	0.799730	0.462998
	N271	N	0.899064	0.796969	0.535752
	N272	N	0.165648	0.441599	0.912292
	N273	N	0.165766	0.514568	0.085769
	N274	N	0.806992	0.441908	0.085476
	N275	N	0.805941	0.514452	0.912197
	O276	O	0.552005	0.554059	0.476086
	H277	H	0.550777	0.559978	0.473004
	H278	H	0.548735	0.540976	0.468048
	O279	O	0.651364	0.641541	0.660324
	H280	H	0.664650	0.638766	0.628226
	H281	H	0.649871	0.613136	0.673523
	O282	O	0.956975	0.008166	0.967325
	H283	H	0.962765	0.008217	0.959204
	H284	H	0.966468	-0.000718	0.967737
	O285	O	0.561990	0.482648	0.397659
	H286	H	0.563499	0.481060	0.377449
	H287	H	0.536384	0.490193	0.384469
	O288	O	1.001934	1.168321	1.123109
	H289	H	1.000374	1.176457	1.117020
	H290	H	1.003893	1.161310	1.115523
	O291	O	0.005337	0.973247	-0.028905
	H292	H	-0.002310	0.970447	-0.036622
	H293	H	0.017266	0.959049	-0.044467
	O294	O	0.495776	0.492782	0.379332
	H295	H	0.490771	0.512349	0.364295
	H296	H	0.492679	0.507170	0.377321
	O297	O	0.451529	0.391770	0.526550
	H298	H	0.456147	0.389488	0.526485
	H299	H	0.449039	0.401117	0.530482
	O300	O	0.532615	0.331286	0.423094
	H301	H	0.532241	0.329450	0.422103
	H302	H	0.533288	0.332279	0.421231
	O303	O	0.101688	0.967504	0.858138
	H304	H	0.106898	0.957872	0.852766
	H305	H	0.099672	0.957932	0.861426
	O306	O	0.670312	0.489348	0.699554
	H307	H	0.665493	0.468180	0.673692
	H308	H	0.691884	0.483159	0.728637
	O309	O	1.156031	1.126052	-0.046728
	H310	H	1.173731	1.134086	-0.041187
	H311	H	1.158944	1.111495	-0.055396
	O312	O	-0.071294	0.019454	-0.005501
	H313	H	-0.053356	0.016255	-0.002950
	H314	H	-0.065860	0.021293	-0.019048
	O315	O	0.342594	0.490497	0.450108
	H316	H	0.338084	0.490311	0.459534
	H317	H	0.347374	0.490525	0.453750
	O318	O	-0.080308	0.831659	1.155022
	H319	H	-0.081553	0.852258	1.163941
	H320	H	-0.088418	0.818657	1.138604
	O321	O	0.886428	-0.092283	0.035743
	H322	H	0.882695	-0.091623	0.028225
	H323	H	0.874941	-0.098357	0.030346
	O324	O	0.178977	0.996308	0.189316
	H325	H	0.179003	1.017310	0.186049
	H326	H	0.184729	0.993126	0.202609
	O327	O	0.478006	0.662833	0.673636
	H328	H	0.490047	0.670295	0.683446
	H329	H	0.507095	0.658863	0.676054
	O330	O	-1.104991	1.015247	1.883181
	H331	H	-1.105578	1.023968	1.895070
	H332	H	-1.078510	1.003240	1.888000
	O333	O	-0.588257	-0.479793	1.408452
	H334	H	-0.586784	-0.500056	1.410225
	H335	H	-0.589677	-0.479753	1.394470
	O336	O	0.320175	0.550505	0.464024
	H337	H	0.306906	0.553445	0.452370
	H338	H	0.319363	0.550438	0.466929
	O339	O	1.160337	0.156324	0.127256
	H340	H	1.172799	0.177485	0.127630
	H341	H	1.134358	0.153729	0.133485
	O342	O	-0.041922	-0.036126	0.019783
	H343	H	-0.037966	-0.043138	0.015849
	H344	H	-0.031813	-0.043399	0.005739
	O345	O	1.445088	0.522343	0.568480
	H346	H	1.451394	0.518592	0.580532
	H347	H	1.462884	0.528876	0.563357
	O348	O	1.670854	1.600149	0.533248
	H349	H	1.670319	1.594854	0.514201
	H350	H	1.688155	1.611946	0.526981
	O351	O	0.438451	0.607571	0.496975
	H352	H	0.434744	0.608237	0.511601
	H353	H	0.443626	0.617127	0.496392
	O354	O	0.887886	-0.041399	0.889901
	H355	H	0.886547	-0.018664	0.881046
	H356	H	0.875551	-0.028801	0.888983
	O357	O	0.861947	-0.093959	0.857783
	H358	H	0.865382	-0.084605	0.856524
	H359	H	0.854960	-0.081415	0.841687
	O360	O	0.454726	0.432031	0.523940
	H361	H	0.465471	0.440057	0.531945
	H362	H	0.456665	0.433869	0.536743
	O363	O	0.086715	0.974363	1.078722
	H364	H	0.086971	0.962197	1.096915
	H365	H	0.078792	0.962417	1.069987
	O366	O	1.093345	0.952254	-0.038059
	H367	H	1.099520	0.955563	-0.020517
	H368	H	1.093318	0.947954	-0.036613
	O369	O	-0.140634	1.004421	-0.144919
	H370	H	-0.156097	0.995164	-0.161931
	H371	H	-0.137700	1.031299	-0.142282
	O372	O	0.935703	-0.205506	-0.093084
	H373	H	0.918879	-0.214248	-0.111194
	H374	H	0.929382	-0.192515	-0.097825
	O375	O	0.425854	0.421810	0.543665
	H376	H	0.426189	0.418689	0.546636
	H377	H	0.425483	0.428978	0.535490
	O378	O	1.577109	1.301472	0.503424
	H379	H	1.581353	1.300547	0.487908
	H380	H	1.569826	1.298963	0.501827
	O381	O	0.933659	0.113126	0.170298
	H382	H	0.929481	0.124036	0.156271
	H383	H	0.941508	0.100031	0.162890
	O384	O	0.477877	1.492334	-0.575145
	H385	H	0.464606	1.503751	-0.575269
	H386	H	0.481211	1.500518	-0.566064
	O387	O	-0.019866	-0.055729	0.103517
	H388	H	-0.027985	-0.052635	0.091722
	H389	H	-0.005563	-0.065842	0.100278
	O390	O	0.088621	0.818001	0.073238
	H391	H	0.074562	0.834001	0.061088
	H392	H	0.111019	0.797413	0.079786
	O393	O	1.053706	1.012076	0.819572
	H394	H	1.052272	1.021522	0.829555
	H395	H	1.065251	1.004168	0.820700
	O396	O	0.564663	0.291260	0.361889
	H397	H	0.573314	0.294009	0.353652
	H398	H	0.574531	0.284694	0.354262
	O399	O	0.099026	0.826324	0.912677
	H400	H	0.093380	0.829584	0.904615
	H401	H	0.090895	0.821848	0.938748
	O402	O	0.450353	0.427567	0.493096
	H403	H	0.453220	0.424564	0.491706
	H404	H	0.454374	0.420246	0.489612
	O405	O	0.818523	1.033103	0.016226
	H406	H	0.824369	1.049672	0.024429
	H407	H	0.831858	1.028817	0.009277
	O408	O	1.426787	0.664466	0.385579
	H409	H	1.427972	0.682813	0.378118
	H410	H	1.435561	0.663967	0.401325
	O411	O	0.985694	0.089362	0.889421
	H412	H	1.006932	0.088197	0.900718
	H413	H	0.982053	0.094901	0.893294
	O414	O	0.526895	0.552775	0.412071
	H415	H	0.538160	0.556503	0.412444
	H416	H	0.513311	0.559227	0.424053
	O417	O	0.573807	0.393697	0.538347
	H418	H	0.563455	0.398910	0.526767
	H419	H	0.566828	0.385480	0.531577
