data_Molecule from HDF5

_cell_length_a		16.249981
_cell_length_b		16.314102
_cell_length_c		16.288443
_cell_angle_alpha	90.397614
_cell_angle_beta	89.962482
_cell_angle_gamma	89.820774
_symmetry_space_group_name_H-M	'P 1'
_symmetry_Int_Tables_number		1

loop_
	_symmetry_equiv_pos_as_xyz
	x,y,z

loop_
	_atom_site_label
	_atom_site_type_symbol
	_atom_site_fract_x
	_atom_site_fract_y
	_atom_site_fract_z
	H0	H	0.411950	0.853410	0.707256
	H1	H	0.611709	0.178332	0.712082
	H2	H	0.613414	0.854061	0.276844
	H3	H	0.411869	0.179353	0.278146
	H4	H	0.726470	0.414905	0.829837
	H5	H	0.728318	0.616251	0.155494
	H6	H	0.297940	0.614333	0.829052
	H7	H	0.295044	0.417543	0.155597
	H8	H	0.849414	0.733181	0.393004
	H9	H	0.176188	0.732441	0.592139
	H10	H	0.849197	0.303866	0.589906
	H11	H	0.175634	0.299260	0.388798
	H12	H	0.848520	0.419622	0.704571
	H13	H	0.176175	0.617019	0.707465
	H14	H	0.848611	0.615921	0.278527
	H15	H	0.176414	0.417252	0.275070
	H16	H	0.411025	0.731988	0.830634
	H17	H	0.613054	0.733797	0.155977
	H18	H	0.614143	0.296566	0.831565
	H19	H	0.412530	0.302164	0.156816
	H20	H	0.729687	0.854409	0.392283
	H21	H	0.726539	0.180322	0.594729
	H22	H	0.296560	0.854578	0.592034
	H23	H	0.297041	0.180607	0.394900
	H24	H	0.910617	0.355039	0.209805
	H25	H	0.114538	0.679243	0.211308
	H26	H	0.112705	0.354605	0.773417
	H27	H	0.911326	0.679487	0.778281
	H28	H	0.229560	0.916415	0.329720
	H29	H	0.226282	0.118042	0.656778
	H30	H	0.794902	0.116757	0.330462
	H31	H	0.797762	0.918383	0.656759
	H32	H	0.349716	0.232598	0.894626
	H33	H	0.674513	0.234659	0.098286
	H34	H	0.349171	0.802431	0.093224
	H35	H	0.674242	0.796530	0.890847
	H36	H	0.349654	0.917750	0.208415
	H37	H	0.674963	0.118534	0.211540
	H38	H	0.348022	0.114331	0.780406
	H39	H	0.674099	0.912094	0.775388
	H40	H	0.911879	0.231794	0.329146
	H41	H	0.112911	0.236176	0.654627
	H42	H	0.114428	0.798968	0.330265
	H43	H	0.912091	0.801715	0.655533
	H44	H	0.229380	0.353998	0.889244
	H45	H	0.227128	0.680401	0.092346
	H46	H	0.797255	0.353444	0.091741
	H47	H	0.793987	0.678025	0.892550
	H48	H	0.422785	0.132542	0.588108
	H49	H	0.604180	0.900258	0.587238
	H50	H	0.597179	0.132284	0.397296
	H51	H	0.422113	0.903561	0.406229
	H52	H	0.606825	0.418211	0.112445
	H53	H	0.597553	0.603045	0.881532
	H54	H	0.415084	0.605638	0.109238
	H55	H	0.415422	0.424974	0.877309
	H56	H	0.128748	0.610767	0.402791
	H57	H	0.891440	0.621386	0.588804
	H58	H	0.128029	0.425794	0.579612
	H59	H	0.898034	0.423339	0.405729
	H60	H	0.128696	0.429457	0.582698
	H61	H	0.899956	0.609871	0.573656
	H62	H	0.127686	0.605469	0.401615
	H63	H	0.898158	0.431012	0.397411
	H64	H	0.425684	0.608131	0.107113
	H65	H	0.601024	0.614767	0.875998
	H66	H	0.610461	0.430452	0.109388
	H67	H	0.426365	0.426523	0.880259
	H68	H	0.601933	0.129164	0.410783
	H69	H	0.604740	0.902325	0.582818
	H70	H	0.417224	0.131974	0.586014
	H71	H	0.415276	0.899357	0.399899
	H72	H	0.918647	0.629991	0.076300
	H73	H	0.101695	0.399537	0.092628
	H74	H	0.104922	0.632263	0.900899
	H75	H	0.927188	0.400527	0.890674
	H76	H	0.101105	0.930819	0.605768
	H77	H	0.102913	0.118493	0.374582
	H78	H	0.932499	0.108686	0.604244
	H79	H	0.926695	0.927709	0.379895
	H80	H	0.628812	0.108854	0.903620
	H81	H	0.400753	0.106473	0.075185
	H82	H	0.626194	0.928694	0.080375
	H83	H	0.394313	0.927257	0.894425
	H84	H	0.630554	0.926062	0.090922
	H85	H	0.396737	0.101038	0.093607
	H86	H	0.626265	0.104033	0.905658
	H87	H	0.393634	0.916389	0.901919
	H88	H	0.917817	0.125363	0.613098
	H89	H	0.114691	0.105068	0.374675
	H90	H	0.102102	0.919893	0.609271
	H91	H	0.921565	0.920262	0.376497
	H92	H	0.108162	0.633883	0.899735
	H93	H	0.095746	0.406247	0.075943
	H94	H	0.914408	0.634239	0.089237
	H95	H	0.925052	0.404180	0.905609
	H96	H	0.417591	0.134092	0.590534
	H97	H	0.608042	0.899829	0.584912
	H98	H	0.611612	0.135464	0.401218
	H99	H	0.424897	0.900443	0.396420
	H100	H	0.598061	0.426114	0.106968
	H101	H	0.609912	0.603944	0.876393
	H102	H	0.419008	0.616237	0.110882
	H103	H	0.423195	0.417087	0.875943
	H104	H	0.130015	0.608412	0.397807
	H105	H	0.897027	0.601629	0.592670
	H106	H	0.129803	0.424448	0.584148
	H107	H	0.894289	0.421167	0.395769
	H108	H	0.927895	0.630711	0.087029
	H109	H	0.113263	0.400352	0.078084
	H110	H	0.104358	0.633574	0.897407
	H111	H	0.913163	0.397159	0.897356
	H112	H	0.110713	0.927167	0.610244
	H113	H	0.098776	0.101711	0.381106
	H114	H	0.910648	0.103946	0.608826
	H115	H	0.916974	0.928918	0.377983
	H116	H	0.628163	0.104759	0.900270
	H117	H	0.392404	0.118911	0.087877
	H118	H	0.629886	0.917810	0.082740
	H119	H	0.399813	0.927243	0.906889
	C120	C	0.390434	0.025091	0.615845
	C121	C	0.634504	1.008195	0.615537
	C122	C	0.633970	0.025164	0.372593
	C123	C	0.391180	1.008812	0.371871
	C124	C	0.634344	0.394147	0.002158
	C125	C	0.633236	0.637627	0.984900
	C126	C	0.390812	0.638258	0.001216
	C127	C	0.391414	0.394472	0.985211
	C128	C	0.021034	0.638260	0.371316
	C129	C	1.004182	0.640044	0.614528
	C130	C	0.020814	0.397473	0.611546
	C131	C	1.004268	0.394859	0.368997
	C132	C	0.890861	0.524824	0.113956
	C133	C	0.133601	0.509282	0.112740
	C134	C	0.135091	0.525557	0.868976
	C135	C	0.890842	0.507841	0.869714
	C136	C	0.134716	0.895706	0.501101
	C137	C	0.134756	0.139184	0.484258
	C138	C	0.890461	0.140116	0.501102
	C139	C	0.892159	0.896386	0.485410
	C140	C	0.520438	0.136062	0.873469
	C141	C	0.504083	0.138549	0.116018
	C142	C	0.521129	0.895383	0.114420
	C143	C	0.503394	0.893324	0.871021
	C144	C	0.392237	0.902350	0.669709
	C145	C	0.632163	0.130090	0.672990
	C146	C	0.633184	0.902891	0.315228
	C147	C	0.392073	0.130874	0.316229
	C148	C	0.689050	0.394964	0.878851
	C149	C	0.690457	0.636648	0.107012
	C150	C	0.335183	0.635542	0.878236
	C151	C	0.334018	0.397260	0.107269
	C152	C	0.898145	0.694675	0.373230
	C153	C	0.127182	0.695076	0.612787
	C154	C	0.897840	0.342028	0.609832
	C155	C	0.126971	0.337850	0.369311
	C156	C	0.897824	0.399412	0.667272
	C157	C	0.127232	0.637544	0.669827
	C158	C	0.897759	0.636255	0.316306
	C159	C	0.127224	0.396343	0.312552
	C160	C	0.391706	0.693831	0.878925
	C161	C	0.632721	0.694892	0.107271
	C162	C	0.633283	0.335975	0.879874
	C163	C	0.392548	0.340054	0.108076
	C164	C	0.691018	0.902846	0.372812
	C165	C	0.689162	0.131108	0.614438
	C166	C	0.334489	0.903141	0.612776
	C167	C	0.335176	0.131542	0.374559
	C168	C	0.891611	0.403276	0.171114
	C169	C	0.133113	0.631178	0.171238
	C170	C	0.133136	0.403234	0.811724
	C171	C	0.891359	0.630508	0.815538
	C172	C	0.191372	0.896147	0.378460
	C173	C	0.189049	0.138184	0.607613
	C174	C	0.833539	0.137387	0.378954
	C175	C	0.835754	0.898282	0.607812
	C176	C	0.398125	0.193591	0.874755
	C177	C	0.626065	0.195798	0.116722
	C178	C	0.397973	0.840370	0.112772
	C179	C	0.625767	0.835895	0.871753
	C180	C	0.398492	0.897345	0.170506
	C181	C	0.626260	0.138002	0.173373
	C182	C	0.397282	0.135000	0.817746
	C183	C	0.625479	0.892785	0.813878
	C184	C	0.892093	0.194181	0.378076
	C185	C	0.132641	0.196852	0.606481
	C186	C	0.133856	0.838199	0.378737
	C187	C	0.892933	0.840252	0.607393
	C188	C	0.191142	0.402932	0.869423
	C189	C	0.189414	0.631712	0.112115
	C190	C	0.835258	0.402377	0.112186
	C191	C	0.832958	0.629695	0.872251
	C192	C	0.412935	0.110745	0.594563
	C193	C	0.612279	0.922848	0.591876
	C194	C	0.610475	0.110249	0.396183
	C195	C	0.414022	0.923198	0.394327
	C196	C	0.611611	0.417781	0.087417
	C197	C	0.609737	0.614013	0.899875
	C198	C	0.413291	0.616167	0.086851
	C199	C	0.415116	0.416242	0.899988
	C200	C	0.106634	0.615050	0.393963
	C201	C	0.918483	0.617586	0.591764
	C202	C	0.106540	0.419834	0.588679
	C203	C	0.919004	0.418178	0.392595
	C204	C	0.913697	0.609874	0.090939
	C205	C	0.110392	0.424076	0.089132
	C206	C	0.112380	0.610890	0.892411
	C207	C	0.914562	0.422723	0.891469
	C208	C	0.111491	0.919293	0.586029
	C209	C	0.112085	0.115381	0.398879
	C210	C	0.913535	0.118787	0.586751
	C211	C	0.915259	0.919051	0.400193
	C212	C	0.605657	0.112552	0.896506
	C213	C	0.418551	0.115450	0.092485
	C214	C	0.606573	0.917684	0.091421
	C215	C	0.418022	0.916923	0.894206
	Zn216	Zn	0.511874	0.015326	0.743812
	Zn217	Zn	0.512515	0.016941	0.243143
	Zn218	Zn	0.762524	0.515259	-0.008016
	Zn219	Zn	0.262685	0.516636	-0.007910
	Zn220	Zn	0.012650	0.766917	0.492885
	Zn221	Zn	0.012733	0.267493	0.491909
	Zn222	Zn	0.012235	0.517607	0.741259
	Zn223	Zn	0.012855	0.517457	0.241678
	Zn224	Zn	0.511651	0.766869	-0.006275
	Zn225	Zn	0.513132	0.265754	-0.005061
	Zn226	Zn	0.762970	0.017336	0.493331
	Zn227	Zn	0.262816	0.017837	0.493641
	N228	N	0.426258	0.979404	0.671730
	N229	N	0.598981	0.052645	0.673963
	N230	N	0.598210	0.979820	0.315008
	N231	N	0.426313	0.053640	0.314668
	N232	N	0.689937	0.430247	0.955750
	N233	N	0.690950	0.601833	0.029776
	N234	N	0.334743	0.601483	0.955135
	N235	N	0.333128	0.430298	0.029882
	N236	N	0.975899	0.696005	0.406679
	N237	N	0.049741	0.696503	0.578998
	N238	N	0.975327	0.340853	0.575835
	N239	N	0.049624	0.336678	0.403553
	N240	N	0.975253	0.433166	0.668398
	N241	N	0.049434	0.604478	0.671521
	N242	N	0.975029	0.601863	0.315121
	N243	N	0.050024	0.431197	0.312303
	N244	N	0.425450	0.695722	0.956491
	N245	N	0.597956	0.695632	0.030445
	N246	N	0.600047	0.335197	0.957545
	N247	N	0.427209	0.338038	0.031130
	N248	N	0.691595	0.979857	0.407579
	N249	N	0.690935	0.053966	0.579666
	N250	N	0.333221	0.980414	0.579939
	N251	N	0.334477	0.054402	0.408400
	N252	N	0.925527	0.480543	0.172391
	N253	N	0.099166	0.554076	0.171597
	N254	N	0.099076	0.480586	0.811246
	N255	N	0.926782	0.553915	0.813898
	N256	N	0.192263	0.931336	0.455459
	N257	N	0.190493	0.103076	0.530596
	N258	N	0.832504	0.104332	0.456438
	N259	N	0.835345	0.932579	0.530925
	N260	N	0.475706	0.194701	0.908493
	N261	N	0.549078	0.196138	0.081748
	N262	N	0.475354	0.839033	0.078586
	N263	N	0.548703	0.835892	0.906475
	N264	N	0.475945	0.930902	0.171724
	N265	N	0.549346	0.103078	0.172970
	N266	N	0.474231	0.099821	0.816996
	N267	N	0.548497	0.927999	0.813500
	N268	N	0.926741	0.195987	0.455032
	N269	N	0.099628	0.197584	0.528840
	N270	N	0.099487	0.837583	0.455895
	N271	N	0.927377	0.839095	0.530222
	N272	N	0.192449	0.479918	0.904327
	N273	N	0.189703	0.554910	0.076596
	N274	N	0.834690	0.478745	0.077348
	N275	N	0.832398	0.552343	0.905188
	O276	O	0.030728	-0.146022	0.984485
	H277	H	0.037347	-0.142379	0.977128
	H278	H	0.026841	-0.149354	0.987700
	O279	O	1.060894	0.014089	1.049338
	H280	H	1.050933	0.021951	1.050613
	H281	H	1.048275	0.000305	1.061658
	O282	O	1.080826	0.960874	0.050634
	H283	H	1.084661	0.964263	0.050144
	H284	H	1.075338	0.963728	0.051579
	O285	O	0.940197	-0.130863	1.063889
	H286	H	0.946376	-0.132752	1.071979
	H287	H	0.936518	-0.135083	1.052452
	O288	O	0.534652	0.462231	0.477672
	H289	H	0.538637	0.464415	0.475899
	H290	H	0.530986	0.461297	0.480969
	O291	O	0.570338	0.555351	0.524202
	H292	H	0.563503	0.560670	0.533664
	H293	H	0.586228	0.553636	0.517809
	O294	O	0.497693	0.567352	0.529397
	H295	H	0.498334	0.568538	0.519749
	H296	H	0.500809	0.568826	0.529369
	O297	O	-0.009690	0.172438	1.027838
	H298	H	-0.000651	0.172591	1.022400
	H299	H	-0.022831	0.163819	1.022492
	O300	O	0.071013	0.071534	-0.015333
	H301	H	0.077383	0.075436	-0.011047
	H302	H	0.058417	0.083944	-0.009818
	O303	O	0.494657	0.544359	0.472223
	H304	H	0.499554	0.541599	0.471561
	H305	H	0.493645	0.548823	0.482803
	O306	O	-0.042191	1.007506	0.981933
	H307	H	-0.035725	0.998274	0.984688
	H308	H	-0.044833	1.002134	0.981242
	O309	O	0.469220	0.579018	0.506067
	H310	H	0.466250	0.585673	0.513954
	H311	H	0.471090	0.579105	0.504170
	O312	O	-0.563852	0.473064	0.588919
	H313	H	-0.573174	0.467414	0.572017
	H314	H	-0.561262	0.468523	0.591378
	O315	O	0.570614	-0.476327	-0.552437
	H316	H	0.572248	-0.485208	-0.550869
	H317	H	0.572755	-0.484423	-0.558953
	O318	O	0.896767	1.024235	0.887876
	H319	H	0.901799	1.019861	0.894393
	H320	H	0.891268	1.023768	0.878333
	O321	O	0.028448	-0.143092	0.950252
	H322	H	0.027691	-0.146504	0.947890
	H323	H	0.036085	-0.153527	0.946611
	O324	O	0.506355	0.513095	0.431775
	H325	H	0.506607	0.509995	0.421994
	H326	H	0.503888	0.505376	0.440092
	O327	O	0.102351	0.008106	-0.040633
	H328	H	0.104663	0.010411	-0.046579
	H329	H	0.096576	0.007487	-0.042649
	O330	O	0.889820	0.980997	0.001283
	H331	H	0.888665	0.983155	0.013623
	H332	H	0.880040	0.983107	0.004435
	O333	O	-0.036752	1.043771	1.010756
	H334	H	-0.037096	1.045871	1.019869
	H335	H	-0.030652	1.039500	1.004937
	O336	O	0.032964	0.031525	-0.084695
	H337	H	0.035735	0.037532	-0.071117
	H338	H	0.032111	0.020541	-0.080761
	O339	O	0.493676	0.509236	0.511456
	H340	H	0.510089	0.500431	0.512224
	H341	H	0.474415	0.508544	0.514976
	O342	O	0.848255	1.080765	1.050762
	H343	H	0.831523	1.085438	1.055788
	H344	H	0.856064	1.071489	1.034659
	O345	O	1.065688	1.050561	0.112625
	H346	H	1.072927	1.044133	0.125907
	H347	H	1.081479	1.050223	0.112042
	O348	O	0.488714	0.477707	0.487043
	H349	H	0.486233	0.477510	0.484905
	H350	H	0.489157	0.477429	0.483426
	O351	O	1.150332	-0.010115	0.128734
	H352	H	1.153085	-0.015638	0.122117
	H353	H	1.159013	-0.004005	0.126537
	O354	O	0.519236	0.479085	0.579618
	H355	H	0.515757	0.483579	0.582914
	H356	H	0.514543	0.482653	0.584873
	O357	O	0.510246	0.492420	1.504858
	H358	H	0.517792	0.486653	1.491616
	H359	H	0.502293	0.491137	1.508597
	O360	O	0.106603	-0.014773	-0.050843
	H361	H	0.107571	-0.014877	-0.042414
	H362	H	0.111160	-0.012828	-0.054566
	O363	O	0.508186	0.517919	0.546021
	H364	H	0.504625	0.513285	0.546187
	H365	H	0.517587	0.531203	0.549252
	O366	O	0.929191	1.148669	0.846063
	H367	H	0.941378	1.151267	0.852058
	H368	H	0.932095	1.138421	0.849667
	O369	O	0.843577	0.106804	0.870302
	H370	H	0.841816	0.096913	0.867427
	H371	H	0.852792	0.120266	0.863112
	O372	O	0.125782	0.112618	0.060743
	H373	H	0.116100	0.109006	0.064899
	H374	H	0.116494	0.124360	0.057490
	O375	O	0.444439	-0.584948	0.512019
	H376	H	0.448945	-0.580642	0.513573
	H377	H	0.440729	-0.578360	0.518423
	O378	O	1.026300	0.077714	1.006925
	H379	H	1.022741	0.081234	1.013533
	H380	H	1.012152	0.089438	0.988979
	O381	O	0.522481	0.519671	0.488652
	H382	H	0.526785	0.521021	0.487272
	H383	H	0.520585	0.514613	0.489201
