data_Molecule from HDF5

_cell_length_a		16.183798
_cell_length_b		16.316167
_cell_length_c		16.395255
_cell_angle_alpha	90.079564
_cell_angle_beta	89.986616
_cell_angle_gamma	90.075792
_symmetry_space_group_name_H-M	'P 1'
_symmetry_Int_Tables_number		1

loop_
	_symmetry_equiv_pos_as_xyz
	x,y,z

loop_
	_atom_site_label
	_atom_site_type_symbol
	_atom_site_fract_x
	_atom_site_fract_y
	_atom_site_fract_z
	H0	H	0.398261	0.849113	0.720926
	H1	H	0.598123	0.175459	0.722421
	H2	H	0.598920	0.849633	0.289135
	H3	H	0.397917	0.175886	0.289840
	H4	H	0.711147	0.415044	0.841836
	H5	H	0.711442	0.610245	0.168451
	H6	H	0.285356	0.608115	0.841511
	H7	H	0.283023	0.415553	0.168547
	H8	H	0.833033	0.725105	0.409178
	H9	H	0.162626	0.725831	0.604034
	H10	H	0.833626	0.298386	0.604076
	H11	H	0.163328	0.299448	0.407986
	H12	H	0.832863	0.413516	0.719909
	H13	H	0.161572	0.611579	0.720872
	H14	H	0.833835	0.612149	0.291108
	H15	H	0.161999	0.412429	0.289003
	H16	H	0.397167	0.729672	0.843993
	H17	H	0.596620	0.728446	0.167996
	H18	H	0.597027	0.295956	0.843370
	H19	H	0.398929	0.297933	0.168491
	H20	H	0.710206	0.847747	0.410162
	H21	H	0.711190	0.176724	0.602558
	H22	H	0.284788	0.848495	0.601642
	H23	H	0.284809	0.177471	0.409346
	H24	H	0.897868	0.349921	0.221816
	H25	H	0.097790	0.676630	0.220812
	H26	H	0.097310	0.350400	0.789356
	H27	H	0.897291	0.675630	0.790604
	H28	H	0.212841	0.914626	0.342663
	H29	H	0.212070	0.110587	0.668868
	H30	H	0.783666	0.108760	0.342313
	H31	H	0.783905	0.914818	0.668770
	H32	H	0.332047	0.223264	0.909494
	H33	H	0.662876	0.226726	0.103585
	H34	H	0.333141	0.798574	0.104158
	H35	H	0.662216	0.799519	0.908338
	H36	H	0.333617	0.913410	0.221014
	H37	H	0.661571	0.112952	0.221556
	H38	H	0.334126	0.111172	0.791094
	H39	H	0.661867	0.912636	0.791532
	H40	H	0.898028	0.228105	0.342646
	H41	H	0.098216	0.229411	0.668276
	H42	H	0.097002	0.796697	0.343362
	H43	H	0.899841	0.798048	0.668678
	H44	H	0.209653	0.349020	0.908506
	H45	H	0.211465	0.676878	0.102214
	H46	H	0.782872	0.349002	0.103595
	H47	H	0.784805	0.676773	0.909490
	H48	H	0.398111	0.129145	0.595674
	H49	H	0.588963	0.896960	0.600212
	H50	H	0.589698	0.129821	0.409024
	H51	H	0.407228	0.899164	0.415394
	H52	H	0.593402	0.424636	0.120117
	H53	H	0.593541	0.606103	0.888929
	H54	H	0.400881	0.612921	0.123805
	H55	H	0.409228	0.417974	0.892130
	H56	H	0.115335	0.606077	0.413963
	H57	H	0.879949	0.604996	0.600695
	H58	H	0.117282	0.417227	0.603094
	H59	H	0.880305	0.417173	0.410695
	H60	H	0.113142	0.418589	0.592680
	H61	H	0.880530	0.606653	0.598020
	H62	H	0.114290	0.602700	0.412753
	H63	H	0.882853	0.420059	0.416745
	H64	H	0.400591	0.599940	0.120481
	H65	H	0.587988	0.605134	0.890975
	H66	H	0.584550	0.419976	0.118166
	H67	H	0.402624	0.412249	0.887701
	H68	H	0.586041	0.125840	0.414726
	H69	H	0.591064	0.895827	0.598904
	H70	H	0.405443	0.131438	0.609146
	H71	H	0.401927	0.895598	0.412272
	H72	H	0.910701	0.629139	0.106236
	H73	H	0.105814	0.395153	0.089992
	H74	H	0.091679	0.630775	0.907822
	H75	H	0.913601	0.397794	0.906651
	H76	H	0.090384	0.915034	0.622344
	H77	H	0.092172	0.112919	0.388454
	H78	H	0.908738	0.094763	0.616557
	H79	H	0.901377	0.917500	0.388740
	H80	H	0.618266	0.109247	0.904416
	H81	H	0.378793	0.114438	0.097966
	H82	H	0.617101	0.910222	0.097650
	H83	H	0.376157	0.912717	0.906699
	H84	H	0.609764	0.926330	0.089096
	H85	H	0.384990	0.100249	0.091336
	H86	H	0.613861	0.110109	0.921804
	H87	H	0.382882	0.917198	0.922514
	H88	H	0.914397	0.116007	0.620507
	H89	H	0.095438	0.101528	0.390338
	H90	H	0.094643	0.920455	0.621629
	H91	H	0.906665	0.921578	0.391742
	H92	H	0.086304	0.628037	0.912284
	H93	H	0.087112	0.392211	0.116121
	H94	H	0.906754	0.625286	0.091668
	H95	H	0.904343	0.399494	0.921500
	H96	H	0.412942	0.126103	0.596999
	H97	H	0.590744	0.895410	0.601425
	H98	H	0.593707	0.128758	0.415443
	H99	H	0.408309	0.897130	0.408518
	H100	H	0.591998	0.414931	0.122640
	H101	H	0.589084	0.610230	0.889546
	H102	H	0.411732	0.607302	0.118805
	H103	H	0.400312	0.421490	0.890202
	H104	H	0.115682	0.605124	0.410371
	H105	H	0.881156	0.604046	0.597793
	H106	H	0.112961	0.427133	0.600148
	H107	H	0.882250	0.424333	0.410899
	H108	H	0.896151	0.631789	0.101182
	H109	H	0.074751	0.404922	0.089131
	H110	H	0.093520	0.629245	0.915033
	H111	H	0.896379	0.393271	0.907433
	H112	H	0.087719	0.920622	0.618941
	H113	H	0.084096	0.105335	0.392560
	H114	H	0.893565	0.108712	0.625177
	H115	H	0.908044	0.915184	0.389897
	H116	H	0.612561	0.094440	0.912953
	H117	H	0.379537	0.100524	0.107032
	H118	H	0.615802	0.926818	0.107226
	H119	H	0.381909	0.929515	0.909365
	C120	C	0.376526	0.020527	0.628093
	C121	C	0.619420	1.004108	0.628432
	C122	C	0.618656	0.020112	0.384703
	C123	C	0.376778	1.005166	0.384113
	C124	C	0.619030	0.390750	0.013255
	C125	C	0.619181	0.635203	0.997364
	C126	C	0.375735	0.634965	0.013774
	C127	C	0.375165	0.389739	0.997460
	C128	C	0.006524	0.633406	0.384496
	C129	C	0.989117	0.633874	0.627406
	C130	C	0.005831	0.391866	0.627419
	C131	C	0.990290	0.391604	0.384096
	C132	C	0.875866	0.520943	0.127657
	C133	C	0.119123	0.504905	0.127456
	C134	C	0.118718	0.521208	0.883465
	C135	C	0.876359	0.504698	0.883892
	C136	C	0.120138	0.889987	0.513905
	C137	C	0.119479	0.135270	0.497611
	C138	C	0.876006	0.134972	0.513601
	C139	C	0.876239	0.889944	0.497716
	C140	C	0.506272	0.133166	0.884741
	C141	C	0.489614	0.134168	0.127560
	C142	C	0.505854	0.892278	0.126816
	C143	C	0.489288	0.891637	0.884728
	C144	C	0.378498	0.897704	0.682642
	C145	C	0.617923	0.126897	0.683672
	C146	C	0.617824	0.897902	0.328078
	C147	C	0.377992	0.127554	0.328462
	C148	C	0.673700	0.394082	0.890580
	C149	C	0.674150	0.631767	0.119732
	C150	C	0.321808	0.630473	0.890617
	C151	C	0.320607	0.393981	0.120001
	C152	C	0.882392	0.688267	0.387684
	C153	C	0.113288	0.688377	0.624408
	C154	C	0.882437	0.336475	0.624628
	C155	C	0.113943	0.336538	0.386628
	C156	C	0.882376	0.393280	0.682523
	C157	C	0.112878	0.631756	0.682429
	C158	C	0.882639	0.631749	0.329399
	C159	C	0.113412	0.392957	0.327971
	C160	C	0.377888	0.690340	0.891756
	C161	C	0.617031	0.690419	0.119552
	C162	C	0.616788	0.335081	0.891316
	C163	C	0.377862	0.335295	0.119796
	C164	C	0.673083	0.896838	0.388204
	C165	C	0.674429	0.127516	0.624457
	C166	C	0.321864	0.897413	0.623584
	C167	C	0.321587	0.128072	0.387693
	C168	C	0.877849	0.398250	0.183107
	C169	C	0.117816	0.627646	0.182925
	C170	C	0.116801	0.398857	0.827775
	C171	C	0.877689	0.627116	0.828908
	C172	C	0.174982	0.893558	0.391320
	C173	C	0.174380	0.131767	0.620340
	C174	C	0.821156	0.130466	0.390990
	C175	C	0.821429	0.893619	0.620011
	C176	C	0.382046	0.187069	0.888084
	C177	C	0.613430	0.189312	0.124646
	C178	C	0.382130	0.836727	0.124477
	C179	C	0.613243	0.837035	0.887571
	C180	C	0.382428	0.893508	0.182634
	C181	C	0.613135	0.132475	0.182741
	C182	C	0.382548	0.130932	0.829736
	C183	C	0.612708	0.893100	0.829208
	C184	C	0.877937	0.189889	0.391213
	C185	C	0.117939	0.190734	0.620015
	C186	C	0.117966	0.834472	0.391833
	C187	C	0.878897	0.835379	0.619991
	C188	C	0.172698	0.397934	0.887160
	C189	C	0.174212	0.627857	0.123897
	C190	C	0.820565	0.397861	0.124656
	C191	C	0.821996	0.627812	0.888250
	C192	C	0.398987	0.106645	0.606719
	C193	C	0.597009	0.918320	0.606594
	C194	C	0.596264	0.105943	0.406617
	C195	C	0.399265	0.919581	0.405562
	C196	C	0.596596	0.413254	0.098416
	C197	C	0.596763	0.613473	0.911964
	C198	C	0.397898	0.613182	0.098999
	C199	C	0.397295	0.411068	0.912144
	C200	C	0.092700	0.611051	0.405996
	C201	C	0.902886	0.611743	0.605288
	C202	C	0.092206	0.414526	0.605192
	C203	C	0.904080	0.414078	0.406389
	C204	C	0.898055	0.606672	0.106142
	C205	C	0.096072	0.419370	0.105238
	C206	C	0.096925	0.607213	0.905474
	C207	C	0.898314	0.418891	0.905484
	C208	C	0.097614	0.912183	0.599061
	C209	C	0.097044	0.113219	0.412477
	C210	C	0.898835	0.113027	0.598809
	C211	C	0.898712	0.911624	0.412235
	C212	C	0.592575	0.111111	0.906673
	C213	C	0.403349	0.111500	0.105475
	C214	C	0.592049	0.914661	0.104519
	C215	C	0.402658	0.913392	0.906530
	Zn216	Zn	0.497724	0.012531	0.757057
	Zn217	Zn	0.497825	0.012995	0.255205
	Zn218	Zn	0.747741	0.512707	0.005033
	Zn219	Zn	0.247042	0.512659	0.005075
	Zn220	Zn	-0.002184	0.761183	0.506065
	Zn221	Zn	-0.001896	0.264214	0.505790
	Zn222	Zn	-0.002724	0.513207	0.755325
	Zn223	Zn	-0.002007	0.512751	0.255839
	Zn224	Zn	0.497732	0.764174	0.005650
	Zn225	Zn	0.497899	0.261304	0.005667
	Zn226	Zn	0.747558	0.011921	0.505594
	Zn227	Zn	0.248009	0.012958	0.505953
	N228	N	0.411569	0.975454	0.685593
	N229	N	0.584788	0.049251	0.686313
	N230	N	0.584643	0.975725	0.325940
	N231	N	0.411333	0.050051	0.325976
	N232	N	0.675101	0.428140	0.967468
	N233	N	0.675514	0.598083	0.042906
	N234	N	0.320610	0.596523	0.967420
	N235	N	0.318937	0.427110	0.042941
	N236	N	0.960227	0.689262	0.421432
	N237	N	0.035259	0.689903	0.590981
	N238	N	0.960224	0.335442	0.591114
	N239	N	0.036330	0.335534	0.420788
	N240	N	0.960271	0.427193	0.684152
	N241	N	0.034889	0.598464	0.684310
	N242	N	0.960780	0.598666	0.326987
	N243	N	0.035454	0.426468	0.326473
	N244	N	0.410548	0.693359	0.969123
	N245	N	0.583343	0.692498	0.042580
	N246	N	0.583661	0.332875	0.968565
	N247	N	0.411177	0.332674	0.042725
	N248	N	0.673725	0.973768	0.422566
	N249	N	0.675561	0.050163	0.590730
	N250	N	0.320670	0.974844	0.590381
	N251	N	0.320785	0.051058	0.421651
	N252	N	0.911516	0.475570	0.184934
	N253	N	0.084371	0.549987	0.185173
	N254	N	0.083813	0.476542	0.825647
	N255	N	0.910981	0.549717	0.826491
	N256	N	0.176234	0.927438	0.468152
	N257	N	0.175521	0.097912	0.543448
	N258	N	0.819912	0.096972	0.467973
	N259	N	0.819664	0.926810	0.542958
	N260	N	0.459929	0.188454	0.921691
	N261	N	0.535641	0.190449	0.091090
	N262	N	0.459841	0.835911	0.090382
	N263	N	0.535464	0.835855	0.921393
	N264	N	0.460373	0.927233	0.184219
	N265	N	0.535189	0.098891	0.184532
	N266	N	0.460819	0.098315	0.827388
	N267	N	0.534529	0.926198	0.827397
	N268	N	0.911357	0.192657	0.468449
	N269	N	0.084529	0.193109	0.542750
	N270	N	0.084481	0.832249	0.469027
	N271	N	0.912470	0.833411	0.542920
	N272	N	0.174186	0.475109	0.920841
	N273	N	0.174996	0.550647	0.089842
	N274	N	0.819342	0.474989	0.090718
	N275	N	0.821006	0.550592	0.921859
	O276	O	0.516039	0.467756	0.422119
	H277	H	0.526088	0.471198	0.414436
	H278	H	0.517567	0.460348	0.419034
	O279	O	-0.037017	0.054520	0.003766
	H280	H	-0.029462	0.055280	-0.003865
	H281	H	-0.045522	0.054293	0.005690
	O282	O	1.028065	0.016817	0.973789
	H283	H	1.032600	0.004493	0.969338
	H284	H	1.027160	0.017893	0.971349
	O285	O	0.513523	0.462459	0.419491
	H286	H	0.518479	0.469753	0.417781
	H287	H	0.514502	0.461246	0.416393
	O288	O	1.069606	0.012727	-0.024048
	H289	H	1.071586	0.009550	-0.020409
	H290	H	1.072001	0.009905	-0.022661
	O291	O	-0.470412	0.437423	-0.561150
	H292	H	-0.471768	0.436370	-0.569991
	H293	H	-0.476115	0.443730	-0.553734
	O294	O	0.518370	0.432626	0.455608
	H295	H	0.515914	0.431960	0.452283
	H296	H	0.515283	0.442414	0.462473
	O297	O	-0.017471	1.000806	-0.007769
	H298	H	-0.017187	1.003991	-0.003634
	H299	H	-0.017793	1.007243	-0.007224
	O300	O	1.001490	0.011568	0.982222
	H301	H	1.008969	0.027868	0.986820
	H302	H	1.006004	0.009142	0.984228
	O303	O	1.003249	0.087286	0.020312
	H304	H	0.996043	0.078410	0.013206
	H305	H	1.009669	0.087909	0.017630
	O306	O	-0.013829	1.025467	0.971450
	H307	H	-0.019782	1.019120	0.969876
	H308	H	-0.011093	1.029619	0.970693
	O309	O	0.592811	0.442795	0.428868
	H310	H	0.592906	0.429742	0.424248
	H311	H	0.589714	0.430798	0.430913
