data_Molecule from HDF5

_cell_length_a		16.451641
_cell_length_b		16.259176
_cell_length_c		16.291250
_cell_angle_alpha	89.917872
_cell_angle_beta	90.081150
_cell_angle_gamma	90.157095
_symmetry_space_group_name_H-M	'P 1'
_symmetry_Int_Tables_number		1

loop_
	_symmetry_equiv_pos_as_xyz
	x,y,z

loop_
	_atom_site_label
	_atom_site_type_symbol
	_atom_site_fract_x
	_atom_site_fract_y
	_atom_site_fract_z
	H0	H	0.382732	0.818981	0.711625
	H1	H	0.580328	0.146158	0.713874
	H2	H	0.580789	0.819039	0.284127
	H3	H	0.378266	0.143176	0.276392
	H4	H	0.699485	0.380526	0.833220
	H5	H	0.700494	0.584674	0.157369
	H6	H	0.266380	0.584193	0.833222
	H7	H	0.262917	0.377908	0.156718
	H8	H	0.822629	0.700457	0.397366
	H9	H	0.145921	0.701722	0.596495
	H10	H	0.822740	0.265834	0.600447
	H11	H	0.143201	0.264703	0.394268
	H12	H	0.822426	0.382998	0.713714
	H13	H	0.145233	0.586011	0.714360
	H14	H	0.823756	0.588596	0.275844
	H15	H	0.144154	0.382949	0.278057
	H16	H	0.384650	0.697904	0.832471
	H17	H	0.580056	0.695643	0.160223
	H18	H	0.582857	0.264975	0.833811
	H19	H	0.380454	0.264222	0.158289
	H20	H	0.701133	0.822166	0.396486
	H21	H	0.701633	0.145342	0.603928
	H22	H	0.263937	0.821141	0.599728
	H23	H	0.263954	0.144256	0.392602
	H24	H	0.880576	0.322289	0.215158
	H25	H	0.086250	0.646644	0.212114
	H26	H	0.083570	0.320256	0.778791
	H27	H	0.886726	0.647036	0.782291
	H28	H	0.202300	0.879127	0.337666
	H29	H	0.201772	0.086592	0.659561
	H30	H	0.762002	0.089648	0.338231
	H31	H	0.765967	0.880376	0.660101
	H32	H	0.322679	0.202084	0.893242
	H33	H	0.642253	0.203150	0.101914
	H34	H	0.321663	0.763148	0.098140
	H35	H	0.643621	0.768226	0.898135
	H36	H	0.321854	0.876984	0.217575
	H37	H	0.642379	0.084894	0.217211
	H38	H	0.321110	0.083923	0.779293
	H39	H	0.642017	0.880525	0.779545
	H40	H	0.881446	0.201571	0.336103
	H41	H	0.083387	0.200326	0.660379
	H42	H	0.085361	0.768374	0.335676
	H43	H	0.885587	0.767562	0.660424
	H44	H	0.202876	0.321568	0.890222
	H45	H	0.201376	0.645207	0.096662
	H46	H	0.763267	0.322452	0.100918
	H47	H	0.764700	0.644643	0.890689
	H48	H	0.393418	0.097218	0.584531
	H49	H	0.569796	0.867417	0.593199
	H50	H	0.575048	0.099293	0.405475
	H51	H	0.392923	0.869426	0.412368
	H52	H	0.567750	0.395888	0.108127
	H53	H	0.574760	0.581230	0.878726
	H54	H	0.384439	0.567993	0.112103
	H55	H	0.394661	0.398918	0.883540
	H56	H	0.097593	0.574877	0.404170
	H57	H	0.868536	0.575969	0.595487
	H58	H	0.096366	0.392182	0.584385
	H59	H	0.872874	0.396593	0.409915
	H60	H	0.096182	0.397563	0.587065
	H61	H	0.869340	0.581628	0.586209
	H62	H	0.099038	0.577413	0.401983
	H63	H	0.870102	0.397756	0.403017
	H64	H	0.397948	0.570473	0.108512
	H65	H	0.581307	0.573584	0.878272
	H66	H	0.575099	0.387353	0.112164
	H67	H	0.397239	0.390090	0.883520
	H68	H	0.569354	0.097284	0.407323
	H69	H	0.574103	0.870193	0.582732
	H70	H	0.387501	0.099408	0.588153
	H71	H	0.387260	0.867102	0.409555
	H72	H	0.895803	0.598231	0.087394
	H73	H	0.071843	0.368618	0.087736
	H74	H	0.075737	0.597211	0.909506
	H75	H	0.898928	0.369237	0.902335
	H76	H	0.073790	0.897529	0.612656
	H77	H	0.072292	0.072041	0.383338
	H78	H	0.894718	0.076136	0.612726
	H79	H	0.890378	0.888666	0.381270
	H80	H	0.593391	0.073605	0.913373
	H81	H	0.369508	0.071456	0.087196
	H82	H	0.596796	0.889135	0.092231
	H83	H	0.366526	0.888999	0.904080
	H84	H	0.595954	0.889880	0.089462
	H85	H	0.369503	0.071655	0.084849
	H86	H	0.594538	0.066798	0.902119
	H87	H	0.366958	0.888579	0.906471
	H88	H	0.889095	0.075551	0.615283
	H89	H	0.073699	0.075655	0.382909
	H90	H	0.071631	0.891438	0.613416
	H91	H	0.885793	0.896102	0.382352
	H92	H	0.080286	0.600364	0.903838
	H93	H	0.072488	0.368226	0.084412
	H94	H	0.891743	0.597579	0.081697
	H95	H	0.888487	0.369580	0.913375
	H96	H	0.393364	0.099413	0.591386
	H97	H	0.581323	0.865690	0.591025
	H98	H	0.573945	0.097560	0.411357
	H99	H	0.392783	0.867804	0.405652
	H100	H	0.578920	0.398086	0.110376
	H101	H	0.571492	0.571621	0.881705
	H102	H	0.389660	0.580467	0.113716
	H103	H	0.388917	0.392590	0.880654
	H104	H	0.097612	0.579011	0.405480
	H105	H	0.871818	0.571102	0.586190
	H106	H	0.098685	0.392741	0.590115
	H107	H	0.868647	0.390279	0.405902
	H108	H	0.889239	0.600867	0.087333
	H109	H	0.074504	0.368204	0.086565
	H110	H	0.073291	0.598011	0.902252
	H111	H	0.884478	0.363361	0.899226
	H112	H	0.078151	0.892400	0.613760
	H113	H	0.075986	0.072690	0.383036
	H114	H	0.891862	0.070462	0.611889
	H115	H	0.894658	0.896462	0.384144
	H116	H	0.598979	0.079687	0.902836
	H117	H	0.370679	0.070190	0.086213
	H118	H	0.596100	0.891720	0.091751
	H119	H	0.367202	0.890671	0.904694
	C120	C	0.361296	-0.008865	0.618218
	C121	C	0.604423	0.975069	0.620050
	C122	C	0.603029	-0.009004	0.377950
	C123	C	0.360589	0.974476	0.376909
	C124	C	0.603956	0.362085	0.003743
	C125	C	0.604741	0.604875	0.987375
	C126	C	0.361343	0.603842	0.004040
	C127	C	0.362139	0.361872	0.988523
	C128	C	-0.007913	0.606960	0.374025
	C129	C	0.976446	0.606517	0.618542
	C130	C	-0.008627	0.362811	0.618539
	C131	C	0.975802	0.363494	0.375489
	C132	C	0.861379	0.492290	0.117334
	C133	C	0.104654	0.475232	0.116664
	C134	C	0.105884	0.491384	0.873841
	C135	C	0.861857	0.474837	0.874551
	C136	C	0.104502	0.863045	0.506423
	C137	C	0.104614	0.104896	0.489739
	C138	C	0.860996	0.105511	0.506968
	C139	C	0.861613	0.863058	0.489658
	C140	C	0.490250	0.104337	0.874856
	C141	C	0.474537	0.103517	0.118936
	C142	C	0.490450	0.859440	0.120384
	C143	C	0.473242	0.860558	0.875494
	C144	C	0.362241	0.868251	0.674511
	C145	C	0.602112	0.097292	0.676918
	C146	C	0.601587	0.868507	0.321547
	C147	C	0.359958	0.095595	0.317026
	C148	C	0.660791	0.361355	0.881802
	C149	C	0.661255	0.603840	0.109270
	C150	C	0.304836	0.603604	0.881915
	C151	C	0.302833	0.359882	0.108945
	C152	C	0.871075	0.663011	0.375803
	C153	C	0.097684	0.662982	0.616553
	C154	C	0.870839	0.304758	0.619034
	C155	C	0.095509	0.304501	0.375048
	C156	C	0.870604	0.363386	0.675493
	C157	C	0.097317	0.605593	0.675406
	C158	C	0.871743	0.606972	0.315635
	C159	C	0.096157	0.363367	0.317303
	C160	C	0.363907	0.659773	0.881360
	C161	C	0.601336	0.659075	0.110558
	C162	C	0.602545	0.304057	0.882030
	C163	C	0.361429	0.303446	0.109871
	C164	C	0.661261	0.869953	0.377739
	C165	C	0.662117	0.096805	0.621794
	C166	C	0.303222	0.869409	0.618663
	C167	C	0.302766	0.095816	0.374615
	C168	C	0.860858	0.370944	0.176585
	C169	C	0.105049	0.597708	0.173557
	C170	C	0.104197	0.369204	0.816629
	C171	C	0.865134	0.597934	0.819283
	C172	C	0.162571	0.861726	0.385288
	C173	C	0.162677	0.105742	0.611074
	C174	C	0.801992	0.107507	0.386094
	C175	C	0.804871	0.862046	0.611394
	C176	C	0.370232	0.162492	0.874372
	C177	C	0.594363	0.163149	0.120324
	C178	C	0.369696	0.801796	0.118583
	C179	C	0.594861	0.805270	0.877401
	C180	C	0.369898	0.858378	0.178120
	C181	C	0.594625	0.104408	0.177926
	C182	C	0.369562	0.103665	0.817551
	C183	C	0.594018	0.861116	0.818115
	C184	C	0.861283	0.163303	0.384933
	C185	C	0.104022	0.162374	0.611649
	C186	C	0.104337	0.806291	0.384484
	C187	C	0.864511	0.806132	0.611842
	C188	C	0.163052	0.369746	0.872470
	C189	C	0.162592	0.596878	0.116149
	C190	C	0.802577	0.370877	0.119450
	C191	C	0.804706	0.596694	0.873555
	C192	C	0.384633	0.076428	0.594881
	C193	C	0.581672	0.889777	0.595994
	C194	C	0.579566	0.076010	0.401230
	C195	C	0.384190	0.889939	0.401893
	C196	C	0.580746	0.386522	0.088347
	C197	C	0.582483	0.582199	0.901914
	C198	C	0.384075	0.580114	0.089263
	C199	C	0.386604	0.386603	0.904326
	C200	C	0.076271	0.583816	0.396944
	C201	C	0.891882	0.583166	0.595798
	C202	C	0.075329	0.387062	0.594231
	C203	C	0.892182	0.387887	0.399382
	C204	C	0.885222	0.576836	0.092641
	C205	C	0.080169	0.390448	0.093065
	C206	C	0.083140	0.576368	0.898081
	C207	C	0.884134	0.389471	0.898173
	C208	C	0.081156	0.886745	0.591123
	C209	C	0.080907	0.080753	0.405220
	C210	C	0.884928	0.081235	0.591183
	C211	C	0.883843	0.886824	0.404618
	C212	C	0.574105	0.080376	0.899043
	C213	C	0.391480	0.078275	0.093559
	C214	C	0.574629	0.883396	0.097731
	C215	C	0.388951	0.883065	0.898371
	Zn216	Zn	0.481508	-0.017865	0.746515
	Zn217	Zn	0.481441	-0.017833	0.248526
	Zn218	Zn	0.733468	0.483141	-0.004976
	Zn219	Zn	0.232919	0.482185	-0.004463
	Zn220	Zn	-0.015933	0.735764	0.496785
	Zn221	Zn	-0.017231	0.233063	0.497908
	Zn222	Zn	-0.016152	0.483594	0.747264
	Zn223	Zn	-0.016104	0.484658	0.245006
	Zn224	Zn	0.482543	0.732087	-0.003550
	Zn225	Zn	0.482493	0.232928	-0.003148
	Zn226	Zn	0.732561	-0.015581	0.498926
	Zn227	Zn	0.232538	-0.016723	0.497882
	N228	N	0.397503	0.945103	0.674243
	N229	N	0.567192	0.020372	0.675972
	N230	N	0.566069	0.944970	0.321583
	N231	N	0.395115	0.018979	0.318214
	N232	N	0.661894	0.396727	0.958568
	N233	N	0.663636	0.571056	0.031535
	N234	N	0.303244	0.569388	0.959162
	N235	N	0.303311	0.395592	0.032424
	N236	N	0.946943	0.663353	0.411174
	N237	N	0.021366	0.663469	0.581852
	N238	N	0.946927	0.304381	0.584175
	N239	N	0.019812	0.304505	0.410584
	N240	N	0.946765	0.398715	0.675348
	N241	N	0.021044	0.571207	0.676723
	N242	N	0.948214	0.573310	0.314057
	N243	N	0.020696	0.399459	0.317536
	N244	N	0.398053	0.660205	0.958380
	N245	N	0.567051	0.659936	0.033600
	N246	N	0.568118	0.304280	0.958834
	N247	N	0.397503	0.304568	0.033831
	N248	N	0.662560	0.947281	0.411775
	N249	N	0.663625	0.019720	0.587096
	N250	N	0.302417	0.946775	0.584474
	N251	N	0.302906	0.019575	0.410968
	N252	N	0.896800	0.447438	0.175353
	N253	N	0.069524	0.521106	0.173865
	N254	N	0.069333	0.446065	0.817223
	N255	N	0.900044	0.521186	0.819826
	N256	N	0.162912	0.896328	0.462152
	N257	N	0.163413	0.071120	0.534034
	N258	N	0.801718	0.072331	0.462784
	N259	N	0.803036	0.896996	0.534443
	N260	N	0.446312	0.163021	0.909387
	N261	N	0.518728	0.162648	0.084355
	N262	N	0.445663	0.802318	0.083530
	N263	N	0.518803	0.804539	0.912199
	N264	N	0.446000	0.893489	0.179511
	N265	N	0.519060	0.068143	0.177249
	N266	N	0.445266	0.068079	0.817923
	N267	N	0.517412	0.894686	0.816724
	N268	N	0.897263	0.162364	0.461099
	N269	N	0.068771	0.162101	0.535213
	N270	N	0.068798	0.807098	0.460691
	N271	N	0.898881	0.806472	0.535038
	N272	N	0.164304	0.446706	0.907268
	N273	N	0.162513	0.519666	0.081655
	N274	N	0.802822	0.447349	0.083285
	N275	N	0.802394	0.519023	0.907007
	O276	O	0.293500	0.442275	0.592666
	H277	H	0.273073	0.447748	0.603060
	H278	H	0.288468	0.419071	0.598206
	O279	O	0.526393	0.490751	0.524923
	H280	H	0.519968	0.503288	0.522258
	H281	H	0.520309	0.485440	0.532331
	O282	O	1.167210	0.051632	0.969274
	H283	H	1.157411	0.053481	0.977465
	H284	H	1.182815	0.055131	0.988560
	O285	O	0.434888	0.481860	0.391002
	H286	H	0.428699	0.500716	0.396877
	H287	H	0.432545	0.477885	0.376010
	O288	O	1.003880	0.895740	0.914697
	H289	H	0.998510	0.914356	0.918866
	H290	H	0.997264	0.884012	0.928102
	O291	O	0.086379	0.993192	0.070491
	H292	H	0.091643	0.995021	0.084237
	H293	H	0.086382	0.994278	0.063015
	O294	O	0.394282	0.623265	0.465192
	H295	H	0.384872	0.633071	0.468308
	H296	H	0.404617	0.621092	0.472440
	O297	O	0.655349	0.577620	0.638793
	H298	H	0.651052	0.559697	0.650072
	H299	H	0.672446	0.573041	0.642777
	O300	O	0.614690	0.421603	0.464777
	H301	H	0.606633	0.425966	0.456942
	H302	H	0.613606	0.421850	0.454532
	O303	O	0.568953	0.389215	0.503168
	H304	H	0.565228	0.388452	0.491546
	H305	H	0.577865	0.376020	0.484942
	O306	O	0.485093	0.403060	0.528410
	H307	H	0.490518	0.394322	0.520935
	H308	H	0.491376	0.398497	0.520245
	O309	O	1.141794	0.995014	0.186620
	H310	H	1.129408	0.983662	0.182480
	H311	H	1.142784	0.980635	0.190716
	O312	O	-0.149113	0.043044	0.157593
	H313	H	-0.160382	0.046090	0.152799
	H314	H	-0.126248	0.046304	0.157612
	O315	O	0.483300	0.503137	0.443088
	H316	H	0.490670	0.501449	0.454014
	H317	H	0.481912	0.510056	0.449511
	O318	O	-0.171048	1.140075	0.956996
	H319	H	-0.156467	1.141629	0.956461
	H320	H	-0.188083	1.155588	0.950281
	O321	O	0.867440	0.221067	0.192785
	H322	H	0.868176	0.234241	0.191488
	H323	H	0.871666	0.204355	0.183183
	O324	O	0.150419	1.000810	-0.129264
	H325	H	0.144696	1.003926	-0.119913
	H326	H	0.153317	0.979135	-0.133427
	O327	O	0.371977	0.423212	0.512171
	H328	H	0.360340	0.432697	0.488078
	H329	H	0.359582	0.430044	0.511559
	O330	O	-1.134454	0.887913	1.889533
	H331	H	-1.141026	0.890124	1.897528
	H332	H	-1.154481	0.871198	1.883283
	O333	O	-0.376476	-0.358544	1.251796
	H334	H	-0.376346	-0.331570	1.252620
	H335	H	-0.386268	-0.369508	1.268140
	O336	O	0.373236	0.382198	0.511428
	H337	H	0.376523	0.380503	0.496830
	H338	H	0.370430	0.368590	0.520672
	O339	O	0.813661	0.031067	-0.134254
	H340	H	0.814564	0.029143	-0.133529
	H341	H	0.823873	0.032706	-0.131036
	O342	O	-0.215966	-0.171491	0.124460
	H343	H	-0.215795	-0.182632	0.141485
	H344	H	-0.213665	-0.179674	0.141997
	O345	O	1.427836	0.409577	0.632414
	H346	H	1.431270	0.395441	0.639659
	H347	H	1.413422	0.395373	0.633242
	O348	O	1.560984	1.489941	0.357095
	H349	H	1.562245	1.483759	0.370665
	H350	H	1.555307	1.485362	0.357368
	O351	O	0.359458	0.504382	0.536595
	H352	H	0.354689	0.511439	0.544347
	H353	H	0.359934	0.503280	0.536177
	O354	O	0.942625	0.024573	1.093550
	H355	H	0.936796	0.021331	1.083145
	H356	H	0.940573	0.024104	1.071340
	O357	O	1.160988	-0.029981	0.847087
	H358	H	1.179087	-0.049327	0.836921
	H359	H	1.165052	-0.039481	0.850890
	O360	O	0.600131	0.647963	0.674980
	H361	H	0.603590	0.631697	0.676238
	H362	H	0.581472	0.639907	0.676601
	O363	O	0.076481	0.820636	0.928972
	H364	H	0.057466	0.812576	0.918142
	H365	H	0.062959	0.832440	0.924569
	O366	O	1.090057	1.159543	0.161438
	H367	H	1.106652	1.122804	0.174238
	H368	H	1.067244	1.165282	0.159799
	O369	O	-0.102736	1.099864	-0.065132
	H370	H	-0.101751	1.109559	-0.056794
	H371	H	-0.112663	1.093395	-0.061448
	O372	O	0.925031	-0.184845	-0.100656
	H373	H	0.903832	-0.194164	-0.108829
	H374	H	0.912479	-0.167884	-0.089927
	O375	O	0.540386	0.488681	0.411081
	H376	H	0.538641	0.477158	0.409911
	H377	H	0.524426	0.506084	0.416040
	O378	O	1.498553	1.562064	0.641654
	H379	H	1.479978	1.541271	0.647366
	H380	H	1.495719	1.574550	0.646053
	O381	O	1.093371	0.180107	0.119008
	H382	H	1.096486	0.186950	0.114117
	H383	H	1.080079	0.192562	0.119362
	O384	O	0.889815	0.850962	0.036005
	H385	H	0.886584	0.847972	0.028070
	H386	H	0.896334	0.839612	0.029457
	O387	O	0.014113	-0.016081	-0.089089
	H388	H	-0.006546	-0.016692	-0.100715
	H389	H	0.022298	-0.013706	-0.073924
	O390	O	-0.060901	0.899022	0.046710
	H391	H	-0.070534	0.907697	0.046050
	H392	H	-0.067264	0.883695	0.054733
	O393	O	0.953134	1.051991	1.108146
	H394	H	0.955162	1.033390	1.096745
	H395	H	0.945085	1.049983	1.097865
	O396	O	0.561916	0.649541	0.494937
	H397	H	0.582315	0.659570	0.500417
	H398	H	0.560202	0.653183	0.512783
	O399	O	-0.133745	0.977093	0.886186
	H400	H	-0.130378	0.970052	0.899673
	H401	H	-0.140806	0.966267	0.894063
	O402	O	0.418309	0.328844	0.573057
	H403	H	0.422741	0.317597	0.575438
	H404	H	0.419902	0.337300	0.573386
	O405	O	1.035836	1.051623	-0.132951
	H406	H	1.042429	1.048803	-0.149342
	H407	H	1.052792	1.064357	-0.115784
	O408	O	1.415647	0.549167	0.379579
	H409	H	1.424795	0.537042	0.380932
	H410	H	1.404186	0.556525	0.360532
	O411	O	0.979902	-0.096350	1.182355
	H412	H	0.991943	-0.078889	1.176119
	H413	H	0.978494	-0.104126	1.185716
	O414	O	0.665608	0.466466	0.386155
	H415	H	0.661437	0.474899	0.392349
	H416	H	0.679884	0.467474	0.386038
	O417	O	0.467642	0.330052	0.452523
	H418	H	0.450181	0.331068	0.454315
	H419	H	0.468533	0.332068	0.442617
