data_Molecule from HDF5

_cell_length_a		16.340160
_cell_length_b		16.079225
_cell_length_c		16.483589
_cell_angle_alpha	89.618249
_cell_angle_beta	89.974815
_cell_angle_gamma	90.436434
_symmetry_space_group_name_H-M	'P 1'
_symmetry_Int_Tables_number		1

loop_
	_symmetry_equiv_pos_as_xyz
	x,y,z

loop_
	_atom_site_label
	_atom_site_type_symbol
	_atom_site_fract_x
	_atom_site_fract_y
	_atom_site_fract_z
	H0	H	0.401106	0.836447	0.722081
	H1	H	0.610748	0.162331	0.718364
	H2	H	0.606975	0.834988	0.284059
	H3	H	0.401964	0.161676	0.283458
	H4	H	0.722781	0.398180	0.843100
	H5	H	0.724607	0.605074	0.162244
	H6	H	0.283229	0.603279	0.842309
	H7	H	0.282073	0.392880	0.162315
	H8	H	0.841762	0.713108	0.403567
	H9	H	0.167892	0.713136	0.602061
	H10	H	0.843464	0.278170	0.601645
	H11	H	0.170131	0.288843	0.408314
	H12	H	0.843618	0.389445	0.722761
	H13	H	0.164170	0.601240	0.723323
	H14	H	0.842915	0.600753	0.283773
	H15	H	0.162515	0.390225	0.280930
	H16	H	0.405254	0.716640	0.840556
	H17	H	0.601224	0.714001	0.164996
	H18	H	0.599154	0.287692	0.840186
	H19	H	0.401498	0.279407	0.162960
	H20	H	0.717525	0.832313	0.403804
	H21	H	0.721490	0.162464	0.598524
	H22	H	0.289395	0.835325	0.604689
	H23	H	0.292878	0.163084	0.401554
	H24	H	0.897522	0.333653	0.220104
	H25	H	0.105831	0.659912	0.221057
	H26	H	0.102985	0.333614	0.789892
	H27	H	0.900128	0.659024	0.782371
	H28	H	0.226377	0.896312	0.342214
	H29	H	0.228444	0.102354	0.662849
	H30	H	0.789240	0.099918	0.341138
	H31	H	0.783971	0.890761	0.661849
	H32	H	0.340633	0.212202	0.902863
	H33	H	0.666747	0.216218	0.098770
	H34	H	0.341013	0.782208	0.102467
	H35	H	0.667339	0.787864	0.906904
	H36	H	0.344005	0.892583	0.223078
	H37	H	0.665068	0.105482	0.220886
	H38	H	0.346132	0.106304	0.778848
	H39	H	0.665114	0.896464	0.785900
	H40	H	0.911902	0.212183	0.339930
	H41	H	0.106126	0.213180	0.665267
	H42	H	0.105575	0.781388	0.340986
	H43	H	0.905616	0.779577	0.664159
	H44	H	0.215889	0.334058	0.904344
	H45	H	0.220079	0.660987	0.103940
	H46	H	0.785601	0.334681	0.102465
	H47	H	0.794101	0.664348	0.904127
	H48	H	0.420509	0.113065	0.584834
	H49	H	0.596827	0.881458	0.593814
	H50	H	0.592794	0.111023	0.417464
	H51	H	0.421367	0.883451	0.412167
	H52	H	0.590680	0.416532	0.113557
	H53	H	0.606659	0.591289	0.886701
	H54	H	0.418395	0.590064	0.113680
	H55	H	0.405996	0.409398	0.887510
	H56	H	0.119577	0.585532	0.405991
	H57	H	0.890685	0.582757	0.594837
	H58	H	0.120175	0.410788	0.601994
	H59	H	0.887994	0.409077	0.403398
	H60	H	0.122454	0.403335	0.601425
	H61	H	0.889003	0.587425	0.595483
	H62	H	0.119622	0.591301	0.411982
	H63	H	0.886621	0.395305	0.412432
	H64	H	0.405428	0.595533	0.119179
	H65	H	0.592927	0.587429	0.891945
	H66	H	0.590283	0.401834	0.116758
	H67	H	0.409338	0.408962	0.888206
	H68	H	0.606679	0.117322	0.410477
	H69	H	0.593951	0.880182	0.599549
	H70	H	0.411584	0.118889	0.593271
	H71	H	0.413691	0.883319	0.417540
	H72	H	0.928256	0.612299	0.099102
	H73	H	0.092995	0.381608	0.087944
	H74	H	0.095350	0.617659	0.909778
	H75	H	0.903433	0.379741	0.918976
	H76	H	0.094390	0.914405	0.611506
	H77	H	0.103129	0.090026	0.389098
	H78	H	0.906733	0.083470	0.616896
	H79	H	0.914321	0.905129	0.388425
	H80	H	0.620313	0.095523	0.910416
	H81	H	0.391133	0.081110	0.094276
	H82	H	0.617800	0.914973	0.097156
	H83	H	0.386712	0.903905	0.909514
	H84	H	0.622591	0.905569	0.099922
	H85	H	0.386612	0.089092	0.100885
	H86	H	0.618967	0.090443	0.911284
	H87	H	0.390225	0.911599	0.916510
	H88	H	0.918756	0.081744	0.613288
	H89	H	0.099449	0.090991	0.389650
	H90	H	0.093894	0.899569	0.616916
	H91	H	0.908269	0.904846	0.386641
	H92	H	0.088447	0.614575	0.909073
	H93	H	0.094592	0.378292	0.098429
	H94	H	0.910547	0.612915	0.082702
	H95	H	0.908807	0.376422	0.905129
	H96	H	0.424252	0.115094	0.597907
	H97	H	0.590145	0.882387	0.594254
	H98	H	0.592887	0.116039	0.402171
	H99	H	0.413114	0.879566	0.409104
	H100	H	0.602424	0.409613	0.118990
	H101	H	0.595645	0.601157	0.886838
	H102	H	0.406023	0.580649	0.114918
	H103	H	0.407466	0.406107	0.887710
	H104	H	0.116628	0.583465	0.413584
	H105	H	0.890796	0.586055	0.591972
	H106	H	0.119861	0.407637	0.595625
	H107	H	0.892286	0.409645	0.419170
	H108	H	0.906573	0.620927	0.104725
	H109	H	0.084424	0.381951	0.095368
	H110	H	0.092352	0.614175	0.915676
	H111	H	0.918234	0.382937	0.915146
	H112	H	0.106024	0.907750	0.618156
	H113	H	0.101449	0.093511	0.388472
	H114	H	0.915285	0.092918	0.618240
	H115	H	0.910962	0.909807	0.389124
	H116	H	0.620702	0.092239	0.906072
	H117	H	0.389128	0.090885	0.090025
	H118	H	0.618187	0.907200	0.090032
	H119	H	0.388528	0.914384	0.906110
	C120	C	0.386038	0.008265	0.623820
	C121	C	0.625916	0.989604	0.624020
	C122	C	0.626370	0.006260	0.380654
	C123	C	0.385993	0.990267	0.382045
	C124	C	0.623937	0.379804	0.010246
	C125	C	0.626895	0.622720	0.994684
	C126	C	0.380499	0.620529	0.010254
	C127	C	0.378681	0.376311	0.994048
	C128	C	0.012155	0.617991	0.380765
	C129	C	0.996233	0.617658	0.624618
	C130	C	0.013584	0.374890	0.627503
	C131	C	0.995905	0.375784	0.382301
	C132	C	0.882711	0.507113	0.124937
	C133	C	0.122796	0.488367	0.124276
	C134	C	0.121690	0.506723	0.883160
	C135	C	0.882004	0.488710	0.882372
	C136	C	0.128263	0.876876	0.509893
	C137	C	0.130882	0.121416	0.495078
	C138	C	0.884873	0.117939	0.509992
	C139	C	0.881891	0.874641	0.494108
	C140	C	0.512871	0.121894	0.879674
	C141	C	0.495644	0.119742	0.123968
	C142	C	0.513015	0.877414	0.125529
	C143	C	0.495591	0.879727	0.882074
	C144	C	0.383467	0.885233	0.682511
	C145	C	0.628154	0.113234	0.679445
	C146	C	0.625762	0.883583	0.323341
	C147	C	0.384739	0.112967	0.323233
	C148	C	0.682127	0.380079	0.890220
	C149	C	0.684459	0.623122	0.114827
	C150	C	0.322455	0.622293	0.890104
	C151	C	0.321152	0.374515	0.114234
	C152	C	0.890387	0.675114	0.382753
	C153	C	0.118561	0.675000	0.622851
	C154	C	0.891810	0.316661	0.623221
	C155	C	0.119717	0.323254	0.385873
	C156	C	0.891934	0.371652	0.683563
	C157	C	0.116897	0.619346	0.683074
	C158	C	0.890779	0.619242	0.323383
	C159	C	0.115908	0.374047	0.322687
	C160	C	0.383259	0.678657	0.889169
	C161	C	0.623197	0.677554	0.116178
	C162	C	0.620933	0.324779	0.888761
	C163	C	0.380555	0.317855	0.114620
	C164	C	0.680851	0.882128	0.382891
	C165	C	0.683848	0.113211	0.620412
	C166	C	0.327598	0.884597	0.624337
	C167	C	0.330254	0.113875	0.382067
	C168	C	0.879880	0.383074	0.181278
	C169	C	0.124340	0.611273	0.181963
	C170	C	0.121696	0.383019	0.827630
	C171	C	0.881923	0.610993	0.822848
	C172	C	0.186748	0.877005	0.389895
	C173	C	0.188228	0.120780	0.615457
	C174	C	0.828345	0.118814	0.389243
	C175	C	0.824102	0.872911	0.614536
	C176	C	0.390372	0.176162	0.881539
	C177	C	0.617851	0.178182	0.120704
	C178	C	0.390590	0.819506	0.123774
	C179	C	0.618138	0.824369	0.885439
	C180	C	0.391799	0.874804	0.183456
	C181	C	0.617074	0.122847	0.181192
	C182	C	0.392818	0.123105	0.820186
	C183	C	0.617272	0.878762	0.825370
	C184	C	0.889424	0.174670	0.388535
	C185	C	0.127514	0.176050	0.616586
	C186	C	0.126424	0.820020	0.389201
	C187	C	0.884576	0.817524	0.615577
	C188	C	0.177985	0.383146	0.884509
	C189	C	0.180984	0.611815	0.123726
	C190	C	0.824403	0.383511	0.122749
	C191	C	0.828806	0.613413	0.883148
	C192	C	0.411265	0.093358	0.599285
	C193	C	0.600887	0.903497	0.602144
	C194	C	0.603950	0.092541	0.403374
	C195	C	0.409259	0.904398	0.406152
	C196	C	0.600949	0.402573	0.094610
	C197	C	0.604743	0.599979	0.910330
	C198	C	0.403266	0.595846	0.094075
	C199	C	0.401077	0.400908	0.909711
	C200	C	0.096643	0.593813	0.403895
	C201	C	0.911861	0.592705	0.601022
	C202	C	0.098761	0.400148	0.606014
	C203	C	0.911028	0.398318	0.405003
	C204	C	0.907831	0.592991	0.102296
	C205	C	0.097960	0.402910	0.100827
	C206	C	0.098664	0.592998	0.905223
	C207	C	0.903923	0.402151	0.906010
	C208	C	0.104922	0.900526	0.593774
	C209	C	0.108075	0.098447	0.410899
	C210	C	0.907103	0.093266	0.594210
	C211	C	0.904608	0.899382	0.409894
	C212	C	0.597888	0.099208	0.902599
	C213	C	0.410964	0.094511	0.101563
	C214	C	0.597492	0.902030	0.102436
	C215	C	0.410513	0.903160	0.904194
	Zn216	Zn	0.505275	-0.000269	0.752299
	Zn217	Zn	0.504453	-0.001306	0.253365
	Zn218	Zn	0.755339	0.500262	0.003589
	Zn219	Zn	0.249491	0.497953	0.001911
	Zn220	Zn	0.005405	0.747031	0.502453
	Zn221	Zn	0.007027	0.248764	0.503461
	Zn222	Zn	0.002923	0.497218	0.755261
	Zn223	Zn	0.002707	0.495886	0.252909
	Zn224	Zn	0.503703	0.750537	0.002268
	Zn225	Zn	0.503007	0.248837	0.001976
	Zn226	Zn	0.753369	-0.003140	0.502330
	Zn227	Zn	0.259396	-0.000939	0.502630
	N228	N	0.419096	0.962985	0.682353
	N229	N	0.593269	0.035194	0.682176
	N230	N	0.592712	0.962082	0.321825
	N231	N	0.418872	0.034995	0.323268
	N232	N	0.683889	0.413631	0.966785
	N233	N	0.686806	0.589774	0.038356
	N234	N	0.320715	0.586754	0.966366
	N235	N	0.319777	0.410061	0.038180
	N236	N	0.966881	0.674453	0.417823
	N237	N	0.042578	0.674103	0.587196
	N238	N	0.968616	0.318384	0.589364
	N239	N	0.044171	0.324406	0.422530
	N240	N	0.968727	0.407194	0.686217
	N241	N	0.039737	0.584505	0.684314
	N242	N	0.967485	0.584512	0.321838
	N243	N	0.038009	0.405974	0.320191
	N244	N	0.418447	0.677785	0.964832
	N245	N	0.588107	0.677587	0.040491
	N246	N	0.585248	0.324670	0.964417
	N247	N	0.415362	0.318621	0.038717
	N248	N	0.681231	0.959562	0.417815
	N249	N	0.682566	0.035230	0.586761
	N250	N	0.329049	0.961911	0.588340
	N251	N	0.330722	0.036548	0.417815
	N252	N	0.915405	0.460887	0.182806
	N253	N	0.088840	0.533423	0.182329
	N254	N	0.087347	0.460878	0.826671
	N255	N	0.914021	0.532303	0.822040
	N256	N	0.187911	0.911830	0.466127
	N257	N	0.190442	0.087649	0.538760
	N258	N	0.825380	0.084342	0.465865
	N259	N	0.822432	0.907669	0.538107
	N260	N	0.466054	0.175655	0.917740
	N261	N	0.541341	0.176443	0.085880
	N262	N	0.466789	0.820795	0.088228
	N263	N	0.541345	0.824519	0.919683
	N264	N	0.468764	0.909783	0.184989
	N265	N	0.540080	0.087433	0.183344
	N266	N	0.470180	0.089979	0.818811
	N267	N	0.540045	0.912537	0.823170
	N268	N	0.924006	0.174174	0.464627
	N269	N	0.092619	0.176698	0.540764
	N270	N	0.090953	0.819988	0.464781
	N271	N	0.919846	0.818363	0.539671
	N272	N	0.178170	0.461003	0.918374
	N273	N	0.180048	0.534579	0.088542
	N274	N	0.825775	0.461705	0.088602
	N275	N	0.828578	0.536232	0.919394
	O276	O	-0.171662	0.017681	0.045585
	H277	H	-0.168641	0.013237	0.053578
	H278	H	-0.168320	0.034729	0.048092
	O279	O	-0.608926	0.589818	-0.668887
	H280	H	-0.609422	0.608967	-0.670260
	H281	H	-0.630067	0.593708	-0.672942
	O282	O	1.053133	-0.113351	0.059719
	H283	H	1.045580	-0.118122	0.070949
	H284	H	1.052254	-0.124147	0.042952
	O285	O	0.109473	1.066263	0.149944
	H286	H	0.112054	1.062289	0.146643
	H287	H	0.121478	1.060762	0.157464
	O288	O	0.417951	0.560018	0.396166
	H289	H	0.429945	0.567565	0.400111
	H290	H	0.423792	0.562243	0.419326
	O291	O	0.508732	0.377702	0.533718
	H292	H	0.503821	0.391980	0.521813
	H293	H	0.512362	0.386696	0.532188
	O294	O	1.015414	0.899623	1.150260
	H295	H	1.019104	0.899004	1.149488
	H296	H	1.003418	0.901847	1.156730
	O297	O	-0.092122	0.082663	-0.170335
	H298	H	-0.086352	0.099872	-0.161297
	H299	H	-0.097397	0.087270	-0.177181
	O300	O	0.582228	0.599877	0.502315
	H301	H	0.592943	0.584242	0.503823
	H302	H	0.585423	0.607367	0.508445
	O303	O	-0.400418	0.482126	1.522429
	H304	H	-0.408527	0.469232	1.517738
	H305	H	-0.397181	0.471040	1.503101
	O306	O	0.594144	0.432292	0.498634
	H307	H	0.594731	0.425713	0.502700
	H308	H	0.586517	0.449063	0.504058
	O309	O	1.028464	0.113608	-0.009396
	H310	H	1.039534	0.107379	-0.016884
	H311	H	1.044487	0.110372	-0.017020
	O312	O	-0.086671	-0.116857	0.895898
	H313	H	-0.085124	-0.106016	0.903873
	H314	H	-0.096201	-0.108862	0.889385
	O315	O	0.304977	1.260160	0.703430
	H316	H	0.299350	1.265815	0.711414
	H317	H	0.319821	1.273940	0.701363
	O318	O	0.483039	0.438871	0.420929
	H319	H	0.466711	0.456062	0.406118
	H320	H	0.481086	0.432033	0.416412
	O321	O	0.614125	0.460000	0.399358
	H322	H	0.618126	0.459952	0.388601
	H323	H	0.612222	0.458586	0.410121
	O324	O	0.481207	0.392434	0.660388
	H325	H	0.486133	0.380307	0.664328
	H326	H	0.482906	0.383882	0.663673
	O327	O	-0.511791	1.630477	1.481214
	H328	H	-0.514593	1.626532	1.467592
	H329	H	-0.505418	1.627456	1.493189
	O330	O	0.330775	0.492872	0.511412
	H331	H	0.337468	0.503899	0.502129
	H332	H	0.328260	0.496544	0.509725
	O333	O	-0.122166	1.106491	0.903079
	H334	H	-0.125302	1.120293	0.896522
	H335	H	-0.111844	1.103520	0.916834
	O336	O	0.655858	0.638006	0.603584
	H337	H	0.658915	0.637042	0.587887
	H338	H	0.658989	0.616163	0.615812
	O339	O	1.116443	1.161531	0.035207
	H340	H	1.121230	1.159858	0.040740
	H341	H	1.130996	1.159990	0.023777
	O342	O	0.958899	-0.127044	0.092476
	H343	H	0.947637	-0.129377	0.114065
	H344	H	0.941349	-0.116126	0.080760
	O345	O	0.413780	0.473697	0.598064
	H346	H	0.405682	0.472601	0.597322
	H347	H	0.410239	0.470883	0.600881
	O348	O	0.481667	0.527947	0.591866
	H349	H	0.488891	0.526431	0.582397
	H350	H	0.490417	0.523292	0.605748
	O351	O	1.024362	1.109041	-0.032320
	H352	H	1.034696	1.104043	-0.032287
	H353	H	1.033723	1.104655	-0.040418
	O354	O	1.070692	-0.010757	0.874583
	H355	H	1.068329	-0.027654	0.879593
	H356	H	1.072740	-0.006755	0.863573
	O357	O	0.392371	0.493688	0.401972
	H358	H	0.395802	0.500044	0.415313
	H359	H	0.378279	0.498900	0.405131
	O360	O	0.030606	-0.047584	-0.041909
	H361	H	0.028707	-0.062593	-0.051749
	H362	H	0.032310	-0.060018	-0.024221
	O363	O	0.510185	0.549227	0.621917
	H364	H	0.528747	0.552414	0.629580
	H365	H	0.505904	0.550744	0.611350
	O366	O	1.097830	0.836757	0.983172
	H367	H	1.083059	0.839819	0.978984
	H368	H	1.097623	0.832309	0.990375
	O369	O	1.145776	0.062160	0.085172
	H370	H	1.151492	0.047669	0.090007
	H371	H	1.142939	0.051424	0.092068
	O372	O	0.540235	0.608574	0.483690
	H373	H	0.558734	0.618050	0.486791
	H374	H	0.531944	0.600407	0.481396
	O375	O	0.579896	0.483016	0.388609
	H376	H	0.595725	0.468745	0.389709
	H377	H	0.566350	0.479495	0.376926
	O378	O	0.488274	0.364007	0.474684
	H379	H	0.475977	0.362083	0.487398
	H380	H	0.477405	0.364361	0.479988
	O381	O	0.371428	0.499967	0.488291
	H382	H	0.363820	0.510870	0.503603
	H383	H	0.369802	0.502537	0.486936
	O384	O	0.018823	0.827043	-0.129656
	H385	H	0.008999	0.818076	-0.136834
	H386	H	-0.001245	0.838572	-0.129767
	O387	O	0.916409	0.121965	1.058213
	H388	H	0.932242	0.121538	1.054253
	H389	H	0.928566	0.119777	1.055849
	O390	O	0.083330	0.905221	0.133779
	H391	H	0.079422	0.910476	0.133239
	H392	H	0.074960	0.892942	0.130302
	O393	O	1.016161	1.093103	-0.017778
	H394	H	1.014045	1.092709	-0.004289
	H395	H	1.025450	1.097711	-0.016112
	O396	O	0.675198	0.420033	0.319046
	H397	H	0.677941	0.404766	0.314555
	H398	H	0.684807	0.409451	0.313310
	O399	O	0.012902	1.039730	0.910800
	H400	H	0.026587	1.037109	0.912061
	H401	H	0.000814	1.045529	0.902180
	O402	O	0.846965	0.902930	1.121628
	H403	H	0.843488	0.903816	1.122780
	H404	H	0.840122	0.906208	1.131858
	O405	O	0.613994	0.616620	0.631228
	H406	H	0.606033	0.609804	0.628371
	H407	H	0.639444	0.603332	0.636359
