data_Molecule from HDF5

_cell_length_a		16.277165
_cell_length_b		16.370986
_cell_length_c		16.229290
_cell_angle_alpha	90.046215
_cell_angle_beta	89.795869
_cell_angle_gamma	90.141122
_symmetry_space_group_name_H-M	'P 1'
_symmetry_Int_Tables_number		1

loop_
	_symmetry_equiv_pos_as_xyz
	x,y,z

loop_
	_atom_site_label
	_atom_site_type_symbol
	_atom_site_fract_x
	_atom_site_fract_y
	_atom_site_fract_z
	H0	H	0.396694	0.836506	0.716728
	H1	H	0.596388	0.162292	0.716230
	H2	H	0.596331	0.835643	0.283837
	H3	H	0.400031	0.161868	0.287573
	H4	H	0.709403	0.400565	0.836339
	H5	H	0.711187	0.598380	0.165374
	H6	H	0.283412	0.595392	0.836291
	H7	H	0.280508	0.400277	0.164266
	H8	H	0.833561	0.715443	0.399856
	H9	H	0.159550	0.715394	0.600374
	H10	H	0.834247	0.283249	0.600756
	H11	H	0.158945	0.283550	0.398416
	H12	H	0.833382	0.400181	0.714983
	H13	H	0.160464	0.597623	0.714311
	H14	H	0.831815	0.595270	0.287916
	H15	H	0.160207	0.401465	0.286183
	H16	H	0.396933	0.713874	0.837200
	H17	H	0.595265	0.714666	0.165256
	H18	H	0.596140	0.283312	0.838178
	H19	H	0.394591	0.283600	0.164212
	H20	H	0.712772	0.836259	0.400442
	H21	H	0.711901	0.162115	0.598970
	H22	H	0.278590	0.837099	0.602220
	H23	H	0.282158	0.161565	0.402198
	H24	H	0.895919	0.335013	0.215633
	H25	H	0.094482	0.660844	0.216509
	H26	H	0.094580	0.335720	0.784897
	H27	H	0.898053	0.661434	0.785495
	H28	H	0.211565	0.901387	0.337835
	H29	H	0.209861	0.098343	0.665185
	H30	H	0.783516	0.097130	0.336695
	H31	H	0.780745	0.899677	0.665108
	H32	H	0.333064	0.213998	0.900570
	H33	H	0.658296	0.216296	0.101389
	H34	H	0.333604	0.782724	0.101846
	H35	H	0.659561	0.781558	0.898831
	H36	H	0.332909	0.899304	0.215900
	H37	H	0.660485	0.096028	0.213112
	H38	H	0.331905	0.094443	0.788463
	H39	H	0.660890	0.901416	0.785954
	H40	H	0.897748	0.214192	0.337308
	H41	H	0.096851	0.216401	0.663274
	H42	H	0.098013	0.784255	0.337234
	H43	H	0.895210	0.782945	0.663981
	H44	H	0.211002	0.335904	0.900571
	H45	H	0.212495	0.661032	0.100931
	H46	H	0.779413	0.336283	0.100882
	H47	H	0.781936	0.661896	0.902647
	H48	H	0.402433	0.114353	0.592906
	H49	H	0.588988	0.881958	0.601238
	H50	H	0.590719	0.116439	0.398281
	H51	H	0.402928	0.884173	0.410961
	H52	H	0.585257	0.408576	0.116559
	H53	H	0.584100	0.601190	0.883449
	H54	H	0.393332	0.589461	0.119878
	H55	H	0.400652	0.400211	0.880609
	H56	H	0.117187	0.597990	0.397275
	H57	H	0.881148	0.596072	0.586612
	H58	H	0.112633	0.416598	0.597751
	H59	H	0.881467	0.415232	0.406813
	H60	H	0.116917	0.398093	0.596744
	H61	H	0.882519	0.585298	0.592912
	H62	H	0.111723	0.599506	0.417524
	H63	H	0.876067	0.399610	0.402639
	H64	H	0.409385	0.582001	0.112862
	H65	H	0.598905	0.589044	0.882838
	H66	H	0.586488	0.403896	0.118507
	H67	H	0.401122	0.411323	0.884740
	H68	H	0.583105	0.110306	0.410328
	H69	H	0.582259	0.887567	0.589957
	H70	H	0.403817	0.115079	0.595978
	H71	H	0.401949	0.882678	0.407932
	H72	H	0.893472	0.616450	0.093567
	H73	H	0.083123	0.385243	0.090070
	H74	H	0.087495	0.614291	0.905655
	H75	H	0.901545	0.381125	0.901445
	H76	H	0.086888	0.912459	0.616355
	H77	H	0.087176	0.086558	0.386646
	H78	H	0.904249	0.086236	0.615189
	H79	H	0.914970	0.907430	0.387576
	H80	H	0.613101	0.088707	0.903683
	H81	H	0.381577	0.090427	0.088330
	H82	H	0.614758	0.902092	0.094022
	H83	H	0.381929	0.904210	0.911757
	H84	H	0.611189	0.906082	0.086083
	H85	H	0.379241	0.087266	0.097535
	H86	H	0.614738	0.099629	0.909081
	H87	H	0.381535	0.907931	0.908254
	H88	H	0.908761	0.095463	0.617012
	H89	H	0.086648	0.097330	0.383248
	H90	H	0.082662	0.904508	0.616656
	H91	H	0.901992	0.897960	0.381564
	H92	H	0.089159	0.612651	0.910517
	H93	H	0.093971	0.381833	0.089414
	H94	H	0.909088	0.614636	0.103610
	H95	H	0.907521	0.385392	0.909322
	H96	H	0.405748	0.114312	0.593726
	H97	H	0.595891	0.882824	0.588608
	H98	H	0.597897	0.115277	0.411861
	H99	H	0.404948	0.883689	0.408112
	H100	H	0.589836	0.407134	0.118491
	H101	H	0.581781	0.582543	0.890378
	H102	H	0.408561	0.600313	0.118348
	H103	H	0.410345	0.404737	0.886147
	H104	H	0.108303	0.581309	0.407284
	H105	H	0.877342	0.594627	0.598340
	H106	H	0.110978	0.406821	0.581040
	H107	H	0.881861	0.401963	0.418387
	H108	H	0.909098	0.609781	0.085021
	H109	H	0.088781	0.380929	0.099611
	H110	H	0.091967	0.615250	0.906937
	H111	H	0.897163	0.382400	0.911297
	H112	H	0.091459	0.905793	0.619748
	H113	H	0.095711	0.092047	0.382124
	H114	H	0.899032	0.094419	0.620136
	H115	H	0.899240	0.915215	0.385282
	H116	H	0.609871	0.090377	0.915171
	H117	H	0.377579	0.097050	0.094948
	H118	H	0.611281	0.911157	0.094121
	H119	H	0.378859	0.903464	0.906979
	C120	C	0.374153	0.007436	0.623226
	C121	C	0.618346	0.991315	0.622351
	C122	C	0.619401	0.006824	0.377701
	C123	C	0.375208	0.990667	0.380129
	C124	C	0.616424	0.378239	0.009222
	C125	C	0.617696	0.620309	0.993513
	C126	C	0.374924	0.619713	0.009018
	C127	C	0.374142	0.376958	0.991977
	C128	C	0.004472	0.620922	0.378585
	C129	C	0.988190	0.620772	0.621870
	C130	C	0.005852	0.377889	0.621210
	C131	C	0.987689	0.377403	0.379325
	C132	C	0.873921	0.506589	0.123132
	C133	C	0.117599	0.490087	0.122216
	C134	C	0.118000	0.506598	0.878786
	C135	C	0.874215	0.490571	0.878687
	C136	C	0.117218	0.878378	0.509467
	C137	C	0.118489	0.121180	0.492279
	C138	C	0.875683	0.120479	0.509172
	C139	C	0.875436	0.877478	0.492919
	C140	C	0.504342	0.120635	0.879611
	C141	C	0.487379	0.120682	0.122516
	C142	C	0.504747	0.877425	0.121671
	C143	C	0.488766	0.876771	0.879251
	C144	C	0.376080	0.885062	0.678792
	C145	C	0.616580	0.113646	0.678171
	C146	C	0.616770	0.884426	0.322053
	C147	C	0.378646	0.113158	0.325017
	C148	C	0.672057	0.380419	0.886027
	C149	C	0.672760	0.618344	0.116638
	C150	C	0.320527	0.616778	0.885342
	C151	C	0.318607	0.379608	0.115526
	C152	C	0.881910	0.676618	0.380442
	C153	C	0.111081	0.676636	0.620147
	C154	C	0.882910	0.321363	0.620618
	C155	C	0.110532	0.322235	0.379594
	C156	C	0.882313	0.379685	0.677206
	C157	C	0.111429	0.618350	0.677009
	C158	C	0.881144	0.617163	0.324415
	C159	C	0.111047	0.380846	0.323803
	C160	C	0.377094	0.675423	0.885954
	C161	C	0.615816	0.676735	0.116285
	C162	C	0.615533	0.322238	0.886564
	C163	C	0.375035	0.321447	0.115310
	C164	C	0.674921	0.884802	0.379646
	C165	C	0.673805	0.113673	0.619909
	C166	C	0.317378	0.885517	0.621992
	C167	C	0.320180	0.112940	0.382148
	C168	C	0.875763	0.384137	0.178207
	C169	C	0.115615	0.612383	0.178258
	C170	C	0.115184	0.384435	0.822755
	C171	C	0.876622	0.612740	0.822976
	C172	C	0.173293	0.880962	0.386396
	C173	C	0.172884	0.119065	0.615721
	C174	C	0.821148	0.117524	0.385460
	C175	C	0.818744	0.879428	0.615928
	C176	C	0.381636	0.175403	0.881068
	C177	C	0.609974	0.177205	0.120880
	C178	C	0.382218	0.821041	0.121679
	C179	C	0.611125	0.820650	0.880024
	C180	C	0.381862	0.879410	0.177920
	C181	C	0.611046	0.117564	0.176530
	C182	C	0.381085	0.116004	0.825360
	C183	C	0.611899	0.880042	0.823816
	C184	C	0.877828	0.175753	0.386030
	C185	C	0.116390	0.177394	0.615057
	C186	C	0.116722	0.822665	0.386363
	C187	C	0.875631	0.821386	0.615439
	C188	C	0.172966	0.384300	0.880379
	C189	C	0.173641	0.612547	0.120421
	C190	C	0.817658	0.384689	0.121224
	C191	C	0.819466	0.613094	0.881764
	C192	C	0.397222	0.092462	0.600737
	C193	C	0.595739	0.906160	0.599971
	C194	C	0.597091	0.092006	0.400371
	C195	C	0.396848	0.905492	0.402411
	C196	C	0.593865	0.400271	0.095697
	C197	C	0.594995	0.597396	0.907783
	C198	C	0.397185	0.597267	0.094923
	C199	C	0.397290	0.398982	0.905990
	C200	C	0.090229	0.599307	0.400792
	C201	C	0.902525	0.598646	0.599292
	C202	C	0.091225	0.400522	0.598376
	C203	C	0.901993	0.399281	0.402524
	C204	C	0.897148	0.591599	0.100638
	C205	C	0.095048	0.404951	0.099699
	C206	C	0.096060	0.592012	0.901131
	C207	C	0.895744	0.405001	0.900867
	C208	C	0.093647	0.900669	0.595459
	C209	C	0.096405	0.098643	0.406066
	C210	C	0.897596	0.098480	0.595334
	C211	C	0.898550	0.900335	0.406951
	C212	C	0.590371	0.099140	0.902380
	C213	C	0.401622	0.098245	0.100220
	C214	C	0.590218	0.899897	0.098164
	C215	C	0.402856	0.898730	0.902234
	Zn216	Zn	0.496821	-0.000729	0.751468
	Zn217	Zn	0.496534	-0.001608	0.250230
	Zn218	Zn	0.745580	0.498631	0.001300
	Zn219	Zn	0.246713	0.498142	0.000468
	Zn220	Zn	-0.003477	0.749351	0.500946
	Zn221	Zn	-0.002777	0.249044	0.500184
	Zn222	Zn	-0.003245	0.498862	0.749667
	Zn223	Zn	-0.004415	0.497745	0.251176
	Zn224	Zn	0.495700	0.748841	0.000969
	Zn225	Zn	0.495323	0.249214	0.000929
	Zn226	Zn	0.747445	-0.000762	0.500497
	Zn227	Zn	0.245567	-0.000715	0.501496
	N228	N	0.410785	0.961775	0.679853
	N229	N	0.582588	0.036543	0.679782
	N230	N	0.583113	0.961216	0.320788
	N231	N	0.412367	0.036307	0.323693
	N232	N	0.672590	0.414416	0.963613
	N233	N	0.674231	0.584314	0.039180
	N234	N	0.319049	0.582834	0.962735
	N235	N	0.317980	0.413291	0.037923
	N236	N	0.959741	0.679035	0.413541
	N237	N	0.033515	0.678490	0.586794
	N238	N	0.960523	0.320089	0.586417
	N239	N	0.032978	0.319761	0.413330
	N240	N	0.959533	0.414028	0.677831
	N241	N	0.034043	0.584187	0.677983
	N242	N	0.958365	0.583406	0.323087
	N243	N	0.033584	0.414364	0.323438
	N244	N	0.410214	0.677166	0.963843
	N245	N	0.582220	0.678048	0.038560
	N246	N	0.581442	0.320823	0.964212
	N247	N	0.409187	0.319818	0.037497
	N248	N	0.676692	0.961905	0.413748
	N249	N	0.675110	0.036651	0.585930
	N250	N	0.316071	0.962601	0.588333
	N251	N	0.318160	0.035897	0.416023
	N252	N	0.910027	0.461027	0.179564
	N253	N	0.081363	0.535629	0.179315
	N254	N	0.081460	0.461570	0.821819
	N255	N	0.910138	0.535711	0.821225
	N256	N	0.173542	0.915079	0.463771
	N257	N	0.174054	0.084881	0.538359
	N258	N	0.819720	0.083733	0.463074
	N259	N	0.818345	0.913678	0.538392
	N260	N	0.459329	0.178547	0.913980
	N261	N	0.531956	0.179314	0.088170
	N262	N	0.459321	0.819931	0.087107
	N263	N	0.533490	0.818751	0.913895
	N264	N	0.459131	0.913913	0.177930
	N265	N	0.533864	0.083165	0.177662
	N266	N	0.458695	0.082646	0.824541
	N267	N	0.534886	0.914358	0.823365
	N268	N	0.910957	0.177637	0.463901
	N269	N	0.083194	0.178647	0.537214
	N270	N	0.082410	0.821142	0.464081
	N271	N	0.909817	0.820010	0.537973
	N272	N	0.174746	0.461160	0.914509
	N273	N	0.175179	0.535489	0.086276
	N274	N	0.816388	0.461781	0.087597
	N275	N	0.817682	0.535963	0.915474
	O276	O	0.995323	0.928849	0.045974
	H277	H	0.991512	0.933201	0.046176
	H278	H	1.002282	0.921850	0.041496
	O279	O	-0.008282	-0.047417	0.004315
	H280	H	-0.011349	-0.045123	0.004004
	H281	H	-0.008338	-0.043922	0.006241
	O282	O	-0.011887	-0.062416	0.995572
	H283	H	-0.009923	-0.066099	1.009654
	H284	H	-0.006366	-0.072513	0.992723
	O285	O	1.004911	0.933369	0.014146
	H286	H	1.008926	0.939759	0.011527
	H287	H	1.001191	0.936727	0.012392
	O288	O	0.546553	0.503806	0.575422
	H289	H	0.551420	0.508986	0.591739
	H290	H	0.545498	0.506070	0.577140
	O291	O	0.564508	0.497875	0.533391
	H292	H	0.577511	0.493481	0.537102
	H293	H	0.564870	0.502781	0.533766
	O294	O	-0.037675	-0.056200	0.022884
	H295	H	-0.035564	-0.070826	0.019618
	H296	H	-0.041748	-0.057673	0.024691
	O297	O	0.554796	0.455952	0.570099
	H298	H	0.547017	0.448604	0.570190
	H299	H	0.559661	0.456410	0.563257
	O300	O	-0.018151	0.961521	0.989844
	H301	H	-0.019566	0.956451	0.984591
	H302	H	-0.010065	0.965947	0.999514
	O303	O	0.522477	0.522980	0.473170
	H304	H	0.517881	0.520448	0.468157
	H305	H	0.531708	0.520300	0.473175
	O306	O	-0.110017	-0.026118	1.061947
	H307	H	-0.116241	-0.029692	1.063037
	H308	H	-0.107418	-0.030936	1.060492
	O309	O	1.121773	0.795723	0.878772
	H310	H	1.121971	0.794581	0.880261
	H311	H	1.107837	0.801297	0.884158
	O312	O	0.568183	0.496907	0.562584
	H313	H	0.566294	0.500722	0.564579
	H314	H	0.566035	0.495804	0.571217
	O315	O	0.538903	0.495565	0.577168
	H316	H	0.529735	0.497247	0.570659
	H317	H	0.545143	0.497395	0.572797
	O318	O	0.060448	0.977422	-0.031209
	H319	H	0.061796	0.981251	-0.027569
	H320	H	0.063320	0.972796	-0.031643
	O321	O	0.926719	0.932610	0.057707
	H322	H	0.916026	0.935411	0.045269
	H323	H	0.921555	0.926041	0.064979
