data_Molecule from HDF5

_cell_length_a		16.251999
_cell_length_b		16.392076
_cell_length_c		16.220141
_cell_angle_alpha	90.018367
_cell_angle_beta	89.785292
_cell_angle_gamma	90.033276
_symmetry_space_group_name_H-M	'P 1'
_symmetry_Int_Tables_number		1

loop_
	_symmetry_equiv_pos_as_xyz
	x,y,z

loop_
	_atom_site_label
	_atom_site_type_symbol
	_atom_site_fract_x
	_atom_site_fract_y
	_atom_site_fract_z
	H0	H	0.397546	0.842967	0.712566
	H1	H	0.596443	0.167646	0.711523
	H2	H	0.595169	0.842161	0.281274
	H3	H	0.399081	0.168540	0.282752
	H4	H	0.712351	0.408091	0.833131
	H5	H	0.710216	0.603934	0.161674
	H6	H	0.283378	0.606438	0.833567
	H7	H	0.283681	0.408594	0.161348
	H8	H	0.833183	0.719408	0.397915
	H9	H	0.160415	0.722347	0.596733
	H10	H	0.834122	0.289695	0.597668
	H11	H	0.159920	0.288682	0.393249
	H12	H	0.833821	0.408195	0.711006
	H13	H	0.161497	0.605038	0.710126
	H14	H	0.832959	0.601765	0.283528
	H15	H	0.161984	0.408727	0.283268
	H16	H	0.398562	0.721766	0.833061
	H17	H	0.597763	0.722403	0.160100
	H18	H	0.599644	0.290671	0.834291
	H19	H	0.397019	0.291056	0.160394
	H20	H	0.713099	0.841881	0.396003
	H21	H	0.712566	0.168033	0.594590
	H22	H	0.282175	0.842936	0.595375
	H23	H	0.282038	0.167167	0.397615
	H24	H	0.899031	0.343287	0.211028
	H25	H	0.094964	0.667994	0.211350
	H26	H	0.097611	0.343515	0.779341
	H27	H	0.899953	0.668998	0.781925
	H28	H	0.211664	0.907325	0.331684
	H29	H	0.209879	0.103344	0.661131
	H30	H	0.784688	0.101069	0.332210
	H31	H	0.783217	0.906802	0.661093
	H32	H	0.335778	0.223343	0.896139
	H33	H	0.661825	0.221167	0.095742
	H34	H	0.335799	0.789848	0.098875
	H35	H	0.661985	0.792051	0.896383
	H36	H	0.333306	0.909930	0.209882
	H37	H	0.661612	0.104602	0.211068
	H38	H	0.333046	0.103589	0.784646
	H39	H	0.661922	0.909155	0.782516
	H40	H	0.896915	0.220417	0.333016
	H41	H	0.095952	0.220795	0.659748
	H42	H	0.097511	0.790287	0.333083
	H43	H	0.895893	0.790056	0.659599
	H44	H	0.214456	0.343696	0.896977
	H45	H	0.212342	0.668806	0.095835
	H46	H	0.782255	0.343360	0.095282
	H47	H	0.783056	0.668996	0.897877
	H48	H	0.408343	0.118255	0.586576
	H49	H	0.585160	0.891115	0.591477
	H50	H	0.593526	0.122021	0.402025
	H51	H	0.405648	0.890606	0.403904
	H52	H	0.589026	0.411066	0.114665
	H53	H	0.584315	0.597698	0.881977
	H54	H	0.414240	0.600809	0.111452
	H55	H	0.407259	0.416387	0.881021
	H56	H	0.115694	0.601232	0.399725
	H57	H	0.884108	0.598959	0.580190
	H58	H	0.115596	0.406114	0.588150
	H59	H	0.879705	0.407406	0.404311
	H60	H	0.110696	0.413930	0.580203
	H61	H	0.881741	0.591158	0.593076
	H62	H	0.113413	0.602070	0.408028
	H63	H	0.881621	0.413206	0.406963
	H64	H	0.401638	0.607202	0.116527
	H65	H	0.591992	0.607467	0.877592
	H66	H	0.591914	0.413994	0.114688
	H67	H	0.408170	0.414077	0.880624
	H68	H	0.588792	0.119445	0.402845
	H69	H	0.591748	0.890678	0.584205
	H70	H	0.396937	0.122342	0.587966
	H71	H	0.402578	0.888953	0.404034
	H72	H	0.900517	0.621654	0.086134
	H73	H	0.094060	0.393458	0.075604
	H74	H	0.095044	0.623346	0.898841
	H75	H	0.900752	0.391373	0.909357
	H76	H	0.094190	0.924548	0.610946
	H77	H	0.091941	0.090976	0.381035
	H78	H	0.912505	0.109470	0.614759
	H79	H	0.912623	0.908784	0.381030
	H80	H	0.612490	0.098032	0.908041
	H81	H	0.382502	0.101999	0.086740
	H82	H	0.615495	0.913187	0.090420
	H83	H	0.379615	0.913464	0.898436
	H84	H	0.614456	0.911952	0.086022
	H85	H	0.382581	0.096731	0.088748
	H86	H	0.615191	0.097064	0.899945
	H87	H	0.380136	0.906254	0.908370
	H88	H	0.891570	0.097687	0.617225
	H89	H	0.082508	0.099922	0.381243
	H90	H	0.076619	0.910781	0.609975
	H91	H	0.898843	0.905612	0.375654
	H92	H	0.085272	0.619455	0.902991
	H93	H	0.101146	0.385257	0.096987
	H94	H	0.903106	0.623303	0.095173
	H95	H	0.902190	0.388743	0.897127
	H96	H	0.404824	0.123032	0.597081
	H97	H	0.593719	0.887304	0.592355
	H98	H	0.592051	0.119691	0.406791
	H99	H	0.404953	0.889277	0.401529
	H100	H	0.588490	0.414488	0.113744
	H101	H	0.597250	0.595212	0.879586
	H102	H	0.401803	0.592594	0.113133
	H103	H	0.405854	0.414426	0.880009
	H104	H	0.112160	0.594055	0.404348
	H105	H	0.878396	0.605689	0.592071
	H106	H	0.113896	0.417823	0.591459
	H107	H	0.879384	0.413133	0.400020
	H108	H	0.908582	0.620063	0.088925
	H109	H	0.078650	0.391617	0.094176
	H110	H	0.093784	0.619925	0.909434
	H111	H	0.911975	0.393105	0.904184
	H112	H	0.096527	0.903487	0.618309
	H113	H	0.094427	0.102898	0.377067
	H114	H	0.910190	0.087030	0.608298
	H115	H	0.901980	0.919393	0.380952
	H116	H	0.615893	0.103920	0.904670
	H117	H	0.380195	0.100878	0.092072
	H118	H	0.613568	0.916477	0.087454
	H119	H	0.384036	0.918115	0.908501
	C120	C	0.374746	0.013707	0.619288
	C121	C	0.618913	0.997164	0.617755
	C122	C	0.619854	0.012793	0.374526
	C123	C	0.375807	0.996973	0.375118
	C124	C	0.619190	0.385180	0.005809
	C125	C	0.619662	0.628706	0.988289
	C126	C	0.376661	0.628596	0.005455
	C127	C	0.377165	0.385835	0.988624
	C128	C	0.005417	0.627094	0.375324
	C129	C	0.989251	0.627750	0.617548
	C130	C	0.005699	0.384104	0.616861
	C131	C	0.988766	0.383426	0.374730
	C132	C	0.875462	0.514291	0.118594
	C133	C	0.119445	0.497493	0.117994
	C134	C	0.120391	0.514065	0.874154
	C135	C	0.876009	0.498065	0.874531
	C136	C	0.118415	0.884156	0.504869
	C137	C	0.118534	0.127050	0.488010
	C138	C	0.876179	0.126357	0.505097
	C139	C	0.875102	0.882886	0.487698
	C140	C	0.506481	0.128368	0.875197
	C141	C	0.489666	0.128159	0.118169
	C142	C	0.506490	0.885315	0.117338
	C143	C	0.489441	0.884369	0.875546
	C144	C	0.377249	0.891577	0.674495
	C145	C	0.616761	0.119449	0.673050
	C146	C	0.616542	0.890770	0.318787
	C147	C	0.378810	0.119706	0.320456
	C148	C	0.674447	0.387941	0.882172
	C149	C	0.673286	0.625048	0.112251
	C150	C	0.321259	0.626449	0.882424
	C151	C	0.321529	0.388086	0.112281
	C152	C	0.882142	0.681752	0.377373
	C153	C	0.111733	0.684232	0.616478
	C154	C	0.882808	0.328386	0.616813
	C155	C	0.111405	0.327659	0.374829
	C156	C	0.882667	0.387296	0.673208
	C157	C	0.112483	0.625449	0.672497
	C158	C	0.882160	0.622968	0.320856
	C159	C	0.112492	0.387377	0.320061
	C160	C	0.378543	0.684101	0.882251
	C161	C	0.617493	0.684093	0.111507
	C162	C	0.618823	0.329123	0.882958
	C163	C	0.377459	0.329429	0.111623
	C164	C	0.674800	0.890494	0.376248
	C165	C	0.674615	0.119326	0.615229
	C166	C	0.319978	0.891595	0.616182
	C167	C	0.320336	0.119120	0.377390
	C168	C	0.878324	0.391608	0.173010
	C169	C	0.116006	0.619592	0.173646
	C170	C	0.118212	0.391952	0.817967
	C171	C	0.878663	0.620100	0.819114
	C172	C	0.174176	0.886642	0.381235
	C173	C	0.172830	0.124254	0.611694
	C174	C	0.821649	0.122853	0.381365
	C175	C	0.820240	0.886052	0.611634
	C176	C	0.384109	0.184791	0.876336
	C177	C	0.612949	0.183273	0.115924
	C178	C	0.383696	0.829225	0.117341
	C179	C	0.612941	0.829629	0.876572
	C180	C	0.382766	0.888660	0.172724
	C181	C	0.612849	0.125391	0.173383
	C182	C	0.382755	0.125034	0.820858
	C183	C	0.612978	0.888002	0.820048
	C184	C	0.877439	0.181956	0.381944
	C185	C	0.116340	0.182622	0.611123
	C186	C	0.117393	0.828551	0.381709
	C187	C	0.876264	0.827912	0.610873
	C188	C	0.176403	0.392103	0.876106
	C189	C	0.174176	0.620097	0.116044
	C190	C	0.820230	0.391875	0.115693
	C191	C	0.821210	0.620495	0.877359
	C192	C	0.396955	0.099043	0.597156
	C193	C	0.596708	0.911827	0.595561
	C194	C	0.598067	0.098377	0.397294
	C195	C	0.397786	0.911657	0.396892
	C196	C	0.596418	0.406880	0.091990
	C197	C	0.597582	0.606604	0.901879
	C198	C	0.399074	0.606488	0.091585
	C199	C	0.400426	0.408433	0.902915
	C200	C	0.091673	0.605608	0.397534
	C201	C	0.903516	0.605292	0.595052
	C202	C	0.091364	0.406245	0.593315
	C203	C	0.902553	0.404936	0.397280
	C204	C	0.897591	0.599534	0.096634
	C205	C	0.097805	0.412109	0.095411
	C206	C	0.097874	0.598898	0.896926
	C207	C	0.898326	0.412972	0.897004
	C208	C	0.095704	0.906440	0.591058
	C209	C	0.096167	0.104644	0.402031
	C210	C	0.898269	0.104600	0.591230
	C211	C	0.897752	0.904895	0.401396
	C212	C	0.592375	0.106114	0.897455
	C213	C	0.403844	0.106271	0.095747
	C214	C	0.592385	0.907401	0.094525
	C215	C	0.403655	0.906231	0.898440
	Zn216	Zn	0.497291	0.005767	0.747428
	Zn217	Zn	0.497610	0.006146	0.246096
	Zn218	Zn	0.746745	0.506358	-0.003108
	Zn219	Zn	0.249226	0.506449	-0.003009
	Zn220	Zn	-0.003147	0.756135	0.496600
	Zn221	Zn	-0.002787	0.255115	0.496164
	Zn222	Zn	-0.001780	0.506275	0.745142
	Zn223	Zn	-0.002428	0.505093	0.247136
	Zn224	Zn	0.498397	0.756512	-0.003021
	Zn225	Zn	0.498131	0.257227	-0.003210
	Zn226	Zn	0.748396	0.004356	0.496644
	Zn227	Zn	0.246609	0.005329	0.496538
	N228	N	0.410699	0.968647	0.676581
	N229	N	0.582605	0.042560	0.674739
	N230	N	0.583109	0.967927	0.317492
	N231	N	0.412731	0.042840	0.319047
	N232	N	0.674824	0.422081	0.959578
	N233	N	0.674729	0.591346	0.034621
	N234	N	0.319842	0.592852	0.960040
	N235	N	0.321100	0.422165	0.034813
	N236	N	0.959896	0.684420	0.410607
	N237	N	0.034105	0.685507	0.582794
	N238	N	0.960254	0.326366	0.582411
	N239	N	0.033600	0.325222	0.408403
	N240	N	0.960059	0.421284	0.673280
	N241	N	0.035511	0.591011	0.673197
	N242	N	0.959801	0.589636	0.319763
	N243	N	0.035108	0.421376	0.319804
	N244	N	0.412571	0.685375	0.959742
	N245	N	0.585047	0.686466	0.033193
	N246	N	0.584943	0.327492	0.960786
	N247	N	0.411554	0.327854	0.033804
	N248	N	0.676765	0.967370	0.410271
	N249	N	0.675995	0.042182	0.581629
	N250	N	0.318454	0.968564	0.582521
	N251	N	0.318405	0.041986	0.410794
	N252	N	0.911949	0.468545	0.175105
	N253	N	0.082867	0.542305	0.175001
	N254	N	0.084304	0.468842	0.816492
	N255	N	0.912358	0.543110	0.817492
	N256	N	0.174977	0.920444	0.458920
	N257	N	0.174410	0.090332	0.534105
	N258	N	0.820717	0.088849	0.458834
	N259	N	0.819489	0.919736	0.534028
	N260	N	0.461850	0.186814	0.909506
	N261	N	0.535334	0.185089	0.082273
	N262	N	0.461526	0.827084	0.083590
	N263	N	0.535179	0.827295	0.910383
	N264	N	0.460016	0.923006	0.172598
	N265	N	0.535286	0.091913	0.174806
	N266	N	0.460023	0.090812	0.819797
	N267	N	0.535176	0.921184	0.819086
	N268	N	0.910564	0.184236	0.459819
	N269	N	0.083273	0.184339	0.533290
	N270	N	0.083398	0.826938	0.459578
	N271	N	0.909811	0.825975	0.532872
	N272	N	0.177999	0.468952	0.910212
	N273	N	0.176293	0.543215	0.082000
	N274	N	0.818193	0.469150	0.082474
	N275	N	0.819112	0.543457	0.910910
	O276	O	0.338212	0.468596	0.589784
	H277	H	0.337859	0.461060	0.601248
	H278	H	0.339406	0.466573	0.582178
	O279	O	0.482586	0.523168	0.523744
	H280	H	0.480131	0.516490	0.521484
	H281	H	0.478414	0.519779	0.525315
	O282	O	0.512523	0.476527	0.612938
	H283	H	0.512809	0.474822	0.614838
	H284	H	0.506267	0.485694	0.608235
	O285	O	0.058540	0.964596	1.006172
	H286	H	0.068246	0.972210	1.009887
	H287	H	0.066561	0.955421	0.990075
	O288	O	0.499859	0.518072	0.534593
	H289	H	0.500045	0.518591	0.535526
	H290	H	0.496667	0.517167	0.536123
	O291	O	0.056531	-0.037730	0.953471
	H292	H	0.039819	-0.033969	0.955017
	H293	H	0.054895	-0.041401	0.949196
	O294	O	0.533213	0.470013	0.507871
	H295	H	0.537787	0.457027	0.502986
	H296	H	0.539560	0.471432	0.507026
	O297	O	0.527439	0.475569	0.445646
	H298	H	0.517525	0.470637	0.448049
	H299	H	0.538069	0.470893	0.453104
	O300	O	0.448502	0.522700	0.504402
	H301	H	0.453164	0.526644	0.496866
	H302	H	0.440494	0.534547	0.508244
	O303	O	0.484670	0.499655	0.509649
	H304	H	0.489805	0.498541	0.512820
	H305	H	0.480733	0.506681	0.524023
	O306	O	1.037091	-0.048863	1.011668
	H307	H	1.045079	-0.045942	1.009176
	H308	H	1.042625	-0.050987	1.013385
	O309	O	0.580380	0.534989	0.522730
	H310	H	0.569944	0.537384	0.523045
	H311	H	0.584724	0.544819	0.526864
	O312	O	0.447853	0.463383	0.439083
	H313	H	0.445897	0.454721	0.434495
	H314	H	0.451490	0.466839	0.430974
	O315	O	1.012269	-0.048773	0.964836
	H316	H	1.016977	-0.043837	0.970055
	H317	H	1.006098	-0.058983	0.972837
	O318	O	-0.059366	-0.070153	-0.006941
	H319	H	-0.061350	-0.067940	-0.002244
	H320	H	-0.060358	-0.073617	-0.004922
	O321	O	0.556887	0.564823	0.573240
	H322	H	0.562374	0.564856	0.569044
	H323	H	0.554780	0.558176	0.576529
	O324	O	0.993921	-0.076877	-0.006933
	H325	H	0.988903	-0.078622	-0.007136
	H326	H	0.990102	-0.082779	-0.007225
	O327	O	1.004525	0.921863	0.011733
	H328	H	1.012418	0.919755	0.013634
	H329	H	1.003643	0.922768	0.010948
	O330	O	0.444198	0.417571	0.504391
	H331	H	0.447080	0.410922	0.517217
	H332	H	0.446759	0.425273	0.494465
	O333	O	0.459016	0.440415	0.571100
	H334	H	0.455298	0.438450	0.573532
	H335	H	0.461659	0.439809	0.586350
