data_Molecule from HDF5

_cell_length_a		16.298442
_cell_length_b		16.316292
_cell_length_c		16.324417
_cell_angle_alpha	90.024826
_cell_angle_beta	90.030063
_cell_angle_gamma	89.968971
_symmetry_space_group_name_H-M	'P 1'
_symmetry_Int_Tables_number		1

loop_
	_symmetry_equiv_pos_as_xyz
	x,y,z

loop_
	_atom_site_label
	_atom_site_type_symbol
	_atom_site_fract_x
	_atom_site_fract_y
	_atom_site_fract_z
	H0	H	0.397854	0.843295	0.719534
	H1	H	0.592998	0.170204	0.719625
	H2	H	0.594492	0.844102	0.289272
	H3	H	0.395427	0.169985	0.291214
	H4	H	0.709738	0.408285	0.841626
	H5	H	0.709972	0.604665	0.168764
	H6	H	0.279390	0.605315	0.842118
	H7	H	0.279928	0.408898	0.168327
	H8	H	0.831539	0.722233	0.406141
	H9	H	0.158954	0.719757	0.603222
	H10	H	0.831765	0.291023	0.604133
	H11	H	0.159104	0.292059	0.407303
	H12	H	0.831621	0.406665	0.720627
	H13	H	0.158904	0.603670	0.719783
	H14	H	0.831228	0.605244	0.290828
	H15	H	0.158022	0.406958	0.290021
	H16	H	0.396289	0.721606	0.842085
	H17	H	0.594383	0.722411	0.168681
	H18	H	0.593216	0.292223	0.840952
	H19	H	0.395717	0.291836	0.168192
	H20	H	0.710153	0.843168	0.405622
	H21	H	0.709955	0.169264	0.604378
	H22	H	0.281104	0.842756	0.604643
	H23	H	0.280540	0.169697	0.408324
	H24	H	0.895144	0.343107	0.220998
	H25	H	0.092710	0.669471	0.220690
	H26	H	0.094770	0.343176	0.790164
	H27	H	0.895884	0.669603	0.790323
	H28	H	0.209340	0.907753	0.342113
	H29	H	0.208058	0.102927	0.668909
	H30	H	0.780975	0.102916	0.341290
	H31	H	0.779390	0.907590	0.667923
	H32	H	0.331014	0.221086	0.906907
	H33	H	0.658160	0.221518	0.104068
	H34	H	0.331770	0.792440	0.103729
	H35	H	0.658242	0.792739	0.908138
	H36	H	0.331340	0.909378	0.219441
	H37	H	0.657705	0.106452	0.221018
	H38	H	0.330859	0.104856	0.790747
	H39	H	0.658595	0.909397	0.792129
	H40	H	0.897244	0.220205	0.341445
	H41	H	0.092810	0.219803	0.668867
	H42	H	0.092637	0.791487	0.342414
	H43	H	0.896730	0.792467	0.669143
	H44	H	0.209857	0.343657	0.906418
	H45	H	0.206980	0.670767	0.102486
	H46	H	0.780036	0.342786	0.103171
	H47	H	0.781363	0.670263	0.907422
	H48	H	0.395883	0.126560	0.607021
	H49	H	0.580216	0.890862	0.606403
	H50	H	0.580268	0.118429	0.419471
	H51	H	0.403083	0.891811	0.415857
	H52	H	0.592730	0.420014	0.120426
	H53	H	0.581761	0.599790	0.891950
	H54	H	0.400870	0.602028	0.121640
	H55	H	0.398773	0.411280	0.888089
	H56	H	0.112523	0.606898	0.413048
	H57	H	0.876580	0.601253	0.603121
	H58	H	0.111624	0.406288	0.592809
	H59	H	0.878187	0.410124	0.410895
	H60	H	0.108036	0.420359	0.596806
	H61	H	0.879878	0.602954	0.593515
	H62	H	0.108090	0.595179	0.418456
	H63	H	0.879847	0.412768	0.417435
	H64	H	0.400300	0.598642	0.121390
	H65	H	0.590083	0.604745	0.887840
	H66	H	0.579888	0.415555	0.117319
	H67	H	0.400365	0.417624	0.889084
	H68	H	0.595899	0.123782	0.416900
	H69	H	0.583976	0.894074	0.589152
	H70	H	0.410504	0.120482	0.598681
	H71	H	0.397827	0.888786	0.411107
	H72	H	0.903797	0.620476	0.096552
	H73	H	0.090016	0.387495	0.106053
	H74	H	0.074713	0.617432	0.917281
	H75	H	0.912251	0.395127	0.917472
	H76	H	0.087349	0.912327	0.621694
	H77	H	0.088254	0.097600	0.389500
	H78	H	0.905675	0.101208	0.619744
	H79	H	0.907461	0.913264	0.390805
	H80	H	0.608898	0.093457	0.912415
	H81	H	0.379005	0.096981	0.100402
	H82	H	0.611227	0.913737	0.098283
	H83	H	0.380545	0.919055	0.914145
	H84	H	0.610897	0.914172	0.097183
	H85	H	0.377471	0.102861	0.101332
	H86	H	0.613319	0.102520	0.906757
	H87	H	0.376631	0.913119	0.905698
	H88	H	0.898707	0.102483	0.622763
	H89	H	0.087044	0.100623	0.389526
	H90	H	0.088987	0.911678	0.622579
	H91	H	0.900011	0.908998	0.387409
	H92	H	0.097524	0.622890	0.920200
	H93	H	0.080200	0.393134	0.097466
	H94	H	0.898658	0.623413	0.097322
	H95	H	0.892167	0.389732	0.918978
	H96	H	0.395407	0.122055	0.590236
	H97	H	0.597130	0.886812	0.600646
	H98	H	0.585165	0.124147	0.404059
	H99	H	0.404532	0.890183	0.408678
	H100	H	0.589113	0.406638	0.122887
	H101	H	0.590801	0.594891	0.890139
	H102	H	0.403433	0.599884	0.120278
	H103	H	0.404855	0.412724	0.889475
	H104	H	0.111319	0.595278	0.405958
	H105	H	0.881175	0.593505	0.597492
	H106	H	0.113500	0.411051	0.606683
	H107	H	0.879712	0.417099	0.411613
	H108	H	0.902587	0.622952	0.101888
	H109	H	0.092992	0.390843	0.092628
	H110	H	0.087003	0.626273	0.899447
	H111	H	0.902351	0.386906	0.900930
	H112	H	0.088866	0.913514	0.621669
	H113	H	0.090083	0.099639	0.388222
	H114	H	0.900623	0.095411	0.620024
	H115	H	0.899552	0.917982	0.390076
	H116	H	0.609734	0.103281	0.917888
	H117	H	0.379087	0.101151	0.095264
	H118	H	0.610786	0.915070	0.098069
	H119	H	0.377619	0.908827	0.915291
	C120	C	0.373059	0.014866	0.627259
	C121	C	0.615923	0.998520	0.627031
	C122	C	0.615997	0.014801	0.384152
	C123	C	0.373270	0.998204	0.384009
	C124	C	0.616368	0.385060	0.012705
	C125	C	0.616727	0.628689	0.997359
	C126	C	0.372664	0.628692	0.013455
	C127	C	0.372903	0.385381	0.996929
	C128	C	0.003000	0.627991	0.384128
	C129	C	0.987114	0.627530	0.626910
	C130	C	0.002982	0.384135	0.627037
	C131	C	0.987163	0.384599	0.384467
	C132	C	0.873051	0.514435	0.126949
	C133	C	0.116069	0.498413	0.127146
	C134	C	0.115839	0.514393	0.883641
	C135	C	0.873332	0.498127	0.883263
	C136	C	0.116840	0.884125	0.514059
	C137	C	0.116384	0.127297	0.497289
	C138	C	0.873216	0.127518	0.512866
	C139	C	0.873347	0.884623	0.496990
	C140	C	0.502618	0.128256	0.883634
	C141	C	0.486582	0.129139	0.127245
	C142	C	0.503212	0.885658	0.126893
	C143	C	0.486596	0.885552	0.883890
	C144	C	0.376559	0.892009	0.682145
	C145	C	0.613535	0.121270	0.681641
	C146	C	0.614532	0.892408	0.327739
	C147	C	0.375553	0.121266	0.329490
	C148	C	0.672107	0.387283	0.890299
	C149	C	0.672171	0.625739	0.119975
	C150	C	0.317499	0.625922	0.890601
	C151	C	0.317721	0.388053	0.119661
	C152	C	0.880223	0.683893	0.386009
	C153	C	0.110064	0.682369	0.624372
	C154	C	0.880294	0.329091	0.624410
	C155	C	0.110253	0.329694	0.386675
	C156	C	0.880289	0.386608	0.682234
	C157	C	0.109954	0.624667	0.682157
	C158	C	0.880158	0.625740	0.328841
	C159	C	0.109901	0.387166	0.328878
	C160	C	0.375421	0.683674	0.890672
	C161	C	0.614538	0.683974	0.120044
	C162	C	0.614115	0.329805	0.889931
	C163	C	0.375335	0.330017	0.119558
	C164	C	0.671487	0.891797	0.385901
	C165	C	0.671693	0.120678	0.624465
	C166	C	0.319000	0.891641	0.624651
	C167	C	0.318177	0.121061	0.387240
	C168	C	0.874702	0.391770	0.182826
	C169	C	0.113347	0.621062	0.182172
	C170	C	0.114601	0.391862	0.828193
	C171	C	0.875557	0.620964	0.828166
	C172	C	0.171852	0.886732	0.391022
	C173	C	0.170841	0.124280	0.620027
	C174	C	0.818500	0.124281	0.390108
	C175	C	0.817776	0.886945	0.619709
	C176	C	0.379789	0.183336	0.886321
	C177	C	0.609237	0.184079	0.124581
	C178	C	0.380349	0.830400	0.124423
	C179	C	0.609706	0.830830	0.886999
	C180	C	0.380198	0.888385	0.181846
	C181	C	0.609291	0.126398	0.182382
	C182	C	0.379696	0.125793	0.828605
	C183	C	0.609670	0.888572	0.829371
	C184	C	0.876191	0.182593	0.390256
	C185	C	0.113806	0.182498	0.620009
	C186	C	0.113805	0.829175	0.391032
	C187	C	0.875882	0.829719	0.620091
	C188	C	0.172115	0.392283	0.885706
	C189	C	0.170426	0.621417	0.124115
	C190	C	0.817739	0.391597	0.124189
	C191	C	0.818547	0.621305	0.886300
	C192	C	0.394327	0.100870	0.605103
	C193	C	0.593659	0.912418	0.605130
	C194	C	0.593690	0.100050	0.406810
	C195	C	0.395456	0.912605	0.405465
	C196	C	0.593760	0.407287	0.098128
	C197	C	0.594055	0.606560	0.912029
	C198	C	0.394900	0.606602	0.098982
	C199	C	0.394911	0.407301	0.911101
	C200	C	0.088582	0.605601	0.406017
	C201	C	0.901444	0.605595	0.604707
	C202	C	0.088766	0.406183	0.605015
	C203	C	0.901398	0.406756	0.406724
	C204	C	0.895354	0.600031	0.105236
	C205	C	0.094262	0.412799	0.105258
	C206	C	0.092971	0.600145	0.905792
	C207	C	0.895726	0.412657	0.905682
	C208	C	0.094845	0.906022	0.599864
	C209	C	0.094792	0.105600	0.411308
	C210	C	0.895105	0.105964	0.598781
	C211	C	0.895710	0.906863	0.411559
	C212	C	0.588652	0.106175	0.905859
	C213	C	0.400578	0.106890	0.105473
	C214	C	0.588875	0.907955	0.104584
	C215	C	0.400463	0.907124	0.905535
	Zn216	Zn	0.494390	0.006877	0.755409
	Zn217	Zn	0.494998	0.006935	0.255429
	Zn218	Zn	0.745327	0.506641	0.004722
	Zn219	Zn	0.244104	0.507094	0.005126
	Zn220	Zn	-0.005477	0.756204	0.505863
	Zn221	Zn	-0.004955	0.256133	0.505141
	Zn222	Zn	-0.005293	0.506072	0.755417
	Zn223	Zn	-0.005340	0.505896	0.255795
	Zn224	Zn	0.494925	0.757263	0.005502
	Zn225	Zn	0.494452	0.256887	0.004895
	Zn226	Zn	0.744400	0.005612	0.505042
	Zn227	Zn	0.245021	0.006050	0.505263
	N228	N	0.409424	0.969560	0.683836
	N229	N	0.579544	0.044213	0.683145
	N230	N	0.580574	0.969656	0.326745
	N231	N	0.409192	0.043848	0.327235
	N232	N	0.673644	0.420964	0.967572
	N233	N	0.673249	0.591793	0.042849
	N234	N	0.315719	0.592619	0.967904
	N235	N	0.316088	0.421746	0.042453
	N236	N	0.957551	0.685180	0.419817
	N237	N	0.032708	0.684327	0.590755
	N238	N	0.957623	0.327560	0.590671
	N239	N	0.033069	0.328130	0.420448
	N240	N	0.957632	0.420188	0.683840
	N241	N	0.032477	0.591274	0.683748
	N242	N	0.957273	0.591498	0.327513
	N243	N	0.032279	0.420700	0.327455
	N244	N	0.409041	0.685636	0.968058
	N245	N	0.580717	0.685936	0.042828
	N246	N	0.579983	0.328442	0.967010
	N247	N	0.408811	0.328315	0.042185
	N248	N	0.672535	0.968843	0.420182
	N249	N	0.673408	0.043137	0.591251
	N250	N	0.316885	0.968960	0.590889
	N251	N	0.316888	0.043806	0.420595
	N252	N	0.908432	0.469051	0.184657
	N253	N	0.080260	0.543559	0.184409
	N254	N	0.080339	0.468938	0.826915
	N255	N	0.908833	0.543540	0.826277
	N256	N	0.173933	0.919984	0.468440
	N257	N	0.172578	0.090809	0.542762
	N258	N	0.816605	0.090837	0.467351
	N259	N	0.816157	0.920491	0.542479
	N260	N	0.457188	0.184762	0.919914
	N261	N	0.532045	0.185604	0.090936
	N262	N	0.457851	0.828601	0.090889
	N263	N	0.532184	0.828800	0.920135
	N264	N	0.457609	0.921930	0.183400
	N265	N	0.531735	0.093103	0.184289
	N266	N	0.457203	0.092265	0.826878
	N267	N	0.532058	0.921900	0.827443
	N268	N	0.909457	0.184709	0.467624
	N269	N	0.080426	0.184441	0.542584
	N270	N	0.080507	0.827317	0.468528
	N271	N	0.909664	0.828115	0.542768
	N272	N	0.172936	0.469547	0.919567
	N273	N	0.171886	0.544198	0.090240
	N274	N	0.816778	0.468744	0.090160
	N275	N	0.817250	0.543947	0.919995
	O276	O	0.019050	-0.003804	0.962781
	H277	H	0.021193	-0.001600	0.958923
	H278	H	0.024171	-0.002030	0.958492
	O279	O	0.549528	0.525704	0.443212
	H280	H	0.555838	0.531090	0.437038
	H281	H	0.544601	0.521762	0.439557
	O282	O	0.485188	0.529735	0.482496
	H283	H	0.484748	0.531321	0.482042
	H284	H	0.486090	0.532225	0.481862
	O285	O	0.506093	0.539329	0.479814
	H286	H	0.506603	0.535063	0.472250
	H287	H	0.516258	0.542484	0.478777
	O288	O	0.473924	0.537197	0.466289
	H289	H	0.477455	0.541210	0.464054
	H290	H	0.470491	0.543096	0.461358
	O291	O	0.397948	0.706657	0.695693
	H292	H	0.398619	0.710612	0.690094
	H293	H	0.406395	0.709035	0.701016
	O294	O	0.500274	0.493769	0.477203
	H295	H	0.494037	0.487316	0.470823
	H296	H	0.502689	0.488915	0.485951
	O297	O	1.523492	-0.501627	-0.521185
	H298	H	1.522729	-0.507404	-0.515873
	H299	H	1.522796	-0.496012	-0.516559
