data_Molecule from HDF5

_cell_length_a		16.244721
_cell_length_b		16.231995
_cell_length_c		16.348411
_cell_angle_alpha	90.072490
_cell_angle_beta	89.990403
_cell_angle_gamma	89.237315
_symmetry_space_group_name_H-M	'P 1'
_symmetry_Int_Tables_number		1

loop_
	_symmetry_equiv_pos_as_xyz
	x,y,z

loop_
	_atom_site_label
	_atom_site_type_symbol
	_atom_site_fract_x
	_atom_site_fract_y
	_atom_site_fract_z
	H0	H	0.406050	0.842523	0.715056
	H1	H	0.603583	0.168960	0.715978
	H2	H	0.609112	0.841475	0.283221
	H3	H	0.402961	0.168342	0.281497
	H4	H	0.725678	0.403257	0.836177
	H5	H	0.719753	0.601629	0.163205
	H6	H	0.288876	0.608156	0.838284
	H7	H	0.293348	0.406658	0.161918
	H8	H	0.843202	0.723177	0.401312
	H9	H	0.170017	0.719549	0.598523
	H10	H	0.841577	0.296732	0.597259
	H11	H	0.168680	0.288537	0.399862
	H12	H	0.844797	0.408482	0.717292
	H13	H	0.170716	0.605555	0.714626
	H14	H	0.844405	0.610466	0.281679
	H15	H	0.170496	0.403463	0.285091
	H16	H	0.406136	0.720228	0.836435
	H17	H	0.606111	0.721150	0.161484
	H18	H	0.609467	0.287309	0.835998
	H19	H	0.411089	0.291040	0.161614
	H20	H	0.725575	0.843105	0.398351
	H21	H	0.715685	0.171930	0.595836
	H22	H	0.294308	0.841378	0.596750
	H23	H	0.288565	0.169241	0.399867
	H24	H	0.909436	0.342845	0.215668
	H25	H	0.107982	0.668666	0.216193
	H26	H	0.111368	0.343940	0.781487
	H27	H	0.904329	0.670167	0.784069
	H28	H	0.224690	0.902956	0.336973
	H29	H	0.222476	0.107129	0.660564
	H30	H	0.786734	0.110236	0.336280
	H31	H	0.791172	0.908949	0.661301
	H32	H	0.344556	0.224582	0.898481
	H33	H	0.671307	0.216428	0.097708
	H34	H	0.342193	0.792896	0.096974
	H35	H	0.668869	0.786787	0.898205
	H36	H	0.343287	0.905607	0.214154
	H37	H	0.669011	0.104103	0.216584
	H38	H	0.343116	0.109214	0.782790
	H39	H	0.669218	0.901436	0.782244
	H40	H	0.902757	0.225626	0.336717
	H41	H	0.103181	0.220817	0.661568
	H42	H	0.109739	0.786958	0.337406
	H43	H	0.906510	0.792862	0.661198
	H44	H	0.225089	0.342741	0.900193
	H45	H	0.220804	0.670176	0.099172
	H46	H	0.797336	0.341179	0.098251
	H47	H	0.788785	0.669164	0.900130
	H48	H	0.419492	0.118997	0.587348
	H49	H	0.595291	0.891850	0.588112
	H50	H	0.602504	0.123205	0.410255
	H51	H	0.417986	0.886997	0.398843
	H52	H	0.596023	0.399525	0.116681
	H53	H	0.597090	0.598757	0.884218
	H54	H	0.420732	0.597292	0.113190
	H55	H	0.407701	0.413635	0.880980
	H56	H	0.121842	0.598137	0.414668
	H57	H	0.893477	0.590330	0.592839
	H58	H	0.122838	0.414765	0.591841
	H59	H	0.887432	0.419231	0.396483
	H60	H	0.124398	0.410763	0.592029
	H61	H	0.885872	0.605733	0.601237
	H62	H	0.121174	0.588704	0.404015
	H63	H	0.888383	0.410142	0.410441
	H64	H	0.412877	0.604325	0.117345
	H65	H	0.602265	0.594980	0.882239
	H66	H	0.615405	0.408728	0.118669
	H67	H	0.418871	0.421910	0.886459
	H68	H	0.593334	0.124193	0.396296
	H69	H	0.605653	0.888864	0.587668
	H70	H	0.405453	0.122999	0.587098
	H71	H	0.420819	0.891734	0.409546
	H72	H	0.910146	0.623981	0.093641
	H73	H	0.103426	0.388474	0.093162
	H74	H	0.091560	0.621054	0.904951
	H75	H	0.919928	0.390435	0.907048
	H76	H	0.095151	0.908307	0.614283
	H77	H	0.091769	0.097422	0.385443
	H78	H	0.908721	0.096276	0.613611
	H79	H	0.918961	0.910103	0.382778
	H80	H	0.618463	0.084937	0.910082
	H81	H	0.391524	0.099716	0.087153
	H82	H	0.622351	0.909853	0.087555
	H83	H	0.388695	0.911303	0.907334
	H84	H	0.622308	0.915317	0.091053
	H85	H	0.392298	0.096016	0.090529
	H86	H	0.624708	0.093645	0.895407
	H87	H	0.390766	0.917770	0.906810
	H88	H	0.916002	0.102864	0.613179
	H89	H	0.099042	0.100315	0.381840
	H90	H	0.107031	0.912445	0.616947
	H91	H	0.909900	0.916502	0.381731
	H92	H	0.099606	0.621252	0.913121
	H93	H	0.098387	0.390135	0.092432
	H94	H	0.918447	0.621816	0.093098
	H95	H	0.918057	0.389977	0.906193
	H96	H	0.413279	0.124434	0.599056
	H97	H	0.600036	0.887602	0.596549
	H98	H	0.587334	0.117901	0.410349
	H99	H	0.409607	0.887659	0.407803
	H100	H	0.598351	0.420195	0.110419
	H101	H	0.596736	0.592292	0.885863
	H102	H	0.410384	0.593853	0.115024
	H103	H	0.421596	0.407527	0.882278
	H104	H	0.126405	0.601552	0.401419
	H105	H	0.890873	0.606900	0.583249
	H106	H	0.122484	0.412461	0.588076
	H107	H	0.894321	0.426286	0.410757
	H108	H	0.912912	0.620947	0.085890
	H109	H	0.101652	0.390131	0.089080
	H110	H	0.102258	0.625521	0.903585
	H111	H	0.919714	0.389714	0.905148
	H112	H	0.097491	0.920714	0.611694
	H113	H	0.098865	0.092644	0.383867
	H114	H	0.907360	0.105967	0.616267
	H115	H	0.918775	0.920995	0.385752
	H116	H	0.624629	0.102676	0.911904
	H117	H	0.389302	0.099732	0.090946
	H118	H	0.623762	0.910657	0.093632
	H119	H	0.387909	0.914205	0.901671
	C120	C	0.384676	0.013713	0.619844
	C121	C	0.627059	0.997901	0.619752
	C122	C	0.626822	0.014300	0.376444
	C123	C	0.384487	0.996608	0.376238
	C124	C	0.632452	0.380471	0.007514
	C125	C	0.627799	0.625238	0.991344
	C126	C	0.384801	0.627853	0.008040
	C127	C	0.387642	0.385168	0.990624
	C128	C	0.015771	0.628005	0.376977
	C129	C	0.998262	0.628769	0.621058
	C130	C	0.015218	0.385146	0.620417
	C131	C	0.997832	0.385890	0.376914
	C132	C	0.886246	0.514279	0.120824
	C133	C	0.129330	0.497586	0.120750
	C134	C	0.129488	0.515043	0.877476
	C135	C	0.886948	0.498009	0.877504
	C136	C	0.129398	0.883378	0.507163
	C137	C	0.126102	0.126716	0.490607
	C138	C	0.881415	0.131198	0.507015
	C139	C	0.886260	0.887086	0.490682
	C140	C	0.515197	0.126025	0.876782
	C141	C	0.498714	0.126268	0.119555
	C142	C	0.514689	0.883521	0.119686
	C143	C	0.497314	0.883234	0.876158
	C144	C	0.387021	0.891154	0.676132
	C145	C	0.623959	0.120702	0.676823
	C146	C	0.628335	0.890804	0.320930
	C147	C	0.383673	0.119463	0.319911
	C148	C	0.687838	0.382592	0.884934
	C149	C	0.682615	0.622815	0.114201
	C150	C	0.327926	0.626696	0.886094
	C151	C	0.331876	0.386701	0.113292
	C152	C	0.892385	0.685273	0.379809
	C153	C	0.121420	0.682259	0.618689
	C154	C	0.891223	0.332789	0.618365
	C155	C	0.120239	0.327250	0.379455
	C156	C	0.892748	0.388732	0.677621
	C157	C	0.121613	0.625735	0.676628
	C158	C	0.892853	0.629001	0.320664
	C159	C	0.121110	0.384700	0.322383
	C160	C	0.385991	0.682999	0.885447
	C161	C	0.626094	0.682293	0.113180
	C162	C	0.629660	0.325229	0.884680
	C163	C	0.390168	0.329589	0.113301
	C164	C	0.686314	0.891725	0.378058
	C165	C	0.679665	0.122144	0.617282
	C166	C	0.331285	0.890493	0.617236
	C167	C	0.327008	0.120051	0.378925
	C168	C	0.889259	0.391649	0.177364
	C169	C	0.127303	0.620332	0.177433
	C170	C	0.130610	0.392684	0.820235
	C171	C	0.885595	0.620958	0.822198
	C172	C	0.186167	0.883574	0.385499
	C173	C	0.183157	0.126252	0.612346
	C174	C	0.825267	0.129764	0.384864
	C175	C	0.829821	0.888874	0.612779
	C176	C	0.392755	0.185169	0.878550
	C177	C	0.622218	0.179292	0.118062
	C178	C	0.391421	0.829564	0.117718
	C179	C	0.620080	0.825453	0.877888
	C180	C	0.391997	0.885519	0.176191
	C181	C	0.620944	0.123460	0.177165
	C182	C	0.392084	0.127688	0.821134
	C183	C	0.619961	0.882611	0.820236
	C184	C	0.882853	0.187474	0.385217
	C185	C	0.123888	0.182993	0.612912
	C186	C	0.128934	0.825572	0.385831
	C187	C	0.887252	0.831172	0.612735
	C188	C	0.187084	0.391921	0.879278
	C189	C	0.183573	0.620815	0.119272
	C190	C	0.833195	0.390603	0.119011
	C191	C	0.827787	0.620332	0.879718
	C192	C	0.406302	0.099998	0.597578
	C193	C	0.606473	0.911899	0.597492
	C194	C	0.601815	0.099595	0.398920
	C195	C	0.408883	0.910740	0.398948
	C196	C	0.609933	0.402860	0.093049
	C197	C	0.605329	0.602053	0.906269
	C198	C	0.407914	0.605138	0.093097
	C199	C	0.409607	0.407828	0.905320
	C200	C	0.100984	0.603534	0.399808
	C201	C	0.912406	0.607221	0.598904
	C202	C	0.100909	0.406406	0.597342
	C203	C	0.912128	0.411125	0.399511
	C204	C	0.907595	0.600004	0.097686
	C205	C	0.107610	0.411930	0.098075
	C206	C	0.105031	0.600425	0.900624
	C207	C	0.911924	0.412273	0.899799
	C208	C	0.106576	0.907033	0.592292
	C209	C	0.103144	0.103445	0.405569
	C210	C	0.903945	0.108409	0.592330
	C211	C	0.909184	0.909440	0.405495
	C212	C	0.600497	0.101087	0.899283
	C213	C	0.413171	0.104800	0.096460
	C214	C	0.600568	0.905446	0.097203
	C215	C	0.411461	0.907189	0.898868
	Zn216	Zn	0.505473	0.004931	0.748532
	Zn217	Zn	0.505992	0.004594	0.247620
	Zn218	Zn	0.758623	0.504180	-0.000618
	Zn219	Zn	0.257513	0.506593	-0.000017
	Zn220	Zn	0.006787	0.756388	0.499293
	Zn221	Zn	0.005015	0.257480	0.498580
	Zn222	Zn	0.008135	0.507497	0.748617
	Zn223	Zn	0.007758	0.506373	0.248431
	Zn224	Zn	0.505632	0.755654	-0.001441
	Zn225	Zn	0.507977	0.254494	-0.001444
	Zn226	Zn	0.755460	0.007483	0.498005
	Zn227	Zn	0.256873	0.005311	0.498805
	N228	N	0.419527	0.968903	0.677722
	N229	N	0.592216	0.042550	0.678576
	N230	N	0.592083	0.967960	0.319851
	N231	N	0.418603	0.041767	0.318233
	N232	N	0.689827	0.415928	0.962174
	N233	N	0.683833	0.587981	0.037420
	N234	N	0.326908	0.593178	0.963305
	N235	N	0.330067	0.420427	0.036150
	N236	N	0.969660	0.684683	0.414309
	N237	N	0.043705	0.684420	0.585104
	N238	N	0.968339	0.330579	0.583558
	N239	N	0.042546	0.327758	0.412591
	N240	N	0.970924	0.420208	0.679365
	N241	N	0.043899	0.593404	0.678412
	N242	N	0.970464	0.594303	0.318555
	N243	N	0.043764	0.420391	0.320651
	N244	N	0.420736	0.683728	0.962108
	N245	N	0.592348	0.683738	0.035909
	N246	N	0.596021	0.323761	0.962019
	N247	N	0.424051	0.328316	0.036095
	N248	N	0.685453	0.969370	0.411984
	N249	N	0.682036	0.044808	0.582644
	N250	N	0.329780	0.967930	0.582829
	N251	N	0.327623	0.042535	0.413217
	N252	N	0.921709	0.469486	0.178507
	N253	N	0.094457	0.542603	0.178804
	N254	N	0.095361	0.470240	0.818979
	N255	N	0.921656	0.543743	0.820634
	N256	N	0.186571	0.918669	0.461927
	N257	N	0.184657	0.091934	0.535373
	N258	N	0.824416	0.095438	0.461608
	N259	N	0.829065	0.923125	0.535807
	N260	N	0.470281	0.184361	0.912504
	N261	N	0.545304	0.181143	0.082808
	N262	N	0.468628	0.828352	0.083091
	N263	N	0.542713	0.825675	0.911994
	N264	N	0.469645	0.918223	0.177657
	N265	N	0.543251	0.091046	0.177921
	N266	N	0.469147	0.091609	0.819887
	N267	N	0.542485	0.917860	0.819031
	N268	N	0.917232	0.188367	0.462160
	N269	N	0.089047	0.183331	0.536197
	N270	N	0.094367	0.825248	0.462696
	N271	N	0.921699	0.829838	0.535823
	N272	N	0.186498	0.469046	0.913976
	N273	N	0.185155	0.543467	0.084978
	N274	N	0.831034	0.467799	0.084490
	N275	N	0.828704	0.542650	0.913557
	O276	O	0.072950	-0.085332	0.976027
	H277	H	0.056074	-0.083731	0.976169
	H278	H	0.058759	-0.090073	0.972190
	O279	O	0.420959	0.528193	0.545319
	H280	H	0.426611	0.538168	0.547262
	H281	H	0.425149	0.537910	0.559273
	O282	O	0.960104	0.927551	-0.071517
	H283	H	0.977480	0.922458	-0.073617
	H284	H	0.952722	0.922935	-0.068546
	O285	O	1.020453	0.096000	0.973514
	H286	H	1.015207	0.088533	0.966805
	H287	H	1.028579	0.107573	0.973429
	O288	O	0.449121	0.512270	0.514708
	H289	H	0.454497	0.514111	0.504997
	H290	H	0.447104	0.506629	0.506487
	O291	O	0.491918	0.448245	0.404274
	H292	H	0.501275	0.439945	0.400901
	H293	H	0.488971	0.455600	0.401913
	O294	O	0.552772	0.482008	0.470177
	H295	H	0.561141	0.481381	0.472117
	H296	H	0.559551	0.490579	0.484853
	O297	O	-0.012401	-0.029884	0.951491
	H298	H	0.001315	-0.029101	0.961487
	H299	H	-0.006051	-0.032233	0.952972
	O300	O	0.458082	0.525894	0.500881
	H301	H	0.455527	0.527066	0.506724
	H302	H	0.450332	0.536093	0.497935
	O303	O	0.456255	0.490377	0.551406
	H304	H	0.456324	0.490265	0.551826
	H305	H	0.455956	0.489206	0.547650
	O306	O	-0.147011	1.021342	0.876031
	H307	H	-0.138400	1.018893	0.880664
	H308	H	-0.159665	1.021796	0.863003
	O309	O	0.559051	0.542933	0.534570
	H310	H	0.557430	0.545295	0.539319
	H311	H	0.557486	0.534758	0.531638
	O312	O	0.054608	0.024954	-0.074227
	H313	H	0.064495	0.028565	-0.081209
	H314	H	0.067308	0.028602	-0.072077
	O315	O	0.882561	0.045453	-0.119828
	H316	H	0.876765	0.057375	-0.117772
	H317	H	0.881381	0.028534	-0.115855
	O318	O	1.012611	0.976308	1.146734
	H319	H	1.015865	0.973376	1.150410
	H320	H	1.004883	0.988543	1.146965
	O321	O	-0.013787	0.018669	0.926606
	H322	H	-0.017483	0.019502	0.914183
	H323	H	-0.031709	0.012978	0.929000
	O324	O	0.488100	0.500508	0.508308
	H325	H	0.496596	0.512769	0.511859
	H326	H	0.492821	0.499625	0.509278
	O327	O	0.071825	0.020010	0.145392
	H328	H	0.074743	0.020405	0.146491
	H329	H	0.079493	0.036357	0.166425
	O330	O	1.177686	0.990558	0.017887
	H331	H	1.182342	0.987072	0.010636
	H332	H	1.173667	0.986297	0.026614
	O333	O	0.025061	1.109390	0.992788
	H334	H	0.029647	1.117194	0.998429
	H335	H	0.019935	1.114682	0.998854
	O336	O	-0.076027	0.165318	-0.044165
	H337	H	-0.089532	0.180945	-0.040768
	H338	H	-0.068720	0.159108	-0.063533
	O339	O	0.596603	0.556285	0.491698
	H340	H	0.588952	0.550479	0.493708
	H341	H	0.600784	0.555337	0.490863
	O342	O	1.021096	0.971624	0.976801
	H343	H	1.023283	0.981443	0.976561
	H344	H	1.027212	0.975206	0.975719
	O345	O	1.000345	1.044857	0.104664
	H346	H	1.015830	1.046229	0.108040
	H347	H	0.989062	1.037855	0.100910
	O348	O	0.523093	0.461801	0.572146
	H349	H	0.513387	0.469824	0.583639
	H350	H	0.512431	0.453422	0.565139
	O351	O	0.921498	0.068814	0.119462
	H352	H	0.917071	0.062928	0.107770
	H353	H	0.924915	0.076850	0.132561
	O354	O	0.458751	0.467217	0.557540
	H355	H	0.447758	0.459688	0.563063
	H356	H	0.465152	0.465946	0.564010
	O357	O	0.453454	0.557015	1.525303
	H358	H	0.450121	0.551118	1.524120
	H359	H	0.449853	0.572006	1.528011
	O360	O	-0.118692	-0.176392	0.141198
	H361	H	-0.113981	-0.182695	0.150611
	H362	H	-0.127225	-0.170631	0.124165
	O363	O	0.587326	0.488770	0.431756
	H364	H	0.597406	0.489255	0.427322
	H365	H	0.588240	0.491927	0.422071
	O366	O	1.068040	1.026929	1.051470
	H367	H	1.063400	1.008922	1.064803
	H368	H	1.050542	1.031580	1.050393
	O369	O	0.927679	0.013121	1.014176
	H370	H	0.936489	0.015588	1.007257
	H371	H	0.924339	0.012354	1.009985
	O372	O	0.042619	-0.072381	-0.050425
	H373	H	0.038565	-0.066048	-0.047369
	H374	H	0.047320	-0.079986	-0.052009
	O375	O	1.113377	0.048084	-0.001482
	H376	H	1.107235	0.053753	0.010447
	H377	H	1.117581	0.052765	0.000586
	O378	O	0.496859	0.526792	0.470829
	H379	H	0.490278	0.526867	0.466003
	H380	H	0.496215	0.525007	0.470978
	O381	O	0.575264	0.433253	0.467327
	H382	H	0.588192	0.429894	0.466903
	H383	H	0.580040	0.430887	0.470122
