data_Molecule from HDF5

_cell_length_a		16.485434
_cell_length_b		16.527972
_cell_length_c		16.504407
_cell_angle_alpha	90.081715
_cell_angle_beta	90.050146
_cell_angle_gamma	90.033466
_symmetry_space_group_name_H-M	'P 1'
_symmetry_Int_Tables_number		1

loop_
	_symmetry_equiv_pos_as_xyz
	x,y,z

loop_
	_atom_site_label
	_atom_site_type_symbol
	_atom_site_fract_x
	_atom_site_fract_y
	_atom_site_fract_z
	H0	H	0.397183	0.848157	0.744821
	H1	H	0.615157	0.159587	0.747164
	H2	H	0.609865	0.847129	0.300713
	H3	H	0.403175	0.163638	0.301838
	H4	H	0.729466	0.395558	0.861984
	H5	H	0.725043	0.606247	0.177297
	H6	H	0.280743	0.614529	0.862768
	H7	H	0.285159	0.400735	0.175428
	H8	H	0.848509	0.726826	0.414895
	H9	H	0.164542	0.725100	0.625780
	H10	H	0.849736	0.280273	0.629293
	H11	H	0.161959	0.282424	0.415207
	H12	H	0.850143	0.395680	0.745252
	H13	H	0.163194	0.612189	0.743436
	H14	H	0.848918	0.610642	0.297321
	H15	H	0.163401	0.399273	0.299944
	H16	H	0.399458	0.727032	0.862147
	H17	H	0.610206	0.722651	0.177727
	H18	H	0.615159	0.277890	0.863104
	H19	H	0.401683	0.284220	0.175411
	H20	H	0.724849	0.846639	0.418372
	H21	H	0.730611	0.161445	0.629502
	H22	H	0.282009	0.847980	0.628189
	H23	H	0.288337	0.164048	0.420968
	H24	H	0.896223	0.347762	0.244835
	H25	H	0.111045	0.659366	0.242096
	H26	H	0.113955	0.349278	0.794085
	H27	H	0.896314	0.660383	0.795257
	H28	H	0.224569	0.904204	0.363472
	H29	H	0.232331	0.116341	0.676719
	H30	H	0.783845	0.110572	0.363828
	H31	H	0.782392	0.897710	0.676781
	H32	H	0.349581	0.228441	0.910630
	H33	H	0.662680	0.229276	0.128076
	H34	H	0.347859	0.787826	0.120323
	H35	H	0.662123	0.780088	0.912016
	H36	H	0.347232	0.907154	0.235412
	H37	H	0.663161	0.111922	0.242445
	H38	H	0.349633	0.111662	0.795454
	H39	H	0.661101	0.894004	0.794209
	H40	H	0.898200	0.227648	0.364688
	H41	H	0.117451	0.233249	0.675760
	H42	H	0.110932	0.784692	0.364160
	H43	H	0.898824	0.781705	0.677669
	H44	H	0.230161	0.348505	0.909883
	H45	H	0.226312	0.660888	0.124440
	H46	H	0.779462	0.347387	0.129001
	H47	H	0.781791	0.660427	0.913250
	H48	H	0.427352	0.113707	0.611537
	H49	H	0.598609	0.894237	0.604010
	H50	H	0.591294	0.116047	0.430727
	H51	H	0.414094	0.891115	0.425130
	H52	H	0.590470	0.412622	0.130146
	H53	H	0.594418	0.589774	0.907217
	H54	H	0.409757	0.599109	0.134713
	H55	H	0.419027	0.412247	0.904676
	H56	H	0.116400	0.588812	0.430558
	H57	H	0.894048	0.598660	0.602501
	H58	H	0.113484	0.428695	0.606480
	H59	H	0.896754	0.418309	0.443784
	H60	H	0.121400	0.414345	0.615194
	H61	H	0.897389	0.585295	0.604682
	H62	H	0.121026	0.596415	0.424499
	H63	H	0.893274	0.425704	0.425229
	H64	H	0.414466	0.589836	0.130058
	H65	H	0.589670	0.592617	0.907732
	H66	H	0.597118	0.417034	0.131134
	H67	H	0.413902	0.419465	0.905358
	H68	H	0.599345	0.118239	0.434525
	H69	H	0.591130	0.893077	0.612933
	H70	H	0.418603	0.112371	0.600099
	H71	H	0.417440	0.892267	0.429461
	H72	H	0.908464	0.618290	0.111479
	H73	H	0.096355	0.389651	0.110987
	H74	H	0.092546	0.617590	0.928072
	H75	H	0.921175	0.393998	0.932175
	H76	H	0.092131	0.909573	0.635838
	H77	H	0.088185	0.096383	0.411858
	H78	H	0.920692	0.087168	0.629620
	H79	H	0.911255	0.918443	0.407455
	H80	H	0.618136	0.090487	0.930197
	H81	H	0.393838	0.090388	0.113222
	H82	H	0.621515	0.909914	0.111340
	H83	H	0.393897	0.915815	0.932713
	H84	H	0.620522	0.914389	0.109585
	H85	H	0.390262	0.099843	0.113922
	H86	H	0.615284	0.093433	0.941189
	H87	H	0.394322	0.916211	0.932703
	H88	H	0.923246	0.097068	0.632833
	H89	H	0.099833	0.097506	0.406786
	H90	H	0.100793	0.915826	0.636489
	H91	H	0.922274	0.919622	0.412069
	H92	H	0.088808	0.613151	0.934625
	H93	H	0.092377	0.392440	0.109023
	H94	H	0.922431	0.614796	0.113349
	H95	H	0.918252	0.394484	0.934307
	H96	H	0.413468	0.118412	0.612147
	H97	H	0.587490	0.897262	0.602726
	H98	H	0.598084	0.120162	0.426555
	H99	H	0.411922	0.891521	0.430135
	H100	H	0.590222	0.420316	0.127912
	H101	H	0.594471	0.594412	0.906126
	H102	H	0.420435	0.598531	0.131769
	H103	H	0.421914	0.419157	0.908142
	H104	H	0.118617	0.598339	0.434770
	H105	H	0.891842	0.593197	0.614912
	H106	H	0.116238	0.412861	0.597401
	H107	H	0.888512	0.406512	0.429270
	H108	H	0.915972	0.612297	0.100926
	H109	H	0.096813	0.390305	0.106154
	H110	H	0.096592	0.615751	0.935635
	H111	H	0.918248	0.392489	0.931581
	H112	H	0.091291	0.919153	0.632259
	H113	H	0.096338	0.086640	0.412437
	H114	H	0.913768	0.093400	0.634439
	H115	H	0.919210	0.908957	0.407710
	H116	H	0.612960	0.082590	0.936758
	H117	H	0.394702	0.096356	0.104995
	H118	H	0.622755	0.914208	0.113905
	H119	H	0.394338	0.916127	0.931652
	C120	C	0.385322	0.012330	0.642025
	C121	C	0.627006	0.997046	0.641796
	C122	C	0.627767	0.013672	0.399161
	C123	C	0.384320	0.996879	0.399020
	C124	C	0.627311	0.381874	0.026960
	C125	C	0.625670	0.624351	1.011026
	C126	C	0.382980	0.627564	0.027952
	C127	C	0.385637	0.384526	1.010078
	C128	C	0.014524	0.626920	0.397892
	C129	C	0.998111	0.625390	0.640921
	C130	C	0.013893	0.383865	0.641185
	C131	C	0.996593	0.383458	0.399634
	C132	C	0.882769	0.511692	0.141956
	C133	C	0.126961	0.494733	0.140955
	C134	C	0.127029	0.512794	0.898129
	C135	C	0.884986	0.496502	0.898870
	C136	C	0.126971	0.883943	0.530437
	C137	C	0.128055	0.127383	0.513381
	C138	C	0.885041	0.125958	0.529214
	C139	C	0.884903	0.883298	0.512642
	C140	C	0.512964	0.123542	0.900576
	C141	C	0.496962	0.128087	0.142882
	C142	C	0.515693	0.883822	0.141361
	C143	C	0.497058	0.882047	0.898403
	C144	C	0.380663	0.894748	0.703701
	C145	C	0.631763	0.113662	0.705216
	C146	C	0.628517	0.894685	0.340329
	C147	C	0.384295	0.116333	0.341707
	C148	C	0.689113	0.377762	0.909352
	C149	C	0.685213	0.625074	0.130015
	C150	C	0.321600	0.631316	0.910057
	C151	C	0.325520	0.382557	0.128313
	C152	C	0.895847	0.686850	0.396223
	C153	C	0.116912	0.685395	0.643865
	C154	C	0.896633	0.321271	0.646273
	C155	C	0.114880	0.322749	0.397161
	C156	C	0.896865	0.378804	0.704282
	C157	C	0.116262	0.628979	0.702465
	C158	C	0.896135	0.629054	0.337774
	C159	C	0.115540	0.380903	0.339734
	C160	C	0.380717	0.687867	0.909808
	C161	C	0.628335	0.683502	0.129959
	C162	C	0.632385	0.318937	0.909898
	C163	C	0.383196	0.324561	0.128354
	C164	C	0.686177	0.894518	0.398554
	C165	C	0.689520	0.114288	0.646972
	C166	C	0.322886	0.894959	0.645807
	C167	C	0.327078	0.116542	0.400507
	C168	C	0.878373	0.394719	0.204398
	C169	C	0.129355	0.612588	0.201715
	C170	C	0.131647	0.395973	0.835012
	C171	C	0.879412	0.613488	0.836296
	C172	C	0.185755	0.884030	0.411358
	C173	C	0.190895	0.133060	0.630066
	C174	C	0.823851	0.128873	0.411324
	C175	C	0.823447	0.879983	0.630288
	C176	C	0.396144	0.186913	0.894233
	C177	C	0.615231	0.188746	0.145638
	C178	C	0.395511	0.826917	0.140408
	C179	C	0.614853	0.820127	0.894078
	C180	C	0.395087	0.886007	0.197326
	C181	C	0.615651	0.130322	0.202862
	C182	C	0.396280	0.128915	0.836782
	C183	C	0.614247	0.877141	0.835585
	C184	C	0.880877	0.187240	0.411709
	C185	C	0.133178	0.191004	0.629659
	C186	C	0.129415	0.824482	0.411644
	C187	C	0.881275	0.822116	0.630564
	C188	C	0.189532	0.395679	0.892715
	C189	C	0.186823	0.613115	0.143350
	C190	C	0.820431	0.394554	0.146304
	C191	C	0.822550	0.613889	0.895296
	C192	C	0.412231	0.093637	0.615632
	C193	C	0.600278	0.915923	0.614440
	C194	C	0.603338	0.096524	0.423575
	C195	C	0.407715	0.913335	0.421739
	C196	C	0.600325	0.408843	0.108358
	C197	C	0.600440	0.599386	0.928639
	C198	C	0.407768	0.602795	0.110748
	C199	C	0.411036	0.409678	0.927732
	C200	C	0.097253	0.601805	0.422954
	C201	C	0.915977	0.599686	0.615025
	C202	C	0.095550	0.410769	0.614122
	C203	C	0.914355	0.409353	0.425258
	C204	C	0.908515	0.593761	0.116004
	C205	C	0.102228	0.412350	0.115747
	C206	C	0.100351	0.594256	0.925023
	C207	C	0.911619	0.415022	0.925177
	C208	C	0.101846	0.907990	0.613401
	C209	C	0.101980	0.100917	0.431563
	C210	C	0.911730	0.100023	0.611072
	C211	C	0.910284	0.908748	0.430703
	C212	C	0.594129	0.096383	0.928198
	C213	C	0.414438	0.102930	0.117749
	C214	C	0.599629	0.906516	0.118351
	C215	C	0.415579	0.908380	0.924801
	Zn216	Zn	0.505882	0.004117	0.770935
	Zn217	Zn	0.506236	0.005327	0.270230
	Zn218	Zn	0.754958	0.503544	0.018958
	Zn219	Zn	0.255758	0.504545	0.018382
	Zn220	Zn	0.005750	0.754365	0.521396
	Zn221	Zn	0.005806	0.254861	0.521051
	Zn222	Zn	0.005807	0.505045	0.769348
	Zn223	Zn	0.005147	0.503152	0.269998
	Zn224	Zn	0.506252	0.754462	0.020041
	Zn225	Zn	0.505690	0.254321	0.018851
	Zn226	Zn	0.756456	0.004778	0.521147
	Zn227	Zn	0.256271	0.005542	0.521848
	N228	N	0.418988	0.968556	0.701305
	N229	N	0.593537	0.039888	0.701950
	N230	N	0.593117	0.969931	0.340359
	N231	N	0.419362	0.040939	0.340750
	N232	N	0.686260	0.416026	0.983286
	N233	N	0.684064	0.589131	0.055025
	N234	N	0.322637	0.594605	0.984756
	N235	N	0.326991	0.419113	0.053636
	N236	N	0.970809	0.685785	0.432584
	N237	N	0.042526	0.683321	0.606241
	N238	N	0.970544	0.324440	0.607703
	N239	N	0.039860	0.323919	0.433344
	N240	N	0.970879	0.416922	0.701195
	N241	N	0.041275	0.592465	0.700920
	N242	N	0.970986	0.592573	0.338604
	N243	N	0.040954	0.418015	0.341328
	N244	N	0.417943	0.685896	0.984369
	N245	N	0.592206	0.683283	0.054918
	N246	N	0.594866	0.321292	0.984224
	N247	N	0.419721	0.325505	0.053672
	N248	N	0.685926	0.969586	0.434357
	N249	N	0.686595	0.040801	0.608087
	N250	N	0.325762	0.969021	0.608246
	N251	N	0.326799	0.041116	0.435254
	N252	N	0.916242	0.468712	0.201984
	N253	N	0.093042	0.537708	0.200707
	N254	N	0.093498	0.469782	0.838359
	N255	N	0.917532	0.539582	0.838396
	N256	N	0.184700	0.919963	0.486506
	N257	N	0.187602	0.093873	0.556798
	N258	N	0.826278	0.091551	0.485587
	N259	N	0.825544	0.917304	0.556096
	N260	N	0.469574	0.183455	0.933392
	N261	N	0.540398	0.187416	0.108880
	N262	N	0.471592	0.825066	0.106690
	N263	N	0.540970	0.823087	0.932351
	N264	N	0.470978	0.920249	0.198212
	N265	N	0.541131	0.093195	0.201311
	N266	N	0.469948	0.090246	0.840608
	N267	N	0.540078	0.914892	0.837962
	N268	N	0.918042	0.185638	0.486224
	N269	N	0.094578	0.187386	0.556043
	N270	N	0.093666	0.824304	0.486777
	N271	N	0.918881	0.823960	0.556321
	N272	N	0.186848	0.469456	0.931225
	N273	N	0.185395	0.538927	0.106096
	N274	N	0.823091	0.468323	0.108005
	N275	N	0.825565	0.539941	0.933197
	O276	O	0.529254	0.518804	0.470457
	H277	H	0.522509	0.531700	0.468510
	H278	H	0.540343	0.514672	0.462678
	O279	O	0.291344	0.722158	0.485746
	H280	H	0.281536	0.721881	0.473971
	H281	H	0.280716	0.733368	0.489999
	O282	O	0.510115	0.720450	0.691203
	H283	H	0.510314	0.753424	0.719105
	H284	H	0.502246	0.707472	0.690362
	O285	O	0.220558	1.223937	0.046581
	H286	H	0.234521	1.236850	0.076651
	H287	H	0.233224	1.229539	0.068354
	O288	O	-0.190135	-0.188566	0.214606
	H289	H	-0.195804	-0.171467	0.189751
	H290	H	-0.204284	-0.210370	0.203539
	O291	O	0.798167	0.794150	0.047748
	H292	H	0.787156	0.778502	0.034221
	H293	H	0.806157	0.804338	0.025502
	O294	O	0.022109	0.785676	-0.192862
	H295	H	0.023877	0.767415	-0.226725
	H296	H	0.074283	0.795310	-0.182939
	O297	O	1.179289	0.820419	-0.159173
	H298	H	1.193160	0.809905	-0.106480
	H299	H	1.193371	0.871456	-0.170158
	O300	O	0.690474	0.331133	0.336935
	H301	H	0.692481	0.319899	0.369588
	H302	H	0.667968	0.331588	0.334069
	O303	O	0.334282	0.333441	0.646403
	H304	H	0.341321	0.338861	0.618333
	H305	H	0.319794	0.357486	0.634988
	O306	O	0.199372	0.813247	1.212954
	H307	H	0.178341	0.846316	1.207118
	H308	H	0.180017	0.817602	1.181483
	O309	O	0.475793	0.604138	0.744769
	H310	H	0.482902	0.622338	0.758797
	H311	H	0.511249	0.580594	0.741248
	O312	O	0.300448	0.472720	0.551408
	H313	H	0.313605	0.457969	0.555470
	H314	H	0.312548	0.467862	0.549554
	O315	O	-0.217124	0.025530	0.800568
	H316	H	-0.228257	0.047184	0.786110
	H317	H	-0.224659	0.061166	0.792851
	O318	O	-0.627910	1.480451	0.510469
	H319	H	-0.619110	1.472450	0.508813
	H320	H	-0.624259	1.492924	0.544639
	O321	O	-0.209401	1.222067	-0.005287
	H322	H	-0.244493	1.254319	-0.003479
	H323	H	-0.190389	1.206845	0.018897
	O324	O	0.943365	-0.021211	1.165566
	H325	H	0.922100	-0.017452	1.177384
	H326	H	0.933940	-0.049334	1.155811
	O327	O	0.959902	0.033629	1.010828
	H328	H	0.954297	0.037163	1.015159
	H329	H	0.972075	0.025861	0.994469
	O330	O	1.219702	-0.022219	-0.188905
	H331	H	1.203518	-0.000231	-0.199772
	H332	H	1.234871	-0.010157	-0.198934
	O333	O	0.664332	0.479039	0.574141
	H334	H	0.668429	0.485695	0.545166
	H335	H	0.666642	0.502357	0.606037
	O336	O	1.537617	-0.652978	0.564201
	H337	H	1.544802	-0.643349	0.560155
	H338	H	1.535465	-0.654177	0.578266
	O339	O	0.712661	-0.499544	-0.514801
	H340	H	0.708331	-0.509981	-0.539295
	H341	H	0.700090	-0.496410	-0.506210
	O342	O	0.721150	0.328883	0.482685
	H343	H	0.738158	0.339638	0.500467
	H344	H	0.735482	0.312434	0.489394
	O345	O	-0.698262	0.712081	-0.683952
	H346	H	-0.689141	0.703086	-0.663134
	H347	H	-0.731006	0.745579	-0.716035
	O348	O	1.211527	0.039632	1.226542
	H349	H	1.194442	0.013838	1.220114
	H350	H	1.218281	0.026134	1.227363
	O351	O	1.085554	1.082572	-0.197145
	H352	H	1.066776	1.080743	-0.194369
	H353	H	1.072786	1.101224	-0.198372
	O354	O	0.492326	0.291017	0.734328
	H355	H	0.470160	0.290094	0.720892
	H356	H	0.468071	0.270098	0.753800
	O357	O	1.208989	1.207452	1.216781
	H358	H	1.218472	1.196064	1.236030
	H359	H	1.224626	1.187406	1.238149
	O360	O	0.450435	0.616102	0.515962
	H361	H	0.442163	0.590910	0.529441
	H362	H	0.436082	0.613230	0.507757
	O363	O	0.720563	0.572127	0.732843
	H364	H	0.757313	0.576252	0.766276
	H365	H	0.713333	0.610141	0.709946
	O366	O	1.211240	0.040068	0.968934
	H367	H	1.213531	0.045418	0.950359
	H368	H	1.206045	0.060468	0.968861
	O369	O	-0.542512	0.671576	-0.481770
	H370	H	-0.553954	0.665624	-0.505621
	H371	H	-0.560111	0.691574	-0.469814
	O372	O	-0.066965	1.227931	0.090827
	H373	H	-0.074804	1.234024	0.094139
	H374	H	-0.048159	1.221792	0.115501
	O375	O	-0.028039	0.786059	1.239432
	H376	H	-0.040379	0.755122	1.269640
	H377	H	-0.064822	0.789307	1.228569
	O378	O	0.695252	0.496481	0.308422
	H379	H	0.707726	0.483147	0.286441
	H380	H	0.687438	0.474206	0.304528
	O381	O	0.886623	-0.188204	-0.105288
	H382	H	0.894055	-0.173319	-0.105305
	H383	H	0.901578	-0.179274	-0.122164
	O384	O	0.124667	-0.020619	2.064161
	H385	H	0.104467	-0.028347	2.049560
	H386	H	0.124275	-0.001253	2.042859
	O387	O	-0.209961	0.978352	1.235426
	H388	H	-0.208364	0.965852	1.237756
	H389	H	-0.232042	0.975542	1.245443
	O390	O	0.783095	0.942508	0.964912
	H391	H	0.778247	0.946933	0.938863
	H392	H	0.795489	0.948883	0.963002
	O393	O	1.289681	0.485598	0.734413
	H394	H	1.263798	0.486586	0.752974
	H395	H	1.315013	0.487621	0.736579
	O396	O	0.448174	0.334802	0.659113
	H397	H	0.457619	0.321382	0.640900
	H398	H	0.456637	0.360774	0.652681
	O399	O	0.555944	0.480130	0.720473
	H400	H	0.548029	0.449002	0.732172
	H401	H	0.588001	0.484069	0.721486
	O402	O	-0.172892	0.180393	0.839382
	H403	H	-0.128954	0.187420	0.839781
	H404	H	-0.185728	0.199558	0.882093
	O405	O	-0.015112	0.219218	-0.195095
	H406	H	-0.014739	0.248999	-0.211857
	H407	H	0.001019	0.228094	-0.168689
	O408	O	0.312625	0.344801	0.422874
	H409	H	0.311088	0.365088	0.420142
	H410	H	0.333824	0.353864	0.428345
	O411	O	-0.024573	1.022032	0.219707
	H412	H	-0.036245	1.038132	0.211487
	H413	H	-0.036484	1.014180	0.218518
	O414	O	0.671620	0.646568	0.529846
	H415	H	0.658843	0.650109	0.509871
	H416	H	0.664754	0.650842	0.534212
	O417	O	0.972810	-0.037434	0.803322
	H418	H	0.957766	-0.035383	0.792482
	H419	H	0.978113	-0.053900	0.791202
	O420	O	0.536701	0.311509	0.336137
	H421	H	0.528138	0.321944	0.333217
	H422	H	0.534539	0.303042	0.317537
	O423	O	0.105063	1.138868	0.009200
	H424	H	0.114722	1.141526	0.022049
	H425	H	0.101480	1.135107	0.000255
	O426	O	0.994065	0.905903	1.048845
	H427	H	0.986941	0.896836	1.046396
	H428	H	1.015941	0.905109	1.036415
	O429	O	0.566279	0.569747	0.361445
	H430	H	0.583373	0.557790	0.362196
	H431	H	0.551737	0.585755	0.357772
	O432	O	0.593970	0.705778	0.431696
	H433	H	0.580997	0.692112	0.446908
	H434	H	0.574701	0.699614	0.447462
	O435	O	0.126235	0.175513	-0.069051
	H436	H	0.158991	0.190788	-0.059245
	H437	H	0.101795	0.174774	-0.045971
	O438	O	1.450388	0.301204	0.466946
	H439	H	1.470037	0.287624	0.469859
	H440	H	1.468584	0.324827	0.467532
	O441	O	0.060029	-0.209286	0.079797
	H442	H	0.036853	-0.204827	0.091716
	H443	H	0.040883	-0.207173	0.077062
	O444	O	0.807617	0.084399	0.104974
	H445	H	0.810790	0.068296	0.090821
	H446	H	0.807212	0.091708	0.110382
	O447	O	0.427777	0.405323	0.316198
	H448	H	0.423142	0.428929	0.321955
	H449	H	0.430582	0.415618	0.329375
	O450	O	0.345215	0.531973	0.305630
	H451	H	0.336530	0.551805	0.302800
	H452	H	0.335759	0.562262	0.290008
	O453	O	0.690127	0.621836	0.692250
	H454	H	0.668717	0.640196	0.703621
	H455	H	0.691846	0.633143	0.654633
	O456	O	0.469116	0.725367	0.301924
	H457	H	0.462665	0.744989	0.288068
	H458	H	0.452721	0.725047	0.293171
	O459	O	0.032602	0.222612	0.233355
	H460	H	0.050594	0.222069	0.240587
	H461	H	0.052550	0.232707	0.251681
	O462	O	1.002732	0.000680	0.073520
	H463	H	1.005852	0.012459	0.067674
	H464	H	0.990631	0.010881	0.062927
	O465	O	1.209523	-0.203185	0.002187
	H466	H	1.208156	-0.209556	0.015268
	H467	H	1.199864	-0.210329	0.016629
