data_Molecule from HDF5

_cell_length_a		16.236112
_cell_length_b		16.277253
_cell_length_c		16.499632
_cell_angle_alpha	89.858091
_cell_angle_beta	90.007292
_cell_angle_gamma	89.969263
_symmetry_space_group_name_H-M	'P 1'
_symmetry_Int_Tables_number		1

loop_
	_symmetry_equiv_pos_as_xyz
	x,y,z

loop_
	_atom_site_label
	_atom_site_type_symbol
	_atom_site_fract_x
	_atom_site_fract_y
	_atom_site_fract_z
	H0	H	0.388465	0.819468	0.716553
	H1	H	0.595503	0.141851	0.717366
	H2	H	0.597868	0.819367	0.278262
	H3	H	0.385421	0.140645	0.276776
	H4	H	0.707618	0.378976	0.838088
	H5	H	0.707353	0.581947	0.159227
	H6	H	0.270406	0.582537	0.837294
	H7	H	0.269920	0.378202	0.158527
	H8	H	0.829727	0.701835	0.395438
	H9	H	0.153689	0.696218	0.599591
	H10	H	0.828976	0.262808	0.599799
	H11	H	0.152392	0.264272	0.395428
	H12	H	0.829327	0.376995	0.716502
	H13	H	0.150253	0.586400	0.718191
	H14	H	0.828505	0.588658	0.278835
	H15	H	0.149382	0.377628	0.276835
	H16	H	0.384101	0.701665	0.839302
	H17	H	0.591400	0.699545	0.158497
	H18	H	0.590657	0.262752	0.837682
	H19	H	0.386246	0.260946	0.158635
	H20	H	0.708123	0.818176	0.399131
	H21	H	0.707395	0.142991	0.597611
	H22	H	0.275283	0.818704	0.600445
	H23	H	0.273584	0.142503	0.395689
	H24	H	0.881254	0.321559	0.220323
	H25	H	0.094234	0.641080	0.217166
	H26	H	0.095311	0.321232	0.777273
	H27	H	0.883229	0.642164	0.776213
	H28	H	0.212805	0.878572	0.339323
	H29	H	0.211028	0.084116	0.658396
	H30	H	0.768480	0.086152	0.339863
	H31	H	0.772101	0.876854	0.658357
	H32	H	0.326939	0.197236	0.895949
	H33	H	0.651316	0.197787	0.099322
	H34	H	0.326506	0.764822	0.100585
	H35	H	0.651101	0.762343	0.898172
	H36	H	0.330480	0.874330	0.220856
	H37	H	0.650898	0.087118	0.218327
	H38	H	0.329978	0.086167	0.777292
	H39	H	0.652330	0.877755	0.782363
	H40	H	0.885155	0.202455	0.339672
	H41	H	0.096460	0.202937	0.657480
	H42	H	0.098069	0.759318	0.339669
	H43	H	0.889596	0.760867	0.658266
	H44	H	0.205811	0.318926	0.895934
	H45	H	0.207426	0.641798	0.100054
	H46	H	0.773458	0.318048	0.098496
	H47	H	0.771135	0.643143	0.896559
	H48	H	0.401818	0.096939	0.589357
	H49	H	0.575450	0.867566	0.588974
	H50	H	0.578956	0.092546	0.411359
	H51	H	0.410809	0.868584	0.409512
	H52	H	0.582477	0.397617	0.109742
	H53	H	0.579504	0.582317	0.882406
	H54	H	0.397743	0.565806	0.109372
	H55	H	0.393021	0.385882	0.881862
	H56	H	0.102166	0.570337	0.415877
	H57	H	0.875875	0.565574	0.591957
	H58	H	0.107822	0.384533	0.586794
	H59	H	0.875920	0.392922	0.410995
	H60	H	0.101285	0.397350	0.581229
	H61	H	0.872651	0.576026	0.588657
	H62	H	0.104063	0.559741	0.401349
	H63	H	0.874115	0.394430	0.406123
	H64	H	0.402117	0.574246	0.110693
	H65	H	0.587937	0.563964	0.885302
	H66	H	0.571995	0.384055	0.110224
	H67	H	0.396283	0.394853	0.886388
	H68	H	0.582870	0.096512	0.406384
	H69	H	0.587733	0.863505	0.588439
	H70	H	0.402407	0.096501	0.590700
	H71	H	0.400120	0.867658	0.414700
	H72	H	0.894809	0.595144	0.081134
	H73	H	0.079203	0.364743	0.088801
	H74	H	0.085894	0.599198	0.905257
	H75	H	0.899378	0.364313	0.899681
	H76	H	0.084540	0.887839	0.612572
	H77	H	0.069644	0.069142	0.389898
	H78	H	0.897298	0.071066	0.612417
	H79	H	0.899832	0.892401	0.385010
	H80	H	0.604974	0.068762	0.906583
	H81	H	0.377342	0.061157	0.087668
	H82	H	0.599954	0.891618	0.075011
	H83	H	0.374955	0.888912	0.913823
	H84	H	0.604227	0.902230	0.097312
	H85	H	0.371816	0.070447	0.095053
	H86	H	0.606896	0.073259	0.905211
	H87	H	0.375583	0.900125	0.904600
	H88	H	0.902831	0.067021	0.608923
	H89	H	0.084769	0.083297	0.381360
	H90	H	0.082411	0.891146	0.610516
	H91	H	0.903380	0.891872	0.386723
	H92	H	0.070593	0.594956	0.900490
	H93	H	0.074421	0.365447	0.091346
	H94	H	0.894076	0.599911	0.095812
	H95	H	0.906138	0.369094	0.908163
	H96	H	0.402659	0.095815	0.589094
	H97	H	0.580745	0.862770	0.598943
	H98	H	0.575648	0.095055	0.404762
	H99	H	0.401393	0.863050	0.403665
	H100	H	0.588347	0.382172	0.115652
	H101	H	0.568471	0.567369	0.890321
	H102	H	0.392938	0.572731	0.114326
	H103	H	0.402948	0.386921	0.885934
	H104	H	0.110165	0.576498	0.400990
	H105	H	0.877837	0.568700	0.581240
	H106	H	0.106761	0.396741	0.595905
	H107	H	0.873642	0.389600	0.407853
	H108	H	0.907152	0.594146	0.090092
	H109	H	0.075495	0.367777	0.085987
	H110	H	0.075399	0.592328	0.915215
	H111	H	0.894256	0.366021	0.910416
	H112	H	0.080300	0.887103	0.611043
	H113	H	0.090989	0.062088	0.385986
	H114	H	0.903804	0.074237	0.611394
	H115	H	0.901372	0.888815	0.385348
	H116	H	0.605232	0.071815	0.910076
	H117	H	0.375212	0.073071	0.083175
	H118	H	0.610560	0.878322	0.093315
	H119	H	0.370441	0.887483	0.900250
	C120	C	0.370922	-0.010364	0.620466
	C121	C	0.612547	0.971695	0.621139
	C122	C	0.611970	-0.011201	0.376620
	C123	C	0.371269	0.972615	0.377680
	C124	C	0.610991	0.358185	0.006165
	C125	C	0.610139	0.602082	0.991282
	C126	C	0.366040	0.602254	0.006380
	C127	C	0.366600	0.358401	0.990381
	C128	C	-0.001129	0.602042	0.375894
	C129	C	0.982025	0.601651	0.618500
	C130	C	-0.000756	0.360274	0.619242
	C131	C	0.980803	0.360410	0.376131
	C132	C	0.867266	0.489666	0.119981
	C133	C	0.108584	0.472489	0.118996
	C134	C	0.109547	0.489373	0.876350
	C135	C	0.868046	0.472872	0.875682
	C136	C	0.114519	0.857713	0.506804
	C137	C	0.113466	0.103139	0.490465
	C138	C	0.869279	0.102514	0.506166
	C139	C	0.870182	0.858996	0.490795
	C140	C	0.498959	0.102425	0.876235
	C141	C	0.481486	0.100545	0.119338
	C142	C	0.498158	0.859400	0.120081
	C143	C	0.481014	0.860302	0.877078
	C144	C	0.369996	0.867933	0.677845
	C145	C	0.613808	0.093613	0.678041
	C146	C	0.615071	0.867591	0.318092
	C147	C	0.367731	0.092852	0.317002
	C148	C	0.668384	0.359334	0.885769
	C149	C	0.668344	0.601599	0.111065
	C150	C	0.308119	0.602752	0.886026
	C151	C	0.308647	0.358521	0.110650
	C152	C	0.877607	0.662178	0.376271
	C153	C	0.104352	0.658399	0.618721
	C154	C	0.877490	0.301764	0.619066
	C155	C	0.103063	0.302287	0.375143
	C156	C	0.877726	0.358324	0.677380
	C157	C	0.102793	0.603620	0.677697
	C158	C	0.877179	0.605846	0.318092
	C159	C	0.101672	0.359008	0.316715
	C160	C	0.365343	0.661639	0.886690
	C161	C	0.610427	0.660142	0.110932
	C162	C	0.610229	0.301343	0.885739
	C163	C	0.366757	0.300060	0.110712
	C164	C	0.669895	0.866785	0.378264
	C165	C	0.669207	0.094357	0.618511
	C166	C	0.313774	0.867436	0.619686
	C167	C	0.312131	0.093844	0.376570
	C168	C	0.864142	0.369251	0.179990
	C169	C	0.111851	0.593111	0.177672
	C170	C	0.112409	0.369039	0.817345
	C171	C	0.865255	0.593895	0.816208
	C172	C	0.173682	0.858420	0.387038
	C173	C	0.171851	0.103558	0.610652
	C174	C	0.808653	0.104179	0.387293
	C175	C	0.811525	0.857873	0.610605
	C176	C	0.376350	0.159387	0.876330
	C177	C	0.602801	0.159543	0.119291
	C178	C	0.375935	0.802340	0.120339
	C179	C	0.602708	0.801686	0.878234
	C180	C	0.377868	0.856893	0.180342
	C181	C	0.602583	0.103967	0.178307
	C182	C	0.377775	0.104011	0.817281
	C183	C	0.603423	0.858998	0.820765
	C184	C	0.866976	0.162177	0.386912
	C185	C	0.114787	0.162699	0.609882
	C186	C	0.116670	0.798888	0.387347
	C187	C	0.870290	0.800116	0.610334
	C188	C	0.167735	0.367818	0.876448
	C189	C	0.168351	0.593372	0.119319
	C190	C	0.810361	0.367506	0.119300
	C191	C	0.809662	0.594612	0.876190
	C192	C	0.395184	0.074368	0.596831
	C193	C	0.588383	0.886655	0.598538
	C194	C	0.586573	0.072744	0.400614
	C195	C	0.396793	0.888483	0.402189
	C196	C	0.587777	0.381347	0.090208
	C197	C	0.585749	0.578264	0.907706
	C198	C	0.390519	0.577932	0.089725
	C199	C	0.390389	0.382069	0.906752
	C200	C	0.083422	0.576326	0.399114
	C201	C	0.897271	0.577375	0.594260
	C202	C	0.083459	0.385450	0.594949
	C203	C	0.896509	0.384996	0.401086
	C204	C	0.891593	0.574329	0.095921
	C205	C	0.083424	0.387958	0.095473
	C206	C	0.084555	0.573744	0.900131
	C207	C	0.892664	0.388470	0.899226
	C208	C	0.089661	0.881752	0.589803
	C209	C	0.088879	0.078770	0.407434
	C210	C	0.894328	0.077898	0.589335
	C211	C	0.894354	0.883934	0.407344
	C212	C	0.583716	0.078122	0.900282
	C213	C	0.397027	0.075435	0.095567
	C214	C	0.582994	0.883755	0.095574
	C215	C	0.395972	0.884840	0.899700
	Zn216	Zn	0.491143	-0.018788	0.748815
	Zn217	Zn	0.491218	-0.019772	0.247837
	Zn218	Zn	0.740153	0.480590	-0.001984
	Zn219	Zn	0.236866	0.480335	-0.002198
	Zn220	Zn	-0.007946	0.728534	0.497879
	Zn221	Zn	-0.008900	0.232568	0.497506
	Zn222	Zn	-0.009948	0.481653	0.746898
	Zn223	Zn	-0.012013	0.481603	0.248026
	Zn224	Zn	0.488165	0.732465	-0.001250
	Zn225	Zn	0.488747	0.228797	-0.001816
	Zn226	Zn	0.739719	-0.019803	0.499098
	Zn227	Zn	0.243219	-0.018948	0.499442
	N228	N	0.404839	0.944958	0.678443
	N229	N	0.579574	0.016427	0.679841
	N230	N	0.580003	0.944497	0.316697
	N231	N	0.403636	0.016433	0.317495
	N232	N	0.669281	0.393582	0.961835
	N233	N	0.668237	0.566363	0.035582
	N234	N	0.308401	0.566656	0.961430
	N235	N	0.308373	0.393860	0.034942
	N236	N	0.954375	0.660142	0.411371
	N237	N	0.028198	0.657185	0.582528
	N238	N	0.954021	0.302915	0.583608
	N239	N	0.026833	0.302911	0.411387
	N240	N	0.954459	0.393917	0.677751
	N241	N	0.025589	0.568912	0.677676
	N242	N	0.953615	0.569358	0.317685
	N243	N	0.024822	0.394301	0.317369
	N244	N	0.400571	0.661738	0.962521
	N245	N	0.574792	0.660537	0.035173
	N246	N	0.575126	0.300739	0.961538
	N247	N	0.402005	0.299759	0.034969
	N248	N	0.668430	0.943070	0.413775
	N249	N	0.668689	0.017489	0.583918
	N250	N	0.314171	0.944088	0.584601
	N251	N	0.313923	0.017884	0.413335
	N252	N	0.898654	0.446367	0.180722
	N253	N	0.075194	0.516958	0.177447
	N254	N	0.076811	0.445618	0.817259
	N255	N	0.900940	0.517171	0.815574
	N256	N	0.172392	0.894531	0.462318
	N257	N	0.171177	0.067215	0.535582
	N258	N	0.810094	0.067740	0.462510
	N259	N	0.811598	0.893880	0.535313
	N260	N	0.452706	0.158455	0.912227
	N261	N	0.526510	0.157522	0.083265
	N262	N	0.451987	0.803953	0.083585
	N263	N	0.525510	0.802230	0.912474
	N264	N	0.455033	0.891550	0.180233
	N265	N	0.526108	0.067968	0.178594
	N266	N	0.455117	0.069403	0.816916
	N267	N	0.526751	0.894804	0.819949
	N268	N	0.903904	0.161355	0.461749
	N269	N	0.079033	0.162604	0.534260
	N270	N	0.080565	0.798515	0.462573
	N271	N	0.905968	0.800620	0.534626
	N272	N	0.165977	0.443765	0.912521
	N273	N	0.166366	0.517413	0.083290
	N274	N	0.812113	0.443372	0.082671
	N275	N	0.811118	0.518441	0.912260
	O276	O	0.567546	0.482409	0.390723
	H277	H	0.545496	0.475779	0.386972
	H278	H	0.560344	0.475802	0.375956
	O279	O	0.415070	0.478544	0.370461
	H280	H	0.410982	0.488569	0.377580
	H281	H	0.415844	0.489269	0.369121
	O282	O	1.037469	0.062378	1.074974
	H283	H	1.056103	0.070524	1.062942
	H284	H	1.036455	0.068784	1.090528
	O285	O	0.669626	0.518424	0.435563
	H286	H	0.667009	0.503724	0.446484
	H287	H	0.671803	0.516933	0.417910
	O288	O	0.794861	1.099007	0.833437
	H289	H	0.799073	1.122295	0.839936
	H290	H	0.784220	1.104971	0.841979
	O291	O	0.112437	0.831579	-0.177631
	H292	H	0.102516	0.825101	-0.184001
	H293	H	0.093499	0.818536	-0.169393
	O294	O	0.644526	0.616745	0.650618
	H295	H	0.628724	0.619692	0.643846
	H296	H	0.648077	0.615786	0.645954
	O297	O	0.438788	0.582285	0.310271
	H298	H	0.432742	0.586428	0.310390
	H299	H	0.429779	0.595965	0.308165
	O300	O	0.567930	0.488333	0.479086
	H301	H	0.571892	0.494693	0.473912
	H302	H	0.556496	0.487264	0.475653
	O303	O	-0.095102	0.847972	0.870839
	H304	H	-0.097088	0.860608	0.871330
	H305	H	-0.114168	0.865671	0.867959
	O306	O	0.375082	0.251197	0.277026
	H307	H	0.371246	0.228150	0.282479
	H308	H	0.355329	0.256164	0.280546
	O309	O	0.963272	0.944459	-0.049667
	H310	H	0.964556	0.939833	-0.051768
	H311	H	0.973172	0.955023	-0.038981
	O312	O	0.136372	-0.117023	0.003302
	H313	H	0.136664	-0.102093	0.024378
	H314	H	0.143472	-0.105553	-0.002134
	O315	O	0.496823	0.591616	0.475869
	H316	H	0.507305	0.597480	0.467408
	H317	H	0.502661	0.579677	0.472359
	O318	O	-0.101974	0.887723	1.120014
	H319	H	-0.099193	0.892285	1.094004
	H320	H	-0.119335	0.882509	1.108683
	O321	O	0.847973	0.092730	-0.025221
	H322	H	0.855525	0.096720	-0.019827
	H323	H	0.842299	0.095684	-0.023693
	O324	O	0.185283	0.919794	-0.149080
	H325	H	0.179684	0.893570	-0.147590
	H326	H	0.197026	0.923191	-0.161677
	O327	O	0.363934	0.541851	0.409002
	H328	H	0.360022	0.553879	0.410158
	H329	H	0.354868	0.520726	0.418454
	O330	O	-1.175962	0.868084	2.193205
	H331	H	-1.188141	0.864571	2.196558
	H332	H	-1.168815	0.869061	2.180954
	O333	O	-0.561858	-0.356850	1.465498
	H334	H	-0.572681	-0.344687	1.453633
	H335	H	-0.544469	-0.363147	1.467370
	O336	O	0.512698	0.398905	0.551120
	H337	H	0.528557	0.386381	0.546729
	H338	H	0.526030	0.405843	0.533892
	O339	O	0.901108	-0.024779	0.138836
	H340	H	0.903578	-0.029416	0.121686
	H341	H	0.897982	-0.037305	0.139411
	O342	O	0.164899	-0.110729	-0.066745
	H343	H	0.177930	-0.122757	-0.066987
	H344	H	0.161302	-0.120244	-0.067307
	O345	O	1.440682	0.422377	0.429702
	H346	H	1.431043	0.428369	0.436996
	H347	H	1.439778	0.416033	0.438162
	O348	O	1.320919	1.434028	0.550538
	H349	H	1.327858	1.441867	0.569083
	H350	H	1.321543	1.415039	0.547965
	O351	O	0.548780	0.492053	0.665423
	H352	H	0.543105	0.483008	0.663980
	H353	H	0.555382	0.499191	0.667903
	O354	O	0.914332	-0.118378	0.855103
	H355	H	0.915177	-0.121574	0.843695
	H356	H	0.903617	-0.099129	0.850481
	O357	O	0.868723	0.134920	1.054902
	H358	H	0.890385	0.131938	1.065976
	H359	H	0.878197	0.116176	1.050202
	O360	O	0.488336	0.381421	0.501569
	H361	H	0.488007	0.371180	0.497568
	H362	H	0.486020	0.387251	0.511014
	O363	O	0.046724	1.071112	1.198694
	H364	H	0.030296	1.047456	1.213809
	H365	H	0.051805	1.063913	1.198448
	O366	O	0.995203	1.140930	0.061896
	H367	H	0.986924	1.154893	0.087813
	H368	H	0.981172	1.136608	0.066180
	O369	O	0.054020	1.139611	-0.092927
	H370	H	0.060821	1.129775	-0.096078
	H371	H	0.076166	1.135884	-0.080877
	O372	O	0.918899	-0.099839	0.040854
	H373	H	0.933039	-0.089931	0.046199
	H374	H	0.918342	-0.083776	0.031665
	O375	O	0.551649	0.463727	0.608441
	H376	H	0.559226	0.466593	0.624614
	H377	H	0.544644	0.467767	0.609566
	O378	O	1.379246	1.308493	0.559986
	H379	H	1.366509	1.303812	0.571407
	H380	H	1.385083	1.310935	0.559033
	O381	O	1.139099	0.116524	0.087577
	H382	H	1.133863	0.113528	0.114872
	H383	H	1.159933	0.131427	0.082727
	O384	O	0.458124	1.494298	-0.498105
	H385	H	0.450661	1.499611	-0.500335
	H386	H	0.460880	1.501654	-0.508352
	O387	O	-0.032181	-0.191021	0.191158
	H388	H	-0.027356	-0.195734	0.188881
	H389	H	-0.024781	-0.206998	0.197098
	O390	O	-0.203255	0.957187	-0.081515
	H391	H	-0.205283	0.969747	-0.092851
	H392	H	-0.217477	0.968307	-0.083584
	O393	O	0.914650	1.120798	0.834442
	H394	H	0.911454	1.132207	0.844888
	H395	H	0.920949	1.142196	0.829686
	O396	O	0.573401	0.388501	0.649909
	H397	H	0.565223	0.389720	0.660783
	H398	H	0.586685	0.391083	0.632775
	O399	O	0.025640	0.896119	1.038225
	H400	H	0.005270	0.913915	1.035464
	H401	H	0.016213	0.884727	1.022842
	O402	O	0.387537	0.531501	0.386162
	H403	H	0.390144	0.533208	0.383292
	H404	H	0.386176	0.536310	0.388329
	O405	O	1.064165	1.023086	-0.088931
	H406	H	1.079937	1.011161	-0.092189
	H407	H	1.057172	1.030302	-0.105131
	O408	O	1.508603	0.431639	0.615270
	H409	H	1.510575	0.434929	0.615000
	H410	H	1.507787	0.444269	0.599942
	O411	O	1.115707	-0.023745	1.104444
	H412	H	1.104951	-0.025373	1.101833
	H413	H	1.113942	-0.026868	1.085047
	O414	O	0.430538	0.573553	0.613810
	H415	H	0.442335	0.570519	0.614988
	H416	H	0.442215	0.572208	0.609289
	O417	O	0.501170	0.472308	0.536819
	H418	H	0.506702	0.480011	0.531496
	H419	H	0.509627	0.472869	0.539388
