data_Molecule from HDF5

_cell_length_a		16.342516
_cell_length_b		16.326947
_cell_length_c		16.259534
_cell_angle_alpha	89.959053
_cell_angle_beta	90.084046
_cell_angle_gamma	90.085551
_symmetry_space_group_name_H-M	'P 1'
_symmetry_Int_Tables_number		1

loop_
	_symmetry_equiv_pos_as_xyz
	x,y,z

loop_
	_atom_site_label
	_atom_site_type_symbol
	_atom_site_fract_x
	_atom_site_fract_y
	_atom_site_fract_z
	H0	H	0.406017	0.845762	0.711433
	H1	H	0.603318	0.172842	0.712546
	H2	H	0.602195	0.845056	0.284246
	H3	H	0.407706	0.172141	0.283312
	H4	H	0.719574	0.410439	0.834615
	H5	H	0.719025	0.607429	0.162677
	H6	H	0.288498	0.608954	0.835201
	H7	H	0.290288	0.410438	0.161867
	H8	H	0.842099	0.725476	0.398409
	H9	H	0.167621	0.724419	0.597685
	H10	H	0.841249	0.293981	0.596858
	H11	H	0.166966	0.296018	0.399970
	H12	H	0.840362	0.411145	0.712800
	H13	H	0.167484	0.606405	0.712777
	H14	H	0.841308	0.608110	0.282705
	H15	H	0.167409	0.412302	0.284644
	H16	H	0.405126	0.723618	0.834246
	H17	H	0.603064	0.723992	0.161897
	H18	H	0.603176	0.294554	0.833920
	H19	H	0.405177	0.293224	0.160987
	H20	H	0.721077	0.846460	0.397523
	H21	H	0.720565	0.172670	0.596863
	H22	H	0.288929	0.847067	0.596413
	H23	H	0.289113	0.171491	0.396891
	H24	H	0.907228	0.346059	0.212003
	H25	H	0.103423	0.672213	0.214097
	H26	H	0.102262	0.346437	0.784049
	H27	H	0.906949	0.673367	0.784324
	H28	H	0.218464	0.910326	0.333496
	H29	H	0.219519	0.107800	0.661243
	H30	H	0.790713	0.108277	0.333735
	H31	H	0.789697	0.910090	0.661071
	H32	H	0.342341	0.225902	0.895758
	H33	H	0.666402	0.224880	0.096855
	H34	H	0.341775	0.793696	0.095136
	H35	H	0.666926	0.793525	0.898456
	H36	H	0.341274	0.909516	0.211694
	H37	H	0.667331	0.106942	0.211912
	H38	H	0.341347	0.107229	0.782495
	H39	H	0.667774	0.910689	0.782644
	H40	H	0.906421	0.223892	0.333952
	H41	H	0.103284	0.224269	0.661098
	H42	H	0.103013	0.794354	0.334083
	H43	H	0.906031	0.794733	0.661692
	H44	H	0.218309	0.345875	0.901381
	H45	H	0.221299	0.672112	0.099844
	H46	H	0.788600	0.346814	0.098685
	H47	H	0.789704	0.672647	0.899243
	H48	H	0.416577	0.124649	0.592811
	H49	H	0.607235	0.892066	0.587132
	H50	H	0.600104	0.126315	0.401949
	H51	H	0.408574	0.894484	0.414362
	H52	H	0.597999	0.405456	0.117670
	H53	H	0.589538	0.601524	0.884678
	H54	H	0.412056	0.607298	0.115801
	H55	H	0.405333	0.422572	0.881988
	H56	H	0.114081	0.589659	0.411308
	H57	H	0.889294	0.601185	0.588269
	H58	H	0.121778	0.411044	0.594393
	H59	H	0.888872	0.417921	0.408595
	H60	H	0.118235	0.415566	0.585660
	H61	H	0.888683	0.601664	0.592424
	H62	H	0.124839	0.603813	0.392312
	H63	H	0.887132	0.418462	0.400165
	H64	H	0.407941	0.600726	0.115859
	H65	H	0.601187	0.608027	0.879536
	H66	H	0.605632	0.423315	0.114381
	H67	H	0.418311	0.418870	0.884575
	H68	H	0.595376	0.124422	0.402923
	H69	H	0.594181	0.892619	0.598895
	H70	H	0.412724	0.123393	0.583694
	H71	H	0.402043	0.888682	0.399662
	H72	H	0.916371	0.625806	0.095472
	H73	H	0.105804	0.389412	0.099357
	H74	H	0.094803	0.624693	0.905659
	H75	H	0.911785	0.391216	0.896799
	H76	H	0.098006	0.916228	0.613382
	H77	H	0.092347	0.103903	0.381774
	H78	H	0.909957	0.104398	0.615303
	H79	H	0.911226	0.911294	0.379167
	H80	H	0.621226	0.101877	0.901554
	H81	H	0.385928	0.102364	0.096018
	H82	H	0.620609	0.920530	0.097384
	H83	H	0.388045	0.914310	0.903724
	H84	H	0.623463	0.907925	0.092502
	H85	H	0.388506	0.105265	0.084653
	H86	H	0.619691	0.104815	0.907109
	H87	H	0.388995	0.915863	0.905216
	H88	H	0.910934	0.097828	0.612949
	H89	H	0.100619	0.107478	0.378136
	H90	H	0.096741	0.918360	0.613390
	H91	H	0.907552	0.921502	0.381024
	H92	H	0.098311	0.624920	0.908934
	H93	H	0.086055	0.396450	0.095040
	H94	H	0.911518	0.624010	0.085457
	H95	H	0.919269	0.397205	0.910739
	H96	H	0.407663	0.127683	0.590593
	H97	H	0.591395	0.898001	0.582264
	H98	H	0.599156	0.124464	0.406770
	H99	H	0.418706	0.893531	0.399964
	H100	H	0.587070	0.419791	0.110036
	H101	H	0.601939	0.593916	0.883106
	H102	H	0.415325	0.600544	0.113464
	H103	H	0.410118	0.409541	0.878739
	H104	H	0.120917	0.614061	0.415405
	H105	H	0.887860	0.604776	0.590165
	H106	H	0.119993	0.421200	0.594652
	H107	H	0.885956	0.410688	0.404302
	H108	H	0.905501	0.627807	0.094132
	H109	H	0.100902	0.395804	0.079648
	H110	H	0.099779	0.626233	0.904288
	H111	H	0.902543	0.392939	0.910616
	H112	H	0.095749	0.916728	0.613683
	H113	H	0.100315	0.098463	0.382119
	H114	H	0.916075	0.103171	0.613102
	H115	H	0.917943	0.918716	0.384573
	H116	H	0.618435	0.098620	0.906234
	H117	H	0.390923	0.094374	0.088503
	H118	H	0.618545	0.917887	0.083979
	H119	H	0.388403	0.916376	0.902952
	C120	C	0.383094	0.017691	0.618582
	C121	C	0.626321	1.001700	0.618721
	C122	C	0.626683	0.017332	0.375544
	C123	C	0.382313	1.000173	0.375583
	C124	C	0.625788	0.387793	0.006224
	C125	C	0.626183	0.630196	0.990331
	C126	C	0.382967	0.631054	0.006680
	C127	C	0.382599	0.387801	0.989726
	C128	C	0.012584	0.631375	0.376545
	C129	C	0.996179	0.631146	0.619747
	C130	C	0.012073	0.387574	0.620052
	C131	C	0.995403	0.387940	0.376405
	C132	C	0.883120	0.517911	0.119831
	C133	C	0.126356	0.501285	0.120553
	C134	C	0.126355	0.517701	0.877214
	C135	C	0.882718	0.501470	0.877021
	C136	C	0.125620	0.888115	0.505463
	C137	C	0.126392	0.131580	0.489177
	C138	C	0.883315	0.130904	0.506150
	C139	C	0.883157	0.888031	0.489531
	C140	C	0.512707	0.130862	0.875678
	C141	C	0.495840	0.130150	0.118760
	C142	C	0.512826	0.887081	0.119157
	C143	C	0.496241	0.887334	0.875572
	C144	C	0.385339	0.894908	0.673945
	C145	C	0.624031	0.124165	0.674543
	C146	C	0.623199	0.894010	0.321632
	C147	C	0.386309	0.123202	0.320686
	C148	C	0.681312	0.390240	0.883117
	C149	C	0.681002	0.627743	0.113796
	C150	C	0.327434	0.628397	0.883591
	C151	C	0.327897	0.389800	0.112941
	C152	C	0.890373	0.686726	0.378295
	C153	C	0.118796	0.686444	0.618137
	C154	C	0.889724	0.332123	0.617798
	C155	C	0.118256	0.333459	0.379332
	C156	C	0.889386	0.390311	0.675196
	C157	C	0.118841	0.627853	0.675061
	C158	C	0.890045	0.628541	0.320946
	C159	C	0.118547	0.391267	0.322148
	C160	C	0.385156	0.685674	0.883243
	C161	C	0.623524	0.685703	0.113303
	C162	C	0.623557	0.332835	0.882731
	C163	C	0.385199	0.331802	0.112457
	C164	C	0.682365	0.894793	0.377914
	C165	C	0.681957	0.124323	0.616856
	C166	C	0.326977	0.895558	0.616937
	C167	C	0.327672	0.123080	0.377399
	C168	C	0.885997	0.394794	0.174810
	C169	C	0.123979	0.623768	0.176312
	C170	C	0.123034	0.395035	0.822212
	C171	C	0.885857	0.624404	0.821910
	C172	C	0.180472	0.890420	0.382321
	C173	C	0.181697	0.128696	0.612275
	C174	C	0.828262	0.128828	0.382814
	C175	C	0.827664	0.889631	0.612416
	C176	C	0.390695	0.187314	0.876359
	C177	C	0.618047	0.186195	0.116967
	C178	C	0.390116	0.831839	0.115902
	C179	C	0.618646	0.831919	0.878027
	C180	C	0.390010	0.889378	0.173819
	C181	C	0.618538	0.127660	0.174139
	C182	C	0.390204	0.128490	0.820051
	C183	C	0.618909	0.890251	0.820551
	C184	C	0.885791	0.186103	0.382832
	C185	C	0.123876	0.186291	0.612312
	C186	C	0.123475	0.832352	0.382758
	C187	C	0.885285	0.832172	0.612456
	C188	C	0.180632	0.394675	0.880531
	C189	C	0.182506	0.623724	0.119606
	C190	C	0.827348	0.395243	0.118051
	C191	C	0.827498	0.624009	0.878754
	C192	C	0.405764	0.103096	0.595750
	C193	C	0.604110	0.916390	0.596156
	C194	C	0.604899	0.102932	0.397396
	C195	C	0.403568	0.914422	0.398109
	C196	C	0.603365	0.409609	0.091850
	C197	C	0.603877	0.607925	0.904498
	C198	C	0.405339	0.609267	0.092961
	C199	C	0.404678	0.410441	0.903693
	C200	C	0.097919	0.608917	0.399413
	C201	C	0.910644	0.609022	0.597087
	C202	C	0.097675	0.409527	0.598026
	C203	C	0.909557	0.409351	0.398163
	C204	C	0.904695	0.603695	0.098060
	C205	C	0.104181	0.415932	0.097832
	C206	C	0.104364	0.603268	0.899748
	C207	C	0.904756	0.415860	0.899514
	C208	C	0.103417	0.910589	0.591511
	C209	C	0.104273	0.109692	0.402952
	C210	C	0.905651	0.108376	0.591756
	C211	C	0.905651	0.910474	0.403753
	C212	C	0.597769	0.108509	0.898540
	C213	C	0.410426	0.107483	0.096245
	C214	C	0.598727	0.909079	0.097360
	C215	C	0.410651	0.909023	0.897533
	Zn216	Zn	0.504361	0.009419	0.747076
	Zn217	Zn	0.504343	0.008423	0.247591
	Zn218	Zn	0.754377	0.509444	-0.001223
	Zn219	Zn	0.255076	0.509806	-0.000989
	Zn220	Zn	0.004833	0.759891	0.498082
	Zn221	Zn	0.004292	0.259597	0.497798
	Zn222	Zn	0.003650	0.509662	0.748395
	Zn223	Zn	0.004406	0.509145	0.248364
	Zn224	Zn	0.504830	0.758659	-0.002469
	Zn225	Zn	0.504026	0.259335	-0.002788
	Zn226	Zn	0.755286	0.009516	0.497188
	Zn227	Zn	0.254010	0.009327	0.496994
	N228	N	0.419250	0.972160	0.675262
	N229	N	0.590073	0.047154	0.675731
	N230	N	0.589206	0.970957	0.320094
	N231	N	0.419581	0.045861	0.319727
	N232	N	0.682997	0.423649	0.960725
	N233	N	0.682577	0.594042	0.036396
	N234	N	0.325979	0.595292	0.961511
	N235	N	0.326409	0.424027	0.035700
	N236	N	0.967486	0.688556	0.412184
	N237	N	0.041524	0.688681	0.584601
	N238	N	0.966925	0.330320	0.584238
	N239	N	0.040770	0.331388	0.412392
	N240	N	0.966622	0.423922	0.676932
	N241	N	0.041557	0.594282	0.676189
	N242	N	0.967223	0.594871	0.319790
	N243	N	0.041238	0.424526	0.320214
	N244	N	0.419219	0.687091	0.960774
	N245	N	0.590055	0.687254	0.035543
	N246	N	0.589415	0.331411	0.959934
	N247	N	0.418487	0.330599	0.034692
	N248	N	0.684574	0.972419	0.410832
	N249	N	0.683674	0.047128	0.582884
	N250	N	0.325621	0.972780	0.583055
	N251	N	0.324985	0.045649	0.410792
	N252	N	0.920143	0.471856	0.175892
	N253	N	0.089535	0.546739	0.176781
	N254	N	0.089969	0.472431	0.820069
	N255	N	0.919391	0.547062	0.820617
	N256	N	0.181657	0.924691	0.459692
	N257	N	0.183172	0.095313	0.534629
	N258	N	0.826850	0.094945	0.460314
	N259	N	0.826268	0.923566	0.535157
	N260	N	0.467770	0.188806	0.910385
	N261	N	0.540824	0.187930	0.083351
	N262	N	0.467550	0.830325	0.082713
	N263	N	0.541391	0.829949	0.911480
	N264	N	0.467312	0.922830	0.176028
	N265	N	0.541606	0.093451	0.175258
	N266	N	0.466926	0.094185	0.819338
	N267	N	0.541713	0.923819	0.818787
	N268	N	0.919464	0.187462	0.460471
	N269	N	0.090406	0.188318	0.534670
	N270	N	0.089894	0.831162	0.460249
	N271	N	0.918959	0.830811	0.534731
	N272	N	0.182684	0.472021	0.913907
	N273	N	0.184157	0.546686	0.085693
	N274	N	0.825551	0.472693	0.084622
	N275	N	0.825441	0.546654	0.912210
	O276	O	0.487864	0.509267	0.570395
	H277	H	0.493631	0.516604	0.575815
	H278	H	0.488980	0.511956	0.571435
	O279	O	-0.058424	0.013519	0.006469
	H280	H	-0.060341	0.011688	0.012009
	H281	H	-0.055689	0.003880	0.013190
	O282	O	0.958015	-0.026740	0.975221
	H283	H	0.956086	-0.025250	0.970268
	H284	H	0.955162	-0.030127	0.975027
	O285	O	0.516388	0.512692	0.571347
	H286	H	0.516829	0.512055	0.569439
	H287	H	0.525927	0.522474	0.571763
	O288	O	0.944952	0.050935	-0.020048
	H289	H	0.942367	0.056511	-0.016335
	H290	H	0.943934	0.052947	-0.019837
	O291	O	-0.510434	0.450365	-0.405375
	H292	H	-0.508974	0.450549	-0.394508
	H293	H	-0.521333	0.455713	-0.403712
	O294	O	0.475771	0.473697	0.599531
	H295	H	0.478578	0.470531	0.606118
	H296	H	0.470581	0.460150	0.596011
	O297	O	-0.066840	1.026317	-0.019337
	H298	H	-0.066229	1.020116	-0.018711
	H299	H	-0.078850	1.022341	-0.013550
	O300	O	0.961791	-0.034825	0.968552
	H301	H	0.960838	-0.031673	0.955774
	H302	H	0.965327	-0.036400	0.962135
	O303	O	0.508386	0.504954	0.516471
	H304	H	0.516726	0.502731	0.525560
	H305	H	0.516823	0.500976	0.512744
	O306	O	-0.041694	0.999988	0.934794
	H307	H	-0.046603	1.007046	0.927037
	H308	H	-0.036561	1.012198	0.941787
	O309	O	0.509970	0.478863	0.581172
	H310	H	0.497077	0.484851	0.582643
	H311	H	0.505865	0.471335	0.579961
