data_Molecule from HDF5

_cell_length_a		16.362648
_cell_length_b		16.430800
_cell_length_c		16.152986
_cell_angle_alpha	90.133391
_cell_angle_beta	90.029316
_cell_angle_gamma	89.994138
_symmetry_space_group_name_H-M	'P 1'
_symmetry_Int_Tables_number		1

loop_
	_symmetry_equiv_pos_as_xyz
	x,y,z

loop_
	_atom_site_label
	_atom_site_type_symbol
	_atom_site_fract_x
	_atom_site_fract_y
	_atom_site_fract_z
	H0	H	0.404103	0.836017	0.713891
	H1	H	0.606638	0.159297	0.715377
	H2	H	0.601882	0.835552	0.280967
	H3	H	0.405407	0.160434	0.281748
	H4	H	0.720593	0.394747	0.834329
	H5	H	0.719468	0.599309	0.159848
	H6	H	0.283179	0.600740	0.834805
	H7	H	0.286264	0.397311	0.160596
	H8	H	0.842949	0.716288	0.394050
	H9	H	0.164855	0.717338	0.602173
	H10	H	0.843801	0.276874	0.600944
	H11	H	0.163881	0.276847	0.390914
	H12	H	0.840978	0.397420	0.711422
	H13	H	0.164926	0.598248	0.715032
	H14	H	0.840383	0.596099	0.281917
	H15	H	0.165279	0.397306	0.279759
	H16	H	0.396014	0.717411	0.835242
	H17	H	0.604930	0.714720	0.159894
	H18	H	0.607762	0.278398	0.835090
	H19	H	0.400804	0.280806	0.160135
	H20	H	0.722733	0.836877	0.392604
	H21	H	0.724613	0.158147	0.600616
	H22	H	0.284104	0.837419	0.600322
	H23	H	0.284241	0.158655	0.394085
	H24	H	0.904598	0.334707	0.211578
	H25	H	0.101746	0.658884	0.213333
	H26	H	0.102574	0.335876	0.779520
	H27	H	0.902223	0.658628	0.779815
	H28	H	0.219225	0.896865	0.332873
	H29	H	0.220237	0.099302	0.659943
	H30	H	0.788051	0.097926	0.332471
	H31	H	0.789038	0.899737	0.660404
	H32	H	0.341957	0.216320	0.893290
	H33	H	0.664762	0.216908	0.100036
	H34	H	0.341787	0.779844	0.099502
	H35	H	0.663288	0.776663	0.893186
	H36	H	0.340249	0.900982	0.210512
	H37	H	0.667247	0.095659	0.210455
	H38	H	0.341258	0.095728	0.780235
	H39	H	0.667179	0.898398	0.782197
	H40	H	0.900728	0.215257	0.333489
	H41	H	0.106986	0.216360	0.658843
	H42	H	0.106103	0.780917	0.332801
	H43	H	0.902899	0.782523	0.660733
	H44	H	0.223332	0.338445	0.891497
	H45	H	0.221416	0.658245	0.100237
	H46	H	0.783386	0.336735	0.099103
	H47	H	0.784621	0.658498	0.895428
	H48	H	0.408901	0.110541	0.581475
	H49	H	0.600872	0.883198	0.583664
	H50	H	0.595991	0.111050	0.407668
	H51	H	0.416595	0.885935	0.406637
	H52	H	0.595079	0.406333	0.114375
	H53	H	0.588829	0.585240	0.882628
	H54	H	0.420846	0.586403	0.108766
	H55	H	0.414224	0.409331	0.882159
	H56	H	0.118446	0.592288	0.409727
	H57	H	0.888047	0.593388	0.586704
	H58	H	0.117590	0.407651	0.585758
	H59	H	0.891101	0.406116	0.411896
	H60	H	0.118969	0.405604	0.588929
	H61	H	0.890425	0.589842	0.584576
	H62	H	0.117152	0.585257	0.406174
	H63	H	0.888283	0.408831	0.401628
	H64	H	0.411418	0.598357	0.116841
	H65	H	0.592757	0.591055	0.879601
	H66	H	0.592766	0.408483	0.112505
	H67	H	0.413941	0.404545	0.880329
	H68	H	0.601034	0.113366	0.405245
	H69	H	0.597405	0.882445	0.591204
	H70	H	0.411255	0.112742	0.590987
	H71	H	0.405633	0.883795	0.408446
	H72	H	0.906056	0.612599	0.086023
	H73	H	0.095470	0.384010	0.083844
	H74	H	0.095507	0.611049	0.912637
	H75	H	0.915558	0.385681	0.908737
	H76	H	0.095084	0.907247	0.612816
	H77	H	0.092062	0.101606	0.375430
	H78	H	0.913348	0.091846	0.612923
	H79	H	0.914697	0.906906	0.381052
	H80	H	0.619706	0.086948	0.899696
	H81	H	0.388960	0.092749	0.083233
	H82	H	0.620922	0.894342	0.084179
	H83	H	0.390487	0.913516	0.902504
	H84	H	0.614051	0.911171	0.081371
	H85	H	0.390202	0.086017	0.088893
	H86	H	0.619324	0.097577	0.909526
	H87	H	0.386101	0.901168	0.902226
	H88	H	0.911450	0.085255	0.612115
	H89	H	0.106597	0.080833	0.378364
	H90	H	0.094230	0.905496	0.613251
	H91	H	0.914518	0.903812	0.379274
	H92	H	0.095464	0.613516	0.903091
	H93	H	0.097932	0.381910	0.088715
	H94	H	0.908350	0.613597	0.093492
	H95	H	0.904192	0.382759	0.909020
	H96	H	0.418429	0.108693	0.584704
	H97	H	0.592327	0.886496	0.585349
	H98	H	0.596098	0.113113	0.401657
	H99	H	0.410290	0.881459	0.398466
	H100	H	0.591355	0.405560	0.113912
	H101	H	0.595490	0.584550	0.880550
	H102	H	0.403672	0.583000	0.114425
	H103	H	0.409961	0.407273	0.880424
	H104	H	0.120321	0.591263	0.401084
	H105	H	0.888838	0.589588	0.588840
	H106	H	0.118138	0.403825	0.585698
	H107	H	0.887018	0.398483	0.405225
	H108	H	0.913012	0.610311	0.087717
	H109	H	0.092222	0.383410	0.088761
	H110	H	0.087763	0.609823	0.907015
	H111	H	0.910115	0.380945	0.899274
	H112	H	0.095650	0.905587	0.613875
	H113	H	0.082002	0.080279	0.386690
	H114	H	0.918468	0.087150	0.610597
	H115	H	0.912066	0.905754	0.379080
	H116	H	0.614305	0.084279	0.913698
	H117	H	0.386236	0.093967	0.092039
	H118	H	0.621059	0.906613	0.097832
	H119	H	0.390868	0.905704	0.913047
	C120	C	0.382482	0.005069	0.617208
	C121	C	0.627115	0.990133	0.618205
	C122	C	0.626796	0.005957	0.374416
	C123	C	0.381316	0.990080	0.374605
	C124	C	0.623772	0.376370	0.005647
	C125	C	0.622988	0.618021	0.988494
	C126	C	0.380755	0.619241	0.005695
	C127	C	0.382180	0.377176	0.988884
	C128	C	0.011841	0.619061	0.375523
	C129	C	0.995480	0.620622	0.618683
	C130	C	0.011875	0.375885	0.617654
	C131	C	0.995278	0.374905	0.375099
	C132	C	0.880283	0.505462	0.118752
	C133	C	0.124559	0.489109	0.117857
	C134	C	0.124091	0.505848	0.875545
	C135	C	0.880083	0.489172	0.874977
	C136	C	0.125080	0.876184	0.505358
	C137	C	0.124160	0.118183	0.488147
	C138	C	0.883228	0.118760	0.504397
	C139	C	0.883372	0.876300	0.488156
	C140	C	0.511419	0.119786	0.875651
	C141	C	0.495342	0.120505	0.118728
	C142	C	0.511461	0.875742	0.117607
	C143	C	0.495681	0.876057	0.875543
	C144	C	0.384016	0.884008	0.674716
	C145	C	0.626452	0.110901	0.676641
	C146	C	0.623666	0.884267	0.318241
	C147	C	0.383917	0.111767	0.318703
	C148	C	0.682097	0.375410	0.883291
	C149	C	0.680791	0.618246	0.111011
	C150	C	0.322133	0.619727	0.883592
	C151	C	0.324775	0.377511	0.111560
	C152	C	0.890911	0.676635	0.375322
	C153	C	0.116636	0.678136	0.620188
	C154	C	0.891340	0.316810	0.619028
	C155	C	0.116041	0.316801	0.373091
	C156	C	0.889849	0.377107	0.673897
	C157	C	0.116538	0.618835	0.676594
	C158	C	0.889471	0.616681	0.319487
	C159	C	0.116890	0.376777	0.317729
	C160	C	0.378380	0.677928	0.883638
	C161	C	0.623837	0.676006	0.110920
	C162	C	0.625554	0.317710	0.883550
	C163	C	0.381980	0.319870	0.111491
	C164	C	0.683708	0.885053	0.374053
	C165	C	0.685124	0.110434	0.619257
	C166	C	0.324290	0.884837	0.618426
	C167	C	0.323632	0.110801	0.374644
	C168	C	0.883174	0.383509	0.174380
	C169	C	0.122397	0.610712	0.174867
	C170	C	0.122857	0.384488	0.817696
	C171	C	0.881806	0.610349	0.818264
	C172	C	0.181429	0.877005	0.381978
	C173	C	0.181630	0.118387	0.611080
	C174	C	0.826395	0.117931	0.381422
	C175	C	0.826968	0.878743	0.611410
	C176	C	0.390334	0.177080	0.874393
	C177	C	0.616786	0.177423	0.118622
	C178	C	0.389615	0.819379	0.117822
	C179	C	0.616161	0.817074	0.874793
	C180	C	0.389082	0.879576	0.173143
	C181	C	0.617914	0.117328	0.173698
	C182	C	0.389786	0.117150	0.818207
	C183	C	0.617969	0.877474	0.819420
	C184	C	0.882568	0.176219	0.382091
	C185	C	0.125649	0.176815	0.610215
	C186	C	0.124747	0.819388	0.381861
	C187	C	0.883689	0.820557	0.611449
	C188	C	0.182853	0.385660	0.873501
	C189	C	0.181834	0.610244	0.118670
	C190	C	0.823304	0.384336	0.118108
	C191	C	0.822954	0.610190	0.875353
	C192	C	0.406017	0.088786	0.592809
	C193	C	0.603602	0.905936	0.593845
	C194	C	0.604338	0.090629	0.398061
	C195	C	0.404164	0.905716	0.397676
	C196	C	0.599983	0.400032	0.091064
	C197	C	0.599190	0.594106	0.903079
	C198	C	0.404973	0.595930	0.091117
	C199	C	0.405888	0.400350	0.903333
	C200	C	0.096666	0.596133	0.398861
	C201	C	0.911076	0.597648	0.593857
	C202	C	0.096306	0.399169	0.593918
	C203	C	0.910693	0.397817	0.399237
	C204	C	0.902690	0.590134	0.095950
	C205	C	0.101698	0.404840	0.094022
	C206	C	0.099929	0.589567	0.900266
	C207	C	0.903245	0.404848	0.898809
	C208	C	0.101766	0.899299	0.591050
	C209	C	0.100422	0.094326	0.402436
	C210	C	0.907306	0.094959	0.589728
	C211	C	0.906790	0.898918	0.402020
	C212	C	0.595910	0.096364	0.900370
	C213	C	0.410431	0.097710	0.095042
	C214	C	0.596741	0.897579	0.094506
	C215	C	0.411123	0.899759	0.899050
	Zn216	Zn	0.504507	-0.002149	0.746522
	Zn217	Zn	0.504216	-0.002033	0.245975
	Zn218	Zn	0.750870	0.497286	-0.003278
	Zn219	Zn	0.253949	0.497305	-0.002827
	Zn220	Zn	0.004626	0.748604	0.496613
	Zn221	Zn	0.004152	0.246628	0.496608
	Zn222	Zn	0.002919	0.497308	0.746209
	Zn223	Zn	0.003286	0.497042	0.247042
	Zn224	Zn	0.502350	0.746399	-0.003441
	Zn225	Zn	0.503218	0.248735	-0.002948
	Zn226	Zn	0.755474	-0.002301	0.495784
	Zn227	Zn	0.251801	-0.002085	0.496681
	N228	N	0.419581	0.959823	0.674244
	N229	N	0.590862	0.035102	0.676034
	N230	N	0.589085	0.960492	0.318214
	N231	N	0.419040	0.035706	0.318301
	N232	N	0.681069	0.411341	0.960318
	N233	N	0.680300	0.582827	0.033944
	N234	N	0.323366	0.584167	0.960548
	N235	N	0.324899	0.412410	0.034375
	N236	N	0.967939	0.678257	0.409225
	N237	N	0.040092	0.679331	0.585000
	N238	N	0.968087	0.315998	0.584513
	N239	N	0.039531	0.315627	0.408179
	N240	N	0.965568	0.413408	0.672941
	N241	N	0.040269	0.583796	0.675806
	N242	N	0.965731	0.581409	0.319603
	N243	N	0.040834	0.412244	0.318909
	N244	N	0.414356	0.677755	0.960640
	N245	N	0.588525	0.675916	0.033669
	N246	N	0.590073	0.318173	0.960633
	N247	N	0.416712	0.319195	0.033940
	N248	N	0.685762	0.961860	0.408040
	N249	N	0.685618	0.034310	0.583742
	N250	N	0.323276	0.960896	0.583239
	N251	N	0.321792	0.034228	0.408671
	N252	N	0.917700	0.459896	0.175130
	N253	N	0.087649	0.534497	0.174904
	N254	N	0.087075	0.460214	0.818833
	N255	N	0.916180	0.534057	0.817666
	N256	N	0.181796	0.911448	0.459625
	N257	N	0.180844	0.082753	0.533968
	N258	N	0.826398	0.083077	0.458583
	N259	N	0.826777	0.912725	0.533631
	N260	N	0.467039	0.178676	0.909228
	N261	N	0.539405	0.179437	0.085291
	N262	N	0.466733	0.817003	0.084065
	N263	N	0.538977	0.815915	0.908671
	N264	N	0.465702	0.913962	0.173182
	N265	N	0.541425	0.082589	0.173836
	N266	N	0.466356	0.082523	0.818873
	N267	N	0.541962	0.913134	0.819608
	N268	N	0.917158	0.176824	0.459728
	N269	N	0.090865	0.176921	0.532782
	N270	N	0.090541	0.818646	0.459750
	N271	N	0.917962	0.818969	0.533706
	N272	N	0.184094	0.462110	0.908357
	N273	N	0.183132	0.533635	0.084090
	N274	N	0.821296	0.460993	0.084361
	N275	N	0.821760	0.533655	0.909776
	O276	O	-0.065129	-0.057654	-0.092638
	H277	H	-0.059459	-0.052499	-0.096117
	H278	H	-0.058739	-0.063410	-0.098843
	O279	O	-0.445993	0.519615	-0.474472
	H280	H	-0.432760	0.507845	-0.477092
	H281	H	-0.442483	0.515229	-0.472189
	O282	O	1.533007	-0.650938	0.436975
	H283	H	1.525595	-0.645549	0.434836
	H284	H	1.527119	-0.663056	0.424810
	O285	O	-0.083054	0.967091	-0.109975
	H286	H	-0.075566	0.970201	-0.107954
	H287	H	-0.083256	0.971286	-0.120129
	O288	O	0.543764	0.356662	0.572817
	H289	H	0.553393	0.352454	0.571699
	H290	H	0.532956	0.360048	0.589817
	O291	O	0.366504	0.388850	0.456055
	H292	H	0.347100	0.387742	0.448124
	H293	H	0.380221	0.397921	0.459122
	O294	O	1.121908	0.933076	1.029210
	H295	H	1.113988	0.931799	1.028177
	H296	H	1.132323	0.925264	1.026288
	O297	O	0.023867	-0.007861	0.000842
	H298	H	0.024728	-0.005474	-0.013401
	H299	H	0.016795	-0.012436	0.003036
	O300	O	0.469645	0.694205	0.338661
	H301	H	0.467119	0.691521	0.331299
	H302	H	0.458382	0.696435	0.336737
	O303	O	-0.533801	0.481368	1.548834
	H304	H	-0.517492	0.490126	1.549152
	H305	H	-0.522407	0.472904	1.548712
	O306	O	0.432903	0.666856	0.608598
	H307	H	0.438052	0.650790	0.611122
	H308	H	0.440762	0.680197	0.618647
	O309	O	0.884558	-0.008939	-0.033732
	H310	H	0.887644	-0.006507	-0.036976
	H311	H	0.888233	-0.017367	-0.033385
	O312	O	0.510017	0.406156	1.338819
	H313	H	0.508867	0.399493	1.334764
	H314	H	0.523534	0.405833	1.342905
	O315	O	0.498646	1.358487	0.549522
	H316	H	0.505706	1.361542	0.562154
	H317	H	0.500592	1.347933	0.546101
	O318	O	0.345736	0.416536	0.655996
	H319	H	0.340022	0.411790	0.643277
	H320	H	0.336093	0.430328	0.651706
	O321	O	0.480686	0.489211	0.444934
	H322	H	0.481295	0.485906	0.458539
	H323	H	0.460045	0.489960	0.436754
	O324	O	0.619385	0.419512	0.438795
	H325	H	0.627093	0.419012	0.452340
	H326	H	0.608934	0.409055	0.433198
	O327	O	-0.357353	1.667186	1.492925
	H328	H	-0.362029	1.668767	1.489932
	H329	H	-0.354810	1.663325	1.481984
	O330	O	0.656795	0.446540	0.316410
	H331	H	0.660051	0.431697	0.319004
	H332	H	0.665480	0.433452	0.309042
	O333	O	0.538836	0.686135	0.683979
	H334	H	0.555523	0.685830	0.687469
	H335	H	0.546163	0.705937	0.683770
	O336	O	0.043565	-0.045445	0.086492
	H337	H	0.047675	-0.050412	0.100321
	H338	H	0.035754	-0.047553	0.095217
	O339	O	1.071168	1.107428	-0.091216
	H340	H	1.073792	1.103782	-0.072815
	H341	H	1.072787	1.109658	-0.081119
	O342	O	0.954736	0.061193	0.089564
	H343	H	0.962860	0.064825	0.084111
	H344	H	0.952047	0.058591	0.095035
	O345	O	0.490941	0.563644	0.353717
	H346	H	0.485723	0.554912	0.366368
	H347	H	0.496463	0.563395	0.367060
	O348	O	0.606367	0.408818	0.409926
	H349	H	0.614484	0.400576	0.418947
	H350	H	0.610253	0.408218	0.407389
	O351	O	1.025195	0.942020	-0.013128
	H352	H	1.028254	0.931790	-0.020067
	H353	H	1.015159	0.951061	-0.013135
	O354	O	0.937461	0.100841	0.931624
	H355	H	0.946724	0.105032	0.919299
	H356	H	0.937390	0.101828	0.937452
	O357	O	0.509218	0.553145	0.476749
	H358	H	0.485279	0.560073	0.470731
	H359	H	0.499272	0.554154	0.482263
	O360	O	0.038913	-0.051311	0.024102
	H361	H	0.035212	-0.055905	0.021153
	H362	H	0.037144	-0.052054	0.031184
	O363	O	0.536538	0.531066	0.592152
	H364	H	0.531616	0.556086	0.596701
	H365	H	0.547285	0.528897	0.610084
	O366	O	1.050592	1.059829	1.048543
	H367	H	1.056213	1.053786	1.037428
	H368	H	1.051418	1.075317	1.054334
	O369	O	0.974188	-0.023596	0.021485
	H370	H	0.969333	-0.039763	0.025808
	H371	H	0.968996	-0.015082	0.020345
	O372	O	0.336373	0.615038	0.447518
	H373	H	0.331081	0.630194	0.439772
	H374	H	0.341950	0.618831	0.452768
	O375	O	-0.042695	1.014265	1.010323
	H376	H	-0.036725	1.003101	1.007866
	H377	H	-0.053125	1.008549	1.007300
	O378	O	0.396474	0.442059	0.524855
	H379	H	0.416917	0.444515	0.514748
	H380	H	0.394933	0.436957	0.534028
	O381	O	0.466532	0.423926	0.539907
	H382	H	0.455062	0.421075	0.551010
	H383	H	0.471724	0.440557	0.545943
	O384	O	0.022433	0.948317	0.014766
	H385	H	0.023725	0.951884	0.019492
	H386	H	0.023999	0.947449	0.013229
	O387	O	0.562929	0.349410	1.639603
	H388	H	0.535021	0.357657	1.635141
	H389	H	0.564648	0.338944	1.652817
	O390	O	-0.015115	0.926727	0.079063
	H391	H	-0.030044	0.930963	0.093249
	H392	H	-0.015029	0.931327	0.066054
	O393	O	0.984513	1.012833	-0.031637
	H394	H	0.986821	1.007050	-0.036399
	H395	H	0.987718	1.031703	-0.023667
	O396	O	0.670565	0.640507	0.611769
	H397	H	0.671828	0.641170	0.609769
	H398	H	0.672641	0.640134	0.590732
	O399	O	0.104346	1.073418	1.041717
	H400	H	0.106482	1.068956	1.050781
	H401	H	0.106886	1.077388	1.048362
	O402	O	1.133235	1.081057	0.997104
	H403	H	1.129321	1.078683	1.005089
	H404	H	1.135756	1.085503	1.016633
	O405	O	0.337882	0.521569	0.589331
	H406	H	0.332351	0.518992	0.598770
	H407	H	0.333827	0.519185	0.596555
