data_Molecule from HDF5

_cell_length_a		16.259698
_cell_length_b		16.388672
_cell_length_c		16.264226
_cell_angle_alpha	90.155293
_cell_angle_beta	89.863422
_cell_angle_gamma	90.043857
_symmetry_space_group_name_H-M	'P 1'
_symmetry_Int_Tables_number		1

loop_
	_symmetry_equiv_pos_as_xyz
	x,y,z

loop_
	_atom_site_label
	_atom_site_type_symbol
	_atom_site_fract_x
	_atom_site_fract_y
	_atom_site_fract_z
	H0	H	0.397331	0.849562	0.714793
	H1	H	0.594689	0.174892	0.713666
	H2	H	0.595935	0.850212	0.284094
	H3	H	0.399118	0.175323	0.285077
	H4	H	0.711074	0.415078	0.834812
	H5	H	0.711835	0.610256	0.163681
	H6	H	0.286053	0.609164	0.834959
	H7	H	0.284501	0.416257	0.163738
	H8	H	0.834370	0.726715	0.399754
	H9	H	0.161111	0.727784	0.598426
	H10	H	0.834470	0.297426	0.599442
	H11	H	0.161199	0.297066	0.398499
	H12	H	0.834026	0.414235	0.714790
	H13	H	0.161867	0.610182	0.712746
	H14	H	0.834072	0.607599	0.287098
	H15	H	0.161701	0.414470	0.285101
	H16	H	0.397701	0.729025	0.836867
	H17	H	0.596817	0.727961	0.163619
	H18	H	0.599188	0.295023	0.836528
	H19	H	0.398537	0.298130	0.163241
	H20	H	0.711281	0.849306	0.401289
	H21	H	0.712793	0.174879	0.598207
	H22	H	0.282604	0.849202	0.596698
	H23	H	0.282860	0.175189	0.402777
	H24	H	0.899449	0.349174	0.213713
	H25	H	0.095810	0.675260	0.214355
	H26	H	0.097671	0.349993	0.782809
	H27	H	0.900321	0.674744	0.785609
	H28	H	0.210880	0.914829	0.335086
	H29	H	0.209536	0.109484	0.664342
	H30	H	0.784848	0.108067	0.334937
	H31	H	0.783927	0.916136	0.663564
	H32	H	0.333917	0.226171	0.902195
	H33	H	0.661497	0.227565	0.097795
	H34	H	0.334248	0.798465	0.098775
	H35	H	0.661237	0.797467	0.899139
	H36	H	0.333286	0.916589	0.212310
	H37	H	0.661908	0.110494	0.213360
	H38	H	0.333467	0.109377	0.786835
	H39	H	0.661502	0.914824	0.784777
	H40	H	0.899603	0.226133	0.335763
	H41	H	0.097000	0.229373	0.661655
	H42	H	0.096397	0.797035	0.335582
	H43	H	0.897293	0.797220	0.662691
	H44	H	0.213279	0.349739	0.901163
	H45	H	0.212158	0.675477	0.097454
	H46	H	0.782894	0.349634	0.096813
	H47	H	0.784375	0.675528	0.901850
	H48	H	0.402828	0.127745	0.592370
	H49	H	0.594849	0.896045	0.587630
	H50	H	0.581371	0.124485	0.411741
	H51	H	0.408860	0.900130	0.411253
	H52	H	0.589300	0.422277	0.114811
	H53	H	0.590769	0.601034	0.884476
	H54	H	0.397577	0.607424	0.118680
	H55	H	0.410844	0.418844	0.884736
	H56	H	0.112719	0.603284	0.409811
	H57	H	0.879864	0.602431	0.600737
	H58	H	0.113856	0.422235	0.593435
	H59	H	0.881770	0.415512	0.411283
	H60	H	0.115159	0.416976	0.590620
	H61	H	0.879746	0.613319	0.590898
	H62	H	0.115640	0.604553	0.403465
	H63	H	0.882367	0.423619	0.406353
	H64	H	0.407341	0.599907	0.113578
	H65	H	0.586212	0.607250	0.883676
	H66	H	0.588325	0.416840	0.115767
	H67	H	0.405110	0.414142	0.881647
	H68	H	0.601038	0.129630	0.412795
	H69	H	0.592609	0.895055	0.598234
	H70	H	0.402826	0.127529	0.594477
	H71	H	0.397666	0.895419	0.407824
	H72	H	0.898746	0.626280	0.082745
	H73	H	0.086167	0.399476	0.089247
	H74	H	0.097477	0.631465	0.899416
	H75	H	0.899732	0.394995	0.906344
	H76	H	0.091528	0.917344	0.617014
	H77	H	0.094315	0.105586	0.381278
	H78	H	0.905062	0.109069	0.616605
	H79	H	0.895988	0.922306	0.382072
	H80	H	0.613582	0.101124	0.906489
	H81	H	0.378961	0.111812	0.094732
	H82	H	0.615073	0.918797	0.090465
	H83	H	0.377932	0.913318	0.901501
	H84	H	0.614527	0.920760	0.091841
	H85	H	0.382908	0.105090	0.088123
	H86	H	0.615833	0.107963	0.902973
	H87	H	0.382757	0.916412	0.915904
	H88	H	0.902665	0.104618	0.616254
	H89	H	0.089433	0.103201	0.383388
	H90	H	0.089355	0.922367	0.615100
	H91	H	0.912007	0.922385	0.385983
	H92	H	0.084438	0.627009	0.903797
	H93	H	0.096194	0.397209	0.087791
	H94	H	0.898492	0.632656	0.103572
	H95	H	0.907343	0.395688	0.900570
	H96	H	0.405105	0.127801	0.593195
	H97	H	0.585017	0.899053	0.591409
	H98	H	0.591286	0.131052	0.395144
	H99	H	0.406855	0.896292	0.399656
	H100	H	0.592903	0.418988	0.116593
	H101	H	0.594180	0.608122	0.881887
	H102	H	0.410271	0.612851	0.116529
	H103	H	0.404376	0.421518	0.883617
	H104	H	0.115881	0.608808	0.408369
	H105	H	0.884177	0.599866	0.586733
	H106	H	0.112400	0.421294	0.587630
	H107	H	0.878177	0.415912	0.402133
	H108	H	0.916579	0.624340	0.094869
	H109	H	0.091944	0.394968	0.097669
	H110	H	0.095703	0.626428	0.912626
	H111	H	0.908344	0.398373	0.909775
	H112	H	0.086243	0.917374	0.615114
	H113	H	0.089506	0.108781	0.382572
	H114	H	0.907303	0.105605	0.614435
	H115	H	0.905046	0.909100	0.379567
	H116	H	0.613465	0.107790	0.910944
	H117	H	0.380594	0.102139	0.097314
	H118	H	0.614925	0.918455	0.093408
	H119	H	0.383149	0.927432	0.904505
	C120	C	0.374993	0.020315	0.621973
	C121	C	0.619383	1.003899	0.621110
	C122	C	0.619797	0.020988	0.377405
	C123	C	0.375818	1.004446	0.378148
	C124	C	0.619574	0.390376	0.007797
	C125	C	0.619363	0.634240	0.991585
	C126	C	0.377227	0.634389	0.007868
	C127	C	0.377269	0.390703	0.991403
	C128	C	0.006378	0.633053	0.378555
	C129	C	0.989433	0.634038	0.621003
	C130	C	0.005673	0.391230	0.620344
	C131	C	0.989197	0.390325	0.377617
	C132	C	0.876270	0.520164	0.121461
	C133	C	0.119680	0.504319	0.120749
	C134	C	0.120956	0.520893	0.876847
	C135	C	0.876888	0.504147	0.877774
	C136	C	0.118260	0.890840	0.507278
	C137	C	0.119223	0.134274	0.490804
	C138	C	0.876533	0.133786	0.507669
	C139	C	0.875338	0.889801	0.490684
	C140	C	0.506097	0.133797	0.878458
	C141	C	0.489361	0.134265	0.121159
	C142	C	0.506242	0.891304	0.120728
	C143	C	0.489688	0.891109	0.878360
	C144	C	0.377337	0.897986	0.676642
	C145	C	0.616108	0.126432	0.676145
	C146	C	0.616837	0.898534	0.321951
	C147	C	0.378435	0.126768	0.323082
	C148	C	0.674351	0.393356	0.884209
	C149	C	0.674498	0.631389	0.114581
	C150	C	0.322870	0.630746	0.884250
	C151	C	0.322252	0.394958	0.114744
	C152	C	0.883234	0.688173	0.380096
	C153	C	0.112442	0.689296	0.618432
	C154	C	0.883176	0.335569	0.619223
	C155	C	0.112286	0.334971	0.378979
	C156	C	0.883035	0.393583	0.676593
	C157	C	0.112874	0.631062	0.675311
	C158	C	0.883046	0.629098	0.323990
	C159	C	0.112487	0.393241	0.322453
	C160	C	0.378430	0.690178	0.885168
	C161	C	0.617284	0.689769	0.114617
	C162	C	0.618412	0.334049	0.884985
	C163	C	0.379048	0.336471	0.114614
	C164	C	0.674418	0.898216	0.379939
	C165	C	0.674627	0.126284	0.618668
	C166	C	0.319902	0.897922	0.618429
	C167	C	0.321037	0.126775	0.381790
	C168	C	0.878986	0.397671	0.175838
	C169	C	0.116820	0.626712	0.176373
	C170	C	0.118282	0.398357	0.821167
	C171	C	0.879774	0.626539	0.823498
	C172	C	0.173535	0.893527	0.384130
	C173	C	0.172841	0.130828	0.614752
	C174	C	0.822255	0.129466	0.384025
	C175	C	0.821207	0.894400	0.614452
	C176	C	0.382737	0.188528	0.881335
	C177	C	0.612762	0.189475	0.118432
	C178	C	0.383042	0.836394	0.118929
	C179	C	0.612424	0.835739	0.879536
	C180	C	0.382603	0.894791	0.175457
	C181	C	0.612936	0.131568	0.175810
	C182	C	0.382529	0.130393	0.824173
	C183	C	0.612575	0.894135	0.822902
	C184	C	0.879199	0.187881	0.384280
	C185	C	0.117368	0.190555	0.613414
	C186	C	0.116775	0.834930	0.384319
	C187	C	0.877510	0.835535	0.613996
	C188	C	0.176019	0.398362	0.879397
	C189	C	0.174664	0.626861	0.118248
	C190	C	0.820973	0.397967	0.118054
	C191	C	0.821693	0.626573	0.880930
	C192	C	0.397156	0.105675	0.599984
	C193	C	0.597387	0.918594	0.598992
	C194	C	0.597733	0.106184	0.399891
	C195	C	0.398095	0.919266	0.399826
	C196	C	0.596881	0.412797	0.093582
	C197	C	0.596854	0.611928	0.905536
	C198	C	0.398728	0.613066	0.094036
	C199	C	0.400027	0.411989	0.905584
	C200	C	0.092566	0.611675	0.400686
	C201	C	0.903544	0.611892	0.599054
	C202	C	0.091704	0.413628	0.597255
	C203	C	0.903061	0.411824	0.400023
	C204	C	0.898326	0.605627	0.099973
	C205	C	0.097916	0.419168	0.098258
	C206	C	0.098920	0.606137	0.898681
	C207	C	0.898723	0.418525	0.899407
	C208	C	0.095556	0.912650	0.593444
	C209	C	0.097599	0.112279	0.404631
	C210	C	0.898541	0.112589	0.593553
	C211	C	0.897815	0.911356	0.404640
	C212	C	0.592073	0.111928	0.900253
	C213	C	0.403270	0.112819	0.099653
	C214	C	0.592630	0.913029	0.098360
	C215	C	0.403533	0.912711	0.900706
	Zn216	Zn	0.497237	0.012236	0.750197
	Zn217	Zn	0.498019	0.012666	0.249277
	Zn218	Zn	0.747474	0.512450	-0.000882
	Zn219	Zn	0.249105	0.512702	-0.001114
	Zn220	Zn	-0.002746	0.761886	0.499431
	Zn221	Zn	-0.001976	0.262560	0.498991
	Zn222	Zn	-0.001889	0.512139	0.748506
	Zn223	Zn	-0.001938	0.511727	0.250190
	Zn224	Zn	0.497960	0.763049	-0.000479
	Zn225	Zn	0.497960	0.262247	-0.000456
	Zn226	Zn	0.748078	0.012184	0.499511
	Zn227	Zn	0.246616	0.012174	0.499856
	N228	N	0.411036	0.975059	0.678924
	N229	N	0.582271	0.049416	0.677705
	N230	N	0.583433	0.975677	0.320383
	N231	N	0.411961	0.049735	0.320893
	N232	N	0.674928	0.427863	0.961327
	N233	N	0.675810	0.597521	0.037099
	N234	N	0.322177	0.596431	0.961456
	N235	N	0.320905	0.428018	0.037108
	N236	N	0.960830	0.690615	0.413426
	N237	N	0.034618	0.691441	0.585594
	N238	N	0.960696	0.334059	0.585066
	N239	N	0.034559	0.333191	0.412668
	N240	N	0.960396	0.427553	0.677132
	N241	N	0.035390	0.597362	0.676969
	N242	N	0.960652	0.595660	0.322944
	N243	N	0.035134	0.426938	0.321489
	N244	N	0.411540	0.692485	0.962860
	N245	N	0.583796	0.691710	0.036885
	N246	N	0.585130	0.332037	0.962952
	N247	N	0.412393	0.333654	0.036968
	N248	N	0.676265	0.975326	0.413697
	N249	N	0.676654	0.049189	0.585360
	N250	N	0.318408	0.974982	0.585171
	N251	N	0.319357	0.049886	0.415171
	N252	N	0.912860	0.474633	0.177818
	N253	N	0.083309	0.549629	0.178050
	N254	N	0.084995	0.475572	0.819251
	N255	N	0.913227	0.549565	0.821251
	N256	N	0.174450	0.927534	0.461383
	N257	N	0.174190	0.096589	0.537373
	N258	N	0.820568	0.096556	0.461641
	N259	N	0.819890	0.927431	0.536834
	N260	N	0.460560	0.190663	0.914386
	N261	N	0.534995	0.191158	0.085056
	N262	N	0.460880	0.834201	0.085635
	N263	N	0.534812	0.833824	0.913414
	N264	N	0.460139	0.928526	0.176418
	N265	N	0.535486	0.097927	0.177506
	N266	N	0.460168	0.097280	0.822146
	N267	N	0.535189	0.927738	0.822136
	N268	N	0.912023	0.190926	0.462107
	N269	N	0.084660	0.192566	0.535516
	N270	N	0.083022	0.833237	0.462120
	N271	N	0.910379	0.832497	0.536007
	N272	N	0.177945	0.475362	0.913020
	N273	N	0.176589	0.549837	0.084430
	N274	N	0.819241	0.474953	0.084865
	N275	N	0.820073	0.549339	0.914042
	O276	O	-0.541381	-0.526711	1.525644
	H277	H	-0.545462	-0.524418	1.521916
	H278	H	-0.548347	-0.522482	1.528542
	O279	O	0.532686	0.474614	0.533901
	H280	H	0.531231	0.474194	0.536940
	H281	H	0.532656	0.478644	0.536904
	O282	O	0.507966	0.480734	0.535421
	H283	H	0.503961	0.480700	0.533783
	H284	H	0.517025	0.472362	0.544549
	O285	O	0.473899	0.485471	0.560948
	H286	H	0.470608	0.480536	0.561576
	H287	H	0.472434	0.490973	0.563348
	O288	O	0.533164	0.503262	0.549383
	H289	H	0.525923	0.501276	0.538704
	H290	H	0.532270	0.500960	0.550920
	O291	O	0.453255	0.544274	0.606297
	H292	H	0.446003	0.557421	0.615470
	H293	H	0.471586	0.542952	0.601020
	O294	O	0.560149	0.478259	0.546767
	H295	H	0.559231	0.470272	0.551333
	H296	H	0.556859	0.476528	0.545240
	O297	O	1.470151	-0.500828	-0.475371
	H298	H	1.474456	-0.499524	-0.471343
	H299	H	1.474083	-0.504451	-0.478995
