data_Molecule from HDF5

_cell_length_a		16.313653
_cell_length_b		16.293073
_cell_length_c		16.323909
_cell_angle_alpha	89.865500
_cell_angle_beta	89.976968
_cell_angle_gamma	89.953787
_symmetry_space_group_name_H-M	'P 1'
_symmetry_Int_Tables_number		1

loop_
	_symmetry_equiv_pos_as_xyz
	x,y,z

loop_
	_atom_site_label
	_atom_site_type_symbol
	_atom_site_fract_x
	_atom_site_fract_y
	_atom_site_fract_z
	H0	H	0.401545	0.836353	0.715544
	H1	H	0.597277	0.163909	0.713515
	H2	H	0.597881	0.836421	0.285397
	H3	H	0.403786	0.164316	0.287402
	H4	H	0.715152	0.401856	0.836486
	H5	H	0.715005	0.597765	0.163020
	H6	H	0.286474	0.597990	0.836286
	H7	H	0.286650	0.401974	0.164309
	H8	H	0.836239	0.713487	0.402525
	H9	H	0.163707	0.714336	0.597318
	H10	H	0.836213	0.285220	0.597433
	H11	H	0.163580	0.285852	0.402715
	H12	H	0.835943	0.401028	0.713836
	H13	H	0.163572	0.597832	0.714524
	H14	H	0.836016	0.597618	0.285733
	H15	H	0.163522	0.402520	0.286311
	H16	H	0.401056	0.715998	0.837085
	H17	H	0.596519	0.712411	0.163985
	H18	H	0.597730	0.286650	0.836387
	H19	H	0.403903	0.286193	0.163455
	H20	H	0.713136	0.835611	0.402741
	H21	H	0.714485	0.163803	0.597036
	H22	H	0.285808	0.836015	0.598448
	H23	H	0.285410	0.163539	0.402353
	H24	H	0.903715	0.335475	0.213839
	H25	H	0.098110	0.663884	0.213820
	H26	H	0.097740	0.335677	0.786786
	H27	H	0.902040	0.663505	0.785399
	H28	H	0.214132	0.902264	0.336365
	H29	H	0.215268	0.098406	0.663574
	H30	H	0.786336	0.097633	0.336293
	H31	H	0.785517	0.901052	0.663502
	H32	H	0.336133	0.215167	0.902353
	H33	H	0.663737	0.213424	0.096441
	H34	H	0.336483	0.785515	0.098539
	H35	H	0.663089	0.786361	0.902090
	H36	H	0.336145	0.903146	0.213732
	H37	H	0.663251	0.098644	0.214236
	H38	H	0.336108	0.099020	0.785590
	H39	H	0.662398	0.902766	0.785624
	H40	H	0.901543	0.214747	0.336355
	H41	H	0.097820	0.213737	0.663541
	H42	H	0.096516	0.787076	0.336484
	H43	H	0.902280	0.784505	0.663462
	H44	H	0.215585	0.336744	0.901850
	H45	H	0.214558	0.664016	0.097329
	H46	H	0.785650	0.336202	0.098425
	H47	H	0.787704	0.664540	0.903426
	H48	H	0.415039	0.111832	0.586514
	H49	H	0.594137	0.884446	0.592134
	H50	H	0.605700	0.119203	0.408751
	H51	H	0.412909	0.886378	0.409783
	H52	H	0.594944	0.408757	0.115466
	H53	H	0.587966	0.599000	0.883755
	H54	H	0.412182	0.587778	0.112989
	H55	H	0.401007	0.405743	0.881691
	H56	H	0.114791	0.594359	0.410917
	H57	H	0.884361	0.598412	0.586583
	H58	H	0.112652	0.413842	0.591807
	H59	H	0.886770	0.411271	0.412073
	H60	H	0.119132	0.404643	0.601954
	H61	H	0.886906	0.584407	0.591679
	H62	H	0.115510	0.588142	0.403938
	H63	H	0.881981	0.409399	0.398743
	H64	H	0.407842	0.600501	0.117653
	H65	H	0.600775	0.596210	0.880921
	H66	H	0.591161	0.407149	0.115551
	H67	H	0.407183	0.413722	0.886228
	H68	H	0.589618	0.118379	0.394964
	H69	H	0.593799	0.883273	0.595294
	H70	H	0.398228	0.117260	0.588316
	H71	H	0.400273	0.882380	0.410786
	H72	H	0.908199	0.615865	0.094015
	H73	H	0.099115	0.381982	0.095600
	H74	H	0.097069	0.616071	0.910589
	H75	H	0.910057	0.385161	0.909592
	H76	H	0.098636	0.912494	0.615574
	H77	H	0.096432	0.090798	0.384667
	H78	H	0.904008	0.092069	0.616681
	H79	H	0.915189	0.904398	0.385617
	H80	H	0.615263	0.101067	0.916629
	H81	H	0.382229	0.104223	0.088241
	H82	H	0.619389	0.899182	0.097766
	H83	H	0.384310	0.908626	0.909013
	H84	H	0.613778	0.906777	0.085429
	H85	H	0.387979	0.085221	0.087937
	H86	H	0.612062	0.081068	0.906395
	H87	H	0.383185	0.908172	0.906448
	H88	H	0.908177	0.090563	0.615410
	H89	H	0.090195	0.091032	0.385774
	H90	H	0.086376	0.908514	0.613555
	H91	H	0.900242	0.900006	0.379919
	H92	H	0.093825	0.617866	0.900886
	H93	H	0.089798	0.384070	0.097535
	H94	H	0.906533	0.616339	0.091581
	H95	H	0.902289	0.382766	0.908069
	H96	H	0.408778	0.117976	0.602523
	H97	H	0.591037	0.884142	0.593660
	H98	H	0.586569	0.111304	0.414889
	H99	H	0.406234	0.880901	0.399053
	H100	H	0.594239	0.405608	0.116475
	H101	H	0.593104	0.586738	0.886171
	H102	H	0.398227	0.590001	0.117289
	H103	H	0.412154	0.403868	0.884133
	H104	H	0.118362	0.597441	0.402340
	H105	H	0.881578	0.594871	0.601216
	H106	H	0.116536	0.400333	0.588018
	H107	H	0.881945	0.398891	0.407793
	H108	H	0.905208	0.616381	0.094300
	H109	H	0.093524	0.385451	0.088383
	H110	H	0.087174	0.614610	0.908037
	H111	H	0.907693	0.382001	0.901667
	H112	H	0.094583	0.899289	0.618869
	H113	H	0.092886	0.096125	0.382923
	H114	H	0.907677	0.095062	0.616261
	H115	H	0.902884	0.915365	0.385627
	H116	H	0.620259	0.098593	0.894814
	H117	H	0.380582	0.092699	0.104932
	H118	H	0.615496	0.914073	0.098803
	H119	H	0.383243	0.905828	0.908355
	C120	C	0.378639	0.007855	0.621312
	C121	C	0.621342	0.991885	0.621441
	C122	C	0.621690	0.007965	0.378055
	C123	C	0.378381	0.991714	0.378531
	C124	C	0.621738	0.378769	0.008034
	C125	C	0.621725	0.621690	0.991636
	C126	C	0.377743	0.621938	0.008523
	C127	C	0.378589	0.378830	0.991821
	C128	C	0.008098	0.621524	0.377866
	C129	C	0.992303	0.620922	0.621213
	C130	C	0.007944	0.377746	0.621677
	C131	C	0.991761	0.378482	0.378644
	C132	C	0.878518	0.507675	0.121666
	C133	C	0.121823	0.492170	0.121216
	C134	C	0.121232	0.508110	0.878745
	C135	C	0.878852	0.491776	0.878514
	C136	C	0.121466	0.878507	0.508066
	C137	C	0.121624	0.121188	0.492185
	C138	C	0.878574	0.121304	0.507963
	C139	C	0.878260	0.878064	0.491823
	C140	C	0.508032	0.122559	0.877775
	C141	C	0.491684	0.122046	0.121848
	C142	C	0.507979	0.878410	0.122032
	C143	C	0.491274	0.879222	0.879377
	C144	C	0.381051	0.884945	0.677287
	C145	C	0.618361	0.115283	0.675912
	C146	C	0.618406	0.885026	0.323426
	C147	C	0.381889	0.115010	0.324270
	C148	C	0.676848	0.381753	0.885118
	C149	C	0.676458	0.618388	0.114583
	C150	C	0.323618	0.619065	0.885055
	C151	C	0.324383	0.381528	0.115323
	C152	C	0.884876	0.676006	0.381402
	C153	C	0.115113	0.676216	0.618177
	C154	C	0.884780	0.323126	0.618301
	C155	C	0.114830	0.323739	0.381909
	C156	C	0.884607	0.380886	0.675866
	C157	C	0.115135	0.618280	0.676064
	C158	C	0.885004	0.618397	0.323594
	C159	C	0.114954	0.381665	0.324263
	C160	C	0.380648	0.677533	0.885686
	C161	C	0.618064	0.675513	0.115011
	C162	C	0.618800	0.324351	0.884910
	C163	C	0.382513	0.324308	0.115132
	C164	C	0.675952	0.884646	0.381267
	C165	C	0.676117	0.115087	0.617684
	C166	C	0.323813	0.884602	0.619132
	C167	C	0.323332	0.114699	0.381449
	C168	C	0.881716	0.384547	0.176523
	C169	C	0.118698	0.615187	0.175879
	C170	C	0.118662	0.384789	0.823931
	C171	C	0.881747	0.614999	0.823431
	C172	C	0.176317	0.881455	0.385297
	C173	C	0.176841	0.118502	0.614823
	C174	C	0.823915	0.118557	0.384982
	C175	C	0.823460	0.880424	0.614878
	C176	C	0.384979	0.177621	0.881124
	C177	C	0.614875	0.175803	0.117775
	C178	C	0.385222	0.823577	0.119366
	C179	C	0.614422	0.824559	0.881695
	C180	C	0.385032	0.881635	0.176691
	C181	C	0.614411	0.119426	0.176641
	C182	C	0.384784	0.119686	0.823395
	C183	C	0.614183	0.882232	0.823857
	C184	C	0.881370	0.176404	0.385054
	C185	C	0.118520	0.175849	0.615017
	C186	C	0.118231	0.824230	0.385004
	C187	C	0.881727	0.823099	0.615068
	C188	C	0.176916	0.385049	0.881305
	C189	C	0.176490	0.615298	0.118018
	C190	C	0.823360	0.384886	0.119266
	C191	C	0.824806	0.615248	0.881968
	C192	C	0.400723	0.093645	0.598967
	C193	C	0.599456	0.905996	0.600057
	C194	C	0.600235	0.094161	0.399694
	C195	C	0.400264	0.905367	0.400063
	C196	C	0.599647	0.400455	0.093715
	C197	C	0.600222	0.600263	0.905738
	C198	C	0.399503	0.599325	0.094044
	C199	C	0.400361	0.401050	0.906150
	C200	C	0.093998	0.599794	0.399437
	C201	C	0.906378	0.599028	0.599504
	C202	C	0.093811	0.399798	0.600359
	C203	C	0.905773	0.399998	0.399917
	C204	C	0.900218	0.593922	0.099714
	C205	C	0.100348	0.405983	0.099957
	C206	C	0.099249	0.594022	0.900343
	C207	C	0.900293	0.405511	0.900102
	C208	C	0.099501	0.900180	0.593866
	C209	C	0.099582	0.099161	0.406412
	C210	C	0.900218	0.099105	0.593857
	C211	C	0.899779	0.900065	0.406059
	C212	C	0.593702	0.100288	0.899562
	C213	C	0.405747	0.100454	0.100077
	C214	C	0.594024	0.900176	0.100293
	C215	C	0.405657	0.901050	0.901435
	Zn216	Zn	0.499348	0.000519	0.750280
	Zn217	Zn	0.500172	0.000214	0.249830
	Zn218	Zn	0.750351	0.500012	-0.000070
	Zn219	Zn	0.250149	0.499931	0.000059
	Zn220	Zn	-0.000272	0.749671	0.499774
	Zn221	Zn	-0.000252	0.249909	0.499970
	Zn222	Zn	0.000008	0.499423	0.750072
	Zn223	Zn	0.000148	0.499991	0.249792
	Zn224	Zn	0.500006	0.749904	0.000465
	Zn225	Zn	0.500172	0.250572	-0.000162
	Zn226	Zn	0.750198	-0.000444	0.499478
	Zn227	Zn	0.250249	-0.000402	0.500310
	N228	N	0.414492	0.962468	0.678572
	N229	N	0.584930	0.037738	0.678388
	N230	N	0.585626	0.962863	0.321248
	N231	N	0.415290	0.037413	0.322465
	N232	N	0.678703	0.415099	0.962470
	N233	N	0.679043	0.585684	0.036957
	N234	N	0.321884	0.585010	0.962273
	N235	N	0.321946	0.414862	0.037744
	N236	N	0.962369	0.677890	0.414685
	N237	N	0.037657	0.677998	0.584890
	N238	N	0.962384	0.321138	0.585237
	N239	N	0.037306	0.321806	0.415063
	N240	N	0.962143	0.414126	0.678269
	N241	N	0.037777	0.584683	0.677989
	N242	N	0.962678	0.585450	0.321202
	N243	N	0.037492	0.415021	0.322117
	N244	N	0.413739	0.679228	0.963091
	N245	N	0.584862	0.677659	0.037534
	N246	N	0.585220	0.322513	0.962163
	N247	N	0.415523	0.322562	0.037603
	N248	N	0.677999	0.962011	0.414677
	N249	N	0.677864	0.037467	0.584608
	N250	N	0.322200	0.962079	0.585153
	N251	N	0.321162	0.036875	0.414407
	N252	N	0.915359	0.461990	0.178065
	N253	N	0.085415	0.537522	0.177940
	N254	N	0.084655	0.462132	0.822281
	N255	N	0.914691	0.537237	0.821393
	N256	N	0.178461	0.914362	0.462864
	N257	N	0.178765	0.085169	0.537499
	N258	N	0.822158	0.084781	0.462264
	N259	N	0.821337	0.913849	0.537373
	N260	N	0.462539	0.179283	0.914502
	N261	N	0.537659	0.177457	0.084137
	N262	N	0.462751	0.821521	0.086129
	N263	N	0.537178	0.822559	0.915529
	N264	N	0.462415	0.915303	0.178241
	N265	N	0.536818	0.086511	0.179036
	N266	N	0.462210	0.086495	0.820966
	N267	N	0.536595	0.915401	0.822317
	N268	N	0.914683	0.178010	0.462498
	N269	N	0.085172	0.177825	0.537633
	N270	N	0.084627	0.822165	0.462394
	N271	N	0.914958	0.821398	0.537567
	N272	N	0.178632	0.462530	0.914583
	N273	N	0.178261	0.537926	0.084728
	N274	N	0.821646	0.462491	0.085641
	N275	N	0.822854	0.537703	0.915548
