data_Molecule from HDF5

_cell_length_a		16.320038
_cell_length_b		16.347914
_cell_length_c		16.228934
_cell_angle_alpha	90.056821
_cell_angle_beta	89.883352
_cell_angle_gamma	89.869998
_symmetry_space_group_name_H-M	'P 1'
_symmetry_Int_Tables_number		1

loop_
	_symmetry_equiv_pos_as_xyz
	x,y,z

loop_
	_atom_site_label
	_atom_site_type_symbol
	_atom_site_fract_x
	_atom_site_fract_y
	_atom_site_fract_z
	H0	H	0.407367	0.839872	0.719060
	H1	H	0.599749	0.167944	0.718546
	H2	H	0.601894	0.839748	0.291519
	H3	H	0.406121	0.167207	0.293054
	H4	H	0.718059	0.405081	0.840951
	H5	H	0.718068	0.603761	0.168635
	H6	H	0.290796	0.602537	0.840383
	H7	H	0.288296	0.406463	0.169235
	H8	H	0.840778	0.719599	0.404916
	H9	H	0.166192	0.719326	0.604396
	H10	H	0.840459	0.289408	0.603605
	H11	H	0.166329	0.286896	0.403637
	H12	H	0.840172	0.405753	0.718937
	H13	H	0.168188	0.599796	0.717265
	H14	H	0.840583	0.601909	0.290959
	H15	H	0.167689	0.405453	0.289873
	H16	H	0.405505	0.718793	0.841931
	H17	H	0.600833	0.717247	0.169710
	H18	H	0.602675	0.289320	0.841592
	H19	H	0.404464	0.290232	0.169650
	H20	H	0.720051	0.840458	0.406387
	H21	H	0.718062	0.166706	0.604133
	H22	H	0.288436	0.840149	0.604361
	H23	H	0.287868	0.166006	0.407512
	H24	H	0.906004	0.339948	0.219158
	H25	H	0.099705	0.667395	0.219197
	H26	H	0.101760	0.339837	0.791520
	H27	H	0.905603	0.667121	0.789606
	H28	H	0.219397	0.902909	0.341721
	H29	H	0.215938	0.100738	0.669557
	H30	H	0.789176	0.101855	0.340416
	H31	H	0.790353	0.907048	0.669412
	H32	H	0.340785	0.219672	0.907792
	H33	H	0.666774	0.219695	0.105701
	H34	H	0.340192	0.790035	0.103613
	H35	H	0.666861	0.788208	0.906316
	H36	H	0.340128	0.906871	0.219330
	H37	H	0.667855	0.099921	0.218949
	H38	H	0.339226	0.102067	0.792962
	H39	H	0.667799	0.906668	0.792586
	H40	H	0.904754	0.218312	0.340934
	H41	H	0.102768	0.219122	0.668423
	H42	H	0.101811	0.789991	0.340836
	H43	H	0.903436	0.788719	0.668849
	H44	H	0.219943	0.341696	0.905774
	H45	H	0.218168	0.667395	0.104642
	H46	H	0.788080	0.341167	0.103823
	H47	H	0.788506	0.667248	0.906446
	H48	H	0.402609	0.121224	0.599007
	H49	H	0.597686	0.890846	0.589284
	H50	H	0.593839	0.118205	0.413402
	H51	H	0.408026	0.884612	0.404451
	H52	H	0.586826	0.404683	0.121615
	H53	H	0.598250	0.591998	0.889322
	H54	H	0.410664	0.595348	0.121315
	H55	H	0.406133	0.418040	0.888876
	H56	H	0.118301	0.594934	0.413924
	H57	H	0.888139	0.591177	0.603888
	H58	H	0.122570	0.404132	0.601668
	H59	H	0.885509	0.403427	0.412654
	H60	H	0.118636	0.408588	0.591054
	H61	H	0.884903	0.603845	0.599271
	H62	H	0.120808	0.596259	0.409326
	H63	H	0.891443	0.413874	0.418635
	H64	H	0.409873	0.599537	0.122680
	H65	H	0.591419	0.596995	0.889974
	H66	H	0.606821	0.407312	0.125948
	H67	H	0.419566	0.411727	0.891361
	H68	H	0.597645	0.117796	0.415859
	H69	H	0.607057	0.883453	0.603447
	H70	H	0.410931	0.120230	0.605095
	H71	H	0.419200	0.890729	0.414840
	H72	H	0.907297	0.622674	0.106131
	H73	H	0.101681	0.386389	0.098102
	H74	H	0.099978	0.623671	0.900713
	H75	H	0.902192	0.385304	0.910621
	H76	H	0.101146	0.912945	0.622817
	H77	H	0.096475	0.096736	0.387702
	H78	H	0.904968	0.094451	0.622814
	H79	H	0.916738	0.910664	0.389478
	H80	H	0.615937	0.090463	0.917626
	H81	H	0.387130	0.101039	0.098429
	H82	H	0.616843	0.914350	0.091520
	H83	H	0.388594	0.917428	0.910276
	H84	H	0.621788	0.912846	0.106762
	H85	H	0.389179	0.095878	0.097519
	H86	H	0.621099	0.095032	0.905370
	H87	H	0.384629	0.904301	0.908930
	H88	H	0.914889	0.094460	0.618883
	H89	H	0.096666	0.093582	0.388793
	H90	H	0.091044	0.913639	0.619192
	H91	H	0.908492	0.905560	0.385793
	H92	H	0.087393	0.617017	0.912925
	H93	H	0.091809	0.388563	0.100811
	H94	H	0.917929	0.616253	0.095980
	H95	H	0.915499	0.388132	0.905227
	H96	H	0.411337	0.117187	0.595528
	H97	H	0.589598	0.888495	0.604950
	H98	H	0.597657	0.119796	0.411478
	H99	H	0.404428	0.887743	0.420274
	H100	H	0.595906	0.422787	0.118049
	H101	H	0.598285	0.600232	0.886290
	H102	H	0.406582	0.596374	0.122778
	H103	H	0.408460	0.402983	0.885201
	H104	H	0.120262	0.599543	0.413576
	H105	H	0.890562	0.594287	0.590250
	H106	H	0.119791	0.415878	0.600365
	H107	H	0.887179	0.414600	0.406046
	H108	H	0.902773	0.619318	0.091237
	H109	H	0.095433	0.391129	0.090611
	H110	H	0.104850	0.620362	0.918133
	H111	H	0.912748	0.391845	0.919384
	H112	H	0.094548	0.904508	0.623598
	H113	H	0.094349	0.096017	0.389241
	H114	H	0.910767	0.103537	0.623367
	H115	H	0.907732	0.915410	0.389228
	H116	H	0.620300	0.103657	0.916219
	H117	H	0.387567	0.097133	0.102767
	H118	H	0.622275	0.899953	0.097086
	H119	H	0.389285	0.909073	0.920798
	C120	C	0.380420	0.011862	0.628148
	C121	C	0.625689	0.995367	0.627691
	C122	C	0.625448	0.011204	0.384379
	C123	C	0.381859	0.995180	0.384530
	C124	C	0.625206	0.382448	0.013484
	C125	C	0.624344	0.624878	0.996956
	C126	C	0.381363	0.625639	0.013909
	C127	C	0.382558	0.383028	0.997211
	C128	C	0.012134	0.625571	0.383654
	C129	C	0.995543	0.624768	0.626244
	C130	C	0.012058	0.381698	0.626317
	C131	C	0.995961	0.381681	0.383147
	C132	C	0.881079	0.511696	0.126960
	C133	C	0.124837	0.496299	0.126047
	C134	C	0.125366	0.512265	0.882992
	C135	C	0.882257	0.496183	0.883329
	C136	C	0.125076	0.881358	0.513574
	C137	C	0.124174	0.124293	0.496868
	C138	C	0.881674	0.125977	0.513365
	C139	C	0.882328	0.882319	0.496661
	C140	C	0.511563	0.125558	0.884342
	C141	C	0.495853	0.126063	0.128005
	C142	C	0.512208	0.881652	0.127231
	C143	C	0.495550	0.881664	0.884176
	C144	C	0.385039	0.888696	0.682158
	C145	C	0.621201	0.118784	0.681496
	C146	C	0.622987	0.888500	0.329193
	C147	C	0.385160	0.118250	0.330340
	C148	C	0.680382	0.384690	0.890077
	C149	C	0.679729	0.623365	0.120173
	C150	C	0.327698	0.623196	0.889855
	C151	C	0.326871	0.385958	0.120441
	C152	C	0.889432	0.681342	0.385286
	C153	C	0.118113	0.680370	0.624507
	C154	C	0.889129	0.327102	0.623764
	C155	C	0.118022	0.325467	0.384213
	C156	C	0.888945	0.385065	0.680916
	C157	C	0.118896	0.621017	0.680362
	C158	C	0.889205	0.622830	0.328866
	C159	C	0.118798	0.384723	0.327978
	C160	C	0.384753	0.680728	0.890453
	C161	C	0.621699	0.679916	0.120565
	C162	C	0.623330	0.326854	0.890437
	C163	C	0.384537	0.328388	0.120698
	C164	C	0.681283	0.888698	0.386548
	C165	C	0.680134	0.118250	0.624875
	C166	C	0.326356	0.888701	0.625233
	C167	C	0.326385	0.117691	0.387169
	C168	C	0.884904	0.389077	0.181858
	C169	C	0.121458	0.618845	0.181617
	C170	C	0.122565	0.388887	0.828677
	C171	C	0.885045	0.618844	0.828146
	C172	C	0.180871	0.883471	0.390502
	C173	C	0.178899	0.121750	0.620295
	C174	C	0.826612	0.122622	0.389653
	C175	C	0.828067	0.886022	0.620507
	C176	C	0.389255	0.181371	0.887286
	C177	C	0.618265	0.181494	0.125980
	C178	C	0.388989	0.827513	0.124390
	C179	C	0.618316	0.826616	0.886443
	C180	C	0.388903	0.885747	0.181795
	C181	C	0.618892	0.122164	0.182309
	C182	C	0.388430	0.122816	0.830249
	C183	C	0.618594	0.885176	0.829565
	C184	C	0.884038	0.180355	0.389731
	C185	C	0.122196	0.180017	0.619923
	C186	C	0.122786	0.826731	0.390097
	C187	C	0.884049	0.826993	0.620060
	C188	C	0.181122	0.389602	0.885514
	C189	C	0.179705	0.618798	0.124244
	C190	C	0.826323	0.389333	0.124568
	C191	C	0.826661	0.618615	0.885758
	C192	C	0.401778	0.097292	0.606320
	C193	C	0.604376	0.909875	0.605645
	C194	C	0.602935	0.096560	0.407006
	C195	C	0.404189	0.909744	0.406624
	C196	C	0.602823	0.405012	0.099715
	C197	C	0.602434	0.602902	0.910923
	C198	C	0.402805	0.603654	0.100045
	C199	C	0.404917	0.404528	0.910703
	C200	C	0.097706	0.603618	0.405774
	C201	C	0.910069	0.603030	0.604153
	C202	C	0.098072	0.403104	0.604232
	C203	C	0.910181	0.404093	0.405734
	C204	C	0.902818	0.597447	0.104464
	C205	C	0.102793	0.410869	0.103341
	C206	C	0.103783	0.597918	0.904319
	C207	C	0.903780	0.410553	0.905231
	C208	C	0.102286	0.903955	0.599845
	C209	C	0.102093	0.101952	0.410827
	C210	C	0.903684	0.104000	0.599422
	C211	C	0.904510	0.904070	0.410507
	C212	C	0.597200	0.102990	0.906599
	C213	C	0.410061	0.104393	0.105963
	C214	C	0.598154	0.902925	0.104973
	C215	C	0.409567	0.903831	0.906758
	Zn216	Zn	0.503300	0.003788	0.756169
	Zn217	Zn	0.503996	0.003875	0.255704
	Zn218	Zn	0.752506	0.504183	0.005123
	Zn219	Zn	0.253790	0.504707	0.004618
	Zn220	Zn	0.003336	0.753618	0.504936
	Zn221	Zn	0.003682	0.253254	0.504675
	Zn222	Zn	0.004010	0.503403	0.754318
	Zn223	Zn	0.003812	0.503800	0.255151
	Zn224	Zn	0.503555	0.752911	0.005718
	Zn225	Zn	0.504133	0.254568	0.005951
	Zn226	Zn	0.754449	0.003787	0.505338
	Zn227	Zn	0.252311	0.002978	0.505545
	N228	N	0.417850	0.966049	0.684300
	N229	N	0.588136	0.041563	0.683416
	N230	N	0.588888	0.965498	0.328058
	N231	N	0.418923	0.041019	0.328535
	N232	N	0.681771	0.418596	0.967761
	N233	N	0.681509	0.589723	0.042401
	N234	N	0.325454	0.589652	0.967540
	N235	N	0.325572	0.419304	0.042550
	N236	N	0.966901	0.683091	0.418800
	N237	N	0.040612	0.682919	0.591591
	N238	N	0.966892	0.324866	0.590474
	N239	N	0.040609	0.323915	0.417950
	N240	N	0.966211	0.418211	0.682628
	N241	N	0.041741	0.587121	0.681384
	N242	N	0.966183	0.588580	0.327800
	N243	N	0.041682	0.418799	0.327107
	N244	N	0.417238	0.682828	0.968610
	N245	N	0.588013	0.680992	0.043033
	N246	N	0.589725	0.325536	0.968121
	N247	N	0.418460	0.326442	0.043014
	N248	N	0.683059	0.966104	0.420021
	N249	N	0.683163	0.040580	0.592128
	N250	N	0.323274	0.966205	0.592371
	N251	N	0.324151	0.040313	0.420094
	N252	N	0.918094	0.466442	0.183442
	N253	N	0.087989	0.541792	0.182540
	N254	N	0.088471	0.465939	0.826899
	N255	N	0.918656	0.541814	0.826428
	N256	N	0.182080	0.916726	0.468455
	N257	N	0.180034	0.087787	0.542865
	N258	N	0.825029	0.089501	0.467618
	N259	N	0.826902	0.919699	0.543016
	N260	N	0.466854	0.182948	0.920459
	N261	N	0.540816	0.183840	0.092828
	N262	N	0.466621	0.824685	0.091267
	N263	N	0.540570	0.824216	0.919585
	N264	N	0.466462	0.918628	0.183560
	N265	N	0.541748	0.088541	0.183695
	N266	N	0.465443	0.088706	0.828559
	N267	N	0.541225	0.918727	0.828324
	N268	N	0.917461	0.182602	0.467374
	N269	N	0.088926	0.181934	0.542081
	N270	N	0.088664	0.825233	0.467698
	N271	N	0.917241	0.824737	0.542009
	N272	N	0.183119	0.467089	0.918342
	N273	N	0.181985	0.541453	0.090511
	N274	N	0.823990	0.466581	0.091271
	N275	N	0.824772	0.541308	0.919440
	O276	O	0.539310	0.515183	0.548479
	H277	H	0.545288	0.515326	0.555825
	H278	H	0.538450	0.517223	0.549510
	O279	O	0.058865	0.080361	-0.027914
	H280	H	0.060725	0.091864	-0.027299
	H281	H	0.055524	0.076939	-0.027218
	O282	O	0.543295	0.500872	0.435317
	H283	H	0.536499	0.498891	0.427335
	H284	H	0.544139	0.500178	0.439498
	O285	O	0.470040	0.488856	0.469604
	H286	H	0.477395	0.496684	0.470130
	H287	H	0.476021	0.482300	0.465558
	O288	O	1.027986	0.070956	-0.037723
	H289	H	1.031195	0.070739	-0.033616
	H290	H	1.034559	0.067429	-0.032632
	O291	O	-0.455867	0.498448	-0.510683
	H292	H	-0.444001	0.497791	-0.520147
	H293	H	-0.457751	0.494054	-0.506555
	O294	O	0.541462	0.446496	0.434209
	H295	H	0.536998	0.450769	0.440013
	H296	H	0.544122	0.438732	0.436148
	O297	O	0.005566	1.064763	0.005490
	H298	H	0.004411	1.068493	0.005675
	H299	H	0.007464	1.068888	0.002109
	O300	O	1.026787	0.086138	0.982021
	H301	H	1.016608	0.081267	0.974626
	H302	H	1.024907	0.080208	0.979147
	O303	O	0.495368	0.490372	0.465918
	H304	H	0.500614	0.489634	0.458674
	H305	H	0.492717	0.489845	0.461258
	O306	O	0.000784	1.062794	0.946019
	H307	H	-0.001193	1.069858	0.945633
	H308	H	0.012310	1.068522	0.940545
	O309	O	0.568299	0.500973	0.438919
	H310	H	0.573494	0.501415	0.438480
	H311	H	0.556940	0.505684	0.433704
