data_Molecule from HDF5

_cell_length_a		16.266116
_cell_length_b		16.348368
_cell_length_c		16.333779
_cell_angle_alpha	89.959040
_cell_angle_beta	89.955908
_cell_angle_gamma	89.965239
_symmetry_space_group_name_H-M	'P 1'
_symmetry_Int_Tables_number		1

loop_
	_symmetry_equiv_pos_as_xyz
	x,y,z

loop_
	_atom_site_label
	_atom_site_type_symbol
	_atom_site_fract_x
	_atom_site_fract_y
	_atom_site_fract_z
	H0	H	0.402305	0.836910	0.715019
	H1	H	0.597120	0.163651	0.714194
	H2	H	0.597173	0.837330	0.285107
	H3	H	0.400680	0.163101	0.285054
	H4	H	0.714500	0.402696	0.836424
	H5	H	0.713097	0.596453	0.163599
	H6	H	0.286893	0.598144	0.836858
	H7	H	0.285118	0.401313	0.162773
	H8	H	0.836573	0.714929	0.401322
	H9	H	0.163633	0.713952	0.597978
	H10	H	0.835358	0.287698	0.596760
	H11	H	0.163654	0.286562	0.403186
	H12	H	0.836330	0.401553	0.714514
	H13	H	0.164502	0.596282	0.712510
	H14	H	0.836206	0.597095	0.286098
	H15	H	0.164515	0.402104	0.286404
	H16	H	0.402581	0.714688	0.837123
	H17	H	0.599156	0.713934	0.163063
	H18	H	0.598903	0.285227	0.836971
	H19	H	0.401349	0.286119	0.163142
	H20	H	0.712737	0.836714	0.402775
	H21	H	0.713955	0.163568	0.597818
	H22	H	0.285649	0.836876	0.598227
	H23	H	0.286111	0.163726	0.403150
	H24	H	0.903195	0.336999	0.214234
	H25	H	0.100047	0.663151	0.214998
	H26	H	0.098445	0.337437	0.785878
	H27	H	0.902161	0.662878	0.785415
	H28	H	0.214040	0.902223	0.336211
	H29	H	0.212496	0.095816	0.664057
	H30	H	0.786805	0.096326	0.336264
	H31	H	0.785633	0.902601	0.663503
	H32	H	0.337179	0.215126	0.901106
	H33	H	0.663626	0.214218	0.097814
	H34	H	0.336286	0.784376	0.098455
	H35	H	0.663950	0.785529	0.902696
	H36	H	0.335492	0.902273	0.213388
	H37	H	0.663029	0.098476	0.214415
	H38	H	0.336159	0.098083	0.786284
	H39	H	0.664213	0.901764	0.786076
	H40	H	0.901336	0.215005	0.336661
	H41	H	0.098275	0.214066	0.663746
	H42	H	0.098997	0.784336	0.337170
	H43	H	0.900344	0.784326	0.662559
	H44	H	0.214233	0.336525	0.902952
	H45	H	0.214803	0.663155	0.096528
	H46	H	0.787634	0.336295	0.097012
	H47	H	0.786625	0.663654	0.902917
	H48	H	0.402384	0.115397	0.587916
	H49	H	0.589849	0.884558	0.597392
	H50	H	0.590866	0.115339	0.407783
	H51	H	0.407891	0.883841	0.404207
	H52	H	0.590162	0.405795	0.114766
	H53	H	0.592823	0.595857	0.883201
	H54	H	0.411812	0.602955	0.117861
	H55	H	0.397427	0.412204	0.882788
	H56	H	0.115941	0.593767	0.409047
	H57	H	0.883475	0.595837	0.588588
	H58	H	0.115925	0.402952	0.589240
	H59	H	0.883294	0.409304	0.403922
	H60	H	0.114912	0.411495	0.593279
	H61	H	0.885806	0.587554	0.592407
	H62	H	0.116493	0.590544	0.406727
	H63	H	0.881884	0.403821	0.404958
	H64	H	0.396869	0.592335	0.119142
	H65	H	0.596007	0.593101	0.883101
	H66	H	0.595103	0.403503	0.117785
	H67	H	0.416751	0.412194	0.888130
	H68	H	0.594123	0.115699	0.407881
	H69	H	0.591592	0.886038	0.589689
	H70	H	0.402173	0.118593	0.599982
	H71	H	0.407098	0.884222	0.407903
	H72	H	0.901947	0.617511	0.093477
	H73	H	0.088845	0.384511	0.097482
	H74	H	0.096604	0.615542	0.912400
	H75	H	0.901012	0.381600	0.904750
	H76	H	0.082060	0.906354	0.612706
	H77	H	0.102365	0.089333	0.382418
	H78	H	0.912643	0.091562	0.613417
	H79	H	0.887872	0.917402	0.381532
	H80	H	0.616309	0.087825	0.901406
	H81	H	0.380017	0.100984	0.094387
	H82	H	0.616113	0.904758	0.090547
	H83	H	0.379465	0.907579	0.892454
	H84	H	0.615822	0.909995	0.093122
	H85	H	0.386438	0.091789	0.085205
	H86	H	0.619679	0.100510	0.904868
	H87	H	0.381985	0.893095	0.913565
	H88	H	0.906047	0.101593	0.618722
	H89	H	0.084827	0.090118	0.387828
	H90	H	0.097737	0.897333	0.620423
	H91	H	0.924456	0.917355	0.392305
	H92	H	0.097281	0.618667	0.900381
	H93	H	0.092162	0.386056	0.088678
	H94	H	0.909199	0.616297	0.098019
	H95	H	0.912307	0.383933	0.902078
	H96	H	0.412812	0.114734	0.594910
	H97	H	0.596968	0.883035	0.594721
	H98	H	0.592467	0.117210	0.404655
	H99	H	0.404023	0.883110	0.405788
	H100	H	0.595116	0.409111	0.115539
	H101	H	0.591786	0.591785	0.884598
	H102	H	0.412336	0.585151	0.112567
	H103	H	0.408362	0.395250	0.880278
	H104	H	0.117523	0.594171	0.405434
	H105	H	0.881879	0.594584	0.597838
	H106	H	0.118989	0.403703	0.598298
	H107	H	0.883762	0.406842	0.408854
	H108	H	0.908585	0.614358	0.089892
	H109	H	0.097910	0.382635	0.095804
	H110	H	0.086551	0.614487	0.905417
	H111	H	0.908102	0.386546	0.912194
	H112	H	0.098272	0.915659	0.614892
	H113	H	0.093119	0.104656	0.380542
	H114	H	0.900084	0.090004	0.616663
	H115	H	0.908799	0.886148	0.378337
	H116	H	0.613738	0.092150	0.913815
	H117	H	0.383084	0.087405	0.098401
	H118	H	0.616978	0.905389	0.095647
	H119	H	0.388948	0.917526	0.914089
	C120	C	0.378234	0.008158	0.622041
	C121	C	0.621215	0.992120	0.622096
	C122	C	0.621033	0.008473	0.378200
	C123	C	0.378067	0.991965	0.378193
	C124	C	0.621967	0.378206	0.008122
	C125	C	0.621716	0.621331	0.991828
	C126	C	0.378758	0.621729	0.008527
	C127	C	0.378816	0.378469	0.991712
	C128	C	0.008742	0.621232	0.378477
	C129	C	0.991936	0.620972	0.621148
	C130	C	0.008039	0.378115	0.621650
	C131	C	0.991754	0.378665	0.378140
	C132	C	0.878668	0.508170	0.121699
	C133	C	0.121689	0.491991	0.121785
	C134	C	0.122028	0.508604	0.878079
	C135	C	0.878373	0.491593	0.878098
	C136	C	0.121219	0.878370	0.508045
	C137	C	0.121381	0.121969	0.491891
	C138	C	0.878384	0.121671	0.507848
	C139	C	0.878248	0.878527	0.491709
	C140	C	0.508551	0.121854	0.878400
	C141	C	0.491424	0.121538	0.121260
	C142	C	0.508076	0.877985	0.121612
	C143	C	0.491772	0.878244	0.878780
	C144	C	0.381056	0.885605	0.677170
	C145	C	0.618426	0.114779	0.676779
	C146	C	0.618236	0.885934	0.323212
	C147	C	0.380189	0.114541	0.323092
	C148	C	0.676752	0.381532	0.885226
	C149	C	0.675686	0.617422	0.114948
	C150	C	0.324144	0.618956	0.885686
	C151	C	0.323092	0.380950	0.114080
	C152	C	0.885185	0.676163	0.381365
	C153	C	0.115031	0.675949	0.618535
	C154	C	0.884648	0.324114	0.618144
	C155	C	0.114860	0.323971	0.381555
	C156	C	0.885156	0.381096	0.676351
	C157	C	0.115208	0.617890	0.675823
	C158	C	0.884984	0.618156	0.323950
	C159	C	0.115308	0.381672	0.323931
	C160	C	0.381699	0.676918	0.885888
	C161	C	0.619106	0.675912	0.114563
	C162	C	0.619496	0.323130	0.885538
	C163	C	0.380883	0.323557	0.114262
	C164	C	0.675524	0.885540	0.381618
	C165	C	0.676544	0.114895	0.619209
	C166	C	0.323644	0.885348	0.618698
	C167	C	0.323475	0.114974	0.381843
	C168	C	0.882383	0.385310	0.175980
	C169	C	0.119685	0.614773	0.176740
	C170	C	0.119357	0.385831	0.823481
	C171	C	0.880940	0.614258	0.822961
	C172	C	0.176055	0.881352	0.384904
	C173	C	0.175502	0.117759	0.614972
	C174	C	0.824039	0.117737	0.384998
	C175	C	0.823536	0.881866	0.614794
	C176	C	0.385407	0.176911	0.881014
	C177	C	0.614610	0.176354	0.118600
	C178	C	0.385021	0.822648	0.119023
	C179	C	0.615350	0.823806	0.882024
	C180	C	0.384557	0.881364	0.175866
	C181	C	0.614556	0.118743	0.176184
	C182	C	0.385171	0.118659	0.824173
	C183	C	0.615201	0.881312	0.824079
	C184	C	0.880880	0.176593	0.385302
	C185	C	0.118375	0.176017	0.614931
	C186	C	0.119163	0.822761	0.385366
	C187	C	0.880576	0.823170	0.614352
	C188	C	0.176678	0.385539	0.881615
	C189	C	0.176522	0.614952	0.117874
	C190	C	0.824648	0.385148	0.118050
	C191	C	0.824075	0.614825	0.881750
	C192	C	0.399590	0.093983	0.600682
	C193	C	0.599398	0.906482	0.600255
	C194	C	0.598964	0.094149	0.400208
	C195	C	0.399918	0.906003	0.399469
	C196	C	0.599959	0.399848	0.094039
	C197	C	0.599856	0.599845	0.905681
	C198	C	0.400602	0.599719	0.094585
	C199	C	0.400925	0.400278	0.905722
	C200	C	0.094459	0.599314	0.400565
	C201	C	0.905950	0.599184	0.599327
	C202	C	0.094658	0.399658	0.599869
	C203	C	0.905283	0.400369	0.399656
	C204	C	0.900169	0.593975	0.100106
	C205	C	0.099623	0.406609	0.100315
	C206	C	0.099963	0.594148	0.899776
	C207	C	0.900458	0.406152	0.899938
	C208	C	0.099230	0.899920	0.593703
	C209	C	0.099783	0.100977	0.405760
	C210	C	0.900012	0.100443	0.594125
	C211	C	0.900463	0.900391	0.406157
	C212	C	0.594505	0.099900	0.900190
	C213	C	0.405373	0.099853	0.099117
	C214	C	0.594041	0.900211	0.099524
	C215	C	0.405727	0.899882	0.900269
	Zn216	Zn	0.500061	0.000078	0.750639
	Zn217	Zn	0.499358	0.000414	0.249641
	Zn218	Zn	0.749875	0.499964	0.000037
	Zn219	Zn	0.250344	0.500099	-0.000135
	Zn220	Zn	0.000285	0.749780	0.499946
	Zn221	Zn	-0.000117	0.250443	0.499783
	Zn222	Zn	0.000159	0.499724	0.749650
	Zn223	Zn	0.000388	0.500129	0.250549
	Zn224	Zn	0.500691	0.749835	0.000284
	Zn225	Zn	0.499989	0.249915	0.000019
	Zn226	Zn	0.749487	0.000112	0.500143
	Zn227	Zn	0.249531	-0.000021	0.499781
	N228	N	0.414200	0.962839	0.679295
	N229	N	0.585011	0.037555	0.678783
	N230	N	0.585193	0.963479	0.320832
	N231	N	0.413519	0.037150	0.320896
	N232	N	0.678246	0.414918	0.962452
	N233	N	0.677488	0.584347	0.037476
	N234	N	0.322443	0.585272	0.962874
	N235	N	0.321965	0.414566	0.036821
	N236	N	0.963063	0.678568	0.414259
	N237	N	0.037340	0.678144	0.585443
	N238	N	0.962377	0.322337	0.584706
	N239	N	0.037006	0.321943	0.414566
	N240	N	0.962970	0.413957	0.678456
	N241	N	0.037667	0.584329	0.677341
	N242	N	0.962472	0.584534	0.322381
	N243	N	0.037708	0.414972	0.322042
	N244	N	0.414972	0.678684	0.963314
	N245	N	0.586295	0.678246	0.037021
	N246	N	0.586186	0.320911	0.962980
	N247	N	0.415135	0.322239	0.037247
	N248	N	0.677196	0.962684	0.415123
	N249	N	0.678163	0.037742	0.585687
	N250	N	0.321710	0.962579	0.585107
	N251	N	0.322246	0.037862	0.415523
	N252	N	0.915282	0.462606	0.178239
	N253	N	0.086218	0.537462	0.179180
	N254	N	0.085853	0.463039	0.821417
	N255	N	0.914249	0.536919	0.820662
	N256	N	0.177279	0.915263	0.461963
	N257	N	0.177313	0.084807	0.537393
	N258	N	0.822585	0.084200	0.462334
	N259	N	0.821835	0.915461	0.537477
	N260	N	0.463138	0.178881	0.914278
	N261	N	0.537058	0.177979	0.085079
	N262	N	0.462748	0.820877	0.085832
	N263	N	0.537711	0.821905	0.915387
	N264	N	0.461991	0.915212	0.177637
	N265	N	0.537028	0.085369	0.177993
	N266	N	0.462589	0.084972	0.822660
	N267	N	0.537457	0.914373	0.821915
	N268	N	0.913877	0.179029	0.462785
	N269	N	0.085305	0.178607	0.537361
	N270	N	0.085682	0.820936	0.462785
	N271	N	0.913913	0.821115	0.537039
	N272	N	0.178330	0.462661	0.914954
	N273	N	0.177743	0.537831	0.084302
	N274	N	0.822261	0.462575	0.084899
	N275	N	0.822270	0.537645	0.915220
