data_Molecule from HDF5

_cell_length_a		16.491001
_cell_length_b		16.524631
_cell_length_c		16.494053
_cell_angle_alpha	90.057458
_cell_angle_beta	90.044436
_cell_angle_gamma	89.921771
_symmetry_space_group_name_H-M	'P 1'
_symmetry_Int_Tables_number		1

loop_
	_symmetry_equiv_pos_as_xyz
	x,y,z

loop_
	_atom_site_label
	_atom_site_type_symbol
	_atom_site_fract_x
	_atom_site_fract_y
	_atom_site_fract_z
	H0	H	0.400578	0.849289	0.744672
	H1	H	0.611350	0.162688	0.741701
	H2	H	0.612645	0.849951	0.299176
	H3	H	0.400449	0.163743	0.299859
	H4	H	0.728203	0.402614	0.866558
	H5	H	0.731008	0.614768	0.179986
	H6	H	0.286611	0.613419	0.864921
	H7	H	0.283161	0.401774	0.178887
	H8	H	0.852386	0.731701	0.412312
	H9	H	0.163751	0.731170	0.630396
	H10	H	0.851172	0.287244	0.625259
	H11	H	0.166002	0.284900	0.416799
	H12	H	0.848861	0.406772	0.738737
	H13	H	0.165403	0.612687	0.743267
	H14	H	0.852991	0.615504	0.297247
	H15	H	0.165766	0.399026	0.299005
	H16	H	0.402565	0.728866	0.865257
	H17	H	0.615259	0.731332	0.179216
	H18	H	0.611228	0.286225	0.867034
	H19	H	0.398780	0.284583	0.179849
	H20	H	0.732243	0.851106	0.411941
	H21	H	0.725588	0.164139	0.623302
	H22	H	0.284764	0.849549	0.628553
	H23	H	0.283609	0.162801	0.414766
	H24	H	0.901694	0.350026	0.244510
	H25	H	0.116495	0.662652	0.248215
	H26	H	0.109529	0.350222	0.803331
	H27	H	0.900601	0.665244	0.800567
	H28	H	0.232239	0.897341	0.365794
	H29	H	0.228360	0.110261	0.678356
	H30	H	0.787878	0.111653	0.362647
	H31	H	0.785143	0.901327	0.678231
	H32	H	0.350536	0.227271	0.918783
	H33	H	0.663974	0.229901	0.130621
	H34	H	0.352002	0.781598	0.131266
	H35	H	0.664269	0.783013	0.914373
	H36	H	0.351091	0.898843	0.246868
	H37	H	0.664415	0.112127	0.244638
	H38	H	0.350461	0.110903	0.801690
	H39	H	0.663473	0.897138	0.797229
	H40	H	0.903557	0.228421	0.363708
	H41	H	0.111302	0.225813	0.679558
	H42	H	0.116227	0.780802	0.366203
	H43	H	0.899124	0.783787	0.678167
	H44	H	0.227510	0.351130	0.918604
	H45	H	0.227706	0.665953	0.127518
	H46	H	0.785798	0.350048	0.128777
	H47	H	0.784592	0.664581	0.917122
	H48	H	0.413215	0.117369	0.604823
	H49	H	0.593062	0.895382	0.604866
	H50	H	0.604917	0.119230	0.439160
	H51	H	0.418825	0.894325	0.433314
	H52	H	0.597976	0.424428	0.135176
	H53	H	0.599849	0.598119	0.908612
	H54	H	0.420837	0.599559	0.135471
	H55	H	0.416886	0.416218	0.909416
	H56	H	0.120299	0.594518	0.436114
	H57	H	0.892200	0.601677	0.611722
	H58	H	0.120745	0.420979	0.612831
	H59	H	0.896179	0.418491	0.432465
	H60	H	0.124880	0.414123	0.618911
	H61	H	0.897551	0.594900	0.605523
	H62	H	0.118049	0.593225	0.439057
	H63	H	0.897220	0.417588	0.435524
	H64	H	0.415051	0.594023	0.135427
	H65	H	0.596894	0.590631	0.912242
	H66	H	0.591053	0.416757	0.135649
	H67	H	0.417869	0.419694	0.911404
	H68	H	0.596497	0.122457	0.424619
	H69	H	0.602339	0.890961	0.608271
	H70	H	0.415965	0.120865	0.617870
	H71	H	0.421373	0.895059	0.433340
	H72	H	0.923947	0.615810	0.105314
	H73	H	0.095393	0.396888	0.107780
	H74	H	0.096690	0.620027	0.935008
	H75	H	0.918669	0.396315	0.933848
	H76	H	0.095737	0.918121	0.633464
	H77	H	0.092089	0.095730	0.409240
	H78	H	0.912977	0.099673	0.636250
	H79	H	0.921548	0.922077	0.411732
	H80	H	0.620171	0.097300	0.935355
	H81	H	0.394487	0.097165	0.110116
	H82	H	0.619266	0.916647	0.108357
	H83	H	0.393932	0.913319	0.934723
	H84	H	0.616516	0.922395	0.105759
	H85	H	0.394952	0.095358	0.111830
	H86	H	0.621255	0.093728	0.932255
	H87	H	0.398695	0.920635	0.939239
	H88	H	0.915560	0.093800	0.633790
	H89	H	0.097633	0.099582	0.406745
	H90	H	0.096202	0.920985	0.633589
	H91	H	0.923051	0.917651	0.410397
	H92	H	0.100169	0.623118	0.931192
	H93	H	0.096432	0.395760	0.109957
	H94	H	0.914724	0.619651	0.108983
	H95	H	0.915465	0.393921	0.931797
	H96	H	0.426116	0.115096	0.609984
	H97	H	0.594294	0.892571	0.615193
	H98	H	0.588748	0.114394	0.437135
	H99	H	0.419727	0.895546	0.435792
	H100	H	0.600196	0.415365	0.139362
	H101	H	0.591423	0.597653	0.912367
	H102	H	0.422483	0.592119	0.132863
	H103	H	0.420134	0.416820	0.911272
	H104	H	0.118056	0.591322	0.436293
	H105	H	0.895037	0.592082	0.615123
	H106	H	0.122555	0.411998	0.609842
	H107	H	0.897265	0.420497	0.434451
	H108	H	0.923063	0.619462	0.115534
	H109	H	0.094197	0.396967	0.109954
	H110	H	0.094249	0.622269	0.929818
	H111	H	0.919074	0.394983	0.929220
	H112	H	0.093383	0.919840	0.631556
	H113	H	0.098821	0.092544	0.408383
	H114	H	0.920070	0.099682	0.633801
	H115	H	0.918821	0.919273	0.408968
	H116	H	0.621792	0.098674	0.931279
	H117	H	0.393743	0.097307	0.112161
	H118	H	0.618284	0.921755	0.112529
	H119	H	0.395602	0.921834	0.929891
	C120	C	0.385790	0.014340	0.643533
	C121	C	0.628401	0.997066	0.641846
	C122	C	0.629490	0.015435	0.399617
	C123	C	0.386276	0.998175	0.400818
	C124	C	0.628343	0.386482	0.032301
	C125	C	0.629093	0.628678	1.014845
	C126	C	0.386798	0.628418	0.030842
	C127	C	0.385058	0.385532	1.014183
	C128	C	0.016138	0.627325	0.401788
	C129	C	0.998704	0.629413	0.644072
	C130	C	0.017656	0.385378	0.644157
	C131	C	1.000522	0.385824	0.400980
	C132	C	0.887350	0.515163	0.143493
	C133	C	0.128928	0.499561	0.143291
	C134	C	0.128290	0.517237	0.901034
	C135	C	0.885573	0.499514	0.900541
	C136	C	0.128929	0.885137	0.529937
	C137	C	0.128616	0.127538	0.512462
	C138	C	0.885840	0.128954	0.529504
	C139	C	0.886961	0.886252	0.513388
	C140	C	0.516656	0.127976	0.901278
	C141	C	0.498232	0.129097	0.144680
	C142	C	0.515295	0.886119	0.142975
	C143	C	0.499333	0.884958	0.900864
	C144	C	0.382704	0.896530	0.704216
	C145	C	0.630000	0.115402	0.701820
	C146	C	0.631590	0.897309	0.338728
	C147	C	0.382693	0.116355	0.340132
	C148	C	0.687975	0.384216	0.913903
	C149	C	0.690437	0.632481	0.132819
	C150	C	0.326481	0.631499	0.912349
	C151	C	0.323519	0.383250	0.132072
	C152	C	0.899337	0.690469	0.395990
	C153	C	0.116743	0.690330	0.647658
	C154	C	0.898353	0.326796	0.644498
	C155	C	0.118830	0.324998	0.398434
	C156	C	0.897326	0.386111	0.700903
	C157	C	0.117497	0.631392	0.704024
	C158	C	0.899585	0.632444	0.338413
	C159	C	0.118494	0.381851	0.339590
	C160	C	0.384327	0.689038	0.912606
	C161	C	0.632967	0.690703	0.132386
	C162	C	0.630007	0.326420	0.913887
	C163	C	0.380918	0.324733	0.132420
	C164	C	0.690991	0.897710	0.395009
	C165	C	0.686708	0.116284	0.642738
	C166	C	0.324947	0.896560	0.646242
	C167	C	0.324327	0.115994	0.397305
	C168	C	0.883910	0.397367	0.204630
	C169	C	0.133201	0.616515	0.206125
	C170	C	0.129029	0.397984	0.842563
	C171	C	0.882663	0.617895	0.840770
	C172	C	0.191162	0.880109	0.412545
	C173	C	0.188501	0.129161	0.631179
	C174	C	0.826852	0.130589	0.410610
	C175	C	0.825199	0.882958	0.631117
	C176	C	0.397965	0.187538	0.899796
	C177	C	0.616853	0.189539	0.147894
	C178	C	0.398677	0.822829	0.148284
	C179	C	0.617086	0.823392	0.896842
	C180	C	0.397945	0.881487	0.205564
	C181	C	0.616995	0.131228	0.205093
	C182	C	0.397963	0.129588	0.841618
	C183	C	0.616652	0.880313	0.838455
	C184	C	0.884754	0.188570	0.410960
	C185	C	0.130277	0.186553	0.631746
	C186	C	0.133518	0.822002	0.412948
	C187	C	0.882248	0.824652	0.630976
	C188	C	0.187562	0.398424	0.900011
	C189	C	0.188891	0.617985	0.146334
	C190	C	0.826222	0.397347	0.146766
	C191	C	0.824925	0.617565	0.899001
	C192	C	0.411279	0.096358	0.618074
	C193	C	0.603744	0.914508	0.616581
	C194	C	0.603802	0.097295	0.426064
	C195	C	0.412426	0.916376	0.426615
	C196	C	0.603241	0.411608	0.115145
	C197	C	0.603459	0.602773	0.932555
	C198	C	0.412112	0.602485	0.113229
	C199	C	0.411089	0.410444	0.931908
	C200	C	0.097614	0.600518	0.429353
	C201	C	0.916354	0.603644	0.618285
	C202	C	0.101083	0.408790	0.620729
	C203	C	0.918252	0.411687	0.426755
	C204	C	0.913266	0.596934	0.117515
	C205	C	0.102704	0.417895	0.116791
	C206	C	0.103975	0.600158	0.925052
	C207	C	0.910695	0.416625	0.924628
	C208	C	0.102516	0.912098	0.611594
	C209	C	0.103437	0.102836	0.429607
	C210	C	0.909489	0.104714	0.612878
	C211	C	0.913661	0.912304	0.431669
	C212	C	0.599574	0.103521	0.925956
	C213	C	0.416097	0.103850	0.118874
	C214	C	0.596754	0.912772	0.116516
	C215	C	0.417375	0.911197	0.927233
	Zn216	Zn	0.507619	0.005673	0.772285
	Zn217	Zn	0.507197	0.006912	0.271952
	Zn218	Zn	0.757796	0.507681	0.023534
	Zn219	Zn	0.257753	0.509012	0.022827
	Zn220	Zn	0.007772	0.757000	0.522365
	Zn221	Zn	0.008318	0.257246	0.521513
	Zn222	Zn	0.007124	0.508518	0.771880
	Zn223	Zn	0.008889	0.506903	0.272409
	Zn224	Zn	0.507922	0.756848	0.022454
	Zn225	Zn	0.507292	0.257248	0.023637
	Zn226	Zn	0.757905	0.006621	0.520805
	Zn227	Zn	0.257255	0.006124	0.521392
	N228	N	0.419736	0.970858	0.702766
	N229	N	0.594239	0.040330	0.701313
	N230	N	0.594109	0.971507	0.341431
	N231	N	0.420246	0.042213	0.342005
	N232	N	0.687127	0.420754	0.988635
	N233	N	0.688073	0.594574	0.058581
	N234	N	0.327809	0.594651	0.986990
	N235	N	0.325781	0.420184	0.057699
	N236	N	0.972835	0.687158	0.435020
	N237	N	0.041959	0.689008	0.610936
	N238	N	0.974293	0.325926	0.610096
	N239	N	0.044462	0.327384	0.435700
	N240	N	0.972529	0.421665	0.701039
	N241	N	0.043019	0.594185	0.701864
	N242	N	0.973374	0.593911	0.341936
	N243	N	0.043906	0.418947	0.341057
	N244	N	0.420980	0.687288	0.987393
	N245	N	0.595691	0.688393	0.057967
	N246	N	0.593945	0.327598	0.988883
	N247	N	0.418590	0.325962	0.058013
	N248	N	0.690047	0.972207	0.431937
	N249	N	0.686134	0.041459	0.606484
	N250	N	0.326784	0.970885	0.609024
	N251	N	0.326310	0.041359	0.434196
	N252	N	0.921051	0.471801	0.203077
	N253	N	0.096843	0.541776	0.204525
	N254	N	0.093207	0.473038	0.842658
	N255	N	0.919707	0.543420	0.841667
	N256	N	0.188682	0.918401	0.486365
	N257	N	0.187612	0.093279	0.556050
	N258	N	0.827379	0.094249	0.485485
	N259	N	0.827855	0.920519	0.556734
	N260	N	0.472769	0.186795	0.936146
	N261	N	0.541990	0.188368	0.111174
	N262	N	0.472518	0.825780	0.110037
	N263	N	0.543225	0.826247	0.935222
	N264	N	0.471457	0.920390	0.202343
	N265	N	0.542385	0.094515	0.203465
	N266	N	0.473023	0.093550	0.842135
	N267	N	0.542484	0.918029	0.840959
	N268	N	0.920701	0.187726	0.486097
	N269	N	0.093978	0.185914	0.556777
	N270	N	0.095582	0.825287	0.487032
	N271	N	0.919898	0.826457	0.556781
	N272	N	0.187537	0.473746	0.935246
	N273	N	0.186254	0.544191	0.108084
	N274	N	0.828061	0.471551	0.109547
	N275	N	0.826491	0.542750	0.935277
	O276	O	0.538754	0.295696	0.310839
	H277	H	0.531078	0.279460	0.280859
	H278	H	0.511476	0.301609	0.326903
	O279	O	0.474147	0.370964	0.458439
	H280	H	0.462842	0.371732	0.448811
	H281	H	0.466392	0.369992	0.462288
	O282	O	0.294911	0.722881	0.499274
	H283	H	0.291370	0.725629	0.466521
	H284	H	0.276907	0.738927	0.477343
	O285	O	0.306531	0.403657	0.542589
	H286	H	0.312360	0.395824	0.560625
	H287	H	0.303614	0.404902	0.550145
	O288	O	0.046166	-0.019391	-0.121983
	H289	H	0.054288	-0.025710	-0.129469
	H290	H	0.056456	-0.026045	-0.097025
	O291	O	1.090679	1.031624	0.139003
	H292	H	1.085314	1.020547	0.143837
	H293	H	1.095873	1.020389	0.153903
	O294	O	0.028625	1.224516	0.234718
	H295	H	0.039411	1.234705	0.253623
	H296	H	0.046039	1.232099	0.225697
	O297	O	1.160064	1.165423	-0.171598
	H298	H	1.152341	1.147667	-0.158798
	H299	H	1.150363	1.160011	-0.156250
	O300	O	0.523027	0.691129	0.528805
	H301	H	0.524710	0.670797	0.528304
	H302	H	0.522449	0.685185	0.522947
	O303	O	0.698996	0.314997	0.715373
	H304	H	0.678659	0.334121	0.700347
	H305	H	0.678421	0.330270	0.693446
	O306	O	0.070815	0.883810	1.124384
	H307	H	0.056234	0.888679	1.111512
	H308	H	0.072825	0.902859	1.108584
	O309	O	0.695524	0.322679	0.346707
	H310	H	0.685521	0.351866	0.340582
	H311	H	0.662935	0.327406	0.332885
	O312	O	0.190150	0.194393	0.205818
	H313	H	0.177632	0.166364	0.212122
	H314	H	0.199922	0.198483	0.161396
	O315	O	-0.058335	-0.197027	1.224355
	H316	H	-0.088326	-0.197590	1.204301
	H317	H	-0.051418	-0.213204	1.230282
	O318	O	-0.486494	1.623177	0.670174
	H319	H	-0.469284	1.635293	0.660731
	H320	H	-0.486420	1.635618	0.672903
	O321	O	-0.128953	0.990185	-0.012027
	H322	H	-0.135238	0.988049	-0.035597
	H323	H	-0.129210	1.018270	-0.015344
	O324	O	0.793878	0.219845	0.991799
	H325	H	0.792409	0.217126	0.977137
	H326	H	0.773275	0.241234	0.972455
	O327	O	1.035975	-0.108591	1.224636
	H328	H	1.034277	-0.116988	1.215363
	H329	H	1.026500	-0.119279	1.231692
	O330	O	0.822884	0.029238	-0.161954
	H331	H	0.807117	0.047024	-0.175682
	H332	H	0.817194	0.040698	-0.169957
	O333	O	0.434303	0.606034	0.587982
	H334	H	0.441967	0.602427	0.573605
	H335	H	0.423286	0.596442	0.576927
	O336	O	1.517994	-0.342326	0.722176
	H337	H	1.518923	-0.343016	0.720584
	H338	H	1.513101	-0.330531	0.707904
	O339	O	0.337570	-0.525270	-0.269129
	H340	H	0.332731	-0.499703	-0.280876
	H341	H	0.331502	-0.507486	-0.261600
	O342	O	0.298012	0.345937	0.732327
	H343	H	0.300192	0.396166	0.736195
	H344	H	0.263117	0.327716	0.768658
	O345	O	-0.198891	0.210554	-0.182291
	H346	H	-0.228994	0.244927	-0.215405
	H347	H	-0.155274	0.218345	-0.179711
	O348	O	1.213474	-0.191228	0.991737
	H349	H	1.231627	-0.214281	0.989970
	H350	H	1.208548	-0.168779	1.023823
	O351	O	0.829722	0.819574	0.154499
	H352	H	0.816693	0.822920	0.126516
	H353	H	0.827178	0.840993	0.148594
	O354	O	0.489639	0.713850	0.330335
	H355	H	0.515540	0.724289	0.333307
	H356	H	0.505152	0.713446	0.326657
	O357	O	1.046674	1.231679	0.976169
	H358	H	1.028840	1.232287	0.981276
	H359	H	1.040597	1.232026	0.966001
	O360	O	0.317485	0.684215	0.333026
	H361	H	0.363564	0.692195	0.321532
	H362	H	0.303933	0.665142	0.315419
	O363	O	0.684463	0.718358	0.588800
	H364	H	0.700372	0.749072	0.590376
	H365	H	0.672737	0.704268	0.608980
	O366	O	0.914657	-0.158084	1.063764
	H367	H	0.901437	-0.173490	1.052433
	H368	H	0.903270	-0.138828	1.061592
	O369	O	0.099961	1.015437	-0.079881
	H370	H	0.099927	1.042725	-0.073150
	H371	H	0.080737	1.026887	-0.067151
	O372	O	0.184638	0.829370	-0.156866
	H373	H	0.162088	0.820699	-0.135315
	H374	H	0.174727	0.821137	-0.137431
	O375	O	-0.082878	0.823212	0.975261
	H376	H	-0.103780	0.816000	0.971324
	H377	H	-0.060402	0.828048	0.965026
	O378	O	0.491769	0.416485	0.423334
	H379	H	0.478114	0.424556	0.432340
	H380	H	0.514998	0.434553	0.429948
	O381	O	0.802282	0.056039	0.111319
	H382	H	0.809696	0.078471	0.116094
	H383	H	0.797987	0.059724	0.109088
	O384	O	-0.282220	0.301569	1.507098
	H385	H	-0.265937	0.280987	1.494953
	H386	H	-0.297216	0.301216	1.471802
	O387	O	-0.045580	0.842591	0.884821
	H388	H	-0.042685	0.833490	0.884340
	H389	H	-0.043824	0.854750	0.889811
	O390	O	0.694318	0.678337	0.706484
	H391	H	0.683599	0.668083	0.701169
	H392	H	0.679011	0.679666	0.721956
	O393	O	1.224344	1.033513	0.237770
	H394	H	1.241849	1.031214	0.268891
	H395	H	1.203293	1.029798	0.239481
	O396	O	0.303184	0.439032	0.449384
	H397	H	0.302232	0.442828	0.462174
	H398	H	0.307145	0.439211	0.446872
	O399	O	0.521119	0.454424	0.407065
	H400	H	0.538813	0.447689	0.407561
	H401	H	0.529454	0.450328	0.438283
	O402	O	-0.103599	0.200417	1.119956
	H403	H	-0.087125	0.201114	1.132394
	H404	H	-0.129748	0.222827	1.112974
	O405	O	0.215698	-0.007743	-0.187228
	H406	H	0.242512	-0.020192	-0.202791
	H407	H	0.210658	-0.046243	-0.172282
	O408	O	0.318125	0.572714	0.599400
	H409	H	0.326136	0.574298	0.580116
	H410	H	0.317766	0.586343	0.592911
	O411	O	-0.029013	1.220595	-0.186601
	H412	H	-0.023891	1.220705	-0.200894
	H413	H	-0.020029	1.216540	-0.193457
	O414	O	0.396311	0.294165	0.658881
	H415	H	0.359895	0.296882	0.663300
	H416	H	0.388779	0.279726	0.680489
	O417	O	0.913508	0.016857	1.079010
	H418	H	0.911576	-0.002824	1.071769
	H419	H	0.900974	0.021507	1.090092
	O420	O	0.718960	0.466518	0.558918
	H421	H	0.721198	0.450812	0.551120
	H422	H	0.720603	0.451033	0.570200
	O423	O	0.136491	1.060999	0.003726
	H424	H	0.131261	1.043880	-0.000666
	H425	H	0.132427	1.051581	0.005066
	O426	O	1.169642	0.917898	1.105215
	H427	H	1.160515	0.935939	1.118181
	H428	H	1.170680	0.938246	1.099529
	O429	O	0.610949	0.665607	0.427768
	H430	H	0.640314	0.673848	0.435558
	H431	H	0.601371	0.644107	0.444986
	O432	O	0.469766	0.472414	0.508020
	H433	H	0.454668	0.462379	0.500193
	H434	H	0.479263	0.462047	0.502161
	O435	O	-0.010569	-0.104698	-0.193133
	H436	H	-0.020558	-0.114626	-0.215173
	H437	H	-0.008954	-0.080386	-0.197292
	O438	O	1.724962	0.595042	0.474962
	H439	H	1.714915	0.579605	0.485321
	H440	H	1.739425	0.612065	0.483248
	O441	O	-0.108764	0.026568	0.212727
	H442	H	-0.112951	0.035207	0.231840
	H443	H	-0.111421	0.046132	0.205118
	O444	O	0.874726	-0.100509	-0.080258
	H445	H	0.858905	-0.081238	-0.084524
	H446	H	0.864476	-0.104149	-0.073477
	O447	O	0.539677	0.400545	0.721648
	H448	H	0.511034	0.388344	0.724624
	H449	H	0.523292	0.405328	0.719573
	O450	O	0.718631	0.485743	0.310842
	H451	H	0.735474	0.494717	0.296366
	H452	H	0.721457	0.502133	0.325459
	O453	O	0.473836	0.295209	0.643872
	H454	H	0.461471	0.281447	0.644453
	H455	H	0.454544	0.304366	0.639244
	O456	O	0.502332	0.514553	0.392655
	H457	H	0.486431	0.512392	0.390098
	H458	H	0.491582	0.511417	0.387027
	O459	O	0.209054	0.216884	0.040283
	H460	H	0.189671	0.222136	0.026061
	H461	H	0.232663	0.223841	0.036973
	O462	O	0.654894	0.504262	0.705004
	H463	H	0.636571	0.495053	0.698942
	H464	H	0.657091	0.508017	0.723870
	O465	O	1.300797	-0.481249	-0.686588
	H466	H	1.284551	-0.496034	-0.676325
	H467	H	1.286119	-0.463990	-0.697620
