data_Molecule from HDF5

_cell_length_a		16.486621
_cell_length_b		16.617918
_cell_length_c		16.549213
_cell_angle_alpha	90.011998
_cell_angle_beta	90.023172
_cell_angle_gamma	89.951153
_symmetry_space_group_name_H-M	'P 1'
_symmetry_Int_Tables_number		1

loop_
	_symmetry_equiv_pos_as_xyz
	x,y,z

loop_
	_atom_site_label
	_atom_site_type_symbol
	_atom_site_fract_x
	_atom_site_fract_y
	_atom_site_fract_z
	H0	H	0.411020	0.832611	0.723096
	H1	H	0.622525	0.144036	0.723333
	H2	H	0.620240	0.831834	0.281367
	H3	H	0.413918	0.145812	0.282607
	H4	H	0.739340	0.383313	0.844334
	H5	H	0.733209	0.589706	0.159122
	H6	H	0.296199	0.591421	0.842231
	H7	H	0.301183	0.388179	0.159245
	H8	H	0.858953	0.706413	0.401783
	H9	H	0.174056	0.709928	0.609761
	H10	H	0.859310	0.267505	0.606240
	H11	H	0.174276	0.268499	0.397908
	H12	H	0.859685	0.383210	0.722840
	H13	H	0.174315	0.591977	0.723358
	H14	H	0.858834	0.590783	0.283377
	H15	H	0.175027	0.385341	0.282793
	H16	H	0.408757	0.711075	0.843653
	H17	H	0.617547	0.707217	0.158470
	H18	H	0.626305	0.263938	0.845217
	H19	H	0.416231	0.270121	0.157637
	H20	H	0.736780	0.831560	0.398583
	H21	H	0.736660	0.145270	0.604686
	H22	H	0.295467	0.832509	0.606266
	H23	H	0.298564	0.146268	0.400158
	H24	H	0.914248	0.332410	0.220602
	H25	H	0.121332	0.644694	0.222451
	H26	H	0.121370	0.330644	0.780528
	H27	H	0.909798	0.643344	0.777381
	H28	H	0.236025	0.885335	0.345188
	H29	H	0.237975	0.092537	0.658947
	H30	H	0.801020	0.087161	0.342493
	H31	H	0.792873	0.882264	0.658215
	H32	H	0.360435	0.211343	0.892786
	H33	H	0.674678	0.207272	0.102857
	H34	H	0.358277	0.769536	0.103344
	H35	H	0.673481	0.766010	0.894712
	H36	H	0.358021	0.886202	0.219405
	H37	H	0.675142	0.090317	0.218167
	H38	H	0.360228	0.094475	0.778398
	H39	H	0.675331	0.884476	0.781109
	H40	H	0.914805	0.207150	0.343992
	H41	H	0.122847	0.210428	0.658480
	H42	H	0.120951	0.767020	0.346415
	H43	H	0.907973	0.765001	0.658840
	H44	H	0.237650	0.330977	0.897152
	H45	H	0.237278	0.645059	0.104858
	H46	H	0.795830	0.333555	0.104777
	H47	H	0.795604	0.645366	0.895017
	H48	H	0.428936	0.098549	0.586428
	H49	H	0.603297	0.877697	0.590851
	H50	H	0.605964	0.099589	0.414482
	H51	H	0.424887	0.875510	0.410159
	H52	H	0.601747	0.397365	0.111410
	H53	H	0.602021	0.578186	0.889649
	H54	H	0.424941	0.580352	0.113602
	H55	H	0.428093	0.392302	0.885100
	H56	H	0.129277	0.578742	0.416400
	H57	H	0.905008	0.577186	0.589706
	H58	H	0.129220	0.396837	0.587400
	H59	H	0.903436	0.394488	0.411969
	H60	H	0.128248	0.402333	0.590151
	H61	H	0.905912	0.576398	0.588811
	H62	H	0.129838	0.574820	0.410922
	H63	H	0.904434	0.399670	0.412983
	H64	H	0.427316	0.577133	0.111335
	H65	H	0.606436	0.581365	0.886842
	H66	H	0.608464	0.397044	0.114061
	H67	H	0.422273	0.401920	0.886303
	H68	H	0.613484	0.104267	0.408358
	H69	H	0.605508	0.878056	0.588250
	H70	H	0.425971	0.101220	0.591378
	H71	H	0.427528	0.875479	0.409087
	H72	H	0.925211	0.602609	0.093291
	H73	H	0.109341	0.373239	0.098231
	H74	H	0.108177	0.598114	0.916898
	H75	H	0.932272	0.381949	0.923105
	H76	H	0.109314	0.903224	0.614228
	H77	H	0.109145	0.081928	0.387568
	H78	H	0.928716	0.081603	0.614765
	H79	H	0.924021	0.894749	0.388609
	H80	H	0.631810	0.078818	0.906195
	H81	H	0.403171	0.078973	0.090329
	H82	H	0.631682	0.893891	0.094032
	H83	H	0.405893	0.902827	0.914311
	H84	H	0.629096	0.895582	0.085480
	H85	H	0.402602	0.079444	0.091096
	H86	H	0.629053	0.081231	0.919247
	H87	H	0.404128	0.901184	0.909483
	H88	H	0.923575	0.078608	0.615499
	H89	H	0.108107	0.075628	0.390938
	H90	H	0.100296	0.900950	0.612751
	H91	H	0.927039	0.903305	0.392713
	H92	H	0.106506	0.600178	0.908859
	H93	H	0.101569	0.378119	0.090957
	H94	H	0.927158	0.602162	0.092989
	H95	H	0.917319	0.373744	0.912591
	H96	H	0.432149	0.099481	0.592260
	H97	H	0.605881	0.876245	0.591100
	H98	H	0.604149	0.101070	0.404358
	H99	H	0.426851	0.876844	0.411369
	H100	H	0.606009	0.402980	0.111061
	H101	H	0.607186	0.575407	0.887972
	H102	H	0.429166	0.581054	0.112146
	H103	H	0.432953	0.401333	0.890165
	H104	H	0.131588	0.581374	0.410363
	H105	H	0.904981	0.576023	0.590041
	H106	H	0.131084	0.397678	0.593538
	H107	H	0.901813	0.398597	0.408557
	H108	H	0.925398	0.601814	0.091746
	H109	H	0.112152	0.375943	0.087240
	H110	H	0.100154	0.597270	0.913445
	H111	H	0.935813	0.376383	0.903632
	H112	H	0.106211	0.895038	0.616794
	H113	H	0.102351	0.080708	0.389608
	H114	H	0.928602	0.075738	0.613256
	H115	H	0.933484	0.895664	0.392261
	H116	H	0.625566	0.069069	0.913693
	H117	H	0.402709	0.079616	0.090372
	H118	H	0.628757	0.902398	0.091922
	H119	H	0.404366	0.897507	0.913706
	C120	C	0.396202	-0.003250	0.622584
	C121	C	0.637555	0.980404	0.622055
	C122	C	0.638297	-0.002618	0.379097
	C123	C	0.395211	0.979951	0.379643
	C124	C	0.638557	0.366939	0.008863
	C125	C	0.636928	0.609865	0.992145
	C126	C	0.394391	0.610536	0.008434
	C127	C	0.396957	0.367727	0.991570
	C128	C	0.025651	0.609591	0.381361
	C129	C	1.008745	0.608925	0.623283
	C130	C	0.025504	0.366667	0.623128
	C131	C	1.007914	0.366755	0.380238
	C132	C	0.895312	0.498033	0.123236
	C133	C	0.139020	0.479589	0.123381
	C134	C	0.137525	0.495268	0.880525
	C135	C	0.895189	0.480006	0.879555
	C136	C	0.137511	0.867453	0.511163
	C137	C	0.138663	0.110391	0.493393
	C138	C	0.896237	0.109032	0.509963
	C139	C	0.894871	0.866017	0.494351
	C140	C	0.525334	0.109081	0.879755
	C141	C	0.507701	0.109858	0.121278
	C142	C	0.525077	0.866821	0.121983
	C143	C	0.508410	0.867517	0.879655
	C144	C	0.393282	0.879394	0.682739
	C145	C	0.640385	0.097817	0.682365
	C146	C	0.639329	0.878924	0.320893
	C147	C	0.394796	0.098350	0.321591
	C148	C	0.699473	0.364733	0.891349
	C149	C	0.694653	0.609769	0.111389
	C150	C	0.335049	0.611145	0.889906
	C151	C	0.339740	0.368305	0.111290
	C152	C	0.906388	0.667426	0.381374
	C153	C	0.126724	0.669560	0.627204
	C154	C	0.906885	0.307134	0.625132
	C155	C	0.126934	0.308189	0.379452
	C156	C	0.907044	0.364684	0.682992
	C157	C	0.127025	0.610782	0.683636
	C158	C	0.906373	0.610164	0.322754
	C159	C	0.127321	0.366272	0.322096
	C160	C	0.391258	0.670548	0.890549
	C161	C	0.637119	0.667995	0.111134
	C162	C	0.642949	0.305660	0.891720
	C163	C	0.396859	0.309610	0.110657
	C164	C	0.697078	0.878815	0.379215
	C165	C	0.697183	0.098333	0.623726
	C166	C	0.335557	0.879204	0.624890
	C167	C	0.337466	0.098678	0.380168
	C168	C	0.894671	0.379745	0.181410
	C169	C	0.140587	0.597593	0.182758
	C170	C	0.139670	0.377501	0.820625
	C171	C	0.892105	0.596863	0.818262
	C172	C	0.196728	0.865908	0.392610
	C173	C	0.198366	0.111472	0.611749
	C174	C	0.839146	0.108011	0.390309
	C175	C	0.833356	0.863830	0.611515
	C176	C	0.407503	0.170493	0.875678
	C177	C	0.627155	0.167938	0.121929
	C178	C	0.405831	0.808773	0.122495
	C179	C	0.626550	0.806586	0.876725
	C180	C	0.405549	0.866944	0.179927
	C181	C	0.627384	0.109916	0.179338
	C182	C	0.407347	0.112396	0.818701
	C183	C	0.627337	0.865433	0.820247
	C184	C	0.895922	0.167147	0.390951
	C185	C	0.141112	0.169966	0.611540
	C186	C	0.139588	0.807316	0.393184
	C187	C	0.890971	0.805772	0.611991
	C188	C	0.197335	0.377614	0.878762
	C189	C	0.198014	0.597909	0.124245
	C190	C	0.836180	0.380081	0.123870
	C191	C	0.835169	0.597850	0.876789
	C192	C	0.421721	0.078444	0.597307
	C193	C	0.612282	0.898752	0.597188
	C194	C	0.614639	0.080051	0.402466
	C195	C	0.419383	0.897452	0.403525
	C196	C	0.612787	0.392094	0.090944
	C197	C	0.612317	0.585457	0.909513
	C198	C	0.419791	0.586424	0.090974
	C199	C	0.420922	0.391569	0.908877
	C200	C	0.108735	0.585331	0.405556
	C201	C	0.926587	0.583691	0.597056
	C202	C	0.107898	0.391752	0.597789
	C203	C	0.924799	0.390867	0.404244
	C204	C	0.919175	0.580607	0.099379
	C205	C	0.114744	0.397351	0.099117
	C206	C	0.112055	0.577181	0.905794
	C207	C	0.920988	0.398605	0.905624
	C208	C	0.112424	0.892385	0.593407
	C209	C	0.113773	0.086202	0.410887
	C210	C	0.920169	0.085347	0.593006
	C211	C	0.920792	0.890792	0.412311
	C212	C	0.607431	0.083668	0.905718
	C213	C	0.424673	0.086175	0.097348
	C214	C	0.608161	0.890523	0.097619
	C215	C	0.426291	0.893148	0.905281
	Zn216	Zn	0.517157	-0.011624	0.751424
	Zn217	Zn	0.516526	-0.011538	0.249881
	Zn218	Zn	0.766450	0.489454	0.000848
	Zn219	Zn	0.267010	0.488209	0.000442
	Zn220	Zn	0.016975	0.737756	0.503378
	Zn221	Zn	0.016755	0.238610	0.501916
	Zn222	Zn	0.017114	0.487754	0.751317
	Zn223	Zn	0.017211	0.488127	0.252432
	Zn224	Zn	0.516011	0.738791	-0.000325
	Zn225	Zn	0.517280	0.238454	-0.000446
	Zn226	Zn	0.766873	-0.011439	0.501671
	Zn227	Zn	0.266688	-0.011369	0.501957
	N228	N	0.430062	0.953491	0.681568
	N229	N	0.604194	0.023577	0.681514
	N230	N	0.603724	0.953653	0.320387
	N231	N	0.429853	0.023228	0.320888
	N232	N	0.697091	0.402012	0.965334
	N233	N	0.694820	0.574682	0.036339
	N234	N	0.336871	0.574588	0.964357
	N235	N	0.339484	0.403672	0.036289
	N236	N	0.981633	0.667399	0.416831
	N237	N	0.052014	0.668653	0.590292
	N238	N	0.981791	0.307950	0.588642
	N239	N	0.051611	0.308144	0.414775
	N240	N	0.981775	0.400838	0.681782
	N241	N	0.052625	0.573925	0.681351
	N242	N	0.981786	0.574894	0.322569
	N243	N	0.052175	0.401861	0.322292
	N244	N	0.427322	0.670417	0.965469
	N245	N	0.602249	0.668578	0.035654
	N246	N	0.605784	0.306808	0.965996
	N247	N	0.431278	0.308862	0.035107
	N248	N	0.696909	0.953539	0.414398
	N249	N	0.695640	0.024442	0.586640
	N250	N	0.337076	0.953277	0.588201
	N251	N	0.337381	0.023977	0.415410
	N252	N	0.930616	0.454191	0.181134
	N253	N	0.104725	0.523069	0.182468
	N254	N	0.103137	0.451846	0.821712
	N255	N	0.928557	0.522612	0.819732
	N256	N	0.195574	0.902693	0.466873
	N257	N	0.196952	0.075260	0.537294
	N258	N	0.839178	0.072763	0.465422
	N259	N	0.835690	0.900754	0.537402
	N260	N	0.482009	0.168913	0.912929
	N261	N	0.551674	0.168413	0.086870
	N262	N	0.481285	0.808268	0.087289
	N263	N	0.551524	0.807521	0.912695
	N264	N	0.480845	0.902034	0.179875
	N265	N	0.552133	0.074454	0.179255
	N266	N	0.481501	0.074785	0.821298
	N267	N	0.552750	0.902444	0.821758
	N268	N	0.930295	0.168095	0.466547
	N269	N	0.104871	0.169658	0.536763
	N270	N	0.103596	0.808065	0.467957
	N271	N	0.928676	0.806927	0.538161
	N272	N	0.196147	0.451783	0.915129
	N273	N	0.197386	0.523402	0.088201
	N274	N	0.836251	0.454726	0.088532
	N275	N	0.836783	0.524067	0.914365
	O276	O	1.447073	1.360202	-0.328938
	H277	H	1.435573	1.371379	-0.340319
	H278	H	1.449945	1.373053	-0.323880
	O279	O	0.202870	-0.015488	1.213676
	H280	H	0.220530	-0.017289	1.235563
	H281	H	0.201111	0.011636	1.197486
	O282	O	0.409499	0.436570	0.361205
	H283	H	0.413238	0.444702	0.363312
	H284	H	0.413801	0.441113	0.358009
	O285	O	0.451132	1.694787	0.585108
	H286	H	0.439717	1.696932	0.605555
	H287	H	0.444731	1.690692	0.598674
	O288	O	0.926830	-0.239161	0.999073
	H289	H	0.909166	-0.245636	1.006759
	H290	H	0.925765	-0.245129	0.992931
	O291	O	0.808062	1.025090	0.789851
	H292	H	0.802906	1.009131	0.787030
	H293	H	0.800396	1.010275	0.791047
	O294	O	-0.185254	-0.086576	-0.061843
	H295	H	-0.188944	-0.099831	-0.041200
	H296	H	-0.185919	-0.095298	-0.040817
	O297	O	0.863595	0.091225	0.022206
	H298	H	0.864916	0.074929	0.011842
	H299	H	0.851148	0.088287	0.026733
	O300	O	-0.058509	-0.024251	0.158346
	H301	H	-0.053279	-0.034294	0.137009
	H302	H	-0.062705	-0.042412	0.167124
	O303	O	-0.446564	0.506302	-0.715091
	H304	H	-0.444847	0.487642	-0.711615
	H305	H	-0.439896	0.506074	-0.716880
	O306	O	0.806880	-0.225377	0.211716
	H307	H	0.856013	-0.225630	0.220339
	H308	H	0.779591	-0.258770	0.246944
	O309	O	0.013610	0.843703	0.813456
	H310	H	0.029734	0.852165	0.824484
	H311	H	0.011080	0.848598	0.802813
	O312	O	0.707099	0.667226	0.697002
	H313	H	0.723424	0.674172	0.657615
	H314	H	0.726587	0.655251	0.708271
	O315	O	0.225095	0.196504	0.205393
	H316	H	0.216281	0.214223	0.227849
	H317	H	0.209903	0.207298	0.224858
	O318	O	0.796383	0.831524	0.088736
	H319	H	0.782743	0.805286	0.099814
	H320	H	0.790643	0.824825	0.122311
	O321	O	0.112349	1.089663	0.797430
	H322	H	0.107845	1.090156	0.807550
	H323	H	0.096954	1.095731	0.790918
	O324	O	1.213106	-0.205839	0.827495
	H325	H	1.201766	-0.188838	0.822840
	H326	H	1.222652	-0.205348	0.836558
	O327	O	0.323893	0.567351	0.594722
	H328	H	0.330427	0.566454	0.601532
	H329	H	0.332619	0.580679	0.588839
	O330	O	-0.177800	1.187933	-0.178406
	H331	H	-0.193782	1.205496	-0.204580
	H332	H	-0.183139	1.146640	-0.188488
	O333	O	0.027917	-0.065627	0.093919
	H334	H	0.026690	-0.056951	0.094080
	H335	H	0.021113	-0.060202	0.088171
	O336	O	-0.040301	1.153899	1.124590
	H337	H	-0.025730	1.150180	1.093045
	H338	H	-0.057743	1.138763	1.114049
	O339	O	0.395224	0.393178	0.526207
	H340	H	0.398528	0.402342	0.531268
	H341	H	0.393298	0.392900	0.541102
	O342	O	0.029157	0.859531	-0.174624
	H343	H	0.050854	0.857333	-0.177520
	H344	H	0.033918	0.861035	-0.171280
	O345	O	0.302030	0.522633	0.287824
	H346	H	0.299729	0.517307	0.297678
	H347	H	0.290511	0.523735	0.271716
	O348	O	-0.175520	1.184798	0.980676
	H349	H	-0.189625	1.186210	0.955569
	H350	H	-0.186357	1.179763	0.959047
	O351	O	0.309355	0.693673	1.390619
	H352	H	0.310981	0.670847	1.375348
	H353	H	0.286069	0.718701	1.377229
	O354	O	1.110041	0.007713	0.983115
	H355	H	1.116595	0.022471	0.984006
	H356	H	1.107588	-0.007360	0.976526
	O357	O	0.732896	0.453605	0.286167
	H358	H	0.750941	0.452871	0.265182
	H359	H	0.733623	0.442033	0.290507
	O360	O	0.417840	0.359374	0.717042
	H361	H	0.418685	0.347031	0.725473
	H362	H	0.419874	0.370307	0.721129
	O363	O	0.656050	0.576664	0.454709
	H364	H	0.634317	0.560198	0.449607
	H365	H	0.658431	0.571526	0.470018
	O366	O	0.371425	0.460332	0.596773
	H367	H	0.357403	0.458170	0.613027
	H368	H	0.365731	0.453909	0.598892
	O369	O	-0.202830	-0.031089	1.157432
	H370	H	-0.203740	-0.050136	1.172200
	H371	H	-0.211949	-0.034329	1.169888
	O372	O	0.013613	0.772185	1.164633
	H373	H	0.021125	0.772005	1.166170
	H374	H	0.025973	0.758162	1.145423
	O375	O	0.902995	-0.159140	-0.199899
	H376	H	0.907593	-0.154551	-0.186840
	H377	H	0.915321	-0.155146	-0.200260
	O378	O	0.511075	0.407195	0.698627
	H379	H	0.518774	0.414945	0.696949
	H380	H	0.503005	0.394781	0.691794
	O381	O	-0.277504	1.279849	-0.703540
	H382	H	-0.246156	1.248953	-0.738874
	H383	H	-0.306943	1.297373	-0.713271
	O384	O	0.556737	0.703761	0.716242
	H385	H	0.575710	0.717516	0.738380
	H386	H	0.583203	0.707181	0.715399
	O387	O	0.541899	1.464864	1.522490
	H388	H	0.542610	1.458895	1.547526
	H389	H	0.528393	1.453651	1.526859
	O390	O	-0.775004	0.962769	0.794914
	H391	H	-0.766147	0.962138	0.790683
	H392	H	-0.779366	0.971072	0.796293
	O393	O	0.990101	0.201161	-0.213476
	H394	H	0.974150	0.208130	-0.209408
	H395	H	0.984965	0.218670	-0.222201
	O396	O	0.649058	0.291087	0.610948
	H397	H	0.650229	0.298682	0.593905
	H398	H	0.648353	0.291484	0.607587
	O399	O	0.531262	0.284491	0.334091
	H400	H	0.513746	0.277019	0.332877
	H401	H	0.529747	0.275811	0.344437
	O402	O	1.016371	-0.024893	1.060152
	H403	H	1.030654	-0.031639	1.050675
	H404	H	1.030197	-0.014450	1.072511
	O405	O	0.209316	-0.162418	-0.017479
	H406	H	0.211372	-0.159823	-0.018051
	H407	H	0.220210	-0.160994	-0.023482
	O408	O	1.164622	0.948950	1.060454
	H409	H	1.169686	0.972758	1.070479
	H410	H	1.166803	0.950106	1.047332
	O411	O	1.307060	0.379924	-0.493156
	H412	H	1.305019	0.376169	-0.478283
	H413	H	1.294246	0.389915	-0.497276
	O414	O	0.525078	-0.580322	0.549868
	H415	H	0.522197	-0.572936	0.555950
	H416	H	0.524289	-0.595828	0.551057
	O417	O	0.410706	-0.384429	0.708954
	H418	H	0.432955	-0.375002	0.716088
	H419	H	0.424775	-0.402612	0.700978
	O420	O	1.240112	0.210255	1.040888
	H421	H	1.256257	0.226708	1.061510
	H422	H	1.251286	0.219154	1.073945
	O423	O	1.174434	1.018368	0.061309
	H424	H	1.173542	1.030748	0.066698
	H425	H	1.169931	1.034960	0.058106
	O426	O	0.380294	0.723374	0.271232
	H427	H	0.355909	0.723988	0.262200
	H428	H	0.373907	0.740634	0.249652
	O429	O	0.739062	0.264328	0.467189
	H430	H	0.745721	0.261564	0.433156
	H431	H	0.759267	0.244456	0.447729
	O432	O	1.093072	0.023485	0.967161
	H433	H	1.084121	0.028625	0.958407
	H434	H	1.092589	0.041110	0.959358
	O435	O	0.496307	0.692632	0.416191
	H436	H	0.483009	0.702511	0.407009
	H437	H	0.469377	0.697706	0.425595
	O438	O	0.391003	0.699770	0.382336
	H439	H	0.384461	0.696275	0.367883
	H440	H	0.387382	0.705159	0.359594
	O441	O	1.053660	0.876837	0.049487
	H442	H	1.050991	0.875854	0.046168
	H443	H	1.062361	0.889096	0.060478
	O444	O	0.312161	0.386642	0.484628
	H445	H	0.307936	0.396339	0.503532
	H446	H	0.306819	0.393333	0.493651
	O447	O	0.116598	0.130651	0.859944
	H448	H	0.117623	0.129475	0.873750
	H449	H	0.109308	0.132219	0.850733
	O450	O	0.524017	0.342474	0.375468
	H451	H	0.534836	0.343920	0.369537
	H452	H	0.545744	0.344473	0.382669
	O453	O	0.700281	0.373887	0.619821
	H454	H	0.684900	0.388026	0.615828
	H455	H	0.705575	0.394250	0.604191
	O456	O	0.723268	1.492636	0.711063
	H457	H	0.740445	1.500261	0.725247
	H458	H	0.720345	1.497823	0.700702
	O459	O	0.682079	0.469843	0.528929
	H460	H	0.689401	0.476190	0.507208
	H461	H	0.689199	0.466613	0.532747
	O462	O	0.699928	0.674512	0.316279
	H463	H	0.693635	0.647172	0.337684
	H464	H	0.670617	0.666946	0.334084
	O465	O	0.391047	0.294527	0.362690
	H466	H	0.405277	0.303930	0.374191
	H467	H	0.397553	0.302128	0.383261
	O468	O	0.143971	0.867180	0.198603
	H469	H	0.137621	0.880624	0.192666
	H470	H	0.135045	0.889565	0.184827
	O471	O	0.724280	0.693494	0.528389
	H472	H	0.717584	0.692826	0.519081
	H473	H	0.713683	0.713179	0.513423
	O474	O	1.055021	1.202042	0.211446
	H475	H	1.033120	1.209109	0.206376
	H476	H	1.036937	1.206629	0.209834
	O477	O	-0.174877	0.182532	1.190394
	H478	H	-0.153600	0.171949	1.166517
	H479	H	-0.159308	0.157101	1.175597
