data_Molecule from HDF5

_cell_length_a		16.417836
_cell_length_b		16.314235
_cell_length_c		16.403290
_cell_angle_alpha	89.867717
_cell_angle_beta	89.741869
_cell_angle_gamma	90.240958
_symmetry_space_group_name_H-M	'P 1'
_symmetry_Int_Tables_number		1

loop_
	_symmetry_equiv_pos_as_xyz
	x,y,z

loop_
	_atom_site_label
	_atom_site_type_symbol
	_atom_site_fract_x
	_atom_site_fract_y
	_atom_site_fract_z
	H0	H	0.396836	0.849978	0.723347
	H1	H	0.610520	0.169525	0.721859
	H2	H	0.609204	0.849441	0.280376
	H3	H	0.400719	0.168176	0.281170
	H4	H	0.726602	0.403243	0.843755
	H5	H	0.725554	0.616274	0.160530
	H6	H	0.283598	0.614259	0.842155
	H7	H	0.280937	0.403215	0.160715
	H8	H	0.845921	0.732018	0.396135
	H9	H	0.164760	0.729759	0.602017
	H10	H	0.845384	0.288158	0.605772
	H11	H	0.163405	0.291282	0.394723
	H12	H	0.845826	0.401856	0.723642
	H13	H	0.164021	0.614926	0.720701
	H14	H	0.845226	0.617321	0.279763
	H15	H	0.162775	0.408413	0.279833
	H16	H	0.398991	0.731016	0.843422
	H17	H	0.607468	0.729997	0.161488
	H18	H	0.608665	0.288521	0.842865
	H19	H	0.398996	0.288977	0.161706
	H20	H	0.725177	0.850023	0.395194
	H21	H	0.725568	0.169499	0.605424
	H22	H	0.281950	0.850827	0.606658
	H23	H	0.286819	0.169669	0.397116
	H24	H	0.898057	0.350364	0.222892
	H25	H	0.107076	0.671000	0.218263
	H26	H	0.107465	0.348755	0.781609
	H27	H	0.900356	0.669337	0.781242
	H28	H	0.225046	0.907932	0.340746
	H29	H	0.227355	0.118065	0.659353
	H30	H	0.784081	0.116329	0.341799
	H31	H	0.783493	0.904420	0.659786
	H32	H	0.343496	0.228672	0.898944
	H33	H	0.662590	0.228004	0.103171
	H34	H	0.343305	0.788479	0.106993
	H35	H	0.663065	0.789961	0.898873
	H36	H	0.344118	0.903202	0.224322
	H37	H	0.663147	0.112507	0.220192
	H38	H	0.345480	0.115585	0.780116
	H39	H	0.662609	0.903680	0.779914
	H40	H	0.902510	0.229936	0.341147
	H41	H	0.109528	0.232307	0.659716
	H42	H	0.109781	0.791757	0.340937
	H43	H	0.902870	0.790503	0.660408
	H44	H	0.221693	0.348012	0.898408
	H45	H	0.224058	0.668663	0.104909
	H46	H	0.782430	0.349426	0.108200
	H47	H	0.783564	0.668563	0.896638
	H48	H	0.419748	0.125398	0.597113
	H49	H	0.590265	0.897224	0.588267
	H50	H	0.596144	0.123972	0.409225
	H51	H	0.408532	0.892666	0.412858
	H52	H	0.592915	0.415391	0.116829
	H53	H	0.597924	0.589479	0.891203
	H54	H	0.407822	0.598208	0.117429
	H55	H	0.409799	0.421145	0.888030
	H56	H	0.118155	0.605290	0.413709
	H57	H	0.891495	0.599772	0.589872
	H58	H	0.117261	0.418125	0.587991
	H59	H	0.891560	0.420133	0.415515
	H60	H	0.115436	0.425047	0.588323
	H61	H	0.891735	0.597876	0.591632
	H62	H	0.114979	0.594683	0.411102
	H63	H	0.891260	0.422482	0.411856
	H64	H	0.413208	0.591834	0.113652
	H65	H	0.583791	0.597985	0.891841
	H66	H	0.595685	0.421920	0.116267
	H67	H	0.416276	0.420042	0.889379
	H68	H	0.591753	0.123381	0.410440
	H69	H	0.595698	0.895451	0.589787
	H70	H	0.419766	0.120481	0.585104
	H71	H	0.418732	0.894747	0.408941
	H72	H	0.920380	0.621847	0.089216
	H73	H	0.094743	0.393189	0.090773
	H74	H	0.096102	0.625098	0.907125
	H75	H	0.910336	0.392887	0.910473
	H76	H	0.097171	0.923558	0.614465
	H77	H	0.103626	0.098471	0.385864
	H78	H	0.912541	0.092774	0.612771
	H79	H	0.915715	0.919691	0.386528
	H80	H	0.618204	0.100603	0.910779
	H81	H	0.390268	0.095801	0.091387
	H82	H	0.617944	0.912609	0.087619
	H83	H	0.390935	0.923306	0.913011
	H84	H	0.613263	0.925964	0.087295
	H85	H	0.388321	0.096818	0.095884
	H86	H	0.616048	0.099248	0.914971
	H87	H	0.389600	0.918615	0.910583
	H88	H	0.920099	0.098423	0.612106
	H89	H	0.091422	0.094824	0.389970
	H90	H	0.090656	0.922469	0.611660
	H91	H	0.912255	0.920968	0.385773
	H92	H	0.089561	0.622826	0.910394
	H93	H	0.090003	0.394504	0.094393
	H94	H	0.909483	0.623824	0.085208
	H95	H	0.920502	0.396577	0.910969
	H96	H	0.409170	0.125948	0.590233
	H97	H	0.591164	0.894980	0.593598
	H98	H	0.595149	0.123244	0.413387
	H99	H	0.416362	0.896949	0.419988
	H100	H	0.589214	0.420399	0.114409
	H101	H	0.597588	0.604960	0.885316
	H102	H	0.416776	0.600705	0.114802
	H103	H	0.411942	0.415052	0.885804
	H104	H	0.120338	0.600988	0.403172
	H105	H	0.890439	0.600326	0.592414
	H106	H	0.118917	0.422013	0.593724
	H107	H	0.890294	0.418394	0.411746
	H108	H	0.912220	0.626816	0.096104
	H109	H	0.089901	0.397382	0.088595
	H110	H	0.096385	0.623405	0.914331
	H111	H	0.913904	0.397292	0.919413
	H112	H	0.093663	0.917690	0.615977
	H113	H	0.093920	0.106767	0.385921
	H114	H	0.912448	0.101516	0.616112
	H115	H	0.914829	0.923101	0.387250
	H116	H	0.616285	0.096061	0.911072
	H117	H	0.388751	0.099864	0.092548
	H118	H	0.618815	0.920953	0.099063
	H119	H	0.390878	0.919273	0.915586
	C120	C	0.382548	0.018493	0.623539
	C121	C	0.625408	1.001211	0.622663
	C122	C	0.625790	0.017887	0.379644
	C123	C	0.383815	1.000529	0.381448
	C124	C	0.624932	0.387689	0.010471
	C125	C	0.624880	0.630166	0.994311
	C126	C	0.381460	0.629928	0.010138
	C127	C	0.380845	0.386800	0.993108
	C128	C	0.012650	0.632399	0.378314
	C129	C	0.996552	0.631254	0.622385
	C130	C	0.012742	0.388282	0.622417
	C131	C	0.995568	0.389087	0.379602
	C132	C	0.881840	0.518647	0.123327
	C133	C	0.123611	0.501153	0.122204
	C134	C	0.125212	0.517596	0.879219
	C135	C	0.882798	0.500724	0.880995
	C136	C	0.126102	0.889760	0.508808
	C137	C	0.127615	0.132630	0.492468
	C138	C	0.883656	0.130420	0.508923
	C139	C	0.882506	0.888453	0.491579
	C140	C	0.511959	0.130658	0.880327
	C141	C	0.494383	0.129786	0.123999
	C142	C	0.511658	0.887075	0.124286
	C143	C	0.495258	0.888215	0.880791
	C144	C	0.378751	0.898538	0.683862
	C145	C	0.628568	0.121348	0.682271
	C146	C	0.627169	0.897392	0.320415
	C147	C	0.382085	0.120723	0.321170
	C148	C	0.685977	0.385096	0.891301
	C149	C	0.685025	0.633375	0.113219
	C150	C	0.323032	0.632601	0.890147
	C151	C	0.321016	0.384910	0.113031
	C152	C	0.893459	0.692361	0.377306
	C153	C	0.116747	0.690474	0.621998
	C154	C	0.893328	0.327454	0.624728
	C155	C	0.115521	0.330533	0.376769
	C156	C	0.893414	0.384509	0.683100
	C157	C	0.116023	0.633490	0.681347
	C158	C	0.892986	0.634960	0.319586
	C159	C	0.115045	0.388532	0.319080
	C160	C	0.380675	0.690770	0.890856
	C161	C	0.626353	0.690251	0.113778
	C162	C	0.627036	0.327975	0.890748
	C163	C	0.379597	0.328007	0.113670
	C164	C	0.685130	0.897714	0.377726
	C165	C	0.686028	0.121253	0.624309
	C166	C	0.321707	0.898734	0.625555
	C167	C	0.325836	0.121470	0.379153
	C168	C	0.879390	0.398359	0.183493
	C169	C	0.125350	0.622255	0.179812
	C170	C	0.126206	0.396796	0.820736
	C171	C	0.881397	0.621062	0.820827
	C172	C	0.185768	0.888908	0.388867
	C173	C	0.187352	0.135858	0.611606
	C174	C	0.824403	0.133652	0.389273
	C175	C	0.822902	0.885868	0.611782
	C176	C	0.391721	0.189584	0.879313
	C177	C	0.614842	0.188705	0.123117
	C178	C	0.391300	0.827854	0.125729
	C179	C	0.615209	0.829265	0.879586
	C180	C	0.391744	0.884815	0.184326
	C181	C	0.615197	0.131074	0.181121
	C182	C	0.392566	0.133078	0.820370
	C183	C	0.614946	0.885722	0.820319
	C184	C	0.883524	0.190241	0.389052
	C185	C	0.128587	0.192716	0.611821
	C186	C	0.128272	0.831034	0.388747
	C187	C	0.882476	0.829543	0.612225
	C188	C	0.182981	0.396436	0.878906
	C189	C	0.183906	0.621073	0.123549
	C190	C	0.821724	0.398038	0.126500
	C191	C	0.823159	0.620732	0.878329
	C192	C	0.408793	0.102220	0.598276
	C193	C	0.599830	0.917783	0.597685
	C194	C	0.601307	0.101747	0.404143
	C195	C	0.407696	0.916703	0.406625
	C196	C	0.599869	0.412131	0.094008
	C197	C	0.600149	0.604903	0.911029
	C198	C	0.405537	0.604277	0.093480
	C199	C	0.405446	0.411352	0.909448
	C200	C	0.095963	0.607606	0.402435
	C201	C	0.912887	0.606431	0.598268
	C202	C	0.095634	0.414131	0.597223
	C203	C	0.912504	0.413572	0.405501
	C204	C	0.906825	0.602296	0.097745
	C205	C	0.098666	0.416919	0.098194
	C206	C	0.101016	0.601759	0.903500
	C207	C	0.907917	0.417238	0.906219
	C208	C	0.100908	0.914203	0.592304
	C209	C	0.103319	0.107310	0.408842
	C210	C	0.907998	0.104929	0.592129
	C211	C	0.907054	0.913599	0.408193
	C212	C	0.594888	0.105952	0.905022
	C213	C	0.410951	0.104766	0.100207
	C214	C	0.594954	0.912459	0.098648
	C215	C	0.412118	0.913306	0.905725
	Zn216	Zn	0.504208	0.009694	0.751362
	Zn217	Zn	0.503161	0.008529	0.252746
	Zn218	Zn	0.754214	0.509214	0.002701
	Zn219	Zn	0.252590	0.508524	0.001515
	Zn220	Zn	0.005290	0.760593	0.499949
	Zn221	Zn	0.005035	0.259945	0.500713
	Zn222	Zn	0.004139	0.509233	0.751305
	Zn223	Zn	0.003020	0.510576	0.250567
	Zn224	Zn	0.503501	0.758918	0.002526
	Zn225	Zn	0.502749	0.258692	0.002438
	Zn226	Zn	0.753673	0.009731	0.500233
	Zn227	Zn	0.255284	0.010317	0.500811
	N228	N	0.415955	0.974145	0.682563
	N229	N	0.591388	0.045799	0.681298
	N230	N	0.591108	0.973254	0.321262
	N231	N	0.417671	0.044641	0.322633
	N232	N	0.684901	0.421231	0.966900
	N233	N	0.683751	0.596417	0.038045
	N234	N	0.323479	0.595367	0.965250
	N235	N	0.321673	0.420682	0.037032
	N236	N	0.968793	0.690845	0.413399
	N237	N	0.041166	0.689439	0.586046
	N238	N	0.968473	0.329659	0.587792
	N239	N	0.040187	0.330754	0.413856
	N240	N	0.968755	0.421558	0.682053
	N241	N	0.040311	0.597450	0.681514
	N242	N	0.968069	0.598292	0.320130
	N243	N	0.039483	0.424227	0.320784
	N244	N	0.416163	0.689299	0.966463
	N245	N	0.589442	0.688307	0.038697
	N246	N	0.589684	0.329507	0.965941
	N247	N	0.416118	0.329066	0.038163
	N248	N	0.684158	0.973593	0.413818
	N249	N	0.684467	0.045337	0.588082
	N250	N	0.323759	0.974654	0.588968
	N251	N	0.327073	0.045892	0.416119
	N252	N	0.915919	0.474241	0.181747
	N253	N	0.088501	0.546424	0.179042
	N254	N	0.091213	0.473237	0.820780
	N255	N	0.917583	0.545255	0.822026
	N256	N	0.184589	0.924536	0.464733
	N257	N	0.186913	0.099358	0.536153
	N258	N	0.824451	0.096905	0.464661
	N259	N	0.822609	0.921338	0.535775
	N260	N	0.467000	0.188704	0.915613
	N261	N	0.538728	0.188282	0.088495
	N262	N	0.467002	0.829034	0.089314
	N263	N	0.539830	0.830433	0.916274
	N264	N	0.467701	0.920555	0.183906
	N265	N	0.539396	0.095160	0.181706
	N266	N	0.468203	0.097292	0.820747
	N267	N	0.539290	0.921601	0.820889
	N268	N	0.919691	0.188406	0.464518
	N269	N	0.092124	0.190640	0.536611
	N270	N	0.091929	0.831207	0.464432
	N271	N	0.918546	0.830625	0.536456
	N272	N	0.182898	0.472778	0.914314
	N273	N	0.182845	0.544908	0.088143
	N274	N	0.823056	0.473963	0.089997
	N275	N	0.823626	0.544791	0.914712
	O276	O	0.885609	0.024967	1.068315
	H277	H	0.879364	0.013165	1.065722
	H278	H	0.894661	0.031313	1.070082
	O279	O	0.687759	0.681666	0.688754
	H280	H	0.694442	0.645225	0.685031
	H281	H	0.700620	0.682801	0.662665
	O282	O	0.520012	0.295419	0.339969
	H283	H	0.548715	0.287325	0.335977
	H284	H	0.544352	0.287470	0.333295
	O285	O	1.092489	0.059884	0.151818
	H286	H	1.090029	0.046557	0.158743
	H287	H	1.099634	0.078142	0.155189
	O288	O	0.056954	-0.184551	0.914611
	H289	H	0.051517	-0.183744	0.918643
	H290	H	0.052357	-0.179690	0.925955
	O291	O	0.562590	0.661285	0.647667
	H292	H	0.570198	0.688202	0.671994
	H293	H	0.589895	0.654927	0.638549
	O294	O	0.487295	0.310327	0.705890
	H295	H	0.467016	0.315557	0.704213
	H296	H	0.476103	0.291733	0.723176
	O297	O	0.857845	1.059315	1.158693
	H298	H	0.862677	1.074762	1.154264
	H299	H	0.867743	1.073920	1.148570
	O300	O	0.044635	-0.049719	0.136925
	H301	H	0.046506	-0.057105	0.138874
	H302	H	0.043471	-0.051688	0.143239
	O303	O	0.510492	0.477941	0.686195
	H304	H	0.492262	0.491280	0.674903
	H305	H	0.514134	0.465448	0.690095
	O306	O	1.160892	0.034346	0.058302
	H307	H	1.152998	0.036059	0.051797
	H308	H	1.176932	0.038892	0.070287
	O309	O	0.444082	0.620780	0.677066
	H310	H	0.434091	0.629898	0.672931
	H311	H	0.452420	0.638370	0.673390
	O312	O	1.083011	1.179913	0.041703
	H313	H	1.074341	1.185006	0.033623
	H314	H	1.092220	1.168974	0.045863
	O315	O	0.640191	0.578646	0.463557
	H316	H	0.646845	0.592765	0.464981
	H317	H	0.625956	0.589893	0.484269
	O318	O	0.318785	0.605997	0.433972
	H319	H	0.330815	0.585765	0.432610
	H320	H	0.309102	0.580901	0.416293
	O321	O	1.002448	0.188134	1.052323
	H322	H	0.994651	0.178506	1.043865
	H323	H	1.005474	0.181421	1.048733
	O324	O	-0.122060	0.191382	0.880588
	H325	H	-0.092240	0.199316	0.867706
	H326	H	-0.122319	0.165306	0.883749
	O327	O	0.501209	0.501372	0.480168
	H328	H	0.509547	0.505883	0.479320
	H329	H	0.489767	0.487688	0.473189
	O330	O	0.685058	0.322621	0.325714
	H331	H	0.695833	0.341481	0.347808
	H332	H	0.699961	0.337338	0.341256
	O333	O	0.418834	0.636742	0.445450
	H334	H	0.408569	0.634314	0.449548
	H335	H	0.410632	0.619071	0.466951
	O336	O	0.335979	0.339920	0.440560
	H337	H	0.327975	0.310728	0.444146
	H338	H	0.372629	0.337173	0.435163
	O339	O	1.188238	-0.091536	0.823655
	H340	H	1.187224	-0.090752	0.803881
	H341	H	1.172572	-0.090709	0.834915
	O342	O	-0.397701	0.445916	0.534346
	H343	H	-0.391084	0.435861	0.529885
	H344	H	-0.405532	0.456685	0.533780
	O345	O	-0.071010	0.925860	0.921532
	H346	H	-0.060026	0.914163	0.935017
	H347	H	-0.071176	0.925100	0.904517
	O348	O	-0.379600	0.605947	-0.626038
	H349	H	-0.386540	0.601900	-0.623699
	H350	H	-0.399428	0.620186	-0.646464
	O351	O	0.066851	-0.044107	-0.044373
	H352	H	0.071833	-0.034366	-0.041250
	H353	H	0.055871	-0.045883	-0.034640
	O354	O	1.615584	1.471746	0.538815
	H355	H	1.604408	1.459205	0.536143
	H356	H	1.613369	1.481863	0.534171
	O357	O	-0.152463	0.940263	0.201451
	H358	H	-0.175555	0.942368	0.220763
	H359	H	-0.156158	0.952741	0.192752
	O360	O	0.492118	0.706287	0.318950
	H361	H	0.473864	0.697046	0.338626
	H362	H	0.489230	0.732361	0.303262
	O363	O	0.713835	0.720381	0.534911
	H364	H	0.740802	0.740073	0.526266
	H365	H	0.702579	0.716962	0.530161
	O366	O	0.329854	0.343362	0.666718
	H367	H	0.326767	0.339164	0.616602
	H368	H	0.330013	0.369428	0.679483
	O369	O	0.517259	0.336454	0.534039
	H370	H	0.511129	0.331878	0.529333
	H371	H	0.519489	0.359503	0.528791
	O372	O	0.709617	0.418954	0.361333
	H373	H	0.694825	0.437987	0.380610
	H374	H	0.737621	0.419998	0.348273
	O375	O	0.516760	0.541865	0.347033
	H376	H	0.515190	0.548987	0.332751
	H377	H	0.524424	0.540105	0.374166
	O378	O	0.318942	0.426800	0.480095
	H379	H	0.317634	0.409884	0.478511
	H380	H	0.333723	0.423177	0.483125
	O381	O	0.393404	0.578103	0.529769
	H382	H	0.381605	0.585920	0.525612
	H383	H	0.393417	0.579883	0.541473
	O384	O	-0.037086	0.843585	0.830314
	H385	H	-0.035450	0.861265	0.833753
	H386	H	-0.037557	0.838350	0.837730
	O387	O	0.933321	0.830354	0.139614
	H388	H	0.928888	0.834523	0.144102
	H389	H	0.934782	0.815844	0.148553
	O390	O	0.304123	0.468683	0.698218
	H391	H	0.281656	0.471867	0.726213
	H392	H	0.318387	0.472944	0.689520
	O393	O	1.124968	0.013014	0.793329
	H394	H	1.148476	0.005475	0.783191
	H395	H	1.120980	0.005664	0.797798
	O396	O	-0.032703	0.016167	-0.146410
	H397	H	-0.027193	0.016894	-0.145586
	H398	H	-0.025217	0.005399	-0.150594
	O399	O	0.676305	0.570883	0.708653
	H400	H	0.663387	0.559903	0.710495
	H401	H	0.696617	0.570084	0.726458
	O402	O	0.442860	0.646185	1.419626
	H403	H	0.438300	0.635116	1.423020
	H404	H	0.430614	0.642042	1.439134
	O405	O	0.035732	0.171229	0.013270
	H406	H	0.035197	0.172325	0.004266
	H407	H	0.036876	0.173624	0.009063
	O408	O	0.799956	1.141824	0.896748
	H409	H	0.779258	1.167394	0.889037
	H410	H	0.806943	1.141563	0.875462
	O411	O	0.819044	0.883076	0.115329
	H412	H	0.818232	0.914760	0.117746
	H413	H	0.818618	0.863502	0.100150
	O414	O	0.135907	0.113561	1.020667
	H415	H	0.128589	0.103302	1.033710
	H416	H	0.152841	0.129187	1.032115
	O417	O	1.097870	-0.084388	1.073027
	H418	H	1.110120	-0.085408	1.072098
	H419	H	1.084625	-0.084205	1.042344
	O420	O	0.110100	1.062449	-0.056624
	H421	H	0.108183	1.058303	-0.071603
	H422	H	0.103653	1.064374	-0.052219
	O423	O	0.977875	0.114809	-0.190019
	H424	H	0.981508	0.116515	-0.195020
	H425	H	0.991738	0.114472	-0.187729
	O426	O	-0.146036	-0.164573	0.993523
	H427	H	-0.140582	-0.171361	0.998808
	H428	H	-0.141515	-0.163518	0.995747
	O429	O	0.476293	0.456283	0.308153
	H430	H	0.499951	0.443201	0.310471
	H431	H	0.485127	0.454021	0.301591
