data_Molecule from HDF5

_cell_length_a		16.282620
_cell_length_b		16.282114
_cell_length_c		16.347876
_cell_angle_alpha	89.972215
_cell_angle_beta	90.053963
_cell_angle_gamma	90.205225
_symmetry_space_group_name_H-M	'P 1'
_symmetry_Int_Tables_number		1

loop_
	_symmetry_equiv_pos_as_xyz
	x,y,z

loop_
	_atom_site_label
	_atom_site_type_symbol
	_atom_site_fract_x
	_atom_site_fract_y
	_atom_site_fract_z
	H0	H	0.396017	0.844692	0.714188
	H1	H	0.594927	0.171698	0.714554
	H2	H	0.593451	0.844583	0.285252
	H3	H	0.397786	0.172009	0.284676
	H4	H	0.709723	0.411327	0.835886
	H5	H	0.712199	0.607348	0.163170
	H6	H	0.281790	0.606267	0.836153
	H7	H	0.282048	0.410528	0.163135
	H8	H	0.832364	0.722773	0.400486
	H9	H	0.160747	0.723936	0.598693
	H10	H	0.832450	0.294210	0.596424
	H11	H	0.160549	0.295972	0.402574
	H12	H	0.833344	0.408183	0.714635
	H13	H	0.160240	0.607905	0.715367
	H14	H	0.833003	0.607194	0.284152
	H15	H	0.160010	0.411190	0.284994
	H16	H	0.397667	0.722473	0.836675
	H17	H	0.595800	0.723156	0.163207
	H18	H	0.593806	0.293867	0.836619
	H19	H	0.398748	0.293633	0.162711
	H20	H	0.709410	0.844866	0.401256
	H21	H	0.711012	0.172236	0.597686
	H22	H	0.282164	0.844191	0.596112
	H23	H	0.282864	0.173010	0.402193
	H24	H	0.897661	0.344568	0.212901
	H25	H	0.094640	0.672321	0.213281
	H26	H	0.095761	0.344433	0.784708
	H27	H	0.898334	0.671959	0.784395
	H28	H	0.209699	0.912043	0.336132
	H29	H	0.210472	0.106142	0.662905
	H30	H	0.782381	0.105869	0.336045
	H31	H	0.780622	0.909144	0.662433
	H32	H	0.331936	0.221056	0.901870
	H33	H	0.659674	0.221788	0.097440
	H34	H	0.331529	0.795257	0.095661
	H35	H	0.660781	0.795627	0.902620
	H36	H	0.332506	0.909342	0.214104
	H37	H	0.658766	0.107116	0.214415
	H38	H	0.332044	0.105196	0.785722
	H39	H	0.659073	0.909694	0.783542
	H40	H	0.896958	0.223836	0.336276
	H41	H	0.094204	0.222974	0.662432
	H42	H	0.093165	0.795400	0.335764
	H43	H	0.898628	0.793796	0.662713
	H44	H	0.209374	0.344132	0.903257
	H45	H	0.211916	0.671924	0.097849
	H46	H	0.783331	0.344744	0.095724
	H47	H	0.783187	0.672676	0.901914
	H48	H	0.398414	0.128031	0.599043
	H49	H	0.586154	0.892324	0.592717
	H50	H	0.588519	0.126603	0.397401
	H51	H	0.415307	0.896335	0.406352
	H52	H	0.590940	0.414139	0.116345
	H53	H	0.588386	0.606021	0.884354
	H54	H	0.405928	0.605104	0.115450
	H55	H	0.403353	0.414090	0.883324
	H56	H	0.111969	0.598680	0.405082
	H57	H	0.879996	0.602043	0.593141
	H58	H	0.108948	0.425489	0.587114
	H59	H	0.877213	0.407214	0.404220
	H60	H	0.116823	0.416786	0.603804
	H61	H	0.881551	0.600434	0.590395
	H62	H	0.113931	0.604247	0.402928
	H63	H	0.882988	0.418451	0.412311
	H64	H	0.399325	0.602550	0.116879
	H65	H	0.593406	0.601272	0.883184
	H66	H	0.590657	0.415186	0.116575
	H67	H	0.402058	0.413714	0.883466
	H68	H	0.582396	0.121374	0.410175
	H69	H	0.586244	0.893877	0.589769
	H70	H	0.410455	0.123448	0.594896
	H71	H	0.393529	0.893295	0.417280
	H72	H	0.897951	0.626291	0.089614
	H73	H	0.091456	0.391094	0.093498
	H74	H	0.092520	0.626422	0.901440
	H75	H	0.906053	0.391301	0.902748
	H76	H	0.085687	0.909410	0.616839
	H77	H	0.091985	0.103372	0.382151
	H78	H	0.902668	0.103322	0.616062
	H79	H	0.902452	0.912624	0.383382
	H80	H	0.608411	0.091336	0.907457
	H81	H	0.380341	0.094547	0.094267
	H82	H	0.610065	0.921263	0.091094
	H83	H	0.377449	0.905464	0.906572
	H84	H	0.614842	0.915552	0.099472
	H85	H	0.376204	0.104780	0.097514
	H86	H	0.616869	0.104083	0.896544
	H87	H	0.383115	0.919168	0.913348
	H88	H	0.901224	0.101076	0.615159
	H89	H	0.089027	0.101886	0.383861
	H90	H	0.096414	0.916844	0.616893
	H91	H	0.900901	0.914733	0.382361
	H92	H	0.082303	0.622784	0.906856
	H93	H	0.089048	0.392101	0.094646
	H94	H	0.904655	0.627250	0.099568
	H95	H	0.902906	0.393486	0.909840
	H96	H	0.399515	0.124332	0.586341
	H97	H	0.589072	0.891916	0.590903
	H98	H	0.596704	0.126302	0.409817
	H99	H	0.396084	0.886519	0.393472
	H100	H	0.590238	0.414612	0.115417
	H101	H	0.586853	0.599166	0.885206
	H102	H	0.405006	0.597961	0.114322
	H103	H	0.402354	0.414932	0.883957
	H104	H	0.112734	0.603758	0.409094
	H105	H	0.881387	0.598504	0.593427
	H106	H	0.114402	0.406036	0.587590
	H107	H	0.879071	0.420503	0.398849
	H108	H	0.909802	0.621833	0.089511
	H109	H	0.089041	0.392167	0.092294
	H110	H	0.092711	0.622744	0.913320
	H111	H	0.898470	0.390117	0.903994
	H112	H	0.085384	0.921189	0.612878
	H113	H	0.088817	0.105157	0.383216
	H114	H	0.903508	0.101667	0.615375
	H115	H	0.903171	0.915182	0.384101
	H116	H	0.612052	0.108130	0.914135
	H117	H	0.379975	0.102784	0.087238
	H118	H	0.613228	0.910444	0.089772
	H119	H	0.378425	0.919196	0.897828
	C120	C	0.374211	0.016810	0.620900
	C121	C	0.616623	1.000385	0.620434
	C122	C	0.617243	0.016709	0.377812
	C123	C	0.373825	1.000341	0.377820
	C124	C	0.618394	0.386746	0.007969
	C125	C	0.618139	0.630376	0.992181
	C126	C	0.374836	0.629906	0.007749
	C127	C	0.374776	0.386420	0.991545
	C128	C	0.004648	0.630352	0.377560
	C129	C	0.988841	0.629662	0.621041
	C130	C	0.004711	0.387353	0.620613
	C131	C	0.988147	0.387643	0.377780
	C132	C	0.875585	0.516914	0.120564
	C133	C	0.118351	0.499756	0.121625
	C134	C	0.117723	0.515997	0.878577
	C135	C	0.874251	0.500065	0.877333
	C136	C	0.117325	0.887592	0.507557
	C137	C	0.118098	0.130990	0.491254
	C138	C	0.874708	0.130065	0.507241
	C139	C	0.873888	0.886048	0.491176
	C140	C	0.504316	0.129473	0.877937
	C141	C	0.487222	0.129456	0.121085
	C142	C	0.504290	0.886955	0.121302
	C143	C	0.488030	0.886693	0.877895
	C144	C	0.376359	0.893229	0.675633
	C145	C	0.615286	0.123205	0.676357
	C146	C	0.614432	0.893749	0.322691
	C147	C	0.377237	0.123411	0.323095
	C148	C	0.672342	0.390295	0.884867
	C149	C	0.673941	0.627557	0.114496
	C150	C	0.319504	0.626710	0.884988
	C151	C	0.320175	0.389865	0.114427
	C152	C	0.881205	0.684445	0.380674
	C153	C	0.111819	0.685825	0.618785
	C154	C	0.881566	0.331975	0.617651
	C155	C	0.111541	0.333286	0.381502
	C156	C	0.881954	0.388688	0.676320
	C157	C	0.111769	0.628437	0.676907
	C158	C	0.881513	0.627445	0.322425
	C159	C	0.111539	0.390600	0.323359
	C160	C	0.377460	0.684449	0.884938
	C161	C	0.616336	0.685424	0.114603
	C162	C	0.615112	0.331730	0.885296
	C163	C	0.378015	0.331897	0.114449
	C164	C	0.672186	0.893741	0.380091
	C165	C	0.672711	0.123447	0.618146
	C166	C	0.319620	0.893183	0.617272
	C167	C	0.320368	0.123958	0.381295
	C168	C	0.877791	0.393564	0.175015
	C169	C	0.115887	0.623435	0.175968
	C170	C	0.115591	0.393233	0.823044
	C171	C	0.877401	0.623201	0.822332
	C172	C	0.171490	0.891169	0.384461
	C173	C	0.172776	0.127325	0.614231
	C174	C	0.820009	0.126996	0.384661
	C175	C	0.818570	0.888616	0.613723
	C176	C	0.380903	0.183632	0.881193
	C177	C	0.610640	0.184229	0.118112
	C178	C	0.380631	0.832391	0.117196
	C179	C	0.611681	0.832773	0.881179
	C180	C	0.381270	0.888769	0.176066
	C181	C	0.610335	0.127239	0.176163
	C182	C	0.380943	0.126276	0.823283
	C183	C	0.610908	0.889455	0.822273
	C184	C	0.877468	0.185172	0.384644
	C185	C	0.115119	0.185265	0.614054
	C186	C	0.113992	0.832998	0.384539
	C187	C	0.876875	0.831162	0.613976
	C188	C	0.172311	0.393030	0.881710
	C189	C	0.173587	0.623294	0.118399
	C190	C	0.820936	0.393469	0.116897
	C191	C	0.820249	0.623473	0.880575
	C192	C	0.396331	0.103040	0.599760
	C193	C	0.593790	0.914784	0.597864
	C194	C	0.595785	0.102702	0.399566
	C195	C	0.395208	0.914207	0.399436
	C196	C	0.596894	0.408441	0.093918
	C197	C	0.595884	0.608601	0.906472
	C198	C	0.397054	0.608306	0.093397
	C199	C	0.396296	0.408012	0.905841
	C200	C	0.090540	0.608600	0.399291
	C201	C	0.903142	0.606973	0.598756
	C202	C	0.090955	0.409555	0.599203
	C203	C	0.902071	0.409126	0.398958
	C204	C	0.897711	0.602947	0.099226
	C205	C	0.096320	0.413882	0.099936
	C206	C	0.095516	0.601870	0.900730
	C207	C	0.896094	0.413913	0.899096
	C208	C	0.095543	0.909402	0.593280
	C209	C	0.096371	0.109697	0.405257
	C210	C	0.896352	0.108286	0.593341
	C211	C	0.895726	0.907747	0.405520
	C212	C	0.590152	0.107677	0.899729
	C213	C	0.401152	0.107339	0.099372
	C214	C	0.590522	0.909185	0.099727
	C215	C	0.402139	0.908218	0.899469
	Zn216	Zn	0.495655	0.008418	0.749292
	Zn217	Zn	0.495330	0.008506	0.249397
	Zn218	Zn	0.747094	0.508765	-0.000312
	Zn219	Zn	0.246047	0.508255	-0.000354
	Zn220	Zn	-0.003556	0.757982	0.499845
	Zn221	Zn	-0.003676	0.259098	0.499281
	Zn222	Zn	-0.002919	0.508540	0.749517
	Zn223	Zn	-0.003575	0.508707	0.249038
	Zn224	Zn	0.496300	0.758635	-0.000018
	Zn225	Zn	0.496088	0.257754	-0.000224
	Zn226	Zn	0.745665	0.008614	0.499118
	Zn227	Zn	0.246323	0.008827	0.499339
	N228	N	0.409858	0.971037	0.677998
	N229	N	0.581373	0.045712	0.677895
	N230	N	0.580796	0.971130	0.321109
	N231	N	0.409889	0.045560	0.320834
	N232	N	0.674344	0.423848	0.962104
	N233	N	0.675336	0.594225	0.037110
	N234	N	0.317839	0.593417	0.962390
	N235	N	0.318272	0.423292	0.037107
	N236	N	0.958752	0.686603	0.414041
	N237	N	0.034416	0.686657	0.584827
	N238	N	0.958715	0.331271	0.583727
	N239	N	0.033777	0.331395	0.414677
	N240	N	0.959589	0.422484	0.678294
	N241	N	0.034403	0.594245	0.678401
	N242	N	0.959247	0.594453	0.320395
	N243	N	0.033937	0.423682	0.320956
	N244	N	0.411268	0.686463	0.962071
	N245	N	0.582224	0.687279	0.037558
	N246	N	0.582142	0.329483	0.962816
	N247	N	0.411202	0.329638	0.037105
	N248	N	0.673988	0.971164	0.413698
	N249	N	0.673570	0.046075	0.583984
	N250	N	0.318303	0.970748	0.583998
	N251	N	0.318276	0.046364	0.414578
	N252	N	0.911182	0.471271	0.177254
	N253	N	0.082247	0.545876	0.177934
	N254	N	0.082216	0.470976	0.821209
	N255	N	0.910013	0.545271	0.819823
	N256	N	0.173862	0.924025	0.461922
	N257	N	0.174885	0.094440	0.536625
	N258	N	0.818367	0.093351	0.461779
	N259	N	0.816589	0.921989	0.536237
	N260	N	0.458508	0.185683	0.914489
	N261	N	0.533188	0.185564	0.084529
	N262	N	0.458350	0.831333	0.083847
	N263	N	0.534233	0.830869	0.914808
	N264	N	0.458935	0.922076	0.178475
	N265	N	0.532551	0.093899	0.178075
	N266	N	0.458584	0.093330	0.821087
	N267	N	0.533231	0.922195	0.819973
	N268	N	0.910569	0.187283	0.462159
	N269	N	0.081761	0.187423	0.536716
	N270	N	0.080829	0.830943	0.462019
	N271	N	0.910478	0.829313	0.536933
	N272	N	0.173434	0.470173	0.915523
	N273	N	0.175222	0.545620	0.085307
	N274	N	0.819461	0.471044	0.083731
	N275	N	0.818562	0.546025	0.914122
	O276	O	-0.451305	-0.438528	1.569080
	H277	H	-0.443499	-0.436991	1.576323
	H278	H	-0.456631	-0.441806	1.564056
	O279	O	0.515556	0.579255	0.517245
	H280	H	0.518798	0.583357	0.511009
	H281	H	0.523354	0.585703	0.523577
	O282	O	0.582251	0.563072	0.543042
	H283	H	0.570900	0.561422	0.553439
	H284	H	0.588114	0.563239	0.531862
	O285	O	0.535644	0.531553	0.549838
	H286	H	0.539622	0.529134	0.548165
	H287	H	0.539159	0.530829	0.545103
	O288	O	0.513478	0.568064	0.538001
	H289	H	0.517247	0.559189	0.534217
	H290	H	0.520130	0.571032	0.544495
	O291	O	0.544252	0.614457	0.585556
	H292	H	0.541713	0.613897	0.589609
	H293	H	0.547394	0.613295	0.584607
	O294	O	0.518752	0.532423	0.552341
	H295	H	0.507734	0.536428	0.555115
	H296	H	0.508348	0.542196	0.555466
	O297	O	1.477480	-0.424399	-0.477720
	H298	H	1.480301	-0.423600	-0.478533
	H299	H	1.484005	-0.413367	-0.473253
