data_Molecule from HDF5

_cell_length_a		16.661459
_cell_length_b		16.662227
_cell_length_c		16.629826
_cell_angle_alpha	90.063851
_cell_angle_beta	89.929179
_cell_angle_gamma	90.018808
_symmetry_space_group_name_H-M	'P 1'
_symmetry_Int_Tables_number		1

loop_
	_symmetry_equiv_pos_as_xyz
	x,y,z

loop_
	_atom_site_label
	_atom_site_type_symbol
	_atom_site_fract_x
	_atom_site_fract_y
	_atom_site_fract_z
	H0	H	0.402270	0.850311	0.712366
	H1	H	0.619667	0.155942	0.713862
	H2	H	0.611254	0.847369	0.269985
	H3	H	0.404382	0.159333	0.268197
	H4	H	0.731484	0.397361	0.833756
	H5	H	0.727801	0.607010	0.145213
	H6	H	0.286323	0.610626	0.834945
	H7	H	0.286642	0.397011	0.143614
	H8	H	0.855198	0.726012	0.383248
	H9	H	0.162709	0.727407	0.596206
	H10	H	0.854313	0.281281	0.595298
	H11	H	0.164573	0.281889	0.382404
	H12	H	0.854589	0.397574	0.711762
	H13	H	0.161481	0.611689	0.713194
	H14	H	0.853969	0.608768	0.268340
	H15	H	0.164493	0.400174	0.268439
	H16	H	0.402884	0.726348	0.834617
	H17	H	0.612201	0.722522	0.145002
	H18	H	0.618304	0.279429	0.834931
	H19	H	0.403646	0.282544	0.144209
	H20	H	0.730426	0.848249	0.383256
	H21	H	0.733993	0.156392	0.596618
	H22	H	0.285068	0.851194	0.597675
	H23	H	0.289548	0.160541	0.385643
	H24	H	0.906183	0.347645	0.207574
	H25	H	0.114223	0.658371	0.209507
	H26	H	0.116049	0.350253	0.764778
	H27	H	0.901102	0.659028	0.765708
	H28	H	0.232275	0.897920	0.335401
	H29	H	0.231018	0.110386	0.644968
	H30	H	0.790191	0.106546	0.333282
	H31	H	0.784982	0.895385	0.642876
	H32	H	0.356375	0.227620	0.880480
	H33	H	0.663236	0.226104	0.094735
	H34	H	0.351660	0.785802	0.090429
	H35	H	0.663973	0.780455	0.882338
	H36	H	0.350901	0.903656	0.205265
	H37	H	0.662796	0.109333	0.211278
	H38	H	0.356961	0.112677	0.763224
	H39	H	0.663574	0.895447	0.765607
	H40	H	0.906197	0.222825	0.333137
	H41	H	0.115047	0.226042	0.645012
	H42	H	0.116314	0.781463	0.335440
	H43	H	0.902056	0.781207	0.644056
	H44	H	0.232908	0.350107	0.879668
	H45	H	0.230486	0.657685	0.094132
	H46	H	0.789039	0.348073	0.091783
	H47	H	0.786514	0.659478	0.882982
	H48	H	0.423352	0.113907	0.579146
	H49	H	0.597496	0.894047	0.572547
	H50	H	0.603205	0.114680	0.403784
	H51	H	0.414733	0.891034	0.397713
	H52	H	0.598569	0.411068	0.101794
	H53	H	0.593765	0.591024	0.879205
	H54	H	0.422178	0.584432	0.097279
	H55	H	0.423293	0.410127	0.876980
	H56	H	0.119585	0.593266	0.404732
	H57	H	0.899757	0.591034	0.574597
	H58	H	0.119312	0.416820	0.576448
	H59	H	0.900621	0.417801	0.404440
	H60	H	0.120115	0.415171	0.578512
	H61	H	0.898441	0.590001	0.576551
	H62	H	0.120163	0.588975	0.397211
	H63	H	0.895504	0.415107	0.390677
	H64	H	0.426339	0.598142	0.098893
	H65	H	0.598704	0.598188	0.875108
	H66	H	0.600955	0.417986	0.099984
	H67	H	0.416583	0.418619	0.877612
	H68	H	0.601537	0.117203	0.395356
	H69	H	0.599402	0.891217	0.577613
	H70	H	0.423868	0.114238	0.574625
	H71	H	0.421455	0.892065	0.395867
	H72	H	0.917264	0.617264	0.081900
	H73	H	0.091123	0.393577	0.077868
	H74	H	0.094224	0.610598	0.906099
	H75	H	0.918124	0.396249	0.908555
	H76	H	0.100599	0.918625	0.601562
	H77	H	0.098345	0.094330	0.378074
	H78	H	0.922165	0.088121	0.598944
	H79	H	0.919053	0.913724	0.376713
	H80	H	0.616530	0.086093	0.906656
	H81	H	0.396128	0.097926	0.079520
	H82	H	0.622239	0.910555	0.081248
	H83	H	0.401075	0.919953	0.901732
	H84	H	0.620498	0.911560	0.078523
	H85	H	0.399122	0.093427	0.073405
	H86	H	0.621884	0.089667	0.896490
	H87	H	0.397520	0.914955	0.898754
	H88	H	0.924412	0.094866	0.601463
	H89	H	0.100090	0.093041	0.377791
	H90	H	0.094238	0.917595	0.598966
	H91	H	0.921352	0.917316	0.379167
	H92	H	0.100975	0.616090	0.903155
	H93	H	0.100423	0.393172	0.071192
	H94	H	0.919956	0.615223	0.079526
	H95	H	0.915323	0.390074	0.895872
	H96	H	0.420165	0.115297	0.576667
	H97	H	0.593700	0.893495	0.577412
	H98	H	0.595312	0.112741	0.400832
	H99	H	0.419427	0.893470	0.402154
	H100	H	0.594334	0.415622	0.097656
	H101	H	0.602672	0.589514	0.876733
	H102	H	0.413286	0.593921	0.103861
	H103	H	0.426715	0.419765	0.881270
	H104	H	0.122595	0.596888	0.397950
	H105	H	0.898712	0.592441	0.576541
	H106	H	0.120119	0.413976	0.575544
	H107	H	0.895628	0.404619	0.401025
	H108	H	0.916370	0.615775	0.077715
	H109	H	0.100887	0.389134	0.082252
	H110	H	0.093805	0.613443	0.898080
	H111	H	0.927659	0.396514	0.898263
	H112	H	0.097587	0.912675	0.602022
	H113	H	0.098418	0.091999	0.378270
	H114	H	0.917048	0.093308	0.601815
	H115	H	0.924106	0.913075	0.378950
	H116	H	0.619964	0.097165	0.905262
	H117	H	0.396967	0.089508	0.080554
	H118	H	0.621188	0.913564	0.080819
	H119	H	0.399511	0.914147	0.904924
	C120	C	0.389090	0.012637	0.610140
	C121	C	0.631231	0.994453	0.610071
	C122	C	0.630623	0.011952	0.367837
	C123	C	0.387483	0.995759	0.367823
	C124	C	0.630920	0.381863	-0.002758
	C125	C	0.629751	0.624209	0.980376
	C126	C	0.387590	0.625233	-0.002340
	C127	C	0.388827	0.382917	0.980824
	C128	C	0.018079	0.624941	0.367980
	C129	C	1.000496	0.625099	0.609952
	C130	C	0.017457	0.382601	0.609888
	C131	C	1.000954	0.381829	0.367668
	C132	C	0.886907	0.512906	0.110891
	C133	C	0.129964	0.494436	0.109449
	C134	C	0.129855	0.511957	0.867954
	C135	C	0.887356	0.496482	0.867640
	C136	C	0.130642	0.883424	0.498253
	C137	C	0.131303	0.125749	0.480858
	C138	C	0.889421	0.123838	0.497687
	C139	C	0.888225	0.881989	0.480762
	C140	C	0.518133	0.124785	0.867932
	C141	C	0.499965	0.125597	0.110558
	C142	C	0.517295	0.882051	0.110751
	C143	C	0.501280	0.882582	0.868350
	C144	C	0.384813	0.896640	0.671775
	C145	C	0.636392	0.109750	0.672643
	C146	C	0.631267	0.894599	0.308763
	C147	C	0.385763	0.112841	0.308077
	C148	C	0.691556	0.379066	0.880618
	C149	C	0.688289	0.625427	0.098160
	C150	C	0.327099	0.628176	0.881053
	C151	C	0.327496	0.379612	0.097285
	C152	C	0.901380	0.685280	0.365571
	C153	C	0.116538	0.686502	0.614026
	C154	C	0.900828	0.321782	0.613303
	C155	C	0.117732	0.322521	0.365089
	C156	C	0.900954	0.379711	0.670930
	C157	C	0.115844	0.629270	0.672183
	C158	C	0.901042	0.627246	0.308064
	C159	C	0.117989	0.381225	0.308300
	C160	C	0.384584	0.685862	0.881177
	C161	C	0.630842	0.683097	0.098084
	C162	C	0.634799	0.320715	0.881137
	C163	C	0.385687	0.322683	0.097580
	C164	C	0.690024	0.894778	0.365372
	C165	C	0.693581	0.109902	0.614495
	C166	C	0.326624	0.897083	0.614687
	C167	C	0.328818	0.113289	0.366669
	C168	C	0.886317	0.394947	0.168888
	C169	C	0.132420	0.611581	0.169363
	C170	C	0.133494	0.396554	0.805777
	C171	C	0.884008	0.612700	0.806566
	C172	C	0.191692	0.880060	0.381690
	C173	C	0.190915	0.128346	0.598122
	C174	C	0.830134	0.125067	0.380067
	C175	C	0.826187	0.878190	0.596762
	C176	C	0.402820	0.187383	0.862720
	C177	C	0.616794	0.185754	0.113271
	C178	C	0.398709	0.825362	0.109682
	C179	C	0.617441	0.821259	0.864809
	C180	C	0.398439	0.883762	0.166973
	C181	C	0.616441	0.127993	0.171076
	C182	C	0.403053	0.129858	0.804786
	C183	C	0.617338	0.878480	0.806664
	C184	C	0.887788	0.182840	0.379818
	C185	C	0.133295	0.185952	0.598030
	C186	C	0.134135	0.822260	0.381908
	C187	C	0.884631	0.821613	0.597422
	C188	C	0.191641	0.396300	0.862976
	C189	C	0.190336	0.611159	0.112018
	C190	C	0.828431	0.395049	0.111361
	C191	C	0.826754	0.612984	0.864699
	C192	C	0.415097	0.093488	0.584105
	C193	C	0.604357	0.913722	0.583497
	C194	C	0.606626	0.093578	0.392688
	C195	C	0.411724	0.913663	0.391800
	C196	C	0.605317	0.407551	0.078720
	C197	C	0.605443	0.599926	0.898437
	C198	C	0.413221	0.599603	0.078891
	C199	C	0.414855	0.408703	0.899669
	C200	C	0.099542	0.600126	0.392897
	C201	C	0.919951	0.598876	0.583215
	C202	C	0.098671	0.408037	0.584208
	C203	C	0.918615	0.405667	0.391984
	C204	C	0.911008	0.594821	0.086654
	C205	C	0.104659	0.413010	0.084083
	C206	C	0.103709	0.592641	0.894920
	C207	C	0.913128	0.415488	0.893537
	C208	C	0.104781	0.909117	0.579552
	C209	C	0.106162	0.100310	0.399381
	C210	C	0.914365	0.099223	0.579429
	C211	C	0.914195	0.907459	0.399457
	C212	C	0.598555	0.098404	0.894978
	C213	C	0.418768	0.100747	0.085188
	C214	C	0.599982	0.905404	0.087139
	C215	C	0.420435	0.908789	0.894465
	Zn216	Zn	0.510201	0.003501	0.739156
	Zn217	Zn	0.509007	0.003911	0.239212
	Zn218	Zn	0.758952	0.503855	-0.011285
	Zn219	Zn	0.259649	0.503117	-0.011568
	Zn220	Zn	0.009486	0.754171	0.489914
	Zn221	Zn	0.009290	0.253249	0.489093
	Zn222	Zn	0.008607	0.504556	0.739038
	Zn223	Zn	0.009135	0.503378	0.238775
	Zn224	Zn	0.508857	0.753277	-0.010952
	Zn225	Zn	0.509370	0.254005	-0.011071
	Zn226	Zn	0.759994	0.002923	0.488657
	Zn227	Zn	0.259523	0.004620	0.489720
	N228	N	0.422947	0.969603	0.669173
	N229	N	0.598431	0.036858	0.670122
	N230	N	0.595112	0.968527	0.309833
	N231	N	0.421288	0.038413	0.308327
	N232	N	0.689489	0.416503	0.954051
	N233	N	0.687941	0.589692	0.023894
	N234	N	0.328885	0.590926	0.954529
	N235	N	0.329317	0.416412	0.023589
	N236	N	0.975212	0.684185	0.402113
	N237	N	0.043692	0.684082	0.576190
	N238	N	0.974453	0.323196	0.576173
	N239	N	0.043805	0.322883	0.401349
	N240	N	0.974376	0.416849	0.669094
	N241	N	0.042632	0.591788	0.669719
	N242	N	0.974689	0.590454	0.309238
	N243	N	0.044071	0.417395	0.309554
	N244	N	0.421526	0.684192	0.954700
	N245	N	0.595078	0.682838	0.023707
	N246	N	0.597981	0.322103	0.954780
	N247	N	0.423200	0.324440	0.024040
	N248	N	0.690046	0.968949	0.401256
	N249	N	0.690604	0.036953	0.576290
	N250	N	0.328826	0.970336	0.577243
	N251	N	0.329569	0.039298	0.402852
	N252	N	0.921854	0.469319	0.168929
	N253	N	0.095428	0.537930	0.168032
	N254	N	0.095824	0.469609	0.808571
	N255	N	0.921099	0.539256	0.808296
	N256	N	0.189843	0.917293	0.455280
	N257	N	0.190053	0.091949	0.524196
	N258	N	0.830819	0.089154	0.454412
	N259	N	0.828234	0.915213	0.523042
	N260	N	0.475554	0.184513	0.901395
	N261	N	0.543269	0.184498	0.076314
	N262	N	0.473945	0.823770	0.075748
	N263	N	0.544183	0.823613	0.902567
	N264	N	0.473452	0.917994	0.167970
	N265	N	0.542867	0.091316	0.169418
	N266	N	0.475838	0.091671	0.807844
	N267	N	0.544025	0.916166	0.808795
	N268	N	0.923685	0.182440	0.454106
	N269	N	0.097039	0.184733	0.523806
	N270	N	0.097014	0.823901	0.455528
	N271	N	0.922449	0.823849	0.524154
	N272	N	0.189599	0.469323	0.901027
	N273	N	0.189096	0.537272	0.075590
	N274	N	0.828319	0.469490	0.076195
	N275	N	0.828842	0.539640	0.902204
	O276	O	-0.217186	1.175543	-0.017957
	H277	H	-0.220780	1.159561	-0.016313
	H278	H	-0.233481	1.186563	-0.008140
	O279	O	0.537807	0.561709	0.601601
	H280	H	0.534252	0.559594	0.601671
	H281	H	0.545107	0.574401	0.597415
	O282	O	1.040295	0.059600	0.791071
	H283	H	1.042089	0.063970	0.792225
	H284	H	1.057583	0.065820	0.791303
	O285	O	0.631500	0.532385	0.320067
	H286	H	0.639191	0.531206	0.330020
	H287	H	0.622106	0.529154	0.323860
	O288	O	0.505199	0.498691	0.388397
	H289	H	0.502885	0.501661	0.394034
	H290	H	0.500740	0.474079	0.376483
	O291	O	0.731156	0.466779	0.269137
	H292	H	0.729934	0.474122	0.271721
	H293	H	0.752795	0.470540	0.256186
	O294	O	1.004210	0.226270	0.826401
	H295	H	1.005893	0.218108	0.826393
	H296	H	1.014334	0.243403	0.823281
	O297	O	0.291082	0.538895	0.275312
	H298	H	0.286879	0.533178	0.272341
	H299	H	0.290530	0.549060	0.263483
	O300	O	-0.224850	-0.062044	0.937617
	H301	H	-0.233636	-0.063224	0.922745
	H302	H	-0.218610	-0.057475	0.921424
	O303	O	0.721516	0.532558	0.698318
	H304	H	0.710697	0.542140	0.693732
	H305	H	0.734561	0.533254	0.705950
	O306	O	0.459432	0.655174	0.538277
	H307	H	0.450027	0.657900	0.531663
	H308	H	0.458406	0.649109	0.533373
	O309	O	0.297186	0.617150	0.599590
	H310	H	0.294683	0.628831	0.586371
	H311	H	0.313328	0.614335	0.611662
	O312	O	0.539698	0.698970	0.706622
	H313	H	0.536404	0.708576	0.717970
	H314	H	0.526418	0.702093	0.699718
	O315	O	0.724947	0.712470	1.276839
	H316	H	0.715605	0.696525	1.284370
	H317	H	0.696814	0.693951	1.294612
	O318	O	0.676957	0.378049	0.543296
	H319	H	0.680108	0.363375	0.536351
	H320	H	0.683179	0.382038	0.545048
	O321	O	-0.175526	0.821134	0.807002
	H322	H	-0.170136	0.832332	0.812444
	H323	H	-0.167498	0.823886	0.802508
	O324	O	0.827920	0.822495	0.171990
	H325	H	0.845240	0.821695	0.149570
	H326	H	0.805566	0.791749	0.192019
	O327	O	-0.031236	-0.185572	1.206297
	H328	H	-0.038921	-0.180036	1.205397
	H329	H	-0.039594	-0.198357	1.223287
	O330	O	0.719689	0.711016	0.468558
	H331	H	0.717600	0.712525	0.484169
	H332	H	0.716998	0.715763	0.478218
	O333	O	0.636889	0.290618	0.279257
	H334	H	0.642420	0.303856	0.261859
	H335	H	0.651803	0.270571	0.273981
	O336	O	0.439435	0.554835	0.411337
	H337	H	0.426129	0.544820	0.418405
	H338	H	0.432533	0.552139	0.404685
	O339	O	1.135974	-0.222398	0.976695
	H340	H	1.147213	-0.228052	0.966643
	H341	H	1.129064	-0.226558	0.965675
	O342	O	0.119262	0.033727	0.003743
	H343	H	0.118264	0.025793	0.002949
	H344	H	0.115069	0.039922	-0.008666
	O345	O	0.194603	0.812722	1.175317
	H346	H	0.169374	0.840396	1.172711
	H347	H	0.178671	0.818133	1.141289
	O348	O	0.218893	0.213430	0.198979
	H349	H	0.214524	0.200446	0.176336
	H350	H	0.220809	0.237758	0.211174
	O351	O	0.301160	0.293364	0.696754
	H352	H	0.312747	0.315739	0.701406
	H353	H	0.319824	0.292872	0.667950
	O354	O	-0.168810	0.002274	1.034886
	H355	H	-0.167042	-0.010568	1.016157
	H356	H	-0.168018	-0.016049	1.041944
	O357	O	0.275858	0.472689	0.482782
	H358	H	0.274233	0.493816	0.476497
	H359	H	0.280295	0.479469	0.481096
	O360	O	0.729337	0.278660	0.458001
	H361	H	0.751306	0.258887	0.444323
	H362	H	0.731432	0.278166	0.421080
	O363	O	0.008701	0.076129	0.102167
	H364	H	0.019223	0.068423	0.099986
	H365	H	0.013847	0.067416	0.102121
	O366	O	0.449767	0.295430	0.284322
	H367	H	0.450608	0.279401	0.272749
	H368	H	0.473666	0.301200	0.280521
	O369	O	0.769341	0.240406	0.227011
	H370	H	0.777132	0.213735	0.202779
	H371	H	0.781638	0.241201	0.211247
	O372	O	1.228244	1.214538	0.012454
	H373	H	1.230954	1.219319	0.018221
	H374	H	1.225441	1.225797	0.011829
	O375	O	0.962697	0.110460	0.176558
	H376	H	0.960630	0.086576	0.179004
	H377	H	0.966758	0.098218	0.173287
	O378	O	0.456363	0.273276	0.421847
	H379	H	0.444036	0.269246	0.419674
	H380	H	0.453871	0.269519	0.429812
	O381	O	0.189987	1.120106	0.828294
	H382	H	0.198731	1.127991	0.821181
	H383	H	0.170975	1.118134	0.829519
	O384	O	1.155180	0.006088	0.965527
	H385	H	1.155734	0.014441	0.965027
	H386	H	1.149500	0.010351	0.973163
	O387	O	1.104237	0.891890	-0.062051
	H388	H	1.104157	0.891604	-0.054530
	H389	H	1.109597	0.897089	-0.070287
	O390	O	0.389890	0.448369	0.318300
	H391	H	0.403264	0.447028	0.317910
	H392	H	0.397023	0.448691	0.315729
	O393	O	0.463490	0.316692	0.676224
	H394	H	0.462089	0.307980	0.679254
	H395	H	0.471406	0.306822	0.677822
	O396	O	0.215113	0.794713	0.781592
	H397	H	0.209926	0.788328	0.777441
	H398	H	0.196377	0.819740	0.780664
	O399	O	0.230736	-0.024215	0.771080
	H400	H	0.247440	-0.029794	0.761737
	H401	H	0.228675	-0.018638	0.766093
	O402	O	0.290742	0.279826	0.523856
	H403	H	0.271283	0.288870	0.512106
	H404	H	0.273188	0.273252	0.530253
	O405	O	0.532673	-0.393138	1.570603
	H406	H	0.535452	-0.394412	1.578030
	H407	H	0.515227	-0.400859	1.581268
	O408	O	0.228760	0.035791	0.213190
	H409	H	0.247637	0.044907	0.225992
	H410	H	0.235673	0.051673	0.211629
	O411	O	0.712092	0.708183	0.694966
	H412	H	0.719996	0.708274	0.686116
	H413	H	0.684673	0.696472	0.695977
	O414	O	0.808707	0.210117	0.781623
	H415	H	0.812461	0.223183	0.778558
	H416	H	0.818125	0.215496	0.798812
	O417	O	0.478879	0.728629	0.282566
	H418	H	0.474529	0.718184	0.295843
	H419	H	0.477640	0.757731	0.254235
	O420	O	0.404887	0.537329	0.638087
	H421	H	0.386113	0.526312	0.654989
	H422	H	0.415307	0.523611	0.628926
	O423	O	-0.213279	-0.026776	1.212040
	H424	H	-0.220581	-0.049448	1.220078
	H425	H	-0.228497	-0.055609	1.225444
	O426	O	0.321605	0.492071	0.387260
	H427	H	0.340275	0.501693	0.380341
	H428	H	0.312706	0.514638	0.392960
	O429	O	0.794416	0.786143	1.025713
	H430	H	0.782592	0.774840	1.011555
	H431	H	0.790276	0.791488	1.030485
	O432	O	0.372689	0.712647	0.630492
	H433	H	0.349414	0.731300	0.644217
	H434	H	0.368153	0.689485	0.623839
	O435	O	-0.008202	0.890334	0.002973
	H436	H	-0.012947	0.885159	-0.000302
	H437	H	-0.012617	0.893975	0.017318
	O438	O	-0.014819	-0.040223	0.050072
	H439	H	-0.018551	-0.049149	0.045734
	H440	H	-0.011802	-0.033629	0.032550
	O441	O	0.057001	0.220297	0.199238
	H442	H	0.043023	0.233737	0.228374
	H443	H	0.067495	0.215056	0.200289
	O444	O	0.537951	0.568173	0.521895
	H445	H	0.530675	0.560297	0.519955
	H446	H	0.521678	0.572167	0.522214
	O447	O	0.043281	0.822723	0.813378
	H448	H	0.033699	0.818175	0.805480
	H449	H	0.034778	0.810227	0.811731
	O450	O	0.046128	1.072394	0.979072
	H451	H	0.058007	1.073739	0.988956
	H452	H	0.039775	1.076927	0.971203
	O453	O	0.470125	0.329028	0.598707
	H454	H	0.470580	0.331450	0.592227
	H455	H	0.471242	0.329657	0.586987
	O456	O	0.114643	0.219190	0.883137
	H457	H	0.119175	0.233756	0.873610
	H458	H	0.116572	0.203824	0.901882
	O459	O	0.300103	0.689577	0.438858
	H460	H	0.285548	0.717271	0.419619
	H461	H	0.305344	0.685778	0.416416
	O462	O	0.595069	0.442789	0.618457
	H463	H	0.611488	0.440350	0.616813
	H464	H	0.600823	0.451283	0.609605
	O465	O	0.956657	0.054451	-0.062716
	H466	H	0.962662	0.042656	-0.054408
	H467	H	0.968251	0.078791	-0.070697
	O468	O	0.298906	0.715077	0.278481
	H469	H	0.280091	0.702953	0.260082
	H470	H	0.308040	0.732625	0.256874
	O471	O	0.581687	0.582899	0.334450
	H472	H	0.574785	0.568645	0.329880
	H473	H	0.579551	0.590258	0.344384
	O474	O	-0.002748	0.828959	-0.086622
	H475	H	-0.007201	0.818328	-0.095117
	H476	H	-0.000773	0.831837	-0.073086
	O477	O	0.448222	0.472533	1.613884
	H478	H	0.450216	0.456061	1.613722
	H479	H	0.459484	0.474968	1.611221
	O480	O	0.626686	0.469704	0.646408
	H481	H	0.616385	0.481394	0.669805
	H482	H	0.625001	0.462557	0.641724
	O483	O	0.645866	0.308100	0.683136
	H484	H	0.651657	0.302611	0.683853
	H485	H	0.638736	0.319739	0.674947
	O486	O	0.954479	-0.058281	0.759348
	H487	H	0.959365	-0.043988	0.755913
	H488	H	0.946742	-0.060944	0.763158
	O489	O	1.141379	0.915360	0.095172
	H490	H	1.135334	0.920242	0.089638
	H491	H	1.141618	0.912630	0.079707
	O492	O	-0.092556	0.220129	-0.018419
	H493	H	-0.102324	0.215291	-0.016747
	H494	H	-0.094070	0.217161	-0.014128
	O495	O	-0.210255	1.022492	0.771007
	H496	H	-0.191201	1.048381	0.769241
	H497	H	-0.236096	1.039321	0.743394
	O498	O	1.011649	0.998972	1.211488
	H499	H	1.007841	0.989592	1.215090
	H500	H	1.019452	0.999082	1.200660
	O501	O	0.697090	0.520898	0.421079
	H502	H	0.693110	0.520410	0.425342
	H503	H	0.707128	0.520205	0.429572
