data_Molecule from HDF5

_cell_length_a		16.291386
_cell_length_b		16.264182
_cell_length_c		16.350333
_cell_angle_alpha	90.057400
_cell_angle_beta	90.029917
_cell_angle_gamma	89.968193
_symmetry_space_group_name_H-M	'P 1'
_symmetry_Int_Tables_number		1

loop_
	_symmetry_equiv_pos_as_xyz
	x,y,z

loop_
	_atom_site_label
	_atom_site_type_symbol
	_atom_site_fract_x
	_atom_site_fract_y
	_atom_site_fract_z
	H0	H	0.402255	0.847466	0.715706
	H1	H	0.598842	0.175519	0.716953
	H2	H	0.598804	0.847787	0.287206
	H3	H	0.400443	0.175459	0.287556
	H4	H	0.713093	0.412990	0.837951
	H5	H	0.713009	0.609457	0.164358
	H6	H	0.284269	0.612493	0.838113
	H7	H	0.284364	0.414445	0.163909
	H8	H	0.834857	0.724676	0.403778
	H9	H	0.163102	0.724663	0.598213
	H10	H	0.834750	0.299097	0.597087
	H11	H	0.162936	0.296968	0.402443
	H12	H	0.834893	0.413318	0.714526
	H13	H	0.161727	0.612226	0.717551
	H14	H	0.835263	0.610307	0.286452
	H15	H	0.162165	0.411829	0.284789
	H16	H	0.400610	0.728615	0.838832
	H17	H	0.597997	0.726588	0.165018
	H18	H	0.598863	0.294873	0.838957
	H19	H	0.400851	0.297908	0.164507
	H20	H	0.712723	0.846928	0.405519
	H21	H	0.714350	0.175098	0.601286
	H22	H	0.286991	0.846823	0.599183
	H23	H	0.284921	0.175399	0.404043
	H24	H	0.901154	0.347607	0.214375
	H25	H	0.097283	0.675180	0.216654
	H26	H	0.096838	0.348091	0.787722
	H27	H	0.900966	0.675518	0.787163
	H28	H	0.214711	0.912962	0.338286
	H29	H	0.212453	0.108451	0.665899
	H30	H	0.784037	0.108890	0.338862
	H31	H	0.785625	0.913140	0.664846
	H32	H	0.335576	0.224716	0.904631
	H33	H	0.663186	0.225265	0.099708
	H34	H	0.335873	0.798242	0.098090
	H35	H	0.664604	0.798470	0.904473
	H36	H	0.335472	0.912720	0.215966
	H37	H	0.662923	0.111005	0.217248
	H38	H	0.335982	0.111412	0.786496
	H39	H	0.663742	0.913036	0.786790
	H40	H	0.900538	0.224691	0.337451
	H41	H	0.097145	0.226798	0.664250
	H42	H	0.096691	0.797321	0.337213
	H43	H	0.902485	0.797280	0.664613
	H44	H	0.213686	0.349000	0.902437
	H45	H	0.212997	0.676575	0.099053
	H46	H	0.785873	0.347441	0.097664
	H47	H	0.785968	0.675917	0.904259
	H48	H	0.399126	0.131784	0.598806
	H49	H	0.593436	0.895860	0.589989
	H50	H	0.588452	0.124852	0.414143
	H51	H	0.412523	0.894995	0.405937
	H52	H	0.596822	0.414548	0.119420
	H53	H	0.598418	0.608163	0.883067
	H54	H	0.409738	0.602028	0.114454
	H55	H	0.397655	0.415930	0.882041
	H56	H	0.111792	0.600073	0.414379
	H57	H	0.881544	0.611893	0.589906
	H58	H	0.111936	0.418057	0.583978
	H59	H	0.881809	0.415126	0.405880
	H60	H	0.114619	0.428698	0.599368
	H61	H	0.886089	0.596658	0.590014
	H62	H	0.116011	0.599604	0.400226
	H63	H	0.883661	0.418909	0.409221
	H64	H	0.407151	0.610903	0.117924
	H65	H	0.592289	0.598184	0.886930
	H66	H	0.594080	0.424352	0.116056
	H67	H	0.407909	0.429020	0.888996
	H68	H	0.598591	0.129690	0.410075
	H69	H	0.596359	0.893116	0.598121
	H70	H	0.414544	0.126503	0.599416
	H71	H	0.406618	0.896618	0.413628
	H72	H	0.909150	0.629033	0.100994
	H73	H	0.091894	0.393279	0.101429
	H74	H	0.095671	0.629990	0.908499
	H75	H	0.899638	0.391521	0.903063
	H76	H	0.096744	0.916958	0.617861
	H77	H	0.095157	0.105887	0.384538
	H78	H	0.907742	0.101658	0.615449
	H79	H	0.908010	0.921921	0.387457
	H80	H	0.614741	0.095515	0.905845
	H81	H	0.379563	0.109033	0.103361
	H82	H	0.614637	0.925199	0.097969
	H83	H	0.381046	0.915471	0.900917
	H84	H	0.618467	0.915163	0.100126
	H85	H	0.384316	0.109687	0.087433
	H86	H	0.619043	0.109364	0.903358
	H87	H	0.384067	0.914622	0.915453
	H88	H	0.909727	0.110225	0.617992
	H89	H	0.093182	0.101878	0.386652
	H90	H	0.093291	0.919527	0.616354
	H91	H	0.907699	0.912342	0.384592
	H92	H	0.091371	0.629569	0.904489
	H93	H	0.084474	0.399069	0.089725
	H94	H	0.908231	0.625364	0.088715
	H95	H	0.912387	0.395760	0.903739
	H96	H	0.406447	0.125601	0.585145
	H97	H	0.587474	0.895817	0.597284
	H98	H	0.589293	0.128767	0.402394
	H99	H	0.402948	0.893608	0.405080
	H100	H	0.587096	0.416487	0.115982
	H101	H	0.586712	0.609656	0.886205
	H102	H	0.400902	0.603356	0.117666
	H103	H	0.414699	0.412042	0.886250
	H104	H	0.117882	0.612146	0.408086
	H105	H	0.880071	0.603833	0.603000
	H106	H	0.119145	0.410062	0.599407
	H107	H	0.882282	0.420339	0.404489
	H108	H	0.898420	0.630695	0.095250
	H109	H	0.099207	0.394877	0.087909
	H110	H	0.089752	0.628435	0.910467
	H111	H	0.903874	0.396809	0.914567
	H112	H	0.092289	0.914836	0.617137
	H113	H	0.090794	0.105343	0.386432
	H114	H	0.901244	0.106510	0.618689
	H115	H	0.899205	0.917472	0.383596
	H116	H	0.613728	0.105716	0.916132
	H117	H	0.385653	0.095372	0.095885
	H118	H	0.615164	0.917607	0.089763
	H119	H	0.386588	0.927369	0.907933
	C120	C	0.378592	0.019417	0.622801
	C121	C	0.621076	1.003477	0.623618
	C122	C	0.620914	0.019751	0.380282
	C123	C	0.378537	1.003362	0.380281
	C124	C	0.621236	0.389481	0.009390
	C125	C	0.620639	0.633526	0.993277
	C126	C	0.377478	0.634329	0.009447
	C127	C	0.377878	0.390603	0.993114
	C128	C	0.007048	0.632554	0.379538
	C129	C	0.990703	0.632592	0.622478
	C130	C	0.006976	0.390301	0.622534
	C131	C	0.990918	0.389985	0.378843
	C132	C	0.877622	0.519764	0.122568
	C133	C	0.120257	0.504051	0.121616
	C134	C	0.120602	0.520967	0.879244
	C135	C	0.877417	0.503295	0.879316
	C136	C	0.122154	0.888997	0.509475
	C137	C	0.121274	0.133089	0.493522
	C138	C	0.877333	0.133484	0.509388
	C139	C	0.877579	0.889448	0.493122
	C140	C	0.507658	0.132857	0.879800
	C141	C	0.491029	0.133114	0.123707
	C142	C	0.507861	0.890628	0.123662
	C143	C	0.492208	0.890395	0.880000
	C144	C	0.381423	0.896271	0.677989
	C145	C	0.619039	0.126508	0.679049
	C146	C	0.618953	0.896675	0.325130
	C147	C	0.380286	0.126618	0.325374
	C148	C	0.675767	0.392392	0.886843
	C149	C	0.675178	0.630555	0.115853
	C150	C	0.322235	0.632510	0.886828
	C151	C	0.322012	0.393399	0.115379
	C152	C	0.883763	0.687168	0.382888
	C153	C	0.114124	0.687044	0.619152
	C154	C	0.883839	0.336026	0.618746
	C155	C	0.114124	0.335325	0.382167
	C156	C	0.883987	0.392936	0.677156
	C157	C	0.113506	0.631197	0.678329
	C158	C	0.884115	0.630684	0.324293
	C159	C	0.113702	0.392374	0.323736
	C160	C	0.380200	0.690168	0.887189
	C161	C	0.618383	0.688856	0.116078
	C162	C	0.618844	0.333688	0.887158
	C163	C	0.379621	0.335333	0.115619
	C164	C	0.675414	0.896152	0.384073
	C165	C	0.676281	0.126361	0.621455
	C166	C	0.324112	0.896113	0.619963
	C167	C	0.322729	0.126619	0.383002
	C168	C	0.880635	0.396444	0.176711
	C169	C	0.117957	0.626813	0.177975
	C170	C	0.117726	0.397208	0.824689
	C171	C	0.880183	0.626628	0.825043
	C172	C	0.177067	0.891727	0.386809
	C173	C	0.175322	0.129742	0.616635
	C174	C	0.822303	0.129793	0.387101
	C175	C	0.823458	0.892830	0.616207
	C176	C	0.384548	0.187699	0.883231
	C177	C	0.614392	0.187809	0.120889
	C178	C	0.384559	0.836157	0.119424
	C179	C	0.615468	0.835822	0.883386
	C180	C	0.384367	0.892740	0.178054
	C181	C	0.614293	0.130564	0.178743
	C182	C	0.384802	0.131023	0.824686
	C183	C	0.614994	0.892704	0.824830
	C184	C	0.880363	0.187038	0.386328
	C185	C	0.118257	0.188504	0.615922
	C186	C	0.118192	0.834610	0.386212
	C187	C	0.880817	0.834622	0.615954
	C188	C	0.175467	0.397589	0.881961
	C189	C	0.175402	0.627357	0.119678
	C190	C	0.823628	0.396113	0.118511
	C191	C	0.823108	0.626954	0.883161
	C192	C	0.400504	0.105488	0.600991
	C193	C	0.598907	0.917267	0.601760
	C194	C	0.598692	0.105728	0.402452
	C195	C	0.400665	0.917462	0.401860
	C196	C	0.598949	0.411819	0.095040
	C197	C	0.598891	0.611890	0.907510
	C198	C	0.399609	0.611966	0.094652
	C199	C	0.400221	0.412511	0.907954
	C200	C	0.092914	0.610451	0.401065
	C201	C	0.904832	0.610610	0.600719
	C202	C	0.093108	0.412603	0.600836
	C203	C	0.904737	0.411543	0.400362
	C204	C	0.898945	0.606160	0.101335
	C205	C	0.098484	0.418005	0.099512
	C206	C	0.098595	0.606992	0.901107
	C207	C	0.898832	0.417030	0.900675
	C208	C	0.100489	0.910687	0.594897
	C209	C	0.099596	0.111019	0.407895
	C210	C	0.899536	0.112273	0.595362
	C211	C	0.898861	0.910896	0.407349
	C212	C	0.593617	0.110298	0.902004
	C213	C	0.405350	0.111273	0.101986
	C214	C	0.593915	0.912889	0.102285
	C215	C	0.406067	0.912598	0.901806
	Zn216	Zn	0.499565	0.011675	0.751439
	Zn217	Zn	0.499634	0.011572	0.251690
	Zn218	Zn	0.749058	0.511998	0.001225
	Zn219	Zn	0.248997	0.512483	0.000552
	Zn220	Zn	-0.000849	0.760979	0.501128
	Zn221	Zn	-0.000986	0.261760	0.500695
	Zn222	Zn	-0.000908	0.511552	0.751130
	Zn223	Zn	-0.001392	0.511761	0.250553
	Zn224	Zn	0.500068	0.762318	0.001736
	Zn225	Zn	0.499468	0.260882	0.001705
	Zn226	Zn	0.748812	0.011668	0.502106
	Zn227	Zn	0.250411	0.011489	0.501683
	N228	N	0.414785	0.974041	0.679619
	N229	N	0.585282	0.048895	0.680455
	N230	N	0.585483	0.974309	0.322859
	N231	N	0.414319	0.049204	0.323595
	N232	N	0.677041	0.426667	0.963761
	N233	N	0.677013	0.597153	0.038607
	N234	N	0.320530	0.598218	0.963766
	N235	N	0.320819	0.427081	0.038206
	N236	N	0.961217	0.688598	0.416540
	N237	N	0.036942	0.688026	0.584940
	N238	N	0.961348	0.334492	0.585274
	N239	N	0.036834	0.333855	0.415816
	N240	N	0.961805	0.425785	0.679747
	N241	N	0.035873	0.597881	0.680332
	N242	N	0.961643	0.597206	0.322280
	N243	N	0.036070	0.425515	0.321452
	N244	N	0.413858	0.691475	0.964240
	N245	N	0.584859	0.690537	0.038747
	N246	N	0.585598	0.331914	0.964582
	N247	N	0.414098	0.333622	0.038883
	N248	N	0.676617	0.973735	0.417652
	N249	N	0.677546	0.048974	0.587695
	N250	N	0.322313	0.973682	0.586461
	N251	N	0.321441	0.048992	0.416518
	N252	N	0.913475	0.474224	0.179034
	N253	N	0.084559	0.549175	0.179343
	N254	N	0.084211	0.474895	0.822991
	N255	N	0.913121	0.548873	0.822630
	N256	N	0.179564	0.924693	0.464109
	N257	N	0.177518	0.096118	0.539306
	N258	N	0.820442	0.097227	0.464693
	N259	N	0.821299	0.926245	0.538910
	N260	N	0.462087	0.188869	0.916846
	N261	N	0.537001	0.189538	0.087140
	N262	N	0.462257	0.834676	0.086495
	N263	N	0.538046	0.834408	0.916927
	N264	N	0.462119	0.925709	0.180782
	N265	N	0.536649	0.097352	0.180617
	N266	N	0.462477	0.097712	0.822508
	N267	N	0.537365	0.925996	0.822792
	N268	N	0.913972	0.189451	0.463664
	N269	N	0.085517	0.190835	0.538398
	N270	N	0.084752	0.832628	0.463580
	N271	N	0.913815	0.832566	0.538619
	N272	N	0.177653	0.475439	0.914838
	N273	N	0.176822	0.550032	0.085384
	N274	N	0.821471	0.473937	0.085645
	N275	N	0.821188	0.549175	0.916332
	O276	O	-0.550734	-0.498347	1.499714
	H277	H	-0.559772	-0.494534	1.501076
	H278	H	-0.557940	-0.489316	1.489698
	O279	O	0.471451	0.556437	0.527152
	H280	H	0.470544	0.558070	0.533805
	H281	H	0.467260	0.556285	0.524524
	O282	O	0.506586	0.458271	0.535712
	H283	H	0.507020	0.468696	0.531572
	H284	H	0.508167	0.465368	0.528276
	O285	O	0.450293	0.527826	0.520245
	H286	H	0.431073	0.524308	0.533773
	H287	H	0.451191	0.519885	0.518897
	O288	O	0.471302	0.532951	0.491886
	H289	H	0.462435	0.527993	0.491781
	H290	H	0.476689	0.522659	0.497962
	O291	O	0.440295	0.459350	0.540331
	H292	H	0.446495	0.450825	0.537830
	H293	H	0.447049	0.461085	0.531953
	O294	O	0.482485	0.489317	0.504930
	H295	H	0.478774	0.486783	0.509027
	H296	H	0.487752	0.496275	0.505865
	O297	O	1.491296	-0.482434	-0.524464
	H298	H	1.496293	-0.479731	-0.529365
	H299	H	1.495786	-0.476198	-0.517381
