data_Molecule from HDF5

_cell_length_a		16.207553
_cell_length_b		16.356747
_cell_length_c		16.286712
_cell_angle_alpha	89.720892
_cell_angle_beta	89.868510
_cell_angle_gamma	89.965029
_symmetry_space_group_name_H-M	'P 1'
_symmetry_Int_Tables_number		1

loop_
	_symmetry_equiv_pos_as_xyz
	x,y,z

loop_
	_atom_site_label
	_atom_site_type_symbol
	_atom_site_fract_x
	_atom_site_fract_y
	_atom_site_fract_z
	H0	H	0.402192	0.831398	0.711396
	H1	H	0.599756	0.157072	0.708432
	H2	H	0.600563	0.830804	0.279542
	H3	H	0.399915	0.156191	0.277869
	H4	H	0.716047	0.399774	0.830288
	H5	H	0.716058	0.590779	0.158573
	H6	H	0.289516	0.594590	0.831411
	H7	H	0.288908	0.396928	0.158432
	H8	H	0.836667	0.707200	0.396272
	H9	H	0.164882	0.709023	0.592505
	H10	H	0.837022	0.280780	0.595298
	H11	H	0.164489	0.277992	0.394963
	H12	H	0.838356	0.395807	0.711322
	H13	H	0.167640	0.592985	0.706504
	H14	H	0.838214	0.592857	0.279927
	H15	H	0.167057	0.395823	0.281109
	H16	H	0.403637	0.711977	0.831916
	H17	H	0.603129	0.709969	0.157963
	H18	H	0.604750	0.279035	0.831716
	H19	H	0.402885	0.278935	0.158040
	H20	H	0.715137	0.829669	0.397712
	H21	H	0.716617	0.156802	0.592161
	H22	H	0.288100	0.829845	0.593413
	H23	H	0.285565	0.156360	0.395516
	H24	H	0.904365	0.332050	0.211341
	H25	H	0.101296	0.658538	0.208738
	H26	H	0.103803	0.331709	0.780277
	H27	H	0.904185	0.657520	0.778863
	H28	H	0.215380	0.896935	0.330448
	H29	H	0.213727	0.090571	0.658595
	H30	H	0.788385	0.091785	0.329729
	H31	H	0.788920	0.897704	0.658584
	H32	H	0.337710	0.210878	0.895411
	H33	H	0.666300	0.207506	0.092727
	H34	H	0.339163	0.778579	0.096178
	H35	H	0.666040	0.782005	0.895958
	H36	H	0.336993	0.896169	0.208202
	H37	H	0.665564	0.092863	0.209408
	H38	H	0.336871	0.094291	0.780226
	H39	H	0.665164	0.896029	0.779327
	H40	H	0.899837	0.211949	0.331894
	H41	H	0.099711	0.207989	0.658203
	H42	H	0.100167	0.780373	0.330121
	H43	H	0.901186	0.778032	0.657678
	H44	H	0.219966	0.332481	0.896511
	H45	H	0.216222	0.659635	0.091398
	H46	H	0.788739	0.331231	0.093985
	H47	H	0.788920	0.658421	0.896635
	H48	H	0.412250	0.109500	0.592565
	H49	H	0.600813	0.876562	0.588344
	H50	H	0.594868	0.111887	0.390135
	H51	H	0.413327	0.877629	0.394929
	H52	H	0.601326	0.398445	0.113254
	H53	H	0.594892	0.588212	0.879472
	H54	H	0.409143	0.594122	0.113579
	H55	H	0.408976	0.403974	0.878613
	H56	H	0.117630	0.590587	0.408908
	H57	H	0.882969	0.598082	0.580999
	H58	H	0.118738	0.399313	0.587658
	H59	H	0.888608	0.409782	0.406751
	H60	H	0.118389	0.399620	0.586086
	H61	H	0.889589	0.575543	0.582971
	H62	H	0.117651	0.580543	0.399666
	H63	H	0.883516	0.404281	0.394619
	H64	H	0.406600	0.583469	0.111370
	H65	H	0.595132	0.591693	0.878152
	H66	H	0.594803	0.405609	0.108699
	H67	H	0.415059	0.405548	0.880211
	H68	H	0.582836	0.105077	0.404382
	H69	H	0.590720	0.877183	0.593897
	H70	H	0.408842	0.107437	0.581133
	H71	H	0.411354	0.880488	0.409120
	H72	H	0.907569	0.610621	0.086573
	H73	H	0.090218	0.381756	0.088149
	H74	H	0.084266	0.605045	0.906711
	H75	H	0.912492	0.378908	0.899668
	H76	H	0.096518	0.895752	0.613148
	H77	H	0.105467	0.091492	0.373214
	H78	H	0.907188	0.092936	0.612298
	H79	H	0.900178	0.903545	0.375448
	H80	H	0.615762	0.087826	0.910319
	H81	H	0.384641	0.090541	0.085422
	H82	H	0.619578	0.896982	0.086066
	H83	H	0.383162	0.897530	0.901408
	H84	H	0.617325	0.905660	0.084701
	H85	H	0.385814	0.085795	0.084581
	H86	H	0.617265	0.079451	0.895206
	H87	H	0.386344	0.903022	0.909181
	H88	H	0.902873	0.083252	0.611680
	H89	H	0.090907	0.072919	0.384143
	H90	H	0.095659	0.902222	0.610428
	H91	H	0.913697	0.904199	0.380355
	H92	H	0.109825	0.612656	0.907177
	H93	H	0.099769	0.380858	0.083373
	H94	H	0.909369	0.610807	0.089358
	H95	H	0.912216	0.380830	0.905551
	H96	H	0.400902	0.111940	0.589296
	H97	H	0.591182	0.880303	0.583470
	H98	H	0.602162	0.109684	0.408318
	H99	H	0.399941	0.875199	0.401196
	H100	H	0.590923	0.395989	0.110810
	H101	H	0.597409	0.589361	0.877638
	H102	H	0.417851	0.586877	0.109267
	H103	H	0.413846	0.400043	0.878803
	H104	H	0.122401	0.593645	0.396794
	H105	H	0.880994	0.586668	0.601608
	H106	H	0.118493	0.400705	0.586886
	H107	H	0.884234	0.396579	0.406561
	H108	H	0.910906	0.609980	0.086782
	H109	H	0.098087	0.377957	0.093163
	H110	H	0.095724	0.615307	0.885064
	H111	H	0.907282	0.377915	0.902639
	H112	H	0.090392	0.897772	0.609249
	H113	H	0.080991	0.096064	0.379803
	H114	H	0.913266	0.085045	0.607866
	H115	H	0.909357	0.891810	0.375114
	H116	H	0.622349	0.096044	0.896967
	H117	H	0.384289	0.087240	0.090026
	H118	H	0.619896	0.903071	0.092558
	H119	H	0.385026	0.907342	0.900531
	C120	C	0.378966	0.001984	0.617007
	C121	C	0.622732	0.985637	0.616199
	C122	C	0.622258	0.001369	0.372871
	C123	C	0.379224	0.985386	0.372904
	C124	C	0.625028	0.372186	0.003028
	C125	C	0.624464	0.617041	0.986332
	C126	C	0.382209	0.616786	0.003394
	C127	C	0.382463	0.374079	0.986794
	C128	C	0.010301	0.616065	0.373232
	C129	C	0.993581	0.614952	0.615511
	C130	C	0.010219	0.372277	0.616648
	C131	C	0.993555	0.373885	0.373807
	C132	C	0.880973	0.502800	0.116849
	C133	C	0.124614	0.487614	0.116373
	C134	C	0.125925	0.503314	0.871916
	C135	C	0.881876	0.486750	0.873486
	C136	C	0.122487	0.871467	0.502502
	C137	C	0.121385	0.115288	0.486946
	C138	C	0.878952	0.116246	0.502579
	C139	C	0.879244	0.871745	0.485525
	C140	C	0.510038	0.116923	0.872254
	C141	C	0.493435	0.115702	0.115654
	C142	C	0.510421	0.873232	0.116689
	C143	C	0.493107	0.874062	0.874117
	C144	C	0.381731	0.879727	0.672898
	C145	C	0.620431	0.108341	0.670926
	C146	C	0.620325	0.879046	0.318106
	C147	C	0.380561	0.107700	0.316629
	C148	C	0.679562	0.377221	0.879649
	C149	C	0.678735	0.612407	0.109729
	C150	C	0.327057	0.615071	0.880225
	C151	C	0.326668	0.376295	0.109615
	C152	C	0.886143	0.669973	0.375733
	C153	C	0.116651	0.670766	0.612708
	C154	C	0.886374	0.317990	0.615425
	C155	C	0.116478	0.317410	0.375607
	C156	C	0.887016	0.375518	0.672867
	C157	C	0.117923	0.612368	0.668910
	C158	C	0.886974	0.613071	0.317925
	C159	C	0.117574	0.375637	0.318681
	C160	C	0.383845	0.673296	0.880490
	C161	C	0.622824	0.671836	0.109248
	C162	C	0.624339	0.317125	0.880444
	C163	C	0.383332	0.317638	0.109438
	C164	C	0.677350	0.878464	0.376654
	C165	C	0.678486	0.108142	0.613105
	C166	C	0.324912	0.879015	0.614254
	C167	C	0.323526	0.107749	0.375057
	C168	C	0.883791	0.380437	0.172675
	C169	C	0.121893	0.610151	0.170858
	C170	C	0.124144	0.380764	0.817736
	C171	C	0.884335	0.609307	0.817751
	C172	C	0.177547	0.876000	0.379276
	C173	C	0.175856	0.111330	0.609845
	C174	C	0.824667	0.113521	0.379215
	C175	C	0.826033	0.875986	0.609478
	C176	C	0.386694	0.172975	0.874886
	C177	C	0.617119	0.170039	0.113306
	C178	C	0.387637	0.817195	0.115595
	C179	C	0.616912	0.819414	0.875822
	C180	C	0.386640	0.875641	0.171366
	C181	C	0.616569	0.113279	0.171428
	C182	C	0.386156	0.114883	0.817782
	C183	C	0.616689	0.876592	0.818177
	C184	C	0.880012	0.173122	0.380257
	C185	C	0.119337	0.170007	0.609484
	C186	C	0.120458	0.817735	0.379243
	C187	C	0.881459	0.816289	0.608680
	C188	C	0.181878	0.381090	0.875646
	C189	C	0.179186	0.610447	0.112548
	C190	C	0.825923	0.380261	0.114810
	C191	C	0.827006	0.609745	0.876084
	C192	C	0.400954	0.087594	0.594232
	C193	C	0.600574	0.900045	0.595026
	C194	C	0.599900	0.086785	0.394579
	C195	C	0.401691	0.899896	0.395060
	C196	C	0.602271	0.393666	0.088844
	C197	C	0.602073	0.596038	0.900607
	C198	C	0.404500	0.594588	0.089210
	C199	C	0.405694	0.396522	0.901354
	C200	C	0.096847	0.594603	0.395140
	C201	C	0.907006	0.593097	0.594703
	C202	C	0.096327	0.393441	0.593525
	C203	C	0.907671	0.396757	0.396146
	C204	C	0.902897	0.588348	0.094344
	C205	C	0.102477	0.402236	0.094612
	C206	C	0.103344	0.588915	0.893460
	C207	C	0.904109	0.401349	0.895992
	C208	C	0.100608	0.892375	0.588729
	C209	C	0.099011	0.093454	0.401097
	C210	C	0.901242	0.093645	0.588361
	C211	C	0.901193	0.893336	0.399334
	C212	C	0.596145	0.094489	0.894288
	C213	C	0.406997	0.094128	0.093315
	C214	C	0.596761	0.895512	0.094348
	C215	C	0.407008	0.896109	0.896870
	Zn216	Zn	0.500716	-0.005704	0.745412
	Zn217	Zn	0.501088	-0.005957	0.243908
	Zn218	Zn	0.752395	0.494862	-0.005309
	Zn219	Zn	0.253788	0.495722	-0.004952
	Zn220	Zn	0.000887	0.743387	0.493903
	Zn221	Zn	0.000349	0.244696	0.494731
	Zn222	Zn	0.002879	0.494136	0.743839
	Zn223	Zn	0.003075	0.494961	0.245513
	Zn224	Zn	0.502523	0.745679	-0.004712
	Zn225	Zn	0.502602	0.244351	-0.005612
	Zn226	Zn	0.751664	-0.006124	0.493887
	Zn227	Zn	0.250456	-0.006233	0.495159
	N228	N	0.414333	0.957188	0.674788
	N229	N	0.586511	0.031141	0.673056
	N230	N	0.586759	0.956286	0.315770
	N231	N	0.414548	0.030622	0.315164
	N232	N	0.679935	0.410740	0.956891
	N233	N	0.680040	0.579317	0.032390
	N234	N	0.326122	0.580510	0.957440
	N235	N	0.326398	0.410991	0.032498
	N236	N	0.964034	0.672168	0.409014
	N237	N	0.038478	0.672530	0.580084
	N238	N	0.963887	0.315940	0.580886
	N239	N	0.038382	0.316085	0.408928
	N240	N	0.964949	0.408493	0.673719
	N241	N	0.040332	0.578297	0.670848
	N242	N	0.965192	0.580348	0.316364
	N243	N	0.040259	0.410210	0.317578
	N244	N	0.417474	0.674326	0.957932
	N245	N	0.589583	0.674749	0.031608
	N246	N	0.590917	0.314040	0.958137
	N247	N	0.417305	0.316072	0.031983
	N248	N	0.678684	0.955754	0.409998
	N249	N	0.680143	0.031030	0.579965
	N250	N	0.323158	0.956258	0.579970
	N251	N	0.322595	0.030897	0.409504
	N252	N	0.916970	0.457714	0.174292
	N253	N	0.088699	0.532824	0.173352
	N254	N	0.090320	0.457920	0.815137
	N255	N	0.917730	0.531908	0.816129
	N256	N	0.178930	0.908612	0.456936
	N257	N	0.177219	0.077890	0.532613
	N258	N	0.823733	0.078936	0.456357
	N259	N	0.824562	0.909799	0.532053
	N260	N	0.464871	0.174421	0.907893
	N261	N	0.539559	0.171704	0.079393
	N262	N	0.465561	0.815560	0.082276
	N263	N	0.539316	0.817962	0.910229
	N264	N	0.464140	0.909855	0.171933
	N265	N	0.538527	0.080232	0.172934
	N266	N	0.463653	0.080832	0.815870
	N267	N	0.538596	0.909756	0.817044
	N268	N	0.913312	0.174706	0.457897
	N269	N	0.086276	0.172759	0.531699
	N270	N	0.086762	0.814948	0.456880
	N271	N	0.914012	0.813657	0.530519
	N272	N	0.183268	0.458483	0.908498
	N273	N	0.180884	0.533171	0.079405
	N274	N	0.824307	0.457233	0.080560
	N275	N	0.825397	0.532539	0.910226
	O276	O	0.455639	0.448051	0.586378
	H277	H	0.457289	0.444810	0.588253
	H278	H	0.465221	0.448322	0.586221
	O279	O	0.418197	0.468266	0.468131
	H280	H	0.415908	0.467597	0.471813
	H281	H	0.420023	0.469747	0.471034
	O282	O	0.549517	0.387206	0.521886
	H283	H	0.543613	0.388468	0.527778
	H284	H	0.547851	0.379527	0.525637
	O285	O	0.512947	1.432357	0.504159
	H286	H	0.506542	1.432821	0.504140
	H287	H	0.511585	1.432530	0.503416
	O288	O	0.557149	0.381816	0.433624
	H289	H	0.554820	0.392306	0.426129
	H290	H	0.555471	0.375342	0.437448
	O291	O	0.006368	-0.009072	0.991184
	H292	H	0.007601	-0.013391	0.997149
	H293	H	0.000236	-0.009096	0.991413
	O294	O	0.470971	0.446331	0.501027
	H295	H	0.469626	0.433347	0.505078
	H296	H	0.472188	0.442355	0.497838
	O297	O	0.445477	0.450838	0.513066
	H298	H	0.446010	0.449351	0.489112
	H299	H	0.453613	0.456132	0.515036
	O300	O	0.916906	0.998738	0.980584
	H301	H	0.915616	1.007083	0.976817
	H302	H	0.915544	1.003306	0.977604
	O303	O	0.456074	0.547492	0.507697
	H304	H	0.459014	0.543124	0.508808
	H305	H	0.455957	0.546213	0.516510
	O306	O	0.986301	-0.001774	0.995904
	H307	H	0.984603	-0.011445	0.997954
	H308	H	0.978873	-0.002833	0.995463
	O309	O	0.489014	0.482955	0.503917
	H310	H	0.483686	0.483091	0.511990
	H311	H	0.494919	0.486531	0.511875
	O312	O	-0.037453	1.075303	0.952776
	H313	H	-0.036300	1.075259	0.956082
	H314	H	-0.037568	1.080723	0.945619
	O315	O	0.739347	-0.167962	0.787871
	H316	H	0.743935	-0.171046	0.792974
	H317	H	0.739985	-0.168817	0.792337
	O318	O	-0.089887	-0.070124	-0.148301
	H319	H	-0.092185	-0.065074	-0.144520
	H320	H	-0.090635	-0.062576	-0.151030
	O321	O	0.391771	0.486955	0.537183
	H322	H	0.388667	0.480510	0.522808
	H323	H	0.380902	0.483922	0.543631
	O324	O	0.550764	0.459250	0.478328
	H325	H	0.562666	0.457668	0.480063
	H326	H	0.545542	0.472673	0.478316
	O327	O	0.986911	1.015141	0.018791
	H328	H	0.987586	1.010227	0.013360
	H329	H	0.986022	1.013402	0.022579
	O330	O	0.517938	0.366226	0.396253
	H331	H	0.520908	0.367260	0.388366
	H332	H	0.505915	0.365795	0.393586
	O333	O	0.441631	0.510554	0.528586
	H334	H	0.430601	0.506972	0.524987
	H335	H	0.440466	0.500945	0.536097
