data_Molecule from HDF5

_cell_length_a		16.419586
_cell_length_b		16.332103
_cell_length_c		16.510980
_cell_angle_alpha	90.315633
_cell_angle_beta	90.076337
_cell_angle_gamma	90.485985
_symmetry_space_group_name_H-M	'P 1'
_symmetry_Int_Tables_number		1

loop_
	_symmetry_equiv_pos_as_xyz
	x,y,z

loop_
	_atom_site_label
	_atom_site_type_symbol
	_atom_site_fract_x
	_atom_site_fract_y
	_atom_site_fract_z
	H0	H	0.387913	0.832792	0.728928
	H1	H	0.604040	0.149663	0.730555
	H2	H	0.604388	0.833292	0.281873
	H3	H	0.393856	0.150261	0.287139
	H4	H	0.717893	0.383727	0.850548
	H5	H	0.722370	0.601391	0.165377
	H6	H	0.274939	0.593928	0.851620
	H7	H	0.273979	0.384856	0.165727
	H8	H	0.836431	0.711040	0.401943
	H9	H	0.154541	0.711702	0.610735
	H10	H	0.836556	0.267422	0.611792
	H11	H	0.156855	0.274124	0.405914
	H12	H	0.837422	0.381422	0.730319
	H13	H	0.153660	0.597236	0.729992
	H14	H	0.837757	0.597461	0.283197
	H15	H	0.153908	0.386381	0.286142
	H16	H	0.393414	0.709010	0.850133
	H17	H	0.606090	0.717515	0.164583
	H18	H	0.597973	0.271175	0.849385
	H19	H	0.394130	0.271926	0.167415
	H20	H	0.718541	0.832618	0.398798
	H21	H	0.719545	0.149944	0.614119
	H22	H	0.274035	0.832392	0.611497
	H23	H	0.280032	0.151617	0.405658
	H24	H	0.887731	0.330768	0.229548
	H25	H	0.101361	0.650889	0.229805
	H26	H	0.100850	0.332005	0.786247
	H27	H	0.892593	0.650415	0.788436
	H28	H	0.216403	0.886276	0.348483
	H29	H	0.216436	0.094674	0.666984
	H30	H	0.772762	0.097659	0.350331
	H31	H	0.774711	0.887476	0.665387
	H32	H	0.335200	0.206165	0.906920
	H33	H	0.655672	0.214072	0.111898
	H34	H	0.338212	0.767950	0.111656
	H35	H	0.656733	0.772657	0.903259
	H36	H	0.338780	0.881582	0.230069
	H37	H	0.655116	0.099262	0.230181
	H38	H	0.336605	0.092521	0.788568
	H39	H	0.654271	0.886124	0.784357
	H40	H	0.893634	0.209019	0.348440
	H41	H	0.099011	0.210307	0.667105
	H42	H	0.099061	0.769422	0.348660
	H43	H	0.891752	0.772131	0.666953
	H44	H	0.211526	0.329979	0.906180
	H45	H	0.217288	0.651237	0.113253
	H46	H	0.773171	0.331007	0.113234
	H47	H	0.778907	0.651295	0.905586
	H48	H	0.406563	0.107003	0.601263
	H49	H	0.578894	0.877177	0.601305
	H50	H	0.580181	0.104740	0.412780
	H51	H	0.409069	0.875884	0.412467
	H52	H	0.577436	0.399509	0.118784
	H53	H	0.590922	0.583608	0.893614
	H54	H	0.404580	0.570041	0.119215
	H55	H	0.400282	0.400608	0.894650
	H56	H	0.106200	0.575648	0.419470
	H57	H	0.884339	0.574128	0.597485
	H58	H	0.110172	0.393869	0.595225
	H59	H	0.882528	0.397362	0.422251
	H60	H	0.105262	0.409010	0.593525
	H61	H	0.879910	0.579137	0.602708
	H62	H	0.108236	0.580664	0.417471
	H63	H	0.885292	0.404399	0.420635
	H64	H	0.418082	0.579674	0.118437
	H65	H	0.590271	0.574542	0.897569
	H66	H	0.592440	0.400515	0.123803
	H67	H	0.406936	0.400492	0.896374
	H68	H	0.581389	0.099670	0.427231
	H69	H	0.581385	0.881607	0.588218
	H70	H	0.410845	0.105153	0.598896
	H71	H	0.410424	0.879257	0.421783
	H72	H	0.913529	0.604907	0.106501
	H73	H	0.087094	0.375008	0.102290
	H74	H	0.097411	0.607957	0.921429
	H75	H	0.906175	0.376970	0.918579
	H76	H	0.080554	0.897872	0.619526
	H77	H	0.093364	0.083049	0.391791
	H78	H	0.907836	0.079616	0.620064
	H79	H	0.914191	0.898202	0.396697
	H80	H	0.610096	0.083335	0.919979
	H81	H	0.383428	0.076085	0.102701
	H82	H	0.608653	0.900876	0.090870
	H83	H	0.384198	0.904130	0.918047
	H84	H	0.605099	0.912105	0.092965
	H85	H	0.380372	0.084902	0.100585
	H86	H	0.609072	0.077986	0.919215
	H87	H	0.381929	0.899700	0.914263
	H88	H	0.907815	0.077028	0.618935
	H89	H	0.088654	0.076988	0.395570
	H90	H	0.092881	0.899596	0.622946
	H91	H	0.901418	0.897379	0.392291
	H92	H	0.083281	0.607293	0.908772
	H93	H	0.079981	0.378358	0.098642
	H94	H	0.917451	0.598321	0.090274
	H95	H	0.907414	0.377036	0.918532
	H96	H	0.406045	0.105116	0.596382
	H97	H	0.591063	0.874872	0.595832
	H98	H	0.593282	0.107104	0.419978
	H99	H	0.401425	0.875553	0.418777
	H100	H	0.585932	0.412971	0.117584
	H101	H	0.582414	0.580774	0.897880
	H102	H	0.404315	0.585749	0.124233
	H103	H	0.403686	0.394914	0.893637
	H104	H	0.106297	0.580959	0.422600
	H105	H	0.881698	0.581997	0.595301
	H106	H	0.110992	0.404222	0.607403
	H107	H	0.880852	0.400222	0.415054
	H108	H	0.901257	0.604646	0.093400
	H109	H	0.087221	0.377090	0.093887
	H110	H	0.079334	0.601419	0.926434
	H111	H	0.907329	0.377068	0.918944
	H112	H	0.086513	0.909341	0.617437
	H113	H	0.085410	0.084873	0.394539
	H114	H	0.910682	0.078858	0.618696
	H115	H	0.906340	0.908797	0.397430
	H116	H	0.610893	0.081344	0.914750
	H117	H	0.384120	0.079183	0.093367
	H118	H	0.611255	0.906025	0.101688
	H119	H	0.382995	0.897689	0.920076
	C120	C	0.375197	0.000176	0.629512
	C121	C	0.616859	0.983101	0.628120
	C122	C	0.618114	-0.000696	0.386128
	C123	C	0.376347	0.982570	0.386666
	C124	C	0.617257	0.370733	0.016329
	C125	C	0.620591	0.614097	1.000107
	C126	C	0.376800	0.610402	0.016682
	C127	C	0.372442	0.367249	0.999538
	C128	C	0.002944	0.611885	0.386628
	C129	C	0.987097	0.611678	0.629906
	C130	C	0.004070	0.368726	0.630372
	C131	C	0.987656	0.369163	0.386881
	C132	C	0.875875	0.498145	0.129335
	C133	C	0.117355	0.482655	0.130320
	C134	C	0.117012	0.499557	0.887489
	C135	C	0.875692	0.482536	0.887528
	C136	C	0.117930	0.869607	0.515360
	C137	C	0.119911	0.113081	0.499001
	C138	C	0.875820	0.111259	0.515268
	C139	C	0.874295	0.869637	0.499555
	C140	C	0.504444	0.111474	0.886780
	C141	C	0.488066	0.113048	0.130114
	C142	C	0.504668	0.870590	0.128521
	C143	C	0.488034	0.868909	0.885144
	C144	C	0.370956	0.880543	0.689029
	C145	C	0.621348	0.102085	0.689825
	C146	C	0.621573	0.880546	0.323606
	C147	C	0.375149	0.102800	0.327362
	C148	C	0.677541	0.366736	0.897783
	C149	C	0.682020	0.618711	0.118003
	C150	C	0.315902	0.612020	0.898269
	C151	C	0.313869	0.366211	0.118521
	C152	C	0.883991	0.671744	0.383720
	C153	C	0.106770	0.672132	0.630538
	C154	C	0.884634	0.307353	0.631145
	C155	C	0.108204	0.311792	0.386101
	C156	C	0.884799	0.364637	0.689912
	C157	C	0.106516	0.615024	0.689507
	C158	C	0.884693	0.614891	0.324904
	C159	C	0.106919	0.368010	0.326821
	C160	C	0.374802	0.669201	0.897530
	C161	C	0.623774	0.676538	0.117797
	C162	C	0.617716	0.310590	0.897080
	C163	C	0.373523	0.310122	0.119401
	C164	C	0.678450	0.880026	0.381790
	C165	C	0.678881	0.102332	0.631805
	C166	C	0.314106	0.880226	0.630664
	C167	C	0.318453	0.103426	0.386126
	C168	C	0.870713	0.378694	0.189726
	C169	C	0.119928	0.602719	0.190214
	C170	C	0.118226	0.379470	0.827337
	C171	C	0.874520	0.602682	0.828414
	C172	C	0.176942	0.867629	0.396098
	C173	C	0.177225	0.113711	0.619159
	C174	C	0.814068	0.114644	0.397280
	C175	C	0.814340	0.868392	0.618279
	C176	C	0.383686	0.168014	0.887493
	C177	C	0.607759	0.174187	0.131527
	C178	C	0.385915	0.808234	0.130466
	C179	C	0.608258	0.811142	0.883898
	C180	C	0.386298	0.865059	0.189436
	C181	C	0.607723	0.116835	0.189897
	C182	C	0.384368	0.111875	0.827961
	C183	C	0.607031	0.867422	0.824718
	C184	C	0.874018	0.170447	0.396366
	C185	C	0.118973	0.171296	0.619230
	C186	C	0.118429	0.809453	0.396120
	C187	C	0.872827	0.811274	0.619066
	C188	C	0.173628	0.378508	0.887019
	C189	C	0.177377	0.603169	0.132028
	C190	C	0.813529	0.378751	0.131672
	C191	C	0.817800	0.603126	0.886698
	C192	C	0.400602	0.084030	0.605700
	C193	C	0.590951	0.899632	0.602328
	C194	C	0.592339	0.082217	0.412286
	C195	C	0.400019	0.898914	0.410591
	C196	C	0.592306	0.396911	0.098695
	C197	C	0.595101	0.587414	0.917719
	C198	C	0.402095	0.585744	0.099252
	C199	C	0.396680	0.391697	0.916395
	C200	C	0.085315	0.586322	0.412390
	C201	C	0.903743	0.585779	0.605383
	C202	C	0.087077	0.394921	0.605782
	C203	C	0.904657	0.393519	0.411931
	C204	C	0.903009	0.581064	0.104070
	C205	C	0.091988	0.398712	0.105334
	C206	C	0.093538	0.583639	0.911912
	C207	C	0.899919	0.398892	0.911851
	C208	C	0.093725	0.894863	0.598165
	C209	C	0.096048	0.088748	0.415537
	C210	C	0.901420	0.085955	0.597582
	C211	C	0.899707	0.894192	0.417029
	C212	C	0.588226	0.087755	0.910872
	C213	C	0.404614	0.087488	0.106014
	C214	C	0.586893	0.898372	0.102655
	C215	C	0.404808	0.893060	0.910317
	Zn216	Zn	0.496402	-0.008933	0.757539
	Zn217	Zn	0.497070	-0.009032	0.257968
	Zn218	Zn	0.747835	0.490866	0.008575
	Zn219	Zn	0.245680	0.490702	0.008726
	Zn220	Zn	-0.005247	0.740460	0.508331
	Zn221	Zn	-0.003533	0.240558	0.507723
	Zn222	Zn	-0.004076	0.490761	0.759115
	Zn223	Zn	-0.004709	0.490274	0.258469
	Zn224	Zn	0.497307	0.741322	0.007732
	Zn225	Zn	0.495742	0.240809	0.007855
	Zn226	Zn	0.745730	-0.009067	0.507417
	Zn227	Zn	0.247641	-0.008868	0.507434
	N228	N	0.408272	0.956162	0.688327
	N229	N	0.583236	0.026915	0.687526
	N230	N	0.584581	0.955751	0.326258
	N231	N	0.410284	0.026803	0.327464
	N232	N	0.677293	0.403685	0.972719
	N233	N	0.680105	0.580331	0.043692
	N234	N	0.317055	0.576275	0.973318
	N235	N	0.312965	0.400884	0.042873
	N236	N	0.958405	0.669819	0.421700
	N237	N	0.031384	0.670308	0.594370
	N238	N	0.959857	0.309873	0.594647
	N239	N	0.033086	0.312144	0.422707
	N240	N	0.960100	0.401957	0.689531
	N241	N	0.031149	0.578135	0.688998
	N242	N	0.959682	0.578359	0.326755
	N243	N	0.030985	0.402634	0.327031
	N244	N	0.412290	0.668108	0.971857
	N245	N	0.586349	0.673624	0.043495
	N246	N	0.580867	0.312845	0.971726
	N247	N	0.409099	0.310693	0.044209
	N248	N	0.676330	0.954797	0.420044
	N249	N	0.675797	0.027384	0.593775
	N250	N	0.316662	0.955544	0.594083
	N251	N	0.318830	0.027735	0.422079
	N252	N	0.908641	0.454078	0.188443
	N253	N	0.083482	0.526772	0.189308
	N254	N	0.083673	0.455659	0.827470
	N255	N	0.909506	0.526524	0.828559
	N256	N	0.176678	0.904303	0.471238
	N257	N	0.178087	0.078604	0.543325
	N258	N	0.815091	0.078701	0.472392
	N259	N	0.814780	0.903337	0.542817
	N260	N	0.459407	0.168007	0.923207
	N261	N	0.532450	0.171969	0.094972
	N262	N	0.460868	0.811508	0.093457
	N263	N	0.533177	0.811715	0.920597
	N264	N	0.461033	0.903249	0.188095
	N265	N	0.532336	0.079629	0.189136
	N266	N	0.460609	0.077584	0.827366
	N267	N	0.531085	0.902243	0.825014
	N268	N	0.911931	0.168256	0.470500
	N269	N	0.084161	0.171263	0.543462
	N270	N	0.082548	0.810438	0.471304
	N271	N	0.909123	0.811600	0.544085
	N272	N	0.172945	0.454156	0.923998
	N273	N	0.176035	0.527282	0.095535
	N274	N	0.816515	0.454103	0.095046
	N275	N	0.818471	0.527437	0.922737
	O276	O	0.507731	0.666637	0.298834
	H277	H	0.515645	0.681560	0.281687
	H278	H	0.519293	0.653113	0.296555
	O279	O	0.532074	0.466796	0.409551
	H280	H	0.533524	0.444628	0.410555
	H281	H	0.550501	0.481618	0.395282
	O282	O	0.541908	0.521798	0.330304
	H283	H	0.528533	0.515134	0.324002
	H284	H	0.549374	0.516842	0.326200
	O285	O	1.140907	1.217037	0.225099
	H286	H	1.167165	1.214223	0.197413
	H287	H	1.161216	1.249188	0.254572
	O288	O	0.458831	0.646893	0.583810
	H289	H	0.457756	0.645364	0.573853
	H290	H	0.472352	0.648110	0.565484
	O291	O	0.303347	0.462375	0.705253
	H292	H	0.300183	0.476259	0.687985
	H293	H	0.323520	0.474774	0.716703
	O294	O	1.196354	0.813309	0.808986
	H295	H	1.189390	0.832363	0.817592
	H296	H	1.202554	0.821440	0.815738
	O297	O	0.288069	0.698928	0.485586
	H298	H	0.282060	0.708160	0.477880
	H299	H	0.281188	0.703454	0.458685
	O300	O	0.512066	0.703375	0.613620
	H301	H	0.491167	0.709908	0.602545
	H302	H	0.506433	0.694638	0.601398
	O303	O	0.629718	0.602748	0.442972
	H304	H	0.641578	0.599818	0.458651
	H305	H	0.649143	0.576701	0.442922
	O306	O	0.182465	0.068900	0.983215
	H307	H	0.185904	0.078496	0.983377
	H308	H	0.169507	0.069214	0.967127
	O309	O	1.189081	0.030450	0.128244
	H310	H	1.196574	0.026962	0.126349
	H311	H	1.197667	0.048294	0.128761
	O312	O	0.648271	0.308960	0.349243
	H313	H	0.644234	0.305836	0.375466
	H314	H	0.633123	0.295557	0.356813
	O315	O	0.299984	0.637260	0.654318
	H316	H	0.278522	0.646067	0.665203
	H317	H	0.318425	0.641159	0.627021
	O318	O	0.037313	0.043715	-0.142478
	H319	H	0.031101	0.059094	-0.146390
	H320	H	0.038729	0.035325	-0.123949
	O321	O	0.627848	0.382251	0.564779
	H322	H	0.622250	0.400909	0.567631
	H323	H	0.658826	0.399984	0.576028
	O324	O	0.283869	0.288119	0.536533
	H325	H	0.268638	0.263604	0.545687
	H326	H	0.279933	0.283504	0.565161
	O327	O	0.506252	0.325253	0.518608
	H328	H	0.499477	0.317022	0.506241
	H329	H	0.492399	0.321381	0.531085
	O330	O	-0.056349	1.149946	0.865961
	H331	H	-0.063730	1.147265	0.852214
	H332	H	-0.072253	1.150192	0.870196
	O333	O	-0.100324	0.912418	0.106480
	H334	H	-0.087668	0.919895	0.117136
	H335	H	-0.094092	0.914776	0.119610
	O336	O	1.086067	1.138989	0.099326
	H337	H	1.092824	1.155301	0.095981
	H338	H	1.099990	1.142839	0.090084
	O339	O	0.018690	0.834029	0.975713
	H340	H	-0.000133	0.839218	0.994510
	H341	H	0.011334	0.825311	0.969147
	O342	O	0.039503	0.921358	0.090289
	H343	H	0.031123	0.923620	0.093703
	H344	H	0.050407	0.936688	0.098416
	O345	O	0.019380	0.124458	1.148275
	H346	H	0.035308	0.151559	1.162243
	H347	H	0.044873	0.117528	1.153563
	O348	O	0.713970	0.710869	0.533127
	H349	H	0.719706	0.707157	0.546444
	H350	H	0.729265	0.737617	0.527681
	O351	O	1.043861	1.017474	-0.120595
	H352	H	1.033319	1.025397	-0.111565
	H353	H	1.035369	1.026471	-0.119217
	O354	O	1.076797	1.008616	1.069525
	H355	H	1.071002	0.995236	1.065784
	H356	H	1.088050	1.013343	1.065505
	O357	O	0.029751	-0.120912	-0.154687
	H358	H	0.044467	-0.126214	-0.152445
	H359	H	0.029959	-0.133441	-0.165306
	O360	O	0.557576	0.473750	0.672145
	H361	H	0.571201	0.488722	0.679649
	H362	H	0.555564	0.487867	0.676058
	O363	O	1.092540	-0.091031	0.103429
	H364	H	1.085549	-0.086062	0.101449
	H365	H	1.092034	-0.095812	0.093070
	O366	O	0.017209	0.179269	0.987456
	H367	H	0.007814	0.176894	0.973288
	H368	H	0.009474	0.185275	1.004051
	O369	O	0.906537	-0.049665	1.191988
	H370	H	0.923193	-0.027854	1.197204
	H371	H	0.908825	-0.051994	1.180176
	O372	O	0.321229	0.377740	0.365925
	H373	H	0.325975	0.385026	0.380622
	H374	H	0.348363	0.381294	0.386105
	O375	O	0.391147	-0.514801	0.505930
	H376	H	0.394751	-0.516045	0.515614
	H377	H	0.404291	-0.517784	0.520812
	O378	O	0.641793	0.479306	0.404931
	H379	H	0.638699	0.453938	0.405950
	H380	H	0.646347	0.469907	0.391321
	O381	O	-0.076037	0.912655	0.042426
	H382	H	-0.076528	0.925526	0.037924
	H383	H	-0.058763	0.919747	0.045021
	O384	O	0.652694	0.521244	0.504941
	H385	H	0.658273	0.523867	0.512900
	H386	H	0.658824	0.521167	0.498221
	O387	O	0.504489	0.326989	0.372875
	H388	H	0.502785	0.322675	0.352145
	H389	H	0.488136	0.339712	0.378602
	O390	O	0.972655	1.040495	0.121028
	H391	H	0.982662	1.045721	0.112238
	H392	H	0.977321	1.025555	0.129932
	O393	O	1.300515	0.300389	0.690034
	H394	H	1.300917	0.347480	0.701288
	H395	H	1.333048	0.289024	0.695911
	O396	O	0.715261	0.516568	0.727462
	H397	H	0.715711	0.557019	0.726853
	H398	H	0.740429	0.523306	0.747785
	O399	O	0.615079	0.452878	0.454080
	H400	H	0.630624	0.453615	0.460077
	H401	H	0.598156	0.447900	0.473154
	O402	O	0.824225	1.121367	-0.026037
	H403	H	0.819866	1.119517	-0.021915
	H404	H	0.820287	1.130240	-0.018851
	O405	O	0.307920	0.464108	0.361144
	H406	H	0.282931	0.482832	0.354483
	H407	H	0.300164	0.444066	0.396018
	O408	O	0.316531	0.664408	0.325904
	H409	H	0.350001	0.671470	0.324315
	H410	H	0.318140	0.631777	0.316599
	O411	O	0.944612	0.863099	0.937382
	H412	H	0.960867	0.864230	0.958806
	H413	H	0.950225	0.875272	0.922185
	O414	O	0.380133	0.486436	0.297646
	H415	H	0.357720	0.498564	0.298103
	H416	H	0.378386	0.486972	0.319477
	O417	O	-0.091261	0.868170	1.008108
	H418	H	-0.094132	0.869339	1.002878
	H419	H	-0.097705	0.861693	1.001181
	O420	O	-0.149663	1.019529	0.925444
	H421	H	-0.153562	1.015240	0.951621
	H422	H	-0.157207	1.000485	0.927261
	O423	O	-0.185764	0.845072	0.030828
	H424	H	-0.193440	0.845781	0.045095
	H425	H	-0.194082	0.838245	0.067313
	O426	O	0.515815	0.602960	0.701949
	H427	H	0.521228	0.623493	0.709624
	H428	H	0.502724	0.612792	0.692418
	O429	O	0.687333	0.675809	0.695971
	H430	H	0.660610	0.687553	0.713647
	H431	H	0.671482	0.682817	0.663867
	O432	O	0.473572	0.281150	0.713935
	H433	H	0.479612	0.264354	0.727438
	H434	H	0.487787	0.280789	0.704316
	O435	O	0.112145	-0.108871	-0.062083
	H436	H	0.098967	-0.116468	-0.052458
	H437	H	0.103630	-0.117999	-0.070546
	O438	O	-0.132634	1.046058	0.927357
	H439	H	-0.124658	1.036718	0.937867
	H440	H	-0.123806	1.062199	0.920343
	O441	O	0.541715	0.297860	0.560603
	H442	H	0.539674	0.322928	0.564694
	H443	H	0.534544	0.295849	0.549847
