data_Molecule from HDF5

_cell_length_a		16.326929
_cell_length_b		16.305653
_cell_length_c		16.269029
_cell_angle_alpha	90.053804
_cell_angle_beta	90.060843
_cell_angle_gamma	90.207289
_symmetry_space_group_name_H-M	'P 1'
_symmetry_Int_Tables_number		1

loop_
	_symmetry_equiv_pos_as_xyz
	x,y,z

loop_
	_atom_site_label
	_atom_site_type_symbol
	_atom_site_fract_x
	_atom_site_fract_y
	_atom_site_fract_z
	H0	H	0.397800	0.845371	0.713678
	H1	H	0.596370	0.172516	0.714408
	H2	H	0.594687	0.845229	0.286149
	H3	H	0.401338	0.172429	0.286370
	H4	H	0.711056	0.409349	0.837052
	H5	H	0.710902	0.606959	0.164532
	H6	H	0.282949	0.605556	0.837577
	H7	H	0.282856	0.408642	0.164422
	H8	H	0.834315	0.722976	0.400791
	H9	H	0.161226	0.724594	0.599609
	H10	H	0.834720	0.293063	0.599347
	H11	H	0.161643	0.295279	0.403334
	H12	H	0.834596	0.410424	0.715047
	H13	H	0.161114	0.609311	0.716841
	H14	H	0.834496	0.605578	0.285851
	H15	H	0.161073	0.410445	0.285424
	H16	H	0.397419	0.722165	0.837191
	H17	H	0.595469	0.723228	0.164621
	H18	H	0.594329	0.293901	0.836606
	H19	H	0.398334	0.292737	0.163843
	H20	H	0.713518	0.846159	0.399220
	H21	H	0.713936	0.171602	0.599748
	H22	H	0.281157	0.846431	0.598535
	H23	H	0.283021	0.172351	0.400505
	H24	H	0.898819	0.345200	0.214909
	H25	H	0.095815	0.672159	0.214777
	H26	H	0.095621	0.345712	0.785781
	H27	H	0.900370	0.672682	0.786737
	H28	H	0.211483	0.910411	0.336666
	H29	H	0.212082	0.107522	0.664169
	H30	H	0.783500	0.106891	0.337022
	H31	H	0.782036	0.908809	0.664363
	H32	H	0.334260	0.223337	0.899909
	H33	H	0.659434	0.222915	0.098753
	H34	H	0.333859	0.793077	0.098910
	H35	H	0.660667	0.794266	0.902000
	H36	H	0.334287	0.908703	0.215952
	H37	H	0.660829	0.107064	0.214163
	H38	H	0.334245	0.106021	0.785717
	H39	H	0.660465	0.910798	0.786303
	H40	H	0.899238	0.222893	0.337089
	H41	H	0.096620	0.222648	0.664466
	H42	H	0.094546	0.795669	0.335682
	H43	H	0.897631	0.792287	0.664238
	H44	H	0.211220	0.345607	0.901057
	H45	H	0.214267	0.670849	0.101157
	H46	H	0.781788	0.345049	0.100069
	H47	H	0.782171	0.671674	0.901090
	H48	H	0.411725	0.121670	0.587536
	H49	H	0.586234	0.894774	0.589480
	H50	H	0.596446	0.125246	0.410481
	H51	H	0.398180	0.889105	0.398370
	H52	H	0.593478	0.417284	0.117639
	H53	H	0.593588	0.599167	0.883952
	H54	H	0.398903	0.600165	0.118847
	H55	H	0.408175	0.414353	0.885457
	H56	H	0.115724	0.605681	0.405029
	H57	H	0.882636	0.594600	0.600892
	H58	H	0.111444	0.423586	0.593520
	H59	H	0.879127	0.403578	0.408852
	H60	H	0.116657	0.412672	0.600918
	H61	H	0.879809	0.609145	0.592983
	H62	H	0.112558	0.602848	0.411389
	H63	H	0.886310	0.420784	0.415961
	H64	H	0.407572	0.595355	0.114866
	H65	H	0.586433	0.598527	0.885581
	H66	H	0.585537	0.418108	0.115386
	H67	H	0.401699	0.411316	0.882563
	H68	H	0.590852	0.126712	0.402394
	H69	H	0.594911	0.892739	0.591569
	H70	H	0.395407	0.127363	0.589589
	H71	H	0.414963	0.896195	0.407695
	H72	H	0.905960	0.624085	0.092818
	H73	H	0.090474	0.389941	0.098143
	H74	H	0.096044	0.624818	0.912572
	H75	H	0.914202	0.394177	0.901102
	H76	H	0.090679	0.912404	0.618043
	H77	H	0.089918	0.091624	0.386534
	H78	H	0.902551	0.100338	0.616916
	H79	H	0.905333	0.915600	0.385164
	H80	H	0.613548	0.103610	0.909743
	H81	H	0.377444	0.106466	0.098475
	H82	H	0.613848	0.913294	0.095124
	H83	H	0.379725	0.912733	0.905897
	H84	H	0.612352	0.914601	0.090483
	H85	H	0.381819	0.102140	0.086266
	H86	H	0.612958	0.098713	0.907879
	H87	H	0.380874	0.914012	0.908979
	H88	H	0.907290	0.099577	0.616462
	H89	H	0.082011	0.108364	0.384250
	H90	H	0.092528	0.919687	0.615413
	H91	H	0.903841	0.914929	0.384427
	H92	H	0.091529	0.627093	0.902642
	H93	H	0.084537	0.394275	0.091886
	H94	H	0.903347	0.623818	0.091143
	H95	H	0.903262	0.396103	0.919834
	H96	H	0.405869	0.127663	0.602585
	H97	H	0.588024	0.891535	0.597531
	H98	H	0.587107	0.122898	0.410710
	H99	H	0.397753	0.893552	0.418482
	H100	H	0.589455	0.410063	0.118036
	H101	H	0.589411	0.605596	0.883478
	H102	H	0.408279	0.605638	0.118470
	H103	H	0.402132	0.418685	0.884245
	H104	H	0.113114	0.598132	0.405316
	H105	H	0.886319	0.596182	0.584725
	H106	H	0.113039	0.411183	0.587144
	H107	H	0.880381	0.419602	0.396441
	H108	H	0.903102	0.625022	0.094518
	H109	H	0.093571	0.392237	0.089595
	H110	H	0.085441	0.623283	0.910659
	H111	H	0.893155	0.388106	0.902502
	H112	H	0.084828	0.917377	0.615693
	H113	H	0.099613	0.105897	0.380475
	H114	H	0.905933	0.103628	0.618003
	H115	H	0.903627	0.916831	0.384615
	H116	H	0.614208	0.102407	0.904604
	H117	H	0.381224	0.094051	0.096669
	H118	H	0.613121	0.918603	0.093911
	H119	H	0.381728	0.915577	0.905736
	C120	C	0.375665	0.017606	0.621608
	C121	C	0.619005	1.000735	0.621697
	C122	C	0.619326	0.017155	0.378917
	C123	C	0.375854	1.000801	0.379343
	C124	C	0.618211	0.386452	0.008963
	C125	C	0.618575	0.629998	0.992260
	C126	C	0.376196	0.628958	0.009269
	C127	C	0.375181	0.385853	0.992254
	C128	C	0.006032	0.630444	0.378592
	C129	C	0.990202	0.629948	0.621763
	C130	C	0.006195	0.386749	0.622613
	C131	C	0.989928	0.386762	0.378870
	C132	C	0.875365	0.516744	0.122153
	C133	C	0.118609	0.500077	0.122070
	C134	C	0.118891	0.517010	0.879688
	C135	C	0.875044	0.500504	0.878496
	C136	C	0.118025	0.887678	0.508210
	C137	C	0.119015	0.130360	0.492045
	C138	C	0.876787	0.129659	0.508928
	C139	C	0.875010	0.886114	0.492625
	C140	C	0.505538	0.129656	0.878915
	C141	C	0.488539	0.129249	0.121884
	C142	C	0.505265	0.886722	0.121821
	C143	C	0.488811	0.886071	0.878138
	C144	C	0.377550	0.894451	0.676274
	C145	C	0.616894	0.123518	0.676969
	C146	C	0.615729	0.893974	0.323931
	C147	C	0.379533	0.123775	0.323957
	C148	C	0.673098	0.389069	0.885844
	C149	C	0.673779	0.627892	0.115570
	C150	C	0.320720	0.626295	0.886320
	C151	C	0.320132	0.387997	0.115145
	C152	C	0.883203	0.685118	0.380770
	C153	C	0.112672	0.686435	0.619923
	C154	C	0.883346	0.331069	0.619981
	C155	C	0.112667	0.332508	0.382120
	C156	C	0.883161	0.389478	0.677270
	C157	C	0.112641	0.628867	0.678083
	C158	C	0.883066	0.626614	0.323770
	C159	C	0.112552	0.389825	0.323796
	C160	C	0.377663	0.684215	0.886202
	C161	C	0.616339	0.685578	0.115628
	C162	C	0.615282	0.331562	0.885602
	C163	C	0.377705	0.330612	0.114950
	C164	C	0.674431	0.894360	0.380299
	C165	C	0.674893	0.123355	0.619616
	C166	C	0.319599	0.894781	0.618898
	C167	C	0.321237	0.123842	0.381081
	C168	C	0.878325	0.393915	0.176932
	C169	C	0.116762	0.623152	0.177371
	C170	C	0.115792	0.394248	0.824329
	C171	C	0.878750	0.623458	0.823752
	C172	C	0.173366	0.890147	0.385329
	C173	C	0.174432	0.128065	0.615378
	C174	C	0.821484	0.127363	0.385767
	C175	C	0.819701	0.888204	0.615492
	C176	C	0.382956	0.184964	0.880380
	C177	C	0.611171	0.185191	0.119752
	C178	C	0.382542	0.831100	0.119641
	C179	C	0.611580	0.831548	0.881116
	C180	C	0.382945	0.888625	0.177751
	C181	C	0.611725	0.127055	0.176577
	C182	C	0.382983	0.126901	0.823457
	C183	C	0.611546	0.889461	0.823292
	C184	C	0.879281	0.184885	0.385896
	C185	C	0.117068	0.185175	0.615594
	C186	C	0.115037	0.833284	0.384895
	C187	C	0.877211	0.830403	0.615362
	C188	C	0.173488	0.394182	0.881384
	C189	C	0.175746	0.622288	0.121101
	C190	C	0.819742	0.393899	0.120288
	C191	C	0.819973	0.622916	0.880587
	C192	C	0.397768	0.103307	0.599656
	C193	C	0.596418	0.915129	0.599277
	C194	C	0.597937	0.102660	0.401325
	C195	C	0.397202	0.915132	0.401658
	C196	C	0.596007	0.408713	0.094836
	C197	C	0.596483	0.607508	0.906639
	C198	C	0.398461	0.607016	0.095240
	C199	C	0.397456	0.408218	0.906143
	C200	C	0.091807	0.608662	0.400603
	C201	C	0.904938	0.606779	0.599331
	C202	C	0.091502	0.409159	0.600538
	C203	C	0.904159	0.408248	0.400750
	C204	C	0.897740	0.602309	0.099446
	C205	C	0.096023	0.414266	0.099645
	C206	C	0.097261	0.602765	0.902039
	C207	C	0.897075	0.414888	0.901048
	C208	C	0.095779	0.910057	0.594302
	C209	C	0.097084	0.108387	0.406107
	C210	C	0.898723	0.107477	0.594967
	C211	C	0.897602	0.909104	0.406847
	C212	C	0.591404	0.108042	0.901155
	C213	C	0.402520	0.107257	0.100172
	C214	C	0.590938	0.908940	0.099505
	C215	C	0.402769	0.907888	0.900259
	Zn216	Zn	0.497181	0.008916	0.749956
	Zn217	Zn	0.497394	0.008523	0.250780
	Zn218	Zn	0.746800	0.508315	0.001166
	Zn219	Zn	0.247378	0.507982	0.000722
	Zn220	Zn	-0.002468	0.758583	0.500300
	Zn221	Zn	-0.001775	0.258056	0.501088
	Zn222	Zn	-0.001936	0.509022	0.750947
	Zn223	Zn	-0.002352	0.508712	0.250270
	Zn224	Zn	0.497059	0.757687	0.000295
	Zn225	Zn	0.496781	0.257799	0.000646
	Zn226	Zn	0.747669	0.008587	0.500434
	Zn227	Zn	0.246642	0.009431	0.500335
	N228	N	0.411874	0.971690	0.677837
	N229	N	0.582869	0.046266	0.678335
	N230	N	0.582185	0.971239	0.323054
	N231	N	0.412994	0.046486	0.323179
	N232	N	0.675032	0.422408	0.963564
	N233	N	0.675339	0.594092	0.038026
	N234	N	0.319805	0.592471	0.963886
	N235	N	0.318570	0.421793	0.037688
	N236	N	0.960639	0.687368	0.414097
	N237	N	0.035523	0.687316	0.585907
	N238	N	0.960849	0.329175	0.586800
	N239	N	0.035378	0.330444	0.415591
	N240	N	0.960363	0.423374	0.678878
	N241	N	0.035624	0.594264	0.679104
	N242	N	0.960489	0.593499	0.322206
	N243	N	0.035124	0.422756	0.321619
	N244	N	0.411493	0.685873	0.963629
	N245	N	0.582931	0.687198	0.037957
	N246	N	0.581849	0.329940	0.963123
	N247	N	0.411347	0.329343	0.037476
	N248	N	0.676811	0.971784	0.414006
	N249	N	0.676257	0.045950	0.585957
	N250	N	0.318198	0.972215	0.585551
	N251	N	0.318651	0.046285	0.414605
	N252	N	0.912081	0.471289	0.178243
	N253	N	0.081751	0.546237	0.177835
	N254	N	0.082740	0.471682	0.823095
	N255	N	0.912301	0.546155	0.822335
	N256	N	0.175257	0.923459	0.463100
	N257	N	0.175679	0.094490	0.537544
	N258	N	0.819840	0.093776	0.463342
	N259	N	0.818304	0.922166	0.538032
	N260	N	0.460357	0.186854	0.914328
	N261	N	0.533821	0.186680	0.086227
	N262	N	0.459686	0.829913	0.085570
	N263	N	0.534170	0.829369	0.914377
	N264	N	0.460340	0.922193	0.179430
	N265	N	0.534300	0.093320	0.178256
	N266	N	0.460038	0.093200	0.822556
	N267	N	0.533969	0.922382	0.821255
	N268	N	0.912827	0.186557	0.463557
	N269	N	0.083316	0.186654	0.538213
	N270	N	0.081565	0.831635	0.462459
	N271	N	0.910548	0.828772	0.537778
	N272	N	0.175422	0.471474	0.915360
	N273	N	0.176909	0.544832	0.087453
	N274	N	0.818117	0.471297	0.086547
	N275	N	0.817718	0.545552	0.914104
	O276	O	0.613232	0.591463	0.548810
	H277	H	0.623154	0.597282	0.538782
	H278	H	0.611095	0.592201	0.542287
	O279	O	-0.032885	0.031366	0.063496
	H280	H	-0.030702	0.032298	0.071715
	H281	H	-0.033002	0.036306	0.058678
	O282	O	0.965014	0.038312	0.988830
	H283	H	0.964766	0.045692	0.981493
	H284	H	0.964358	0.036564	0.978952
	O285	O	0.582377	0.589452	0.556776
	H286	H	0.586123	0.598550	0.566174
	H287	H	0.588812	0.586591	0.558207
	O288	O	1.010798	-0.021808	-0.038118
	H289	H	1.015329	-0.022936	-0.028694
	H290	H	1.019919	-0.026366	-0.038602
	O291	O	-0.469291	0.598241	-0.445097
	H292	H	-0.473018	0.593819	-0.451748
	H293	H	-0.473413	0.610710	-0.432140
	O294	O	0.588690	0.609962	0.590906
	H295	H	0.590474	0.607509	0.597805
	H296	H	0.592587	0.610899	0.583810
	O297	O	-0.047878	1.017177	0.030371
	H298	H	-0.055619	1.009374	0.025944
	H299	H	-0.051055	1.005870	0.032033
	O300	O	0.997634	0.008794	0.997634
	H301	H	0.998125	0.018231	0.996213
	H302	H	0.990564	0.009588	1.010593
	O303	O	0.980750	-0.006478	0.046590
	H304	H	0.985485	-0.002025	0.051074
	H305	H	0.962207	-0.004737	0.045851
	O306	O	-0.001656	1.000328	0.995140
	H307	H	-0.001593	0.998963	0.996742
	H308	H	-0.001445	1.001899	0.992700
	O309	O	0.579635	0.635955	0.542767
	H310	H	0.576173	0.639581	0.541871
	H311	H	0.579429	0.634359	0.554106
