data_Molecule from HDF5

_cell_length_a		16.228583
_cell_length_b		16.395452
_cell_length_c		16.196211
_cell_angle_alpha	89.846818
_cell_angle_beta	90.192465
_cell_angle_gamma	90.039620
_symmetry_space_group_name_H-M	'P 1'
_symmetry_Int_Tables_number		1

loop_
	_symmetry_equiv_pos_as_xyz
	x,y,z

loop_
	_atom_site_label
	_atom_site_type_symbol
	_atom_site_fract_x
	_atom_site_fract_y
	_atom_site_fract_z
	H0	H	0.408527	0.825692	0.721627
	H1	H	0.606885	0.150675	0.719400
	H2	H	0.603138	0.824349	0.291828
	H3	H	0.407246	0.150604	0.289388
	H4	H	0.721130	0.391801	0.841574
	H5	H	0.720497	0.586352	0.170571
	H6	H	0.292781	0.585523	0.841352
	H7	H	0.294786	0.389790	0.170874
	H8	H	0.844574	0.702116	0.405592
	H9	H	0.171334	0.701487	0.608290
	H10	H	0.844301	0.269912	0.608076
	H11	H	0.171013	0.270934	0.408526
	H12	H	0.842771	0.388221	0.719757
	H13	H	0.172686	0.580545	0.718559
	H14	H	0.843401	0.583937	0.293365
	H15	H	0.172006	0.387984	0.293757
	H16	H	0.405952	0.704058	0.841711
	H17	H	0.606872	0.702505	0.169438
	H18	H	0.608199	0.272972	0.842297
	H19	H	0.407597	0.272028	0.169430
	H20	H	0.720813	0.823518	0.407899
	H21	H	0.725028	0.148484	0.605635
	H22	H	0.294452	0.823128	0.602728
	H23	H	0.289654	0.148991	0.404141
	H24	H	0.908547	0.324223	0.221712
	H25	H	0.106514	0.649971	0.222240
	H26	H	0.105443	0.323466	0.793806
	H27	H	0.908302	0.649034	0.788845
	H28	H	0.219695	0.888748	0.340845
	H29	H	0.222596	0.083146	0.670193
	H30	H	0.794455	0.083610	0.341533
	H31	H	0.793601	0.886471	0.671690
	H32	H	0.344093	0.205133	0.902704
	H33	H	0.670474	0.204470	0.107276
	H34	H	0.344478	0.771843	0.104640
	H35	H	0.670736	0.772667	0.904997
	H36	H	0.342087	0.892179	0.215619
	H37	H	0.670957	0.087098	0.221028
	H38	H	0.342736	0.085380	0.791349
	H39	H	0.672094	0.891557	0.793355
	H40	H	0.905018	0.204097	0.344187
	H41	H	0.108805	0.200855	0.671064
	H42	H	0.108049	0.770971	0.342765
	H43	H	0.908728	0.770276	0.671019
	H44	H	0.224175	0.325403	0.907127
	H45	H	0.222571	0.650384	0.104460
	H46	H	0.790834	0.325165	0.106106
	H47	H	0.793005	0.650882	0.906306
	H48	H	0.409305	0.102602	0.590173
	H49	H	0.588418	0.874651	0.601167
	H50	H	0.598524	0.102685	0.409878
	H51	H	0.411503	0.869598	0.404178
	H52	H	0.595460	0.394350	0.121709
	H53	H	0.605236	0.573330	0.888999
	H54	H	0.415642	0.589617	0.125740
	H55	H	0.420835	0.405468	0.893518
	H56	H	0.121315	0.580852	0.428492
	H57	H	0.891442	0.576311	0.598418
	H58	H	0.122770	0.389549	0.592183
	H59	H	0.895561	0.394793	0.427821
	H60	H	0.123004	0.399701	0.603277
	H61	H	0.889382	0.581106	0.600644
	H62	H	0.123377	0.568087	0.409239
	H63	H	0.891123	0.404333	0.406456
	H64	H	0.409299	0.577060	0.122746
	H65	H	0.588884	0.583367	0.891012
	H66	H	0.601975	0.392057	0.124576
	H67	H	0.421120	0.385959	0.888199
	H68	H	0.599862	0.101139	0.416295
	H69	H	0.605912	0.872985	0.588886
	H70	H	0.411816	0.105189	0.604020
	H71	H	0.418583	0.873689	0.411751
	H72	H	0.916990	0.603473	0.104255
	H73	H	0.095190	0.374013	0.099381
	H74	H	0.101634	0.603655	0.908120
	H75	H	0.913152	0.372898	0.915306
	H76	H	0.107358	0.888181	0.627077
	H77	H	0.097449	0.084897	0.388329
	H78	H	0.912770	0.078433	0.624011
	H79	H	0.916592	0.888335	0.389318
	H80	H	0.626487	0.087066	0.910457
	H81	H	0.388305	0.085297	0.100463
	H82	H	0.623369	0.891857	0.090449
	H83	H	0.388848	0.897558	0.906647
	H84	H	0.622648	0.902904	0.099006
	H85	H	0.391768	0.083340	0.090274
	H86	H	0.622654	0.083695	0.919939
	H87	H	0.389373	0.887922	0.915411
	H88	H	0.917959	0.074371	0.621602
	H89	H	0.102086	0.077004	0.388985
	H90	H	0.102487	0.900212	0.621626
	H91	H	0.910440	0.894226	0.388580
	H92	H	0.095440	0.601364	0.913361
	H93	H	0.104771	0.371979	0.094629
	H94	H	0.915434	0.600962	0.095738
	H95	H	0.912024	0.371955	0.915226
	H96	H	0.421695	0.099926	0.595958
	H97	H	0.606339	0.866769	0.609395
	H98	H	0.604351	0.103857	0.412931
	H99	H	0.407819	0.871931	0.414720
	H100	H	0.600071	0.399162	0.122498
	H101	H	0.605557	0.592388	0.882940
	H102	H	0.423395	0.579061	0.119281
	H103	H	0.403882	0.396658	0.885407
	H104	H	0.129775	0.589854	0.408946
	H105	H	0.891498	0.581475	0.594740
	H106	H	0.127942	0.386282	0.606199
	H107	H	0.886696	0.381621	0.410670
	H108	H	0.908729	0.604799	0.100508
	H109	H	0.103077	0.370182	0.105107
	H110	H	0.103631	0.602650	0.915923
	H111	H	0.913390	0.371903	0.914145
	H112	H	0.093402	0.889435	0.622187
	H113	H	0.093053	0.077501	0.391785
	H114	H	0.919654	0.080823	0.623448
	H115	H	0.917936	0.895750	0.392123
	H116	H	0.623238	0.077217	0.911590
	H117	H	0.391939	0.075717	0.097864
	H118	H	0.627364	0.890705	0.103921
	H119	H	0.393918	0.899556	0.918697
	C120	C	0.385620	-0.004622	0.626200
	C121	C	0.629760	0.978723	0.628445
	C122	C	0.628886	-0.004926	0.384029
	C123	C	0.384047	0.979138	0.381998
	C124	C	0.628150	0.367330	0.014358
	C125	C	0.628396	0.610218	0.996682
	C126	C	0.385922	0.610425	0.014286
	C127	C	0.386344	0.366970	0.997673
	C128	C	0.016483	0.608134	0.385649
	C129	C	0.999392	0.607522	0.627706
	C130	C	0.016020	0.363627	0.629179
	C131	C	0.999212	0.364774	0.385897
	C132	C	0.885037	0.495440	0.128877
	C133	C	0.129593	0.479235	0.128673
	C134	C	0.128924	0.495249	0.884536
	C135	C	0.885059	0.479477	0.884743
	C136	C	0.128840	0.864839	0.514518
	C137	C	0.128061	0.107991	0.497890
	C138	C	0.886462	0.107472	0.515226
	C139	C	0.886132	0.864138	0.498885
	C140	C	0.515822	0.110874	0.883641
	C141	C	0.498748	0.110111	0.126567
	C142	C	0.515856	0.866764	0.125987
	C143	C	0.499018	0.866612	0.884476
	C144	C	0.388228	0.873557	0.682803
	C145	C	0.627580	0.101507	0.682595
	C146	C	0.624968	0.872930	0.329106
	C147	C	0.386757	0.101712	0.327111
	C148	C	0.683465	0.370935	0.890629
	C149	C	0.683331	0.607219	0.121007
	C150	C	0.330559	0.606828	0.890578
	C151	C	0.332122	0.369306	0.121466
	C152	C	0.893546	0.663876	0.386326
	C153	C	0.122668	0.662675	0.627305
	C154	C	0.892908	0.308177	0.627843
	C155	C	0.122311	0.308835	0.387979
	C156	C	0.892268	0.366825	0.683655
	C157	C	0.123323	0.602845	0.682342
	C158	C	0.892857	0.604806	0.330724
	C159	C	0.122871	0.367370	0.331008
	C160	C	0.386547	0.666045	0.890938
	C161	C	0.626978	0.665132	0.120408
	C162	C	0.627593	0.311839	0.890924
	C163	C	0.387766	0.310330	0.120606
	C164	C	0.683176	0.872393	0.386982
	C165	C	0.686204	0.100556	0.625765
	C166	C	0.331261	0.872582	0.623940
	C167	C	0.328162	0.100855	0.384078
	C168	C	0.887934	0.373080	0.183997
	C169	C	0.127106	0.601500	0.184126
	C170	C	0.126154	0.372496	0.830749
	C171	C	0.888048	0.600996	0.827733
	C172	C	0.182593	0.868027	0.390455
	C173	C	0.184701	0.104458	0.621234
	C174	C	0.831458	0.104885	0.391218
	C175	C	0.831035	0.866375	0.622245
	C176	C	0.392776	0.166375	0.883982
	C177	C	0.621951	0.165686	0.126197
	C178	C	0.392945	0.810809	0.124270
	C179	C	0.622145	0.811099	0.885846
	C180	C	0.391774	0.870447	0.179659
	C181	C	0.622093	0.107328	0.182569
	C182	C	0.392263	0.106998	0.828367
	C183	C	0.622743	0.870105	0.830041
	C184	C	0.886498	0.164613	0.392499
	C185	C	0.128084	0.162903	0.621659
	C186	C	0.127123	0.809208	0.391468
	C187	C	0.888412	0.808414	0.622036
	C188	C	0.185180	0.373334	0.887191
	C189	C	0.184647	0.601715	0.125669
	C190	C	0.829169	0.373582	0.126592
	C191	C	0.830555	0.601970	0.885959
	C192	C	0.407773	0.080569	0.603390
	C193	C	0.606980	0.893473	0.606388
	C194	C	0.607267	0.080430	0.406431
	C195	C	0.406187	0.893843	0.403799
	C196	C	0.605626	0.388874	0.100436
	C197	C	0.606514	0.589144	0.910166
	C198	C	0.409288	0.588257	0.100454
	C199	C	0.408795	0.389350	0.911336
	C200	C	0.102520	0.586056	0.408901
	C201	C	0.913256	0.585995	0.604637
	C202	C	0.102210	0.385355	0.606963
	C203	C	0.913251	0.387102	0.408211
	C204	C	0.907293	0.580993	0.106704
	C205	C	0.107601	0.394033	0.106382
	C206	C	0.106645	0.580304	0.906093
	C207	C	0.906580	0.394288	0.908123
	C208	C	0.107254	0.886354	0.601258
	C209	C	0.104334	0.086331	0.412006
	C210	C	0.909935	0.084480	0.601013
	C211	C	0.908434	0.886284	0.412343
	C212	C	0.601828	0.088996	0.907204
	C213	C	0.412964	0.088090	0.102951
	C214	C	0.602124	0.888718	0.104230
	C215	C	0.412967	0.888587	0.907009
	Zn216	Zn	0.507547	-0.011904	0.756332
	Zn217	Zn	0.506895	-0.011474	0.253835
	Zn218	Zn	0.756024	0.488861	0.006408
	Zn219	Zn	0.258109	0.487895	0.006396
	Zn220	Zn	0.008247	0.736408	0.506839
	Zn221	Zn	0.007123	0.236163	0.507543
	Zn222	Zn	0.007206	0.485826	0.755646
	Zn223	Zn	0.007884	0.486692	0.257946
	Zn224	Zn	0.507884	0.738079	0.005461
	Zn225	Zn	0.507498	0.238489	0.005516
	Zn226	Zn	0.758227	-0.013948	0.506491
	Zn227	Zn	0.255982	-0.013511	0.504955
	N228	N	0.421137	0.950910	0.684421
	N229	N	0.593077	0.024823	0.684180
	N230	N	0.591830	0.950130	0.327255
	N231	N	0.420891	0.025038	0.325639
	N232	N	0.684045	0.404725	0.968374
	N233	N	0.684682	0.573929	0.043189
	N234	N	0.329802	0.573227	0.968397
	N235	N	0.331000	0.403641	0.043825
	N236	N	0.971531	0.665930	0.419867
	N237	N	0.044644	0.665692	0.593987
	N238	N	0.970775	0.305965	0.594842
	N239	N	0.044524	0.307004	0.421337
	N240	N	0.969895	0.400602	0.684650
	N241	N	0.045560	0.569336	0.682867
	N242	N	0.970334	0.570820	0.330262
	N243	N	0.045432	0.401380	0.329729
	N244	N	0.420577	0.668095	0.968843
	N245	N	0.593641	0.667131	0.042256
	N246	N	0.594091	0.309437	0.968750
	N247	N	0.420888	0.308889	0.042517
	N248	N	0.685712	0.949358	0.420455
	N249	N	0.687701	0.023187	0.592938
	N250	N	0.329564	0.949299	0.589417
	N251	N	0.326430	0.023723	0.417516
	N252	N	0.921781	0.450134	0.185657
	N253	N	0.093514	0.524349	0.185968
	N254	N	0.092017	0.449231	0.828952
	N255	N	0.921042	0.523674	0.826738
	N256	N	0.183675	0.902052	0.467970
	N257	N	0.184680	0.070927	0.543514
	N258	N	0.831089	0.070127	0.468534
	N259	N	0.829515	0.900240	0.544358
	N260	N	0.470689	0.169026	0.917531
	N261	N	0.544169	0.167667	0.092059
	N262	N	0.471108	0.808406	0.091781
	N263	N	0.544292	0.808758	0.918849
	N264	N	0.469279	0.904649	0.180779
	N265	N	0.544406	0.073831	0.183125
	N266	N	0.469873	0.073231	0.827957
	N267	N	0.545340	0.904125	0.829176
	N268	N	0.920142	0.166248	0.470585
	N269	N	0.093527	0.165199	0.543878
	N270	N	0.094358	0.807222	0.469716
	N271	N	0.922072	0.807130	0.544330
	N272	N	0.187076	0.450536	0.920034
	N273	N	0.186539	0.524849	0.092110
	N274	N	0.827274	0.450710	0.093070
	N275	N	0.828644	0.525463	0.920848
	O276	O	-0.083280	-0.039593	-0.019482
	H277	H	-0.081371	-0.033473	-0.026610
	H278	H	-0.074054	-0.041894	-0.015756
	O279	O	0.461491	0.462617	0.469261
	H280	H	0.469515	0.462416	0.457883
	H281	H	0.469936	0.463953	0.467313
	O282	O	0.517646	0.463660	0.454868
	H283	H	0.525136	0.455329	0.449833
	H284	H	0.528336	0.462952	0.453588
	O285	O	0.948423	-0.105929	1.026593
	H286	H	0.950579	-0.118047	1.023774
	H287	H	0.952082	-0.098556	1.022227
	O288	O	1.116070	0.072897	0.108310
	H289	H	1.115431	0.073676	0.115320
	H290	H	1.120811	0.075076	0.112809
	O291	O	0.074400	1.005693	0.080629
	H292	H	0.069498	0.994646	0.079110
	H293	H	0.077994	1.012803	0.069370
	O294	O	1.520992	0.432663	1.444387
	H295	H	1.522228	0.423588	1.441927
	H296	H	1.514943	0.430003	1.446478
	O297	O	-0.024834	0.053210	-0.094346
	H298	H	-0.017896	0.047482	-0.089638
	H299	H	-0.029475	0.055221	-0.090485
	O300	O	-0.022001	1.031046	-0.010302
	H301	H	-0.017355	1.032468	-0.007435
	H302	H	-0.035870	1.043039	-0.014461
	O303	O	0.426988	0.465760	0.500446
	H304	H	0.420468	0.477791	0.495037
	H305	H	0.432333	0.460488	0.496742
	O306	O	1.035289	-0.061877	0.074922
	H307	H	1.028586	-0.068804	0.081219
	H308	H	1.030101	-0.055992	0.065005
	O309	O	0.106815	0.043214	0.926483
	H310	H	0.111921	0.032830	0.923243
	H311	H	0.106641	0.046460	0.927693
	O312	O	0.958308	1.049844	0.990727
	H313	H	0.957453	1.055798	0.999784
	H314	H	0.970713	1.051434	0.980416
	O315	O	0.489227	0.454653	0.549584
	H316	H	0.493761	0.453009	0.546826
	H317	H	0.489191	0.455796	0.539843
	O318	O	0.532838	0.445145	0.448370
	H319	H	0.531481	0.428161	0.464392
	H320	H	0.543284	0.439504	0.447928
	O321	O	0.004473	0.955422	0.941863
	H322	H	0.009062	0.954099	0.944232
	H323	H	0.010113	0.948588	0.941440
	O324	O	0.532871	0.458103	0.528185
	H325	H	0.530015	0.461896	0.528110
	H326	H	0.525464	0.462725	0.524851
	O327	O	1.025709	1.021363	-0.079678
	H328	H	1.026369	1.026585	-0.081429
	H329	H	1.029238	1.020931	-0.075731
	O330	O	0.054414	0.907657	0.036328
	H331	H	0.046239	0.908629	0.029728
	H332	H	0.054584	0.921225	0.049423
	O333	O	0.100173	0.967268	0.900986
	H334	H	0.102485	0.968840	0.901401
	H335	H	0.095423	0.964766	0.898870
	O336	O	0.501391	0.416169	0.521549
	H337	H	0.494361	0.416955	0.533490
	H338	H	0.492128	0.420781	0.520225
	O339	O	0.965873	0.966109	0.006470
	H340	H	0.975369	0.964044	0.013434
	H341	H	0.969931	0.962866	0.005727
	O342	O	0.931116	0.987715	0.045151
	H343	H	0.932866	0.995406	0.055470
	H344	H	0.923281	0.974150	0.038300
	O345	O	0.542584	0.414818	0.505485
	H346	H	0.538817	0.410968	0.501768
	H347	H	0.531095	0.412445	0.524235
	O348	O	-0.017365	-0.037000	0.065391
	H349	H	-0.016552	-0.037960	0.057759
	H350	H	-0.024026	-0.040874	0.062787
	O351	O	0.083794	0.982663	1.059639
	H352	H	0.075583	0.977639	1.054711
	H353	H	0.088048	0.982705	1.057335
	O354	O	0.483654	0.434532	0.526963
	H355	H	0.483461	0.435356	0.533776
	H356	H	0.481417	0.440362	0.525332
	O357	O	-0.030009	1.002457	1.020262
	H358	H	-0.035814	1.001455	1.030665
	H359	H	-0.029278	1.005191	1.020784
