data_Molecule from HDF5

_cell_length_a		16.512391
_cell_length_b		16.505323
_cell_length_c		16.336341
_cell_angle_alpha	90.036083
_cell_angle_beta	89.923265
_cell_angle_gamma	90.031260
_symmetry_space_group_name_H-M	'P 1'
_symmetry_Int_Tables_number		1

loop_
	_symmetry_equiv_pos_as_xyz
	x,y,z

loop_
	_atom_site_label
	_atom_site_type_symbol
	_atom_site_fract_x
	_atom_site_fract_y
	_atom_site_fract_z
	H0	H	0.383352	0.843149	0.715113
	H1	H	0.594639	0.158366	0.710831
	H2	H	0.596145	0.841720	0.268295
	H3	H	0.388872	0.158370	0.271149
	H4	H	0.712284	0.396612	0.831683
	H5	H	0.713187	0.606884	0.149966
	H6	H	0.268189	0.608551	0.833975
	H7	H	0.267997	0.392382	0.149292
	H8	H	0.834012	0.723714	0.383899
	H9	H	0.147068	0.725029	0.600304
	H10	H	0.833665	0.276940	0.599077
	H11	H	0.148926	0.279235	0.387520
	H12	H	0.831945	0.398066	0.711719
	H13	H	0.150481	0.603433	0.710327
	H14	H	0.833225	0.605808	0.269908
	H15	H	0.148807	0.394815	0.269939
	H16	H	0.384207	0.722878	0.833001
	H17	H	0.600675	0.724359	0.148672
	H18	H	0.597232	0.280333	0.831922
	H19	H	0.386118	0.279050	0.150226
	H20	H	0.715657	0.842643	0.380650
	H21	H	0.714277	0.156218	0.598733
	H22	H	0.266522	0.843358	0.599702
	H23	H	0.270276	0.157676	0.385827
	H24	H	0.888735	0.341869	0.210936
	H25	H	0.098631	0.656770	0.216118
	H26	H	0.094478	0.342121	0.772386
	H27	H	0.887725	0.659875	0.770980
	H28	H	0.212720	0.893189	0.332735
	H29	H	0.212836	0.105114	0.650256
	H30	H	0.771499	0.103432	0.331753
	H31	H	0.765382	0.890381	0.648457
	H32	H	0.336564	0.226201	0.882466
	H33	H	0.648427	0.223044	0.097931
	H34	H	0.337404	0.774013	0.100730
	H35	H	0.648392	0.774997	0.879648
	H36	H	0.334494	0.895177	0.212294
	H37	H	0.650068	0.104552	0.211872
	H38	H	0.333613	0.105449	0.770584
	H39	H	0.648425	0.892990	0.765653
	H40	H	0.884636	0.223098	0.333636
	H41	H	0.096731	0.220516	0.651202
	H42	H	0.097930	0.776569	0.333566
	H43	H	0.883532	0.777397	0.650547
	H44	H	0.215529	0.344584	0.884700
	H45	H	0.216766	0.656568	0.101810
	H46	H	0.769948	0.343566	0.096860
	H47	H	0.769560	0.659245	0.884775
	H48	H	0.400433	0.112589	0.579734
	H49	H	0.574950	0.887293	0.582406
	H50	H	0.587404	0.113755	0.403330
	H51	H	0.405700	0.891224	0.407520
	H52	H	0.588208	0.418311	0.105849
	H53	H	0.582506	0.599118	0.872595
	H54	H	0.410394	0.590189	0.102817
	H55	H	0.409004	0.415160	0.880967
	H56	H	0.102856	0.589927	0.406643
	H57	H	0.878745	0.592796	0.577120
	H58	H	0.105079	0.409309	0.584548
	H59	H	0.877427	0.411410	0.398601
	H60	H	0.104719	0.405885	0.579535
	H61	H	0.880554	0.584502	0.580304
	H62	H	0.101162	0.587057	0.406306
	H63	H	0.877104	0.405830	0.404862
	H64	H	0.401270	0.589054	0.105833
	H65	H	0.589062	0.580186	0.877513
	H66	H	0.572487	0.411557	0.102529
	H67	H	0.404909	0.410583	0.878264
	H68	H	0.576851	0.112492	0.396976
	H69	H	0.574363	0.891492	0.572734
	H70	H	0.401802	0.112347	0.579773
	H71	H	0.392032	0.884792	0.404078
	H72	H	0.898375	0.616441	0.085453
	H73	H	0.082096	0.387913	0.080873
	H74	H	0.081167	0.614139	0.900201
	H75	H	0.902294	0.390301	0.904571
	H76	H	0.085601	0.916686	0.605692
	H77	H	0.079926	0.082931	0.380075
	H78	H	0.902113	0.090386	0.605717
	H79	H	0.902611	0.907652	0.376790
	H80	H	0.606563	0.095739	0.900762
	H81	H	0.377829	0.093723	0.082455
	H82	H	0.603283	0.910704	0.073297
	H83	H	0.379619	0.907423	0.905213
	H84	H	0.602595	0.916701	0.079289
	H85	H	0.380385	0.090925	0.075855
	H86	H	0.601329	0.088748	0.908067
	H87	H	0.383237	0.913060	0.909385
	H88	H	0.899180	0.086001	0.605663
	H89	H	0.074700	0.093574	0.378360
	H90	H	0.072842	0.917101	0.601226
	H91	H	0.900930	0.915743	0.379709
	H92	H	0.078683	0.612097	0.904011
	H93	H	0.078041	0.389262	0.079952
	H94	H	0.908653	0.611674	0.082338
	H95	H	0.898522	0.388282	0.902809
	H96	H	0.401203	0.112475	0.578904
	H97	H	0.582739	0.886886	0.575936
	H98	H	0.577598	0.108543	0.408391
	H99	H	0.403809	0.884768	0.393399
	H100	H	0.585487	0.402132	0.109288
	H101	H	0.569786	0.585365	0.882688
	H102	H	0.406405	0.581274	0.102270
	H103	H	0.402811	0.416717	0.879095
	H104	H	0.103121	0.587923	0.403473
	H105	H	0.876466	0.591080	0.585724
	H106	H	0.102404	0.411871	0.579471
	H107	H	0.880634	0.413307	0.406329
	H108	H	0.899860	0.612377	0.073867
	H109	H	0.081033	0.389160	0.076231
	H110	H	0.083247	0.613652	0.905054
	H111	H	0.902488	0.388351	0.900159
	H112	H	0.078105	0.905976	0.606864
	H113	H	0.085982	0.091859	0.374569
	H114	H	0.904410	0.086359	0.602649
	H115	H	0.908361	0.912626	0.380882
	H116	H	0.604553	0.085569	0.897585
	H117	H	0.379953	0.086660	0.081758
	H118	H	0.606276	0.909895	0.081066
	H119	H	0.380288	0.914320	0.901445
	C120	C	0.368461	0.008475	0.612958
	C121	C	0.611670	0.991654	0.611582
	C122	C	0.613197	0.007600	0.369054
	C123	C	0.369499	0.991558	0.369294
	C124	C	0.613919	0.379019	0.000059
	C125	C	0.613121	0.621429	0.982539
	C126	C	0.371634	0.621068	-0.000287
	C127	C	0.371773	0.380369	0.983639
	C128	C	-0.001471	0.621148	0.371842
	C129	C	0.982630	0.622169	0.613531
	C130	C	-0.000537	0.377813	0.613645
	C131	C	0.982651	0.378436	0.370875
	C132	C	0.870165	0.509189	0.112652
	C133	C	0.113559	0.491938	0.113277
	C134	C	0.113609	0.509096	0.870393
	C135	C	0.869466	0.493097	0.869613
	C136	C	0.111858	0.879620	0.500027
	C137	C	0.112385	0.121469	0.482885
	C138	C	0.869688	0.120487	0.499851
	C139	C	0.869872	0.878210	0.483141
	C140	C	0.500286	0.122365	0.869517
	C141	C	0.483301	0.122098	0.112565
	C142	C	0.500778	0.878785	0.111769
	C143	C	0.483838	0.878293	0.869841
	C144	C	0.365343	0.890463	0.674725
	C145	C	0.613902	0.110378	0.671919
	C146	C	0.614878	0.889154	0.308355
	C147	C	0.369143	0.110710	0.310246
	C148	C	0.672880	0.377949	0.879756
	C149	C	0.673284	0.624408	0.102160
	C150	C	0.308802	0.625813	0.881561
	C151	C	0.309212	0.375333	0.101965
	C152	C	0.881134	0.682980	0.367037
	C153	C	0.100519	0.683734	0.617231
	C154	C	0.880598	0.317600	0.616894
	C155	C	0.101588	0.318841	0.368840
	C156	C	0.879775	0.377814	0.672756
	C157	C	0.102164	0.623299	0.672267
	C158	C	0.880713	0.623939	0.310160
	C159	C	0.101715	0.376922	0.310715
	C160	C	0.367009	0.682604	0.880783
	C161	C	0.617171	0.683132	0.101380
	C162	C	0.615594	0.319857	0.879875
	C163	C	0.367962	0.318832	0.102465
	C164	C	0.674574	0.889729	0.364350
	C165	C	0.673534	0.109159	0.616039
	C166	C	0.307256	0.890639	0.616843
	C167	C	0.310152	0.110305	0.367069
	C168	C	0.869281	0.389671	0.171689
	C169	C	0.116683	0.609910	0.175560
	C170	C	0.114165	0.389875	0.811364
	C171	C	0.868595	0.612237	0.810377
	C172	C	0.172765	0.875482	0.380643
	C173	C	0.172761	0.123412	0.602498
	C174	C	0.810619	0.122528	0.379673
	C175	C	0.806917	0.873434	0.601511
	C176	C	0.382993	0.184420	0.865722
	C177	C	0.601592	0.182539	0.115738
	C178	C	0.383534	0.816069	0.116924
	C179	C	0.601379	0.816214	0.863597
	C180	C	0.382079	0.876233	0.172677
	C181	C	0.602286	0.123345	0.172262
	C182	C	0.381487	0.124220	0.809882
	C183	C	0.601365	0.874857	0.806546
	C184	C	0.867138	0.181724	0.380677
	C185	C	0.114995	0.180999	0.603016
	C186	C	0.115530	0.817417	0.381056
	C187	C	0.865626	0.817010	0.602514
	C188	C	0.174344	0.391223	0.867221
	C189	C	0.175457	0.609663	0.118453
	C190	C	0.810144	0.390490	0.114906
	C191	C	0.809673	0.611853	0.867232
	C192	C	0.393897	0.090832	0.587031
	C193	C	0.585155	0.909917	0.584843
	C194	C	0.587878	0.090027	0.395508
	C195	C	0.393648	0.908539	0.394340
	C196	C	0.589154	0.403576	0.084035
	C197	C	0.587540	0.595607	0.899349
	C198	C	0.398455	0.594529	0.082035
	C199	C	0.398094	0.406767	0.900734
	C200	C	0.080876	0.595663	0.397930
	C201	C	0.900075	0.596693	0.588340
	C202	C	0.082104	0.401979	0.588553
	C203	C	0.900068	0.403026	0.396019
	C204	C	0.895136	0.591772	0.087915
	C205	C	0.087857	0.410163	0.086620
	C206	C	0.088330	0.591671	0.895694
	C207	C	0.894046	0.410534	0.895039
	C208	C	0.086228	0.905687	0.582886
	C209	C	0.087282	0.096596	0.399339
	C210	C	0.894769	0.095064	0.583044
	C211	C	0.896321	0.904517	0.400633
	C212	C	0.582671	0.097092	0.894967
	C213	C	0.400848	0.097384	0.087223
	C214	C	0.582736	0.905000	0.085427
	C215	C	0.402386	0.904247	0.897373
	Zn216	Zn	0.491193	-0.000096	0.740995
	Zn217	Zn	0.491899	0.000285	0.240808
	Zn218	Zn	0.740954	0.501090	-0.008844
	Zn219	Zn	0.242726	0.500879	-0.007992
	Zn220	Zn	-0.008983	0.750843	0.492279
	Zn221	Zn	-0.009186	0.248947	0.491946
	Zn222	Zn	-0.008440	0.500738	0.741738
	Zn223	Zn	-0.008673	0.500184	0.241862
	Zn224	Zn	0.492602	0.749350	-0.009049
	Zn225	Zn	0.492140	0.251347	-0.008364
	Zn226	Zn	0.741738	-0.000923	0.490802
	Zn227	Zn	0.240241	0.000204	0.490731
	N228	N	0.402701	0.964805	0.672558
	N229	N	0.576162	0.036093	0.669382
	N230	N	0.577509	0.963468	0.311221
	N231	N	0.404849	0.035530	0.311274
	N232	N	0.672366	0.413454	0.955878
	N233	N	0.670905	0.586721	0.027211
	N234	N	0.311356	0.588424	0.956671
	N235	N	0.311418	0.412825	0.026920
	N236	N	0.955512	0.681322	0.404496
	N237	N	0.025002	0.683447	0.581763
	N238	N	0.955992	0.317146	0.581071
	N239	N	0.026561	0.319489	0.405347
	N240	N	0.954569	0.414181	0.671149
	N241	N	0.027867	0.585778	0.669996
	N242	N	0.955070	0.586341	0.312639
	N243	N	0.026646	0.412985	0.311755
	N244	N	0.405373	0.679928	0.955268
	N245	N	0.580580	0.681536	0.025806
	N246	N	0.579859	0.320276	0.955916
	N247	N	0.406350	0.321945	0.027723
	N248	N	0.673490	0.964605	0.401671
	N249	N	0.672329	0.034264	0.579212
	N250	N	0.308864	0.965146	0.579474
	N251	N	0.310051	0.035007	0.403008
	N252	N	0.905662	0.464477	0.170671
	N253	N	0.078976	0.535740	0.172768
	N254	N	0.077031	0.464310	0.813277
	N255	N	0.905308	0.537607	0.811990
	N256	N	0.170658	0.913223	0.455534
	N257	N	0.171316	0.087177	0.526702
	N258	N	0.811993	0.085432	0.454820
	N259	N	0.809357	0.910598	0.526369
	N260	N	0.457885	0.183328	0.902078
	N261	N	0.526731	0.181909	0.079234
	N262	N	0.458349	0.817513	0.079767
	N263	N	0.527389	0.818088	0.902272
	N264	N	0.456058	0.914092	0.169840
	N265	N	0.527715	0.086593	0.170478
	N266	N	0.455434	0.086161	0.812112
	N267	N	0.527372	0.912842	0.810317
	N268	N	0.903187	0.180471	0.456477
	N269	N	0.078079	0.179816	0.527686
	N270	N	0.078265	0.819777	0.456329
	N271	N	0.903905	0.819695	0.527794
	N272	N	0.174187	0.466518	0.903004
	N273	N	0.173561	0.535433	0.080444
	N274	N	0.810462	0.465767	0.079124
	N275	N	0.810072	0.536612	0.903495
	O276	O	0.534375	0.569949	0.472394
	H277	H	0.526307	0.578322	0.473667
	H278	H	0.524085	0.562162	0.463800
	O279	O	1.044408	0.077110	0.892012
	H280	H	1.037295	0.062899	0.883039
	H281	H	1.045662	0.074377	0.902285
	O282	O	0.409686	0.703797	0.290735
	H283	H	0.395428	0.696399	0.289730
	H284	H	0.411758	0.710325	0.272699
	O285	O	0.989712	1.047773	1.077320
	H286	H	1.008299	1.042776	1.081905
	H287	H	0.993675	1.035508	1.082637
	O288	O	0.784489	1.025594	-0.208721
	H289	H	0.777354	1.046006	-0.209815
	H290	H	0.771286	1.054153	-0.222716
	O291	O	1.006101	-0.026333	0.165224
	H292	H	0.990777	-0.031936	0.176839
	H293	H	1.013575	-0.039989	0.141482
	O294	O	0.198524	-0.216235	1.226884
	H295	H	0.186918	-0.207934	1.264196
	H296	H	0.190804	-0.226687	1.213312
	O297	O	0.438060	0.464606	0.316893
	H298	H	0.435377	0.461846	0.322151
	H299	H	0.413104	0.463154	0.315572
	O300	O	0.412795	0.482510	0.681779
	H301	H	0.419362	0.472700	0.666407
	H302	H	0.400340	0.492542	0.689676
	O303	O	0.322817	0.370785	0.357195
	H304	H	0.320967	0.356422	0.384392
	H305	H	0.320498	0.397169	0.374635
	O306	O	0.149916	0.787039	0.977110
	H307	H	0.135675	0.788744	0.968052
	H308	H	0.163058	0.765871	0.969702
	O309	O	0.323395	0.499317	0.644368
	H310	H	0.319350	0.495525	0.669352
	H311	H	0.356814	0.491842	0.649256
	O312	O	-0.136507	1.191222	0.870028
	H313	H	-0.140662	1.190861	0.894245
	H314	H	-0.133697	1.206248	0.860178
	O315	O	0.695763	0.448715	0.525817
	H316	H	0.693068	0.457871	0.519722
	H317	H	0.686896	0.424667	0.516348
	O318	O	1.289043	0.383001	0.622508
	H319	H	1.279719	0.390116	0.656494
	H320	H	1.295251	0.385199	0.633970
	O321	O	-0.087026	-0.160547	0.193317
	H322	H	-0.101593	-0.173410	0.224645
	H323	H	-0.106298	-0.177111	0.182808
	O324	O	0.284281	0.356449	0.492131
	H325	H	0.287050	0.367194	0.526860
	H326	H	0.275615	0.327616	0.501102
	O327	O	0.456266	0.525252	0.697564
	H328	H	0.452039	0.527095	0.691130
	H329	H	0.455680	0.544834	0.694933
	O330	O	0.029093	0.921239	-0.116490
	H331	H	0.027686	0.935915	-0.109443
	H332	H	0.035499	0.918764	-0.131674
	O333	O	0.842032	1.193223	0.908442
	H334	H	0.846401	1.175478	0.917151
	H335	H	0.828531	1.201045	0.918088
	O336	O	-0.046501	-0.218981	0.007661
	H337	H	-0.055742	-0.212446	0.000620
	H338	H	-0.053556	-0.218348	0.007887
	O339	O	0.213833	1.027217	0.964426
	H340	H	0.223516	1.022021	0.982541
	H341	H	0.207018	1.038436	0.966335
	O342	O	0.002499	0.888548	1.097713
	H343	H	-0.007473	0.908695	1.078789
	H344	H	0.018365	0.894328	1.094337
	O345	O	0.772478	0.869478	0.024499
	H346	H	0.772005	0.886735	0.029916
	H347	H	0.754971	0.857290	0.029248
	O348	O	1.182701	0.911491	0.804659
	H349	H	1.156508	0.900728	0.812585
	H350	H	1.198685	0.922544	0.813595
	O351	O	0.156636	1.209474	1.060891
	H352	H	0.151247	1.221307	1.072006
	H353	H	0.171533	1.212104	1.062029
	O354	O	-0.680615	0.561618	-0.467507
	H355	H	-0.689296	0.552539	-0.453352
	H356	H	-0.676787	0.571947	-0.461521
	O357	O	0.194770	0.139521	1.192495
	H358	H	0.211848	0.145268	1.198990
	H359	H	0.207608	0.126503	1.191214
	O360	O	0.680305	0.625314	0.684052
	H361	H	0.698832	0.593182	0.702719
	H362	H	0.682973	0.641857	0.651410
	O363	O	0.058799	0.160772	1.195885
	H364	H	0.065745	0.167792	1.203301
	H365	H	0.073745	0.179229	1.184500
	O366	O	0.566866	0.311001	0.335721
	H367	H	0.574950	0.293066	0.321602
	H368	H	0.590611	0.317439	0.316729
	O369	O	0.521918	0.713093	0.637148
	H370	H	0.526003	0.733421	0.662687
	H371	H	0.549891	0.698396	0.632048
	O372	O	0.957569	-0.074249	0.842748
	H373	H	0.977890	-0.084967	0.831613
	H374	H	0.957038	-0.082332	0.843757
	O375	O	0.281402	0.703695	0.469823
	H376	H	0.296629	0.699134	0.468786
	H377	H	0.263899	0.728945	0.468704
	O378	O	0.704305	0.472315	0.277753
	H379	H	0.700323	0.490046	0.273903
	H380	H	0.715220	0.482140	0.261279
	O381	O	0.894083	0.117295	1.081903
	H382	H	0.894753	0.106774	1.088533
	H383	H	0.896174	0.122327	1.085145
	O384	O	0.957055	1.001749	-0.043304
	H385	H	0.945963	1.006772	-0.055415
	H386	H	0.945014	1.019852	-0.032714
	O387	O	0.117097	-0.082637	1.007818
	H388	H	0.114243	-0.076146	1.016210
	H389	H	0.113668	-0.086476	0.992495
	O390	O	-0.192334	-0.068186	0.120658
	H391	H	-0.179243	-0.084872	0.126781
	H392	H	-0.191591	-0.070527	0.101359
	O393	O	0.552121	0.666096	0.386559
	H394	H	0.570562	0.681226	0.386766
	H395	H	0.545119	0.674147	0.379524
	O396	O	0.871031	0.158023	0.082633
	H397	H	0.874567	0.153020	0.073132
	H398	H	0.865197	0.174837	0.104134
	O399	O	1.100900	-0.187072	0.806575
	H400	H	1.096369	-0.174830	0.790190
	H401	H	1.090311	-0.179356	0.818926
	O402	O	1.694472	0.705521	1.563516
	H403	H	1.678810	0.696564	1.543198
	H404	H	1.718016	0.735481	1.564481
	O405	O	0.821664	0.863871	0.100055
	H406	H	0.823609	0.882092	0.112625
	H407	H	0.804956	0.875078	0.079361
	O408	O	1.170918	0.134495	0.047418
	H409	H	1.152500	0.120533	0.031496
	H410	H	1.185114	0.128750	0.052464
	O411	O	0.899713	1.204410	-0.213709
	H412	H	0.900211	1.221830	-0.222122
	H413	H	0.914871	1.203861	-0.210415
	O414	O	0.577958	0.585331	0.289003
	H415	H	0.556942	0.556146	0.291757
	H416	H	0.559315	0.615527	0.293234
	O417	O	0.489061	0.372124	0.411429
	H418	H	0.481346	0.371242	0.401458
	H419	H	0.466890	0.382451	0.407094
	O420	O	0.058051	-0.027028	-0.225239
	H421	H	0.054703	-0.044697	-0.226351
	H422	H	0.063335	-0.026638	-0.235104
	O423	O	0.628935	0.552078	0.462508
	H424	H	0.640594	0.553114	0.450019
	H425	H	0.617739	0.521736	0.468083
	O426	O	0.465593	0.695472	0.565069
	H427	H	0.466987	0.707639	0.568709
	H428	H	0.465840	0.689010	0.548920
	O429	O	0.658723	0.286819	0.493021
	H430	H	0.674072	0.270244	0.501684
	H431	H	0.653034	0.291916	0.499267
	O432	O	0.496056	0.303665	0.561298
	H433	H	0.500139	0.295271	0.542366
	H434	H	0.496990	0.313433	0.568044
	O435	O	0.282324	0.521719	0.283145
	H436	H	0.276297	0.515063	0.287614
	H437	H	0.260452	0.529780	0.280594
	O438	O	0.010602	-0.143454	0.075604
	H439	H	0.014526	-0.139825	0.066728
	H440	H	0.005770	-0.154606	0.091127
	O441	O	0.976353	0.198198	-0.073056
	H442	H	0.968143	0.201439	-0.050349
	H443	H	0.967797	0.191182	-0.055651
	O444	O	-0.370617	1.470834	1.641066
	H445	H	-0.370176	1.458695	1.628623
	H446	H	-0.377872	1.457818	1.644002
	O447	O	0.392663	0.306055	0.686632
	H448	H	0.423713	0.308126	0.693648
	H449	H	0.387274	0.319882	0.698530
	O450	O	0.656620	0.331405	0.316322
	H451	H	0.662867	0.336732	0.342579
	H452	H	0.647138	0.359570	0.310914
	O453	O	0.559935	0.319855	0.590913
	H454	H	0.544228	0.329409	0.587284
	H455	H	0.559918	0.326943	0.588211
