data_Molecule from HDF5

_cell_length_a		16.585142
_cell_length_b		16.264608
_cell_length_c		16.642304
_cell_angle_alpha	90.128063
_cell_angle_beta	90.098714
_cell_angle_gamma	89.914491
_symmetry_space_group_name_H-M	'P 1'
_symmetry_Int_Tables_number		1

loop_
	_symmetry_equiv_pos_as_xyz
	x,y,z

loop_
	_atom_site_label
	_atom_site_type_symbol
	_atom_site_fract_x
	_atom_site_fract_y
	_atom_site_fract_z
	H0	H	0.412045	0.834965	0.755767
	H1	H	0.618443	0.155007	0.755172
	H2	H	0.619928	0.835233	0.316069
	H3	H	0.403468	0.151790	0.312398
	H4	H	0.740067	0.382402	0.883121
	H5	H	0.739853	0.602433	0.190948
	H6	H	0.294028	0.595049	0.881730
	H7	H	0.290443	0.383196	0.192984
	H8	H	0.855655	0.707737	0.437814
	H9	H	0.174180	0.707494	0.636028
	H10	H	0.858076	0.270198	0.641020
	H11	H	0.172773	0.268926	0.432178
	H12	H	0.860064	0.382765	0.761356
	H13	H	0.171781	0.594847	0.757591
	H14	H	0.860133	0.599256	0.314038
	H15	H	0.170136	0.379386	0.310658
	H16	H	0.417165	0.706449	0.877835
	H17	H	0.615568	0.711195	0.195027
	H18	H	0.620282	0.268420	0.881256
	H19	H	0.409812	0.270124	0.194434
	H20	H	0.732846	0.833129	0.433356
	H21	H	0.737086	0.152491	0.642587
	H22	H	0.297654	0.833540	0.639034
	H23	H	0.290987	0.152607	0.430091
	H24	H	0.904298	0.334854	0.262149
	H25	H	0.117009	0.651114	0.255518
	H26	H	0.123170	0.332101	0.814302
	H27	H	0.912845	0.651459	0.820275
	H28	H	0.239942	0.883059	0.382040
	H29	H	0.240385	0.102706	0.692410
	H30	H	0.789280	0.100881	0.382024
	H31	H	0.792026	0.885287	0.691742
	H32	H	0.356058	0.213606	0.934285
	H33	H	0.671558	0.214541	0.141173
	H34	H	0.355474	0.778344	0.134505
	H35	H	0.672509	0.774430	0.935611
	H36	H	0.360196	0.885451	0.260547
	H37	H	0.668836	0.104605	0.263228
	H38	H	0.357819	0.102170	0.813323
	H39	H	0.671525	0.888401	0.816298
	H40	H	0.910916	0.213251	0.379887
	H41	H	0.121650	0.216454	0.693289
	H42	H	0.117913	0.771595	0.379567
	H43	H	0.914935	0.775422	0.694944
	H44	H	0.236811	0.332105	0.931565
	H45	H	0.230448	0.652297	0.138203
	H46	H	0.788597	0.335665	0.147382
	H47	H	0.796972	0.651543	0.935198
	H48	H	0.424512	0.109707	0.627401
	H49	H	0.604744	0.879100	0.625795
	H50	H	0.603640	0.109059	0.445713
	H51	H	0.426625	0.880446	0.447413
	H52	H	0.600827	0.406964	0.146245
	H53	H	0.605101	0.586516	0.923694
	H54	H	0.414907	0.578964	0.151439
	H55	H	0.427466	0.404154	0.928127
	H56	H	0.128296	0.582045	0.445421
	H57	H	0.900116	0.584950	0.632481
	H58	H	0.124042	0.406882	0.621188
	H59	H	0.904931	0.404661	0.448124
	H60	H	0.124631	0.410702	0.627496
	H61	H	0.900372	0.583759	0.630005
	H62	H	0.127560	0.578928	0.447636
	H63	H	0.905749	0.406091	0.449781
	H64	H	0.429368	0.583561	0.148978
	H65	H	0.610867	0.581054	0.922979
	H66	H	0.602269	0.407432	0.146379
	H67	H	0.424456	0.404205	0.925956
	H68	H	0.595644	0.105798	0.450625
	H69	H	0.606492	0.878149	0.628861
	H70	H	0.429886	0.107255	0.625593
	H71	H	0.431318	0.881584	0.447554
	H72	H	0.932936	0.603270	0.127069
	H73	H	0.103595	0.375512	0.125609
	H74	H	0.108225	0.606110	0.949527
	H75	H	0.922769	0.377059	0.953651
	H76	H	0.111127	0.900504	0.650240
	H77	H	0.105696	0.078276	0.426406
	H78	H	0.925153	0.083957	0.650212
	H79	H	0.917375	0.900724	0.421411
	H80	H	0.625794	0.076393	0.941762
	H81	H	0.404324	0.081015	0.121692
	H82	H	0.629203	0.895588	0.125037
	H83	H	0.400925	0.906741	0.939512
	H84	H	0.622900	0.911832	0.122531
	H85	H	0.405731	0.074962	0.125375
	H86	H	0.628726	0.086583	0.944693
	H87	H	0.399680	0.898382	0.942480
	H88	H	0.921559	0.075136	0.647266
	H89	H	0.102512	0.075385	0.428943
	H90	H	0.108372	0.906156	0.648196
	H91	H	0.923228	0.907464	0.425420
	H92	H	0.104483	0.606713	0.942673
	H93	H	0.101342	0.376550	0.126094
	H94	H	0.926518	0.603353	0.119495
	H95	H	0.926972	0.374914	0.943979
	H96	H	0.424940	0.108295	0.621477
	H97	H	0.602668	0.879079	0.629326
	H98	H	0.604595	0.106972	0.455445
	H99	H	0.428438	0.882842	0.451759
	H100	H	0.601308	0.408278	0.146430
	H101	H	0.603998	0.578962	0.925773
	H102	H	0.418903	0.593634	0.154530
	H103	H	0.425246	0.407080	0.928276
	H104	H	0.128725	0.578316	0.444001
	H105	H	0.900216	0.581825	0.631798
	H106	H	0.127226	0.403803	0.627088
	H107	H	0.905490	0.407433	0.447389
	H108	H	0.924119	0.607872	0.128064
	H109	H	0.102737	0.376877	0.123575
	H110	H	0.100904	0.603620	0.949084
	H111	H	0.932785	0.379376	0.951575
	H112	H	0.105328	0.900609	0.648586
	H113	H	0.101265	0.080045	0.426882
	H114	H	0.931217	0.077973	0.644999
	H115	H	0.926140	0.897939	0.423895
	H116	H	0.623693	0.079916	0.950955
	H117	H	0.401833	0.080090	0.128181
	H118	H	0.630348	0.907516	0.137738
	H119	H	0.403231	0.904287	0.947373
	C120	C	0.394948	0.002659	0.656255
	C121	C	0.636243	0.984922	0.658797
	C122	C	0.633887	0.001806	0.417749
	C123	C	0.393822	0.985931	0.415397
	C124	C	0.635706	0.371950	0.044795
	C125	C	0.637058	0.614326	1.028134
	C126	C	0.392036	0.615005	0.046653
	C127	C	0.393011	0.371206	1.029865
	C128	C	0.023885	0.612688	0.415400
	C129	C	1.005410	0.613713	0.660202
	C130	C	0.022905	0.371796	0.658332
	C131	C	1.007723	0.370426	0.414766
	C132	C	0.893216	0.500815	0.158913
	C133	C	0.134695	0.482278	0.157069
	C134	C	0.136435	0.499769	0.915474
	C135	C	0.895589	0.482662	0.917874
	C136	C	0.138251	0.870270	0.545180
	C137	C	0.136744	0.113300	0.529761
	C138	C	0.892970	0.113367	0.544956
	C139	C	0.892570	0.870891	0.527867
	C140	C	0.522485	0.114962	0.914597
	C141	C	0.506265	0.114112	0.158705
	C142	C	0.523637	0.872361	0.158999
	C143	C	0.505918	0.871944	0.913868
	C144	C	0.393699	0.882284	0.715425
	C145	C	0.637580	0.106254	0.716755
	C146	C	0.636821	0.882423	0.356954
	C147	C	0.387417	0.104406	0.353482
	C148	C	0.698325	0.366023	0.929053
	C149	C	0.698063	0.618797	0.145043
	C150	C	0.334518	0.614062	0.927902
	C151	C	0.331408	0.366122	0.146630
	C152	C	0.904297	0.670254	0.416969
	C153	C	0.125918	0.669648	0.657531
	C154	C	0.905325	0.310296	0.660047
	C155	C	0.125239	0.308595	0.412953
	C156	C	0.906316	0.366062	0.720120
	C157	C	0.124770	0.613901	0.717874
	C158	C	0.906020	0.615724	0.355781
	C159	C	0.123890	0.363873	0.352442
	C160	C	0.395220	0.669580	0.926215
	C161	C	0.636760	0.673401	0.146798
	C162	C	0.638954	0.309044	0.928289
	C163	C	0.390975	0.309844	0.147285
	C164	C	0.693489	0.881619	0.415091
	C165	C	0.696107	0.105084	0.660193
	C166	C	0.336897	0.881752	0.657504
	C167	C	0.331144	0.104601	0.412008
	C168	C	0.887853	0.382402	0.221224
	C169	C	0.136060	0.603060	0.216130
	C170	C	0.140007	0.379870	0.855073
	C171	C	0.893970	0.603243	0.859199
	C172	C	0.198488	0.866430	0.428224
	C173	C	0.199265	0.119340	0.645614
	C174	C	0.830914	0.117946	0.428206
	C175	C	0.833091	0.868122	0.645361
	C176	C	0.403686	0.174668	0.914517
	C177	C	0.624133	0.175346	0.160676
	C178	C	0.404030	0.815262	0.156623
	C179	C	0.625072	0.813726	0.915489
	C180	C	0.406145	0.869036	0.218843
	C181	C	0.622713	0.120870	0.221506
	C182	C	0.404746	0.119295	0.853991
	C183	C	0.624394	0.870314	0.856068
	C184	C	0.891542	0.173618	0.427100
	C185	C	0.140079	0.176280	0.646275
	C186	C	0.138119	0.810567	0.427103
	C187	C	0.894302	0.813320	0.646853
	C188	C	0.197022	0.380029	0.913172
	C189	C	0.192346	0.603576	0.157843
	C190	C	0.830202	0.382562	0.164018
	C191	C	0.836371	0.603363	0.916346
	C192	C	0.419391	0.086559	0.631850
	C193	C	0.611693	0.900792	0.634866
	C194	C	0.608490	0.085400	0.443240
	C195	C	0.421248	0.903226	0.441269
	C196	C	0.609038	0.399807	0.125419
	C197	C	0.613336	0.589310	0.945571
	C198	C	0.414544	0.592260	0.129818
	C199	C	0.418410	0.397608	0.948661
	C200	C	0.106521	0.587041	0.438794
	C201	C	0.922189	0.590451	0.637911
	C202	C	0.104086	0.399197	0.632580
	C203	C	0.926453	0.398162	0.441057
	C204	C	0.920186	0.583270	0.132442
	C205	C	0.109869	0.398311	0.132226
	C206	C	0.111555	0.583677	0.940121
	C207	C	0.920401	0.398875	0.942657
	C208	C	0.114881	0.895251	0.627648
	C209	C	0.110411	0.085855	0.448431
	C210	C	0.918677	0.086837	0.626226
	C211	C	0.915689	0.895082	0.445281
	C212	C	0.604675	0.088781	0.938936
	C213	C	0.425114	0.086425	0.132536
	C214	C	0.606126	0.897723	0.135316
	C215	C	0.422776	0.896065	0.936609
	Zn216	Zn	0.514590	-0.005609	0.785439
	Zn217	Zn	0.514597	-0.005491	0.288136
	Zn218	Zn	0.766137	0.492276	0.037599
	Zn219	Zn	0.263578	0.491332	0.038023
	Zn220	Zn	0.015144	0.741671	0.537076
	Zn221	Zn	0.015077	0.242562	0.536949
	Zn222	Zn	0.015161	0.490924	0.788821
	Zn223	Zn	0.015531	0.491396	0.285727
	Zn224	Zn	0.514847	0.743387	0.036573
	Zn225	Zn	0.513999	0.242124	0.037723
	Zn226	Zn	0.762963	-0.007411	0.536458
	Zn227	Zn	0.266903	-0.007059	0.536477
	N228	N	0.429082	0.958579	0.714954
	N229	N	0.601140	0.030416	0.716070
	N230	N	0.600653	0.958489	0.358271
	N231	N	0.425518	0.029467	0.355372
	N232	N	0.696443	0.404196	1.002645
	N233	N	0.698541	0.582943	0.070210
	N234	N	0.332026	0.581162	1.003834
	N235	N	0.332526	0.403439	0.072794
	N236	N	0.978663	0.668497	0.453408
	N237	N	0.050768	0.670036	0.622599
	N238	N	0.978865	0.313434	0.622489
	N239	N	0.052050	0.312818	0.451162
	N240	N	0.980372	0.403421	0.719016
	N241	N	0.048773	0.580448	0.720150
	N242	N	0.981431	0.580790	0.354550
	N243	N	0.049621	0.401646	0.353439
	N244	N	0.429930	0.670596	1.001081
	N245	N	0.599400	0.670859	0.073112
	N246	N	0.600746	0.312471	1.001370
	N247	N	0.428644	0.312984	0.073699
	N248	N	0.691330	0.956880	0.452552
	N249	N	0.695832	0.028562	0.625282
	N250	N	0.337479	0.957675	0.621704
	N251	N	0.335137	0.029814	0.449905
	N252	N	0.926514	0.456977	0.218217
	N253	N	0.101125	0.526488	0.215846
	N254	N	0.103027	0.455448	0.856496
	N255	N	0.929799	0.527059	0.859763
	N256	N	0.198907	0.902488	0.502865
	N257	N	0.197067	0.080861	0.572048
	N258	N	0.831528	0.081464	0.502674
	N259	N	0.831702	0.903038	0.570281
	N260	N	0.478022	0.172241	0.951174
	N261	N	0.550826	0.171278	0.122350
	N262	N	0.478251	0.817052	0.120147
	N263	N	0.550450	0.814712	0.950944
	N264	N	0.481669	0.903713	0.220480
	N265	N	0.548328	0.083712	0.220463
	N266	N	0.479696	0.083074	0.853886
	N267	N	0.549137	0.905777	0.854866
	N268	N	0.929404	0.170909	0.500544
	N269	N	0.101710	0.172474	0.573077
	N270	N	0.101660	0.812441	0.501097
	N271	N	0.930487	0.814612	0.572737
	N272	N	0.194821	0.455571	0.950418
	N273	N	0.191658	0.527372	0.122064
	N274	N	0.833744	0.457025	0.125637
	N275	N	0.837146	0.527213	0.952081
	O276	O	0.530447	0.286362	0.327320
	H277	H	0.525432	0.270167	0.331031
	H278	H	0.548181	0.274176	0.328454
	O279	O	0.331001	0.522155	0.549252
	H280	H	0.329529	0.538113	0.570502
	H281	H	0.317070	0.535104	0.528370
	O282	O	0.710667	0.693629	0.740475
	H283	H	0.698266	0.671243	0.736750
	H284	H	0.724126	0.696213	0.730132
	O285	O	-0.106801	1.082798	0.140308
	H286	H	-0.102093	1.082957	0.113336
	H287	H	-0.101202	1.079234	0.145517
	O288	O	-0.005226	-0.210126	0.072756
	H289	H	-0.003404	-0.211430	0.068743
	H290	H	-0.020028	-0.204573	0.079689
	O291	O	0.823986	0.854283	-0.093018
	H292	H	0.828047	0.854767	-0.093345
	H293	H	0.838831	0.867226	-0.097342
	O294	O	-0.187558	0.906790	0.211832
	H295	H	-0.208017	0.906476	0.201830
	H296	H	-0.186516	0.894655	0.195269
	O297	O	1.223438	0.790432	-0.173225
	H298	H	1.255939	0.755093	-0.203182
	H299	H	1.210418	0.782556	-0.139440
	O300	O	0.511441	0.695282	0.383441
	H301	H	0.493870	0.682666	0.385111
	H302	H	0.518399	0.705749	0.379724
	O303	O	0.455016	0.312900	0.752647
	H304	H	0.480993	0.338311	0.759172
	H305	H	0.458668	0.281209	0.782447
	O306	O	-0.178974	0.927804	0.824251
	H307	H	-0.175423	0.909208	0.817302
	H308	H	-0.187982	0.918360	0.820816
	O309	O	0.339587	0.314173	0.576463
	H310	H	0.335483	0.345597	0.549093
	H311	H	0.333575	0.303680	0.570407
	O312	O	0.294225	0.521475	0.317522
	H313	H	0.289779	0.501051	0.309769
	H314	H	0.282240	0.538175	0.303722
	O315	O	0.037940	-0.192716	0.817518
	H316	H	0.028296	-0.205760	0.817947
	H317	H	0.052657	-0.217345	0.807611
	O318	O	-1.040199	2.058771	-0.047930
	H319	H	-1.034680	2.068470	-0.033727
	H320	H	-1.027519	2.070272	-0.057266
	O321	O	-0.488809	1.481468	-0.263058
	H322	H	-0.502175	1.493119	-0.269216
	H323	H	-0.466721	1.501719	-0.270545
	O324	O	0.865826	0.203254	1.044582
	H325	H	0.850595	0.211485	1.037065
	H326	H	0.849414	0.200220	1.054350
	O327	O	0.425966	-0.648714	0.469071
	H328	H	0.422837	-0.640974	0.483930
	H329	H	0.415389	-0.640016	0.463993
	O330	O	0.823216	-0.153139	0.045744
	H331	H	0.841952	-0.146933	0.035584
	H332	H	0.810618	-0.152203	0.030377
	O333	O	0.732593	0.483940	0.542942
	H334	H	0.732835	0.458459	0.533561
	H335	H	0.726994	0.488491	0.532740
	O336	O	1.710898	-0.303922	0.566311
	H337	H	1.728166	-0.307422	0.564088
	H338	H	1.719218	-0.303733	0.554674
	O339	O	0.375589	-0.671131	-0.491303
	H340	H	0.359139	-0.655755	-0.485708
	H341	H	0.382823	-0.667890	-0.496854
	O342	O	1.014276	1.194140	-0.139705
	H343	H	1.001104	1.187939	-0.137005
	H344	H	1.023478	1.194491	-0.158963
	O345	O	-0.624311	0.698583	-0.653622
	H346	H	-0.622255	0.698113	-0.658574
	H347	H	-0.626502	0.690350	-0.655052
	O348	O	0.764029	-0.277574	1.308152
	H349	H	0.772479	-0.276716	1.294266
	H350	H	0.781145	-0.276715	1.298483
	O351	O	1.717644	1.396403	-0.675003
	H352	H	1.722896	1.396236	-0.673639
	H353	H	1.726012	1.378264	-0.692003
	O354	O	0.540517	0.694640	0.732803
	H355	H	0.566091	0.701502	0.732288
	H356	H	0.528121	0.708690	0.720350
	O357	O	0.969300	1.022766	0.980507
	H358	H	0.978584	1.047380	0.962884
	H359	H	0.971593	1.006841	0.978446
	O360	O	0.496216	0.380684	0.594414
	H361	H	0.486258	0.377669	0.599922
	H362	H	0.478060	0.383205	0.591540
	O363	O	0.655375	0.374009	0.721321
	H364	H	0.647587	0.391683	0.710196
	H365	H	0.651965	0.393839	0.717193
	O366	O	0.984521	-0.154863	0.885416
	H367	H	0.984631	-0.160194	0.866734
	H368	H	1.003087	-0.167560	0.876777
	O369	O	-1.067369	0.834548	-0.748033
	H370	H	-1.068390	0.834712	-0.733546
	H371	H	-1.049528	0.840054	-0.740491
	O372	O	0.078942	1.041554	-0.015545
	H373	H	0.066474	1.041510	-0.018900
	H374	H	0.075798	1.045366	-0.035383
	O375	O	0.032712	1.196640	1.243651
	H376	H	0.026108	1.220412	1.259367
	H377	H	0.008183	1.177003	1.238166
	O378	O	0.241230	0.789961	0.241901
	H379	H	0.226445	0.818257	0.236840
	H380	H	0.261142	0.804030	0.219798
	O381	O	1.006158	-0.023214	0.220618
	H382	H	1.003178	-0.015649	0.213032
	H383	H	1.038922	-0.012575	0.225872
	O384	O	0.190434	0.161948	2.220586
	H385	H	0.166547	0.174209	2.201983
	H386	H	0.173472	0.177316	2.202696
	O387	O	-0.202649	1.070845	0.926105
	H388	H	-0.215881	1.054412	0.926930
	H389	H	-0.185852	1.084537	0.910984
	O390	O	1.217266	1.188260	1.059757
	H391	H	1.203457	1.172572	1.027902
	H392	H	1.227958	1.217437	1.058300
	O393	O	1.510603	0.502725	0.646015
	H394	H	1.492405	0.497021	0.636407
	H395	H	1.520521	0.530078	0.652482
	O396	O	0.301739	0.691652	0.510816
	H397	H	0.285594	0.707860	0.498959
	H398	H	0.304828	0.700556	0.490841
	O399	O	0.505016	0.700422	0.522157
	H400	H	0.508442	0.697195	0.498536
	H401	H	0.503853	0.702799	0.509353
	O402	O	0.197847	-0.059178	0.890302
	H403	H	0.202413	-0.079164	0.887625
	H404	H	0.216828	-0.068747	0.886766
	O405	O	0.141436	0.036621	-0.022053
	H406	H	0.154452	0.016097	-0.031388
	H407	H	0.143235	0.032564	-0.018448
	O408	O	0.157627	-0.001368	0.030410
	H409	H	0.139069	-0.006784	0.010066
	H410	H	0.169751	0.003134	0.020077
	O411	O	0.103536	0.872864	0.085281
	H412	H	0.104934	0.896103	0.094419
	H413	H	0.103586	0.887578	0.083283
	O414	O	0.724409	0.522680	0.755299
	H415	H	0.728158	0.521920	0.734068
	H416	H	0.752212	0.525017	0.765465
	O417	O	0.938596	0.159231	1.152474
	H418	H	0.927540	0.144892	1.148620
	H419	H	0.923208	0.156493	1.125688
	O420	O	0.701071	0.298671	0.490744
	H421	H	0.698886	0.286275	0.491877
	H422	H	0.696178	0.286520	0.482214
	O423	O	0.233386	0.778525	-0.006731
	H424	H	0.244667	0.764219	0.000340
	H425	H	0.236032	0.774854	0.000652
	O426	O	1.701955	1.596305	0.345052
	H427	H	1.716454	1.621882	0.331708
	H428	H	1.706649	1.572164	0.334222
	O429	O	0.628367	0.471252	0.465328
	H430	H	0.618406	0.481690	0.446611
	H431	H	0.607694	0.460050	0.471719
	O432	O	0.475878	0.607774	0.579075
	H433	H	0.483930	0.607808	0.579864
	H434	H	0.470685	0.619799	0.571115
	O435	O	-0.679715	0.314675	0.727242
	H436	H	-0.639173	0.301823	0.733744
	H437	H	-0.677372	0.306315	0.683819
	O438	O	1.353175	0.647388	0.729057
	H439	H	1.356316	0.615708	0.716395
	H440	H	1.375041	0.639527	0.714000
	O441	O	0.229313	0.003241	0.255695
	H442	H	0.241852	0.033959	0.262768
	H443	H	0.238558	0.031054	0.256751
	O444	O	0.862234	0.190827	-0.162687
	H445	H	0.886685	0.190789	-0.148351
	H446	H	0.847794	0.192820	-0.186911
	O447	O	0.464143	0.429568	0.341604
	H448	H	0.484889	0.432649	0.332933
	H449	H	0.481448	0.415911	0.339303
	O450	O	0.384512	0.506806	0.679494
	H451	H	0.390808	0.485939	0.679590
	H452	H	0.390348	0.499007	0.682449
	O453	O	0.549469	0.532751	0.379297
	H454	H	0.539137	0.534640	0.380323
	H455	H	0.549807	0.533564	0.377492
	O456	O	0.705202	0.323474	0.483731
	H457	H	0.718225	0.319550	0.488840
	H458	H	0.693347	0.309216	0.483939
	O459	O	0.123760	-0.104664	0.246783
	H460	H	0.125714	-0.101884	0.238819
	H461	H	0.133868	-0.100150	0.245700
	O462	O	0.830874	0.022048	0.091292
	H463	H	0.845306	0.018870	0.090014
	H464	H	0.820380	0.028027	0.080024
	O465	O	1.110659	0.018262	-0.184974
	H466	H	1.120106	-0.002446	-0.182293
	H467	H	1.124417	0.002164	-0.195651
