data_Molecule from HDF5

_cell_length_a		16.323355
_cell_length_b		16.294855
_cell_length_c		16.331361
_cell_angle_alpha	90.011211
_cell_angle_beta	89.892747
_cell_angle_gamma	89.929818
_symmetry_space_group_name_H-M	'P 1'
_symmetry_Int_Tables_number		1

loop_
	_symmetry_equiv_pos_as_xyz
	x,y,z

loop_
	_atom_site_label
	_atom_site_type_symbol
	_atom_site_fract_x
	_atom_site_fract_y
	_atom_site_fract_z
	H0	H	0.401599	0.836023	0.713841
	H1	H	0.597795	0.163120	0.714167
	H2	H	0.598649	0.836500	0.284762
	H3	H	0.402857	0.163570	0.286078
	H4	H	0.715271	0.401359	0.836337
	H5	H	0.714427	0.598198	0.163309
	H6	H	0.285655	0.597760	0.836485
	H7	H	0.285523	0.401916	0.163295
	H8	H	0.836530	0.714068	0.403488
	H9	H	0.164488	0.712505	0.595852
	H10	H	0.836655	0.285235	0.598635
	H11	H	0.163489	0.285661	0.402433
	H12	H	0.836389	0.401342	0.715390
	H13	H	0.163831	0.597334	0.714212
	H14	H	0.836323	0.598232	0.286349
	H15	H	0.162890	0.401119	0.284802
	H16	H	0.403559	0.713359	0.836091
	H17	H	0.597793	0.714652	0.163299
	H18	H	0.599042	0.285334	0.836676
	H19	H	0.401788	0.285978	0.163054
	H20	H	0.715129	0.836602	0.401144
	H21	H	0.713265	0.164049	0.597399
	H22	H	0.286061	0.836023	0.596541
	H23	H	0.285997	0.163772	0.401872
	H24	H	0.901473	0.336587	0.214965
	H25	H	0.095781	0.663972	0.213193
	H26	H	0.098483	0.336789	0.784957
	H27	H	0.901474	0.663221	0.785903
	H28	H	0.213785	0.902806	0.336027
	H29	H	0.213337	0.097560	0.663494
	H30	H	0.785572	0.098541	0.336833
	H31	H	0.785222	0.902081	0.663351
	H32	H	0.336510	0.214300	0.902936
	H33	H	0.664396	0.212585	0.096487
	H34	H	0.336509	0.786953	0.096881
	H35	H	0.664105	0.786363	0.902277
	H36	H	0.336209	0.902613	0.213438
	H37	H	0.663365	0.098035	0.214565
	H38	H	0.336574	0.098381	0.785159
	H39	H	0.663284	0.900823	0.783990
	H40	H	0.901689	0.214860	0.337187
	H41	H	0.096748	0.213574	0.663824
	H42	H	0.098635	0.785435	0.336864
	H43	H	0.902559	0.786299	0.663477
	H44	H	0.214084	0.336145	0.901899
	H45	H	0.213203	0.663942	0.098130
	H46	H	0.786222	0.336340	0.097937
	H47	H	0.785294	0.663631	0.901543
	H48	H	0.414004	0.114771	0.596456
	H49	H	0.595387	0.881499	0.597189
	H50	H	0.592865	0.114571	0.411610
	H51	H	0.404044	0.881234	0.401441
	H52	H	0.592813	0.401943	0.116780
	H53	H	0.588842	0.599489	0.883110
	H54	H	0.403372	0.592282	0.116721
	H55	H	0.404649	0.411147	0.884224
	H56	H	0.119032	0.597576	0.399000
	H57	H	0.885376	0.588868	0.594921
	H58	H	0.117078	0.408141	0.598318
	H59	H	0.882301	0.407132	0.401092
	H60	H	0.116331	0.401410	0.591280
	H61	H	0.881861	0.596955	0.598225
	H62	H	0.115743	0.596615	0.412927
	H63	H	0.884097	0.402303	0.410970
	H64	H	0.408388	0.589450	0.113264
	H65	H	0.601273	0.594104	0.881430
	H66	H	0.597925	0.408230	0.116358
	H67	H	0.411619	0.406899	0.885223
	H68	H	0.596833	0.118138	0.405187
	H69	H	0.588402	0.884799	0.593230
	H70	H	0.404565	0.114364	0.585517
	H71	H	0.411651	0.884767	0.406017
	H72	H	0.903196	0.616398	0.090020
	H73	H	0.097809	0.381326	0.097651
	H74	H	0.087266	0.614944	0.906855
	H75	H	0.910178	0.383978	0.906550
	H76	H	0.085922	0.915267	0.611327
	H77	H	0.093956	0.099205	0.382510
	H78	H	0.912243	0.101845	0.616513
	H79	H	0.909686	0.906282	0.384900
	H80	H	0.615460	0.097765	0.913372
	H81	H	0.383278	0.098060	0.093269
	H82	H	0.614103	0.912247	0.090257
	H83	H	0.383490	0.904993	0.905702
	H84	H	0.617696	0.907178	0.099326
	H85	H	0.385067	0.091867	0.092072
	H86	H	0.613076	0.083650	0.907940
	H87	H	0.384586	0.907657	0.908823
	H88	H	0.895823	0.093973	0.619311
	H89	H	0.098136	0.089560	0.383181
	H90	H	0.089588	0.894718	0.618845
	H91	H	0.905163	0.903506	0.382331
	H92	H	0.097231	0.615313	0.912414
	H93	H	0.086216	0.385019	0.095578
	H94	H	0.904463	0.618099	0.097685
	H95	H	0.906588	0.384740	0.910944
	H96	H	0.400449	0.119962	0.598335
	H97	H	0.595709	0.883939	0.589025
	H98	H	0.588965	0.115340	0.404306
	H99	H	0.402913	0.883308	0.410780
	H100	H	0.590314	0.409298	0.113667
	H101	H	0.591127	0.586345	0.887272
	H102	H	0.409032	0.595799	0.115745
	H103	H	0.404458	0.403003	0.881956
	H104	H	0.114274	0.585568	0.404242
	H105	H	0.884841	0.595931	0.589464
	H106	H	0.113588	0.411078	0.589812
	H107	H	0.885985	0.413166	0.409462
	H108	H	0.910240	0.614633	0.092795
	H109	H	0.094663	0.385283	0.086443
	H110	H	0.096780	0.618626	0.901180
	H111	H	0.905325	0.382883	0.905631
	H112	H	0.106427	0.908745	0.619029
	H113	H	0.088571	0.091101	0.386049
	H114	H	0.909695	0.083987	0.612852
	H115	H	0.904667	0.909247	0.383897
	H116	H	0.618339	0.095158	0.898733
	H117	H	0.383156	0.093303	0.097998
	H118	H	0.616893	0.901506	0.089686
	H119	H	0.384733	0.909464	0.904355
	C120	C	0.378052	0.008151	0.621478
	C121	C	0.621562	0.991638	0.621343
	C122	C	0.621328	0.008064	0.378483
	C123	C	0.378303	0.991376	0.378010
	C124	C	0.622021	0.378351	0.007966
	C125	C	0.621699	0.621639	0.992001
	C126	C	0.378378	0.621337	0.007711
	C127	C	0.378757	0.378881	0.992014
	C128	C	0.008167	0.621679	0.378152
	C129	C	0.991922	0.621864	0.622009
	C130	C	0.007745	0.378632	0.621748
	C131	C	0.991769	0.378595	0.378506
	C132	C	0.877673	0.508405	0.122025
	C133	C	0.121118	0.491845	0.121506
	C134	C	0.121745	0.508045	0.878644
	C135	C	0.878736	0.492151	0.879168
	C136	C	0.122110	0.878227	0.508275
	C137	C	0.121607	0.121589	0.491986
	C138	C	0.877924	0.121732	0.508275
	C139	C	0.878826	0.878607	0.491962
	C140	C	0.507959	0.120933	0.878584
	C141	C	0.491979	0.122318	0.122321
	C142	C	0.508158	0.878497	0.121455
	C143	C	0.492226	0.878755	0.878360
	C144	C	0.380980	0.884822	0.675955
	C145	C	0.618596	0.114565	0.676376
	C146	C	0.619071	0.885015	0.323041
	C147	C	0.381300	0.114806	0.323359
	C148	C	0.677649	0.380434	0.885193
	C149	C	0.676113	0.618724	0.114867
	C150	C	0.323673	0.618588	0.884992
	C151	C	0.323650	0.381312	0.114539
	C152	C	0.885261	0.676528	0.382172
	C153	C	0.115533	0.675455	0.617751
	C154	C	0.885156	0.323261	0.619208
	C155	C	0.114697	0.323574	0.381621
	C156	C	0.885056	0.380792	0.677235
	C157	C	0.115280	0.618279	0.676141
	C158	C	0.885160	0.619221	0.323868
	C159	C	0.114440	0.380776	0.323045
	C160	C	0.381915	0.675976	0.884902
	C161	C	0.618446	0.676603	0.114718
	C162	C	0.619706	0.323035	0.885250
	C163	C	0.381734	0.324005	0.114624
	C164	C	0.676540	0.885120	0.381065
	C165	C	0.675729	0.114928	0.618170
	C166	C	0.323774	0.884855	0.617546
	C167	C	0.323561	0.114749	0.381077
	C168	C	0.880860	0.385294	0.176887
	C169	C	0.117265	0.615146	0.175858
	C170	C	0.118751	0.385216	0.823732
	C171	C	0.881170	0.614744	0.823885
	C172	C	0.176504	0.881502	0.385026
	C173	C	0.175795	0.118397	0.614936
	C174	C	0.822987	0.119302	0.385692
	C175	C	0.823622	0.881592	0.614819
	C176	C	0.385182	0.176519	0.881662
	C177	C	0.615150	0.176233	0.118456
	C178	C	0.385439	0.823787	0.118513
	C179	C	0.615254	0.824046	0.881486
	C180	C	0.385206	0.881599	0.176116
	C181	C	0.614847	0.119022	0.176789
	C182	C	0.385214	0.118864	0.823365
	C183	C	0.615111	0.881210	0.823148
	C184	C	0.880861	0.176708	0.385730
	C185	C	0.117562	0.175661	0.615200
	C186	C	0.118863	0.823741	0.385305
	C187	C	0.881989	0.824370	0.615041
	C188	C	0.176313	0.384974	0.881488
	C189	C	0.175615	0.615098	0.118596
	C190	C	0.823593	0.385243	0.118750
	C191	C	0.823348	0.614751	0.881349
	C192	C	0.399835	0.094171	0.599920
	C193	C	0.599670	0.905687	0.599615
	C194	C	0.599230	0.093756	0.400528
	C195	C	0.400027	0.905352	0.399510
	C196	C	0.600207	0.400078	0.093413
	C197	C	0.600092	0.599728	0.906162
	C198	C	0.400360	0.599149	0.093320
	C199	C	0.400411	0.400693	0.905971
	C200	C	0.094145	0.599757	0.399165
	C201	C	0.906181	0.600374	0.600645
	C202	C	0.093542	0.400534	0.599715
	C203	C	0.906132	0.400979	0.400747
	C204	C	0.899496	0.594304	0.100071
	C205	C	0.099374	0.406062	0.099681
	C206	C	0.099960	0.594148	0.900492
	C207	C	0.901095	0.406017	0.901175
	C208	C	0.100319	0.899847	0.594244
	C209	C	0.100024	0.099870	0.405978
	C210	C	0.899750	0.099809	0.594070
	C211	C	0.900290	0.900104	0.406052
	C212	C	0.593446	0.098600	0.900289
	C213	C	0.406081	0.100799	0.100858
	C214	C	0.594052	0.900488	0.099500
	C215	C	0.406431	0.900799	0.899953
	Zn216	Zn	0.499869	-0.000395	0.749327
	Zn217	Zn	0.500152	-0.000324	0.250003
	Zn218	Zn	0.750123	0.500084	-0.000151
	Zn219	Zn	0.249855	0.499870	0.000120
	Zn220	Zn	0.000254	0.749901	0.500263
	Zn221	Zn	-0.000114	0.249833	0.500225
	Zn222	Zn	-0.000215	0.499785	0.750471
	Zn223	Zn	-0.000489	0.500256	0.249915
	Zn224	Zn	0.500311	0.750017	-0.000342
	Zn225	Zn	0.500442	0.250104	0.000015
	Zn226	Zn	0.749763	0.000098	0.500089
	Zn227	Zn	0.249948	0.000366	0.499812
	N228	N	0.414176	0.962329	0.678374
	N229	N	0.585383	0.037023	0.678081
	N230	N	0.585292	0.962326	0.321461
	N231	N	0.414588	0.037262	0.321380
	N232	N	0.679098	0.414234	0.962300
	N233	N	0.678209	0.585288	0.037543
	N234	N	0.321576	0.585202	0.962224
	N235	N	0.321830	0.414705	0.037339
	N236	N	0.962694	0.678224	0.415006
	N237	N	0.038206	0.677538	0.584695
	N238	N	0.962481	0.321663	0.585718
	N239	N	0.037498	0.322181	0.415312
	N240	N	0.962180	0.414664	0.678750
	N241	N	0.037488	0.585718	0.679116
	N242	N	0.962416	0.585664	0.321460
	N243	N	0.036995	0.414246	0.320941
	N244	N	0.415337	0.677615	0.962166
	N245	N	0.585227	0.678360	0.037429
	N246	N	0.585811	0.321595	0.962311
	N247	N	0.415336	0.322502	0.037352
	N248	N	0.678083	0.962353	0.414750
	N249	N	0.677730	0.037476	0.584894
	N250	N	0.322024	0.962446	0.584368
	N251	N	0.321785	0.037283	0.414498
	N252	N	0.913679	0.462951	0.179083
	N253	N	0.084163	0.537698	0.177676
	N254	N	0.085557	0.462747	0.821737
	N255	N	0.914967	0.537429	0.822605
	N256	N	0.178564	0.914754	0.462397
	N257	N	0.178429	0.085684	0.537334
	N258	N	0.820967	0.085987	0.462961
	N259	N	0.821667	0.914620	0.537370
	N260	N	0.462319	0.177864	0.915197
	N261	N	0.537779	0.178362	0.085191
	N262	N	0.462798	0.821896	0.085113
	N263	N	0.538095	0.822597	0.915361
	N264	N	0.462612	0.914849	0.177938
	N265	N	0.537393	0.086161	0.179222
	N266	N	0.462530	0.085147	0.821183
	N267	N	0.537590	0.914370	0.820947
	N268	N	0.914346	0.178343	0.462917
	N269	N	0.084849	0.178020	0.537612
	N270	N	0.085782	0.821704	0.462789
	N271	N	0.915612	0.822508	0.537745
	N272	N	0.178033	0.462341	0.915048
	N273	N	0.177949	0.537540	0.085409
	N274	N	0.821821	0.462567	0.085167
	N275	N	0.822038	0.537351	0.914942
