data_Molecule from HDF5

_cell_length_a		16.378479
_cell_length_b		16.259920
_cell_length_c		16.219832
_cell_angle_alpha	90.069523
_cell_angle_beta	89.873958
_cell_angle_gamma	89.824481
_symmetry_space_group_name_H-M	'P 1'
_symmetry_Int_Tables_number		1

loop_
	_symmetry_equiv_pos_as_xyz
	x,y,z

loop_
	_atom_site_label
	_atom_site_type_symbol
	_atom_site_fract_x
	_atom_site_fract_y
	_atom_site_fract_z
	H0	H	0.401666	0.828948	0.718390
	H1	H	0.596066	0.157885	0.716082
	H2	H	0.599105	0.830214	0.288869
	H3	H	0.401711	0.156751	0.290483
	H4	H	0.717017	0.391622	0.839266
	H5	H	0.715649	0.591909	0.167451
	H6	H	0.285097	0.593962	0.840681
	H7	H	0.286375	0.394465	0.167404
	H8	H	0.837532	0.707602	0.404307
	H9	H	0.162798	0.709572	0.603435
	H10	H	0.837357	0.278478	0.602429
	H11	H	0.163164	0.276364	0.403946
	H12	H	0.838461	0.394315	0.719988
	H13	H	0.164250	0.591528	0.718293
	H14	H	0.837552	0.590810	0.289074
	H15	H	0.163341	0.393334	0.288041
	H16	H	0.402862	0.706778	0.839119
	H17	H	0.599523	0.707191	0.168065
	H18	H	0.599198	0.277392	0.839433
	H19	H	0.403410	0.280339	0.168258
	H20	H	0.716784	0.830462	0.401028
	H21	H	0.715193	0.156563	0.603653
	H22	H	0.283610	0.829829	0.604428
	H23	H	0.284324	0.155878	0.403366
	H24	H	0.906054	0.327309	0.215235
	H25	H	0.097196	0.657152	0.216849
	H26	H	0.100102	0.328585	0.789551
	H27	H	0.904163	0.657301	0.790465
	H28	H	0.217952	0.891397	0.340013
	H29	H	0.214407	0.091828	0.666826
	H30	H	0.784565	0.094003	0.339465
	H31	H	0.784284	0.893731	0.666597
	H32	H	0.338173	0.209588	0.904518
	H33	H	0.663496	0.206525	0.101607
	H34	H	0.337817	0.778226	0.102607
	H35	H	0.662936	0.776318	0.904198
	H36	H	0.336280	0.897163	0.217364
	H37	H	0.663316	0.090916	0.217655
	H38	H	0.337175	0.091910	0.789807
	H39	H	0.663443	0.893499	0.788005
	H40	H	0.903220	0.206226	0.338735
	H41	H	0.097283	0.205754	0.667159
	H42	H	0.099205	0.778480	0.338561
	H43	H	0.902771	0.779346	0.667323
	H44	H	0.218684	0.330116	0.902997
	H45	H	0.215806	0.656433	0.103066
	H46	H	0.786498	0.328727	0.102884
	H47	H	0.784863	0.656307	0.903407
	H48	H	0.393784	0.111639	0.593049
	H49	H	0.589721	0.877795	0.597461
	H50	H	0.593490	0.110465	0.410270
	H51	H	0.403609	0.876666	0.417338
	H52	H	0.584606	0.404447	0.115855
	H53	H	0.598978	0.576704	0.887586
	H54	H	0.406276	0.585831	0.121414
	H55	H	0.413574	0.397840	0.887350
	H56	H	0.116488	0.591620	0.414702
	H57	H	0.886452	0.581045	0.598805
	H58	H	0.118446	0.395702	0.600393
	H59	H	0.887102	0.393446	0.421770
	H60	H	0.115717	0.395751	0.591263
	H61	H	0.884544	0.589165	0.599072
	H62	H	0.113354	0.579171	0.412077
	H63	H	0.887931	0.411947	0.408511
	H64	H	0.407933	0.584514	0.120219
	H65	H	0.584474	0.583206	0.889934
	H66	H	0.594669	0.388714	0.123654
	H67	H	0.404686	0.399048	0.884529
	H68	H	0.591615	0.109156	0.411968
	H69	H	0.594381	0.877603	0.591384
	H70	H	0.410408	0.111308	0.607771
	H71	H	0.406877	0.873754	0.405359
	H72	H	0.899138	0.610387	0.093197
	H73	H	0.087682	0.379749	0.091371
	H74	H	0.085655	0.606627	0.911991
	H75	H	0.914128	0.374685	0.899516
	H76	H	0.099092	0.888913	0.624824
	H77	H	0.090353	0.079838	0.388431
	H78	H	0.907330	0.086530	0.619532
	H79	H	0.902003	0.901029	0.384600
	H80	H	0.615037	0.082811	0.911107
	H81	H	0.385659	0.084967	0.095292
	H82	H	0.613050	0.902341	0.088749
	H83	H	0.386134	0.898578	0.913258
	H84	H	0.615218	0.905016	0.102525
	H85	H	0.384233	0.086531	0.100249
	H86	H	0.616590	0.086063	0.907378
	H87	H	0.384798	0.902045	0.910715
	H88	H	0.905110	0.084363	0.621112
	H89	H	0.092037	0.090965	0.384520
	H90	H	0.099699	0.913659	0.617924
	H91	H	0.909960	0.903735	0.387774
	H92	H	0.099276	0.608760	0.918512
	H93	H	0.103627	0.374957	0.090423
	H94	H	0.908627	0.610996	0.104238
	H95	H	0.915563	0.382579	0.921918
	H96	H	0.413910	0.104105	0.587320
	H97	H	0.596952	0.875225	0.597423
	H98	H	0.594030	0.110106	0.413263
	H99	H	0.415526	0.878726	0.413524
	H100	H	0.603698	0.406952	0.120685
	H101	H	0.596784	0.591799	0.884322
	H102	H	0.408586	0.586579	0.120666
	H103	H	0.408925	0.405793	0.887848
	H104	H	0.118689	0.586580	0.403125
	H105	H	0.886662	0.585695	0.591709
	H106	H	0.114573	0.403922	0.596150
	H107	H	0.879306	0.391823	0.399831
	H108	H	0.912824	0.605868	0.091146
	H109	H	0.095931	0.373290	0.104948
	H110	H	0.097506	0.611861	0.903957
	H111	H	0.895025	0.372771	0.913027
	H112	H	0.078457	0.899981	0.615682
	H113	H	0.100550	0.083154	0.384349
	H114	H	0.907782	0.083715	0.619050
	H115	H	0.908808	0.895405	0.384913
	H116	H	0.616391	0.087378	0.912543
	H117	H	0.383488	0.090376	0.096022
	H118	H	0.618366	0.892463	0.097860
	H119	H	0.384434	0.898202	0.908764
	C120	C	0.377915	0.001326	0.625502
	C121	C	0.621576	0.985134	0.624536
	C122	C	0.622114	0.001761	0.381757
	C123	C	0.379483	0.984657	0.383231
	C124	C	0.622952	0.370876	0.011604
	C125	C	0.622237	0.613419	0.995520
	C126	C	0.379146	0.614762	0.012430
	C127	C	0.380293	0.372504	0.995184
	C128	C	0.008543	0.613840	0.381826
	C129	C	0.993231	0.614390	0.625425
	C130	C	0.008796	0.370470	0.625303
	C131	C	0.992240	0.370308	0.381222
	C132	C	0.879178	0.500803	0.124835
	C133	C	0.123331	0.484347	0.124733
	C134	C	0.123288	0.501100	0.881983
	C135	C	0.879509	0.484667	0.882211
	C136	C	0.121996	0.871154	0.511476
	C137	C	0.122002	0.113486	0.494256
	C138	C	0.878339	0.114189	0.511576
	C139	C	0.878562	0.871485	0.494426
	C140	C	0.508646	0.114718	0.882065
	C141	C	0.492243	0.115311	0.125708
	C142	C	0.508190	0.871349	0.125468
	C143	C	0.492349	0.870668	0.881667
	C144	C	0.380937	0.877912	0.680752
	C145	C	0.617559	0.108642	0.679036
	C146	C	0.619690	0.879048	0.326301
	C147	C	0.381327	0.107900	0.328354
	C148	C	0.678513	0.372258	0.888168
	C149	C	0.677577	0.611823	0.118617
	C150	C	0.323393	0.613641	0.889222
	C151	C	0.324884	0.374609	0.118622
	C152	C	0.886158	0.669491	0.383979
	C153	C	0.114828	0.670497	0.623285
	C154	C	0.886418	0.316004	0.623085
	C155	C	0.114462	0.314138	0.383016
	C156	C	0.886830	0.373399	0.681673
	C157	C	0.115365	0.612051	0.680801
	C158	C	0.886229	0.611333	0.326677
	C159	C	0.114673	0.372177	0.325362
	C160	C	0.382037	0.669611	0.888522
	C161	C	0.619718	0.669289	0.118857
	C162	C	0.620387	0.315097	0.888395
	C163	C	0.382807	0.317670	0.118812
	C164	C	0.677908	0.879172	0.382710
	C165	C	0.676555	0.108032	0.623024
	C166	C	0.322434	0.878209	0.624044
	C167	C	0.322809	0.107069	0.384406
	C168	C	0.883705	0.376788	0.178870
	C169	C	0.118642	0.608106	0.179065
	C170	C	0.120821	0.377825	0.826837
	C171	C	0.882397	0.608145	0.827277
	C172	C	0.178834	0.871986	0.388544
	C173	C	0.176566	0.111835	0.617910
	C174	C	0.823119	0.112961	0.388208
	C175	C	0.822856	0.873536	0.617852
	C176	C	0.386408	0.170966	0.884601
	C177	C	0.614801	0.169044	0.122219
	C178	C	0.386027	0.816456	0.123145
	C179	C	0.614779	0.814951	0.883966
	C180	C	0.385258	0.875422	0.179982
	C181	C	0.614573	0.111637	0.180108
	C182	C	0.385909	0.112479	0.827455
	C183	C	0.614767	0.872980	0.826070
	C184	C	0.881737	0.169179	0.387788
	C185	C	0.118069	0.168109	0.618199
	C186	C	0.119523	0.816257	0.387560
	C187	C	0.881346	0.816482	0.618226
	C188	C	0.179705	0.378532	0.883186
	C189	C	0.177574	0.607726	0.122726
	C190	C	0.824702	0.377465	0.122925
	C191	C	0.823449	0.607651	0.883687
	C192	C	0.399794	0.086911	0.602834
	C193	C	0.599985	0.899065	0.601914
	C194	C	0.599584	0.087778	0.404981
	C195	C	0.402201	0.898718	0.405574
	C196	C	0.600878	0.393488	0.097685
	C197	C	0.599875	0.590772	0.909512
	C198	C	0.400974	0.592444	0.098387
	C199	C	0.402469	0.394527	0.909010
	C200	C	0.094101	0.592287	0.403658
	C201	C	0.907973	0.591834	0.603137
	C202	C	0.094112	0.392226	0.602595
	C203	C	0.906761	0.392583	0.403538
	C204	C	0.900540	0.586704	0.102802
	C205	C	0.102294	0.398154	0.102171
	C206	C	0.100758	0.586935	0.904772
	C207	C	0.901828	0.398923	0.904724
	C208	C	0.099157	0.893951	0.597303
	C209	C	0.100707	0.091183	0.407989
	C210	C	0.900154	0.091607	0.597494
	C211	C	0.900426	0.893592	0.408251
	C212	C	0.593989	0.091949	0.903922
	C213	C	0.406444	0.093737	0.103691
	C214	C	0.593412	0.893408	0.103129
	C215	C	0.407144	0.892998	0.904218
	Zn216	Zn	0.500051	-0.007041	0.752874
	Zn217	Zn	0.500141	-0.006326	0.254847
	Zn218	Zn	0.750772	0.492631	0.003541
	Zn219	Zn	0.252037	0.493383	0.003511
	Zn220	Zn	0.000555	0.743222	0.502962
	Zn221	Zn	0.000527	0.241156	0.502972
	Zn222	Zn	0.001381	0.492598	0.754064
	Zn223	Zn	0.000828	0.492444	0.252694
	Zn224	Zn	0.500603	0.741890	0.003684
	Zn225	Zn	0.500616	0.243334	0.003891
	Zn226	Zn	0.749930	-0.006382	0.502732
	Zn227	Zn	0.249947	-0.007398	0.503436
	N228	N	0.414696	0.955307	0.681733
	N229	N	0.583899	0.031167	0.680003
	N230	N	0.585419	0.956321	0.326014
	N231	N	0.415982	0.030839	0.327524
	N232	N	0.680243	0.406219	0.965908
	N233	N	0.679142	0.577828	0.041072
	N234	N	0.321566	0.580146	0.967014
	N235	N	0.323124	0.407882	0.040682
	N236	N	0.963192	0.671156	0.417654
	N237	N	0.037921	0.672135	0.589662
	N238	N	0.963395	0.314007	0.588853
	N239	N	0.037498	0.313108	0.417237
	N240	N	0.963900	0.406609	0.682978
	N241	N	0.038598	0.577863	0.682040
	N242	N	0.963308	0.577546	0.325087
	N243	N	0.037702	0.406215	0.323937
	N244	N	0.415934	0.670495	0.966076
	N245	N	0.585929	0.670256	0.041273
	N246	N	0.586797	0.314008	0.966094
	N247	N	0.416980	0.316613	0.041268
	N248	N	0.679424	0.956867	0.416452
	N249	N	0.679116	0.030234	0.589780
	N250	N	0.320400	0.955752	0.590418
	N251	N	0.321836	0.029310	0.418068
	N252	N	0.917023	0.454506	0.180260
	N253	N	0.085561	0.530525	0.180323
	N254	N	0.086416	0.455143	0.826035
	N255	N	0.916398	0.530819	0.826225
	N256	N	0.180339	0.905437	0.466431
	N257	N	0.178942	0.078563	0.539969
	N258	N	0.820768	0.079642	0.466229
	N259	N	0.820880	0.906781	0.539933
	N260	N	0.463625	0.172386	0.917956
	N261	N	0.537513	0.171289	0.089173
	N262	N	0.463310	0.813748	0.090044
	N263	N	0.537703	0.813370	0.917629
	N264	N	0.462446	0.908678	0.181852
	N265	N	0.537280	0.079009	0.182273
	N266	N	0.462859	0.078119	0.825759
	N267	N	0.537609	0.906730	0.824309
	N268	N	0.915526	0.169980	0.465325
	N269	N	0.084790	0.169170	0.540389
	N270	N	0.084972	0.815416	0.465032
	N271	N	0.915333	0.815215	0.540582
	N272	N	0.181516	0.456170	0.916638
	N273	N	0.180675	0.529571	0.089803
	N274	N	0.821693	0.455325	0.090258
	N275	N	0.821456	0.529745	0.916888
	O276	O	0.588784	0.471767	0.428301
	H277	H	0.584297	0.486366	0.433596
	H278	H	0.592334	0.478222	0.435731
	O279	O	0.640106	0.494759	0.531523
	H280	H	0.636834	0.506391	0.533746
	H281	H	0.650956	0.499012	0.526837
	O282	O	0.512594	0.531440	0.546115
	H283	H	0.511391	0.534350	0.552599
	H284	H	0.506494	0.529735	0.537733
	O285	O	0.515774	1.536058	0.432575
	H286	H	0.514035	1.539334	0.427885
	H287	H	0.521250	1.550561	0.434884
	O288	O	0.464874	0.517659	0.529129
	H289	H	0.466706	0.520969	0.543211
	H290	H	0.461417	0.521844	0.530800
	O291	O	-0.010314	-0.013569	0.930500
	H292	H	-0.010718	-0.020405	0.918512
	H293	H	-0.014282	-0.014206	0.926745
	O294	O	0.408877	0.456889	0.564820
	H295	H	0.400643	0.453783	0.565148
	H296	H	0.409458	0.458338	0.554216
	O297	O	0.521798	0.532347	0.595121
	H298	H	0.511422	0.523299	0.583260
	H299	H	0.530336	0.529549	0.591369
	O300	O	0.986197	1.003928	0.951736
	H301	H	0.988150	1.003499	0.947591
	H302	H	0.984136	1.006011	0.950627
	O303	O	0.483083	0.416858	0.472052
	H304	H	0.487921	0.413646	0.472100
	H305	H	0.489501	0.406605	0.462709
	O306	O	0.977145	0.019093	0.931714
	H307	H	0.976239	0.021441	0.928919
	H308	H	0.975165	0.026753	0.937139
	O309	O	0.560471	0.492938	0.426806
	H310	H	0.567635	0.501109	0.415615
	H311	H	0.562850	0.496344	0.432338
	O312	O	-0.032230	0.977386	0.919448
	H313	H	-0.035299	0.972998	0.911335
	H314	H	-0.033596	0.979910	0.926177
	O315	O	0.444292	-0.471463	0.413216
	H316	H	0.441365	-0.479349	0.420528
	H317	H	0.441200	-0.474063	0.404235
	O318	O	-0.559555	-0.519302	-0.576931
	H319	H	-0.562838	-0.521156	-0.578235
	H320	H	-0.565574	-0.519564	-0.578335
	O321	O	0.534135	0.483630	0.473969
	H322	H	0.527505	0.484542	0.479553
	H323	H	0.534738	0.488071	0.473595
	O324	O	0.482797	0.576915	0.563788
	H325	H	0.474134	0.573781	0.561477
	H326	H	0.480501	0.574814	0.567567
	O327	O	1.541762	1.510971	-0.437786
	H328	H	1.558621	1.502173	-0.433660
	H329	H	1.533459	1.509546	-0.431887
	O330	O	0.430044	0.522596	0.554035
	H331	H	0.438495	0.521120	0.550152
	H332	H	0.436731	0.525606	0.559164
	O333	O	0.475545	0.424575	0.483793
	H334	H	0.480487	0.424601	0.484170
	H335	H	0.466189	0.420389	0.481125
