data_Molecule from HDF5

_cell_length_a		16.326205
_cell_length_b		16.182492
_cell_length_c		16.297957
_cell_angle_alpha	89.882391
_cell_angle_beta	90.171552
_cell_angle_gamma	89.831902
_symmetry_space_group_name_H-M	'P 1'
_symmetry_Int_Tables_number		1

loop_
	_symmetry_equiv_pos_as_xyz
	x,y,z

loop_
	_atom_site_label
	_atom_site_type_symbol
	_atom_site_fract_x
	_atom_site_fract_y
	_atom_site_fract_z
	H0	H	0.399045	0.841156	0.718387
	H1	H	0.597883	0.169005	0.716770
	H2	H	0.599152	0.840841	0.286916
	H3	H	0.395912	0.167944	0.285721
	H4	H	0.713291	0.404595	0.839144
	H5	H	0.714734	0.605294	0.165072
	H6	H	0.279380	0.609075	0.840465
	H7	H	0.280756	0.401552	0.164025
	H8	H	0.835982	0.722119	0.399696
	H9	H	0.160729	0.717577	0.602167
	H10	H	0.834928	0.287448	0.604470
	H11	H	0.159763	0.285861	0.403721
	H12	H	0.835778	0.401384	0.721761
	H13	H	0.159013	0.605405	0.721548
	H14	H	0.835653	0.605912	0.285066
	H15	H	0.159653	0.400168	0.285516
	H16	H	0.397532	0.722216	0.840128
	H17	H	0.597231	0.718800	0.166210
	H18	H	0.599315	0.288933	0.839870
	H19	H	0.400658	0.290043	0.165277
	H20	H	0.714346	0.840809	0.401106
	H21	H	0.715460	0.166728	0.604407
	H22	H	0.283588	0.840188	0.603076
	H23	H	0.279367	0.167438	0.400529
	H24	H	0.898236	0.339904	0.218193
	H25	H	0.099385	0.667992	0.219401
	H26	H	0.098026	0.339912	0.788068
	H27	H	0.895961	0.667366	0.785375
	H28	H	0.214755	0.901100	0.340364
	H29	H	0.214917	0.105365	0.664877
	H30	H	0.778640	0.107339	0.341642
	H31	H	0.780963	0.900096	0.664739
	H32	H	0.335593	0.222815	0.901738
	H33	H	0.661919	0.218520	0.101815
	H34	H	0.335534	0.790451	0.101565
	H35	H	0.661155	0.791086	0.905421
	H36	H	0.335594	0.903195	0.218922
	H37	H	0.660010	0.106299	0.221998
	H38	H	0.335994	0.108670	0.783840
	H39	H	0.660587	0.905345	0.787954
	H40	H	0.894315	0.222219	0.341287
	H41	H	0.095835	0.217216	0.665794
	H42	H	0.097355	0.788990	0.339510
	H43	H	0.899737	0.787476	0.665065
	H44	H	0.216165	0.341660	0.900366
	H45	H	0.214919	0.667800	0.104229
	H46	H	0.782981	0.340211	0.101585
	H47	H	0.781220	0.667771	0.899802
	H48	H	0.402196	0.121950	0.591284
	H49	H	0.587030	0.887756	0.597640
	H50	H	0.583950	0.120748	0.408017
	H51	H	0.409773	0.891924	0.420789
	H52	H	0.587079	0.409789	0.117524
	H53	H	0.588778	0.598238	0.886314
	H54	H	0.397019	0.591037	0.119388
	H55	H	0.412161	0.413080	0.888016
	H56	H	0.114944	0.596427	0.406668
	H57	H	0.883048	0.598475	0.585703
	H58	H	0.114919	0.408781	0.601578
	H59	H	0.882007	0.410041	0.410638
	H60	H	0.112521	0.407247	0.591010
	H61	H	0.883436	0.585967	0.596389
	H62	H	0.112891	0.598913	0.413662
	H63	H	0.884506	0.415747	0.414404
	H64	H	0.413630	0.590121	0.113688
	H65	H	0.591529	0.599170	0.885837
	H66	H	0.596697	0.409983	0.120985
	H67	H	0.401846	0.412059	0.884244
	H68	H	0.584988	0.118097	0.417908
	H69	H	0.591070	0.888192	0.590908
	H70	H	0.403266	0.122794	0.596085
	H71	H	0.396176	0.884786	0.410366
	H72	H	0.909577	0.618364	0.090270
	H73	H	0.089135	0.387278	0.099851
	H74	H	0.089336	0.618433	0.920648
	H75	H	0.905244	0.385395	0.908516
	H76	H	0.093299	0.912222	0.618567
	H77	H	0.095486	0.093710	0.385094
	H78	H	0.901200	0.097062	0.620686
	H79	H	0.902487	0.922215	0.389007
	H80	H	0.614839	0.096615	0.905305
	H81	H	0.384311	0.092576	0.092376
	H82	H	0.612638	0.913521	0.094179
	H83	H	0.383078	0.918641	0.910380
	H84	H	0.614629	0.914274	0.098055
	H85	H	0.382030	0.096668	0.098514
	H86	H	0.613951	0.100591	0.910769
	H87	H	0.380354	0.912704	0.905758
	H88	H	0.904207	0.087412	0.617065
	H89	H	0.084718	0.089724	0.389424
	H90	H	0.089294	0.911259	0.619207
	H91	H	0.914072	0.912427	0.388902
	H92	H	0.096717	0.625329	0.906180
	H93	H	0.084075	0.390868	0.090342
	H94	H	0.898095	0.622081	0.091715
	H95	H	0.908423	0.388629	0.912909
	H96	H	0.407224	0.121557	0.592978
	H97	H	0.594581	0.884604	0.598329
	H98	H	0.593671	0.121738	0.413206
	H99	H	0.412985	0.886985	0.402975
	H100	H	0.591760	0.418520	0.117081
	H101	H	0.591125	0.596907	0.885614
	H102	H	0.407184	0.605580	0.120961
	H103	H	0.405290	0.421841	0.888673
	H104	H	0.112196	0.591624	0.411742
	H105	H	0.878233	0.601567	0.600547
	H106	H	0.110938	0.416891	0.595540
	H107	H	0.881488	0.416041	0.406516
	H108	H	0.906571	0.622834	0.100244
	H109	H	0.094953	0.387948	0.090092
	H110	H	0.079871	0.619615	0.905969
	H111	H	0.902644	0.387507	0.914348
	H112	H	0.091884	0.908117	0.619991
	H113	H	0.086224	0.101232	0.385622
	H114	H	0.911196	0.095960	0.617561
	H115	H	0.899994	0.907670	0.383213
	H116	H	0.612329	0.094644	0.911843
	H117	H	0.382327	0.099815	0.091127
	H118	H	0.614218	0.910417	0.096307
	H119	H	0.381470	0.911367	0.912855
	C120	C	0.375898	0.013540	0.623242
	C121	C	0.619898	0.995444	0.624497
	C122	C	0.618166	0.012572	0.382135
	C123	C	0.375910	0.995681	0.380886
	C124	C	0.620665	0.383121	0.011048
	C125	C	0.619771	0.626720	0.993946
	C126	C	0.375937	0.626620	0.010673
	C127	C	0.376798	0.384141	0.993760
	C128	C	0.006265	0.625913	0.380039
	C129	C	0.989268	0.624767	0.623992
	C130	C	0.005647	0.381642	0.625469
	C131	C	0.989227	0.382230	0.380827
	C132	C	0.876030	0.512640	0.123564
	C133	C	0.119305	0.496274	0.123604
	C134	C	0.118659	0.512652	0.881500
	C135	C	0.875671	0.495458	0.881266
	C136	C	0.120283	0.881405	0.511339
	C137	C	0.118402	0.124357	0.494162
	C138	C	0.874756	0.125397	0.512032
	C139	C	0.876062	0.882689	0.494064
	C140	C	0.506614	0.127953	0.879523
	C141	C	0.489961	0.126590	0.124158
	C142	C	0.506588	0.883025	0.125185
	C143	C	0.489532	0.884238	0.881362
	C144	C	0.378482	0.890215	0.680196
	C145	C	0.617684	0.119400	0.679236
	C146	C	0.618257	0.889767	0.325190
	C147	C	0.376209	0.118935	0.324073
	C148	C	0.675717	0.384641	0.888073
	C149	C	0.676454	0.625204	0.116298
	C150	C	0.318565	0.627391	0.888945
	C151	C	0.319810	0.382900	0.115690
	C152	C	0.884349	0.683280	0.380433
	C153	C	0.111633	0.680347	0.622498
	C154	C	0.883681	0.325417	0.624231
	C155	C	0.111298	0.324589	0.383119
	C156	C	0.883810	0.382307	0.682310
	C157	C	0.110767	0.624565	0.682070
	C158	C	0.884521	0.625512	0.323063
	C159	C	0.111210	0.381386	0.324208
	C160	C	0.377442	0.683865	0.888774
	C161	C	0.618167	0.681827	0.117008
	C162	C	0.619103	0.326997	0.888505
	C163	C	0.379467	0.327442	0.116349
	C164	C	0.675667	0.889735	0.381997
	C165	C	0.676351	0.118370	0.623337
	C166	C	0.321041	0.889663	0.622727
	C167	C	0.318615	0.118750	0.381452
	C168	C	0.878170	0.389251	0.179802
	C169	C	0.118708	0.618982	0.180831
	C170	C	0.117987	0.389311	0.825404
	C171	C	0.876626	0.618454	0.823917
	C172	C	0.176372	0.882088	0.389076
	C173	C	0.175668	0.123936	0.616515
	C174	C	0.817216	0.126295	0.389983
	C175	C	0.819733	0.881613	0.616234
	C176	C	0.384322	0.184711	0.881511
	C177	C	0.612581	0.181817	0.122645
	C178	C	0.384216	0.827631	0.122430
	C179	C	0.612128	0.828408	0.884241
	C180	C	0.384463	0.883927	0.180845
	C181	C	0.611682	0.125454	0.182021
	C182	C	0.384382	0.127913	0.822809
	C183	C	0.611748	0.885373	0.825830
	C184	C	0.875041	0.183425	0.389909
	C185	C	0.116707	0.179908	0.616895
	C186	C	0.118370	0.825638	0.388733
	C187	C	0.878820	0.825559	0.616453
	C188	C	0.176775	0.390178	0.881603
	C189	C	0.176172	0.619065	0.123610
	C190	C	0.820676	0.389295	0.121756
	C191	C	0.819273	0.618668	0.880828
	C192	C	0.397464	0.099755	0.600152
	C193	C	0.597468	0.909134	0.602308
	C194	C	0.594493	0.097960	0.405961
	C195	C	0.399463	0.910105	0.404348
	C196	C	0.598453	0.406003	0.096339
	C197	C	0.597205	0.604616	0.908201
	C198	C	0.399191	0.602541	0.095910
	C199	C	0.399649	0.408650	0.908894
	C200	C	0.091365	0.602365	0.403795
	C201	C	0.903949	0.601977	0.600889
	C202	C	0.090746	0.404380	0.602835
	C203	C	0.904594	0.406684	0.403833
	C204	C	0.898374	0.598825	0.100906
	C205	C	0.096317	0.410897	0.100156
	C206	C	0.095329	0.598841	0.904256
	C207	C	0.898787	0.409506	0.904796
	C208	C	0.098068	0.904038	0.597001
	C209	C	0.095551	0.101436	0.408838
	C210	C	0.898512	0.100872	0.596568
	C211	C	0.898708	0.907105	0.409044
	C212	C	0.591803	0.104140	0.902451
	C213	C	0.404946	0.103314	0.100835
	C214	C	0.591775	0.905954	0.102609
	C215	C	0.403958	0.907246	0.903396
	Zn216	Zn	0.497710	0.005434	0.751817
	Zn217	Zn	0.497982	0.004273	0.253349
	Zn218	Zn	0.747556	0.504875	0.001565
	Zn219	Zn	0.246959	0.504917	0.002188
	Zn220	Zn	-0.002329	0.754014	0.502446
	Zn221	Zn	-0.003096	0.253459	0.503451
	Zn222	Zn	-0.002963	0.503535	0.753605
	Zn223	Zn	-0.001829	0.504200	0.252032
	Zn224	Zn	0.498386	0.755096	0.003326
	Zn225	Zn	0.498826	0.255682	0.002288
	Zn226	Zn	0.746776	0.003453	0.502322
	Zn227	Zn	0.247689	0.003643	0.502263
	N228	N	0.411834	0.968261	0.680756
	N229	N	0.583365	0.041876	0.680175
	N230	N	0.583166	0.967146	0.325080
	N231	N	0.411214	0.041507	0.323688
	N232	N	0.676962	0.418933	0.965321
	N233	N	0.677669	0.591848	0.038588
	N234	N	0.317553	0.592411	0.965946
	N235	N	0.317827	0.417355	0.038483
	N236	N	0.961203	0.683675	0.415257
	N237	N	0.034987	0.680508	0.587029
	N238	N	0.960355	0.324836	0.589615
	N239	N	0.034322	0.324723	0.417473
	N240	N	0.960720	0.416582	0.683246
	N241	N	0.033617	0.590630	0.683087
	N242	N	0.961555	0.590943	0.322634
	N243	N	0.034365	0.416640	0.322907
	N244	N	0.412295	0.683586	0.965658
	N245	N	0.583811	0.683109	0.039942
	N246	N	0.585649	0.325866	0.965795
	N247	N	0.414200	0.328158	0.039575
	N248	N	0.675854	0.967102	0.416648
	N249	N	0.677887	0.040298	0.589939
	N250	N	0.319250	0.967285	0.588138
	N251	N	0.317953	0.041030	0.415847
	N252	N	0.911640	0.467123	0.181188
	N253	N	0.084118	0.541636	0.181094
	N254	N	0.082705	0.466589	0.825097
	N255	N	0.911092	0.540754	0.824069
	N256	N	0.177727	0.916107	0.466417
	N257	N	0.176955	0.090113	0.539100
	N258	N	0.816760	0.090958	0.466772
	N259	N	0.817836	0.916379	0.539031
	N260	N	0.461412	0.184999	0.915837
	N261	N	0.535891	0.182734	0.087496
	N262	N	0.461354	0.826652	0.088868
	N263	N	0.534876	0.827356	0.917941
	N264	N	0.461600	0.917682	0.182606
	N265	N	0.534338	0.091785	0.183202
	N266	N	0.461491	0.093508	0.821351
	N267	N	0.534470	0.919335	0.823928
	N268	N	0.909987	0.183092	0.466789
	N269	N	0.081945	0.180441	0.539981
	N270	N	0.084286	0.824942	0.465799
	N271	N	0.912994	0.826082	0.539492
	N272	N	0.177276	0.468025	0.915404
	N273	N	0.176594	0.541862	0.088575
	N274	N	0.819199	0.467113	0.087549
	N275	N	0.818630	0.541198	0.915786
	O276	O	1.589038	0.488191	0.430633
	H277	H	1.607989	0.471470	0.426976
	H278	H	1.591213	0.491353	0.424894
	O279	O	0.504906	0.619701	0.604866
	H280	H	0.495411	0.609050	0.622692
	H281	H	0.513502	0.623000	0.612024
	O282	O	0.529931	0.407430	0.327551
	H283	H	0.517554	0.398763	0.326598
	H284	H	0.533810	0.402023	0.320908
	O285	O	0.473523	0.431225	0.607004
	H286	H	0.474056	0.439875	0.594182
	H287	H	0.481461	0.424315	0.616132
	O288	O	0.557350	0.500490	0.377590
	H289	H	0.556470	0.505007	0.393768
	H290	H	0.564017	0.507696	0.386644
	O291	O	0.003024	0.001544	1.055575
	H292	H	-0.004209	-0.001604	1.064552
	H293	H	0.007087	0.003574	1.066582
	O294	O	0.864184	0.991262	-0.114005
	H295	H	0.865178	0.997404	-0.113129
	H296	H	0.862523	0.983577	-0.113654
	O297	O	0.985039	1.109840	0.020491
	H298	H	0.988945	1.113442	0.009828
	H299	H	0.987058	1.111666	0.019670
	O300	O	0.611844	0.549622	0.466837
	H301	H	0.625200	0.555668	0.480387
	H302	H	0.608405	0.544137	0.456421
	O303	O	0.526980	0.408038	0.396486
	H304	H	0.524715	0.399760	0.392166
	H305	H	0.525538	0.409371	0.392449
	O306	O	0.469562	0.621257	0.510626
	H307	H	0.485102	0.606552	0.512975
	H308	H	0.459646	0.624113	0.511408
	O309	O	0.599041	0.495654	0.489080
	H310	H	0.585131	0.499736	0.480745
	H311	H	0.587734	0.487152	0.480254
	O312	O	0.983311	0.985017	1.071763
	H313	H	0.983673	0.977625	1.061615
	H314	H	0.981621	0.993106	1.081674
	O315	O	1.044675	1.144366	0.035212
	H316	H	1.052822	1.145774	0.039841
	H317	H	1.054133	1.147476	0.024378
	O318	O	0.378108	0.585680	0.416820
	H319	H	0.384203	0.593312	0.416949
	H320	H	0.370776	0.581887	0.415619
	O321	O	0.629597	0.484319	0.541426
	H322	H	0.635299	0.464457	0.544306
	H323	H	0.632611	0.487987	0.539886
	O324	O	-0.541989	1.599406	0.611897
	H325	H	-0.552796	1.594127	0.605852
	H326	H	-0.558471	1.604563	0.599011
	O327	O	-0.012904	0.893155	1.054832
	H328	H	-0.015423	0.887620	1.048945
	H329	H	-0.005870	0.899830	1.057278
	O330	O	0.106352	-0.017669	-0.058478
	H331	H	0.108043	-0.030515	-0.056303
	H332	H	0.100891	-0.009064	-0.048358
	O333	O	0.441428	0.351127	0.475073
	H334	H	0.438406	0.360846	0.468514
	H335	H	0.445715	0.350004	0.476804
	O336	O	-0.595671	-0.550098	-0.437677
	H337	H	-0.592775	-0.534562	-0.435792
	H338	H	-0.589033	-0.555543	-0.434434
	O339	O	-0.059413	0.120787	-0.050035
	H340	H	-0.062549	0.126185	-0.063036
	H341	H	-0.062634	0.129938	-0.041883
	O342	O	0.541360	0.604944	0.383118
	H343	H	0.551496	0.611278	0.372873
	H344	H	0.548076	0.590948	0.384335
	O345	O	0.033876	0.917789	0.917787
	H346	H	0.043310	0.911462	0.914315
	H347	H	0.030844	0.909178	0.914169
	O348	O	0.590477	0.559974	0.600175
	H349	H	0.573963	0.559425	0.612614
	H350	H	0.587866	0.548629	0.609137
	O351	O	0.457481	0.442507	0.426604
	H352	H	0.459430	0.449340	0.425207
	H353	H	0.465675	0.460157	0.423750
	O354	O	0.007150	1.150392	0.096983
	H355	H	0.019148	1.145351	0.094744
	H356	H	0.006494	1.154577	0.099042
	O357	O	-0.000334	0.006413	1.051106
	H358	H	-0.008699	0.003985	1.053691
	H359	H	0.000124	0.018823	1.063592
	O360	O	1.012502	-0.114495	0.993001
	H361	H	1.024173	-0.117160	0.988929
	H362	H	1.011092	-0.122563	0.995089
	O363	O	0.390955	0.566660	0.542212
	H364	H	0.387126	0.575089	0.527174
	H365	H	0.384735	0.571653	0.557107
	O366	O	0.426291	0.460701	0.631510
	H367	H	0.423092	0.465924	0.629141
	H368	H	0.414887	0.473107	0.627149
	O369	O	0.960946	-0.088619	0.053193
	H370	H	0.954885	-0.088778	0.046287
	H371	H	0.960715	-0.085188	0.044459
	O372	O	0.413248	0.499978	0.480548
	H373	H	0.406779	0.501398	0.478275
	H374	H	0.421792	0.512217	0.464898
	O375	O	1.038781	0.012329	1.104419
	H376	H	1.045447	0.006544	1.115975
	H377	H	1.034831	0.017962	1.106889
	O378	O	-0.006992	1.100727	0.016563
	H379	H	-0.011424	1.109907	0.012874
	H380	H	-0.007706	1.109263	0.019880
	O381	O	0.972937	-0.067015	0.974237
	H382	H	0.974202	-0.082809	0.981411
	H383	H	0.968209	-0.076822	0.970672
	O384	O	1.102794	1.016909	-0.000768
	H385	H	1.093222	1.000911	-0.003351
	H386	H	1.099223	1.009952	-0.003316
	O387	O	0.937707	-0.072048	0.947441
	H388	H	0.929559	-0.067752	0.949352
	H389	H	0.928327	-0.065208	0.949115
	O390	O	1.068640	1.059564	-0.009356
	H391	H	1.071719	1.055642	-0.007607
	H392	H	1.067512	1.069330	-0.012747
	O393	O	0.469900	0.452447	0.609901
	H394	H	0.475723	0.437154	0.608507
	H395	H	0.465929	0.451060	0.623481
