data_Molecule from HDF5

_cell_length_a		16.432407
_cell_length_b		16.136844
_cell_length_c		16.270183
_cell_angle_alpha	89.975966
_cell_angle_beta	89.908595
_cell_angle_gamma	89.944521
_symmetry_space_group_name_H-M	'P 1'
_symmetry_Int_Tables_number		1

loop_
	_symmetry_equiv_pos_as_xyz
	x,y,z

loop_
	_atom_site_label
	_atom_site_type_symbol
	_atom_site_fract_x
	_atom_site_fract_y
	_atom_site_fract_z
	H0	H	0.393818	0.842211	0.715048
	H1	H	0.595898	0.170180	0.715860
	H2	H	0.592160	0.841838	0.286886
	H3	H	0.394956	0.171732	0.285883
	H4	H	0.714083	0.403791	0.838407
	H5	H	0.712392	0.610494	0.161704
	H6	H	0.276310	0.611075	0.838402
	H7	H	0.277599	0.405416	0.162222
	H8	H	0.834512	0.723968	0.400228
	H9	H	0.157446	0.723350	0.601504
	H10	H	0.833091	0.290240	0.600495
	H11	H	0.157484	0.290158	0.401998
	H12	H	0.835034	0.402436	0.720188
	H13	H	0.156520	0.608025	0.719782
	H14	H	0.834558	0.609134	0.282184
	H15	H	0.156976	0.404736	0.282429
	H16	H	0.397433	0.721977	0.835467
	H17	H	0.591367	0.720223	0.164503
	H18	H	0.595245	0.292155	0.836394
	H19	H	0.397421	0.293837	0.163984
	H20	H	0.711328	0.843912	0.397672
	H21	H	0.711673	0.170047	0.601286
	H22	H	0.276102	0.844217	0.601459
	H23	H	0.278377	0.170442	0.399240
	H24	H	0.895824	0.342705	0.215323
	H25	H	0.094780	0.671140	0.216445
	H26	H	0.095407	0.342055	0.786007
	H27	H	0.894836	0.670370	0.785157
	H28	H	0.213746	0.902922	0.338409
	H29	H	0.214108	0.112003	0.661097
	H30	H	0.777476	0.109187	0.338023
	H31	H	0.773529	0.900520	0.661230
	H32	H	0.333599	0.225764	0.899027
	H33	H	0.657340	0.223131	0.099231
	H34	H	0.332832	0.793077	0.098990
	H35	H	0.656240	0.792445	0.901333
	H36	H	0.333399	0.907225	0.216992
	H37	H	0.655378	0.109688	0.219104
	H38	H	0.333590	0.109533	0.781983
	H39	H	0.654574	0.902702	0.780430
	H40	H	0.896259	0.222191	0.336947
	H41	H	0.090529	0.218194	0.665434
	H42	H	0.094532	0.791030	0.337428
	H43	H	0.895701	0.791418	0.664120
	H44	H	0.214347	0.344880	0.896884
	H45	H	0.211739	0.670628	0.103422
	H46	H	0.776672	0.344381	0.103513
	H47	H	0.779260	0.670572	0.898479
	H48	H	0.409313	0.118857	0.583565
	H49	H	0.590591	0.891516	0.580219
	H50	H	0.587649	0.126092	0.404023
	H51	H	0.407188	0.892609	0.410572
	H52	H	0.593493	0.416975	0.117930
	H53	H	0.587574	0.600955	0.883330
	H54	H	0.410353	0.598877	0.112626
	H55	H	0.403316	0.422930	0.886524
	H56	H	0.106075	0.589090	0.413060
	H57	H	0.883545	0.594828	0.588818
	H58	H	0.107641	0.422246	0.593723
	H59	H	0.884025	0.423086	0.409682
	H60	H	0.113005	0.410433	0.600374
	H61	H	0.881731	0.593938	0.597972
	H62	H	0.112951	0.597403	0.398320
	H63	H	0.877597	0.413566	0.399915
	H64	H	0.397880	0.607572	0.119835
	H65	H	0.590320	0.598724	0.883551
	H66	H	0.584605	0.422254	0.113582
	H67	H	0.407923	0.416197	0.884240
	H68	H	0.582156	0.122873	0.411307
	H69	H	0.590290	0.885842	0.598365
	H70	H	0.394378	0.126434	0.588874
	H71	H	0.398954	0.889593	0.412662
	H72	H	0.895625	0.626604	0.092703
	H73	H	0.086146	0.391711	0.088813
	H74	H	0.082067	0.619661	0.920610
	H75	H	0.902025	0.389787	0.912440
	H76	H	0.094226	0.925663	0.616097
	H77	H	0.078256	0.095345	0.387280
	H78	H	0.904018	0.100167	0.616290
	H79	H	0.904171	0.925734	0.388110
	H80	H	0.609698	0.094951	0.901491
	H81	H	0.378045	0.104869	0.095012
	H82	H	0.606771	0.916626	0.086055
	H83	H	0.379878	0.912476	0.913107
	H84	H	0.610113	0.921384	0.099468
	H85	H	0.381986	0.098404	0.088438
	H86	H	0.610873	0.104753	0.907014
	H87	H	0.381292	0.922440	0.905726
	H88	H	0.897155	0.099114	0.618053
	H89	H	0.089749	0.107216	0.380729
	H90	H	0.077188	0.919045	0.611548
	H91	H	0.908906	0.908301	0.385095
	H92	H	0.096657	0.627017	0.908862
	H93	H	0.089529	0.389480	0.091034
	H94	H	0.906529	0.624437	0.096727
	H95	H	0.902925	0.389276	0.908870
	H96	H	0.407472	0.125234	0.599012
	H97	H	0.574541	0.893215	0.590339
	H98	H	0.592005	0.123985	0.412950
	H99	H	0.402380	0.888022	0.404875
	H100	H	0.584086	0.410662	0.117115
	H101	H	0.586580	0.597128	0.884366
	H102	H	0.395763	0.591237	0.115712
	H103	H	0.399402	0.415914	0.882975
	H104	H	0.110691	0.606522	0.413299
	H105	H	0.879933	0.602366	0.593052
	H106	H	0.108354	0.409633	0.587313
	H107	H	0.880691	0.408646	0.413561
	H108	H	0.904734	0.621351	0.085595
	H109	H	0.085728	0.390517	0.093015
	H110	H	0.078169	0.623612	0.901070
	H111	H	0.905223	0.390271	0.911969
	H112	H	0.089575	0.907333	0.620061
	H113	H	0.094469	0.090809	0.384747
	H114	H	0.901354	0.094092	0.614482
	H115	H	0.892628	0.914182	0.381667
	H116	H	0.606173	0.096068	0.913116
	H117	H	0.379958	0.095647	0.097960
	H118	H	0.612752	0.907892	0.095953
	H119	H	0.376477	0.912133	0.901476
	C120	C	0.373434	0.015308	0.620715
	C121	C	0.615681	0.997813	0.620453
	C122	C	0.615968	0.015722	0.379405
	C123	C	0.373506	0.998390	0.379584
	C124	C	0.617358	0.386058	0.008732
	C125	C	0.616177	0.628733	0.991810
	C126	C	0.372398	0.629568	0.008487
	C127	C	0.373571	0.387075	0.991685
	C128	C	0.003654	0.628296	0.378565
	C129	C	0.987825	0.628020	0.623478
	C130	C	0.003509	0.383829	0.623715
	C131	C	0.987323	0.384675	0.378411
	C132	C	0.873025	0.515982	0.121981
	C133	C	0.116249	0.498939	0.121125
	C134	C	0.115873	0.515358	0.879987
	C135	C	0.873730	0.497873	0.879811
	C136	C	0.117169	0.885944	0.508901
	C137	C	0.116231	0.127801	0.491914
	C138	C	0.872090	0.128150	0.508657
	C139	C	0.872653	0.885133	0.492196
	C140	C	0.502861	0.129430	0.877190
	C141	C	0.486704	0.129155	0.122804
	C142	C	0.503429	0.885463	0.122973
	C143	C	0.485845	0.885542	0.877726
	C144	C	0.373973	0.891529	0.676889
	C145	C	0.615114	0.121236	0.677186
	C146	C	0.612958	0.891576	0.324212
	C147	C	0.374985	0.122122	0.323582
	C148	C	0.675076	0.385192	0.886796
	C149	C	0.672511	0.628490	0.113865
	C150	C	0.315630	0.629838	0.886347
	C151	C	0.316229	0.386418	0.113766
	C152	C	0.882557	0.685523	0.380219
	C153	C	0.108979	0.685114	0.622042
	C154	C	0.881604	0.328007	0.621428
	C155	C	0.109046	0.328264	0.380720
	C156	C	0.882678	0.383697	0.680974
	C157	C	0.108391	0.627820	0.681078
	C158	C	0.882770	0.628523	0.321366
	C159	C	0.108643	0.385377	0.321467
	C160	C	0.375801	0.684941	0.885106
	C161	C	0.612640	0.683736	0.114938
	C162	C	0.615825	0.329674	0.885781
	C163	C	0.375907	0.330864	0.114624
	C164	C	0.672308	0.892428	0.379105
	C165	C	0.673170	0.120990	0.620509
	C166	C	0.315096	0.892652	0.621012
	C167	C	0.316950	0.121735	0.379818
	C168	C	0.875331	0.391968	0.177682
	C169	C	0.115051	0.622049	0.178472
	C170	C	0.115204	0.391585	0.823540
	C171	C	0.875226	0.621225	0.822879
	C172	C	0.174623	0.884699	0.386969
	C173	C	0.173879	0.129243	0.613372
	C174	C	0.816546	0.127741	0.386322
	C175	C	0.813827	0.882918	0.613357
	C176	C	0.381951	0.187059	0.878678
	C177	C	0.608409	0.185189	0.119871
	C178	C	0.381360	0.830560	0.119688
	C179	C	0.607695	0.829580	0.880129
	C180	C	0.381737	0.886959	0.178780
	C181	C	0.607650	0.128834	0.179669
	C182	C	0.381865	0.129195	0.820274
	C183	C	0.606806	0.884729	0.820011
	C184	C	0.875363	0.184298	0.386032
	C185	C	0.112699	0.182423	0.615444
	C186	C	0.115252	0.829048	0.386223
	C187	C	0.874514	0.828432	0.614847
	C188	C	0.174350	0.392908	0.878908
	C189	C	0.173085	0.621794	0.121927
	C190	C	0.815913	0.392800	0.122275
	C191	C	0.817553	0.621490	0.879302
	C192	C	0.396897	0.101112	0.597252
	C193	C	0.592134	0.912405	0.596591
	C194	C	0.593817	0.102009	0.402760
	C195	C	0.396233	0.912376	0.402658
	C196	C	0.594274	0.409758	0.094081
	C197	C	0.594492	0.605552	0.905893
	C198	C	0.394627	0.606100	0.093845
	C199	C	0.396831	0.411176	0.906782
	C200	C	0.088247	0.604658	0.401542
	C201	C	0.903454	0.604228	0.600011
	C202	C	0.087937	0.407245	0.600412
	C203	C	0.902702	0.408150	0.401149
	C204	C	0.895521	0.601850	0.098473
	C205	C	0.093683	0.412820	0.097614
	C206	C	0.092422	0.601169	0.903506
	C207	C	0.896641	0.412073	0.903978
	C208	C	0.093895	0.910193	0.593874
	C209	C	0.093897	0.104576	0.406421
	C210	C	0.894286	0.104750	0.594121
	C211	C	0.895442	0.908987	0.406911
	C212	C	0.587166	0.105591	0.900275
	C213	C	0.401853	0.106339	0.100381
	C214	C	0.587998	0.908514	0.100540
	C215	C	0.401129	0.909050	0.900240
	Zn216	Zn	0.494519	0.006353	0.748483
	Zn217	Zn	0.494662	0.007081	0.252365
	Zn218	Zn	0.745440	0.507273	0.000214
	Zn219	Zn	0.244411	0.507869	-0.000118
	Zn220	Zn	-0.004323	0.757587	0.500947
	Zn221	Zn	-0.004520	0.255651	0.501410
	Zn222	Zn	-0.005173	0.505545	0.752606
	Zn223	Zn	-0.004384	0.506824	0.248943
	Zn224	Zn	0.495028	0.757417	-0.000371
	Zn225	Zn	0.495291	0.258464	-0.000254
	Zn226	Zn	0.744136	0.006241	0.499957
	Zn227	Zn	0.245208	0.007667	0.499869
	N228	N	0.409438	0.968709	0.676883
	N229	N	0.580164	0.043824	0.677350
	N230	N	0.578868	0.969422	0.324191
	N231	N	0.409353	0.044421	0.323329
	N232	N	0.676058	0.419696	0.964254
	N233	N	0.675109	0.595199	0.036070
	N234	N	0.313303	0.596271	0.964093
	N235	N	0.314658	0.420647	0.036232
	N236	N	0.958736	0.685490	0.415335
	N237	N	0.032841	0.685384	0.586980
	N238	N	0.957709	0.328045	0.586393
	N239	N	0.032630	0.327725	0.415482
	N240	N	0.959360	0.417640	0.682561
	N241	N	0.032034	0.592911	0.681867
	N242	N	0.959015	0.593600	0.320415
	N243	N	0.031956	0.419634	0.319952
	N244	N	0.410348	0.685004	0.961954
	N245	N	0.578639	0.684115	0.037824
	N246	N	0.580737	0.330044	0.962599
	N247	N	0.410987	0.331221	0.037832
	N248	N	0.674414	0.970717	0.412662
	N249	N	0.673808	0.043054	0.586030
	N250	N	0.314565	0.970643	0.586839
	N251	N	0.315958	0.043881	0.414079
	N252	N	0.909824	0.469582	0.177948
	N253	N	0.080223	0.544647	0.177777
	N254	N	0.079582	0.468758	0.824177
	N255	N	0.909346	0.543411	0.823078
	N256	N	0.175695	0.919394	0.464117
	N257	N	0.176202	0.095958	0.535584
	N258	N	0.814468	0.093511	0.463721
	N259	N	0.812710	0.917582	0.536202
	N260	N	0.458185	0.187358	0.913266
	N261	N	0.532182	0.185313	0.085039
	N262	N	0.458010	0.829430	0.085401
	N263	N	0.531549	0.830057	0.915421
	N264	N	0.458491	0.920509	0.180751
	N265	N	0.530941	0.094674	0.181689
	N266	N	0.458190	0.093984	0.819238
	N267	N	0.530127	0.918888	0.818653
	N268	N	0.909457	0.184497	0.463152
	N269	N	0.077559	0.181542	0.538838
	N270	N	0.080181	0.829579	0.462936
	N271	N	0.910537	0.829608	0.538425
	N272	N	0.174810	0.470795	0.913234
	N273	N	0.173986	0.544198	0.086993
	N274	N	0.814386	0.470903	0.088289
	N275	N	0.816397	0.543783	0.914033
	O276	O	1.367026	0.321308	0.590257
	H277	H	1.355397	0.329553	0.599310
	H278	H	1.367536	0.311256	0.587369
	O279	O	0.605142	0.411003	0.536998
	H280	H	0.610508	0.396735	0.526402
	H281	H	0.605728	0.408089	0.526566
	O282	O	0.394406	0.619135	0.463425
	H283	H	0.388760	0.623249	0.465767
	H284	H	0.403190	0.624471	0.461321
	O285	O	0.548937	0.420498	0.602976
	H286	H	0.548287	0.418241	0.617346
	H287	H	0.530087	0.430149	0.601481
	O288	O	0.590283	0.465493	0.456594
	H289	H	0.600943	0.450272	0.455340
	H290	H	0.592497	0.468362	0.460366
	O291	O	-0.124015	0.059684	0.829424
	H292	H	-0.125928	0.055826	0.824425
	H293	H	-0.119093	0.057193	0.827982
	O294	O	1.025658	0.982183	-0.052259
	H295	H	1.020481	0.971487	-0.055842
	H296	H	1.015695	0.982943	-0.061384
	O297	O	1.066698	1.041876	-0.092504
	H298	H	1.064059	1.031771	-0.088006
	H299	H	1.070439	1.042938	-0.099949
	O300	O	0.463751	0.586476	0.516702
	H301	H	0.464371	0.578927	0.506706
	H302	H	0.466891	0.585551	0.512659
	O303	O	0.438250	0.574409	0.485574
	H304	H	0.431826	0.575502	0.483296
	H305	H	0.451029	0.567977	0.477946
	O306	O	0.601321	0.548676	0.665672
	H307	H	0.597724	0.540981	0.659837
	H308	H	0.599131	0.546794	0.676469
	O309	O	0.565599	0.522449	0.497994
	H310	H	0.568775	0.531472	0.496155
	H311	H	0.568802	0.525605	0.495074
	O312	O	1.033119	1.039542	1.072685
	H313	H	1.037181	1.047886	1.085924
	H314	H	1.026430	1.046406	1.075331
	O315	O	1.037084	0.995572	0.020802
	H316	H	1.024380	1.005212	0.022476
	H317	H	1.040848	0.987480	0.026902
	O318	O	0.464541	0.559948	0.527465
	H319	H	0.463343	0.550822	0.531682
	H320	H	0.466489	0.559613	0.523103
	O321	O	0.469238	0.516308	0.426890
	H322	H	0.468362	0.517014	0.429681
	H323	H	0.478132	0.518622	0.444977
	O324	O	-0.033722	1.011542	0.895430
	H325	H	-0.040522	1.016383	0.893716
	H326	H	-0.033916	1.011267	0.893434
	O327	O	0.055883	0.940834	0.969813
	H328	H	0.053816	0.946900	0.981608
	H329	H	0.067492	0.937594	0.974282
	O330	O	-0.050159	0.011231	-0.015435
	H331	H	-0.044773	0.010373	-0.000009
	H332	H	-0.033516	0.022695	-0.009556
	O333	O	0.377615	0.441255	0.529666
	H334	H	0.383439	0.447048	0.530843
	H335	H	0.371020	0.445237	0.514510
	O336	O	-0.499700	-0.368565	-0.574431
	H337	H	-0.492203	-0.359362	-0.562523
	H338	H	-0.488429	-0.361369	-0.591703
	O339	O	-0.063012	0.079800	-0.109811
	H340	H	-0.061810	0.077877	-0.103854
	H341	H	-0.056385	0.081893	-0.118176
	O342	O	0.495177	0.433980	0.355068
	H343	H	0.495653	0.431916	0.365825
	H344	H	0.493863	0.443554	0.355498
	O345	O	-0.060199	1.077601	1.044201
	H346	H	-0.078349	1.089047	1.053527
	H347	H	-0.063399	1.070679	1.045801
	O348	O	0.439121	0.416059	0.451958
	H349	H	0.437040	0.420796	0.437335
	H350	H	0.434374	0.424240	0.449101
	O351	O	0.676312	0.638165	0.458991
	H352	H	0.687925	0.645229	0.461333
	H353	H	0.674101	0.629196	0.467792
	O354	O	0.063077	1.121482	0.065618
	H355	H	0.073473	1.114412	0.075329
	H356	H	0.055834	1.123936	0.069094
	O357	O	-0.039090	-0.042979	0.992488
	H358	H	-0.031396	-0.047956	0.981778
	H359	H	-0.032412	-0.041623	0.996548
	O360	O	1.086401	0.001150	1.116927
	H361	H	1.097200	0.007641	1.116319
	H362	H	1.082730	-0.006245	1.109862
	O363	O	0.543033	0.626056	0.614920
	H364	H	0.537570	0.615859	0.610667
	H365	H	0.539997	0.608243	0.624403
	O366	O	0.379439	0.535718	0.536132
	H367	H	0.383272	0.545388	0.527599
	H368	H	0.373991	0.534584	0.533148
	O369	O	0.865015	-0.011379	0.063841
	H370	H	0.866158	-0.017131	0.072277
	H371	H	0.862181	-0.010019	0.058512
	O372	O	0.567192	0.473553	0.448144
	H373	H	0.576407	0.468329	0.451747
	H374	H	0.560052	0.468591	0.454792
	O375	O	1.070733	0.030536	0.973862
	H376	H	1.077676	0.034853	0.972208
	H377	H	1.074426	0.026807	0.967646
	O378	O	-0.018429	0.846518	0.008890
	H379	H	-0.010546	0.845017	0.016799
	H380	H	-0.007448	0.841924	0.000340
	O381	O	0.861343	-0.009203	1.092082
	H382	H	0.850938	-0.007931	1.095551
	H383	H	0.860916	-0.002712	1.077331
	O384	O	0.987302	1.004619	0.042423
	H385	H	0.982038	0.996950	0.031714
	H386	H	0.975672	0.998882	0.042183
	O387	O	1.049313	-0.072188	0.982684
	H388	H	1.058924	-0.066016	0.989881
	H389	H	1.049262	-0.063478	0.986190
	O390	O	1.068214	1.067515	0.024727
	H391	H	1.059251	1.062259	0.022494
	H392	H	1.065302	1.057470	0.010158
	O393	O	0.563840	0.416741	0.470924
	H394	H	0.571345	0.411611	0.476871
	H395	H	0.559928	0.424907	0.470067
