data_Molecule from HDF5

_cell_length_a		16.453279
_cell_length_b		16.520365
_cell_length_c		16.389257
_cell_angle_alpha	89.958679
_cell_angle_beta	89.920735
_cell_angle_gamma	90.149882
_symmetry_space_group_name_H-M	'P 1'
_symmetry_Int_Tables_number		1

loop_
	_symmetry_equiv_pos_as_xyz
	x,y,z

loop_
	_atom_site_label
	_atom_site_type_symbol
	_atom_site_fract_x
	_atom_site_fract_y
	_atom_site_fract_z
	H0	H	0.386153	0.842718	0.714542
	H1	H	0.596668	0.158816	0.712123
	H2	H	0.593237	0.842191	0.275224
	H3	H	0.389799	0.159706	0.273668
	H4	H	0.713010	0.396921	0.834102
	H5	H	0.710606	0.602381	0.153248
	H6	H	0.271410	0.605966	0.833757
	H7	H	0.273151	0.396434	0.152314
	H8	H	0.834016	0.720564	0.389011
	H9	H	0.149795	0.723809	0.600639
	H10	H	0.835301	0.277270	0.601257
	H11	H	0.149432	0.277003	0.386279
	H12	H	0.832896	0.396999	0.713448
	H13	H	0.150321	0.606881	0.715710
	H14	H	0.833608	0.603613	0.273470
	H15	H	0.150827	0.396241	0.273126
	H16	H	0.387084	0.723295	0.834491
	H17	H	0.596877	0.720137	0.152351
	H18	H	0.597282	0.280712	0.833977
	H19	H	0.386601	0.277862	0.150850
	H20	H	0.712559	0.843545	0.387517
	H21	H	0.714562	0.157393	0.597787
	H22	H	0.271204	0.841957	0.597080
	H23	H	0.271625	0.159378	0.388410
	H24	H	0.887168	0.342774	0.214982
	H25	H	0.096892	0.657411	0.214253
	H26	H	0.096089	0.341933	0.773205
	H27	H	0.886510	0.657065	0.771235
	H28	H	0.210748	0.898739	0.333980
	H29	H	0.214419	0.107190	0.652660
	H30	H	0.771312	0.106352	0.334637
	H31	H	0.767850	0.893808	0.651157
	H32	H	0.335578	0.224764	0.883782
	H33	H	0.650653	0.222324	0.098196
	H34	H	0.336313	0.776989	0.100690
	H35	H	0.651850	0.781845	0.888617
	H36	H	0.333778	0.896875	0.213177
	H37	H	0.651818	0.103831	0.210978
	H38	H	0.334857	0.107388	0.769423
	H39	H	0.651392	0.898482	0.772155
	H40	H	0.885074	0.224322	0.336955
	H41	H	0.097951	0.222761	0.652818
	H42	H	0.094967	0.782058	0.334197
	H43	H	0.882342	0.776487	0.650767
	H44	H	0.214537	0.343013	0.886119
	H45	H	0.215571	0.656499	0.099641
	H46	H	0.770761	0.342861	0.099203
	H47	H	0.771057	0.657602	0.887737
	H48	H	0.401084	0.113461	0.581912
	H49	H	0.581068	0.888096	0.579690
	H50	H	0.582476	0.114957	0.400398
	H51	H	0.401443	0.887473	0.400589
	H52	H	0.583387	0.417307	0.105266
	H53	H	0.583591	0.588815	0.879494
	H54	H	0.407925	0.592043	0.105334
	H55	H	0.408775	0.411144	0.880375
	H56	H	0.104477	0.582614	0.398078
	H57	H	0.880297	0.584771	0.585385
	H58	H	0.103681	0.412805	0.578436
	H59	H	0.882630	0.415663	0.408720
	H60	H	0.104288	0.415272	0.585247
	H61	H	0.877033	0.593934	0.585863
	H62	H	0.110330	0.599903	0.400523
	H63	H	0.878478	0.413125	0.401495
	H64	H	0.399946	0.588761	0.106907
	H65	H	0.580153	0.591891	0.879994
	H66	H	0.574607	0.407573	0.105320
	H67	H	0.402278	0.408838	0.877179
	H68	H	0.581320	0.114198	0.403334
	H69	H	0.579096	0.888658	0.581823
	H70	H	0.403778	0.113246	0.582271
	H71	H	0.403905	0.890262	0.404630
	H72	H	0.899862	0.616314	0.090497
	H73	H	0.081027	0.386868	0.083932
	H74	H	0.077880	0.612030	0.902188
	H75	H	0.912506	0.389737	0.901120
	H76	H	0.078956	0.915609	0.605788
	H77	H	0.079344	0.083687	0.383729
	H78	H	0.903472	0.093920	0.608375
	H79	H	0.892364	0.910516	0.376295
	H80	H	0.606130	0.090529	0.899308
	H81	H	0.382582	0.087142	0.074236
	H82	H	0.608523	0.906587	0.085975
	H83	H	0.379771	0.913657	0.903955
	H84	H	0.605627	0.909241	0.079001
	H85	H	0.379710	0.084315	0.088131
	H86	H	0.604944	0.093383	0.906295
	H87	H	0.379703	0.909831	0.903908
	H88	H	0.898220	0.083483	0.606247
	H89	H	0.076098	0.094710	0.380971
	H90	H	0.077649	0.908867	0.607427
	H91	H	0.905835	0.919772	0.384568
	H92	H	0.080091	0.609649	0.909994
	H93	H	0.082276	0.386812	0.081969
	H94	H	0.910967	0.610213	0.082427
	H95	H	0.900655	0.390227	0.915013
	H96	H	0.402614	0.112796	0.580352
	H97	H	0.578220	0.890042	0.578589
	H98	H	0.584212	0.114683	0.402946
	H99	H	0.398042	0.889081	0.404957
	H100	H	0.586662	0.406177	0.110231
	H101	H	0.584370	0.592585	0.877839
	H102	H	0.406010	0.583672	0.102705
	H103	H	0.402533	0.415133	0.880392
	H104	H	0.101327	0.591204	0.414750
	H105	H	0.880784	0.589636	0.577495
	H106	H	0.106562	0.408866	0.583717
	H107	H	0.879532	0.407480	0.408632
	H108	H	0.897508	0.612298	0.075881
	H109	H	0.083110	0.386602	0.084131
	H110	H	0.086234	0.613677	0.904985
	H111	H	0.895623	0.383309	0.899040
	H112	H	0.083744	0.912036	0.608465
	H113	H	0.087509	0.091479	0.378991
	H114	H	0.910004	0.084891	0.603468
	H115	H	0.908958	0.902513	0.379541
	H116	H	0.602974	0.086414	0.905508
	H117	H	0.376568	0.097729	0.082579
	H118	H	0.606245	0.914257	0.085668
	H119	H	0.380743	0.911265	0.906781
	C120	C	0.370143	0.009011	0.614344
	C121	C	0.612680	0.992533	0.612986
	C122	C	0.614010	0.009792	0.370718
	C123	C	0.370004	0.993027	0.371410
	C124	C	0.613577	0.379486	0.001522
	C125	C	0.614195	0.622093	0.984491
	C126	C	0.371698	0.621597	0.000884
	C127	C	0.371780	0.379143	0.984173
	C128	C	0.000388	0.622113	0.372442
	C129	C	0.983735	0.622495	0.615694
	C130	C	0.000477	0.379986	0.614719
	C131	C	0.984188	0.379259	0.372723
	C132	C	0.870583	0.508763	0.115058
	C133	C	0.114249	0.491063	0.115279
	C134	C	0.113385	0.508038	0.872768
	C135	C	0.870345	0.491690	0.872130
	C136	C	0.111953	0.880544	0.501628
	C137	C	0.113717	0.122724	0.485628
	C138	C	0.871603	0.120655	0.501831
	C139	C	0.869131	0.878306	0.484690
	C140	C	0.500760	0.122512	0.870816
	C141	C	0.484435	0.121770	0.113452
	C142	C	0.501811	0.878207	0.115540
	C143	C	0.484674	0.880020	0.872002
	C144	C	0.367980	0.889976	0.674439
	C145	C	0.615274	0.111306	0.672815
	C146	C	0.613462	0.890259	0.313143
	C147	C	0.370051	0.112203	0.312681
	C148	C	0.673188	0.378276	0.881793
	C149	C	0.671875	0.622169	0.105021
	C150	C	0.311318	0.624371	0.881621
	C151	C	0.312447	0.377374	0.104240
	C152	C	0.881166	0.680634	0.370880
	C153	C	0.102338	0.683550	0.618514
	C154	C	0.881790	0.318954	0.618115
	C155	C	0.102306	0.317901	0.368959
	C156	C	0.880778	0.378323	0.674034
	C157	C	0.102815	0.625042	0.675676
	C158	C	0.881046	0.622435	0.313358
	C159	C	0.103020	0.376893	0.312175
	C160	C	0.368678	0.682990	0.882039
	C161	C	0.615156	0.680557	0.104468
	C162	C	0.615413	0.320649	0.881599
	C163	C	0.368964	0.318624	0.103523
	C164	C	0.672587	0.890869	0.369321
	C165	C	0.673717	0.110823	0.615809
	C166	C	0.310598	0.889695	0.616078
	C167	C	0.311701	0.112300	0.370310
	C168	C	0.868738	0.390279	0.175117
	C169	C	0.116023	0.609959	0.174582
	C170	C	0.114660	0.389427	0.812852
	C171	C	0.868148	0.609896	0.811507
	C172	C	0.171398	0.879599	0.381934
	C173	C	0.174093	0.125085	0.605023
	C174	C	0.811306	0.124162	0.382533
	C175	C	0.807867	0.875476	0.603617
	C176	C	0.382811	0.184076	0.866615
	C177	C	0.603392	0.181705	0.115548
	C178	C	0.383035	0.817885	0.118199
	C179	C	0.604300	0.821648	0.870358
	C180	C	0.382090	0.877291	0.174411
	C181	C	0.603954	0.122738	0.172011
	C182	C	0.382211	0.125484	0.809777
	C183	C	0.603792	0.879094	0.811816
	C184	C	0.867768	0.183118	0.383792
	C185	C	0.116398	0.182860	0.605008
	C186	C	0.113591	0.821611	0.381926
	C187	C	0.865250	0.817372	0.603490
	C188	C	0.173746	0.389935	0.869194
	C189	C	0.174788	0.609514	0.117380
	C190	C	0.810568	0.390254	0.117576
	C191	C	0.810672	0.610162	0.869512
	C192	C	0.395355	0.091477	0.589061
	C193	C	0.587062	0.910256	0.587327
	C194	C	0.589704	0.093067	0.395157
	C195	C	0.394037	0.910339	0.396173
	C196	C	0.588583	0.403423	0.084970
	C197	C	0.589880	0.597867	0.900828
	C198	C	0.397421	0.595733	0.083430
	C199	C	0.397201	0.404241	0.901009
	C200	C	0.083496	0.597984	0.397419
	C201	C	0.901071	0.596944	0.590306
	C202	C	0.083182	0.405109	0.589593
	C203	C	0.901730	0.404909	0.398758
	C204	C	0.895624	0.591505	0.090098
	C205	C	0.089374	0.408223	0.090399
	C206	C	0.088466	0.590486	0.898348
	C207	C	0.895566	0.409257	0.897864
	C208	C	0.087179	0.905000	0.585420
	C209	C	0.088243	0.097400	0.402555
	C210	C	0.896655	0.094904	0.584429
	C211	C	0.894939	0.903798	0.401790
	C212	C	0.583182	0.097182	0.896220
	C213	C	0.401309	0.096863	0.088671
	C214	C	0.585087	0.902783	0.090515
	C215	C	0.401792	0.904519	0.897374
	Zn216	Zn	0.492201	0.001002	0.742248
	Zn217	Zn	0.492040	0.001146	0.242419
	Zn218	Zn	0.741799	0.500512	-0.006444
	Zn219	Zn	0.242968	0.499663	-0.007143
	Zn220	Zn	-0.008530	0.750940	0.493690
	Zn221	Zn	-0.007877	0.250652	0.494885
	Zn222	Zn	-0.007543	0.500261	0.744017
	Zn223	Zn	-0.007738	0.500489	0.243866
	Zn224	Zn	0.492900	0.750819	-0.007167
	Zn225	Zn	0.492500	0.250819	-0.007628
	Zn226	Zn	0.741878	0.000382	0.492816
	Zn227	Zn	0.241324	0.001148	0.493450
	N228	N	0.403923	0.965252	0.673738
	N229	N	0.577864	0.036793	0.671087
	N230	N	0.577991	0.965453	0.313715
	N231	N	0.405689	0.037205	0.313271
	N232	N	0.672363	0.413877	0.957487
	N233	N	0.671561	0.586710	0.029289
	N234	N	0.312877	0.586949	0.956612
	N235	N	0.313835	0.414110	0.028966
	N236	N	0.956513	0.680637	0.406636
	N237	N	0.027136	0.682267	0.582046
	N238	N	0.957069	0.319965	0.581921
	N239	N	0.027295	0.319127	0.405866
	N240	N	0.955438	0.415702	0.672136
	N241	N	0.027829	0.588169	0.674418
	N242	N	0.956323	0.586804	0.314026
	N243	N	0.028497	0.414092	0.314292
	N244	N	0.405172	0.681635	0.957289
	N245	N	0.580166	0.680825	0.028372
	N246	N	0.579212	0.321119	0.957105
	N247	N	0.404905	0.319559	0.027840
	N248	N	0.673220	0.966476	0.404197
	N249	N	0.672165	0.035905	0.579488
	N250	N	0.311327	0.964843	0.580026
	N251	N	0.311350	0.036980	0.405975
	N252	N	0.905244	0.465073	0.173720
	N253	N	0.079190	0.535241	0.173435
	N254	N	0.077943	0.464126	0.814782
	N255	N	0.904366	0.535204	0.812910
	N256	N	0.170556	0.915265	0.457685
	N257	N	0.172656	0.088416	0.529698
	N258	N	0.813545	0.085806	0.456880
	N259	N	0.810190	0.912664	0.528623
	N260	N	0.457439	0.182220	0.904196
	N261	N	0.527876	0.181242	0.079906
	N262	N	0.458549	0.818329	0.082417
	N263	N	0.528952	0.821850	0.906912
	N264	N	0.457059	0.914093	0.172772
	N265	N	0.528838	0.086347	0.171110
	N266	N	0.456395	0.087803	0.812319
	N267	N	0.528429	0.914593	0.812827
	N268	N	0.904706	0.180936	0.458875
	N269	N	0.079788	0.181607	0.529736
	N270	N	0.077613	0.821935	0.457689
	N271	N	0.902740	0.819123	0.528535
	N272	N	0.172958	0.464707	0.905892
	N273	N	0.173977	0.534457	0.081453
	N274	N	0.811571	0.464956	0.080921
	N275	N	0.811895	0.535455	0.906480
	O276	O	0.344617	0.385619	0.407622
	H277	H	0.350529	0.373349	0.421744
	H278	H	0.359020	0.382807	0.411739
	O279	O	1.164281	0.101508	0.910164
	H280	H	1.159005	0.088174	0.907625
	H281	H	1.155846	0.102199	0.924739
	O282	O	0.348711	0.540615	0.336371
	H283	H	0.334266	0.541907	0.333525
	H284	H	0.327908	0.551029	0.341143
	O285	O	0.905806	1.050507	0.954946
	H286	H	0.895529	1.046752	0.962970
	H287	H	0.895144	1.072420	0.952197
	O288	O	0.963452	1.037610	0.210319
	H289	H	0.978737	1.029220	0.207227
	H290	H	0.955822	1.040549	0.217204
	O291	O	1.213917	-0.104817	-0.000687
	H292	H	1.218818	-0.094541	-0.007246
	H293	H	1.216601	-0.094532	-0.015753
	O294	O	-0.216466	-0.000353	0.998959
	H295	H	-0.220803	-0.003973	1.010685
	H296	H	-0.215877	-0.001926	1.002927
	O297	O	0.299335	0.534741	0.596299
	H298	H	0.299899	0.528154	0.576715
	H299	H	0.293111	0.543051	0.610609
	O300	O	0.295255	0.665062	0.509191
	H301	H	0.295157	0.678352	0.503342
	H302	H	0.301087	0.669576	0.514750
	O303	O	0.528352	0.448364	0.640585
	H304	H	0.536019	0.458494	0.627974
	H305	H	0.535984	0.454135	0.640354
	O306	O	0.157393	0.810988	1.146184
	H307	H	0.130810	0.820880	1.131000
	H308	H	0.157548	0.827344	1.123894
	O309	O	0.444078	0.414175	0.502307
	H310	H	0.451154	0.412860	0.522739
	H311	H	0.420073	0.407436	0.510183
	O312	O	-0.213401	1.176297	0.952445
	H313	H	-0.210038	1.189168	0.931605
	H314	H	-0.234399	1.183425	0.951071
	O315	O	0.689910	0.303902	0.485952
	H316	H	0.686660	0.298076	0.474583
	H317	H	0.698056	0.299191	0.465386
	O318	O	1.288263	0.666779	0.289257
	H319	H	1.278877	0.664802	0.281094
	H320	H	1.275390	0.679185	0.289790
	O321	O	0.038376	-0.087553	0.159973
	H322	H	0.039916	-0.097836	0.167048
	H323	H	0.038752	-0.084361	0.144108
	O324	O	0.288887	0.558976	0.494969
	H325	H	0.287424	0.570794	0.470721
	H326	H	0.281659	0.571062	0.495171
	O327	O	0.521522	0.482006	0.674690
	H328	H	0.516874	0.483086	0.673937
	H329	H	0.522595	0.495127	0.679077
	O330	O	0.110488	0.833249	-0.013842
	H331	H	0.126312	0.821936	-0.025820
	H332	H	0.098068	0.849958	-0.000574
	O333	O	0.817532	0.785005	1.005501
	H334	H	0.798047	0.769346	1.004434
	H335	H	0.816949	0.784721	1.033021
	O336	O	0.150641	0.052926	-0.109423
	H337	H	0.152241	0.036736	-0.107900
	H338	H	0.132658	0.068690	-0.119529
	O339	O	-0.004408	0.918858	0.957076
	H340	H	-0.025588	0.927841	0.965285
	H341	H	-0.010302	0.898378	0.945661
	O342	O	-0.175304	1.073473	0.780722
	H343	H	-0.188571	1.066086	0.778168
	H344	H	-0.179855	1.072372	0.770693
	O345	O	0.945411	1.104711	0.034624
	H346	H	0.927182	1.094706	0.027261
	H347	H	0.953654	1.120212	0.045999
	O348	O	1.212559	0.972166	0.774242
	H349	H	1.239740	0.981417	0.762202
	H350	H	1.218196	0.936902	0.771479
	O351	O	0.181002	1.185343	1.173944
	H352	H	0.191104	1.180705	1.144882
	H353	H	0.157535	1.175179	1.174753
	O354	O	-0.349808	0.456244	-0.680800
	H355	H	-0.339416	0.458733	-0.679830
	H356	H	-0.366363	0.460540	-0.698571
	O357	O	0.206309	0.211808	1.026989
	H358	H	0.222719	0.224191	1.018979
	H359	H	0.214630	0.204823	1.028727
	O360	O	0.690210	0.515521	0.692208
	H361	H	0.685578	0.495196	0.692211
	H362	H	0.706539	0.509335	0.691001
	O363	O	0.016508	0.204951	1.183814
	H364	H	0.025381	0.214139	1.185613
	H365	H	0.010860	0.191295	1.195696
	O366	O	0.307747	0.349273	0.674992
	H367	H	0.330946	0.335311	0.678915
	H368	H	0.303030	0.376735	0.673237
	O369	O	0.659971	0.617336	0.427952
	H370	H	0.680703	0.631263	0.419726
	H371	H	0.647711	0.600253	0.422785
	O372	O	1.014786	-0.216239	0.779537
	H373	H	0.990190	-0.203952	0.775500
	H374	H	1.006203	-0.233990	0.749710
	O375	O	0.413192	0.680577	0.303319
	H376	H	0.409354	0.673691	0.301319
	H377	H	0.403078	0.690866	0.281408
	O378	O	0.610173	0.508352	0.388271
	H379	H	0.608673	0.509551	0.386489
	H380	H	0.595161	0.517616	0.386139
	O381	O	0.796064	0.189587	0.800947
	H382	H	0.807836	0.183128	0.801444
	H383	H	0.792073	0.167386	0.787364
	O384	O	0.784007	0.847132	0.233613
	H385	H	0.774837	0.845316	0.236536
	H386	H	0.763569	0.837709	0.249283
	O387	O	-0.125845	-0.086165	0.789000
	H388	H	-0.118245	-0.076321	0.795873
	H389	H	-0.117111	-0.069038	0.797316
	O390	O	-0.194616	-0.185638	0.147020
	H391	H	-0.205906	-0.181802	0.165425
	H392	H	-0.179425	-0.186658	0.141951
	O393	O	0.606316	0.586521	0.534684
	H394	H	0.597439	0.583868	0.522095
	H395	H	0.612674	0.587637	0.541429
	O396	O	1.037048	-0.130243	0.013577
	H397	H	1.041551	-0.140563	0.002192
	H398	H	1.034467	-0.127668	0.019385
	O399	O	1.176562	-0.185417	0.808154
	H400	H	1.150077	-0.176652	0.804415
	H401	H	1.160790	-0.198312	0.833386
	O402	O	1.681479	0.678389	1.658174
	H403	H	1.688049	0.675760	1.638727
	H404	H	1.684892	0.648588	1.649726
	O405	O	0.926997	0.793545	0.186775
	H406	H	0.929419	0.793248	0.196731
	H407	H	0.923003	0.777039	0.170125
	O408	O	1.196885	0.019729	0.192078
	H409	H	1.211414	0.026238	0.208893
	H410	H	1.177589	0.023441	0.180078
	O411	O	1.001105	1.177543	-0.179867
	H412	H	0.995243	1.184833	-0.192561
	H413	H	0.997080	1.176994	-0.161847
	O414	O	0.481302	0.701794	0.535643
	H415	H	0.472664	0.698495	0.539820
	H416	H	0.484110	0.696842	0.541853
	O417	O	0.554662	0.715935	0.704772
	H418	H	0.577069	0.709747	0.705317
	H419	H	0.563474	0.729919	0.715604
	O420	O	-0.042218	0.139631	-0.012644
	H421	H	-0.047385	0.141204	-0.006809
	H422	H	-0.036865	0.132092	-0.017590
	O423	O	0.516138	0.300101	0.286371
	H424	H	0.501219	0.298948	0.274808
	H425	H	0.511317	0.294102	0.291677
	O426	O	0.319062	0.414362	0.597459
	H427	H	0.329469	0.424871	0.630795
	H428	H	0.294218	0.389135	0.602457
	O429	O	0.509123	0.352660	0.505429
	H430	H	0.514069	0.358880	0.491508
	H431	H	0.511158	0.353790	0.504705
	O432	O	0.499469	0.531386	0.402940
	H433	H	0.492258	0.537781	0.414038
	H434	H	0.487425	0.526052	0.401443
	O435	O	0.432559	0.311546	0.638901
	H436	H	0.445416	0.309737	0.647985
	H437	H	0.437046	0.313898	0.623723
	O438	O	-0.200370	0.042045	0.140581
	H439	H	-0.212679	0.054765	0.133526
	H440	H	-0.187683	0.034072	0.147594
	O441	O	1.013954	-0.000136	-0.223103
	H442	H	1.035833	0.010736	-0.221456
	H443	H	1.032887	-0.002793	-0.224687
	O444	O	-0.274227	1.270147	1.271181
	H445	H	-0.265517	1.281203	1.261665
	H446	H	-0.287637	1.265570	1.268143
	O447	O	0.687628	0.414769	0.532054
	H448	H	0.689714	0.409713	0.501187
	H449	H	0.676534	0.410920	0.524580
	O450	O	0.592702	0.648741	0.352528
	H451	H	0.566886	0.644153	0.358579
	H452	H	0.584666	0.629995	0.352856
	O453	O	0.384525	0.388000	0.389867
	H454	H	0.361570	0.377475	0.392241
	H455	H	0.379943	0.398196	0.390608
