data_Molecule from HDF5

_cell_length_a		16.407889
_cell_length_b		16.388436
_cell_length_c		16.299579
_cell_angle_alpha	90.104032
_cell_angle_beta	89.995481
_cell_angle_gamma	89.889019
_symmetry_space_group_name_H-M	'P 1'
_symmetry_Int_Tables_number		1

loop_
	_symmetry_equiv_pos_as_xyz
	x,y,z

loop_
	_atom_site_label
	_atom_site_type_symbol
	_atom_site_fract_x
	_atom_site_fract_y
	_atom_site_fract_z
	H0	H	0.397079	0.852975	0.718358
	H1	H	0.602230	0.173037	0.717048
	H2	H	0.600871	0.849027	0.283062
	H3	H	0.397505	0.171655	0.278691
	H4	H	0.720248	0.406042	0.838374
	H5	H	0.716744	0.612850	0.159344
	H6	H	0.282653	0.612695	0.837099
	H7	H	0.281227	0.406298	0.159041
	H8	H	0.839895	0.731049	0.400815
	H9	H	0.161513	0.733848	0.605938
	H10	H	0.841300	0.293782	0.604341
	H11	H	0.161314	0.292776	0.395346
	H12	H	0.840331	0.412647	0.716679
	H13	H	0.162456	0.614941	0.719353
	H14	H	0.841518	0.616090	0.282296
	H15	H	0.161570	0.409711	0.280855
	H16	H	0.396707	0.728636	0.836805
	H17	H	0.601325	0.728642	0.158847
	H18	H	0.602565	0.294010	0.837607
	H19	H	0.396477	0.292896	0.159209
	H20	H	0.719012	0.851259	0.398984
	H21	H	0.716559	0.174735	0.600615
	H22	H	0.279446	0.854446	0.603490
	H23	H	0.280160	0.172079	0.392857
	H24	H	0.902373	0.352328	0.216856
	H25	H	0.103480	0.674695	0.217234
	H26	H	0.103815	0.351842	0.779843
	H27	H	0.898614	0.673539	0.783226
	H28	H	0.219501	0.907551	0.338546
	H29	H	0.221799	0.117701	0.658696
	H30	H	0.784150	0.114335	0.337912
	H31	H	0.781780	0.912350	0.661890
	H32	H	0.342296	0.234324	0.892798
	H33	H	0.660259	0.229435	0.101991
	H34	H	0.340211	0.791761	0.099022
	H35	H	0.662134	0.791821	0.893858
	H36	H	0.340229	0.907022	0.217053
	H37	H	0.661704	0.108644	0.213140
	H38	H	0.341080	0.116082	0.778120
	H39	H	0.662682	0.911317	0.780437
	H40	H	0.900319	0.230133	0.338648
	H41	H	0.103408	0.231240	0.660992
	H42	H	0.103495	0.792682	0.339610
	H43	H	0.897535	0.796432	0.662866
	H44	H	0.221619	0.351995	0.894179
	H45	H	0.221758	0.673250	0.102256
	H46	H	0.784667	0.352167	0.102395
	H47	H	0.779607	0.670645	0.894874
	H48	H	0.411581	0.126503	0.584817
	H49	H	0.592085	0.900075	0.584229
	H50	H	0.591386	0.127219	0.402504
	H51	H	0.407078	0.896104	0.405603
	H52	H	0.595675	0.420275	0.115734
	H53	H	0.600048	0.598063	0.880543
	H54	H	0.413830	0.598127	0.111635
	H55	H	0.411309	0.423214	0.884085
	H56	H	0.112108	0.601333	0.419224
	H57	H	0.890814	0.599464	0.586562
	H58	H	0.118005	0.421350	0.595886
	H59	H	0.887454	0.422675	0.410789
	H60	H	0.114953	0.417678	0.585020
	H61	H	0.884125	0.604481	0.600030
	H62	H	0.116145	0.597540	0.404083
	H63	H	0.888119	0.423101	0.409278
	H64	H	0.414185	0.603446	0.112257
	H65	H	0.586291	0.595082	0.885094
	H66	H	0.592447	0.421793	0.113886
	H67	H	0.412943	0.421820	0.884031
	H68	H	0.591543	0.126391	0.407934
	H69	H	0.596735	0.896413	0.590490
	H70	H	0.410052	0.126449	0.588034
	H71	H	0.415205	0.899014	0.408361
	H72	H	0.912268	0.628338	0.095013
	H73	H	0.087214	0.397700	0.100051
	H74	H	0.100945	0.628046	0.913207
	H75	H	0.915351	0.397167	0.902611
	H76	H	0.097836	0.927769	0.615584
	H77	H	0.088131	0.100684	0.386174
	H78	H	0.909305	0.108625	0.616873
	H79	H	0.910121	0.921050	0.385385
	H80	H	0.614892	0.099976	0.905471
	H81	H	0.386515	0.101880	0.086082
	H82	H	0.613012	0.921212	0.084741
	H83	H	0.384869	0.915067	0.902466
	H84	H	0.615020	0.920945	0.093951
	H85	H	0.385994	0.100200	0.089707
	H86	H	0.615424	0.106383	0.909521
	H87	H	0.389577	0.917780	0.915373
	H88	H	0.904618	0.101729	0.616319
	H89	H	0.088382	0.105781	0.384613
	H90	H	0.084904	0.930782	0.610160
	H91	H	0.909923	0.921507	0.386342
	H92	H	0.087844	0.626676	0.902521
	H93	H	0.086228	0.403543	0.081868
	H94	H	0.911069	0.625235	0.085349
	H95	H	0.913569	0.400184	0.914099
	H96	H	0.413861	0.126230	0.587876
	H97	H	0.588723	0.898569	0.591983
	H98	H	0.596663	0.127990	0.404907
	H99	H	0.408056	0.899757	0.413700
	H100	H	0.592090	0.417923	0.115086
	H101	H	0.589496	0.608509	0.881003
	H102	H	0.409744	0.600807	0.113883
	H103	H	0.411056	0.421270	0.883819
	H104	H	0.119205	0.612784	0.409666
	H105	H	0.886542	0.613637	0.587870
	H106	H	0.113171	0.428611	0.588016
	H107	H	0.887516	0.422381	0.409377
	H108	H	0.903618	0.629552	0.089661
	H109	H	0.102330	0.396758	0.089003
	H110	H	0.086286	0.620876	0.919098
	H111	H	0.904540	0.394812	0.908308
	H112	H	0.087767	0.918129	0.614925
	H113	H	0.091971	0.102330	0.384102
	H114	H	0.911837	0.102122	0.613114
	H115	H	0.910579	0.921900	0.386171
	H116	H	0.612793	0.099246	0.913235
	H117	H	0.385053	0.103809	0.088498
	H118	H	0.616908	0.913289	0.088697
	H119	H	0.389666	0.928046	0.905653
	C120	C	0.379691	0.021393	0.619517
	C121	C	0.622387	1.004832	0.619950
	C122	C	0.622897	0.020280	0.376313
	C123	C	0.378691	1.003728	0.376723
	C124	C	0.623511	0.389058	0.008009
	C125	C	0.622434	0.631681	0.988744
	C126	C	0.380710	0.631501	0.006339
	C127	C	0.379765	0.390242	0.989962
	C128	C	0.009899	0.635010	0.379971
	C129	C	0.992983	0.636168	0.623068
	C130	C	0.009578	0.391810	0.621228
	C131	C	0.993414	0.391548	0.378427
	C132	C	0.880020	0.521521	0.120657
	C133	C	0.123820	0.504664	0.121568
	C134	C	0.123035	0.520042	0.878660
	C135	C	0.879518	0.503321	0.877715
	C136	C	0.121752	0.892607	0.507927
	C137	C	0.121877	0.134626	0.490744
	C138	C	0.878830	0.134667	0.508610
	C139	C	0.879510	0.891925	0.492559
	C140	C	0.509081	0.133505	0.877208
	C141	C	0.491680	0.131970	0.119319
	C142	C	0.508988	0.887942	0.119795
	C143	C	0.493635	0.889713	0.876428
	C144	C	0.378204	0.901141	0.678881
	C145	C	0.621545	0.125365	0.677964
	C146	C	0.621225	0.897944	0.321040
	C147	C	0.378111	0.123718	0.317642
	C148	C	0.681130	0.388022	0.886714
	C149	C	0.678541	0.632027	0.110811
	C150	C	0.321503	0.632184	0.885422
	C151	C	0.320742	0.388277	0.110768
	C152	C	0.888475	0.692242	0.380773
	C153	C	0.113642	0.694305	0.624510
	C154	C	0.889272	0.333564	0.622568
	C155	C	0.113475	0.332581	0.377205
	C156	C	0.888662	0.392795	0.678511
	C157	C	0.114214	0.634960	0.680706
	C158	C	0.889132	0.635343	0.321764
	C159	C	0.113687	0.390958	0.320132
	C160	C	0.378622	0.689667	0.885035
	C161	C	0.621451	0.689778	0.110270
	C162	C	0.622687	0.331783	0.886467
	C163	C	0.378390	0.331740	0.110996
	C164	C	0.680262	0.899159	0.378291
	C165	C	0.678827	0.125922	0.620105
	C166	C	0.319590	0.901835	0.621802
	C167	C	0.320012	0.124089	0.374865
	C168	C	0.881709	0.400578	0.178502
	C169	C	0.123581	0.626259	0.178763
	C170	C	0.123500	0.399776	0.818934
	C171	C	0.879077	0.624684	0.821035
	C172	C	0.180082	0.889811	0.386876
	C173	C	0.181982	0.136404	0.611033
	C174	C	0.822387	0.133989	0.386485
	C175	C	0.820879	0.892375	0.613756
	C176	C	0.389491	0.193467	0.875007
	C177	C	0.612418	0.189579	0.120316
	C178	C	0.388249	0.830630	0.119111
	C179	C	0.614311	0.831755	0.875771
	C180	C	0.388515	0.887512	0.178095
	C181	C	0.613401	0.129671	0.175684
	C182	C	0.388753	0.134409	0.818219
	C183	C	0.614600	0.891147	0.819258
	C184	C	0.880284	0.191466	0.386926
	C185	C	0.122853	0.192512	0.612277
	C186	C	0.122662	0.832396	0.387455
	C187	C	0.878688	0.835005	0.614346
	C188	C	0.181807	0.399760	0.876252
	C189	C	0.182626	0.625119	0.121744
	C190	C	0.823395	0.400367	0.121459
	C191	C	0.819742	0.623216	0.876717
	C192	C	0.404674	0.104702	0.594428
	C193	C	0.599131	0.920131	0.595798
	C194	C	0.599830	0.105043	0.398550
	C195	C	0.402938	0.920125	0.401828
	C196	C	0.600161	0.412840	0.092974
	C197	C	0.598894	0.607617	0.904188
	C198	C	0.405510	0.607691	0.090597
	C199	C	0.404721	0.414798	0.905690
	C200	C	0.093824	0.611053	0.404103
	C201	C	0.909065	0.612794	0.598772
	C202	C	0.093507	0.415540	0.596515
	C203	C	0.909350	0.415828	0.402671
	C204	C	0.902481	0.605725	0.096898
	C205	C	0.099179	0.421054	0.097340
	C206	C	0.098590	0.603684	0.904189
	C207	C	0.903898	0.419221	0.901391
	C208	C	0.097365	0.918158	0.591696
	C209	C	0.096864	0.109934	0.406730
	C210	C	0.901757	0.111047	0.593367
	C211	C	0.903548	0.914716	0.408087
	C212	C	0.592611	0.108858	0.902248
	C213	C	0.407839	0.108690	0.095098
	C214	C	0.592952	0.911614	0.095912
	C215	C	0.409705	0.913491	0.900966
	Zn216	Zn	0.501304	0.012721	0.748022
	Zn217	Zn	0.500033	0.010368	0.247768
	Zn218	Zn	0.750983	0.510971	-0.001245
	Zn219	Zn	0.252269	0.511436	-0.001011
	Zn220	Zn	0.001140	0.764170	0.501444
	Zn221	Zn	0.001000	0.262981	0.499717
	Zn222	Zn	0.001482	0.512782	0.750446
	Zn223	Zn	0.001599	0.513787	0.250153
	Zn224	Zn	0.501202	0.759728	-0.003295
	Zn225	Zn	0.500887	0.262411	-0.000710
	Zn226	Zn	0.751082	0.013180	0.499842
	Zn227	Zn	0.250445	0.013446	0.498255
	N228	N	0.414635	0.976493	0.677810
	N229	N	0.587375	0.048870	0.677876
	N230	N	0.586509	0.974296	0.319473
	N231	N	0.413943	0.047862	0.318719
	N232	N	0.681915	0.422916	0.963517
	N233	N	0.679292	0.596723	0.034276
	N234	N	0.322667	0.596920	0.961797
	N235	N	0.321397	0.423768	0.034490
	N236	N	0.964521	0.692160	0.416082
	N237	N	0.037340	0.695310	0.589698
	N238	N	0.965563	0.332729	0.587582
	N239	N	0.037532	0.333123	0.413092
	N240	N	0.964423	0.428541	0.677690
	N241	N	0.038137	0.599807	0.680329
	N242	N	0.965519	0.600547	0.320974
	N243	N	0.037950	0.427059	0.320890
	N244	N	0.414725	0.689419	0.961249
	N245	N	0.587384	0.689814	0.033253
	N246	N	0.587628	0.332345	0.963028
	N247	N	0.414488	0.332789	0.034690
	N248	N	0.681697	0.976285	0.411678
	N249	N	0.679114	0.049759	0.584704
	N250	N	0.320026	0.977683	0.585936
	N251	N	0.320249	0.048277	0.410786
	N252	N	0.916305	0.476945	0.178211
	N253	N	0.087921	0.550454	0.179002
	N254	N	0.087307	0.475676	0.820726
	N255	N	0.915495	0.549230	0.821575
	N256	N	0.179605	0.926667	0.462655
	N257	N	0.181186	0.101145	0.534524
	N258	N	0.821536	0.099298	0.463080
	N259	N	0.821201	0.927163	0.537172
	N260	N	0.465129	0.192847	0.911219
	N261	N	0.535804	0.191422	0.086234
	N262	N	0.464196	0.830521	0.083801
	N263	N	0.537818	0.830611	0.910339
	N264	N	0.464668	0.922528	0.178608
	N265	N	0.537327	0.094731	0.175535
	N266	N	0.464129	0.097829	0.819700
	N267	N	0.538554	0.926484	0.819499
	N268	N	0.914454	0.192183	0.463881
	N269	N	0.086405	0.191693	0.536283
	N270	N	0.086961	0.833971	0.463790
	N271	N	0.914512	0.834685	0.538091
	N272	N	0.181349	0.475399	0.912631
	N273	N	0.183129	0.548413	0.087309
	N274	N	0.822043	0.476456	0.086186
	N275	N	0.819730	0.546554	0.911089
	O276	O	0.940756	0.081597	0.803115
	H277	H	0.945876	0.075792	0.817408
	H278	H	0.935845	0.058450	0.792969
	O279	O	0.651078	0.643673	0.674831
	H280	H	0.644751	0.646007	0.642743
	H281	H	0.664472	0.632545	0.683303
	O282	O	0.635817	0.451638	0.516657
	H283	H	0.643767	0.456689	0.509839
	H284	H	0.623261	0.442923	0.518254
	O285	O	0.974762	0.076473	-0.135184
	H286	H	0.972068	0.069784	-0.121127
	H287	H	0.972002	0.074364	-0.156727
	O288	O	-0.184660	0.001280	1.125239
	H289	H	-0.186282	0.011759	1.125363
	H290	H	-0.190338	0.005762	1.122981
	O291	O	0.538295	0.413775	0.369862
	H292	H	0.540016	0.413432	0.354665
	H293	H	0.530787	0.419050	0.375652
	O294	O	0.310615	0.399093	0.662892
	H295	H	0.293478	0.398895	0.676012
	H296	H	0.308891	0.387428	0.642548
	O297	O	0.893091	1.065622	1.142731
	H298	H	0.890667	1.072910	1.138861
	H299	H	0.896698	1.065576	1.150318
	O300	O	-0.042817	-0.112878	0.005045
	H301	H	-0.038849	-0.121514	-0.008054
	H302	H	-0.051836	-0.100088	-0.001418
	O303	O	0.532977	0.591401	0.583225
	H304	H	0.542365	0.604500	0.586529
	H305	H	0.539456	0.586782	0.581824
	O306	O	1.167762	0.142548	0.052658
	H307	H	1.160765	0.145408	0.056803
	H308	H	1.174730	0.147512	0.041357
	O309	O	0.540088	0.705164	0.698103
	H310	H	0.565338	0.702754	0.693740
	H311	H	0.556762	0.714949	0.708580
	O312	O	1.121957	1.079898	0.202062
	H313	H	1.110502	1.097404	0.192503
	H314	H	1.134778	1.084830	0.217561
	O315	O	0.489946	0.512885	0.662173
	H316	H	0.496332	0.481627	0.662084
	H317	H	0.497559	0.525849	0.665050
	O318	O	0.388014	0.449760	0.592410
	H319	H	0.383253	0.457159	0.575157
	H320	H	0.397575	0.451183	0.584149
	O321	O	0.868027	0.178750	0.938443
	H322	H	0.871786	0.182270	0.929338
	H323	H	0.855624	0.177756	0.917310
	O324	O	0.189018	-0.040897	0.801564
	H325	H	0.196494	-0.045280	0.817849
	H326	H	0.213664	-0.033899	0.799335
	O327	O	0.296638	0.659576	0.413726
	H328	H	0.304792	0.667418	0.410740
	H329	H	0.277503	0.686016	0.417509
	O330	O	0.417108	0.674660	0.325667
	H331	H	0.426715	0.666102	0.328039
	H332	H	0.430113	0.682975	0.323494
	O333	O	0.683919	0.399290	0.310256
	H334	H	0.692846	0.410414	0.299054
	H335	H	0.681385	0.410292	0.317477
	O336	O	0.698332	0.527028	0.383554
	H337	H	0.684098	0.527453	0.390697
	H338	H	0.708139	0.520435	0.386432
	O339	O	0.799447	-0.130635	1.183506
	H340	H	0.804726	-0.125384	1.163923
	H341	H	0.800231	-0.110263	1.188189
	O342	O	-0.586705	0.311835	0.546291
	H343	H	-0.578481	0.302595	0.543677
	H344	H	-0.593941	0.305058	0.542544
	O345	O	-0.169571	1.050468	0.909207
	H346	H	-0.176308	1.047868	0.928790
	H347	H	-0.154771	1.048232	0.907419
	O348	O	0.040625	0.194913	0.066887
	H349	H	0.037239	0.205970	0.062419
	H350	H	0.032830	0.205134	0.040352
	O351	O	0.056096	0.159563	-0.093083
	H352	H	0.062263	0.159477	-0.097985
	H353	H	0.054972	0.138822	-0.110352
	O354	O	1.432595	1.338656	0.517934
	H355	H	1.451360	1.325937	0.496556
	H356	H	1.431528	1.343660	0.513754
	O357	O	0.150208	0.895243	-0.031621
	H358	H	0.153562	0.921427	-0.016132
	H359	H	0.149014	0.900405	-0.020901
	O360	O	0.380970	0.701035	0.525733
	H361	H	0.389743	0.716047	0.533741
	H362	H	0.387394	0.681430	0.544055
	O363	O	0.511607	0.587964	0.323690
	H364	H	0.516603	0.589520	0.309100
	H365	H	0.515323	0.571715	0.339625
	O366	O	0.461110	0.376252	0.693949
	H367	H	0.462546	0.360204	0.697054
	H368	H	0.443708	0.375041	0.689087
	O369	O	0.632139	0.662773	0.401261
	H370	H	0.642953	0.677070	0.384053
	H371	H	0.623319	0.668763	0.402969
	O372	O	0.446831	0.599896	0.502298
	H373	H	0.448566	0.612212	0.490739
	H374	H	0.443399	0.598071	0.506377
	O375	O	0.321652	0.520335	0.350075
	H376	H	0.348402	0.532312	0.346994
	H377	H	0.296726	0.542520	0.342645
	O378	O	0.563958	0.410084	0.426521
	H379	H	0.555911	0.424923	0.423275
	H380	H	0.564114	0.405670	0.435432
	O381	O	0.412796	0.478367	0.414461
	H382	H	0.415952	0.473260	0.428914
	H383	H	0.399205	0.486907	0.380138
	O384	O	-0.028226	0.815003	0.817315
	H385	H	-0.020353	0.788885	0.796516
	H386	H	0.002138	0.831281	0.826506
	O387	O	1.135890	0.811632	-0.101071
	H388	H	1.127313	0.818111	-0.083626
	H389	H	1.155664	0.799913	-0.110450
	O390	O	0.521027	0.304762	0.303483
	H391	H	0.523701	0.286759	0.301599
	H392	H	0.528839	0.310510	0.294944
	O393	O	1.040928	0.133875	1.020429
	H394	H	1.047482	0.123248	1.015716
	H395	H	1.017345	0.151320	1.009693
	O396	O	-0.016665	-0.094405	0.057559
	H397	H	-0.009533	-0.097830	0.060267
	H398	H	-0.012377	-0.105039	0.050836
	O399	O	0.656739	0.489393	0.548453
	H400	H	0.660014	0.476366	0.564857
	H401	H	0.648581	0.482867	0.547647
	O402	O	0.618437	0.644662	1.450195
	H403	H	0.611407	0.632528	1.440517
	H404	H	0.608669	0.632555	1.456665
	O405	O	0.208350	0.044607	-0.066864
	H406	H	0.212530	0.042826	-0.060911
	H407	H	0.206168	0.033624	-0.055656
	O408	O	1.182164	0.889176	1.062297
	H409	H	1.148190	0.878302	1.068093
	H410	H	1.189464	0.917393	1.079695
	O411	O	0.808681	0.889654	0.025890
	H412	H	0.819921	0.896008	0.035571
	H413	H	0.799354	0.875334	0.025008
	O414	O	0.029558	0.024198	1.008583
	H415	H	0.037990	0.017605	0.997859
	H416	H	0.029493	0.026316	0.986314
	O417	O	1.037628	-0.110264	1.170390
	H418	H	1.037895	-0.125347	1.179091
	H419	H	1.027976	-0.114794	1.167275
	O420	O	0.031356	1.130700	-0.042700
	H421	H	0.050224	1.129555	-0.054010
	H422	H	0.018240	1.106510	-0.045651
	O423	O	0.859482	-0.045558	0.054970
	H424	H	0.876107	-0.049414	0.054789
	H425	H	0.870483	-0.032196	0.061738
	O426	O	-0.034908	0.116472	1.092126
	H427	H	-0.033984	0.114038	1.088704
	H428	H	-0.038061	0.118777	1.081662
	O429	O	0.574667	0.439390	0.624354
	H430	H	0.561472	0.440877	0.618168
	H431	H	0.571255	0.450391	0.624362
