data_Molecule from HDF5

_cell_length_a		16.437075
_cell_length_b		16.526498
_cell_length_c		16.543675
_cell_angle_alpha	89.818029
_cell_angle_beta	90.010324
_cell_angle_gamma	90.025321
_symmetry_space_group_name_H-M	'P 1'
_symmetry_Int_Tables_number		1

loop_
	_symmetry_equiv_pos_as_xyz
	x,y,z

loop_
	_atom_site_label
	_atom_site_type_symbol
	_atom_site_fract_x
	_atom_site_fract_y
	_atom_site_fract_z
	H0	H	0.394495	0.838987	0.754521
	H1	H	0.605451	0.152447	0.745530
	H2	H	0.610384	0.837780	0.306650
	H3	H	0.394147	0.149347	0.300957
	H4	H	0.724461	0.392060	0.871135
	H5	H	0.732214	0.603333	0.183522
	H6	H	0.286201	0.599402	0.869641
	H7	H	0.285982	0.390851	0.187664
	H8	H	0.847695	0.714814	0.422904
	H9	H	0.164236	0.716439	0.632533
	H10	H	0.849695	0.273145	0.632304
	H11	H	0.164814	0.273228	0.421891
	H12	H	0.850911	0.387379	0.750136
	H13	H	0.165092	0.599967	0.747714
	H14	H	0.848923	0.601642	0.303858
	H15	H	0.165520	0.390754	0.307026
	H16	H	0.399408	0.718388	0.871023
	H17	H	0.616352	0.719478	0.183101
	H18	H	0.607684	0.275571	0.871661
	H19	H	0.400504	0.272977	0.187360
	H20	H	0.725496	0.836829	0.423236
	H21	H	0.723086	0.152640	0.629189
	H22	H	0.283509	0.836474	0.633842
	H23	H	0.281904	0.151312	0.421089
	H24	H	0.897447	0.338042	0.253349
	H25	H	0.111601	0.650950	0.248532
	H26	H	0.111025	0.337532	0.807083
	H27	H	0.898731	0.650460	0.803763
	H28	H	0.223745	0.894595	0.370435
	H29	H	0.227321	0.100058	0.684438
	H30	H	0.783689	0.099574	0.369601
	H31	H	0.785105	0.891040	0.685504
	H32	H	0.346855	0.215640	0.924797
	H33	H	0.663267	0.216124	0.134664
	H34	H	0.351320	0.770329	0.136270
	H35	H	0.662586	0.773421	0.921274
	H36	H	0.349637	0.889309	0.249871
	H37	H	0.662183	0.102999	0.251792
	H38	H	0.346982	0.101888	0.806539
	H39	H	0.662439	0.890032	0.806944
	H40	H	0.898297	0.218112	0.370382
	H41	H	0.112828	0.217566	0.682700
	H42	H	0.106638	0.777394	0.370156
	H43	H	0.897362	0.770809	0.683652
	H44	H	0.226427	0.336319	0.925266
	H45	H	0.228388	0.651111	0.132212
	H46	H	0.784497	0.336355	0.134552
	H47	H	0.782986	0.650902	0.921008
	H48	H	0.408630	0.107394	0.615210
	H49	H	0.596020	0.879314	0.621614
	H50	H	0.595925	0.108711	0.435020
	H51	H	0.418780	0.886154	0.445292
	H52	H	0.594276	0.400486	0.143333
	H53	H	0.598896	0.582980	0.915718
	H54	H	0.415928	0.584016	0.140304
	H55	H	0.412851	0.407178	0.916416
	H56	H	0.119728	0.580207	0.432748
	H57	H	0.890127	0.581172	0.624879
	H58	H	0.118717	0.408047	0.614225
	H59	H	0.896388	0.406814	0.445268
	H60	H	0.121048	0.406476	0.618656
	H61	H	0.892217	0.590597	0.612077
	H62	H	0.121230	0.591321	0.437563
	H63	H	0.894695	0.411550	0.436197
	H64	H	0.418764	0.579672	0.137581
	H65	H	0.591527	0.579862	0.918619
	H66	H	0.598935	0.406728	0.143481
	H67	H	0.420546	0.405850	0.918491
	H68	H	0.588103	0.105026	0.438774
	H69	H	0.590791	0.881564	0.619012
	H70	H	0.418968	0.108289	0.624536
	H71	H	0.411550	0.881211	0.439403
	H72	H	0.918816	0.605631	0.115500
	H73	H	0.095474	0.381637	0.117846
	H74	H	0.097521	0.604098	0.946260
	H75	H	0.918984	0.383202	0.940347
	H76	H	0.090595	0.899883	0.642112
	H77	H	0.088384	0.086082	0.415905
	H78	H	0.918588	0.082605	0.637900
	H79	H	0.916338	0.906476	0.415811
	H80	H	0.620322	0.088482	0.934575
	H81	H	0.393899	0.085850	0.112970
	H82	H	0.616908	0.912145	0.114195
	H83	H	0.392259	0.907401	0.940725
	H84	H	0.621649	0.908097	0.122482
	H85	H	0.394827	0.078056	0.115177
	H86	H	0.617394	0.086907	0.941726
	H87	H	0.392786	0.907603	0.942579
	H88	H	0.916297	0.086307	0.639685
	H89	H	0.098326	0.086093	0.412730
	H90	H	0.099511	0.905516	0.643048
	H91	H	0.916117	0.902349	0.414443
	H92	H	0.103251	0.611288	0.933239
	H93	H	0.096414	0.381019	0.118685
	H94	H	0.921836	0.604023	0.116200
	H95	H	0.915953	0.382178	0.939428
	H96	H	0.421378	0.102787	0.612102
	H97	H	0.596163	0.880834	0.615815
	H98	H	0.595653	0.106256	0.444022
	H99	H	0.421444	0.882511	0.435650
	H100	H	0.592506	0.406920	0.140079
	H101	H	0.591925	0.587557	0.915979
	H102	H	0.421825	0.584234	0.139487
	H103	H	0.416034	0.399652	0.915674
	H104	H	0.116103	0.582266	0.443861
	H105	H	0.898438	0.575444	0.612430
	H106	H	0.120190	0.403482	0.614423
	H107	H	0.891845	0.401509	0.437155
	H108	H	0.920417	0.603499	0.113418
	H109	H	0.095215	0.380859	0.119459
	H110	H	0.088450	0.606299	0.933377
	H111	H	0.918755	0.382494	0.937101
	H112	H	0.090832	0.910285	0.638562
	H113	H	0.094207	0.077286	0.417296
	H114	H	0.914124	0.082279	0.638948
	H115	H	0.912521	0.905238	0.413940
	H116	H	0.617450	0.081097	0.936106
	H117	H	0.390933	0.083288	0.119744
	H118	H	0.619877	0.902456	0.113852
	H119	H	0.393090	0.908704	0.941449
	C120	C	0.382749	0.002768	0.650808
	C121	C	0.625552	0.985463	0.649056
	C122	C	0.625914	0.002957	0.406877
	C123	C	0.383921	0.986533	0.406516
	C124	C	0.626685	0.373023	0.038194
	C125	C	0.628175	0.616513	1.019775
	C126	C	0.385444	0.616084	0.035826
	C127	C	0.384134	0.372337	1.021065
	C128	C	0.014464	0.616429	0.405394
	C129	C	0.997736	0.615527	0.648769
	C130	C	0.015858	0.373372	0.648084
	C131	C	0.998544	0.374187	0.406446
	C132	C	0.885577	0.501649	0.149283
	C133	C	0.127972	0.485247	0.149900
	C134	C	0.128269	0.503125	0.906200
	C135	C	0.884911	0.486064	0.906142
	C136	C	0.125690	0.874037	0.536993
	C137	C	0.126516	0.115339	0.518801
	C138	C	0.883454	0.116622	0.535226
	C139	C	0.882928	0.872650	0.518882
	C140	C	0.513386	0.116665	0.906737
	C141	C	0.496993	0.115705	0.149644
	C142	C	0.515566	0.873654	0.149661
	C143	C	0.496717	0.874969	0.908228
	C144	C	0.377961	0.885342	0.712944
	C145	C	0.625741	0.104947	0.706647
	C146	C	0.628498	0.884800	0.346640
	C147	C	0.378108	0.102969	0.342897
	C148	C	0.685074	0.372643	0.918758
	C149	C	0.690874	0.620479	0.136828
	C150	C	0.325459	0.618376	0.917402
	C151	C	0.324802	0.371464	0.139996
	C152	C	0.895380	0.675659	0.403566
	C153	C	0.116732	0.676107	0.650727
	C154	C	0.897030	0.313196	0.650620
	C155	C	0.117408	0.313517	0.403587
	C156	C	0.897784	0.370073	0.709122
	C157	C	0.117248	0.618448	0.708342
	C158	C	0.896075	0.619444	0.344441
	C159	C	0.117915	0.372099	0.346728
	C160	C	0.382189	0.677478	0.918030
	C161	C	0.633303	0.678746	0.136291
	C162	C	0.626802	0.314983	0.918952
	C163	C	0.382051	0.313040	0.139940
	C164	C	0.685633	0.884274	0.404909
	C165	C	0.683709	0.104914	0.648711
	C166	C	0.322671	0.884343	0.652833
	C167	C	0.322088	0.103926	0.402716
	C168	C	0.880995	0.384522	0.211566
	C169	C	0.129803	0.604069	0.208646
	C170	C	0.130307	0.384591	0.846629
	C171	C	0.881366	0.603574	0.844681
	C172	C	0.184178	0.874370	0.417706
	C173	C	0.187184	0.118235	0.637139
	C174	C	0.823182	0.118746	0.417161
	C175	C	0.823794	0.871291	0.637868
	C176	C	0.394357	0.176265	0.905605
	C177	C	0.615875	0.175973	0.152473
	C178	C	0.397880	0.811402	0.153677
	C179	C	0.615405	0.814182	0.904267
	C180	C	0.397067	0.870076	0.210333
	C181	C	0.615198	0.119821	0.211054
	C182	C	0.394554	0.119200	0.846989
	C183	C	0.615143	0.871805	0.846966
	C184	C	0.880522	0.177641	0.417473
	C185	C	0.130090	0.176598	0.636458
	C186	C	0.126023	0.816529	0.417579
	C187	C	0.880043	0.811937	0.637009
	C188	C	0.187170	0.383901	0.905554
	C189	C	0.188038	0.603758	0.151018
	C190	C	0.824359	0.383878	0.152577
	C191	C	0.823621	0.603784	0.903061
	C192	C	0.408982	0.084768	0.624925
	C193	C	0.601196	0.902348	0.625739
	C194	C	0.600617	0.085289	0.431928
	C195	C	0.409886	0.904578	0.432621
	C196	C	0.602427	0.397566	0.120692
	C197	C	0.601747	0.590532	0.938191
	C198	C	0.411455	0.590240	0.117929
	C199	C	0.409218	0.397105	0.938515
	C200	C	0.097403	0.591472	0.430793
	C201	C	0.915255	0.589856	0.623718
	C202	C	0.098506	0.398769	0.622771
	C203	C	0.916037	0.399459	0.432151
	C204	C	0.912438	0.583314	0.122725
	C205	C	0.102844	0.402725	0.125704
	C206	C	0.103632	0.585613	0.930380
	C207	C	0.910594	0.403888	0.931749
	C208	C	0.100963	0.898116	0.619592
	C209	C	0.100988	0.090334	0.436688
	C210	C	0.908998	0.091034	0.617322
	C211	C	0.907873	0.897530	0.436457
	C212	C	0.596788	0.092309	0.930675
	C213	C	0.414552	0.089737	0.123586
	C214	C	0.598062	0.900069	0.124108
	C215	C	0.414195	0.900668	0.934320
	Zn216	Zn	0.504400	-0.005587	0.778828
	Zn217	Zn	0.505857	-0.004722	0.277777
	Zn218	Zn	0.756037	0.494188	0.028395
	Zn219	Zn	0.256387	0.494067	0.028154
	Zn220	Zn	0.005037	0.744288	0.527813
	Zn221	Zn	0.006537	0.244873	0.526786
	Zn222	Zn	0.007114	0.494469	0.777165
	Zn223	Zn	0.006244	0.494276	0.278457
	Zn224	Zn	0.506429	0.746023	0.027800
	Zn225	Zn	0.505374	0.244034	0.029774
	Zn226	Zn	0.754779	-0.005714	0.527374
	Zn227	Zn	0.255399	-0.005301	0.528388
	N228	N	0.414499	0.960104	0.711919
	N229	N	0.590564	0.029475	0.707236
	N230	N	0.592021	0.959558	0.347856
	N231	N	0.416098	0.028993	0.345260
	N232	N	0.685338	0.407768	0.993810
	N233	N	0.687766	0.582401	0.063223
	N234	N	0.327165	0.580959	0.991664
	N235	N	0.325939	0.407544	0.065023
	N236	N	0.970034	0.674128	0.440719
	N237	N	0.041454	0.674562	0.614395
	N238	N	0.971490	0.315182	0.613402
	N239	N	0.042196	0.314577	0.439859
	N240	N	0.972643	0.406951	0.707703
	N241	N	0.042372	0.581464	0.707326
	N242	N	0.971492	0.583594	0.345305
	N243	N	0.042992	0.408982	0.348477
	N244	N	0.418690	0.676239	0.992879
	N245	N	0.594997	0.676469	0.062487
	N246	N	0.591697	0.314656	0.994356
	N247	N	0.417892	0.313189	0.064933
	N248	N	0.684385	0.958816	0.441496
	N249	N	0.683916	0.029562	0.613853
	N250	N	0.325540	0.958369	0.614799
	N251	N	0.325823	0.030638	0.441864
	N252	N	0.918234	0.458875	0.209717
	N253	N	0.093050	0.529407	0.207951
	N254	N	0.094529	0.459661	0.846979
	N255	N	0.918700	0.529349	0.846436
	N256	N	0.184326	0.909043	0.493069
	N257	N	0.185019	0.080845	0.563197
	N258	N	0.825045	0.081370	0.491392
	N259	N	0.825347	0.908277	0.563488
	N260	N	0.469432	0.174925	0.942225
	N261	N	0.541380	0.173551	0.114936
	N262	N	0.472787	0.813231	0.117018
	N263	N	0.540765	0.816115	0.941632
	N264	N	0.471371	0.908038	0.207876
	N265	N	0.540353	0.082896	0.209220
	N266	N	0.469619	0.082878	0.847642
	N267	N	0.540256	0.909028	0.849246
	N268	N	0.917369	0.176547	0.492052
	N269	N	0.092934	0.174929	0.562013
	N270	N	0.090919	0.815855	0.492848
	N271	N	0.915944	0.812379	0.561997
	N272	N	0.186316	0.458606	0.941721
	N273	N	0.186980	0.528951	0.115230
	N274	N	0.826981	0.457942	0.114591
	N275	N	0.825668	0.529526	0.940669
	O276	O	0.371114	0.416957	0.389678
	H277	H	0.376516	0.413473	0.381404
	H278	H	0.355805	0.434366	0.386997
	O279	O	0.709375	0.635698	0.399993
	H280	H	0.696919	0.621374	0.398869
	H281	H	0.705834	0.614716	0.392549
	O282	O	0.697486	0.688181	0.723232
	H283	H	0.659728	0.693171	0.718245
	H284	H	0.696579	0.697782	0.687316
	O285	O	0.217972	1.205753	0.055012
	H286	H	0.212448	1.219326	0.051146
	H287	H	0.224979	1.217307	0.063990
	O288	O	-0.182344	-0.014017	0.226251
	H289	H	-0.176266	0.005533	0.233474
	H290	H	-0.178561	-0.013905	0.225721
	O291	O	0.991753	1.002142	0.231231
	H292	H	0.999893	0.988395	0.240157
	H293	H	0.989405	1.000645	0.213621
	O294	O	-0.084363	0.897554	-0.148313
	H295	H	-0.102691	0.908609	-0.149971
	H296	H	-0.093054	0.903038	-0.142601
	O297	O	1.189898	0.811942	-0.150674
	H298	H	1.161864	0.827011	-0.165184
	H299	H	1.173361	0.836257	-0.163138
	O300	O	0.360181	0.516038	0.740225
	H301	H	0.356558	0.514698	0.743976
	H302	H	0.354883	0.521977	0.734413
	O303	O	0.437044	0.550406	0.534865
	H304	H	0.432540	0.579187	0.534857
	H305	H	0.432437	0.538189	0.530711
	O306	O	0.032131	0.775803	0.811514
	H307	H	0.018546	0.779791	0.793348
	H308	H	0.012448	0.758168	0.809551
	O309	O	0.645030	0.697734	0.527757
	H310	H	0.653169	0.691016	0.501793
	H311	H	0.653253	0.710498	0.515143
	O312	O	0.536478	0.412665	0.383845
	H313	H	0.526864	0.419574	0.401129
	H314	H	0.521823	0.408309	0.390387
	O315	O	-0.204025	-0.210678	1.044774
	H316	H	-0.218652	-0.217429	1.051422
	H317	H	-0.207436	-0.211671	1.085223
	O318	O	-0.782934	1.785258	0.240919
	H319	H	-0.802227	1.815411	0.234357
	H320	H	-0.793850	1.792069	0.210631
	O321	O	-0.204697	1.207530	-0.099447
	H322	H	-0.230760	1.229875	-0.106406
	H323	H	-0.207146	1.200972	-0.073570
	O324	O	0.945524	0.185576	1.091797
	H325	H	0.941731	0.190793	1.090192
	H326	H	0.962911	0.177474	1.111717
	O327	O	1.196786	-0.078097	1.064352
	H328	H	1.198434	-0.103110	1.045643
	H329	H	1.190571	-0.068854	1.047729
	O330	O	1.208825	-0.027331	-0.180722
	H331	H	1.201977	-0.001316	-0.158659
	H332	H	1.240270	-0.020868	-0.198226
	O333	O	0.573930	0.646952	0.506725
	H334	H	0.565209	0.629452	0.485703
	H335	H	0.574417	0.643868	0.486923
	O336	O	1.490961	-0.725321	0.507486
	H337	H	1.478079	-0.727322	0.514720
	H338	H	1.486398	-0.723148	0.511303
	O339	O	0.542185	-0.409922	-0.567429
	H340	H	0.545293	-0.439429	-0.575596
	H341	H	0.550906	-0.416792	-0.556715
	O342	O	0.895514	0.803271	0.132651
	H343	H	0.901542	0.810184	0.151121
	H344	H	0.908543	0.816794	0.141858
	O345	O	-0.479298	0.295869	-0.678420
	H346	H	-0.484177	0.275844	-0.701473
	H347	H	-0.502403	0.293000	-0.647441
	O348	O	1.054754	-0.163532	1.117868
	H349	H	1.032593	-0.156556	1.101666
	H350	H	1.087776	-0.166396	1.095870
	O351	O	1.345347	1.386296	-0.269275
	H352	H	1.325431	1.381531	-0.251848
	H353	H	1.331543	1.415233	-0.270081
	O354	O	0.516689	0.287765	0.676261
	H355	H	0.492513	0.273168	0.661024
	H356	H	0.497555	0.298241	0.692464
	O357	O	1.036470	1.129204	1.151588
	H358	H	1.054530	1.124976	1.153770
	H359	H	1.044149	1.140479	1.140900
	O360	O	0.694615	0.305005	0.719474
	H361	H	0.688752	0.332572	0.699805
	H362	H	0.663912	0.318137	0.707268
	O363	O	0.514284	0.435075	0.534247
	H364	H	0.511438	0.411051	0.538705
	H365	H	0.501061	0.433000	0.524969
	O366	O	0.748258	0.215594	1.255420
	H367	H	0.748134	0.207026	1.281460
	H368	H	0.723299	0.209648	1.248371
	O369	O	-0.694330	0.674031	-0.667431
	H370	H	-0.645006	0.686331	-0.676501
	H371	H	-0.723683	0.704830	-0.701148
	O372	O	0.228012	0.777361	0.004357
	H373	H	0.238830	0.764917	-0.027268
	H374	H	0.239197	0.768109	-0.021533
	O375	O	-0.066711	0.808754	1.235654
	H376	H	-0.058404	0.803567	1.223645
	H377	H	-0.074408	0.795308	1.246674
	O378	O	0.612509	0.520363	0.568792
	H379	H	0.608397	0.538649	0.577584
	H380	H	0.612467	0.524589	0.576601
	O381	O	0.856604	0.022861	-0.007860
	H382	H	0.850639	0.035278	-0.005736
	H383	H	0.857421	0.029848	-0.029516
	O384	O	0.120127	0.112317	1.978621
	H385	H	0.098179	0.109350	1.969621
	H386	H	0.115671	0.122416	1.995823
	O387	O	0.203050	1.008034	1.225875
	H388	H	0.210652	0.998627	1.206307
	H389	H	0.202964	0.998220	1.223274
	O390	O	0.891157	0.987576	0.817317
	H391	H	0.890518	0.996576	0.814757
	H392	H	0.865680	0.979171	0.810059
	O393	O	1.380584	0.298451	0.716007
	H394	H	1.370226	0.319605	0.717364
	H395	H	1.368247	0.286092	0.718034
	O396	O	0.547946	0.550208	0.345205
	H397	H	0.556805	0.525965	0.354660
	H398	H	0.538717	0.532255	0.341985
	O399	O	0.525244	0.699377	0.732186
	H400	H	0.504579	0.709517	0.709438
	H401	H	0.512441	0.706064	0.745822
	O402	O	-0.106939	0.204411	0.817963
	H403	H	-0.123113	0.201066	0.840732
	H404	H	-0.133385	0.232531	0.789595
	O405	O	-0.129974	0.097004	-0.189000
	H406	H	-0.145942	0.100725	-0.170816
	H407	H	-0.151620	0.109393	-0.214609
	O408	O	0.191100	0.175620	0.217494
	H409	H	0.180648	0.172337	0.199738
	H410	H	0.195425	0.147394	0.221382
	O411	O	0.006127	0.887388	0.152737
	H412	H	-0.010721	0.887485	0.150293
	H413	H	0.012717	0.892508	0.146631
	O414	O	0.655199	0.531878	0.515102
	H415	H	0.652721	0.544701	0.516200
	H416	H	0.661589	0.533939	0.507132
	O417	O	0.814890	0.044784	1.093743
	H418	H	0.817297	0.038908	1.093444
	H419	H	0.813793	0.045906	1.108791
	O420	O	0.360933	0.450913	0.616350
	H421	H	0.358252	0.461796	0.607030
	H422	H	0.361114	0.467472	0.613243
	O423	O	0.000955	1.134572	0.132484
	H424	H	-0.008211	1.131532	0.129453
	H425	H	-0.003352	1.134694	0.144781
	O426	O	1.302386	1.503846	0.334469
	H427	H	1.292408	1.535730	0.329659
	H428	H	1.284627	1.518915	0.338082
	O429	O	0.703656	0.303011	0.517984
	H430	H	0.702661	0.322878	0.534980
	H431	H	0.709019	0.297654	0.534897
	O432	O	0.545884	0.458606	0.732998
	H433	H	0.548134	0.472748	0.735548
	H434	H	0.536477	0.460279	0.738860
	O435	O	-0.276567	0.470298	0.308818
	H436	H	-0.289381	0.423937	0.320616
	H437	H	-0.243911	0.460179	0.275904
	O438	O	1.347774	0.591919	0.628287
	H439	H	1.327137	0.608905	0.622657
	H440	H	1.369072	0.583969	0.610838
	O441	O	0.046926	-0.150354	0.009365
	H442	H	0.016267	-0.158217	0.011875
	H443	H	0.049465	-0.148788	-0.024236
	O444	O	0.878911	-0.166110	-0.082027
	H445	H	0.861408	-0.153574	-0.059172
	H446	H	0.863061	-0.181791	-0.091020
	O447	O	0.468168	0.704487	0.312562
	H448	H	0.486393	0.705639	0.290800
	H449	H	0.488026	0.693544	0.296703
	O450	O	0.285373	0.715194	0.498340
	H451	H	0.274823	0.724464	0.471044
	H452	H	0.274662	0.729541	0.474450
	O453	O	0.720575	0.515073	0.734928
	H454	H	0.724060	0.542607	0.744130
	H455	H	0.723456	0.540626	0.750402
	O456	O	0.359362	0.283988	0.509723
	H457	H	0.334791	0.288221	0.511785
	H458	H	0.355852	0.287123	0.534387
	O459	O	0.167640	0.122899	-0.092493
	H460	H	0.158888	0.107630	-0.081328
	H461	H	0.140338	0.127448	-0.090239
	O462	O	1.044884	0.074582	-0.173618
	H463	H	1.042459	0.076684	-0.179045
	H464	H	1.033040	0.073085	-0.187877
	O465	O	0.886432	0.186988	0.087618
	H466	H	0.881300	0.190370	0.087261
	H467	H	0.900290	0.189536	0.092122
