data_Molecule from HDF5

_cell_length_a		16.257206
_cell_length_b		16.319385
_cell_length_c		16.279583
_cell_angle_alpha	89.876061
_cell_angle_beta	90.029804
_cell_angle_gamma	90.006223
_symmetry_space_group_name_H-M	'P 1'
_symmetry_Int_Tables_number		1

loop_
	_symmetry_equiv_pos_as_xyz
	x,y,z

loop_
	_atom_site_label
	_atom_site_type_symbol
	_atom_site_fract_x
	_atom_site_fract_y
	_atom_site_fract_z
	H0	H	0.403581	0.832463	0.717493
	H1	H	0.600735	0.159329	0.717623
	H2	H	0.600456	0.831809	0.288181
	H3	H	0.402678	0.158950	0.286345
	H4	H	0.717017	0.398416	0.838246
	H5	H	0.717827	0.593694	0.165411
	H6	H	0.289707	0.593541	0.838120
	H7	H	0.288734	0.397585	0.166140
	H8	H	0.838438	0.711727	0.403470
	H9	H	0.166359	0.710787	0.600188
	H10	H	0.838839	0.281535	0.601192
	H11	H	0.165416	0.280356	0.402754
	H12	H	0.839311	0.397310	0.718097
	H13	H	0.167068	0.593467	0.714406
	H14	H	0.838151	0.596040	0.287306
	H15	H	0.166175	0.397702	0.287392
	H16	H	0.402232	0.711558	0.839067
	H17	H	0.602896	0.710347	0.165444
	H18	H	0.602688	0.280515	0.837971
	H19	H	0.403547	0.280090	0.165636
	H20	H	0.716660	0.832561	0.404693
	H21	H	0.717451	0.159681	0.601333
	H22	H	0.287724	0.832543	0.601023
	H23	H	0.287635	0.160386	0.403508
	H24	H	0.903058	0.333131	0.218716
	H25	H	0.099304	0.660402	0.215043
	H26	H	0.103582	0.334227	0.786378
	H27	H	0.904631	0.659862	0.787528
	H28	H	0.215417	0.899382	0.338305
	H29	H	0.216921	0.093467	0.665597
	H30	H	0.787399	0.095694	0.338896
	H31	H	0.788768	0.897600	0.665965
	H32	H	0.339458	0.211415	0.902294
	H33	H	0.666496	0.209747	0.100923
	H34	H	0.338997	0.779847	0.101206
	H35	H	0.666624	0.781890	0.903841
	H36	H	0.337756	0.896894	0.216075
	H37	H	0.666258	0.093329	0.216691
	H38	H	0.337960	0.094097	0.788028
	H39	H	0.666009	0.898161	0.787752
	H40	H	0.902367	0.212295	0.339405
	H41	H	0.102457	0.210878	0.665815
	H42	H	0.100445	0.782690	0.338284
	H43	H	0.903689	0.781551	0.665885
	H44	H	0.216639	0.333068	0.904762
	H45	H	0.218235	0.659502	0.101127
	H46	H	0.787811	0.331970	0.101378
	H47	H	0.788371	0.659339	0.903448
	H48	H	0.409205	0.112314	0.595863
	H49	H	0.590518	0.881108	0.595489
	H50	H	0.595079	0.110071	0.415444
	H51	H	0.400230	0.879283	0.415613
	H52	H	0.600979	0.405823	0.118476
	H53	H	0.588459	0.587539	0.887417
	H54	H	0.411873	0.576666	0.114814
	H55	H	0.406589	0.401108	0.884311
	H56	H	0.122112	0.603225	0.410367
	H57	H	0.887902	0.586310	0.590259
	H58	H	0.122273	0.394347	0.595081
	H59	H	0.886824	0.406971	0.411267
	H60	H	0.115425	0.406370	0.586205
	H61	H	0.884912	0.587092	0.601358
	H62	H	0.114349	0.584252	0.417681
	H63	H	0.885196	0.403564	0.406723
	H64	H	0.420369	0.595581	0.117060
	H65	H	0.596391	0.596202	0.882968
	H66	H	0.588855	0.403484	0.115871
	H67	H	0.410178	0.406315	0.887013
	H68	H	0.599511	0.113153	0.406047
	H69	H	0.600931	0.879831	0.592388
	H70	H	0.410244	0.111461	0.594832
	H71	H	0.408449	0.877238	0.399271
	H72	H	0.917487	0.608360	0.089467
	H73	H	0.093668	0.380421	0.096912
	H74	H	0.103425	0.617796	0.900277
	H75	H	0.908604	0.380442	0.911087
	H76	H	0.097109	0.904266	0.618915
	H77	H	0.096129	0.094629	0.383607
	H78	H	0.913869	0.099285	0.620237
	H79	H	0.909741	0.902613	0.385326
	H80	H	0.616275	0.082391	0.910699
	H81	H	0.385083	0.082485	0.102145
	H82	H	0.618280	0.908838	0.098583
	H83	H	0.386810	0.906386	0.911348
	H84	H	0.620940	0.896956	0.098018
	H85	H	0.383327	0.098798	0.094182
	H86	H	0.621842	0.090375	0.902951
	H87	H	0.384533	0.902874	0.906523
	H88	H	0.899117	0.085955	0.620521
	H89	H	0.097671	0.084705	0.386304
	H90	H	0.092312	0.902375	0.617455
	H91	H	0.908855	0.903609	0.386023
	H92	H	0.086518	0.610948	0.905745
	H93	H	0.093900	0.381519	0.093197
	H94	H	0.899540	0.612512	0.090234
	H95	H	0.911236	0.379652	0.907965
	H96	H	0.408805	0.112279	0.594187
	H97	H	0.597692	0.878398	0.601756
	H98	H	0.588513	0.110470	0.406634
	H99	H	0.418231	0.884345	0.413145
	H100	H	0.596610	0.394658	0.120577
	H101	H	0.600960	0.584570	0.885014
	H102	H	0.400207	0.592136	0.122867
	H103	H	0.413494	0.400775	0.886322
	H104	H	0.120956	0.585791	0.396941
	H105	H	0.884013	0.595943	0.594940
	H106	H	0.120254	0.408987	0.602460
	H107	H	0.886571	0.401580	0.411587
	H108	H	0.910345	0.614631	0.104943
	H109	H	0.097667	0.380648	0.095125
	H110	H	0.100241	0.611261	0.917997
	H111	H	0.911898	0.380948	0.911091
	H112	H	0.095897	0.899603	0.620317
	H113	H	0.088856	0.088943	0.387851
	H114	H	0.916987	0.080655	0.613739
	H115	H	0.909981	0.903896	0.385912
	H116	H	0.618773	0.093248	0.914443
	H117	H	0.389197	0.084243	0.085230
	H118	H	0.616193	0.901858	0.088462
	H119	H	0.386166	0.900421	0.912803
	C120	C	0.380841	0.004072	0.623765
	C121	C	0.624417	0.988039	0.624661
	C122	C	0.623461	0.003747	0.380746
	C123	C	0.380176	0.988258	0.380631
	C124	C	0.624220	0.373491	0.010030
	C125	C	0.624170	0.617291	0.993508
	C126	C	0.381618	0.616986	0.010438
	C127	C	0.380910	0.373694	0.993669
	C128	C	0.010679	0.618721	0.380336
	C129	C	0.994160	0.617916	0.623524
	C130	C	0.011052	0.374596	0.623814
	C131	C	0.994009	0.375080	0.381043
	C132	C	0.880450	0.504104	0.124040
	C133	C	0.124153	0.488395	0.123996
	C134	C	0.125166	0.505160	0.880413
	C135	C	0.881754	0.488156	0.881067
	C136	C	0.123920	0.874314	0.510880
	C137	C	0.123477	0.117713	0.493933
	C138	C	0.880691	0.117846	0.510631
	C139	C	0.880926	0.874788	0.493822
	C140	C	0.510832	0.117416	0.880657
	C141	C	0.494090	0.117043	0.123147
	C142	C	0.510518	0.873613	0.123881
	C143	C	0.493881	0.874318	0.881058
	C144	C	0.383194	0.881314	0.679348
	C145	C	0.621384	0.110978	0.679339
	C146	C	0.621054	0.880967	0.325648
	C147	C	0.382519	0.110689	0.324840
	C148	C	0.679580	0.376877	0.886882
	C149	C	0.679673	0.614254	0.116685
	C150	C	0.326928	0.614468	0.887022
	C151	C	0.326486	0.376615	0.117215
	C152	C	0.887137	0.673519	0.383087
	C153	C	0.117491	0.672774	0.620531
	C154	C	0.887657	0.319475	0.621929
	C155	C	0.117030	0.319207	0.382656
	C156	C	0.887998	0.377266	0.679657
	C157	C	0.117848	0.614549	0.677418
	C158	C	0.887040	0.615890	0.325489
	C159	C	0.117283	0.377417	0.325612
	C160	C	0.383393	0.672744	0.887541
	C161	C	0.622480	0.672143	0.116723
	C162	C	0.622256	0.318851	0.886717
	C163	C	0.383486	0.318349	0.116950
	C164	C	0.678707	0.881116	0.383600
	C165	C	0.679609	0.110841	0.621673
	C166	C	0.325877	0.881281	0.621298
	C167	C	0.325305	0.111300	0.383082
	C168	C	0.882784	0.381553	0.180093
	C169	C	0.121446	0.611215	0.178399
	C170	C	0.123305	0.382680	0.824933
	C171	C	0.883944	0.610933	0.825278
	C172	C	0.178078	0.878247	0.387204
	C173	C	0.178719	0.114523	0.617241
	C174	C	0.824988	0.116160	0.387852
	C175	C	0.826400	0.877208	0.617147
	C176	C	0.387952	0.172956	0.882441
	C177	C	0.617552	0.171692	0.121078
	C178	C	0.387608	0.817747	0.121921
	C179	C	0.617445	0.819515	0.883532
	C180	C	0.387142	0.875992	0.178910
	C181	C	0.617421	0.114058	0.178559
	C182	C	0.387198	0.114735	0.825689
	C183	C	0.617306	0.877223	0.825940
	C184	C	0.882442	0.173759	0.387970
	C185	C	0.121989	0.172765	0.617025
	C186	C	0.120840	0.820253	0.387200
	C187	C	0.883696	0.819750	0.617050
	C188	C	0.179933	0.382276	0.883530
	C189	C	0.179691	0.610920	0.121110
	C190	C	0.825481	0.381029	0.121975
	C191	C	0.826153	0.610734	0.882948
	C192	C	0.402955	0.090027	0.601668
	C193	C	0.602842	0.902033	0.603043
	C194	C	0.601052	0.089185	0.402855
	C195	C	0.402397	0.902443	0.403002
	C196	C	0.601923	0.395018	0.095937
	C197	C	0.601881	0.595848	0.907535
	C198	C	0.404122	0.594507	0.096254
	C199	C	0.403394	0.396041	0.908137
	C200	C	0.096885	0.597294	0.401956
	C201	C	0.907769	0.596185	0.601774
	C202	C	0.097021	0.396529	0.601167
	C203	C	0.908336	0.397338	0.403386
	C204	C	0.902624	0.589751	0.101390
	C205	C	0.101561	0.402839	0.101644
	C206	C	0.103199	0.591227	0.901845
	C207	C	0.904093	0.402382	0.903411
	C208	C	0.101717	0.895786	0.596755
	C209	C	0.100913	0.095859	0.408241
	C210	C	0.903364	0.095185	0.596195
	C211	C	0.902985	0.896805	0.407944
	C212	C	0.596852	0.095164	0.902834
	C213	C	0.408209	0.094920	0.100442
	C214	C	0.596339	0.895950	0.101577
	C215	C	0.408144	0.896653	0.903455
	Zn216	Zn	0.501935	-0.004237	0.752746
	Zn217	Zn	0.501655	-0.004145	0.251888
	Zn218	Zn	0.752089	0.495747	0.001852
	Zn219	Zn	0.253319	0.496370	0.002280
	Zn220	Zn	0.002206	0.746602	0.502041
	Zn221	Zn	0.002359	0.246096	0.502306
	Zn222	Zn	0.003279	0.496531	0.751943
	Zn223	Zn	0.002394	0.496709	0.252731
	Zn224	Zn	0.502580	0.745783	0.002108
	Zn225	Zn	0.502907	0.245158	0.001777
	Zn226	Zn	0.752716	-0.004195	0.502127
	Zn227	Zn	0.251922	-0.003616	0.502592
	N228	N	0.416668	0.958711	0.680843
	N229	N	0.587977	0.033606	0.681465
	N230	N	0.587326	0.958199	0.323913
	N231	N	0.415692	0.033275	0.323213
	N232	N	0.680926	0.410157	0.964491
	N233	N	0.680507	0.580712	0.039230
	N234	N	0.325843	0.580334	0.964450
	N235	N	0.324614	0.410287	0.039876
	N236	N	0.964735	0.675225	0.416645
	N237	N	0.039493	0.675052	0.587891
	N238	N	0.965093	0.317704	0.588097
	N239	N	0.039406	0.317564	0.416309
	N240	N	0.965814	0.410648	0.681066
	N241	N	0.040145	0.581178	0.679392
	N242	N	0.964875	0.582523	0.323616
	N243	N	0.039967	0.411448	0.324424
	N244	N	0.416746	0.674265	0.965272
	N245	N	0.588734	0.674257	0.039160
	N246	N	0.588835	0.316642	0.964363
	N247	N	0.416658	0.316511	0.039137
	N248	N	0.680404	0.958357	0.417164
	N249	N	0.681498	0.033373	0.588475
	N250	N	0.324025	0.958777	0.587698
	N251	N	0.323820	0.033872	0.417228
	N252	N	0.916145	0.459057	0.181635
	N253	N	0.087727	0.534057	0.180261
	N254	N	0.089849	0.460021	0.822847
	N255	N	0.917886	0.533726	0.824199
	N256	N	0.180087	0.911140	0.465023
	N257	N	0.179869	0.081016	0.539832
	N258	N	0.823872	0.081837	0.465151
	N259	N	0.824455	0.910757	0.539638
	N260	N	0.465689	0.174460	0.915883
	N261	N	0.539977	0.173642	0.087404
	N262	N	0.465210	0.816172	0.088390
	N263	N	0.539743	0.817879	0.917287
	N264	N	0.464582	0.909956	0.180282
	N265	N	0.539631	0.080743	0.179973
	N266	N	0.464841	0.080851	0.824384
	N267	N	0.539608	0.910606	0.824342
	N268	N	0.916145	0.174956	0.465436
	N269	N	0.088283	0.174718	0.539410
	N270	N	0.087911	0.817846	0.464990
	N271	N	0.916808	0.818110	0.539274
	N272	N	0.181070	0.459509	0.917185
	N273	N	0.181752	0.533253	0.088020
	N274	N	0.823947	0.458297	0.087918
	N275	N	0.824443	0.533380	0.916768
	O276	O	0.979915	1.056220	-0.039972
	H277	H	0.981175	1.066644	-0.038929
	H278	H	0.975721	1.056369	-0.034862
	O279	O	-0.068773	0.019065	-0.039645
	H280	H	-0.069656	0.005795	-0.040090
	H281	H	-0.077269	0.027934	-0.042767
	O282	O	-0.048199	0.026760	0.993489
	H283	H	-0.046950	0.028212	0.989542
	H284	H	-0.042452	0.025508	0.996655
	O285	O	0.531623	0.471009	0.480022
	H286	H	0.526349	0.478137	0.466844
	H287	H	0.538072	0.465491	0.479265
	O288	O	0.489097	0.510139	0.454618
	H289	H	0.482276	0.501710	0.459805
	H290	H	0.492992	0.511048	0.463080
	O291	O	0.490367	0.551885	0.444697
	H292	H	0.489719	0.560261	0.445668
	H293	H	0.491051	0.553695	0.448277
	O294	O	0.007529	0.059414	-0.023180
	H295	H	0.003849	0.056663	-0.028390
	H296	H	0.001359	0.068347	-0.030022
	O297	O	0.494583	0.480928	0.486264
	H298	H	0.485846	0.492462	0.477715
	H299	H	0.501184	0.484018	0.483742
	O300	O	0.001909	1.057031	1.013108
	H301	H	0.009749	1.059583	1.012774
	H302	H	0.001593	1.058830	1.013338
	O303	O	0.479198	0.469444	0.437674
	H304	H	0.481890	0.464702	0.438058
	H305	H	0.477261	0.465688	0.437969
	O306	O	0.006341	0.047346	0.973682
	H307	H	0.002808	0.049229	0.973259
	H308	H	0.010519	0.047258	0.975209
	O309	O	0.956670	1.003536	0.976737
	H310	H	0.952319	0.998370	0.975957
	H311	H	0.958146	0.996037	0.970151
	O312	O	0.448198	0.438802	0.459156
	H313	H	0.442854	0.440587	0.458284
	H314	H	0.446823	0.437006	0.455965
	O315	O	0.512999	0.479804	0.455627
	H316	H	0.515444	0.473798	0.451776
	H317	H	0.524636	0.472089	0.453649
	O318	O	-0.036511	1.018181	-0.008729
	H319	H	-0.038122	1.018037	-0.003181
	H320	H	-0.039273	1.025058	-0.006591
	O321	O	1.040245	1.053610	0.052128
	H322	H	1.040323	1.059714	0.051640
	H323	H	1.042599	1.051258	0.049227
