data_Molecule from HDF5

_cell_length_a		16.686527
_cell_length_b		16.609854
_cell_length_c		16.660434
_cell_angle_alpha	89.939401
_cell_angle_beta	89.971815
_cell_angle_gamma	90.080260
_symmetry_space_group_name_H-M	'P 1'
_symmetry_Int_Tables_number		1

loop_
	_symmetry_equiv_pos_as_xyz
	x,y,z

loop_
	_atom_site_label
	_atom_site_type_symbol
	_atom_site_fract_x
	_atom_site_fract_y
	_atom_site_fract_z
	H0	H	0.400365	0.854303	0.708934
	H1	H	0.606181	0.167475	0.704940
	H2	H	0.605104	0.850669	0.272018
	H3	H	0.398135	0.164078	0.265814
	H4	H	0.724131	0.407507	0.834229
	H5	H	0.725914	0.616563	0.143676
	H6	H	0.284262	0.613527	0.832398
	H7	H	0.282004	0.403145	0.143384
	H8	H	0.849283	0.729536	0.386614
	H9	H	0.159861	0.729886	0.594988
	H10	H	0.847994	0.291168	0.589197
	H11	H	0.161398	0.291388	0.386758
	H12	H	0.847876	0.405891	0.707050
	H13	H	0.160866	0.611781	0.708759
	H14	H	0.850060	0.616125	0.267902
	H15	H	0.160732	0.407881	0.270361
	H16	H	0.402300	0.728010	0.831730
	H17	H	0.609706	0.732549	0.143119
	H18	H	0.608019	0.291167	0.833437
	H19	H	0.400796	0.289404	0.144239
	H20	H	0.721695	0.851187	0.387468
	H21	H	0.720797	0.167605	0.587808
	H22	H	0.283668	0.855026	0.594172
	H23	H	0.283492	0.165030	0.383073
	H24	H	0.898672	0.354631	0.211246
	H25	H	0.109459	0.666016	0.209654
	H26	H	0.106152	0.352112	0.770678
	H27	H	0.902866	0.666144	0.769981
	H28	H	0.229889	0.900429	0.337079
	H29	H	0.224057	0.112706	0.644975
	H30	H	0.787060	0.111100	0.330932
	H31	H	0.788222	0.909098	0.646446
	H32	H	0.349769	0.230801	0.884571
	H33	H	0.659857	0.229065	0.092823
	H34	H	0.348337	0.788856	0.091447
	H35	H	0.658622	0.789410	0.884782
	H36	H	0.348387	0.903759	0.209299
	H37	H	0.659124	0.113916	0.209557
	H38	H	0.349850	0.115238	0.767803
	H39	H	0.660080	0.907837	0.770425
	H40	H	0.903734	0.227070	0.330866
	H41	H	0.106035	0.227626	0.645312
	H42	H	0.112607	0.785640	0.336883
	H43	H	0.904791	0.794283	0.647717
	H44	H	0.223999	0.353390	0.885515
	H45	H	0.225771	0.664594	0.093475
	H46	H	0.783111	0.355001	0.094841
	H47	H	0.788476	0.667286	0.888230
	H48	H	0.410612	0.123342	0.577113
	H49	H	0.597281	0.894548	0.585141
	H50	H	0.597755	0.123425	0.393364
	H51	H	0.419081	0.899640	0.402553
	H52	H	0.592796	0.424221	0.098980
	H53	H	0.590902	0.605310	0.877419
	H54	H	0.414536	0.599326	0.099121
	H55	H	0.414123	0.424453	0.878812
	H56	H	0.114980	0.599032	0.403835
	H57	H	0.893575	0.598789	0.581851
	H58	H	0.118033	0.412850	0.579342
	H59	H	0.891614	0.414052	0.399684
	H60	H	0.114401	0.421595	0.577955
	H61	H	0.891718	0.602241	0.580633
	H62	H	0.114441	0.595036	0.401109
	H63	H	0.894911	0.421867	0.402966
	H64	H	0.413567	0.597068	0.099904
	H65	H	0.601804	0.598365	0.875221
	H66	H	0.592037	0.415026	0.102685
	H67	H	0.417983	0.417664	0.877896
	H68	H	0.590199	0.119430	0.398253
	H69	H	0.592903	0.897886	0.579315
	H70	H	0.417235	0.123085	0.582889
	H71	H	0.413532	0.898819	0.402321
	H72	H	0.912419	0.625177	0.085916
	H73	H	0.086278	0.398177	0.084141
	H74	H	0.094624	0.621185	0.899074
	H75	H	0.914175	0.396476	0.898376
	H76	H	0.100329	0.925123	0.601737
	H77	H	0.103232	0.094760	0.375774
	H78	H	0.914697	0.095550	0.598343
	H79	H	0.910924	0.914619	0.375492
	H80	H	0.618026	0.104259	0.897904
	H81	H	0.393368	0.098283	0.077851
	H82	H	0.613588	0.926013	0.079829
	H83	H	0.391903	0.917978	0.899139
	H84	H	0.617547	0.916652	0.083497
	H85	H	0.393207	0.097403	0.077352
	H86	H	0.614479	0.098279	0.901794
	H87	H	0.394360	0.921827	0.900011
	H88	H	0.915743	0.105776	0.600991
	H89	H	0.089027	0.095872	0.380655
	H90	H	0.088551	0.926032	0.598232
	H91	H	0.911392	0.922911	0.377303
	H92	H	0.095016	0.622008	0.897695
	H93	H	0.090878	0.401594	0.070548
	H94	H	0.922728	0.619364	0.078754
	H95	H	0.911795	0.396845	0.899513
	H96	H	0.418318	0.120207	0.574460
	H97	H	0.600659	0.896732	0.578611
	H98	H	0.598601	0.120073	0.402679
	H99	H	0.416515	0.897370	0.398386
	H100	H	0.599773	0.420265	0.104247
	H101	H	0.591334	0.592644	0.880939
	H102	H	0.415654	0.597214	0.098742
	H103	H	0.411009	0.418557	0.875879
	H104	H	0.116034	0.599150	0.399257
	H105	H	0.893305	0.599593	0.578239
	H106	H	0.118362	0.419144	0.586416
	H107	H	0.892106	0.421229	0.394683
	H108	H	0.910609	0.621453	0.072299
	H109	H	0.100146	0.394989	0.080339
	H110	H	0.093876	0.621382	0.898108
	H111	H	0.912313	0.396204	0.896996
	H112	H	0.092757	0.915522	0.602061
	H113	H	0.096123	0.107367	0.374135
	H114	H	0.906201	0.101235	0.602278
	H115	H	0.918021	0.917523	0.379372
	H116	H	0.616641	0.097824	0.894076
	H117	H	0.393566	0.097586	0.078150
	H118	H	0.614117	0.917508	0.072966
	H119	H	0.391447	0.921581	0.896668
	C120	C	0.383747	0.018959	0.609906
	C121	C	0.626327	1.000978	0.610131
	C122	C	0.625740	0.016890	0.367456
	C123	C	0.383526	1.001066	0.367965
	C124	C	0.626221	0.388580	-0.001434
	C125	C	0.626338	0.631656	0.980314
	C126	C	0.383475	0.629614	-0.003782
	C127	C	0.382629	0.388075	0.980395
	C128	C	0.012806	0.630732	0.369107
	C129	C	0.996142	0.630567	0.611202
	C130	C	0.012961	0.387693	0.610776
	C131	C	0.996064	0.388382	0.367766
	C132	C	0.883131	0.518982	0.111286
	C133	C	0.124920	0.501368	0.110184
	C134	C	0.125548	0.517961	0.867423
	C135	C	0.883351	0.501206	0.868200
	C136	C	0.126814	0.888414	0.498744
	C137	C	0.126276	0.130410	0.480384
	C138	C	0.882568	0.131014	0.496480
	C139	C	0.883807	0.888506	0.481258
	C140	C	0.513370	0.131699	0.866882
	C141	C	0.495901	0.129972	0.109853
	C142	C	0.512514	0.887267	0.110203
	C143	C	0.495556	0.889014	0.867183
	C144	C	0.381837	0.901588	0.669347
	C145	C	0.625221	0.119984	0.666089
	C146	C	0.624925	0.898285	0.310365
	C147	C	0.380461	0.117721	0.306691
	C148	C	0.684798	0.388203	0.881103
	C149	C	0.685983	0.634747	0.096986
	C150	C	0.324363	0.631714	0.878958
	C151	C	0.322622	0.385296	0.096952
	C152	C	0.896119	0.690405	0.367542
	C153	C	0.113412	0.689387	0.612715
	C154	C	0.895016	0.330038	0.609545
	C155	C	0.114151	0.330544	0.367364
	C156	C	0.895074	0.387083	0.667943
	C157	C	0.113772	0.630634	0.669380
	C158	C	0.896491	0.633858	0.308632
	C159	C	0.113912	0.388521	0.309653
	C160	C	0.383110	0.688505	0.878622
	C161	C	0.627930	0.692029	0.096956
	C162	C	0.626926	0.330504	0.880780
	C163	C	0.381428	0.328760	0.097395
	C164	C	0.682866	0.898481	0.367697
	C165	C	0.682461	0.119965	0.607942
	C166	C	0.323856	0.901671	0.612194
	C167	C	0.323347	0.118033	0.364800
	C168	C	0.880780	0.401634	0.171157
	C169	C	0.127580	0.618871	0.169587
	C170	C	0.126014	0.399612	0.809302
	C171	C	0.883479	0.619273	0.809587
	C172	C	0.188524	0.883597	0.383023
	C173	C	0.184340	0.131379	0.598184
	C174	C	0.826180	0.130003	0.378073
	C175	C	0.826898	0.889607	0.599454
	C176	C	0.396393	0.190977	0.865574
	C177	C	0.612983	0.189540	0.111322
	C178	C	0.395173	0.828035	0.110966
	C179	C	0.612318	0.829678	0.866160
	C180	C	0.395225	0.885278	0.169271
	C181	C	0.612622	0.132204	0.169526
	C182	C	0.396337	0.133456	0.807721
	C183	C	0.612892	0.888145	0.809078
	C184	C	0.884091	0.187821	0.378140
	C185	C	0.125890	0.188324	0.598346
	C186	C	0.130261	0.826481	0.383032
	C187	C	0.885043	0.832540	0.599976
	C188	C	0.184055	0.399908	0.866521
	C189	C	0.185505	0.618365	0.111989
	C190	C	0.823152	0.401676	0.113481
	C191	C	0.826835	0.619946	0.868275
	C192	C	0.408416	0.100869	0.585108
	C193	C	0.603361	0.917984	0.587544
	C194	C	0.602214	0.099564	0.391108
	C195	C	0.409096	0.919760	0.393655
	C196	C	0.601836	0.412697	0.080725
	C197	C	0.601643	0.606153	0.899014
	C198	C	0.407614	0.604864	0.077944
	C199	C	0.407310	0.413002	0.898816
	C200	C	0.094048	0.605030	0.394199
	C201	C	0.914028	0.606954	0.587151
	C202	C	0.095486	0.411169	0.587770
	C203	C	0.914239	0.412103	0.392131
	C204	C	0.908160	0.600693	0.086252
	C205	C	0.099617	0.419642	0.085425
	C206	C	0.101583	0.600028	0.891441
	C207	C	0.906264	0.418185	0.891550
	C208	C	0.101152	0.914674	0.579621
	C209	C	0.102624	0.106315	0.398162
	C210	C	0.905642	0.107685	0.579218
	C211	C	0.906924	0.911689	0.398700
	C212	C	0.595104	0.107352	0.891059
	C213	C	0.414506	0.104916	0.084881
	C214	C	0.593895	0.912738	0.085841
	C215	C	0.413710	0.913327	0.891693
	Zn216	Zn	0.504572	0.010378	0.738296
	Zn217	Zn	0.504075	0.008454	0.239001
	Zn218	Zn	0.754905	0.510773	-0.010426
	Zn219	Zn	0.253749	0.509259	-0.011303
	Zn220	Zn	0.004842	0.759928	0.490395
	Zn221	Zn	0.004843	0.259009	0.488913
	Zn222	Zn	0.004163	0.508759	0.739535
	Zn223	Zn	0.004576	0.510339	0.239511
	Zn224	Zn	0.503952	0.759161	-0.011590
	Zn225	Zn	0.504356	0.259718	-0.010783
	Zn226	Zn	0.754393	0.008803	0.488126
	Zn227	Zn	0.254956	0.009957	0.489042
	N228	N	0.418545	0.975483	0.668023
	N229	N	0.591522	0.044715	0.668195
	N230	N	0.590310	0.973164	0.309803
	N231	N	0.417299	0.043987	0.308536
	N232	N	0.684625	0.423628	0.955497
	N233	N	0.685131	0.597889	0.023324
	N234	N	0.324283	0.595763	0.953124
	N235	N	0.323062	0.421506	0.022905
	N236	N	0.969757	0.688892	0.404365
	N237	N	0.039202	0.689674	0.577278
	N238	N	0.969571	0.329986	0.574710
	N239	N	0.039752	0.329893	0.402561
	N240	N	0.969516	0.421981	0.668968
	N241	N	0.039646	0.594905	0.668872
	N242	N	0.970185	0.597492	0.309399
	N243	N	0.039372	0.423463	0.309562
	N244	N	0.419026	0.687520	0.952682
	N245	N	0.591655	0.690495	0.023351
	N246	N	0.591323	0.330369	0.955023
	N247	N	0.418089	0.330429	0.023834
	N248	N	0.683721	0.973428	0.402330
	N249	N	0.683815	0.044670	0.574241
	N250	N	0.324901	0.975773	0.575799
	N251	N	0.325167	0.044509	0.402399
	N252	N	0.917342	0.475600	0.169984
	N253	N	0.090767	0.545024	0.168737
	N254	N	0.090611	0.474055	0.809396
	N255	N	0.917643	0.544121	0.809114
	N256	N	0.186544	0.921366	0.456063
	N257	N	0.184847	0.096308	0.523669
	N258	N	0.824937	0.095474	0.452958
	N259	N	0.825609	0.923563	0.524388
	N260	N	0.470205	0.190272	0.901620
	N261	N	0.539212	0.188386	0.074915
	N262	N	0.469312	0.828883	0.075289
	N263	N	0.538078	0.829898	0.901383
	N264	N	0.469395	0.921287	0.169235
	N265	N	0.538668	0.095922	0.169034
	N266	N	0.470241	0.097469	0.808260
	N267	N	0.539140	0.924202	0.809318
	N268	N	0.918410	0.188542	0.452990
	N269	N	0.090368	0.187893	0.524046
	N270	N	0.092541	0.829227	0.456056
	N271	N	0.919605	0.831538	0.525389
	N272	N	0.184195	0.474681	0.901688
	N273	N	0.184109	0.544150	0.075798
	N274	N	0.824374	0.475751	0.076831
	N275	N	0.826473	0.545326	0.903730
	O276	O	-0.212015	1.223209	-0.057034
	H277	H	-0.214474	1.223532	-0.037605
	H278	H	-0.223829	1.222845	-0.036063
	O279	O	0.545921	0.732388	0.710194
	H280	H	0.541641	0.750959	0.734408
	H281	H	0.545107	0.735152	0.699084
	O282	O	1.018490	0.044165	0.980851
	H283	H	1.012323	0.031512	0.978603
	H284	H	1.005309	0.056102	0.972745
	O285	O	0.529112	0.498440	0.313441
	H286	H	0.531229	0.507988	0.314570
	H287	H	0.513791	0.501431	0.309101
	O288	O	0.467865	0.728991	0.262978
	H289	H	0.476854	0.727593	0.244568
	H290	H	0.446207	0.737749	0.252518
	O291	O	0.671262	0.452225	0.305573
	H292	H	0.689923	0.447816	0.295132
	H293	H	0.665021	0.423919	0.307893
	O294	O	0.984291	0.193635	0.804656
	H295	H	0.949418	0.198528	0.804407
	H296	H	0.979523	0.209450	0.800336
	O297	O	0.285046	0.541207	0.268957
	H298	H	0.267928	0.547204	0.264306
	H299	H	0.280650	0.557047	0.263309
	O300	O	-0.231720	-0.024153	0.892065
	H301	H	-0.237209	-0.024209	0.888994
	H302	H	-0.233088	-0.035233	0.879118
	O303	O	0.568491	0.487295	0.700644
	H304	H	0.574787	0.492156	0.690181
	H305	H	0.583069	0.472717	0.703693
	O306	O	0.374977	0.538878	0.604300
	H307	H	0.376882	0.533440	0.592830
	H308	H	0.382277	0.540823	0.589977
	O309	O	0.506701	0.478932	0.685849
	H310	H	0.493351	0.462240	0.692149
	H311	H	0.512535	0.500767	0.691662
	O312	O	0.574301	0.496688	0.645128
	H313	H	0.565813	0.507160	0.644327
	H314	H	0.573920	0.512358	0.651685
	O315	O	0.677891	0.687169	1.291822
	H316	H	0.666632	0.661398	1.305566
	H317	H	0.675041	0.672497	1.307349
	O318	O	0.715485	0.540420	0.444027
	H319	H	0.692012	0.531211	0.445056
	H320	H	0.717987	0.537471	0.436199
	O321	O	-0.189587	0.818958	0.801095
	H322	H	-0.167526	0.834823	0.818103
	H323	H	-0.171872	0.835382	0.824026
	O324	O	0.832863	0.797527	0.203995
	H325	H	0.871221	0.785132	0.215638
	H326	H	0.806218	0.771831	0.224657
	O327	O	0.012866	0.023218	1.213827
	H328	H	0.004623	0.029496	1.208653
	H329	H	0.004751	0.028633	1.209915
	O330	O	0.699745	0.488715	0.567413
	H331	H	0.696182	0.503640	0.550613
	H332	H	0.695381	0.485767	0.577415
	O333	O	0.712024	0.304836	0.281539
	H334	H	0.674528	0.312437	0.274862
	H335	H	0.728110	0.286057	0.278989
	O336	O	0.477606	0.717436	0.488403
	H337	H	0.502395	0.710661	0.484231
	H338	H	0.491793	0.720789	0.474868
	O339	O	0.957413	-0.106562	1.000376
	H340	H	0.964417	-0.088634	1.003596
	H341	H	0.963413	-0.117233	0.991075
	O342	O	0.168916	-0.162738	0.185384
	H343	H	0.146026	-0.139905	0.176901
	H344	H	0.164525	-0.147138	0.170060
	O345	O	0.064807	0.794978	1.035470
	H346	H	0.070548	0.793630	1.050366
	H347	H	0.043252	0.796071	1.028234
	O348	O	0.217798	0.220894	0.199706
	H349	H	0.193003	0.228962	0.177986
	H350	H	0.249146	0.254030	0.230474
	O351	O	0.279567	0.283113	0.715375
	H352	H	0.249990	0.257328	0.747946
	H353	H	0.280980	0.309195	0.720672
	O354	O	-0.225207	0.072066	1.031288
	H355	H	-0.213247	0.060967	1.015625
	H356	H	-0.233390	0.048878	1.027909
	O357	O	0.439118	0.662989	0.576622
	H358	H	0.452143	0.671723	0.571953
	H359	H	0.430520	0.667394	0.563855
	O360	O	0.726155	0.285246	0.448176
	H361	H	0.748704	0.268852	0.453389
	H362	H	0.725340	0.288354	0.424375
	O363	O	0.229246	-0.053586	0.048391
	H364	H	0.235145	-0.034333	0.056441
	H365	H	0.223246	-0.058703	0.042895
	O366	O	0.540407	0.292098	0.273168
	H367	H	0.522336	0.285736	0.299558
	H368	H	0.536052	0.267297	0.254101
	O369	O	0.836934	0.200428	0.164267
	H370	H	0.855638	0.191592	0.149293
	H371	H	0.828548	0.189933	0.154225
	O372	O	1.222567	1.226753	0.019857
	H373	H	1.221623	1.237143	0.027302
	H374	H	1.233571	1.223895	0.013886
	O375	O	1.059440	-0.059376	0.194336
	H376	H	1.062862	-0.042673	0.200333
	H377	H	1.062837	-0.049721	0.202287
	O378	O	0.475510	0.381820	0.336730
	H379	H	0.464049	0.377779	0.350762
	H380	H	0.472971	0.385616	0.346840
	O381	O	0.174724	1.163877	0.799101
	H382	H	0.168531	1.138920	0.816500
	H383	H	0.142589	1.162406	0.809505
	O384	O	1.242029	0.066932	0.940020
	H385	H	1.242198	0.058969	0.934203
	H386	H	1.238075	0.063904	0.926634
	O387	O	1.220474	0.794280	-0.048846
	H388	H	1.213220	0.794626	-0.042963
	H389	H	1.233416	0.786716	-0.050447
	O390	O	0.546431	0.508477	0.268326
	H391	H	0.552348	0.500085	0.269040
	H392	H	0.554713	0.503050	0.267212
	O393	O	0.359784	0.360836	0.428441
	H394	H	0.354081	0.355421	0.454957
	H395	H	0.361171	0.364018	0.442996
	O396	O	0.306528	0.707689	0.685652
	H397	H	0.315650	0.703623	0.669792
	H398	H	0.326434	0.697337	0.675196
	O399	O	0.220599	-0.020148	0.781316
	H400	H	0.215779	-0.021630	0.763198
	H401	H	0.215885	-0.038288	0.769680
	O402	O	0.286197	0.287691	0.524105
	H403	H	0.277475	0.280479	0.556834
	H404	H	0.268808	0.276821	0.535936
	O405	O	0.693280	-0.677918	1.681056
	H406	H	0.667736	-0.648827	1.678281
	H407	H	0.682935	-0.667540	1.645698
	O408	O	0.224135	0.050829	0.195373
	H409	H	0.250823	0.063736	0.221126
	H410	H	0.220240	0.086303	0.185708
	O411	O	0.715267	0.719673	0.699229
	H412	H	0.684375	0.702951	0.709344
	H413	H	0.745506	0.752499	0.733814
	O414	O	0.819522	0.067431	0.800065
	H415	H	0.813800	0.085705	0.803628
	H416	H	0.807191	0.088221	0.787486
	O417	O	0.592008	0.710155	0.421957
	H418	H	0.589180	0.693316	0.409175
	H419	H	0.620381	0.717137	0.436140
	O420	O	0.285520	0.470487	0.710224
	H421	H	0.263147	0.480637	0.727435
	H422	H	0.282274	0.472945	0.693730
	O423	O	-0.213071	-0.056489	1.206884
	H424	H	-0.220485	-0.075759	1.212283
	H425	H	-0.226745	-0.064336	1.215952
	O426	O	0.317641	0.324221	0.298632
	H427	H	0.330667	0.344655	0.318682
	H428	H	0.338498	0.338895	0.317465
	O429	O	0.781486	0.795379	1.021450
	H430	H	0.789433	0.802571	1.052816
	H431	H	0.758794	0.765768	1.032848
	O432	O	0.285959	0.555468	0.502707
	H433	H	0.286820	0.565202	0.506597
	H434	H	0.295779	0.565093	0.488450
	O435	O	0.043973	1.075920	-0.111055
	H436	H	0.045072	1.083871	-0.120799
	H437	H	0.033604	1.071433	-0.118225
	O438	O	0.037059	0.033020	-0.018100
	H439	H	0.050285	0.040327	-0.018485
	H440	H	0.038281	0.032369	-0.027305
	O441	O	0.043293	0.233252	0.211833
	H442	H	0.037465	0.240803	0.222807
	H443	H	0.053051	0.233799	0.227672
	O444	O	0.503151	0.492241	0.517324
	H445	H	0.499089	0.501902	0.510912
	H446	H	0.493763	0.487907	0.508965
	O447	O	-0.131800	0.999194	1.117769
	H448	H	-0.151781	1.000378	1.097973
	H449	H	-0.132194	0.991535	1.121828
	O450	O	0.060825	0.826036	0.817843
	H451	H	0.054060	0.817347	0.809105
	H452	H	0.075306	0.815309	0.811392
	O453	O	0.537658	0.294085	0.538555
	H454	H	0.543839	0.291543	0.557919
	H455	H	0.529359	0.302957	0.549594
	O456	O	0.076998	0.219401	0.940724
	H457	H	0.070345	0.208519	0.946202
	H458	H	0.069087	0.224083	0.952662
	O459	O	0.283230	0.726442	0.467624
	H460	H	0.301945	0.730514	0.453846
	H461	H	0.263307	0.752114	0.461135
	O462	O	0.793529	0.221096	0.776354
	H463	H	0.786137	0.229876	0.830766
	H464	H	0.759408	0.256103	0.748167
	O465	O	0.989038	-0.209894	0.149486
	H466	H	1.015190	-0.204193	0.153355
	H467	H	0.994093	-0.208097	0.153481
	O468	O	0.298772	0.709768	0.282205
	H469	H	0.319107	0.712960	0.301487
	H470	H	0.273243	0.722644	0.257485
	O471	O	0.501617	0.581000	0.428488
	H472	H	0.511046	0.590446	0.439232
	H473	H	0.509259	0.570725	0.429251
	O474	O	-0.035739	0.880036	-0.213999
	H475	H	-0.025745	0.875955	-0.213175
	H476	H	-0.039816	0.885934	-0.224516
	O477	O	0.688265	0.466786	1.614187
	H478	H	0.703852	0.470849	1.607985
	H479	H	0.680083	0.473599	1.617930
	O480	O	0.414770	0.484127	0.457348
	H481	H	0.416826	0.484122	0.457469
	H482	H	0.406691	0.494445	0.460444
	O483	O	0.472001	0.288236	0.709789
	H484	H	0.463013	0.272178	0.729076
	H485	H	0.447695	0.292205	0.716686
	O486	O	1.207823	-0.189363	0.780113
	H487	H	1.231274	-0.212894	0.756014
	H488	H	1.199536	-0.186089	0.807148
	O489	O	0.919061	0.828988	-0.043005
	H490	H	0.916635	0.825342	-0.031289
	H491	H	0.929850	0.841521	-0.046617
	O492	O	-0.024723	0.121476	-0.006374
	H493	H	-0.015781	0.113278	-0.001033
	H494	H	-0.019667	0.117234	-0.003722
	O495	O	-0.018263	1.018712	0.765062
	H496	H	-0.027155	1.043691	0.765762
	H497	H	-0.045584	1.019819	0.764376
	O498	O	0.954225	1.227794	1.041282
	H499	H	0.964516	1.215113	1.039895
	H500	H	0.968964	1.227504	1.055852
	O501	O	0.730659	0.731160	0.529457
	H502	H	0.727651	0.729509	0.570148
	H503	H	0.755602	0.759063	0.540278
