data_Molecule from HDF5

_cell_length_a		16.200893
_cell_length_b		16.164017
_cell_length_c		16.391845
_cell_angle_alpha	90.422946
_cell_angle_beta	89.990485
_cell_angle_gamma	90.074312
_symmetry_space_group_name_H-M	'P 1'
_symmetry_Int_Tables_number		1

loop_
	_symmetry_equiv_pos_as_xyz
	x,y,z

loop_
	_atom_site_label
	_atom_site_type_symbol
	_atom_site_fract_x
	_atom_site_fract_y
	_atom_site_fract_z
	H0	H	0.396593	0.840465	0.710849
	H1	H	0.599569	0.167990	0.712023
	H2	H	0.596260	0.841152	0.276754
	H3	H	0.394815	0.168234	0.280811
	H4	H	0.713233	0.405211	0.833561
	H5	H	0.713324	0.607384	0.158965
	H6	H	0.280535	0.604478	0.833430
	H7	H	0.281205	0.407704	0.158093
	H8	H	0.831654	0.713021	0.401412
	H9	H	0.161145	0.717608	0.594377
	H10	H	0.832469	0.289899	0.592602
	H11	H	0.161743	0.288059	0.396336
	H12	H	0.834368	0.402367	0.711941
	H13	H	0.161253	0.605127	0.711976
	H14	H	0.834148	0.604143	0.281060
	H15	H	0.160462	0.400621	0.278152
	H16	H	0.400739	0.717267	0.831729
	H17	H	0.596515	0.723105	0.158264
	H18	H	0.598034	0.287631	0.833637
	H19	H	0.395581	0.289041	0.157827
	H20	H	0.707584	0.838215	0.396048
	H21	H	0.712063	0.168046	0.594057
	H22	H	0.284857	0.837483	0.591017
	H23	H	0.282101	0.167933	0.398303
	H24	H	0.895169	0.340219	0.211599
	H25	H	0.098623	0.667573	0.214998
	H26	H	0.100159	0.340686	0.779040
	H27	H	0.896861	0.667211	0.781024
	H28	H	0.212872	0.901009	0.332015
	H29	H	0.212973	0.103422	0.657189
	H30	H	0.781778	0.099676	0.332121
	H31	H	0.779189	0.903500	0.657166
	H32	H	0.332989	0.218535	0.897707
	H33	H	0.661644	0.220908	0.095116
	H34	H	0.332792	0.792529	0.091003
	H35	H	0.662527	0.792038	0.896414
	H36	H	0.333978	0.903892	0.210030
	H37	H	0.660268	0.108894	0.213527
	H38	H	0.333878	0.105617	0.780151
	H39	H	0.660494	0.902984	0.777952
	H40	H	0.896323	0.218203	0.332666
	H41	H	0.097327	0.219625	0.657326
	H42	H	0.093769	0.786415	0.332447
	H43	H	0.899277	0.790967	0.659221
	H44	H	0.212217	0.340547	0.896472
	H45	H	0.209975	0.670157	0.095053
	H46	H	0.783431	0.339339	0.093347
	H47	H	0.786736	0.670045	0.901103
	H48	H	0.411017	0.119735	0.591318
	H49	H	0.590663	0.886748	0.583940
	H50	H	0.579520	0.118639	0.405484
	H51	H	0.406155	0.883886	0.391781
	H52	H	0.583699	0.397157	0.114972
	H53	H	0.593418	0.592717	0.881792
	H54	H	0.401840	0.605965	0.113725
	H55	H	0.402719	0.416962	0.881487
	H56	H	0.114191	0.591834	0.405862
	H57	H	0.877740	0.602021	0.589026
	H58	H	0.115782	0.407249	0.588855
	H59	H	0.881245	0.413792	0.402887
	H60	H	0.112798	0.414572	0.583608
	H61	H	0.882486	0.590293	0.587046
	H62	H	0.114842	0.593813	0.401725
	H63	H	0.879999	0.409819	0.401007
	H64	H	0.400194	0.596292	0.111578
	H65	H	0.588190	0.600087	0.880771
	H66	H	0.606190	0.419437	0.114940
	H67	H	0.409911	0.411947	0.882515
	H68	H	0.595356	0.120073	0.410572
	H69	H	0.587585	0.885587	0.592225
	H70	H	0.404032	0.119251	0.581260
	H71	H	0.411874	0.890015	0.404161
	H72	H	0.912496	0.619160	0.088184
	H73	H	0.077412	0.394618	0.076047
	H74	H	0.081082	0.620150	0.902355
	H75	H	0.905013	0.386058	0.899838
	H76	H	0.084230	0.914677	0.607805
	H77	H	0.089710	0.088395	0.381265
	H78	H	0.906969	0.094821	0.608770
	H79	H	0.904360	0.906473	0.380480
	H80	H	0.610327	0.086922	0.908430
	H81	H	0.380512	0.098823	0.086258
	H82	H	0.616258	0.911333	0.090359
	H83	H	0.381325	0.918012	0.898275
	H84	H	0.613905	0.914159	0.084011
	H85	H	0.381940	0.092974	0.087350
	H86	H	0.617029	0.094649	0.892239
	H87	H	0.377060	0.906705	0.897392
	H88	H	0.903762	0.099224	0.611402
	H89	H	0.082919	0.097584	0.379919
	H90	H	0.091535	0.901463	0.612935
	H91	H	0.900311	0.905471	0.377779
	H92	H	0.092234	0.621075	0.911196
	H93	H	0.107747	0.383355	0.083330
	H94	H	0.900136	0.622163	0.088558
	H95	H	0.908497	0.387577	0.903120
	H96	H	0.399466	0.123626	0.592318
	H97	H	0.582152	0.888513	0.585281
	H98	H	0.591596	0.125027	0.395696
	H99	H	0.397081	0.885051	0.404312
	H100	H	0.578074	0.426251	0.103086
	H101	H	0.596939	0.600396	0.878050
	H102	H	0.409369	0.600284	0.109707
	H103	H	0.402803	0.407934	0.878277
	H104	H	0.113935	0.596364	0.405879
	H105	H	0.878039	0.593865	0.598391
	H106	H	0.114213	0.415228	0.592194
	H107	H	0.881238	0.410750	0.405428
	H108	H	0.907005	0.623140	0.098723
	H109	H	0.083810	0.383411	0.106047
	H110	H	0.093376	0.625187	0.898109
	H111	H	0.904177	0.387075	0.905102
	H112	H	0.098757	0.915578	0.612202
	H113	H	0.095482	0.098193	0.377283
	H114	H	0.902013	0.093248	0.610235
	H115	H	0.900814	0.909230	0.379322
	H116	H	0.615571	0.105485	0.908574
	H117	H	0.379950	0.097178	0.091251
	H118	H	0.614194	0.918688	0.090338
	H119	H	0.381897	0.910516	0.907434
	C120	C	0.375557	0.012294	0.616652
	C121	C	0.617561	0.995603	0.616351
	C122	C	0.617662	0.012742	0.373631
	C123	C	0.375609	0.995171	0.373097
	C124	C	0.619430	0.383553	0.004025
	C125	C	0.620801	0.628090	0.987937
	C126	C	0.375121	0.628150	0.004020
	C127	C	0.375525	0.383468	0.987465
	C128	C	0.005837	0.623170	0.375982
	C129	C	0.988209	0.625109	0.619293
	C130	C	0.006084	0.382548	0.616967
	C131	C	0.988996	0.381438	0.373889
	C132	C	0.876385	0.512724	0.118948
	C133	C	0.118749	0.495848	0.118080
	C134	C	0.118667	0.513092	0.874692
	C135	C	0.877056	0.495689	0.875238
	C136	C	0.119441	0.880473	0.503622
	C137	C	0.119196	0.124797	0.486415
	C138	C	0.874598	0.124643	0.502985
	C139	C	0.873796	0.879765	0.486812
	C140	C	0.505807	0.125509	0.874547
	C141	C	0.489039	0.126823	0.117676
	C142	C	0.506000	0.885377	0.115807
	C143	C	0.488862	0.883225	0.872862
	C144	C	0.377093	0.888974	0.672098
	C145	C	0.617908	0.119062	0.673017
	C146	C	0.615934	0.889582	0.316117
	C147	C	0.375842	0.118841	0.318392
	C148	C	0.675360	0.384755	0.882201
	C149	C	0.675831	0.627273	0.110174
	C150	C	0.319385	0.624516	0.881741
	C151	C	0.319539	0.386601	0.109925
	C152	C	0.881336	0.676969	0.379821
	C153	C	0.111931	0.680665	0.615835
	C154	C	0.882033	0.327217	0.613724
	C155	C	0.112485	0.325685	0.375706
	C156	C	0.882915	0.383188	0.672943
	C157	C	0.111921	0.624546	0.674311
	C158	C	0.882695	0.622726	0.320031
	C159	C	0.111936	0.381500	0.317032
	C160	C	0.378853	0.680913	0.880765
	C161	C	0.617160	0.684590	0.110018
	C162	C	0.617758	0.326544	0.882113
	C163	C	0.376669	0.327842	0.109640
	C164	C	0.670994	0.888037	0.375457
	C165	C	0.673952	0.119049	0.614442
	C166	C	0.321566	0.887398	0.612597
	C167	C	0.319881	0.118911	0.376978
	C168	C	0.876590	0.389143	0.173638
	C169	C	0.117871	0.619152	0.175545
	C170	C	0.118599	0.389614	0.818066
	C171	C	0.877861	0.618778	0.819769
	C172	C	0.174577	0.881233	0.380848
	C173	C	0.175029	0.123443	0.608687
	C174	C	0.819388	0.121054	0.380855
	C175	C	0.817743	0.882937	0.608908
	C176	C	0.382022	0.180954	0.876982
	C177	C	0.612260	0.183332	0.115760
	C178	C	0.382129	0.829773	0.112269
	C179	C	0.613121	0.828886	0.875772
	C180	C	0.382610	0.885242	0.171455
	C181	C	0.611406	0.127717	0.174982
	C182	C	0.382686	0.124754	0.818483
	C183	C	0.611960	0.884117	0.816787
	C184	C	0.876397	0.179860	0.381226
	C185	C	0.117767	0.181680	0.608599
	C186	C	0.115454	0.824225	0.381100
	C187	C	0.877481	0.827009	0.610020
	C188	C	0.174607	0.389628	0.876468
	C189	C	0.173383	0.620332	0.116130
	C190	C	0.820305	0.389009	0.115183
	C191	C	0.823175	0.620270	0.879579
	C192	C	0.397899	0.098389	0.594826
	C193	C	0.593769	0.909306	0.593745
	C194	C	0.595332	0.098993	0.397187
	C195	C	0.398367	0.908712	0.394058
	C196	C	0.596058	0.407330	0.088992
	C197	C	0.599072	0.604672	0.902227
	C198	C	0.397240	0.607043	0.089428
	C199	C	0.398364	0.405691	0.902873
	C200	C	0.092145	0.600530	0.398022
	C201	C	0.901801	0.602012	0.597768
	C202	C	0.092036	0.405556	0.594772
	C203	C	0.903103	0.404518	0.396262
	C204	C	0.899675	0.599181	0.097970
	C205	C	0.096338	0.409456	0.095172
	C206	C	0.095666	0.599636	0.897181
	C207	C	0.899317	0.409417	0.896428
	C208	C	0.097950	0.903680	0.588752
	C209	C	0.096254	0.101288	0.401457
	C210	C	0.897383	0.102313	0.588281
	C211	C	0.895493	0.900918	0.401379
	C212	C	0.592085	0.102439	0.896457
	C213	C	0.403067	0.103053	0.095071
	C214	C	0.592270	0.908164	0.094416
	C215	C	0.402579	0.905375	0.894572
	Zn216	Zn	0.497086	0.004809	0.745391
	Zn217	Zn	0.496979	0.005284	0.245759
	Zn218	Zn	0.749404	0.504985	-0.003011
	Zn219	Zn	0.246369	0.505452	-0.004302
	Zn220	Zn	-0.003224	0.751486	0.496247
	Zn221	Zn	-0.003001	0.253704	0.494886
	Zn222	Zn	-0.002095	0.503756	0.746596
	Zn223	Zn	-0.002322	0.503510	0.246933
	Zn224	Zn	0.498202	0.756457	-0.005340
	Zn225	Zn	0.497242	0.253961	-0.004487
	Zn226	Zn	0.745285	0.002712	0.494516
	Zn227	Zn	0.247948	0.002931	0.494503
	N228	N	0.409799	0.967560	0.674794
	N229	N	0.583425	0.041189	0.674226
	N230	N	0.583503	0.968132	0.315004
	N231	N	0.409617	0.040808	0.315949
	N232	N	0.676289	0.419660	0.959108
	N233	N	0.678076	0.592750	0.033101
	N234	N	0.316970	0.592495	0.959369
	N235	N	0.318506	0.420367	0.033269
	N236	N	0.958963	0.677433	0.413869
	N237	N	0.033936	0.681398	0.582558
	N238	N	0.959646	0.326638	0.579498
	N239	N	0.035128	0.325562	0.410289
	N240	N	0.961031	0.416743	0.675177
	N241	N	0.034017	0.590822	0.676567
	N242	N	0.961148	0.590125	0.317433
	N243	N	0.034070	0.415325	0.315573
	N244	N	0.413059	0.683147	0.957524
	N245	N	0.583721	0.685043	0.032908
	N246	N	0.583694	0.325744	0.958997
	N247	N	0.410927	0.325846	0.032722
	N248	N	0.672091	0.965672	0.410578
	N249	N	0.673834	0.041247	0.579899
	N250	N	0.320274	0.965129	0.578875
	N251	N	0.319299	0.040848	0.409971
	N252	N	0.910593	0.467176	0.176125
	N253	N	0.084672	0.540734	0.176879
	N254	N	0.084574	0.467572	0.816869
	N255	N	0.910939	0.540486	0.817131
	N256	N	0.177054	0.915559	0.457907
	N257	N	0.176271	0.088906	0.531625
	N258	N	0.818238	0.087479	0.457744
	N259	N	0.815143	0.915017	0.531449
	N260	N	0.459611	0.181632	0.910941
	N261	N	0.534941	0.183204	0.081141
	N262	N	0.459779	0.829602	0.078348
	N263	N	0.535522	0.828151	0.909917
	N264	N	0.460648	0.918947	0.173917
	N265	N	0.533524	0.093300	0.176340
	N266	N	0.460684	0.090924	0.816905
	N267	N	0.533801	0.917255	0.814655
	N268	N	0.910165	0.182043	0.458316
	N269	N	0.083679	0.182474	0.531718
	N270	N	0.082183	0.823422	0.458347
	N271	N	0.911416	0.824609	0.533170
	N272	N	0.174820	0.467584	0.910863
	N273	N	0.174220	0.542707	0.081173
	N274	N	0.820266	0.466861	0.081821
	N275	N	0.822419	0.542617	0.913337
	O276	O	-0.072993	0.032796	-0.006740
	H277	H	-0.072695	0.038048	-0.011830
	H278	H	-0.076178	0.030674	-0.006840
	O279	O	0.518700	0.542920	0.534246
	H280	H	0.521805	0.557670	0.532660
	H281	H	0.520093	0.538774	0.540643
	O282	O	0.497521	0.476042	0.441753
	H283	H	0.496796	0.482143	0.440456
	H284	H	0.505743	0.467760	0.439404
	O285	O	-0.005125	1.018598	0.966346
	H286	H	-0.008028	1.012367	0.962193
	H287	H	0.001890	1.026586	0.969522
	O288	O	0.526641	0.512660	0.436704
	H289	H	0.527394	0.505520	0.426336
	H290	H	0.533347	0.519585	0.437088
	O291	O	0.954816	1.056302	0.985310
	H292	H	0.957842	1.065654	0.996002
	H293	H	0.950527	1.054346	0.994299
	O294	O	0.947560	0.914442	1.013074
	H295	H	0.949247	0.903536	1.007151
	H296	H	0.952667	0.921001	0.998539
	O297	O	1.083904	0.005668	0.985542
	H298	H	1.091419	0.002396	0.987926
	H299	H	1.078385	0.013803	0.981999
	O300	O	0.474412	0.506453	0.536497
	H301	H	0.471269	0.508243	0.531467
	H302	H	0.478284	0.507182	0.532037
	O303	O	1.026553	0.035671	0.008658
	H304	H	1.022659	0.032330	0.007177
	H305	H	1.025439	0.038265	-0.004895
	O306	O	-0.048252	1.057772	0.966267
	H307	H	-0.052347	1.060231	0.961872
	H308	H	-0.048106	1.053061	0.967928
	O309	O	0.607010	0.409180	0.520080
	H310	H	0.608948	0.401523	0.499036
	H311	H	0.606271	0.383278	0.525582
	O312	O	1.074694	0.069671	1.008814
	H313	H	1.083950	0.065571	1.011949
	H314	H	1.071049	0.071414	1.000942
	O315	O	0.459421	0.468891	0.576198
	H316	H	0.459934	0.474366	0.565947
	H317	H	0.466902	0.469219	0.581623
	O318	O	0.412297	0.473389	0.574784
	H319	H	0.412699	0.468816	0.585759
	H320	H	0.410456	0.470267	0.579486
	O321	O	0.908936	0.973983	0.985152
	H322	H	0.914957	0.974096	0.990054
	H323	H	0.907180	0.969339	0.979591
	O324	O	0.471923	0.510812	0.429974
	H325	H	0.470124	0.516047	0.428678
	H326	H	0.470291	0.512067	0.437701
	O327	O	0.543271	0.503291	0.425443
	H328	H	0.540895	0.503879	0.422188
	H329	H	0.543411	0.502836	0.426717
	O330	O	1.136211	0.037579	0.981441
	H331	H	1.146861	0.040931	0.975324
	H332	H	1.131431	0.019605	0.992172
	O333	O	1.000910	0.930593	0.077278
	H334	H	1.008565	0.918210	0.082311
	H335	H	0.996713	0.938180	0.075159
	O336	O	0.466368	0.523804	0.558537
	H337	H	0.473001	0.522095	0.561592
	H338	H	0.455610	0.529181	0.551980
	O339	O	0.467321	0.470866	0.450425
	H340	H	0.448387	0.478122	0.453144
	H341	H	0.476085	0.461212	0.446631
	O342	O	0.076534	1.093967	0.083888
	H343	H	0.079414	1.093404	0.086973
	H344	H	0.078225	1.093628	0.082299
	O345	O	0.026694	-0.010021	0.046058
	H346	H	0.027398	-0.012824	0.048863
	H347	H	0.005276	-0.009762	0.048701
	O348	O	0.448697	0.386125	0.512268
	H349	H	0.445815	0.396504	0.513110
	H350	H	0.436385	0.387150	0.524905
	O351	O	0.553024	0.583384	0.541804
	H352	H	0.554226	0.586157	0.547041
	H353	H	0.556511	0.584038	0.549636
	O354	O	0.576635	0.571992	0.491651
	H355	H	0.576348	0.561364	0.489160
	H356	H	0.579410	0.569201	0.497605
	O357	O	0.028744	-0.072336	0.996153
	H358	H	0.024928	-0.076774	0.995505
	H359	H	0.018452	-0.064346	0.993241
	O360	O	-0.083939	-0.019017	-0.107967
	H361	H	-0.069398	-0.017456	-0.113268
	H362	H	-0.085153	-0.020012	-0.108313
	O363	O	0.441198	0.451592	0.431674
	H364	H	0.441615	0.454577	0.427104
	H365	H	0.439081	0.455109	0.425742
	O366	O	0.083823	-0.061487	0.873686
	H367	H	0.097071	-0.057068	0.879446
	H368	H	0.085462	-0.062482	0.869645
	O369	O	0.790033	0.756488	0.203793
	H370	H	0.776790	0.751180	0.200747
	H371	H	0.787696	0.758840	0.212559
