data_Molecule from HDF5

_cell_length_a		16.465229
_cell_length_b		16.382121
_cell_length_c		16.317177
_cell_angle_alpha	89.677307
_cell_angle_beta	90.040027
_cell_angle_gamma	90.012851
_symmetry_space_group_name_H-M	'P 1'
_symmetry_Int_Tables_number		1

loop_
	_symmetry_equiv_pos_as_xyz
	x,y,z

loop_
	_atom_site_label
	_atom_site_type_symbol
	_atom_site_fract_x
	_atom_site_fract_y
	_atom_site_fract_z
	H0	H	0.390525	0.843524	0.721247
	H1	H	0.598942	0.162859	0.716048
	H2	H	0.594947	0.840213	0.284371
	H3	H	0.393390	0.162053	0.278712
	H4	H	0.718269	0.399156	0.839066
	H5	H	0.716976	0.603377	0.159836
	H6	H	0.276698	0.609226	0.839341
	H7	H	0.277890	0.395571	0.158957
	H8	H	0.837598	0.721880	0.391996
	H9	H	0.154964	0.724620	0.602199
	H10	H	0.837337	0.283073	0.603605
	H11	H	0.156050	0.282537	0.396117
	H12	H	0.838486	0.399499	0.718922
	H13	H	0.156798	0.607036	0.717350
	H14	H	0.837870	0.604553	0.277294
	H15	H	0.157623	0.400173	0.282243
	H16	H	0.395641	0.722383	0.838189
	H17	H	0.599924	0.718328	0.160481
	H18	H	0.602899	0.284048	0.838699
	H19	H	0.396715	0.282233	0.159898
	H20	H	0.715739	0.842935	0.394292
	H21	H	0.718224	0.160524	0.603992
	H22	H	0.274638	0.843006	0.604541
	H23	H	0.274899	0.161762	0.391563
	H24	H	0.895874	0.341842	0.217816
	H25	H	0.101255	0.661081	0.217831
	H26	H	0.103992	0.342573	0.778060
	H27	H	0.893970	0.661875	0.775951
	H28	H	0.217104	0.897249	0.339190
	H29	H	0.219447	0.110858	0.656277
	H30	H	0.777182	0.105005	0.337589
	H31	H	0.772701	0.892765	0.657022
	H32	H	0.340936	0.227403	0.892202
	H33	H	0.656573	0.223099	0.106544
	H34	H	0.339573	0.778963	0.105750
	H35	H	0.656979	0.784109	0.895622
	H36	H	0.337428	0.896936	0.219437
	H37	H	0.656444	0.103804	0.220346
	H38	H	0.339300	0.111889	0.776357
	H39	H	0.654886	0.898493	0.777105
	H40	H	0.890810	0.223524	0.338871
	H41	H	0.099041	0.220063	0.659189
	H42	H	0.098958	0.784431	0.337714
	H43	H	0.888950	0.776968	0.656727
	H44	H	0.221638	0.343652	0.892927
	H45	H	0.220013	0.660645	0.105041
	H46	H	0.777278	0.342959	0.104723
	H47	H	0.777224	0.661923	0.891432
	H48	H	0.410831	0.114402	0.585643
	H49	H	0.585739	0.889890	0.581991
	H50	H	0.586221	0.116564	0.408573
	H51	H	0.410690	0.888164	0.404540
	H52	H	0.587423	0.413344	0.112860
	H53	H	0.593362	0.594945	0.882714
	H54	H	0.404205	0.590916	0.114823
	H55	H	0.399875	0.415265	0.881926
	H56	H	0.108859	0.594757	0.412125
	H57	H	0.884484	0.582567	0.595024
	H58	H	0.112397	0.402903	0.585476
	H59	H	0.880480	0.410309	0.402313
	H60	H	0.107757	0.415867	0.583606
	H61	H	0.881200	0.599917	0.586967
	H62	H	0.109195	0.590322	0.406827
	H63	H	0.883651	0.407392	0.414111
	H64	H	0.410258	0.585181	0.110664
	H65	H	0.587763	0.588898	0.885674
	H66	H	0.588728	0.410419	0.114183
	H67	H	0.413626	0.425347	0.890849
	H68	H	0.586081	0.116320	0.409981
	H69	H	0.587462	0.886872	0.591832
	H70	H	0.403621	0.115754	0.582125
	H71	H	0.406439	0.891864	0.418364
	H72	H	0.904581	0.616435	0.085734
	H73	H	0.084006	0.388329	0.091612
	H74	H	0.089168	0.615414	0.911811
	H75	H	0.910369	0.389527	0.909720
	H76	H	0.085245	0.910657	0.613500
	H77	H	0.082313	0.092102	0.384698
	H78	H	0.907970	0.091146	0.611739
	H79	H	0.896506	0.914394	0.382197
	H80	H	0.610999	0.090235	0.905708
	H81	H	0.384205	0.092305	0.089857
	H82	H	0.611102	0.910276	0.090565
	H83	H	0.386446	0.918557	0.912420
	H84	H	0.610425	0.911964	0.091495
	H85	H	0.385621	0.094487	0.084806
	H86	H	0.612622	0.096088	0.907975
	H87	H	0.381748	0.911493	0.906215
	H88	H	0.904373	0.093158	0.614304
	H89	H	0.085728	0.093098	0.383530
	H90	H	0.086030	0.917011	0.611126
	H91	H	0.909217	0.921147	0.388520
	H92	H	0.088106	0.615537	0.907442
	H93	H	0.090894	0.388458	0.084183
	H94	H	0.908784	0.617493	0.090500
	H95	H	0.907441	0.389636	0.911718
	H96	H	0.404517	0.116976	0.590247
	H97	H	0.577805	0.890111	0.589087
	H98	H	0.587664	0.116279	0.409284
	H99	H	0.396889	0.885292	0.408797
	H100	H	0.590687	0.413236	0.114018
	H101	H	0.585575	0.597023	0.883570
	H102	H	0.412730	0.593946	0.113330
	H103	H	0.417304	0.407044	0.884707
	H104	H	0.112245	0.596772	0.406376
	H105	H	0.889847	0.585982	0.576851
	H106	H	0.112705	0.412123	0.595918
	H107	H	0.885924	0.419292	0.409030
	H108	H	0.910087	0.614765	0.085363
	H109	H	0.093192	0.384720	0.093887
	H110	H	0.085118	0.613616	0.910355
	H111	H	0.907559	0.388220	0.908741
	H112	H	0.079955	0.914182	0.610582
	H113	H	0.085316	0.089684	0.384761
	H114	H	0.904193	0.089044	0.613006
	H115	H	0.910079	0.906394	0.382933
	H116	H	0.608944	0.091547	0.911682
	H117	H	0.386178	0.089544	0.085017
	H118	H	0.611592	0.910766	0.092624
	H119	H	0.384726	0.908666	0.916357
	C120	C	0.373441	0.011236	0.620521
	C121	C	0.616603	0.993899	0.619339
	C122	C	0.616895	0.010592	0.378336
	C123	C	0.373787	0.993789	0.377558
	C124	C	0.620324	0.381201	0.007734
	C125	C	0.619554	0.623554	0.990430
	C126	C	0.377170	0.623447	0.007474
	C127	C	0.378293	0.381950	0.991387
	C128	C	0.005212	0.624325	0.375994
	C129	C	0.989391	0.623008	0.618578
	C130	C	0.005931	0.379466	0.620760
	C131	C	0.988866	0.380998	0.377816
	C132	C	0.876851	0.510491	0.119653
	C133	C	0.120449	0.492703	0.121016
	C134	C	0.120234	0.509929	0.877447
	C135	C	0.876905	0.494490	0.877108
	C136	C	0.116035	0.882058	0.506338
	C137	C	0.116571	0.123194	0.489811
	C138	C	0.873817	0.123423	0.507169
	C139	C	0.873125	0.879874	0.489675
	C140	C	0.506284	0.125535	0.876411
	C141	C	0.489726	0.123217	0.119826
	C142	C	0.505724	0.879359	0.122485
	C143	C	0.488978	0.881375	0.878652
	C144	C	0.372047	0.891452	0.681254
	C145	C	0.617836	0.114583	0.677161
	C146	C	0.615478	0.888902	0.321973
	C147	C	0.373671	0.113964	0.317674
	C148	C	0.679168	0.380062	0.887240
	C149	C	0.677744	0.622988	0.111629
	C150	C	0.317436	0.626505	0.887059
	C151	C	0.318310	0.378293	0.111230
	C152	C	0.885217	0.682300	0.373977
	C153	C	0.107805	0.684285	0.620429
	C154	C	0.885616	0.322074	0.622170
	C155	C	0.108584	0.322195	0.377438
	C156	C	0.886228	0.380056	0.679791
	C157	C	0.108848	0.625836	0.677987
	C158	C	0.885523	0.624298	0.316454
	C159	C	0.109507	0.381127	0.320910
	C160	C	0.376274	0.683197	0.886543
	C161	C	0.619239	0.679768	0.112043
	C162	C	0.621511	0.322867	0.887038
	C163	C	0.377015	0.321524	0.111534
	C164	C	0.675344	0.890199	0.376833
	C165	C	0.677477	0.113255	0.621666
	C166	C	0.314060	0.891129	0.623378
	C167	C	0.315043	0.113930	0.374474
	C168	C	0.876207	0.389962	0.178898
	C169	C	0.120596	0.613286	0.178886
	C170	C	0.122334	0.390433	0.817777
	C171	C	0.875169	0.613977	0.816075
	C172	C	0.176847	0.879574	0.386828
	C173	C	0.178199	0.127057	0.609140
	C174	C	0.815550	0.124663	0.386159
	C175	C	0.812881	0.875378	0.609386
	C176	C	0.388017	0.187049	0.873805
	C177	C	0.609220	0.182557	0.123519
	C178	C	0.386981	0.819066	0.124036
	C179	C	0.608903	0.822983	0.876743
	C180	C	0.385668	0.878084	0.180649
	C181	C	0.608786	0.123947	0.181155
	C182	C	0.387057	0.129093	0.816450
	C183	C	0.607590	0.879919	0.817647
	C184	C	0.872191	0.183564	0.386788
	C185	C	0.118175	0.181692	0.610560
	C186	C	0.117695	0.823530	0.385855
	C187	C	0.870470	0.817432	0.608976
	C188	C	0.181069	0.391017	0.874990
	C189	C	0.179756	0.612906	0.122811
	C190	C	0.817462	0.390615	0.122397
	C191	C	0.816928	0.614039	0.873676
	C192	C	0.398827	0.094050	0.593929
	C193	C	0.591035	0.910671	0.594721
	C194	C	0.593332	0.094542	0.402231
	C195	C	0.397719	0.910113	0.403096
	C196	C	0.595922	0.405456	0.091846
	C197	C	0.595821	0.600437	0.905883
	C198	C	0.401826	0.597406	0.091175
	C199	C	0.403218	0.408243	0.907535
	C200	C	0.088372	0.600773	0.401017
	C201	C	0.906633	0.596932	0.593480
	C202	C	0.089302	0.403281	0.595614
	C203	C	0.905252	0.405289	0.401546
	C204	C	0.900848	0.594224	0.094579
	C205	C	0.096276	0.409039	0.096950
	C206	C	0.094798	0.593204	0.902706
	C207	C	0.901392	0.410858	0.902779
	C208	C	0.090929	0.906682	0.589984
	C209	C	0.091564	0.098655	0.406274
	C210	C	0.898384	0.098378	0.591154
	C211	C	0.898087	0.906303	0.406149
	C212	C	0.589050	0.099931	0.901231
	C213	C	0.406827	0.099005	0.093906
	C214	C	0.589280	0.904011	0.098519
	C215	C	0.405919	0.905789	0.904189
	Zn216	Zn	0.496193	0.002964	0.748802
	Zn217	Zn	0.496266	0.001896	0.249886
	Zn218	Zn	0.748176	0.502529	-0.001193
	Zn219	Zn	0.248351	0.502146	-0.000382
	Zn220	Zn	-0.004280	0.752908	0.497597
	Zn221	Zn	-0.003814	0.251160	0.498367
	Zn222	Zn	-0.001391	0.502233	0.748510
	Zn223	Zn	-0.002175	0.501800	0.248395
	Zn224	Zn	0.497994	0.752003	-0.000385
	Zn225	Zn	0.499193	0.253105	-0.001066
	Zn226	Zn	0.745856	0.001745	0.498182
	Zn227	Zn	0.244664	0.002605	0.498497
	N228	N	0.407804	0.967275	0.680101
	N229	N	0.580883	0.039461	0.676069
	N230	N	0.579618	0.964647	0.322765
	N231	N	0.409315	0.038039	0.319214
	N232	N	0.678664	0.415451	0.963348
	N233	N	0.678066	0.588844	0.034968
	N234	N	0.317475	0.590469	0.963461
	N235	N	0.318834	0.415074	0.035186
	N236	N	0.960628	0.682823	0.409960
	N237	N	0.032420	0.682594	0.584260
	N238	N	0.961005	0.321428	0.586177
	N239	N	0.032496	0.322147	0.412192
	N240	N	0.962216	0.414907	0.679082
	N241	N	0.034307	0.588228	0.676695
	N242	N	0.961171	0.589018	0.317581
	N243	N	0.034059	0.417144	0.321092
	N244	N	0.412689	0.681254	0.962393
	N245	N	0.583911	0.680447	0.035671
	N246	N	0.585686	0.323388	0.963108
	N247	N	0.413274	0.323752	0.035750
	N248	N	0.676266	0.966702	0.411123
	N249	N	0.676886	0.037082	0.586438
	N250	N	0.314650	0.966654	0.586402
	N251	N	0.314721	0.038101	0.410745
	N252	N	0.912765	0.465408	0.177231
	N253	N	0.084348	0.537771	0.177847
	N254	N	0.084983	0.465490	0.819392
	N255	N	0.911805	0.538588	0.818102
	N256	N	0.175722	0.915221	0.462876
	N257	N	0.177099	0.091209	0.533179
	N258	N	0.816397	0.088140	0.462177
	N259	N	0.814607	0.913439	0.534332
	N260	N	0.463169	0.185214	0.910341
	N261	N	0.534259	0.182253	0.086239
	N262	N	0.462575	0.820019	0.088352
	N263	N	0.533921	0.823830	0.913831
	N264	N	0.460671	0.914781	0.179864
	N265	N	0.533507	0.087739	0.178869
	N266	N	0.461660	0.091574	0.817801
	N267	N	0.531977	0.915537	0.818622
	N268	N	0.907483	0.183144	0.463160
	N269	N	0.080156	0.179200	0.535574
	N270	N	0.080460	0.824918	0.461225
	N271	N	0.907419	0.820220	0.533518
	N272	N	0.179764	0.466497	0.911172
	N273	N	0.179874	0.536911	0.087636
	N274	N	0.817812	0.466560	0.086245
	N275	N	0.818073	0.538594	0.910978
	O276	O	0.513806	0.662542	0.386686
	H277	H	0.506593	0.650905	0.401870
	H278	H	0.504704	0.677265	0.380123
	O279	O	0.423689	0.550535	0.535339
	H280	H	0.423457	0.552190	0.525550
	H281	H	0.415353	0.543618	0.552114
	O282	O	0.410335	0.553069	0.303752
	H283	H	0.412370	0.566556	0.300223
	H284	H	0.395239	0.551833	0.294224
	O285	O	0.963227	-0.010515	0.100291
	H286	H	0.971643	-0.012972	0.104887
	H287	H	0.960785	-0.018216	0.090299
	O288	O	-0.175804	0.124741	1.058182
	H289	H	-0.185883	0.119685	1.052496
	H290	H	-0.174912	0.121684	1.047431
	O291	O	0.494490	0.558134	0.459293
	H292	H	0.487280	0.563223	0.471771
	H293	H	0.493270	0.547039	0.474171
	O294	O	0.626789	0.470849	0.435417
	H295	H	0.629732	0.469187	0.445455
	H296	H	0.619881	0.481439	0.433271
	O297	O	1.072119	1.128046	0.834154
	H298	H	1.088949	1.129733	0.834531
	H299	H	1.079628	1.131883	0.849990
	O300	O	-0.011417	0.127976	0.158660
	H301	H	-0.016281	0.121531	0.140155
	H302	H	-0.002522	0.120537	0.173969
	O303	O	0.446794	0.632541	0.551126
	H304	H	0.425379	0.618391	0.568831
	H305	H	0.453374	0.643402	0.559653
	O306	O	0.832504	-0.170233	0.158369
	H307	H	0.826935	-0.142722	0.155062
	H308	H	0.852961	-0.173808	0.163998
	O309	O	0.548228	0.527660	0.539270
	H310	H	0.554039	0.535106	0.564764
	H311	H	0.547375	0.521764	0.544799
	O312	O	0.881789	0.788679	-0.058466
	H313	H	0.872313	0.787060	-0.045081
	H314	H	0.875882	0.775676	-0.052958
	O315	O	0.349771	0.372592	0.669450
	H316	H	0.377370	0.367202	0.659471
	H317	H	0.335074	0.358648	0.645947
	O318	O	0.535901	0.606370	0.662079
	H319	H	0.530460	0.598601	0.669912
	H320	H	0.536439	0.612243	0.665293
	O321	O	1.175791	0.209060	1.050406
	H322	H	1.184535	0.221811	1.057915
	H323	H	1.177696	0.205712	1.071321
	O324	O	-0.096813	-0.048399	0.833137
	H325	H	-0.097606	-0.032289	0.830004
	H326	H	-0.102398	-0.029256	0.836919
	O327	O	0.292004	0.446174	0.668245
	H328	H	0.293515	0.419729	0.673002
	H329	H	0.282405	0.424264	0.671117
	O330	O	0.342630	0.358149	0.486252
	H331	H	0.338463	0.348248	0.476708
	H332	H	0.356283	0.352468	0.477895
	O333	O	0.935038	0.925765	0.942987
	H334	H	0.930976	0.926772	0.940217
	H335	H	0.933993	0.929379	0.936808
	O336	O	0.517750	0.487821	0.385513
	H337	H	0.510967	0.497591	0.381695
	H338	H	0.533502	0.499221	0.381092
	O339	O	0.816784	0.148538	0.998065
	H340	H	0.821304	0.141758	1.011679
	H341	H	0.809821	0.148412	0.985993
	O342	O	0.162245	0.822028	0.817885
	H343	H	0.138539	0.837189	0.805944
	H344	H	0.143309	0.834249	0.814677
	O345	O	0.206099	0.965701	0.793305
	H346	H	0.223101	0.968723	0.813905
	H347	H	0.223677	0.962865	0.782838
	O348	O	0.639130	0.408019	0.507032
	H349	H	0.644863	0.399854	0.504014
	H350	H	0.637414	0.427663	0.507995
	O351	O	0.153556	-0.028015	0.196955
	H352	H	0.163205	-0.048000	0.204844
	H353	H	0.154483	-0.038701	0.188186
	O354	O	1.190092	1.073136	-0.066426
	H355	H	1.189680	1.072749	-0.049660
	H356	H	1.188066	1.077898	-0.058029
	O357	O	-0.189704	1.006088	-0.143005
	H358	H	-0.188365	1.034223	-0.141667
	H359	H	-0.202446	1.025961	-0.162398
	O360	O	0.501924	0.385840	0.608892
	H361	H	0.502790	0.403175	0.604855
	H362	H	0.508356	0.382111	0.625331
	O363	O	0.584948	0.525149	0.409219
	H364	H	0.588478	0.522238	0.389038
	H365	H	0.587801	0.517808	0.418505
	O366	O	0.566181	0.602506	0.615612
	H367	H	0.571662	0.585632	0.616804
	H368	H	0.575196	0.599944	0.604559
	O369	O	0.471708	0.396976	0.315772
	H370	H	0.481938	0.417546	0.317225
	H371	H	0.474600	0.394724	0.303586
	O372	O	0.587561	0.548592	0.443775
	H373	H	0.593082	0.553417	0.447222
	H374	H	0.585534	0.556751	0.436850
	O375	O	0.555008	0.365551	0.490799
	H376	H	0.564278	0.373975	0.486752
	H377	H	0.564382	0.368136	0.473382
	O378	O	0.961155	0.218099	0.042198
	H379	H	0.963311	0.219068	0.058882
	H380	H	0.963214	0.227197	0.037250
	O381	O	0.529289	0.551071	0.664619
	H382	H	0.516835	0.559043	0.667168
	H383	H	0.529049	0.545939	0.669213
	O384	O	-0.000627	0.806574	1.106793
	H385	H	-0.000663	0.788669	1.114308
	H386	H	0.007693	0.802365	1.091821
	O387	O	0.872058	0.950591	0.080637
	H388	H	0.868752	0.948525	0.084327
	H389	H	0.868615	0.958044	0.076546
	O390	O	0.486855	0.501957	0.472224
	H391	H	0.486922	0.506801	0.478320
	H392	H	0.492718	0.495413	0.475824
	O393	O	0.971451	-0.060489	0.871397
	H394	H	0.970121	-0.075343	0.873406
	H395	H	0.953721	-0.040771	0.869422
	O396	O	0.160425	0.793685	0.951804
	H397	H	0.181038	0.771348	0.945828
	H398	H	0.150508	0.796051	0.918586
	O399	O	0.367323	0.515401	0.548978
	H400	H	0.359136	0.513279	0.549403
	H401	H	0.363027	0.498691	0.561489
	O402	O	0.956896	0.000447	0.998696
	H403	H	0.960371	-0.006700	1.002838
	H404	H	0.954458	0.001210	0.992653
	O405	O	0.049198	0.047643	0.121923
	H406	H	0.049416	0.044972	0.127673
	H407	H	0.047856	0.045237	0.109070
	O408	O	0.812925	1.141531	0.827240
	H409	H	0.834137	1.138407	0.836026
	H410	H	0.829368	1.150916	0.840170
	O411	O	1.070276	0.844864	0.048489
	H412	H	1.063699	0.845151	0.040524
	H413	H	1.082257	0.834113	0.034342
	O414	O	-0.007617	0.214474	0.827782
	H415	H	-0.014274	0.224731	0.828028
	H416	H	0.017278	0.204272	0.826058
	O417	O	0.448964	0.443077	0.391695
	H418	H	0.452501	0.454294	0.373985
	H419	H	0.446715	0.449860	0.391500
	O420	O	-0.021486	0.984557	0.134575
	H421	H	-0.018034	0.985936	0.134275
	H422	H	-0.031673	0.983527	0.125802
	O423	O	1.150919	0.113977	0.144674
	H424	H	1.167412	0.091972	0.152853
	H425	H	1.121765	0.109249	0.144399
	O426	O	0.084093	-0.056497	0.999416
	H427	H	0.075273	-0.056926	0.990730
	H428	H	0.089431	-0.064598	0.983259
	O429	O	0.584323	0.524587	0.554412
	H430	H	0.596138	0.527041	0.548552
	H431	H	0.578689	0.543095	0.564414
