data_Molecule from HDF5

_cell_length_a		16.404702
_cell_length_b		16.189725
_cell_length_c		16.204201
_cell_angle_alpha	90.093279
_cell_angle_beta	90.018534
_cell_angle_gamma	89.726522
_symmetry_space_group_name_H-M	'P 1'
_symmetry_Int_Tables_number		1

loop_
	_symmetry_equiv_pos_as_xyz
	x,y,z

loop_
	_atom_site_label
	_atom_site_type_symbol
	_atom_site_fract_x
	_atom_site_fract_y
	_atom_site_fract_z
	H0	H	0.404378	0.839590	0.713692
	H1	H	0.597544	0.168802	0.717304
	H2	H	0.600453	0.840124	0.288482
	H3	H	0.402584	0.169654	0.287914
	H4	H	0.716171	0.401644	0.840075
	H5	H	0.713272	0.605044	0.165756
	H6	H	0.279987	0.606014	0.839561
	H7	H	0.281451	0.401854	0.164629
	H8	H	0.837247	0.724100	0.404603
	H9	H	0.162685	0.721511	0.603596
	H10	H	0.837618	0.290158	0.603530
	H11	H	0.161790	0.290835	0.404747
	H12	H	0.835451	0.410911	0.715894
	H13	H	0.160613	0.606673	0.721604
	H14	H	0.835750	0.607055	0.288182
	H15	H	0.160235	0.405443	0.286936
	H16	H	0.399584	0.717840	0.837265
	H17	H	0.593913	0.715685	0.167042
	H18	H	0.598544	0.289985	0.838301
	H19	H	0.401571	0.291137	0.166181
	H20	H	0.719773	0.843069	0.400379
	H21	H	0.713609	0.169548	0.602831
	H22	H	0.283383	0.843193	0.603823
	H23	H	0.283866	0.169489	0.400035
	H24	H	0.902133	0.340441	0.216883
	H25	H	0.096928	0.670004	0.218141
	H26	H	0.096010	0.341091	0.787903
	H27	H	0.899210	0.670690	0.790818
	H28	H	0.216454	0.905019	0.338733
	H29	H	0.219365	0.110750	0.664295
	H30	H	0.782274	0.109858	0.339776
	H31	H	0.784324	0.905578	0.665430
	H32	H	0.337549	0.222716	0.899378
	H33	H	0.661695	0.220134	0.101075
	H34	H	0.335536	0.790654	0.100812
	H35	H	0.661789	0.787258	0.903201
	H36	H	0.337334	0.905074	0.219384
	H37	H	0.662261	0.103048	0.217441
	H38	H	0.338309	0.105747	0.783887
	H39	H	0.663134	0.904979	0.787959
	H40	H	0.902181	0.220508	0.338025
	H41	H	0.096902	0.219435	0.667419
	H42	H	0.099827	0.790355	0.338870
	H43	H	0.902983	0.795024	0.667219
	H44	H	0.214309	0.341770	0.900168
	H45	H	0.216491	0.667340	0.106176
	H46	H	0.784119	0.341160	0.104489
	H47	H	0.780058	0.668104	0.903134
	H48	H	0.402573	0.122141	0.587894
	H49	H	0.597795	0.888299	0.588627
	H50	H	0.590432	0.121762	0.407780
	H51	H	0.410661	0.892548	0.420834
	H52	H	0.587365	0.408874	0.119357
	H53	H	0.594247	0.592844	0.884955
	H54	H	0.398016	0.595213	0.120137
	H55	H	0.408799	0.422716	0.889276
	H56	H	0.116305	0.609733	0.412746
	H57	H	0.884832	0.594697	0.598895
	H58	H	0.114000	0.412700	0.593900
	H59	H	0.885393	0.416714	0.416008
	H60	H	0.113760	0.415447	0.596128
	H61	H	0.881041	0.607661	0.601396
	H62	H	0.109169	0.590907	0.420442
	H63	H	0.883142	0.417502	0.406253
	H64	H	0.409290	0.590089	0.115720
	H65	H	0.588348	0.592902	0.886429
	H66	H	0.596806	0.410946	0.121658
	H67	H	0.412118	0.405830	0.884221
	H68	H	0.591199	0.121386	0.412151
	H69	H	0.597141	0.886000	0.597797
	H70	H	0.408877	0.124345	0.601335
	H71	H	0.399150	0.885098	0.409741
	H72	H	0.905230	0.623097	0.101316
	H73	H	0.079457	0.391820	0.094226
	H74	H	0.087797	0.620962	0.913969
	H75	H	0.909030	0.389456	0.912549
	H76	H	0.097501	0.915761	0.620369
	H77	H	0.095873	0.096720	0.384873
	H78	H	0.901449	0.105347	0.623181
	H79	H	0.912373	0.918435	0.388260
	H80	H	0.616500	0.104930	0.913254
	H81	H	0.384777	0.096246	0.094479
	H82	H	0.613608	0.914032	0.096749
	H83	H	0.385432	0.919999	0.902644
	H84	H	0.616630	0.905519	0.098352
	H85	H	0.383775	0.096963	0.094707
	H86	H	0.610364	0.091046	0.916810
	H87	H	0.380646	0.903101	0.903523
	H88	H	0.901993	0.090075	0.617614
	H89	H	0.090443	0.096705	0.387596
	H90	H	0.092991	0.918154	0.617381
	H91	H	0.909415	0.914263	0.384892
	H92	H	0.091803	0.621283	0.915530
	H93	H	0.096777	0.389426	0.085248
	H94	H	0.908609	0.619970	0.091856
	H95	H	0.901925	0.387589	0.911466
	H96	H	0.416643	0.118770	0.589607
	H97	H	0.590124	0.889502	0.593157
	H98	H	0.594904	0.123613	0.409275
	H99	H	0.415645	0.888820	0.404284
	H100	H	0.590963	0.417622	0.117838
	H101	H	0.590251	0.597847	0.884148
	H102	H	0.408958	0.602365	0.119404
	H103	H	0.395743	0.412740	0.882235
	H104	H	0.115657	0.592496	0.399802
	H105	H	0.885477	0.603825	0.588712
	H106	H	0.115275	0.411791	0.597480
	H107	H	0.881242	0.408365	0.410665
	H108	H	0.898543	0.623452	0.092874
	H109	H	0.094186	0.384790	0.103992
	H110	H	0.090564	0.622643	0.910801
	H111	H	0.906342	0.387099	0.906082
	H112	H	0.092666	0.912315	0.619670
	H113	H	0.093052	0.101742	0.383991
	H114	H	0.914890	0.099784	0.616768
	H115	H	0.906912	0.919241	0.386596
	H116	H	0.615881	0.093459	0.902183
	H117	H	0.385542	0.097361	0.093916
	H118	H	0.613210	0.908255	0.090429
	H119	H	0.387023	0.911644	0.917406
	C120	C	0.379740	0.013749	0.622970
	C121	C	0.622700	0.996385	0.623260
	C122	C	0.622236	0.013867	0.380464
	C123	C	0.379265	0.997227	0.381272
	C124	C	0.620659	0.382953	0.011393
	C125	C	0.619205	0.624356	0.993396
	C126	C	0.376036	0.625795	0.010515
	C127	C	0.376732	0.383510	0.993568
	C128	C	0.006889	0.628311	0.381384
	C129	C	0.990981	0.630042	0.626029
	C130	C	0.007320	0.384862	0.624738
	C131	C	0.990568	0.384260	0.381552
	C132	C	0.876267	0.513780	0.124771
	C133	C	0.119529	0.496839	0.124536
	C134	C	0.119069	0.513595	0.882464
	C135	C	0.876266	0.496602	0.881523
	C136	C	0.123105	0.884926	0.510979
	C137	C	0.121733	0.127810	0.493835
	C138	C	0.877341	0.128673	0.511355
	C139	C	0.880087	0.887265	0.494431
	C140	C	0.507839	0.126549	0.880016
	C141	C	0.491555	0.126094	0.123636
	C142	C	0.507488	0.881165	0.124490
	C143	C	0.491748	0.882089	0.879832
	C144	C	0.383000	0.889606	0.677320
	C145	C	0.619093	0.119956	0.679644
	C146	C	0.620976	0.889913	0.325538
	C147	C	0.381351	0.120580	0.325266
	C148	C	0.677099	0.383232	0.888557
	C149	C	0.674972	0.624206	0.116954
	C150	C	0.319276	0.625226	0.887998
	C151	C	0.320454	0.383248	0.116177
	C152	C	0.885340	0.685604	0.383661
	C153	C	0.113710	0.684070	0.623973
	C154	C	0.885638	0.328825	0.623261
	C155	C	0.113040	0.328612	0.383814
	C156	C	0.884632	0.388680	0.679231
	C157	C	0.112572	0.627236	0.682926
	C158	C	0.884580	0.626998	0.326192
	C159	C	0.112251	0.385935	0.325609
	C160	C	0.378599	0.680853	0.886945
	C161	C	0.615482	0.679056	0.117794
	C162	C	0.618434	0.327731	0.887603
	C163	C	0.379989	0.328105	0.116937
	C164	C	0.680460	0.891382	0.380985
	C165	C	0.676329	0.120307	0.622323
	C166	C	0.322846	0.891331	0.622731
	C167	C	0.322845	0.120649	0.381363
	C168	C	0.880391	0.389911	0.179842
	C169	C	0.117695	0.620358	0.180540
	C170	C	0.116692	0.390273	0.825640
	C171	C	0.878403	0.620892	0.827695
	C172	C	0.178654	0.885195	0.387821
	C173	C	0.179264	0.128503	0.616272
	C174	C	0.821142	0.128645	0.388421
	C175	C	0.822826	0.886796	0.616766
	C176	C	0.386171	0.183768	0.880161
	C177	C	0.613271	0.181937	0.121387
	C178	C	0.384700	0.827659	0.121704
	C179	C	0.613628	0.825679	0.882643
	C180	C	0.385542	0.884523	0.180799
	C181	C	0.613564	0.123789	0.179175
	C182	C	0.386547	0.125499	0.822538
	C183	C	0.614215	0.884303	0.825502
	C184	C	0.880570	0.183783	0.387411
	C185	C	0.118453	0.182770	0.617781
	C186	C	0.120564	0.828282	0.387960
	C187	C	0.882174	0.831864	0.617861
	C188	C	0.175098	0.390358	0.881845
	C189	C	0.176835	0.619076	0.124524
	C190	C	0.821651	0.390205	0.123984
	C191	C	0.819406	0.619827	0.883675
	C192	C	0.402478	0.099574	0.599843
	C193	C	0.601304	0.910253	0.600072
	C194	C	0.599003	0.099936	0.403256
	C195	C	0.401718	0.911285	0.404792
	C196	C	0.598380	0.405852	0.097399
	C197	C	0.597469	0.601340	0.907503
	C198	C	0.398743	0.602698	0.096358
	C199	C	0.398773	0.406805	0.907366
	C200	C	0.091687	0.604583	0.404237
	C201	C	0.905916	0.608540	0.603012
	C202	C	0.092372	0.406850	0.602415
	C203	C	0.905540	0.407270	0.404404
	C204	C	0.897633	0.599750	0.101896
	C205	C	0.096790	0.411035	0.101266
	C206	C	0.096548	0.599527	0.906479
	C207	C	0.898975	0.410503	0.903476
	C208	C	0.101016	0.908605	0.597082
	C209	C	0.099488	0.104965	0.407808
	C210	C	0.899649	0.105404	0.596980
	C211	C	0.902851	0.910589	0.408694
	C212	C	0.592432	0.103250	0.903766
	C213	C	0.406665	0.103623	0.101136
	C214	C	0.592462	0.902805	0.101977
	C215	C	0.406546	0.904832	0.901485
	Zn216	Zn	0.501014	0.004358	0.750977
	Zn217	Zn	0.499957	0.004095	0.253330
	Zn218	Zn	0.748108	0.503919	0.003178
	Zn219	Zn	0.247955	0.504303	0.002596
	Zn220	Zn	0.000316	0.758196	0.503166
	Zn221	Zn	-0.000487	0.255656	0.502790
	Zn222	Zn	-0.001758	0.506763	0.753937
	Zn223	Zn	-0.002153	0.505685	0.252554
	Zn224	Zn	0.498624	0.752734	0.001356
	Zn225	Zn	0.498796	0.256295	0.001588
	Zn226	Zn	0.750034	0.006457	0.502193
	Zn227	Zn	0.250737	0.006397	0.502139
	N228	N	0.417508	0.966863	0.677569
	N229	N	0.586270	0.042074	0.680279
	N230	N	0.585648	0.967108	0.325018
	N231	N	0.415491	0.042919	0.325050
	N232	N	0.678824	0.416711	0.966658
	N233	N	0.677551	0.591017	0.038816
	N234	N	0.317351	0.592002	0.965991
	N235	N	0.318531	0.416972	0.038304
	N236	N	0.962330	0.686466	0.417266
	N237	N	0.037072	0.686230	0.589502
	N238	N	0.962665	0.326343	0.589964
	N239	N	0.036226	0.327577	0.417752
	N240	N	0.961267	0.422859	0.680231
	N241	N	0.035323	0.594486	0.684318
	N242	N	0.961315	0.592292	0.324347
	N243	N	0.035183	0.419674	0.323947
	N244	N	0.413179	0.681353	0.964161
	N245	N	0.581676	0.679633	0.040054
	N246	N	0.583895	0.327558	0.964953
	N247	N	0.414230	0.328243	0.039511
	N248	N	0.681224	0.969521	0.414450
	N249	N	0.678668	0.042510	0.588085
	N250	N	0.320496	0.969587	0.589650
	N251	N	0.321277	0.042785	0.415391
	N252	N	0.913477	0.467788	0.180531
	N253	N	0.082625	0.543426	0.180416
	N254	N	0.082461	0.467962	0.825945
	N255	N	0.913094	0.543485	0.826333
	N256	N	0.180399	0.919626	0.465497
	N257	N	0.181184	0.094966	0.538323
	N258	N	0.818893	0.095072	0.466351
	N259	N	0.821562	0.920749	0.538974
	N260	N	0.462535	0.184437	0.915235
	N261	N	0.536359	0.183695	0.087503
	N262	N	0.461362	0.825462	0.087303
	N263	N	0.536404	0.824290	0.915887
	N264	N	0.462849	0.917255	0.182538
	N265	N	0.536943	0.089755	0.180756
	N266	N	0.463108	0.090510	0.822386
	N267	N	0.537443	0.918510	0.823607
	N268	N	0.915106	0.183804	0.464705
	N269	N	0.083108	0.182314	0.540757
	N270	N	0.086690	0.828218	0.465517
	N271	N	0.917296	0.832151	0.540824
	N272	N	0.176801	0.468046	0.916285
	N273	N	0.178345	0.541015	0.090649
	N274	N	0.818907	0.468118	0.090318
	N275	N	0.818044	0.541509	0.916518
	O276	O	0.536092	0.468861	0.550051
	H277	H	0.529906	0.461536	0.547293
	H278	H	0.548231	0.467539	0.552100
	O279	O	0.491395	0.558446	0.550851
	H280	H	0.490443	0.550950	0.545902
	H281	H	0.495822	0.553999	0.563000
	O282	O	0.926078	1.009569	0.069535
	H283	H	0.931216	1.016294	0.067733
	H284	H	0.929853	1.012808	0.062396
	O285	O	1.173299	0.054643	0.960569
	H286	H	1.170283	0.049573	0.963918
	H287	H	1.175055	0.059194	0.961264
	O288	O	0.529624	0.448325	0.542329
	H289	H	0.520433	0.436444	0.548298
	H290	H	0.527958	0.445425	0.532566
	O291	O	0.406707	0.583894	0.477120
	H292	H	0.385716	0.599611	0.476154
	H293	H	0.419762	0.586684	0.476542
	O294	O	0.593729	0.478375	0.512164
	H295	H	0.607745	0.465453	0.506348
	H296	H	0.587400	0.478051	0.500650
	O297	O	0.011064	0.032880	1.016182
	H298	H	0.012816	0.037250	1.020747
	H299	H	0.012427	0.042232	1.014284
	O300	O	0.476344	0.509892	0.473189
	H301	H	0.480725	0.509863	0.472459
	H302	H	0.475761	0.511862	0.462269
	O303	O	0.389495	0.537591	0.441817
	H304	H	0.395968	0.547512	0.434400
	H305	H	0.382023	0.552669	0.440204
	O306	O	0.056655	0.971232	0.968195
	H307	H	0.055958	0.963931	0.979133
	H308	H	0.053888	0.966191	0.968010
	O309	O	0.509990	0.477844	0.442219
	H310	H	0.500015	0.481055	0.445204
	H311	H	0.499212	0.480826	0.444716
	O312	O	-0.007521	0.030524	0.015408
	H313	H	-0.003591	0.014244	0.013475
	H314	H	-0.003548	0.027098	0.015681
	O315	O	0.886450	-0.118107	0.078828
	H316	H	0.894859	-0.120662	0.071454
	H317	H	0.876615	-0.124277	0.071351
	O318	O	1.042081	1.013169	1.134387
	H319	H	1.035992	1.007259	1.141816
	H320	H	1.040611	1.017655	1.131799
	O321	O	-0.013926	0.067654	0.986843
	H322	H	-0.011441	0.067064	0.984071
	H323	H	-0.008234	0.064993	0.972892
	O324	O	0.487488	0.569707	0.349168
	H325	H	0.494906	0.564581	0.353522
	H326	H	0.497428	0.567950	0.338231
	O327	O	0.106318	0.132952	0.079662
	H328	H	0.106467	0.127536	0.070025
	H329	H	0.100586	0.128182	0.082777
	O330	O	0.764562	0.805265	0.290829
	H331	H	0.763518	0.805149	0.291758
	H332	H	0.763437	0.814441	0.285019
	O333	O	0.037146	1.022019	0.909935
	H334	H	0.024326	1.023426	0.905857
	H335	H	0.039641	1.029211	0.907678
	O336	O	-0.076689	0.054239	-0.038931
	H337	H	-0.070499	0.044342	-0.032225
	H338	H	-0.093698	0.056898	-0.038793
	O339	O	0.465977	0.466837	0.447220
	H340	H	0.462101	0.469113	0.452476
	H341	H	0.467342	0.465802	0.450428
	O342	O	1.016635	0.936234	0.974602
	H343	H	1.017332	0.929179	0.992524
	H344	H	1.021773	0.942044	0.976646
	O345	O	1.044024	0.922268	0.092977
	H346	H	1.041996	0.922528	0.087281
	H347	H	1.035107	0.916906	0.099999
	O348	O	0.532755	0.499240	0.513140
	H349	H	0.529117	0.490791	0.511626
	H350	H	0.527830	0.500875	0.503918
	O351	O	1.097658	-0.148885	-0.006209
	H352	H	1.101753	-0.141769	-0.003438
	H353	H	1.103639	-0.149286	-0.009900
	O354	O	0.487729	0.510390	0.461399
	H355	H	0.485057	0.514634	0.458588
	H356	H	0.485931	0.514765	0.453725
	O357	O	0.922483	-0.069470	0.885537
	H358	H	0.926519	-0.055625	0.897123
	H359	H	0.923429	-0.075066	0.871203
	O360	O	0.505369	0.435594	0.472401
	H361	H	0.495229	0.431186	0.471318
	H362	H	0.503984	0.433199	0.489478
	O363	O	0.510893	0.504856	0.486995
	H364	H	0.513929	0.503323	0.486736
	H365	H	0.516009	0.512591	0.493149
	O366	O	1.018634	1.109327	0.998502
	H367	H	1.020089	1.112362	0.998511
	H368	H	1.017748	1.115018	0.993087
	O369	O	0.918033	0.029031	0.929755
	H370	H	0.913522	0.026726	0.934357
	H371	H	0.917620	0.029247	0.934105
	O372	O	-0.032030	-0.041548	0.035426
	H373	H	-0.027942	-0.032528	0.038978
	H374	H	-0.036535	-0.042726	0.021603
	O375	O	1.016201	-0.028463	-0.079916
	H376	H	1.019122	-0.027159	-0.073050
	H377	H	1.011975	-0.029012	-0.073661
	O378	O	0.428018	0.534387	0.498466
	H379	H	0.431240	0.533108	0.497491
	H380	H	0.430031	0.535471	0.499083
	O381	O	0.447510	0.426244	0.509522
	H382	H	0.443721	0.434791	0.489951
	H383	H	0.448851	0.421478	0.522216
