data_Molecule from HDF5

_cell_length_a		16.478467
_cell_length_b		16.498226
_cell_length_c		16.535351
_cell_angle_alpha	90.142630
_cell_angle_beta	89.862322
_cell_angle_gamma	89.792801
_symmetry_space_group_name_H-M	'P 1'
_symmetry_Int_Tables_number		1

loop_
	_symmetry_equiv_pos_as_xyz
	x,y,z

loop_
	_atom_site_label
	_atom_site_type_symbol
	_atom_site_fract_x
	_atom_site_fract_y
	_atom_site_fract_z
	H0	H	0.394034	0.847633	0.729266
	H1	H	0.604762	0.161365	0.725835
	H2	H	0.606395	0.845999	0.285009
	H3	H	0.393865	0.160822	0.283059
	H4	H	0.723728	0.399408	0.849010
	H5	H	0.723277	0.609621	0.162864
	H6	H	0.283603	0.605902	0.847586
	H7	H	0.279356	0.397328	0.163037
	H8	H	0.846676	0.726217	0.400401
	H9	H	0.160927	0.726293	0.611597
	H10	H	0.844734	0.285619	0.609295
	H11	H	0.160724	0.280741	0.398767
	H12	H	0.847355	0.399563	0.728191
	H13	H	0.161714	0.610880	0.727718
	H14	H	0.846773	0.611539	0.283252
	H15	H	0.161418	0.398775	0.284277
	H16	H	0.396351	0.725026	0.848592
	H17	H	0.607277	0.726842	0.161888
	H18	H	0.607105	0.282497	0.848825
	H19	H	0.397638	0.282209	0.164441
	H20	H	0.722734	0.845602	0.401393
	H21	H	0.721504	0.161764	0.609583
	H22	H	0.278158	0.847458	0.613779
	H23	H	0.278097	0.161079	0.399286
	H24	H	0.899054	0.345967	0.226458
	H25	H	0.109541	0.660074	0.229510
	H26	H	0.109192	0.346879	0.784078
	H27	H	0.897653	0.660119	0.784449
	H28	H	0.224937	0.898395	0.348770
	H29	H	0.224179	0.111274	0.661699
	H30	H	0.782870	0.107369	0.346732
	H31	H	0.782683	0.900741	0.662813
	H32	H	0.344051	0.222521	0.905850
	H33	H	0.661815	0.222404	0.110588
	H34	H	0.343831	0.783459	0.111128
	H35	H	0.660298	0.783601	0.901184
	H36	H	0.344223	0.898711	0.228553
	H37	H	0.659401	0.109657	0.228523
	H38	H	0.343926	0.107721	0.787261
	H39	H	0.659515	0.898042	0.784701
	H40	H	0.898906	0.222938	0.346192
	H41	H	0.108382	0.228293	0.661205
	H42	H	0.108635	0.782650	0.347894
	H43	H	0.896405	0.781981	0.661713
	H44	H	0.223501	0.345650	0.902597
	H45	H	0.225745	0.660763	0.112948
	H46	H	0.783249	0.345540	0.110382
	H47	H	0.781108	0.660100	0.900788
	H48	H	0.418446	0.113976	0.595787
	H49	H	0.597959	0.889818	0.592674
	H50	H	0.592748	0.118799	0.411634
	H51	H	0.417047	0.892203	0.415593
	H52	H	0.588852	0.417568	0.116597
	H53	H	0.594108	0.595192	0.891246
	H54	H	0.412406	0.591490	0.117546
	H55	H	0.417459	0.407079	0.893955
	H56	H	0.116926	0.593713	0.416455
	H57	H	0.891468	0.594859	0.593127
	H58	H	0.115357	0.415656	0.592191
	H59	H	0.891324	0.412207	0.420325
	H60	H	0.117139	0.414886	0.595637
	H61	H	0.892955	0.589658	0.593683
	H62	H	0.114583	0.591005	0.419832
	H63	H	0.891620	0.419259	0.414335
	H64	H	0.416679	0.591885	0.116286
	H65	H	0.593849	0.589153	0.894022
	H66	H	0.591056	0.408005	0.120251
	H67	H	0.406912	0.413396	0.891603
	H68	H	0.587501	0.115154	0.417304
	H69	H	0.593269	0.888209	0.599905
	H70	H	0.412462	0.114327	0.590464
	H71	H	0.415989	0.894495	0.420429
	H72	H	0.920094	0.613260	0.092771
	H73	H	0.094693	0.392137	0.092386
	H74	H	0.088858	0.615026	0.918759
	H75	H	0.913731	0.392596	0.923196
	H76	H	0.084656	0.917557	0.615157
	H77	H	0.092438	0.092451	0.392926
	H78	H	0.907376	0.096346	0.619700
	H79	H	0.904135	0.915929	0.389563
	H80	H	0.616648	0.091623	0.912785
	H81	H	0.388219	0.093165	0.100329
	H82	H	0.616079	0.913078	0.098313
	H83	H	0.389020	0.913185	0.917217
	H84	H	0.612510	0.912380	0.089543
	H85	H	0.389630	0.097045	0.091525
	H86	H	0.617164	0.095633	0.914986
	H87	H	0.390169	0.916321	0.916896
	H88	H	0.912736	0.090939	0.615722
	H89	H	0.091309	0.088426	0.394227
	H90	H	0.090818	0.910486	0.619113
	H91	H	0.919555	0.921156	0.396434
	H92	H	0.097451	0.617478	0.918898
	H93	H	0.088977	0.392395	0.095857
	H94	H	0.908304	0.616679	0.090595
	H95	H	0.911362	0.387386	0.912251
	H96	H	0.411197	0.117376	0.597966
	H97	H	0.589139	0.891753	0.593514
	H98	H	0.596052	0.116437	0.419122
	H99	H	0.412150	0.891987	0.417897
	H100	H	0.598516	0.415489	0.120619
	H101	H	0.588697	0.593057	0.894602
	H102	H	0.414446	0.595556	0.118162
	H103	H	0.416508	0.418954	0.897766
	H104	H	0.115829	0.589012	0.415104
	H105	H	0.890886	0.592514	0.598296
	H106	H	0.116942	0.412139	0.593254
	H107	H	0.888429	0.411299	0.412075
	H108	H	0.913454	0.618933	0.101726
	H109	H	0.089072	0.393925	0.089228
	H110	H	0.092231	0.618796	0.911466
	H111	H	0.922146	0.392473	0.914652
	H112	H	0.094227	0.919495	0.617251
	H113	H	0.087957	0.091874	0.394027
	H114	H	0.914956	0.098859	0.617680
	H115	H	0.917504	0.904292	0.390458
	H116	H	0.615017	0.092001	0.916880
	H117	H	0.392369	0.087976	0.093517
	H118	H	0.611881	0.920818	0.094630
	H119	H	0.387664	0.914980	0.914267
	C120	C	0.380285	0.011890	0.627670
	C121	C	0.623798	0.994963	0.626637
	C122	C	0.624026	0.012406	0.383910
	C123	C	0.380994	0.996007	0.384664
	C124	C	0.624638	0.381576	0.015282
	C125	C	0.624094	0.625170	0.997018
	C126	C	0.381556	0.625157	0.013934
	C127	C	0.381861	0.381743	0.998643
	C128	C	0.011932	0.624595	0.384642
	C129	C	0.995759	0.625339	0.627390
	C130	C	0.012336	0.382804	0.626148
	C131	C	0.994665	0.381747	0.383048
	C132	C	0.881853	0.512374	0.127506
	C133	C	0.124479	0.495665	0.126781
	C134	C	0.125223	0.512633	0.884235
	C135	C	0.883141	0.494777	0.884668
	C136	C	0.123591	0.882855	0.513720
	C137	C	0.123135	0.124516	0.497382
	C138	C	0.880523	0.126151	0.513232
	C139	C	0.881441	0.882284	0.496244
	C140	C	0.511355	0.124804	0.884568
	C141	C	0.494173	0.124866	0.127815
	C142	C	0.509533	0.883189	0.126579
	C143	C	0.493323	0.882378	0.884141
	C144	C	0.376411	0.894469	0.688715
	C145	C	0.623905	0.113821	0.686015
	C146	C	0.625558	0.893459	0.324523
	C147	C	0.376769	0.113925	0.323698
	C148	C	0.683936	0.380376	0.896240
	C149	C	0.683392	0.627511	0.115526
	C150	C	0.322402	0.625790	0.895264
	C151	C	0.320385	0.379456	0.116301
	C152	C	0.893707	0.685644	0.382025
	C153	C	0.113941	0.686051	0.629635
	C154	C	0.892905	0.324423	0.628226
	C155	C	0.113488	0.321196	0.380644
	C156	C	0.893959	0.381200	0.687153
	C157	C	0.114215	0.628674	0.687688
	C158	C	0.893801	0.628314	0.323919
	C159	C	0.113783	0.379679	0.323611
	C160	C	0.378561	0.684999	0.895619
	C161	C	0.625672	0.685872	0.115077
	C162	C	0.626116	0.322389	0.896163
	C163	C	0.379182	0.322155	0.117098
	C164	C	0.683322	0.893203	0.382375
	C165	C	0.681950	0.114167	0.628006
	C166	C	0.318750	0.894495	0.631078
	C167	C	0.319035	0.113956	0.381474
	C168	C	0.880336	0.393416	0.186884
	C169	C	0.127532	0.613263	0.188612
	C170	C	0.127681	0.393986	0.824295
	C171	C	0.879906	0.613156	0.824612
	C172	C	0.184322	0.880414	0.395541
	C173	C	0.183887	0.128753	0.615001
	C174	C	0.822160	0.126277	0.394256
	C175	C	0.821994	0.881533	0.615290
	C176	C	0.391524	0.183009	0.885734
	C177	C	0.613543	0.183689	0.129641
	C178	C	0.390889	0.823683	0.129212
	C179	C	0.612484	0.822899	0.882584
	C180	C	0.391382	0.880759	0.187985
	C181	C	0.612355	0.127588	0.188430
	C182	C	0.391575	0.125934	0.826920
	C183	C	0.612100	0.879788	0.824357
	C184	C	0.879901	0.184112	0.394120
	C185	C	0.126387	0.187003	0.614514
	C186	C	0.126724	0.822614	0.395364
	C187	C	0.878789	0.822594	0.614721
	C188	C	0.184407	0.393432	0.883189
	C189	C	0.185590	0.613449	0.130934
	C190	C	0.822643	0.393201	0.129033
	C191	C	0.822154	0.613081	0.882658
	C192	C	0.406433	0.093756	0.601885
	C193	C	0.600230	0.911725	0.602323
	C194	C	0.599148	0.095363	0.408863
	C195	C	0.407465	0.914312	0.410528
	C196	C	0.599945	0.406420	0.097740
	C197	C	0.599270	0.599844	0.914561
	C198	C	0.407120	0.600117	0.095999
	C199	C	0.406817	0.406061	0.915906
	C200	C	0.094369	0.598691	0.410023
	C201	C	0.913405	0.599869	0.602351
	C202	C	0.094958	0.407235	0.600891
	C203	C	0.912030	0.407009	0.408206
	C204	C	0.906836	0.594645	0.102319
	C205	C	0.098399	0.413909	0.100085
	C206	C	0.100123	0.595540	0.909311
	C207	C	0.908467	0.412342	0.909446
	C208	C	0.097402	0.908472	0.595679
	C209	C	0.097791	0.098410	0.415163
	C210	C	0.904728	0.102249	0.596169
	C211	C	0.906422	0.906821	0.413793
	C212	C	0.594673	0.100081	0.908090
	C213	C	0.411705	0.099891	0.102549
	C214	C	0.591876	0.908015	0.101305
	C215	C	0.410481	0.907533	0.909130
	Zn216	Zn	0.501621	0.003163	0.755792
	Zn217	Zn	0.502247	0.004258	0.255921
	Zn218	Zn	0.753386	0.503651	0.006044
	Zn219	Zn	0.253305	0.503724	0.006176
	Zn220	Zn	0.003495	0.753709	0.505533
	Zn221	Zn	0.002677	0.254010	0.504231
	Zn222	Zn	0.004577	0.504211	0.755477
	Zn223	Zn	0.003436	0.504095	0.255868
	Zn224	Zn	0.501592	0.753972	0.005168
	Zn225	Zn	0.503252	0.252595	0.007104
	Zn226	Zn	0.752690	0.003905	0.504654
	Zn227	Zn	0.252065	0.003978	0.506330
	N228	N	0.414140	0.968377	0.686678
	N229	N	0.588700	0.038394	0.685571
	N230	N	0.589326	0.968542	0.325369
	N231	N	0.414717	0.039632	0.325625
	N232	N	0.683365	0.416315	0.971172
	N233	N	0.682632	0.590581	0.041058
	N234	N	0.324165	0.589250	0.969749
	N235	N	0.321982	0.415901	0.041662
	N236	N	0.968156	0.683509	0.418958
	N237	N	0.039193	0.684454	0.592967
	N238	N	0.967595	0.325086	0.591055
	N239	N	0.038413	0.322297	0.416837
	N240	N	0.969384	0.416349	0.686473
	N241	N	0.039689	0.591678	0.686487
	N242	N	0.968504	0.591089	0.325380
	N243	N	0.038842	0.416351	0.324800
	N244	N	0.414576	0.684833	0.970506
	N245	N	0.589461	0.684574	0.040257
	N246	N	0.590213	0.322651	0.971245
	N247	N	0.416787	0.323448	0.042878
	N248	N	0.682572	0.968370	0.418322
	N249	N	0.682170	0.039111	0.591931
	N250	N	0.321173	0.968652	0.593598
	N251	N	0.321341	0.039753	0.418860
	N252	N	0.916029	0.468502	0.186365
	N253	N	0.090246	0.538980	0.186196
	N254	N	0.091852	0.469352	0.824625
	N255	N	0.917276	0.538587	0.825805
	N256	N	0.182727	0.916989	0.470221
	N257	N	0.181726	0.090565	0.541290
	N258	N	0.822063	0.091164	0.469569
	N259	N	0.823389	0.917960	0.540577
	N260	N	0.467050	0.182562	0.920713
	N261	N	0.538973	0.182286	0.092657
	N262	N	0.465267	0.824797	0.091970
	N263	N	0.537412	0.824064	0.918879
	N264	N	0.466213	0.917169	0.186495
	N265	N	0.537086	0.091984	0.187653
	N266	N	0.467224	0.090423	0.826078
	N267	N	0.536968	0.915762	0.824931
	N268	N	0.915185	0.184408	0.469214
	N269	N	0.089383	0.184443	0.540160
	N270	N	0.089763	0.823929	0.469918
	N271	N	0.915119	0.822925	0.539928
	N272	N	0.182968	0.468257	0.919711
	N273	N	0.183862	0.539216	0.093307
	N274	N	0.822969	0.468230	0.093038
	N275	N	0.823908	0.538588	0.919442
	O276	O	0.722253	0.479891	0.285090
	H277	H	0.743866	0.467158	0.270271
	H278	H	0.725717	0.441252	0.282680
	O279	O	0.705517	0.294693	0.476051
	H280	H	0.712727	0.278248	0.479115
	H281	H	0.708607	0.289098	0.481025
	O282	O	0.903076	0.797737	0.203555
	H283	H	0.910959	0.788995	0.182821
	H284	H	0.926031	0.785563	0.195865
	O285	O	0.411258	0.377226	0.329326
	H286	H	0.420726	0.397250	0.339568
	H287	H	0.430464	0.358941	0.331337
	O288	O	0.024730	0.216276	0.198346
	H289	H	0.041690	0.233025	0.208263
	H290	H	0.049583	0.226610	0.202235
	O291	O	1.038564	0.935309	0.115237
	H292	H	1.040179	0.936088	0.130380
	H293	H	1.031642	0.931369	0.107779
	O294	O	0.059766	0.941629	0.212675
	H295	H	0.043178	0.938092	0.206122
	H296	H	0.060003	0.951651	0.209844
	O297	O	0.375221	0.554239	0.532291
	H298	H	0.380562	0.545257	0.536872
	H299	H	0.356134	0.560903	0.521320
	O300	O	0.361464	0.414799	0.572316
	H301	H	0.369029	0.420966	0.588362
	H302	H	0.361401	0.401407	0.580529
	O303	O	0.293693	0.298821	0.634666
	H304	H	0.303758	0.326881	0.622882
	H305	H	0.284842	0.306026	0.630467
	O306	O	0.110898	0.891103	0.978481
	H307	H	0.113124	0.896246	0.984684
	H308	H	0.104519	0.890066	0.968298
	O309	O	0.656071	0.701301	0.643639
	H310	H	0.630028	0.704769	0.646398
	H311	H	0.674956	0.723817	0.660174
	O312	O	0.361154	0.506879	0.509407
	H313	H	0.362765	0.518913	0.488351
	H314	H	0.366800	0.525430	0.520466
	O315	O	0.069196	0.026476	1.048388
	H316	H	0.081947	0.036449	1.048557
	H317	H	0.069974	0.016965	1.054237
	O318	O	-0.053436	0.946954	0.027816
	H319	H	-0.062635	0.949846	0.017648
	H320	H	-0.056373	0.941520	0.017768
	O321	O	0.461642	0.714719	0.299120
	H322	H	0.471992	0.726460	0.298464
	H323	H	0.473000	0.723675	0.291267
	O324	O	0.814053	0.173222	0.861351
	H325	H	0.806405	0.172628	0.888608
	H326	H	0.810061	0.194748	0.846371
	O327	O	0.925825	-0.053461	0.898638
	H328	H	0.937084	-0.067462	0.905925
	H329	H	0.942237	-0.043893	0.876795
	O330	O	0.797549	-0.120594	0.210072
	H331	H	0.819488	-0.147694	0.213003
	H332	H	0.780490	-0.095817	0.230037
	O333	O	0.785000	0.780553	0.786323
	H334	H	0.790365	0.787349	0.794339
	H335	H	0.788039	0.801184	0.809663
	O336	O	0.926256	0.070534	0.883744
	H337	H	0.935602	0.068327	0.880896
	H338	H	0.922397	0.072649	0.874339
	O339	O	0.478956	0.304726	0.710605
	H340	H	0.464728	0.317820	0.707134
	H341	H	0.478833	0.286541	0.727339
	O342	O	0.715142	0.472846	0.517169
	H343	H	0.721116	0.485193	0.515229
	H344	H	0.723918	0.458799	0.507600
	O345	O	0.184589	0.014551	0.163714
	H346	H	0.170654	0.028701	0.169402
	H347	H	0.193579	0.031836	0.176698
	O348	O	0.801643	0.123013	0.975226
	H349	H	0.810981	0.107471	0.983835
	H350	H	0.786516	0.127842	0.990741
	O351	O	1.038920	1.064374	-0.016359
	H352	H	1.042401	1.064863	-0.013216
	H353	H	1.028171	1.064436	-0.015387
	O354	O	0.680884	0.477111	0.677598
	H355	H	0.690874	0.506694	0.676664
	H356	H	0.679680	0.479731	0.683446
	O357	O	0.781562	0.896630	1.003036
	H358	H	0.788056	0.914570	1.021279
	H359	H	0.764573	0.886516	0.991830
	O360	O	0.513445	0.286828	0.508154
	H361	H	0.511418	0.296267	0.510647
	H362	H	0.501712	0.299533	0.515668
	O363	O	0.681239	0.637362	0.396386
	H364	H	0.683895	0.629808	0.391043
	H365	H	0.683192	0.634423	0.427983
	O366	O	0.788110	0.039239	0.787148
	H367	H	0.762841	0.037935	0.760657
	H368	H	0.807402	0.060256	0.785958
	O369	O	0.174208	0.772114	0.195654
	H370	H	0.190140	0.786728	0.195137
	H371	H	0.163343	0.776174	0.195321
	O372	O	0.303621	0.694501	0.497281
	H373	H	0.293828	0.704080	0.488386
	H374	H	0.300904	0.707364	0.473794
	O375	O	0.014360	1.014341	0.786745
	H376	H	0.020427	1.023317	0.779056
	H377	H	0.024363	1.017030	0.794751
	O378	O	0.534918	0.296718	0.299786
	H379	H	0.520222	0.297217	0.328085
	H380	H	0.527434	0.266360	0.292090
	O381	O	0.824306	0.179983	0.055367
	H382	H	0.840458	0.181363	0.044712
	H383	H	0.812601	0.166835	0.063899
	O384	O	-0.150977	0.054965	1.135326
	H385	H	-0.130731	0.062246	1.127729
	H386	H	-0.158376	0.058294	1.137917
	O387	O	0.130965	0.811774	0.818084
	H388	H	0.139181	0.815999	0.826883
	H389	H	0.135980	0.826828	0.829757
	O390	O	0.273192	0.250083	0.755524
	H391	H	0.278734	0.262643	0.718329
	H392	H	0.268973	0.251475	0.770299
	O393	O	0.873335	0.819473	0.041053
	H394	H	0.863396	0.815384	0.041850
	H395	H	0.861232	0.830854	0.035078
	O396	O	0.541937	0.534752	0.357294
	H397	H	0.559297	0.532952	0.336702
	H398	H	0.542712	0.538674	0.356654
	O399	O	0.513525	0.676424	0.692165
	H400	H	0.496961	0.678092	0.686264
	H401	H	0.501709	0.691516	0.692812
	O402	O	0.010367	0.215177	0.868402
	H403	H	0.000746	0.223009	0.843866
	H404	H	-0.022005	0.211971	0.871047
	O405	O	0.134551	0.018540	-0.000391
	H406	H	0.127888	0.030089	0.010743
	H407	H	0.122800	0.016250	-0.000011
	O408	O	0.705675	0.714677	0.533318
	H409	H	0.711721	0.701321	0.538066
	H410	H	0.723461	0.733367	0.546480
	O411	O	0.302963	0.627053	0.370226
	H412	H	0.326005	0.636079	0.350943
	H413	H	0.292868	0.585435	0.358333
	O414	O	0.537132	0.613059	0.507180
	H415	H	0.551493	0.608728	0.501938
	H416	H	0.540010	0.618351	0.511150
	O417	O	0.636312	0.402968	0.563261
	H418	H	0.642868	0.420754	0.555346
	H419	H	0.626050	0.397399	0.559561
	O420	O	0.596952	0.588119	0.299387
	H421	H	0.605885	0.594205	0.296979
	H422	H	0.626616	0.580575	0.295619
	O423	O	0.130727	1.145282	0.068797
	H424	H	0.108505	1.147474	0.055189
	H425	H	0.124603	1.147793	0.065947
	O426	O	1.133618	0.959179	0.794605
	H427	H	1.128515	0.980518	0.790287
	H428	H	1.143911	0.962190	0.783140
	O429	O	0.391432	0.474350	0.700397
	H430	H	0.385076	0.470092	0.703195
	H431	H	0.393137	0.482039	0.681636
	O432	O	0.295331	0.502516	0.301047
	H433	H	0.326792	0.481484	0.291630
	H434	H	0.285589	0.511348	0.276122
	O435	O	0.216713	-0.197543	-0.035467
	H436	H	0.225686	-0.185833	-0.024780
	H437	H	0.230768	-0.193669	-0.022816
	O438	O	1.182397	0.105374	0.143146
	H439	H	1.185041	0.110864	0.114753
	H440	H	1.197971	0.116636	0.163123
	O441	O	0.127840	0.214946	0.035510
	H442	H	0.111743	0.224698	0.032048
	H443	H	0.121660	0.218626	0.014639
	O444	O	0.330552	0.599047	0.619832
	H445	H	0.332921	0.609675	0.625531
	H446	H	0.343388	0.593347	0.613786
	O447	O	0.470742	0.666385	0.604250
	H448	H	0.471495	0.682813	0.604060
	H449	H	0.474664	0.665477	0.579502
	O450	O	0.531397	0.481437	0.561480
	H451	H	0.523799	0.484891	0.536538
	H452	H	0.541715	0.496136	0.558439
	O453	O	0.485573	0.510169	0.727060
	H454	H	0.491396	0.538555	0.724479
	H455	H	0.477207	0.528490	0.744606
	O456	O	0.696075	0.313957	0.308793
	H457	H	0.685295	0.304971	0.342669
	H458	H	0.670311	0.295803	0.294018
	O459	O	0.375672	0.302612	0.360783
	H460	H	0.367717	0.301966	0.350470
	H461	H	0.370340	0.291504	0.364074
	O462	O	0.569587	0.369604	0.663473
	H463	H	0.562169	0.385526	0.655898
	H464	H	0.548775	0.377571	0.674093
	O465	O	0.978909	-0.111945	-0.089758
	H466	H	0.982420	-0.133532	-0.106273
	H467	H	1.001898	-0.106372	-0.087030
