data_Molecule from HDF5

_cell_length_a		16.322477
_cell_length_b		16.290948
_cell_length_c		16.314334
_cell_angle_alpha	90.063608
_cell_angle_beta	89.881774
_cell_angle_gamma	89.816240
_symmetry_space_group_name_H-M	'P 1'
_symmetry_Int_Tables_number		1

loop_
	_symmetry_equiv_pos_as_xyz
	x,y,z

loop_
	_atom_site_label
	_atom_site_type_symbol
	_atom_site_fract_x
	_atom_site_fract_y
	_atom_site_fract_z
	H0	H	0.406580	0.844243	0.717428
	H1	H	0.604559	0.169734	0.718136
	H2	H	0.606224	0.843709	0.286538
	H3	H	0.408556	0.170618	0.287982
	H4	H	0.721466	0.408244	0.839255
	H5	H	0.720751	0.606565	0.165552
	H6	H	0.291348	0.606577	0.838407
	H7	H	0.289924	0.407884	0.165238
	H8	H	0.842882	0.723004	0.403877
	H9	H	0.169596	0.722837	0.600322
	H10	H	0.842839	0.292602	0.600820
	H11	H	0.168066	0.290903	0.400672
	H12	H	0.843244	0.408788	0.717503
	H13	H	0.168549	0.608332	0.718061
	H14	H	0.842666	0.607283	0.287605
	H15	H	0.168561	0.408667	0.286030
	H16	H	0.407177	0.722956	0.839384
	H17	H	0.604425	0.722738	0.165266
	H18	H	0.606290	0.291127	0.839868
	H19	H	0.407765	0.293294	0.166164
	H20	H	0.721222	0.843741	0.403825
	H21	H	0.719238	0.171113	0.601282
	H22	H	0.291780	0.843835	0.600539
	H23	H	0.290800	0.170578	0.403155
	H24	H	0.908571	0.344103	0.216073
	H25	H	0.105154	0.670336	0.217718
	H26	H	0.106705	0.344740	0.784777
	H27	H	0.906199	0.670778	0.787081
	H28	H	0.221876	0.907726	0.338309
	H29	H	0.219639	0.106404	0.665494
	H30	H	0.790389	0.107017	0.338790
	H31	H	0.790705	0.909167	0.664300
	H32	H	0.343491	0.222411	0.905091
	H33	H	0.669320	0.221262	0.100995
	H34	H	0.342562	0.792745	0.102568
	H35	H	0.668972	0.791578	0.902948
	H36	H	0.343479	0.908437	0.218387
	H37	H	0.669300	0.105546	0.216802
	H38	H	0.342732	0.106913	0.788107
	H39	H	0.668956	0.906285	0.785289
	H40	H	0.908301	0.221081	0.337530
	H41	H	0.103623	0.223341	0.664523
	H42	H	0.104441	0.792684	0.338211
	H43	H	0.905868	0.791933	0.664170
	H44	H	0.222487	0.343572	0.901593
	H45	H	0.220576	0.670032	0.100718
	H46	H	0.793150	0.343524	0.099813
	H47	H	0.789470	0.669995	0.902404
	H48	H	0.412775	0.122015	0.590367
	H49	H	0.588875	0.894511	0.593390
	H50	H	0.601354	0.125575	0.404132
	H51	H	0.409948	0.889857	0.407523
	H52	H	0.604765	0.406814	0.122454
	H53	H	0.610958	0.598492	0.883020
	H54	H	0.407909	0.595123	0.118520
	H55	H	0.413936	0.415723	0.886542
	H56	H	0.121925	0.593641	0.403439
	H57	H	0.890008	0.600356	0.597360
	H58	H	0.122789	0.407721	0.590860
	H59	H	0.891139	0.419122	0.409662
	H60	H	0.118129	0.421267	0.587061
	H61	H	0.889915	0.603333	0.592806
	H62	H	0.124474	0.607108	0.406300
	H63	H	0.887744	0.413703	0.402904
	H64	H	0.418841	0.598930	0.115908
	H65	H	0.592820	0.588030	0.891911
	H66	H	0.604627	0.422124	0.117975
	H67	H	0.416260	0.415223	0.888110
	H68	H	0.592638	0.121605	0.408810
	H69	H	0.604039	0.891929	0.585466
	H70	H	0.408327	0.125692	0.597914
	H71	H	0.417347	0.890648	0.407124
	H72	H	0.917563	0.622392	0.094533
	H73	H	0.096981	0.389657	0.100084
	H74	H	0.101375	0.621868	0.914715
	H75	H	0.915314	0.392366	0.910994
	H76	H	0.090805	0.917698	0.613970
	H77	H	0.092097	0.095910	0.389025
	H78	H	0.905796	0.097493	0.618638
	H79	H	0.912801	0.917049	0.385613
	H80	H	0.623921	0.097616	0.901164
	H81	H	0.389884	0.101010	0.096267
	H82	H	0.621460	0.917200	0.096716
	H83	H	0.390000	0.909206	0.914887
	H84	H	0.622498	0.910628	0.095035
	H85	H	0.390270	0.100561	0.095723
	H86	H	0.622864	0.106467	0.913923
	H87	H	0.393748	0.921972	0.913243
	H88	H	0.917938	0.096949	0.614147
	H89	H	0.099395	0.107518	0.383781
	H90	H	0.099972	0.906874	0.620769
	H91	H	0.915895	0.915498	0.386404
	H92	H	0.102097	0.625391	0.904964
	H93	H	0.094463	0.393672	0.089471
	H94	H	0.909612	0.623369	0.090344
	H95	H	0.913380	0.390290	0.909040
	H96	H	0.417377	0.123367	0.598335
	H97	H	0.602298	0.887903	0.601658
	H98	H	0.601720	0.122816	0.414121
	H99	H	0.413338	0.891909	0.414013
	H100	H	0.591599	0.413341	0.116822
	H101	H	0.590963	0.609549	0.885884
	H102	H	0.411065	0.606160	0.119769
	H103	H	0.414078	0.413321	0.886239
	H104	H	0.119508	0.598664	0.416035
	H105	H	0.891607	0.597640	0.593006
	H106	H	0.122800	0.418226	0.601149
	H107	H	0.888560	0.410266	0.412191
	H108	H	0.910246	0.625193	0.099321
	H109	H	0.105027	0.389758	0.092023
	H110	H	0.093209	0.621530	0.908650
	H111	H	0.915952	0.391958	0.908194
	H112	H	0.105301	0.921115	0.617544
	H113	H	0.106207	0.095017	0.385042
	H114	H	0.912789	0.107952	0.619425
	H115	H	0.913288	0.913334	0.384952
	H116	H	0.617681	0.091213	0.913919
	H117	H	0.390075	0.100201	0.096476
	H118	H	0.620623	0.915157	0.090474
	H119	H	0.388649	0.914505	0.902691
	C120	C	0.384260	0.015743	0.623860
	C121	C	0.627138	0.998940	0.623126
	C122	C	0.628108	0.015184	0.379990
	C123	C	0.384968	0.998829	0.380802
	C124	C	0.628532	0.384933	0.011166
	C125	C	0.627232	0.628171	0.994289
	C126	C	0.383958	0.629072	0.010454
	C127	C	0.385338	0.385900	0.994373
	C128	C	0.014048	0.628656	0.380224
	C129	C	0.998081	0.629329	0.623249
	C130	C	0.013872	0.386551	0.622476
	C131	C	0.997090	0.385881	0.379598
	C132	C	0.884631	0.515794	0.123279
	C133	C	0.127132	0.498932	0.122918
	C134	C	0.128326	0.515294	0.879631
	C135	C	0.885119	0.499227	0.880568
	C136	C	0.127818	0.885745	0.509868
	C137	C	0.127795	0.129287	0.493383
	C138	C	0.884051	0.129408	0.509606
	C139	C	0.884884	0.886485	0.493369
	C140	C	0.514321	0.128042	0.880925
	C141	C	0.498004	0.129117	0.124613
	C142	C	0.514074	0.885622	0.123712
	C143	C	0.498140	0.885213	0.880612
	C144	C	0.386501	0.892756	0.679251
	C145	C	0.624934	0.121432	0.679367
	C146	C	0.626347	0.892517	0.324467
	C147	C	0.387489	0.121911	0.325793
	C148	C	0.684267	0.387149	0.888379
	C149	C	0.682649	0.626608	0.116741
	C150	C	0.328707	0.627131	0.887627
	C151	C	0.328877	0.388062	0.116849
	C152	C	0.891511	0.684965	0.382869
	C153	C	0.120726	0.684763	0.620668
	C154	C	0.891380	0.331036	0.620840
	C155	C	0.119770	0.329618	0.380877
	C156	C	0.891695	0.388403	0.679148
	C157	C	0.120179	0.627943	0.679304
	C158	C	0.891365	0.627207	0.325134
	C159	C	0.119867	0.387846	0.323782
	C160	C	0.386411	0.684851	0.887937
	C161	C	0.624504	0.683846	0.116997
	C162	C	0.626675	0.329256	0.888517
	C163	C	0.387220	0.331109	0.117457
	C164	C	0.683925	0.892698	0.382350
	C165	C	0.681788	0.121959	0.621125
	C166	C	0.328915	0.892690	0.621632
	C167	C	0.329330	0.121869	0.383057
	C168	C	0.887687	0.392690	0.178337
	C169	C	0.124965	0.621710	0.178874
	C170	C	0.126886	0.393011	0.823442
	C171	C	0.886358	0.621836	0.824997
	C172	C	0.183482	0.887787	0.387083
	C173	C	0.182291	0.127373	0.616407
	C174	C	0.828572	0.127104	0.387252
	C175	C	0.828984	0.888356	0.615841
	C176	C	0.391957	0.184555	0.883906
	C177	C	0.620660	0.183811	0.121817
	C178	C	0.391499	0.830388	0.122196
	C179	C	0.620471	0.829396	0.882596
	C180	C	0.391830	0.887956	0.179930
	C181	C	0.620446	0.126315	0.179313
	C182	C	0.391567	0.127013	0.825905
	C183	C	0.620478	0.886643	0.824244
	C184	C	0.886876	0.183854	0.386538
	C185	C	0.124609	0.185313	0.615953
	C186	C	0.125342	0.830498	0.386890
	C187	C	0.886412	0.830409	0.615804
	C188	C	0.184672	0.392819	0.881207
	C189	C	0.182437	0.621621	0.120935
	C190	C	0.830747	0.392276	0.120438
	C191	C	0.828314	0.621516	0.882150
	C192	C	0.406203	0.101486	0.601824
	C193	C	0.604931	0.913347	0.600373
	C194	C	0.605292	0.101159	0.402473
	C195	C	0.407229	0.913011	0.402858
	C196	C	0.606779	0.407225	0.096947
	C197	C	0.604882	0.605230	0.908961
	C198	C	0.406020	0.606712	0.095987
	C199	C	0.408234	0.408115	0.909136
	C200	C	0.099832	0.606205	0.402134
	C201	C	0.912699	0.606939	0.600896
	C202	C	0.099066	0.409158	0.599691
	C203	C	0.911483	0.407895	0.401792
	C204	C	0.906194	0.601408	0.101350
	C205	C	0.105214	0.413264	0.100452
	C206	C	0.105461	0.600942	0.902587
	C207	C	0.908208	0.413591	0.902823
	C208	C	0.105207	0.908442	0.595366
	C209	C	0.105648	0.106319	0.408011
	C210	C	0.905818	0.107397	0.595263
	C211	C	0.907387	0.908910	0.407838
	C212	C	0.599382	0.105088	0.903057
	C213	C	0.412189	0.107192	0.102540
	C214	C	0.599611	0.907847	0.100791
	C215	C	0.412842	0.908513	0.903487
	Zn216	Zn	0.505663	0.007053	0.751723
	Zn217	Zn	0.506465	0.007310	0.252065
	Zn218	Zn	0.756632	0.507151	0.002491
	Zn219	Zn	0.256330	0.507067	0.001825
	Zn220	Zn	0.006215	0.757543	0.501355
	Zn221	Zn	0.005419	0.257628	0.500832
	Zn222	Zn	0.006357	0.507746	0.751846
	Zn223	Zn	0.005387	0.507465	0.251443
	Zn224	Zn	0.505836	0.757211	0.002295
	Zn225	Zn	0.506499	0.256699	0.003409
	Zn226	Zn	0.755851	0.007720	0.501912
	Zn227	Zn	0.256242	0.007254	0.502331
	N228	N	0.419988	0.970150	0.680697
	N229	N	0.591298	0.044202	0.680260
	N230	N	0.592555	0.970089	0.322823
	N231	N	0.421335	0.044447	0.324221
	N232	N	0.685219	0.421372	0.965417
	N233	N	0.684333	0.592444	0.039496
	N234	N	0.327188	0.593168	0.964925
	N235	N	0.327680	0.421442	0.039481
	N236	N	0.968749	0.686052	0.416173
	N237	N	0.043711	0.685752	0.586462
	N238	N	0.968361	0.329886	0.586210
	N239	N	0.042523	0.328037	0.414572
	N240	N	0.968847	0.422221	0.680210
	N241	N	0.042976	0.594269	0.680961
	N242	N	0.968650	0.592873	0.323606
	N243	N	0.042882	0.422326	0.323029
	N244	N	0.419974	0.686181	0.965178
	N245	N	0.590847	0.685080	0.039832
	N246	N	0.592805	0.327689	0.965846
	N247	N	0.421556	0.329312	0.040241
	N248	N	0.684783	0.969904	0.416250
	N249	N	0.683480	0.044549	0.586841
	N250	N	0.327430	0.970044	0.587896
	N251	N	0.327660	0.044352	0.416613
	N252	N	0.920636	0.470320	0.179972
	N253	N	0.091348	0.544423	0.180304
	N254	N	0.092986	0.470391	0.822172
	N255	N	0.920992	0.544654	0.823950
	N256	N	0.185172	0.921464	0.464640
	N257	N	0.184384	0.093382	0.539247
	N258	N	0.826978	0.093740	0.464659
	N259	N	0.828098	0.922515	0.538870
	N260	N	0.469179	0.185421	0.917470
	N261	N	0.543293	0.185422	0.088502
	N262	N	0.468762	0.828854	0.087852
	N263	N	0.543522	0.828653	0.916868
	N264	N	0.468951	0.921524	0.180945
	N265	N	0.543162	0.092894	0.180915
	N266	N	0.468528	0.092684	0.823800
	N267	N	0.543157	0.920676	0.822730
	N268	N	0.920746	0.185457	0.463615
	N269	N	0.091521	0.186727	0.538379
	N270	N	0.091563	0.829035	0.464106
	N271	N	0.920581	0.829164	0.538576
	N272	N	0.185608	0.470108	0.915378
	N273	N	0.183721	0.544454	0.086639
	N274	N	0.828683	0.469675	0.086885
	N275	N	0.827629	0.544353	0.916197
	O276	O	0.461064	0.451805	0.570611
	H277	H	0.466171	0.444234	0.560364
	H278	H	0.461511	0.449359	0.569226
	O279	O	0.028840	-0.041879	-0.069972
	H280	H	0.035594	-0.053638	-0.070939
	H281	H	0.033601	-0.029906	-0.062034
	O282	O	0.495284	0.511790	0.564912
	H283	H	0.488159	0.510868	0.558211
	H284	H	0.493425	0.508064	0.567283
	O285	O	0.506194	0.487220	0.561170
	H286	H	0.498446	0.491143	0.561124
	H287	H	0.500028	0.479323	0.567892
	O288	O	0.996361	-0.021451	-0.069848
	H289	H	0.998392	-0.027511	-0.073345
	H290	H	0.991950	-0.026254	-0.076436
	O291	O	-0.525384	0.461002	-0.438385
	H292	H	-0.530958	0.463502	-0.433651
	H293	H	-0.532555	0.454639	-0.433725
	O294	O	0.431228	0.452984	0.597709
	H295	H	0.427684	0.461632	0.597586
	H296	H	0.428247	0.451279	0.604196
	O297	O	0.014424	0.992248	-0.053422
	H298	H	0.014064	0.997436	-0.053953
	H299	H	0.009319	0.997277	-0.054857
	O300	O	1.072482	-0.035721	0.923245
	H301	H	1.075094	-0.032993	0.918485
	H302	H	1.073425	-0.026879	0.920430
	O303	O	0.504629	0.485894	0.563404
	H304	H	0.510328	0.494537	0.569731
	H305	H	0.510459	0.485219	0.562232
	O306	O	-0.002117	0.982594	0.949268
	H307	H	-0.006061	0.969694	0.953119
	H308	H	-0.003646	0.976282	0.942419
	O309	O	0.455416	0.537263	0.566505
	H310	H	0.451759	0.530242	0.562913
	H311	H	0.457537	0.538409	0.557953
