data_Molecule from HDF5

_cell_length_a		16.367848
_cell_length_b		16.304645
_cell_length_c		16.185981
_cell_angle_alpha	90.061421
_cell_angle_beta	90.008264
_cell_angle_gamma	89.819967
_symmetry_space_group_name_H-M	'P 1'
_symmetry_Int_Tables_number		1

loop_
	_symmetry_equiv_pos_as_xyz
	x,y,z

loop_
	_atom_site_label
	_atom_site_type_symbol
	_atom_site_fract_x
	_atom_site_fract_y
	_atom_site_fract_z
	H0	H	0.395494	0.833736	0.719634
	H1	H	0.588222	0.161647	0.719567
	H2	H	0.589178	0.833150	0.294335
	H3	H	0.395178	0.161746	0.293935
	H4	H	0.708542	0.396195	0.842662
	H5	H	0.707612	0.597003	0.170799
	H6	H	0.279007	0.596478	0.842177
	H7	H	0.278114	0.398013	0.170310
	H8	H	0.830370	0.712682	0.407148
	H9	H	0.156573	0.712743	0.605585
	H10	H	0.830895	0.282796	0.606459
	H11	H	0.155811	0.281383	0.406490
	H12	H	0.829862	0.401944	0.719598
	H13	H	0.157111	0.595779	0.722038
	H14	H	0.830173	0.596143	0.291355
	H15	H	0.157116	0.400962	0.293098
	H16	H	0.393900	0.711216	0.842413
	H17	H	0.588845	0.709685	0.171621
	H18	H	0.591629	0.282030	0.842126
	H19	H	0.395405	0.284818	0.171163
	H20	H	0.709571	0.835059	0.405829
	H21	H	0.708674	0.160530	0.608441
	H22	H	0.277004	0.834550	0.605882
	H23	H	0.275761	0.160819	0.406531
	H24	H	0.897593	0.333556	0.219951
	H25	H	0.089169	0.661107	0.218599
	H26	H	0.091877	0.333557	0.791542
	H27	H	0.896205	0.662066	0.794453
	H28	H	0.207133	0.898905	0.341730
	H29	H	0.206904	0.096491	0.670915
	H30	H	0.778813	0.096697	0.341639
	H31	H	0.779057	0.900521	0.671026
	H32	H	0.329964	0.212854	0.907489
	H33	H	0.655469	0.212434	0.106963
	H34	H	0.329286	0.782346	0.106370
	H35	H	0.655879	0.781288	0.908311
	H36	H	0.328589	0.900663	0.220223
	H37	H	0.655678	0.093854	0.221382
	H38	H	0.329211	0.095101	0.791934
	H39	H	0.656468	0.898241	0.791777
	H40	H	0.894162	0.213016	0.342678
	H41	H	0.090922	0.210896	0.670994
	H42	H	0.090635	0.784317	0.341473
	H43	H	0.894272	0.784209	0.671653
	H44	H	0.210507	0.334493	0.904975
	H45	H	0.208136	0.659911	0.106284
	H46	H	0.778245	0.334238	0.107294
	H47	H	0.774938	0.659768	0.905885
	H48	H	0.402998	0.115605	0.608397
	H49	H	0.592016	0.880866	0.596016
	H50	H	0.585525	0.112232	0.418616
	H51	H	0.398665	0.883933	0.421280
	H52	H	0.585960	0.407607	0.123120
	H53	H	0.584370	0.590890	0.889341
	H54	H	0.399934	0.585826	0.122797
	H55	H	0.400574	0.399308	0.888205
	H56	H	0.110599	0.596242	0.414950
	H57	H	0.877534	0.595032	0.598454
	H58	H	0.108019	0.404949	0.595251
	H59	H	0.877904	0.400108	0.417928
	H60	H	0.108947	0.406857	0.600311
	H61	H	0.879110	0.589455	0.598402
	H62	H	0.107280	0.587926	0.415811
	H63	H	0.881005	0.411250	0.415668
	H64	H	0.402701	0.592330	0.123657
	H65	H	0.586956	0.587254	0.889425
	H66	H	0.583706	0.402046	0.123078
	H67	H	0.397174	0.407406	0.888693
	H68	H	0.590462	0.115814	0.412337
	H69	H	0.585886	0.880442	0.602513
	H70	H	0.403493	0.109355	0.590534
	H71	H	0.391403	0.878413	0.410112
	H72	H	0.896105	0.611061	0.088573
	H73	H	0.087523	0.379874	0.101526
	H74	H	0.085395	0.609940	0.925994
	H75	H	0.900929	0.382261	0.915545
	H76	H	0.079279	0.907297	0.620657
	H77	H	0.078346	0.091211	0.390550
	H78	H	0.892933	0.093638	0.626091
	H79	H	0.895593	0.906693	0.389106
	H80	H	0.607583	0.090819	0.916789
	H81	H	0.376393	0.088304	0.102525
	H82	H	0.607106	0.904028	0.097763
	H83	H	0.377704	0.913719	0.905611
	H84	H	0.608959	0.902969	0.104559
	H85	H	0.375000	0.095627	0.101534
	H86	H	0.607489	0.086902	0.913956
	H87	H	0.372949	0.893436	0.909450
	H88	H	0.900533	0.082226	0.621221
	H89	H	0.089160	0.095746	0.386619
	H90	H	0.087306	0.899055	0.626313
	H91	H	0.903624	0.908181	0.391939
	H92	H	0.097126	0.616996	0.911203
	H93	H	0.084961	0.381566	0.096530
	H94	H	0.892328	0.617486	0.105155
	H95	H	0.898176	0.380256	0.913425
	H96	H	0.388465	0.116544	0.597432
	H97	H	0.583629	0.884185	0.594885
	H98	H	0.582194	0.114139	0.410724
	H99	H	0.405192	0.882266	0.407960
	H100	H	0.588660	0.402569	0.124709
	H101	H	0.583133	0.587054	0.890749
	H102	H	0.395896	0.591077	0.125777
	H103	H	0.405238	0.405905	0.890790
	H104	H	0.110657	0.591008	0.407729
	H105	H	0.877881	0.592338	0.603201
	H106	H	0.110078	0.401091	0.599184
	H107	H	0.875123	0.404241	0.407874
	H108	H	0.909049	0.611226	0.101246
	H109	H	0.089865	0.380317	0.096921
	H110	H	0.078072	0.612855	0.907474
	H111	H	0.901443	0.381543	0.911449
	H112	H	0.091142	0.910239	0.622394
	H113	H	0.088158	0.083991	0.390333
	H114	H	0.906858	0.095230	0.622506
	H115	H	0.901890	0.900550	0.388585
	H116	H	0.609317	0.090846	0.911683
	H117	H	0.377907	0.091536	0.096257
	H118	H	0.609434	0.897577	0.100273
	H119	H	0.381334	0.905302	0.924935
	C120	C	0.370310	0.006006	0.627480
	C121	C	0.614809	0.989541	0.627707
	C122	C	0.614426	0.005958	0.385179
	C123	C	0.369946	0.989405	0.384746
	C124	C	0.614762	0.375085	0.014850
	C125	C	0.613315	0.617401	0.998488
	C126	C	0.371260	0.618365	0.015165
	C127	C	0.372292	0.376080	0.997910
	C128	C	0.001739	0.619955	0.384165
	C129	C	0.985495	0.620516	0.628981
	C130	C	0.001611	0.376112	0.628006
	C131	C	0.985495	0.376402	0.384731
	C132	C	0.871598	0.505429	0.127575
	C133	C	0.115233	0.488428	0.127567
	C134	C	0.115298	0.505419	0.885019
	C135	C	0.871469	0.489362	0.885151
	C136	C	0.114006	0.876854	0.514324
	C137	C	0.114030	0.118871	0.497890
	C138	C	0.871012	0.119807	0.514991
	C139	C	0.871648	0.876639	0.498425
	C140	C	0.500675	0.118328	0.885098
	C141	C	0.484265	0.119632	0.129142
	C142	C	0.500439	0.874610	0.128898
	C143	C	0.484942	0.875188	0.884782
	C144	C	0.374446	0.882614	0.681989
	C145	C	0.610606	0.112436	0.683195
	C146	C	0.610655	0.882441	0.331047
	C147	C	0.373649	0.112734	0.330655
	C148	C	0.670252	0.376691	0.891570
	C149	C	0.669016	0.616377	0.121787
	C150	C	0.316199	0.616856	0.891365
	C151	C	0.316804	0.378469	0.121596
	C152	C	0.878926	0.674467	0.387088
	C153	C	0.107992	0.675140	0.626352
	C154	C	0.879210	0.321160	0.626493
	C155	C	0.107533	0.320253	0.386639
	C156	C	0.878933	0.380253	0.682758
	C157	C	0.108389	0.616713	0.683852
	C158	C	0.879050	0.616934	0.329069
	C159	C	0.108123	0.379274	0.329967
	C160	C	0.373596	0.673634	0.891413
	C161	C	0.610150	0.672631	0.122243
	C162	C	0.612107	0.319954	0.891099
	C163	C	0.374585	0.321643	0.121812
	C164	C	0.670361	0.883346	0.386570
	C165	C	0.670401	0.111947	0.627911
	C166	C	0.315295	0.883073	0.625775
	C167	C	0.314510	0.112374	0.386784
	C168	C	0.876069	0.382254	0.182302
	C169	C	0.111292	0.612027	0.182020
	C170	C	0.112705	0.382612	0.829294
	C171	C	0.874361	0.612745	0.830897
	C172	C	0.168788	0.879049	0.390504
	C173	C	0.169133	0.116669	0.621778
	C174	C	0.816182	0.117062	0.391227
	C175	C	0.817000	0.879642	0.622111
	C176	C	0.378253	0.174425	0.887135
	C177	C	0.606973	0.174163	0.126900
	C178	C	0.377883	0.820314	0.126267
	C179	C	0.607304	0.819241	0.887491
	C180	C	0.377485	0.879415	0.182817
	C181	C	0.607115	0.115355	0.183578
	C182	C	0.377925	0.115877	0.829811
	C183	C	0.607576	0.877309	0.829432
	C184	C	0.873319	0.175108	0.391467
	C185	C	0.111369	0.173479	0.621993
	C186	C	0.111089	0.821973	0.390636
	C187	C	0.874293	0.821987	0.622283
	C188	C	0.171607	0.382970	0.885764
	C189	C	0.170022	0.611387	0.125886
	C190	C	0.816589	0.382823	0.126551
	C191	C	0.814412	0.611500	0.886538
	C192	C	0.391902	0.091732	0.605348
	C193	C	0.593451	0.903930	0.604573
	C194	C	0.592630	0.091824	0.407404
	C195	C	0.391917	0.903699	0.406799
	C196	C	0.592568	0.397525	0.101440
	C197	C	0.591250	0.594915	0.911966
	C198	C	0.392968	0.596112	0.101621
	C199	C	0.394458	0.397759	0.911536
	C200	C	0.087313	0.598276	0.406406
	C201	C	0.900388	0.598639	0.606759
	C202	C	0.086958	0.397813	0.605003
	C203	C	0.900016	0.398685	0.407202
	C204	C	0.892909	0.591108	0.104901
	C205	C	0.093816	0.402702	0.105041
	C206	C	0.093276	0.591203	0.908096
	C207	C	0.893699	0.403431	0.907146
	C208	C	0.092348	0.899042	0.600967
	C209	C	0.091791	0.096798	0.411526
	C210	C	0.893646	0.097145	0.601101
	C211	C	0.893832	0.898605	0.412173
	C212	C	0.586025	0.096065	0.907406
	C213	C	0.398597	0.098237	0.106712
	C214	C	0.586375	0.895399	0.107161
	C215	C	0.399552	0.897429	0.906904
	Zn216	Zn	0.492744	-0.002691	0.755744
	Zn217	Zn	0.492398	-0.002576	0.256879
	Zn218	Zn	0.742582	0.496608	0.006902
	Zn219	Zn	0.243982	0.497284	0.006482
	Zn220	Zn	-0.006731	0.748553	0.506042
	Zn221	Zn	-0.006827	0.247135	0.506554
	Zn222	Zn	-0.006104	0.497786	0.757211
	Zn223	Zn	-0.006146	0.497637	0.255668
	Zn224	Zn	0.491789	0.745699	0.006634
	Zn225	Zn	0.492988	0.247569	0.006739
	Zn226	Zn	0.743263	-0.001652	0.506884
	Zn227	Zn	0.241688	-0.002109	0.506277
	N228	N	0.407992	0.959893	0.683072
	N229	N	0.576750	0.035343	0.682929
	N230	N	0.576255	0.959600	0.330283
	N231	N	0.407637	0.035375	0.329458
	N232	N	0.672002	0.410007	0.969609
	N233	N	0.670971	0.582691	0.043838
	N234	N	0.314647	0.583264	0.969272
	N235	N	0.315179	0.411585	0.043531
	N236	N	0.956067	0.676359	0.420692
	N237	N	0.030753	0.677521	0.592798
	N238	N	0.956509	0.318310	0.593250
	N239	N	0.030256	0.318407	0.420111
	N240	N	0.956028	0.413718	0.683833
	N241	N	0.031267	0.583331	0.685497
	N242	N	0.956424	0.583692	0.327073
	N243	N	0.031187	0.413544	0.328926
	N244	N	0.407047	0.674756	0.969409
	N245	N	0.576326	0.673488	0.044389
	N246	N	0.578367	0.318850	0.969000
	N247	N	0.408639	0.320239	0.044109
	N248	N	0.672671	0.961073	0.419634
	N249	N	0.672898	0.034632	0.593811
	N250	N	0.312674	0.960690	0.592553
	N251	N	0.312238	0.034698	0.419797
	N252	N	0.909510	0.459630	0.183316
	N253	N	0.077666	0.534794	0.182903
	N254	N	0.078453	0.459786	0.828883
	N255	N	0.909133	0.535900	0.829991
	N256	N	0.170777	0.912467	0.468624
	N257	N	0.170608	0.083334	0.543834
	N258	N	0.814548	0.083640	0.469238
	N259	N	0.815044	0.912650	0.544068
	N260	N	0.455420	0.176221	0.920756
	N261	N	0.529473	0.176728	0.093539
	N262	N	0.455254	0.817389	0.093263
	N263	N	0.530156	0.817784	0.921137
	N264	N	0.454796	0.912435	0.184609
	N265	N	0.529963	0.082271	0.185021
	N266	N	0.454943	0.081780	0.828728
	N267	N	0.530584	0.911571	0.827705
	N268	N	0.906970	0.176619	0.469275
	N269	N	0.077723	0.175027	0.543895
	N270	N	0.077674	0.820741	0.468618
	N271	N	0.907780	0.820019	0.544238
	N272	N	0.173203	0.460317	0.919691
	N273	N	0.172559	0.533579	0.092700
	N274	N	0.814126	0.460239	0.093061
	N275	N	0.812648	0.533767	0.919755
	O276	O	1.015705	0.978073	-0.036019
	H277	H	1.015998	0.976587	-0.029361
	H278	H	1.008508	0.979943	-0.035796
	O279	O	0.007316	-0.010585	-0.065158
	H280	H	0.001837	-0.013547	-0.064531
	H281	H	0.008042	-0.013578	-0.066754
	O282	O	0.026415	-0.066413	0.976562
	H283	H	0.021607	-0.062012	0.966358
	H284	H	0.020577	-0.069263	0.980678
	O285	O	0.969515	0.969921	-0.079712
	H286	H	0.974629	0.967721	-0.076314
	H287	H	0.979439	0.969691	-0.073060
	O288	O	0.581443	0.488017	0.526609
	H289	H	0.574248	0.479935	0.534563
	H290	H	0.582878	0.487363	0.527541
	O291	O	0.521793	0.520188	0.476892
	H292	H	0.538740	0.527834	0.478447
	H293	H	0.515873	0.520409	0.488301
	O294	O	-0.018288	-0.019106	0.044536
	H295	H	-0.011982	-0.019323	0.042573
	H296	H	-0.021480	-0.024698	0.052433
	O297	O	0.535380	0.578060	0.537990
	H298	H	0.535405	0.583005	0.546737
	H299	H	0.543202	0.575367	0.537249
	O300	O	0.006929	0.962604	0.951594
	H301	H	0.012051	0.971331	0.950373
	H302	H	0.003814	0.959492	0.938941
	O303	O	0.489884	0.567374	0.535654
	H304	H	0.490342	0.576753	0.530336
	H305	H	0.491694	0.561879	0.533468
	O306	O	-0.039515	-0.033726	1.018762
	H307	H	-0.040504	-0.036082	1.019821
	H308	H	-0.028279	-0.032526	1.014847
	O309	O	1.514472	0.540346	0.517003
	H310	H	1.510166	0.540636	0.510268
	H311	H	1.516279	0.548466	0.513236
	O312	O	0.574863	0.494578	0.534122
	H313	H	0.581544	0.481264	0.532983
	H314	H	0.578168	0.495118	0.524531
	O315	O	0.602414	0.529689	0.550247
	H316	H	0.598324	0.538067	0.545157
	H317	H	0.602322	0.534185	0.556925
	O318	O	-0.056264	0.990871	-0.014006
	H319	H	-0.064215	1.003155	-0.009911
	H320	H	-0.056256	0.984070	-0.027070
	O321	O	0.999400	1.037805	-0.011716
	H322	H	0.996850	1.029761	-0.005021
	H323	H	0.999688	1.037896	-0.017578
