data_Molecule from HDF5

_cell_length_a		16.300555
_cell_length_b		16.289355
_cell_length_c		16.309674
_cell_angle_alpha	90.023191
_cell_angle_beta	89.855115
_cell_angle_gamma	90.220998
_symmetry_space_group_name_H-M	'P 1'
_symmetry_Int_Tables_number		1

loop_
	_symmetry_equiv_pos_as_xyz
	x,y,z

loop_
	_atom_site_label
	_atom_site_type_symbol
	_atom_site_fract_x
	_atom_site_fract_y
	_atom_site_fract_z
	H0	H	0.410824	0.844434	0.714075
	H1	H	0.609638	0.171257	0.716197
	H2	H	0.608881	0.844754	0.284132
	H3	H	0.410282	0.171614	0.285534
	H4	H	0.721957	0.411662	0.837936
	H5	H	0.721934	0.607839	0.164679
	H6	H	0.293443	0.606790	0.837104
	H7	H	0.291381	0.409326	0.163817
	H8	H	0.844772	0.722440	0.404626
	H9	H	0.172608	0.723123	0.598704
	H10	H	0.846087	0.291564	0.601181
	H11	H	0.173797	0.296665	0.403106
	H12	H	0.844559	0.410061	0.715165
	H13	H	0.172053	0.608112	0.715831
	H14	H	0.843814	0.605530	0.288511
	H15	H	0.171128	0.410040	0.284078
	H16	H	0.410271	0.722372	0.836446
	H17	H	0.605486	0.723372	0.164501
	H18	H	0.605550	0.295527	0.837331
	H19	H	0.406741	0.293198	0.164293
	H20	H	0.724643	0.844651	0.400674
	H21	H	0.725205	0.171499	0.599743
	H22	H	0.293091	0.845074	0.600419
	H23	H	0.293791	0.171402	0.400919
	H24	H	0.907062	0.344587	0.216906
	H25	H	0.105165	0.672817	0.214616
	H26	H	0.106305	0.345242	0.786022
	H27	H	0.910955	0.672410	0.788191
	H28	H	0.223513	0.910635	0.337274
	H29	H	0.224237	0.105462	0.664881
	H30	H	0.794912	0.108171	0.338125
	H31	H	0.792693	0.908198	0.664403
	H32	H	0.344050	0.222097	0.902332
	H33	H	0.671496	0.224575	0.098671
	H34	H	0.344336	0.793793	0.098808
	H35	H	0.671533	0.794034	0.900816
	H36	H	0.345242	0.908907	0.217105
	H37	H	0.671490	0.110426	0.216093
	H38	H	0.344831	0.106133	0.785398
	H39	H	0.671754	0.911267	0.785993
	H40	H	0.912208	0.223527	0.337908
	H41	H	0.107816	0.222904	0.665495
	H42	H	0.108727	0.793229	0.338268
	H43	H	0.910805	0.794211	0.665492
	H44	H	0.221753	0.344802	0.902599
	H45	H	0.223270	0.672457	0.100066
	H46	H	0.791547	0.344685	0.100007
	H47	H	0.795793	0.672820	0.904672
	H48	H	0.418836	0.123703	0.591363
	H49	H	0.594388	0.892961	0.595108
	H50	H	0.605664	0.124043	0.411135
	H51	H	0.420994	0.894409	0.409260
	H52	H	0.599937	0.421093	0.115595
	H53	H	0.603248	0.602292	0.884101
	H54	H	0.407277	0.590530	0.115207
	H55	H	0.412763	0.416652	0.884722
	H56	H	0.123239	0.603443	0.415752
	H57	H	0.891316	0.602649	0.599671
	H58	H	0.127801	0.407636	0.596043
	H59	H	0.892922	0.419780	0.405731
	H60	H	0.121601	0.419746	0.586477
	H61	H	0.891929	0.604800	0.592154
	H62	H	0.122557	0.593335	0.404880
	H63	H	0.889612	0.408790	0.406774
	H64	H	0.428076	0.599911	0.112157
	H65	H	0.602611	0.601974	0.884294
	H66	H	0.594707	0.413319	0.116951
	H67	H	0.416623	0.416334	0.886540
	H68	H	0.604293	0.125660	0.403983
	H69	H	0.603341	0.893188	0.586507
	H70	H	0.415128	0.124961	0.591999
	H71	H	0.413829	0.892411	0.412691
	H72	H	0.925049	0.624196	0.103868
	H73	H	0.108554	0.390245	0.092024
	H74	H	0.108594	0.626981	0.906608
	H75	H	0.915787	0.389892	0.900395
	H76	H	0.088257	0.916978	0.612575
	H77	H	0.102674	0.101852	0.385505
	H78	H	0.924778	0.096778	0.613782
	H79	H	0.924429	0.911392	0.387016
	H80	H	0.625834	0.101692	0.900840
	H81	H	0.392087	0.105750	0.088775
	H82	H	0.624337	0.912549	0.090897
	H83	H	0.390107	0.909909	0.906501
	H84	H	0.621940	0.919417	0.090316
	H85	H	0.394915	0.093520	0.092868
	H86	H	0.624363	0.108424	0.912058
	H87	H	0.393582	0.915738	0.912649
	H88	H	0.917049	0.109629	0.619396
	H89	H	0.103137	0.103036	0.385197
	H90	H	0.107323	0.902970	0.623337
	H91	H	0.911436	0.912774	0.383016
	H92	H	0.096112	0.624912	0.903190
	H93	H	0.095250	0.391903	0.102569
	H94	H	0.917171	0.620062	0.083135
	H95	H	0.919710	0.394831	0.912510
	H96	H	0.417475	0.124276	0.595239
	H97	H	0.605905	0.889819	0.597915
	H98	H	0.598752	0.121829	0.408341
	H99	H	0.415166	0.891063	0.404411
	H100	H	0.603814	0.413288	0.119493
	H101	H	0.602785	0.602578	0.884510
	H102	H	0.410489	0.612887	0.121321
	H103	H	0.414525	0.412788	0.883927
	H104	H	0.127728	0.607285	0.402007
	H105	H	0.893683	0.597488	0.594236
	H106	H	0.125694	0.422345	0.602546
	H107	H	0.894733	0.414178	0.415458
	H108	H	0.903203	0.628826	0.099181
	H109	H	0.094191	0.396956	0.085646
	H110	H	0.100562	0.622736	0.915402
	H111	H	0.906363	0.391051	0.910301
	H112	H	0.111514	0.927490	0.616598
	H113	H	0.103981	0.101995	0.385517
	H114	H	0.909314	0.096248	0.617808
	H115	H	0.918560	0.923661	0.388228
	H116	H	0.620812	0.095683	0.911008
	H117	H	0.389756	0.102776	0.101364
	H118	H	0.625004	0.917226	0.096439
	H119	H	0.391964	0.918326	0.904128
	C120	C	0.387609	0.016484	0.621917
	C121	C	0.630794	0.999916	0.621948
	C122	C	0.631797	0.016083	0.378450
	C123	C	0.387963	1.000303	0.379849
	C124	C	0.628553	0.387902	0.009454
	C125	C	0.630537	0.630965	0.992614
	C126	C	0.386879	0.629655	0.008220
	C127	C	0.385311	0.386400	0.992722
	C128	C	0.016314	0.630046	0.379734
	C129	C	1.000283	0.630351	0.623285
	C130	C	0.016857	0.387458	0.623140
	C131	C	1.000868	0.386881	0.380165
	C132	C	0.885562	0.516320	0.123783
	C133	C	0.128682	0.500770	0.122344
	C134	C	0.129599	0.516952	0.879507
	C135	C	0.886554	0.500309	0.879981
	C136	C	0.131186	0.886817	0.509785
	C137	C	0.131826	0.130618	0.493130
	C138	C	0.888660	0.129799	0.509285
	C139	C	0.888395	0.886605	0.493724
	C140	C	0.516205	0.130397	0.878742
	C141	C	0.500218	0.130347	0.122955
	C142	C	0.516236	0.887101	0.122085
	C143	C	0.499710	0.886792	0.879019
	C144	C	0.389996	0.893438	0.676958
	C145	C	0.629354	0.122618	0.677548
	C146	C	0.629075	0.893510	0.322312
	C147	C	0.390147	0.123107	0.324122
	C148	C	0.684072	0.390803	0.886537
	C149	C	0.684497	0.628409	0.115801
	C150	C	0.331712	0.627121	0.885580
	C151	C	0.329565	0.389069	0.115321
	C152	C	0.893674	0.685125	0.383029
	C153	C	0.123554	0.685398	0.619688
	C154	C	0.894309	0.330972	0.620574
	C155	C	0.124361	0.333360	0.382321
	C156	C	0.893648	0.389709	0.677383
	C157	C	0.123242	0.628421	0.677983
	C158	C	0.892929	0.626685	0.325802
	C159	C	0.123098	0.389789	0.323372
	C160	C	0.389471	0.684673	0.885327
	C161	C	0.626748	0.686035	0.115664
	C162	C	0.626196	0.333154	0.886229
	C163	C	0.387035	0.331283	0.115445
	C164	C	0.686659	0.893328	0.380453
	C165	C	0.686876	0.122745	0.619828
	C166	C	0.331563	0.893675	0.620236
	C167	C	0.332181	0.122769	0.381442
	C168	C	0.887055	0.393285	0.178760
	C169	C	0.126305	0.623660	0.177474
	C170	C	0.126889	0.393860	0.824015
	C171	C	0.890237	0.623692	0.825810
	C172	C	0.186254	0.889461	0.386344
	C173	C	0.186741	0.127376	0.616162
	C174	C	0.833376	0.128046	0.386663
	C175	C	0.831630	0.888250	0.615949
	C176	C	0.392908	0.184714	0.881468
	C177	C	0.622869	0.186465	0.119528
	C178	C	0.393314	0.831516	0.120010
	C179	C	0.622797	0.831916	0.880746
	C180	C	0.393712	0.888930	0.178394
	C181	C	0.623008	0.129341	0.177531
	C182	C	0.393506	0.127202	0.823318
	C183	C	0.622848	0.890121	0.823612
	C184	C	0.891795	0.184899	0.386490
	C185	C	0.128835	0.185298	0.616491
	C186	C	0.129040	0.831299	0.386919
	C187	C	0.890315	0.831695	0.616537
	C188	C	0.183888	0.393579	0.882133
	C189	C	0.184763	0.623668	0.120260
	C190	C	0.829524	0.393448	0.120884
	C191	C	0.833169	0.623836	0.883893
	C192	C	0.410404	0.102296	0.599277
	C193	C	0.607941	0.914193	0.599589
	C194	C	0.609457	0.101779	0.401170
	C195	C	0.410192	0.914798	0.402109
	C196	C	0.606126	0.409698	0.095027
	C197	C	0.609195	0.608887	0.906489
	C198	C	0.408900	0.607657	0.093945
	C199	C	0.408110	0.408553	0.907196
	C200	C	0.102301	0.607946	0.401072
	C201	C	0.914425	0.608184	0.601764
	C202	C	0.102899	0.409972	0.601479
	C203	C	0.914604	0.408165	0.402595
	C204	C	0.908481	0.602154	0.101880
	C205	C	0.106114	0.415148	0.099917
	C206	C	0.108135	0.602691	0.901821
	C207	C	0.907792	0.414114	0.901302
	C208	C	0.108916	0.909193	0.595473
	C209	C	0.109753	0.108763	0.407614
	C210	C	0.910623	0.107383	0.594778
	C211	C	0.911428	0.909236	0.408142
	C212	C	0.601675	0.108469	0.901292
	C213	C	0.414457	0.107512	0.100779
	C214	C	0.601710	0.909721	0.099140
	C215	C	0.414191	0.908324	0.901235
	Zn216	Zn	0.508520	0.008298	0.750233
	Zn217	Zn	0.509309	0.008588	0.250642
	Zn218	Zn	0.758110	0.508881	0.001702
	Zn219	Zn	0.257844	0.508627	0.000938
	Zn220	Zn	0.009217	0.758257	0.501566
	Zn221	Zn	0.010010	0.259094	0.501589
	Zn222	Zn	0.008318	0.508828	0.751777
	Zn223	Zn	0.007586	0.508094	0.251855
	Zn224	Zn	0.507967	0.758362	0.000137
	Zn225	Zn	0.507477	0.258645	0.001099
	Zn226	Zn	0.759986	0.007974	0.500991
	Zn227	Zn	0.259307	0.007989	0.501001
	N228	N	0.424083	0.970829	0.678135
	N229	N	0.595035	0.045429	0.678782
	N230	N	0.595920	0.971175	0.320837
	N231	N	0.424131	0.046106	0.323074
	N232	N	0.685490	0.424234	0.964104
	N233	N	0.687063	0.595195	0.038348
	N234	N	0.329958	0.593587	0.963012
	N235	N	0.328544	0.422783	0.037957
	N236	N	0.971311	0.687027	0.415893
	N237	N	0.046033	0.686665	0.586450
	N238	N	0.971991	0.329544	0.587493
	N239	N	0.047206	0.331466	0.416845
	N240	N	0.970864	0.424117	0.678941
	N241	N	0.045715	0.594723	0.680179
	N242	N	0.970421	0.593378	0.323497
	N243	N	0.045269	0.422234	0.322157
	N244	N	0.423191	0.686131	0.962581
	N245	N	0.594012	0.687795	0.037978
	N246	N	0.592192	0.331305	0.963514
	N247	N	0.420884	0.329451	0.038157
	N248	N	0.688598	0.970521	0.414295
	N249	N	0.687696	0.045399	0.585572
	N250	N	0.330168	0.971094	0.586680
	N251	N	0.331021	0.045585	0.415778
	N252	N	0.921137	0.470594	0.180643
	N253	N	0.092106	0.546404	0.178739
	N254	N	0.093720	0.471341	0.822584
	N255	N	0.922636	0.545865	0.823391
	N256	N	0.187538	0.923306	0.463697
	N257	N	0.188523	0.093986	0.538633
	N258	N	0.831291	0.094310	0.463993
	N259	N	0.830408	0.921738	0.538527
	N260	N	0.470343	0.186951	0.915118
	N261	N	0.545406	0.187065	0.086105
	N262	N	0.470421	0.830404	0.085631
	N263	N	0.545386	0.829586	0.914524
	N264	N	0.471185	0.922742	0.179711
	N265	N	0.545796	0.095059	0.179508
	N266	N	0.471058	0.094322	0.821567
	N267	N	0.545489	0.923548	0.822397
	N268	N	0.925445	0.186197	0.463621
	N269	N	0.095779	0.187690	0.539014
	N270	N	0.095640	0.829495	0.464536
	N271	N	0.924877	0.830642	0.539421
	N272	N	0.185874	0.471114	0.915901
	N273	N	0.186315	0.546148	0.086641
	N274	N	0.828606	0.471022	0.087431
	N275	N	0.830774	0.546134	0.916978
	O276	O	0.522274	0.413399	0.479514
	H277	H	0.519390	0.410714	0.464581
	H278	H	0.530990	0.406994	0.486088
	O279	O	-0.094854	-0.024524	0.107210
	H280	H	-0.087061	-0.042139	0.108084
	H281	H	-0.098524	-0.029527	0.112612
	O282	O	0.525310	0.450506	0.482705
	H283	H	0.524351	0.448838	0.484068
	H284	H	0.519714	0.451143	0.493138
	O285	O	0.490352	0.439803	0.483047
	H286	H	0.483585	0.437624	0.483481
	H287	H	0.500544	0.437796	0.485987
	O288	O	0.895832	-0.007255	0.115561
	H289	H	0.899259	-0.009697	0.111892
	H290	H	0.892254	-0.012555	0.113766
	O291	O	-0.549391	0.491142	-0.522883
	H292	H	-0.557501	0.484368	-0.536060
	H293	H	-0.548061	0.505411	-0.540106
	O294	O	0.510214	0.431716	0.471584
	H295	H	0.500567	0.433203	0.478097
	H296	H	0.509003	0.423116	0.478768
	O297	O	-0.091987	0.970857	0.062334
	H298	H	-0.090071	0.967783	0.073163
	H299	H	-0.104937	0.980520	0.061974
	O300	O	0.951646	-0.035241	1.087383
	H301	H	0.953768	-0.030939	1.097820
	H302	H	0.953166	-0.037790	1.091827
	O303	O	0.501226	0.480869	0.440650
	H304	H	0.508354	0.480100	0.429291
	H305	H	0.509012	0.472795	0.447017
	O306	O	-0.079267	0.976925	1.113890
	H307	H	-0.084674	0.979071	1.118431
	H308	H	-0.086585	0.983142	1.109533
	O309	O	0.477858	0.492960	0.473542
	H310	H	0.472904	0.492355	0.482074
	H311	H	0.476072	0.496596	0.477289
