data_Molecule from HDF5

_cell_length_a		16.312337
_cell_length_b		16.287583
_cell_length_c		16.317872
_cell_angle_alpha	89.984854
_cell_angle_beta	89.986739
_cell_angle_gamma	90.009836
_symmetry_space_group_name_H-M	'P 1'
_symmetry_Int_Tables_number		1

loop_
	_symmetry_equiv_pos_as_xyz
	x,y,z

loop_
	_atom_site_label
	_atom_site_type_symbol
	_atom_site_fract_x
	_atom_site_fract_y
	_atom_site_fract_z
	H0	H	0.405050	0.841195	0.708466
	H1	H	0.600524	0.168866	0.708327
	H2	H	0.599130	0.841416	0.280573
	H3	H	0.404738	0.169600	0.280442
	H4	H	0.715564	0.407972	0.831217
	H5	H	0.715937	0.602852	0.158239
	H6	H	0.287074	0.603387	0.831544
	H7	H	0.287160	0.406566	0.157478
	H8	H	0.838888	0.719092	0.396640
	H9	H	0.165494	0.719827	0.593793
	H10	H	0.838230	0.290991	0.592563
	H11	H	0.166397	0.291668	0.398200
	H12	H	0.839091	0.406167	0.709987
	H13	H	0.165821	0.602659	0.709812
	H14	H	0.839117	0.602468	0.280200
	H15	H	0.165772	0.406229	0.280421
	H16	H	0.404020	0.719548	0.830715
	H17	H	0.600163	0.719168	0.158588
	H18	H	0.600355	0.291005	0.831171
	H19	H	0.403631	0.290289	0.158153
	H20	H	0.716426	0.841206	0.395908
	H21	H	0.717385	0.168108	0.592645
	H22	H	0.288257	0.840787	0.592747
	H23	H	0.288480	0.168656	0.397003
	H24	H	0.905520	0.340904	0.208372
	H25	H	0.100951	0.668270	0.209480
	H26	H	0.100997	0.341172	0.780888
	H27	H	0.904265	0.667963	0.780316
	H28	H	0.216678	0.906353	0.330506
	H29	H	0.215804	0.102101	0.658376
	H30	H	0.787782	0.103619	0.330498
	H31	H	0.788387	0.907079	0.657442
	H32	H	0.339590	0.219624	0.895349
	H33	H	0.665634	0.219756	0.092899
	H34	H	0.338500	0.790339	0.092935
	H35	H	0.666502	0.791285	0.898033
	H36	H	0.338771	0.907140	0.208601
	H37	H	0.665464	0.104024	0.209672
	H38	H	0.339360	0.103086	0.780066
	H39	H	0.665884	0.906010	0.779432
	H40	H	0.905082	0.219265	0.330641
	H41	H	0.099020	0.217929	0.658430
	H42	H	0.100699	0.789866	0.331317
	H43	H	0.903948	0.791066	0.657988
	H44	H	0.217190	0.341185	0.896844
	H45	H	0.216779	0.668817	0.092838
	H46	H	0.788406	0.340710	0.092786
	H47	H	0.789019	0.668501	0.897126
	H48	H	0.410615	0.117715	0.577666
	H49	H	0.599322	0.889804	0.581471
	H50	H	0.596474	0.120299	0.406832
	H51	H	0.403537	0.888853	0.406686
	H52	H	0.592977	0.411857	0.109936
	H53	H	0.595896	0.596019	0.879278
	H54	H	0.414731	0.598913	0.108926
	H55	H	0.404587	0.409081	0.876850
	H56	H	0.122169	0.599209	0.389403
	H57	H	0.884350	0.601560	0.591225
	H58	H	0.120309	0.403391	0.587545
	H59	H	0.884718	0.414892	0.395580
	H60	H	0.115971	0.415139	0.583572
	H61	H	0.887438	0.599024	0.582571
	H62	H	0.119006	0.607470	0.410311
	H63	H	0.884461	0.404139	0.401762
	H64	H	0.405876	0.602463	0.112733
	H65	H	0.593547	0.601254	0.878540
	H66	H	0.595735	0.409360	0.112063
	H67	H	0.408917	0.418214	0.879866
	H68	H	0.598956	0.123409	0.397907
	H69	H	0.597939	0.885901	0.593317
	H70	H	0.398679	0.124518	0.591224
	H71	H	0.406661	0.885104	0.392571
	H72	H	0.904307	0.622193	0.087665
	H73	H	0.094004	0.386800	0.093271
	H74	H	0.094202	0.619934	0.903456
	H75	H	0.906661	0.385710	0.896197
	H76	H	0.098252	0.902467	0.613900
	H77	H	0.090694	0.104101	0.378116
	H78	H	0.915484	0.097959	0.607802
	H79	H	0.908350	0.904532	0.375144
	H80	H	0.616698	0.095970	0.905479
	H81	H	0.384257	0.099257	0.094302
	H82	H	0.623035	0.914386	0.104247
	H83	H	0.388238	0.915765	0.904978
	H84	H	0.620267	0.896085	0.080382
	H85	H	0.386787	0.102311	0.081229
	H86	H	0.619666	0.095692	0.896666
	H87	H	0.385496	0.913225	0.895555
	H88	H	0.906428	0.103405	0.612763
	H89	H	0.103546	0.100279	0.374989
	H90	H	0.102847	0.918419	0.610496
	H91	H	0.903523	0.918026	0.378464
	H92	H	0.097695	0.622102	0.901997
	H93	H	0.090920	0.390878	0.084745
	H94	H	0.909402	0.622073	0.092083
	H95	H	0.914360	0.389937	0.902931
	H96	H	0.417436	0.121467	0.595211
	H97	H	0.588935	0.890837	0.586982
	H98	H	0.589749	0.119899	0.399414
	H99	H	0.416583	0.890989	0.400711
	H100	H	0.596498	0.413419	0.110325
	H101	H	0.598885	0.600249	0.876803
	H102	H	0.406993	0.593124	0.109692
	H103	H	0.414890	0.409255	0.879537
	H104	H	0.113705	0.585747	0.405408
	H105	H	0.887179	0.592609	0.589847
	H106	H	0.119636	0.413787	0.595746
	H107	H	0.889012	0.414705	0.406779
	H108	H	0.910818	0.620397	0.086007
	H109	H	0.100535	0.387993	0.085059
	H110	H	0.094279	0.621229	0.899338
	H111	H	0.903800	0.388388	0.906789
	H112	H	0.086917	0.913246	0.607531
	H113	H	0.094901	0.091581	0.380560
	H114	H	0.905703	0.092064	0.609385
	H115	H	0.916922	0.914211	0.381536
	H116	H	0.620258	0.103317	0.900945
	H117	H	0.389264	0.089996	0.085154
	H118	H	0.611522	0.924954	0.077965
	H119	H	0.385246	0.905949	0.902884
	C120	C	0.380575	0.012913	0.615942
	C121	C	0.623996	0.996688	0.615809
	C122	C	0.623408	0.013223	0.372682
	C123	C	0.380753	0.996706	0.371989
	C124	C	0.623782	0.383357	0.002928
	C125	C	0.623961	0.626803	0.986661
	C126	C	0.380814	0.626706	0.002689
	C127	C	0.380652	0.383218	0.986399
	C128	C	0.010427	0.625926	0.373313
	C129	C	0.994304	0.626296	0.616689
	C130	C	0.010441	0.382607	0.616914
	C131	C	0.994228	0.382863	0.372942
	C132	C	0.880496	0.513152	0.116478
	C133	C	0.124105	0.496837	0.116274
	C134	C	0.124065	0.513180	0.873464
	C135	C	0.880650	0.496078	0.873452
	C136	C	0.124128	0.883113	0.502547
	C137	C	0.123990	0.126191	0.486212
	C138	C	0.880927	0.126352	0.502076
	C139	C	0.880928	0.883504	0.486051
	C140	C	0.510894	0.126531	0.872801
	C141	C	0.494467	0.125832	0.115270
	C142	C	0.510500	0.883304	0.116242
	C143	C	0.494351	0.883304	0.872997
	C144	C	0.383931	0.889897	0.670663
	C145	C	0.621245	0.119822	0.670656
	C146	C	0.620664	0.890126	0.317783
	C147	C	0.383944	0.120368	0.317852
	C148	C	0.678595	0.386505	0.880126
	C149	C	0.678416	0.623852	0.109439
	C150	C	0.325404	0.624021	0.879812
	C151	C	0.325567	0.386090	0.109362
	C152	C	0.887565	0.680752	0.376189
	C153	C	0.116897	0.681625	0.614490
	C154	C	0.887388	0.328331	0.613630
	C155	C	0.117488	0.328775	0.376746
	C156	C	0.887642	0.385672	0.671712
	C157	C	0.117050	0.623219	0.671908
	C158	C	0.887564	0.622806	0.318588
	C159	C	0.117061	0.385522	0.318105
	C160	C	0.383440	0.681749	0.879676
	C161	C	0.620308	0.681201	0.109607
	C162	C	0.620644	0.329114	0.879754
	C163	C	0.383164	0.328172	0.109208
	C164	C	0.678370	0.889913	0.375533
	C165	C	0.679540	0.119532	0.613523
	C166	C	0.326372	0.889608	0.612735
	C167	C	0.326230	0.120116	0.375692
	C168	C	0.883938	0.389707	0.170881
	C169	C	0.121460	0.619562	0.171625
	C170	C	0.121290	0.389776	0.818860
	C171	C	0.883788	0.619398	0.818375
	C172	C	0.179080	0.885638	0.379464
	C173	C	0.178609	0.123319	0.609400
	C174	C	0.825743	0.123952	0.379179
	C175	C	0.825607	0.886006	0.608672
	C176	C	0.388038	0.181401	0.875488
	C177	C	0.616899	0.181997	0.113636
	C178	C	0.387089	0.828755	0.113128
	C179	C	0.617604	0.828754	0.876426
	C180	C	0.387349	0.886199	0.170978
	C181	C	0.617114	0.124081	0.171049
	C182	C	0.387935	0.123545	0.818010
	C183	C	0.617405	0.885888	0.817963
	C184	C	0.883700	0.181539	0.379219
	C185	C	0.120167	0.180518	0.609643
	C186	C	0.121427	0.827863	0.379794
	C187	C	0.883362	0.828536	0.608879
	C188	C	0.179288	0.389936	0.876162
	C189	C	0.178950	0.619744	0.113573
	C190	C	0.826065	0.389711	0.113443
	C191	C	0.826671	0.619749	0.876521
	C192	C	0.402289	0.099181	0.594221
	C193	C	0.601878	0.910928	0.593784
	C194	C	0.601648	0.099045	0.394932
	C195	C	0.402347	0.910578	0.393559
	C196	C	0.601634	0.405196	0.088794
	C197	C	0.602534	0.605303	0.900274
	C198	C	0.402770	0.604546	0.088299
	C199	C	0.402726	0.405627	0.900872
	C200	C	0.096341	0.603864	0.395294
	C201	C	0.908442	0.604062	0.594613
	C202	C	0.096512	0.404386	0.595329
	C203	C	0.908259	0.404725	0.395068
	C204	C	0.901976	0.599437	0.094875
	C205	C	0.101695	0.410775	0.094237
	C206	C	0.102079	0.598754	0.895224
	C207	C	0.902056	0.410231	0.895275
	C208	C	0.102479	0.904899	0.588507
	C209	C	0.102696	0.104812	0.400106
	C210	C	0.902664	0.104165	0.587685
	C211	C	0.903105	0.905611	0.400267
	C212	C	0.596845	0.104721	0.894538
	C213	C	0.408867	0.103719	0.093242
	C214	C	0.596117	0.905202	0.094121
	C215	C	0.408470	0.905137	0.894661
	Zn216	Zn	0.502660	0.004871	0.744491
	Zn217	Zn	0.502194	0.005044	0.244167
	Zn218	Zn	0.752266	0.505004	-0.005177
	Zn219	Zn	0.252342	0.505046	-0.005303
	Zn220	Zn	0.002079	0.754913	0.494608
	Zn221	Zn	0.002399	0.254851	0.494532
	Zn222	Zn	0.002277	0.504032	0.745630
	Zn223	Zn	0.002388	0.504219	0.244523
	Zn224	Zn	0.502283	0.755261	-0.005354
	Zn225	Zn	0.502322	0.254661	-0.005924
	Zn226	Zn	0.752189	0.004729	0.494006
	Zn227	Zn	0.252637	0.004527	0.494014
	N228	N	0.417035	0.967538	0.672617
	N229	N	0.587762	0.042313	0.672457
	N230	N	0.587367	0.967722	0.315926
	N231	N	0.417098	0.042543	0.315479
	N232	N	0.680294	0.419861	0.957614
	N233	N	0.680350	0.590641	0.032015
	N234	N	0.323660	0.590527	0.957195
	N235	N	0.324114	0.419793	0.032019
	N236	N	0.964985	0.682688	0.409475
	N237	N	0.039693	0.683367	0.580727
	N238	N	0.964755	0.326627	0.579934
	N239	N	0.040003	0.327138	0.410096
	N240	N	0.965178	0.418683	0.673711
	N241	N	0.039494	0.589778	0.673594
	N242	N	0.965145	0.589545	0.316537
	N243	N	0.039460	0.418537	0.315879
	N244	N	0.417078	0.683439	0.956977
	N245	N	0.587017	0.682994	0.032088
	N246	N	0.587597	0.326784	0.957269
	N247	N	0.416608	0.326344	0.031878
	N248	N	0.680168	0.967451	0.409085
	N249	N	0.681060	0.042127	0.579840
	N250	N	0.324294	0.967280	0.579478
	N251	N	0.324112	0.042423	0.408629
	N252	N	0.917123	0.467281	0.172723
	N253	N	0.088123	0.541893	0.173358
	N254	N	0.087668	0.467277	0.817000
	N255	N	0.916753	0.541637	0.816622
	N256	N	0.180711	0.919446	0.456790
	N257	N	0.180962	0.090224	0.531769
	N258	N	0.823961	0.090248	0.456594
	N259	N	0.823991	0.919651	0.531358
	N260	N	0.465601	0.183297	0.908685
	N261	N	0.539732	0.182859	0.079366
	N262	N	0.464635	0.826671	0.079852
	N263	N	0.540312	0.827218	0.910103
	N264	N	0.464892	0.919392	0.172880
	N265	N	0.540088	0.089850	0.172109
	N266	N	0.465307	0.090027	0.816298
	N267	N	0.539656	0.918756	0.815542
	N268	N	0.917246	0.183098	0.456434
	N269	N	0.087088	0.182720	0.531999
	N270	N	0.088171	0.826099	0.457247
	N271	N	0.916878	0.826853	0.531473
	N272	N	0.180833	0.467418	0.909653
	N273	N	0.180515	0.542303	0.079897
	N274	N	0.823613	0.467595	0.080461
	N275	N	0.824477	0.542216	0.909973
	O276	O	1.051616	0.047192	0.974713
	H277	H	1.054749	0.039165	0.972175
	H278	H	1.055352	0.050968	0.975703
	O279	O	0.043507	0.054936	1.000025
	H280	H	0.052746	0.054404	1.004587
	H281	H	0.035841	0.058626	1.010063
	O282	O	1.026850	1.061489	-0.012297
	H283	H	1.034992	1.063622	-0.018090
	H284	H	1.024956	1.062817	-0.014958
	O285	O	0.032687	0.058654	1.009057
	H286	H	0.029100	0.053840	1.002784
	H287	H	0.029878	0.067110	1.011621
