data_Molecule from HDF5

_cell_length_a		16.320691
_cell_length_b		16.290002
_cell_length_c		16.313404
_cell_angle_alpha	89.825782
_cell_angle_beta	90.262763
_cell_angle_gamma	90.249271
_symmetry_space_group_name_H-M	'P 1'
_symmetry_Int_Tables_number		1

loop_
	_symmetry_equiv_pos_as_xyz
	x,y,z

loop_
	_atom_site_label
	_atom_site_type_symbol
	_atom_site_fract_x
	_atom_site_fract_y
	_atom_site_fract_z
	H0	H	0.406733	0.847246	0.711358
	H1	H	0.605997	0.173595	0.711594
	H2	H	0.602531	0.846843	0.282152
	H3	H	0.407610	0.174090	0.281547
	H4	H	0.717814	0.413564	0.832545
	H5	H	0.724118	0.610051	0.159002
	H6	H	0.290223	0.609391	0.832697
	H7	H	0.290805	0.410886	0.159331
	H8	H	0.841741	0.724257	0.396703
	H9	H	0.168430	0.723273	0.593847
	H10	H	0.842787	0.293486	0.594754
	H11	H	0.168774	0.295799	0.398426
	H12	H	0.842389	0.408268	0.710810
	H13	H	0.168097	0.608816	0.711464
	H14	H	0.842606	0.608513	0.278969
	H15	H	0.169239	0.413659	0.283777
	H16	H	0.407572	0.725477	0.833198
	H17	H	0.605770	0.725218	0.160085
	H18	H	0.602712	0.296796	0.833488
	H19	H	0.407982	0.295995	0.160239
	H20	H	0.719683	0.846530	0.397695
	H21	H	0.722641	0.172814	0.596126
	H22	H	0.289662	0.846857	0.596272
	H23	H	0.290794	0.173933	0.396720
	H24	H	0.907190	0.345974	0.209840
	H25	H	0.105609	0.673298	0.210248
	H26	H	0.102255	0.345969	0.783016
	H27	H	0.907570	0.672608	0.779981
	H28	H	0.219053	0.912391	0.333405
	H29	H	0.221337	0.108317	0.659469
	H30	H	0.789477	0.109539	0.333809
	H31	H	0.791080	0.909680	0.659884
	H32	H	0.341702	0.224209	0.898386
	H33	H	0.668732	0.225413	0.095173
	H34	H	0.342311	0.793895	0.094674
	H35	H	0.668829	0.797263	0.898523
	H36	H	0.341187	0.911249	0.209852
	H37	H	0.668207	0.110507	0.212259
	H38	H	0.341642	0.108074	0.781628
	H39	H	0.668344	0.912874	0.782341
	H40	H	0.907225	0.224270	0.333546
	H41	H	0.105651	0.224504	0.659834
	H42	H	0.103750	0.795421	0.333129
	H43	H	0.907844	0.794305	0.660201
	H44	H	0.218461	0.346334	0.899445
	H45	H	0.221415	0.673132	0.094097
	H46	H	0.790794	0.346354	0.093806
	H47	H	0.791264	0.673467	0.895529
	H48	H	0.417288	0.125069	0.587031
	H49	H	0.594691	0.892985	0.596428
	H50	H	0.596722	0.126100	0.402936
	H51	H	0.408239	0.893576	0.404085
	H52	H	0.591728	0.417587	0.111318
	H53	H	0.598437	0.608474	0.880302
	H54	H	0.412775	0.605979	0.113635
	H55	H	0.410995	0.423665	0.881916
	H56	H	0.122136	0.609209	0.404611
	H57	H	0.892614	0.600123	0.578736
	H58	H	0.122335	0.415046	0.591904
	H59	H	0.887588	0.415012	0.396927
	H60	H	0.120874	0.416922	0.587703
	H61	H	0.889019	0.593895	0.594706
	H62	H	0.119858	0.600605	0.405878
	H63	H	0.889254	0.412493	0.407922
	H64	H	0.410165	0.599622	0.112005
	H65	H	0.601387	0.602992	0.879768
	H66	H	0.603907	0.412843	0.115291
	H67	H	0.416978	0.414200	0.881562
	H68	H	0.598962	0.125238	0.405744
	H69	H	0.592920	0.896985	0.584357
	H70	H	0.409347	0.126484	0.585456
	H71	H	0.412346	0.894120	0.400201
	H72	H	0.912222	0.624892	0.081547
	H73	H	0.091621	0.395391	0.089544
	H74	H	0.101434	0.626278	0.906500
	H75	H	0.913779	0.396475	0.912041
	H76	H	0.097258	0.914046	0.613023
	H77	H	0.104851	0.105100	0.378065
	H78	H	0.914373	0.095485	0.610918
	H79	H	0.909132	0.905848	0.376867
	H80	H	0.622877	0.103596	0.895597
	H81	H	0.389983	0.102776	0.088414
	H82	H	0.621114	0.918974	0.092028
	H83	H	0.392775	0.923131	0.910329
	H84	H	0.620037	0.917049	0.087862
	H85	H	0.388505	0.103211	0.090542
	H86	H	0.622132	0.111956	0.907119
	H87	H	0.387642	0.921944	0.893599
	H88	H	0.918664	0.105031	0.611946
	H89	H	0.096125	0.097357	0.382388
	H90	H	0.101006	0.916741	0.613215
	H91	H	0.902313	0.925618	0.380697
	H92	H	0.100473	0.628762	0.898153
	H93	H	0.103969	0.393443	0.083850
	H94	H	0.912790	0.627491	0.092091
	H95	H	0.900968	0.389685	0.901681
	H96	H	0.412255	0.127475	0.592488
	H97	H	0.603777	0.892863	0.587924
	H98	H	0.599834	0.126732	0.402327
	H99	H	0.413003	0.895495	0.405707
	H100	H	0.602075	0.425326	0.111684
	H101	H	0.595884	0.603573	0.881371
	H102	H	0.416955	0.601207	0.110632
	H103	H	0.406261	0.414536	0.876950
	H104	H	0.122904	0.603685	0.397324
	H105	H	0.885493	0.611295	0.590826
	H106	H	0.121426	0.420528	0.591551
	H107	H	0.891812	0.422845	0.403213
	H108	H	0.921831	0.623425	0.086919
	H109	H	0.101790	0.390074	0.097106
	H110	H	0.094095	0.624907	0.902514
	H111	H	0.917621	0.392623	0.894779
	H112	H	0.097265	0.918397	0.611359
	H113	H	0.093398	0.108961	0.380291
	H114	H	0.908482	0.102814	0.614716
	H115	H	0.922477	0.920608	0.385376
	H116	H	0.618289	0.098353	0.908106
	H117	H	0.388676	0.105007	0.089272
	H118	H	0.619979	0.922020	0.088385
	H119	H	0.387523	0.907736	0.903527
	C120	C	0.384049	0.018458	0.617301
	C121	C	0.627186	1.002025	0.618301
	C122	C	0.627062	0.018389	0.374857
	C123	C	0.383083	1.002039	0.374612
	C124	C	0.626660	0.389977	0.004642
	C125	C	0.628500	0.633505	0.987981
	C126	C	0.384320	0.631502	0.004403
	C127	C	0.383767	0.389049	0.988329
	C128	C	0.013669	0.632052	0.373904
	C129	C	0.996900	0.630530	0.616967
	C130	C	0.013705	0.387986	0.618051
	C131	C	0.997383	0.388703	0.375052
	C132	C	0.885714	0.517947	0.116166
	C133	C	0.127807	0.501280	0.118039
	C134	C	0.126467	0.518147	0.874903
	C135	C	0.882971	0.501164	0.873665
	C136	C	0.126483	0.888430	0.504711
	C137	C	0.127426	0.132210	0.488101
	C138	C	0.884513	0.130610	0.504936
	C139	C	0.883144	0.887714	0.488576
	C140	C	0.513327	0.132953	0.874456
	C141	C	0.496953	0.132634	0.118332
	C142	C	0.513089	0.889426	0.117928
	C143	C	0.496990	0.889612	0.874960
	C144	C	0.386271	0.895820	0.673097
	C145	C	0.625998	0.124761	0.673552
	C146	C	0.623897	0.895523	0.319763
	C147	C	0.386654	0.125277	0.319362
	C148	C	0.680507	0.392881	0.881484
	C149	C	0.685131	0.630612	0.110565
	C150	C	0.328471	0.629639	0.881591
	C151	C	0.329207	0.391114	0.111002
	C152	C	0.890551	0.686478	0.376003
	C153	C	0.119699	0.685822	0.614883
	C154	C	0.891230	0.331677	0.615229
	C155	C	0.120278	0.334052	0.378190
	C156	C	0.890872	0.388992	0.672695
	C157	C	0.119484	0.628494	0.672810
	C158	C	0.891072	0.629300	0.317368
	C159	C	0.120469	0.392116	0.320896
	C160	C	0.386693	0.687286	0.881634
	C161	C	0.626641	0.687843	0.111120
	C162	C	0.623510	0.334766	0.882018
	C163	C	0.386926	0.333588	0.111140
	C164	C	0.681570	0.895396	0.377693
	C165	C	0.683837	0.124368	0.616225
	C166	C	0.328237	0.895667	0.615787
	C167	C	0.328458	0.125245	0.376347
	C168	C	0.886888	0.394765	0.171929
	C169	C	0.125454	0.624507	0.172387
	C170	C	0.123446	0.395012	0.820417
	C171	C	0.886543	0.624131	0.818142
	C172	C	0.180967	0.891672	0.381844
	C173	C	0.183243	0.129269	0.610773
	C174	C	0.827928	0.129367	0.382662
	C175	C	0.828890	0.889609	0.611349
	C176	C	0.390506	0.186909	0.877289
	C177	C	0.619958	0.187923	0.115982
	C178	C	0.390544	0.832706	0.115433
	C179	C	0.620064	0.835006	0.877932
	C180	C	0.390129	0.890979	0.172485
	C181	C	0.619663	0.130663	0.174030
	C182	C	0.390641	0.129586	0.818979
	C183	C	0.619860	0.892606	0.820315
	C184	C	0.886241	0.186427	0.382346
	C185	C	0.125656	0.186593	0.611131
	C186	C	0.123398	0.833867	0.381641
	C187	C	0.886453	0.831915	0.611339
	C188	C	0.180956	0.395248	0.878525
	C189	C	0.183053	0.624415	0.114842
	C190	C	0.828919	0.395109	0.114620
	C191	C	0.828555	0.624276	0.875261
	C192	C	0.406441	0.104168	0.594848
	C193	C	0.603907	0.916388	0.596116
	C194	C	0.605028	0.104074	0.397134
	C195	C	0.404630	0.916470	0.396907
	C196	C	0.605258	0.412004	0.090521
	C197	C	0.605289	0.611577	0.902513
	C198	C	0.406890	0.608987	0.090033
	C199	C	0.405189	0.411049	0.902304
	C200	C	0.099356	0.610771	0.396005
	C201	C	0.911065	0.608128	0.594467
	C202	C	0.099454	0.410817	0.596616
	C203	C	0.911652	0.410487	0.396496
	C204	C	0.908920	0.603196	0.093444
	C205	C	0.105624	0.415205	0.096577
	C206	C	0.105042	0.604499	0.896083
	C207	C	0.904556	0.415175	0.896141
	C208	C	0.105027	0.910136	0.590465
	C209	C	0.104651	0.110409	0.402418
	C210	C	0.907213	0.107878	0.590530
	C211	C	0.904947	0.910518	0.403166
	C212	C	0.599199	0.111088	0.897044
	C213	C	0.411205	0.110312	0.095970
	C214	C	0.598219	0.912537	0.095837
	C215	C	0.411511	0.911102	0.896466
	Zn216	Zn	0.505363	0.010829	0.746113
	Zn217	Zn	0.504924	0.010321	0.246554
	Zn218	Zn	0.756057	0.510393	-0.004158
	Zn219	Zn	0.255346	0.510002	-0.003662
	Zn220	Zn	0.005015	0.759969	0.496447
	Zn221	Zn	0.005768	0.260027	0.496547
	Zn222	Zn	0.004777	0.509020	0.745945
	Zn223	Zn	0.005642	0.509307	0.245917
	Zn224	Zn	0.505705	0.761080	-0.003293
	Zn225	Zn	0.505621	0.261090	-0.003463
	Zn226	Zn	0.755186	0.009722	0.496920
	Zn227	Zn	0.254961	0.010275	0.496233
	N228	N	0.420290	0.973142	0.674163
	N229	N	0.591199	0.047836	0.674668
	N230	N	0.590684	0.972967	0.318007
	N231	N	0.419942	0.047763	0.318067
	N232	N	0.682518	0.426698	0.958732
	N233	N	0.686612	0.597983	0.032939
	N234	N	0.326945	0.595827	0.958994
	N235	N	0.327194	0.424741	0.033647
	N236	N	0.967712	0.688528	0.410132
	N237	N	0.042483	0.687141	0.580948
	N238	N	0.968421	0.330955	0.581872
	N239	N	0.042790	0.331839	0.411086
	N240	N	0.968142	0.423342	0.674600
	N241	N	0.041996	0.594805	0.674158
	N242	N	0.968441	0.596127	0.315910
	N243	N	0.043135	0.425673	0.319054
	N244	N	0.421028	0.688285	0.958817
	N245	N	0.591986	0.689672	0.033978
	N246	N	0.590896	0.332856	0.959622
	N247	N	0.420167	0.332225	0.033741
	N248	N	0.683666	0.972823	0.411034
	N249	N	0.684716	0.047023	0.582598
	N250	N	0.326884	0.973005	0.581642
	N251	N	0.326117	0.047714	0.410046
	N252	N	0.921285	0.472110	0.173256
	N253	N	0.091847	0.546815	0.174694
	N254	N	0.090124	0.472442	0.818087
	N255	N	0.919538	0.546688	0.817079
	N256	N	0.182700	0.925136	0.459089
	N257	N	0.184363	0.096000	0.533358
	N258	N	0.826608	0.095615	0.460041
	N259	N	0.826592	0.923517	0.533996
	N260	N	0.467842	0.189025	0.911001
	N261	N	0.542693	0.189074	0.081915
	N262	N	0.467918	0.831467	0.082420
	N263	N	0.542785	0.832714	0.911060
	N264	N	0.467259	0.925535	0.174132
	N265	N	0.542265	0.096769	0.175435
	N266	N	0.468132	0.096678	0.817216
	N267	N	0.542522	0.925845	0.818230
	N268	N	0.920971	0.187085	0.459311
	N269	N	0.091654	0.188711	0.533858
	N270	N	0.090317	0.831552	0.459034
	N271	N	0.919287	0.830512	0.533872
	N272	N	0.182963	0.473067	0.911365
	N273	N	0.184451	0.546955	0.081720
	N274	N	0.828240	0.472486	0.080512
	N275	N	0.826212	0.546659	0.908920
	O276	O	0.493500	0.554884	0.556779
	H277	H	0.491160	0.549280	0.553710
	H278	H	0.488011	0.564215	0.556708
	O279	O	-0.069042	-0.063148	0.086609
	H280	H	-0.065462	-0.061135	0.082484
	H281	H	-0.061410	-0.059697	0.088465
	O282	O	0.954825	-0.066812	1.087166
	H283	H	0.943574	-0.075881	1.083982
	H284	H	0.955011	-0.068834	1.092777
	O285	O	0.497826	0.504853	0.484634
	H286	H	0.505051	0.504227	0.486608
	H287	H	0.494373	0.493351	0.490413
	O288	O	0.913522	-0.037870	0.075528
	H289	H	0.921652	-0.027217	0.075922
	H290	H	0.921941	-0.041953	0.081226
	O291	O	-0.472670	0.516520	-0.510326
	H292	H	-0.477886	0.513335	-0.505540
	H293	H	-0.468925	0.504024	-0.506476
	O294	O	0.479397	0.523549	0.511334
	H295	H	0.478230	0.524345	0.508860
	H296	H	0.485552	0.522959	0.517589
	O297	O	-0.101174	0.953283	0.052968
	H298	H	-0.110470	0.938170	0.054615
	H299	H	-0.100826	0.955694	0.064291
	O300	O	0.936800	-0.059693	1.081090
	H301	H	0.932312	-0.068880	1.087890
	H302	H	0.928245	-0.054690	1.081060
	O303	O	0.506351	0.544584	0.542846
	H304	H	0.503033	0.554807	0.538375
	H305	H	0.506792	0.544758	0.541125
	O306	O	-0.114513	0.924562	1.051145
	H307	H	-0.118271	0.925589	1.048867
	H308	H	-0.122038	0.919318	1.056043
	O309	O	0.512656	0.530522	0.500739
	H310	H	0.504287	0.532913	0.505793
	H311	H	0.523702	0.537402	0.495033
