data_Molecule from HDF5

_cell_length_a		16.226142
_cell_length_b		16.257979
_cell_length_c		16.310961
_cell_angle_alpha	89.451822
_cell_angle_beta	89.593949
_cell_angle_gamma	90.135251
_symmetry_space_group_name_H-M	'P 1'
_symmetry_Int_Tables_number		1

loop_
	_symmetry_equiv_pos_as_xyz
	x,y,z

loop_
	_atom_site_label
	_atom_site_type_symbol
	_atom_site_fract_x
	_atom_site_fract_y
	_atom_site_fract_z
	H0	H	0.405110	0.828803	0.720578
	H1	H	0.604935	0.155556	0.712178
	H2	H	0.604954	0.826159	0.288777
	H3	H	0.406583	0.153340	0.283967
	H4	H	0.723818	0.394281	0.837759
	H5	H	0.721790	0.588038	0.164395
	H6	H	0.297310	0.590051	0.836248
	H7	H	0.290786	0.390005	0.163264
	H8	H	0.842016	0.704884	0.402242
	H9	H	0.170746	0.705561	0.596360
	H10	H	0.842749	0.276639	0.602453
	H11	H	0.171068	0.277950	0.403272
	H12	H	0.844056	0.389514	0.719125
	H13	H	0.171983	0.588664	0.711716
	H14	H	0.843899	0.591768	0.284527
	H15	H	0.171567	0.393918	0.287413
	H16	H	0.410304	0.708046	0.838484
	H17	H	0.605177	0.703963	0.165118
	H18	H	0.609057	0.277981	0.837768
	H19	H	0.407158	0.274407	0.163958
	H20	H	0.720894	0.826993	0.404418
	H21	H	0.720021	0.154792	0.597149
	H22	H	0.290382	0.827842	0.602735
	H23	H	0.293944	0.155342	0.402760
	H24	H	0.906253	0.328194	0.219566
	H25	H	0.107951	0.655727	0.213232
	H26	H	0.110414	0.327180	0.785960
	H27	H	0.910252	0.653876	0.784934
	H28	H	0.223145	0.894029	0.339079
	H29	H	0.220062	0.088341	0.665545
	H30	H	0.793987	0.090885	0.337886
	H31	H	0.791323	0.890987	0.664365
	H32	H	0.343488	0.207624	0.902902
	H33	H	0.671854	0.204500	0.098960
	H34	H	0.343723	0.773734	0.103872
	H35	H	0.671266	0.780319	0.903321
	H36	H	0.343117	0.888915	0.219094
	H37	H	0.670745	0.088806	0.215482
	H38	H	0.343003	0.092260	0.787071
	H39	H	0.669992	0.893492	0.785749
	H40	H	0.908199	0.208266	0.338570
	H41	H	0.104057	0.204988	0.665890
	H42	H	0.105771	0.780279	0.336948
	H43	H	0.903460	0.772257	0.663188
	H44	H	0.222439	0.326953	0.904236
	H45	H	0.221611	0.655161	0.095093
	H46	H	0.791892	0.327259	0.102533
	H47	H	0.795649	0.654700	0.901686
	H48	H	0.400430	0.111018	0.591015
	H49	H	0.602836	0.871881	0.599791
	H50	H	0.600187	0.104009	0.415996
	H51	H	0.414200	0.875542	0.415849
	H52	H	0.608214	0.398362	0.118698
	H53	H	0.603505	0.580616	0.886477
	H54	H	0.419555	0.583774	0.116630
	H55	H	0.412729	0.406138	0.884932
	H56	H	0.119640	0.583336	0.414104
	H57	H	0.888445	0.581097	0.598571
	H58	H	0.124417	0.403567	0.599584
	H59	H	0.890307	0.400244	0.410904
	H60	H	0.127235	0.389149	0.595269
	H61	H	0.890022	0.585602	0.591533
	H62	H	0.125152	0.581053	0.398578
	H63	H	0.889933	0.400884	0.408619
	H64	H	0.410084	0.585544	0.119448
	H65	H	0.597254	0.589610	0.885492
	H66	H	0.593696	0.402204	0.114418
	H67	H	0.423796	0.398508	0.885812
	H68	H	0.607821	0.111105	0.401398
	H69	H	0.592035	0.875716	0.597946
	H70	H	0.417491	0.110376	0.605938
	H71	H	0.410142	0.872510	0.409976
	H72	H	0.919473	0.605499	0.090259
	H73	H	0.105304	0.373082	0.093716
	H74	H	0.101763	0.607292	0.906090
	H75	H	0.918882	0.375384	0.911792
	H76	H	0.095378	0.896602	0.617317
	H77	H	0.097615	0.084124	0.387450
	H78	H	0.912023	0.088480	0.620115
	H79	H	0.913436	0.908602	0.386831
	H80	H	0.622813	0.079772	0.904219
	H81	H	0.388197	0.096214	0.089972
	H82	H	0.625533	0.891639	0.094733
	H83	H	0.390395	0.899347	0.912612
	H84	H	0.621516	0.901146	0.090376
	H85	H	0.396843	0.073329	0.083478
	H86	H	0.625770	0.088132	0.903285
	H87	H	0.389791	0.900299	0.910708
	H88	H	0.907480	0.080066	0.617954
	H89	H	0.098218	0.088939	0.385535
	H90	H	0.097105	0.896193	0.617786
	H91	H	0.922279	0.894683	0.385901
	H92	H	0.103264	0.608535	0.904581
	H93	H	0.097336	0.374198	0.100998
	H94	H	0.911839	0.607614	0.090860
	H95	H	0.912978	0.373323	0.911385
	H96	H	0.421172	0.103540	0.584763
	H97	H	0.599226	0.875352	0.589830
	H98	H	0.591219	0.106969	0.401757
	H99	H	0.417769	0.874346	0.408569
	H100	H	0.597581	0.388346	0.118914
	H101	H	0.607839	0.589786	0.881302
	H102	H	0.412030	0.576263	0.115797
	H103	H	0.411827	0.392855	0.881564
	H104	H	0.127353	0.595631	0.405921
	H105	H	0.892305	0.577246	0.592403
	H106	H	0.121811	0.399474	0.585134
	H107	H	0.889723	0.398088	0.409251
	H108	H	0.916714	0.608360	0.095603
	H109	H	0.095360	0.377353	0.091138
	H110	H	0.100823	0.607244	0.903402
	H111	H	0.917338	0.372555	0.907205
	H112	H	0.097490	0.898287	0.617269
	H113	H	0.102808	0.085559	0.385298
	H114	H	0.917292	0.080876	0.615873
	H115	H	0.906110	0.895286	0.381175
	H116	H	0.623339	0.085366	0.911142
	H117	H	0.388042	0.077249	0.106572
	H118	H	0.624720	0.900441	0.101181
	H119	H	0.389022	0.898020	0.910606
	C120	C	0.383718	0.000391	0.624304
	C121	C	0.626759	0.982628	0.622678
	C122	C	0.628262	-0.000953	0.379216
	C123	C	0.384998	0.982079	0.380996
	C124	C	0.629640	0.369143	0.009458
	C125	C	0.630474	0.613669	0.992880
	C126	C	0.386460	0.612304	0.009431
	C127	C	0.385855	0.369357	0.992123
	C128	C	0.015711	0.614571	0.377803
	C129	C	0.998854	0.610955	0.621190
	C130	C	0.015980	0.368340	0.623666
	C131	C	0.998637	0.370900	0.380541
	C132	C	0.885869	0.499588	0.123090
	C133	C	0.128956	0.483029	0.122183
	C134	C	0.130464	0.499139	0.878093
	C135	C	0.887985	0.481979	0.880126
	C136	C	0.126847	0.869705	0.509469
	C137	C	0.127598	0.113496	0.493944
	C138	C	0.884151	0.113248	0.510209
	C139	C	0.883999	0.869127	0.492343
	C140	C	0.515660	0.114108	0.878375
	C141	C	0.499147	0.110903	0.121887
	C142	C	0.515583	0.868095	0.124623
	C143	C	0.498332	0.871322	0.881564
	C144	C	0.385080	0.877404	0.681628
	C145	C	0.625152	0.106208	0.675645
	C146	C	0.625404	0.875454	0.326093
	C147	C	0.386979	0.105016	0.323259
	C148	C	0.685822	0.373080	0.886629
	C149	C	0.684598	0.609301	0.115790
	C150	C	0.333218	0.610998	0.885859
	C151	C	0.329051	0.370143	0.114589
	C152	C	0.891622	0.668658	0.380662
	C153	C	0.122009	0.667234	0.617334
	C154	C	0.892197	0.313682	0.622581
	C155	C	0.122067	0.315757	0.383090
	C156	C	0.892942	0.369875	0.680795
	C157	C	0.122725	0.609024	0.674413
	C158	C	0.892490	0.611954	0.322726
	C159	C	0.122431	0.373427	0.325309
	C160	C	0.389922	0.669221	0.886775
	C161	C	0.626558	0.666938	0.116089
	C162	C	0.628625	0.315393	0.886464
	C163	C	0.387228	0.312942	0.115013
	C164	C	0.683120	0.875908	0.383522
	C165	C	0.682226	0.105812	0.618275
	C166	C	0.328262	0.876895	0.623166
	C167	C	0.330460	0.105884	0.382009
	C168	C	0.886601	0.376827	0.180663
	C169	C	0.127580	0.606404	0.175877
	C170	C	0.129707	0.375975	0.823861
	C171	C	0.890365	0.605122	0.823574
	C172	C	0.184404	0.873207	0.387421
	C173	C	0.182400	0.109761	0.616955
	C174	C	0.830561	0.111572	0.387067
	C175	C	0.828571	0.870326	0.615194
	C176	C	0.392516	0.169867	0.881821
	C177	C	0.622767	0.166265	0.119384
	C178	C	0.392415	0.811811	0.123205
	C179	C	0.622023	0.817445	0.883260
	C180	C	0.392069	0.869213	0.180600
	C181	C	0.622079	0.108863	0.177406
	C182	C	0.392241	0.112345	0.824401
	C183	C	0.621190	0.873663	0.824448
	C184	C	0.887589	0.169732	0.387383
	C185	C	0.124710	0.167548	0.616892
	C186	C	0.125955	0.816556	0.386328
	C187	C	0.884553	0.811272	0.614603
	C188	C	0.185549	0.375911	0.882590
	C189	C	0.184313	0.606121	0.117460
	C190	C	0.829832	0.376459	0.122404
	C191	C	0.833093	0.605422	0.881528
	C192	C	0.406327	0.086165	0.600769
	C193	C	0.604501	0.896473	0.602062
	C194	C	0.606239	0.085210	0.400074
	C195	C	0.407270	0.896502	0.404609
	C196	C	0.606636	0.390101	0.095184
	C197	C	0.609168	0.592937	0.906720
	C198	C	0.407690	0.588772	0.095142
	C199	C	0.409156	0.392441	0.906441
	C200	C	0.101603	0.593034	0.399688
	C201	C	0.912684	0.588283	0.600275
	C202	C	0.102369	0.390809	0.600313
	C203	C	0.912168	0.393203	0.403020
	C204	C	0.909213	0.585040	0.099282
	C205	C	0.106075	0.397061	0.101429
	C206	C	0.108483	0.585258	0.898503
	C207	C	0.910076	0.395955	0.903344
	C208	C	0.103485	0.890785	0.595188
	C209	C	0.106037	0.092318	0.408349
	C210	C	0.905842	0.090044	0.595680
	C211	C	0.907148	0.892678	0.406811
	C212	C	0.601796	0.091303	0.899966
	C213	C	0.413161	0.088788	0.099842
	C214	C	0.601684	0.891008	0.101956
	C215	C	0.412014	0.892988	0.904422
	Zn216	Zn	0.506204	-0.007856	0.751271
	Zn217	Zn	0.505968	-0.009899	0.251911
	Zn218	Zn	0.758373	0.490933	0.001214
	Zn219	Zn	0.257895	0.491424	-0.000152
	Zn220	Zn	0.005774	0.740962	0.500471
	Zn221	Zn	0.006331	0.242017	0.502266
	Zn222	Zn	0.008383	0.489883	0.750428
	Zn223	Zn	0.007540	0.491954	0.251183
	Zn224	Zn	0.507222	0.741219	0.002040
	Zn225	Zn	0.507922	0.240763	0.000825
	Zn226	Zn	0.755805	-0.009058	0.501509
	Zn227	Zn	0.255800	-0.008784	0.502357
	N228	N	0.418713	0.955215	0.682455
	N229	N	0.591258	0.028631	0.678385
	N230	N	0.591935	0.953157	0.323296
	N231	N	0.419766	0.027101	0.322242
	N232	N	0.686683	0.405713	0.964049
	N233	N	0.687364	0.577076	0.037984
	N234	N	0.331087	0.575998	0.962963
	N235	N	0.328267	0.404542	0.037248
	N236	N	0.969170	0.670607	0.414174
	N237	N	0.043869	0.668448	0.584945
	N238	N	0.969548	0.312868	0.587818
	N239	N	0.043901	0.314366	0.416795
	N240	N	0.971244	0.402924	0.681729
	N241	N	0.045154	0.574748	0.677015
	N242	N	0.970473	0.579061	0.320776
	N243	N	0.044661	0.406883	0.323621
	N244	N	0.422179	0.670080	0.964624
	N245	N	0.593814	0.669750	0.038650
	N246	N	0.594233	0.312852	0.963848
	N247	N	0.421918	0.312298	0.037719
	N248	N	0.684994	0.953710	0.415901
	N249	N	0.683565	0.027922	0.585984
	N250	N	0.327242	0.954325	0.588241
	N251	N	0.329253	0.028724	0.417377
	N252	N	0.920702	0.454387	0.181170
	N253	N	0.093736	0.528737	0.178969
	N254	N	0.096118	0.453522	0.820840
	N255	N	0.923554	0.527297	0.822483
	N256	N	0.185112	0.905645	0.465036
	N257	N	0.184619	0.077060	0.539517
	N258	N	0.828317	0.076968	0.464342
	N259	N	0.828364	0.905772	0.538286
	N260	N	0.470380	0.171071	0.914710
	N261	N	0.545252	0.167864	0.085661
	N262	N	0.470320	0.810843	0.089120
	N263	N	0.544695	0.815917	0.918208
	N264	N	0.469556	0.903449	0.181717
	N265	N	0.544265	0.074888	0.178849
	N266	N	0.469790	0.078550	0.822160
	N267	N	0.543103	0.906637	0.823419
	N268	N	0.920378	0.170801	0.464914
	N269	N	0.091414	0.169802	0.539509
	N270	N	0.090746	0.814405	0.463239
	N271	N	0.918437	0.810464	0.537093
	N272	N	0.186144	0.453549	0.915650
	N273	N	0.185197	0.528587	0.084584
	N274	N	0.829320	0.453692	0.087126
	N275	N	0.831471	0.527895	0.916041
	O276	O	0.031973	-0.028880	0.024347
	H277	H	0.038512	-0.036143	0.019919
	H278	H	0.037964	-0.029815	0.028199
	O279	O	0.597822	0.504648	0.499082
	H280	H	0.586019	0.496806	0.501019
	H281	H	0.590917	0.503791	0.504014
	O282	O	0.522809	0.497980	0.473021
	H283	H	0.518269	0.490942	0.465568
	H284	H	0.522162	0.498577	0.472281
	O285	O	1.066118	0.029114	0.971946
	H286	H	1.075640	0.032368	0.965391
	H287	H	1.073323	0.033003	0.969400
	O288	O	1.044079	-0.004339	0.010215
	H289	H	1.032804	-0.003027	0.019463
	H290	H	1.052525	-0.000685	0.005855
	O291	O	0.029735	1.055781	0.033644
	H292	H	0.028162	1.060725	0.026378
	H293	H	0.033169	1.053739	0.038512
	O294	O	1.523980	0.534396	1.493095
	H295	H	1.537680	0.543057	1.493051
	H296	H	1.521772	0.533800	1.493873
	O297	O	0.082820	-0.089766	-0.015763
	H298	H	0.079405	-0.078453	-0.024539
	H299	H	0.083638	-0.095022	-0.009343
	O300	O	0.556788	0.440194	0.458804
	H301	H	0.567568	0.432940	0.455773
	H302	H	0.566967	0.444023	0.452514
	O303	O	0.563968	0.565938	0.468423
	H304	H	0.570249	0.564268	0.470517
	H305	H	0.558795	0.564332	0.469533
	O306	O	1.071268	-0.063918	-0.069336
	H307	H	1.061769	-0.068598	-0.066735
	H308	H	1.075090	-0.055141	-0.072081
	O309	O	-0.024283	0.027196	0.928871
	H310	H	-0.022308	0.025676	0.924862
	H311	H	-0.019527	0.027282	0.934526
	O312	O	0.994089	1.044946	1.021827
	H313	H	0.989252	1.044456	1.021766
	H314	H	0.994543	1.052785	1.021776
	O315	O	0.463401	0.458565	0.480855
	H316	H	0.456693	0.464012	0.478235
	H317	H	0.461256	0.458331	0.483252
	O318	O	0.474296	0.479589	0.475745
	H319	H	0.481396	0.480044	0.471834
	H320	H	0.470008	0.476432	0.476108
	O321	O	-0.068733	0.988535	1.036446
	H322	H	-0.064700	0.989359	1.046424
	H323	H	-0.073342	0.976180	1.027956
	O324	O	0.491136	0.482001	0.453943
	H325	H	0.486790	0.475155	0.454102
	H326	H	0.495442	0.486757	0.456235
	O327	O	0.968057	0.987684	0.054345
	H328	H	0.957690	0.988155	0.054311
	H329	H	0.965204	0.988923	0.038663
	O330	O	-0.009917	0.954336	-0.089645
	H331	H	-0.012907	0.950793	-0.081445
	H332	H	-0.010051	0.954714	-0.100184
	O333	O	0.010075	0.920266	1.018726
	H334	H	0.005762	0.935783	1.025582
	H335	H	0.010940	0.911493	1.034464
	O336	O	0.444154	0.442650	0.503785
	H337	H	0.442864	0.443334	0.508021
	H338	H	0.450744	0.446952	0.509000
	O339	O	0.961604	1.031534	0.064563
	H340	H	0.949301	1.035718	0.065015
	H341	H	0.957620	1.019848	0.067909
	O342	O	0.568846	0.630845	0.379179
	H343	H	0.564152	0.640416	0.380633
	H344	H	0.564288	0.621753	0.376850
	O345	O	0.508453	0.469717	0.476231
	H346	H	0.499673	0.469389	0.472828
	H347	H	0.512311	0.472077	0.480689
	O348	O	-0.006284	-0.039486	0.070696
	H349	H	-0.000997	-0.042869	0.060425
	H350	H	-0.004251	-0.033445	0.074616
	O351	O	-0.050859	0.939372	1.047081
	H352	H	-0.045865	0.934756	1.046493
	H353	H	-0.058229	0.937760	1.046164
	O354	O	0.489541	0.406387	0.515019
	H355	H	0.487949	0.411063	0.516101
	H356	H	0.488545	0.417443	0.518042
	O357	O	-0.019058	0.999192	0.975860
	H358	H	-0.024991	1.004574	0.990298
	H359	H	-0.011895	0.990305	0.978977
