data_Molecule from HDF5

_cell_length_a		16.376653
_cell_length_b		16.586070
_cell_length_c		16.292951
_cell_angle_alpha	90.071278
_cell_angle_beta	89.931779
_cell_angle_gamma	89.994785
_symmetry_space_group_name_H-M	'P 1'
_symmetry_Int_Tables_number		1

loop_
	_symmetry_equiv_pos_as_xyz
	x,y,z

loop_
	_atom_site_label
	_atom_site_type_symbol
	_atom_site_fract_x
	_atom_site_fract_y
	_atom_site_fract_z
	H0	H	0.389125	0.836707	0.732720
	H1	H	0.601745	0.151195	0.735695
	H2	H	0.595042	0.835224	0.294759
	H3	H	0.388872	0.151919	0.288059
	H4	H	0.718038	0.386545	0.852855
	H5	H	0.710591	0.594529	0.173944
	H6	H	0.275217	0.598086	0.851129
	H7	H	0.275750	0.390790	0.172789
	H8	H	0.835873	0.715596	0.408017
	H9	H	0.152649	0.717385	0.620467
	H10	H	0.839468	0.268731	0.624516
	H11	H	0.152108	0.269531	0.400432
	H12	H	0.835451	0.392012	0.732348
	H13	H	0.153410	0.601393	0.735051
	H14	H	0.834034	0.596056	0.295890
	H15	H	0.155014	0.391080	0.291940
	H16	H	0.389761	0.714646	0.850913
	H17	H	0.599993	0.715232	0.170132
	H18	H	0.603371	0.269933	0.853003
	H19	H	0.386001	0.270389	0.170436
	H20	H	0.714929	0.836669	0.408362
	H21	H	0.719195	0.151072	0.620610
	H22	H	0.274203	0.836946	0.615490
	H23	H	0.271536	0.151561	0.404206
	H24	H	0.888700	0.336833	0.237769
	H25	H	0.094774	0.652462	0.230680
	H26	H	0.102153	0.338240	0.787751
	H27	H	0.887751	0.651297	0.792467
	H28	H	0.211565	0.892723	0.351467
	H29	H	0.217394	0.100218	0.672164
	H30	H	0.775503	0.100047	0.351804
	H31	H	0.772146	0.890471	0.672042
	H32	H	0.337606	0.218408	0.901374
	H33	H	0.650717	0.220395	0.123064
	H34	H	0.337971	0.771822	0.115876
	H35	H	0.654512	0.772152	0.902493
	H36	H	0.334878	0.892919	0.227787
	H37	H	0.654914	0.098486	0.231658
	H38	H	0.335544	0.097611	0.791370
	H39	H	0.655393	0.891596	0.791114
	H40	H	0.889746	0.217760	0.353883
	H41	H	0.110861	0.223480	0.667991
	H42	H	0.097768	0.774066	0.353881
	H43	H	0.885278	0.772827	0.671771
	H44	H	0.219244	0.337383	0.903839
	H45	H	0.215889	0.651257	0.117521
	H46	H	0.768518	0.338108	0.125113
	H47	H	0.773327	0.650894	0.909911
	H48	H	0.407335	0.105621	0.598967
	H49	H	0.579784	0.884836	0.599406
	H50	H	0.584318	0.108198	0.418738
	H51	H	0.404948	0.882256	0.419275
	H52	H	0.584786	0.404855	0.126309
	H53	H	0.590624	0.580496	0.895504
	H54	H	0.405643	0.585280	0.125645
	H55	H	0.409516	0.408226	0.900821
	H56	H	0.110134	0.589978	0.424780
	H57	H	0.879329	0.589913	0.601149
	H58	H	0.108085	0.409245	0.602530
	H59	H	0.883806	0.406642	0.428261
	H60	H	0.107298	0.405473	0.596371
	H61	H	0.882932	0.582247	0.598668
	H62	H	0.106630	0.584003	0.427019
	H63	H	0.883289	0.405598	0.427661
	H64	H	0.407654	0.583920	0.125201
	H65	H	0.580794	0.579685	0.899388
	H66	H	0.578598	0.409719	0.122707
	H67	H	0.409813	0.402012	0.898307
	H68	H	0.583359	0.105929	0.424907
	H69	H	0.585465	0.884780	0.595671
	H70	H	0.405362	0.106464	0.599384
	H71	H	0.402852	0.882230	0.422029
	H72	H	0.906597	0.604179	0.103286
	H73	H	0.087539	0.380063	0.102079
	H74	H	0.078926	0.606160	0.918820
	H75	H	0.903735	0.380574	0.923225
	H76	H	0.091557	0.902168	0.631372
	H77	H	0.074927	0.084649	0.401570
	H78	H	0.908347	0.081394	0.624850
	H79	H	0.905777	0.902423	0.397872
	H80	H	0.605233	0.077710	0.927407
	H81	H	0.378182	0.089442	0.101966
	H82	H	0.611214	0.901643	0.099484
	H83	H	0.382764	0.905410	0.923145
	H84	H	0.609836	0.904445	0.101515
	H85	H	0.385557	0.082805	0.089541
	H86	H	0.608534	0.082046	0.922505
	H87	H	0.380630	0.902348	0.920008
	H88	H	0.910138	0.082539	0.625195
	H89	H	0.085812	0.088311	0.396547
	H90	H	0.084272	0.910777	0.626116
	H91	H	0.905306	0.906900	0.399255
	H92	H	0.084370	0.602696	0.932423
	H93	H	0.083862	0.380795	0.105010
	H94	H	0.899957	0.605826	0.101668
	H95	H	0.911472	0.383608	0.923146
	H96	H	0.406943	0.106113	0.601168
	H97	H	0.585506	0.882010	0.602448
	H98	H	0.589103	0.108061	0.423013
	H99	H	0.402025	0.880984	0.419130
	H100	H	0.577032	0.401291	0.125084
	H101	H	0.584187	0.588367	0.895085
	H102	H	0.407845	0.585662	0.125437
	H103	H	0.404322	0.405703	0.896982
	H104	H	0.110159	0.584542	0.420113
	H105	H	0.880132	0.583369	0.606621
	H106	H	0.105445	0.412420	0.596584
	H107	H	0.883474	0.406349	0.428525
	H108	H	0.903061	0.606737	0.108883
	H109	H	0.083427	0.381976	0.100723
	H110	H	0.093079	0.609664	0.922308
	H111	H	0.907023	0.383313	0.930055
	H112	H	0.079753	0.899664	0.628078
	H113	H	0.084423	0.076814	0.400626
	H114	H	0.907820	0.083031	0.625513
	H115	H	0.909870	0.904704	0.399840
	H116	H	0.606290	0.084712	0.929002
	H117	H	0.384068	0.075095	0.103338
	H118	H	0.611286	0.902412	0.102986
	H119	H	0.381959	0.900464	0.923988
	C120	C	0.373659	0.002540	0.632575
	C121	C	0.617172	0.986667	0.633640
	C122	C	0.616814	0.003057	0.390495
	C123	C	0.371569	0.986008	0.388278
	C124	C	0.615347	0.371685	0.020296
	C125	C	0.616367	0.614538	1.002692
	C126	C	0.374953	0.615672	0.019373
	C127	C	0.374210	0.372536	1.003656
	C128	C	0.003241	0.616378	0.392525
	C129	C	0.985461	0.617790	0.635568
	C130	C	0.003397	0.374762	0.633323
	C131	C	0.987860	0.373916	0.393157
	C132	C	0.871055	0.501852	0.137406
	C133	C	0.116028	0.485301	0.134207
	C134	C	0.118311	0.502792	0.890161
	C135	C	0.874300	0.486044	0.892976
	C136	C	0.115631	0.873213	0.522047
	C137	C	0.116732	0.116623	0.503809
	C138	C	0.875529	0.115479	0.520414
	C139	C	0.873918	0.873543	0.504666
	C140	C	0.502655	0.114485	0.891481
	C141	C	0.486517	0.115455	0.132648
	C142	C	0.504845	0.871978	0.132042
	C143	C	0.487290	0.872083	0.889509
	C144	C	0.371170	0.884062	0.692663
	C145	C	0.619603	0.104209	0.695055
	C146	C	0.615747	0.883064	0.333083
	C147	C	0.370474	0.104631	0.328347
	C148	C	0.677618	0.368434	0.900847
	C149	C	0.673064	0.614549	0.124609
	C150	C	0.315006	0.616387	0.899032
	C151	C	0.314164	0.370946	0.124205
	C152	C	0.883440	0.675465	0.390174
	C153	C	0.104888	0.677704	0.638634
	C154	C	0.885868	0.311180	0.639500
	C155	C	0.105687	0.311790	0.386009
	C156	C	0.883966	0.372035	0.693950
	C157	C	0.105300	0.619749	0.695666
	C158	C	0.882569	0.615829	0.334316
	C159	C	0.107038	0.372242	0.331587
	C160	C	0.372132	0.674622	0.898967
	C161	C	0.618166	0.674649	0.122848
	C162	C	0.620719	0.310103	0.900948
	C163	C	0.369549	0.311297	0.123117
	C164	C	0.675499	0.883902	0.389355
	C165	C	0.678705	0.103940	0.638044
	C166	C	0.313939	0.883983	0.634280
	C167	C	0.311509	0.104523	0.385997
	C168	C	0.869226	0.384077	0.198114
	C169	C	0.115249	0.604909	0.191992
	C170	C	0.120275	0.385186	0.828458
	C171	C	0.870827	0.604219	0.833111
	C172	C	0.173137	0.872979	0.400296
	C173	C	0.178386	0.119186	0.623652
	C174	C	0.815228	0.118413	0.400166
	C175	C	0.812521	0.872006	0.624434
	C176	C	0.384529	0.176627	0.885682
	C177	C	0.604618	0.177896	0.138224
	C178	C	0.385084	0.812575	0.134041
	C179	C	0.606965	0.812492	0.885780
	C180	C	0.383820	0.872792	0.189735
	C181	C	0.606400	0.117511	0.193008
	C182	C	0.383375	0.116565	0.830703
	C183	C	0.607341	0.871992	0.830141
	C184	C	0.872229	0.176914	0.401214
	C185	C	0.124832	0.180456	0.621722
	C186	C	0.116587	0.814074	0.401399
	C187	C	0.868800	0.813146	0.624233
	C188	C	0.178781	0.384703	0.886350
	C189	C	0.175295	0.604096	0.135564
	C190	C	0.809604	0.384693	0.141575
	C191	C	0.813530	0.603957	0.891378
	C192	C	0.399247	0.084650	0.607225
	C193	C	0.591105	0.904927	0.606715
	C194	C	0.592534	0.085797	0.415236
	C195	C	0.395983	0.903401	0.413100
	C196	C	0.587924	0.397712	0.102959
	C197	C	0.592150	0.590059	0.918414
	C198	C	0.399821	0.591708	0.103429
	C199	C	0.400290	0.397991	0.920512
	C200	C	0.087134	0.592782	0.417047
	C201	C	0.902561	0.592671	0.609703
	C202	C	0.085551	0.401410	0.606254
	C203	C	0.905037	0.399199	0.420600
	C204	C	0.896107	0.584412	0.111955
	C205	C	0.091854	0.402553	0.109650
	C206	C	0.092793	0.584794	0.916880
	C207	C	0.900105	0.403992	0.918286
	C208	C	0.091880	0.897263	0.606544
	C209	C	0.089360	0.090560	0.421136
	C210	C	0.901337	0.089712	0.603540
	C211	C	0.899658	0.897860	0.420943
	C212	C	0.585156	0.088647	0.918471
	C213	C	0.403987	0.089714	0.106034
	C214	C	0.588973	0.895706	0.107922
	C215	C	0.403496	0.895925	0.915058
	Zn216	Zn	0.494712	-0.005656	0.762243
	Zn217	Zn	0.495353	-0.005907	0.260679
	Zn218	Zn	0.744036	0.492557	0.012986
	Zn219	Zn	0.246562	0.494067	0.012592
	Zn220	Zn	-0.005945	0.745146	0.513752
	Zn221	Zn	-0.003430	0.244831	0.513119
	Zn222	Zn	-0.005378	0.495292	0.762510
	Zn223	Zn	-0.005509	0.493701	0.264487
	Zn224	Zn	0.496381	0.743600	0.009998
	Zn225	Zn	0.494516	0.243678	0.011482
	Zn226	Zn	0.746103	-0.004754	0.511475
	Zn227	Zn	0.243542	-0.005180	0.512029
	N228	N	0.407524	0.958741	0.691758
	N229	N	0.582069	0.030006	0.692292
	N230	N	0.580455	0.958225	0.333109
	N231	N	0.406819	0.029903	0.329479
	N232	N	0.674678	0.405839	0.976231
	N233	N	0.671991	0.577806	0.048942
	N234	N	0.316655	0.580294	0.975057
	N235	N	0.316856	0.408266	0.049076
	N236	N	0.959507	0.676041	0.425569
	N237	N	0.029346	0.676817	0.602221
	N238	N	0.961377	0.312672	0.602459
	N239	N	0.030746	0.313063	0.423850
	N240	N	0.957893	0.410824	0.690184
	N241	N	0.029938	0.583106	0.694074
	N242	N	0.958175	0.579903	0.335460
	N243	N	0.032554	0.410293	0.335950
	N244	N	0.408481	0.674397	0.974869
	N245	N	0.583872	0.674891	0.045839
	N246	N	0.582698	0.312101	0.976207
	N247	N	0.405936	0.312043	0.047026
	N248	N	0.676415	0.959624	0.423998
	N249	N	0.677259	0.029895	0.600380
	N250	N	0.315229	0.958533	0.597574
	N251	N	0.312088	0.029842	0.422516
	N252	N	0.906743	0.458047	0.195333
	N253	N	0.079299	0.529983	0.191438
	N254	N	0.083526	0.459746	0.830546
	N255	N	0.908158	0.530039	0.834112
	N256	N	0.172736	0.908855	0.476366
	N257	N	0.173563	0.080196	0.549337
	N258	N	0.817059	0.080899	0.475333
	N259	N	0.815513	0.908944	0.548978
	N260	N	0.459897	0.175518	0.922861
	N261	N	0.529147	0.176938	0.101584
	N262	N	0.461423	0.811908	0.099128
	N263	N	0.531071	0.812354	0.922046
	N264	N	0.459345	0.908917	0.188837
	N265	N	0.531875	0.079401	0.189623
	N266	N	0.457873	0.078732	0.834174
	N267	N	0.532007	0.908249	0.832440
	N268	N	0.908809	0.175461	0.477166
	N269	N	0.087056	0.178760	0.546497
	N270	N	0.081913	0.813840	0.478230
	N271	N	0.906572	0.814444	0.548959
	N272	N	0.177824	0.458979	0.923558
	N273	N	0.176018	0.528720	0.100619
	N274	N	0.810844	0.458959	0.104404
	N275	N	0.815884	0.529609	0.928354
	O276	O	0.484802	0.347688	0.359054
	H277	H	0.471409	0.342338	0.348837
	H278	H	0.467599	0.359674	0.361523
	O279	O	0.667102	0.309596	0.416011
	H280	H	0.668469	0.308339	0.401404
	H281	H	0.672345	0.308697	0.401551
	O282	O	-0.091598	1.098050	0.165917
	H283	H	-0.106628	1.102284	0.157726
	H284	H	-0.113742	1.081692	0.164406
	O285	O	1.138205	0.995850	-0.188763
	H286	H	1.143926	1.006375	-0.180859
	H287	H	1.128308	1.019387	-0.209168
	O288	O	0.747840	0.936302	0.963107
	H289	H	0.751390	0.948916	0.967390
	H290	H	0.738894	0.948061	0.968586
	O291	O	0.525045	0.422943	0.588024
	H292	H	0.522955	0.443444	0.581035
	H293	H	0.519843	0.413678	0.583095
	O294	O	0.839312	1.177004	0.869531
	H295	H	0.828862	1.126965	0.857884
	H296	H	0.876329	1.181168	0.877102
	O297	O	-0.193798	0.789677	0.025877
	H298	H	-0.195561	0.802725	0.011004
	H299	H	-0.207117	0.783239	0.017079
	O300	O	0.297624	0.695941	0.376419
	H301	H	0.284222	0.704590	0.416682
	H302	H	0.294995	0.704459	0.375008
	O303	O	0.368951	0.314019	0.644954
	H304	H	0.368791	0.312438	0.607519
	H305	H	0.387044	0.301966	0.652147
	O306	O	-0.018009	0.206692	0.792518
	H307	H	-0.010328	0.227315	0.802552
	H308	H	-0.038062	0.223206	0.790363
	O309	O	1.175714	-0.176045	0.174169
	H310	H	1.158204	-0.153946	0.162677
	H311	H	1.168965	-0.171860	0.151260
	O312	O	0.604751	0.349722	0.332663
	H313	H	0.604610	0.367575	0.332788
	H314	H	0.582436	0.341357	0.322533
	O315	O	0.290583	0.431854	0.716937
	H316	H	0.284785	0.411142	0.712564
	H317	H	0.290681	0.409933	0.731420
	O318	O	0.211501	0.213556	0.033923
	H319	H	0.230279	0.236748	0.041030
	H320	H	0.212169	0.217389	0.071927
	O321	O	0.625955	0.514249	0.520605
	H322	H	0.597546	0.500159	0.523793
	H323	H	0.625013	0.537965	0.503690
	O324	O	0.637580	0.407922	0.579640
	H325	H	0.624240	0.405824	0.568677
	H326	H	0.650848	0.388838	0.579888
	O327	O	0.547401	0.420854	0.587674
	H328	H	0.557671	0.412729	0.578077
	H329	H	0.543584	0.432081	0.589139
	O330	O	-0.113914	0.958527	0.823420
	H331	H	-0.117763	0.942843	0.815194
	H332	H	-0.091416	0.951987	0.819781
	O333	O	-0.700913	1.495909	0.322166
	H334	H	-0.703360	1.518679	0.316586
	H335	H	-0.719198	1.518471	0.303925
	O336	O	0.949479	0.829939	0.200546
	H337	H	0.947512	0.825265	0.192355
	H338	H	0.925675	0.832993	0.207292
	O339	O	0.014895	0.783767	0.802641
	H340	H	0.018307	0.748747	0.779069
	H341	H	0.021769	0.788027	0.824766
	O342	O	-0.217626	0.943886	0.188517
	H343	H	-0.241299	0.941430	0.219935
	H344	H	-0.214489	0.906860	0.184068
	O345	O	-0.064501	0.207523	1.055355
	H346	H	-0.071272	0.206686	1.044311
	H347	H	-0.075569	0.205421	1.056090
	O348	O	0.635401	0.484536	0.368502
	H349	H	0.607497	0.489724	0.370251
	H350	H	0.642038	0.496015	0.351639
	O351	O	0.940729	0.879935	-0.012284
	H352	H	0.934492	0.888402	0.003474
	H353	H	0.935727	0.870244	-0.014344
	O354	O	0.826349	0.803784	1.214372
	H355	H	0.819834	0.779795	1.232265
	H356	H	0.819969	0.793066	1.173611
	O357	O	0.007277	-0.183678	0.062401
	H358	H	0.035910	-0.189540	0.063419
	H359	H	0.005688	-0.181473	0.064501
	O360	O	0.541825	0.305583	0.628229
	H361	H	0.556293	0.307725	0.614247
	H362	H	0.553137	0.301336	0.620106
	O363	O	1.079854	0.161357	-0.043090
	H364	H	1.106435	0.166661	-0.026484
	H365	H	1.059020	0.166050	-0.030601
	O366	O	-0.142362	-0.010280	0.825592
	H367	H	-0.131630	-0.010187	0.817915
	H368	H	-0.125419	-0.040594	0.816473
	O369	O	0.856287	0.143784	0.998709
	H370	H	0.832357	0.154337	0.982591
	H371	H	0.863842	0.146276	0.972357
	O372	O	1.035836	0.184604	0.200998
	H373	H	1.017905	0.182740	0.203723
	H374	H	1.010986	0.169253	0.197949
	O375	O	0.199458	-0.780233	0.237859
	H376	H	0.165534	-0.774873	0.234569
	H377	H	0.195582	-0.805808	0.243401
	O378	O	0.319329	0.364453	0.554486
	H379	H	0.319194	0.359956	0.541794
	H380	H	0.315703	0.361693	0.547869
	O381	O	0.187934	0.870999	-0.171785
	H382	H	0.166041	0.869623	-0.185407
	H383	H	0.196905	0.908012	-0.169686
	O384	O	0.708447	0.462245	0.420099
	H385	H	0.719476	0.452644	0.417907
	H386	H	0.705514	0.472697	0.401569
	O387	O	0.286177	0.466714	0.435194
	H388	H	0.284323	0.475205	0.419959
	H389	H	0.283068	0.477976	0.437203
	O390	O	0.987403	0.990990	-0.145417
	H391	H	0.980071	1.019563	-0.151967
	H392	H	0.984866	0.993857	-0.143676
	O393	O	1.451520	0.671370	0.448245
	H394	H	1.437941	0.676913	0.476524
	H395	H	1.433972	0.682279	0.440034
	O396	O	0.638497	0.582517	0.426955
	H397	H	0.625152	0.575777	0.422078
	H398	H	0.624971	0.574842	0.435411
	O399	O	0.531795	0.569723	0.419485
	H400	H	0.515047	0.559894	0.435511
	H401	H	0.513956	0.593246	0.422229
	O402	O	1.113688	1.014367	0.175110
	H403	H	1.119701	1.002368	0.182005
	H404	H	1.107508	1.020109	0.184934
	O405	O	0.568392	0.673142	0.636670
	H406	H	0.591949	0.665860	0.639709
	H407	H	0.582549	0.676222	0.633737
	O408	O	0.375341	0.707737	0.484044
	H409	H	0.371177	0.723617	0.497703
	H410	H	0.376991	0.694075	0.510320
	O411	O	0.997647	0.972277	1.155651
	H412	H	0.985849	0.970045	1.154689
	H413	H	0.976775	0.959009	1.154593
	O414	O	0.980555	0.063101	1.045597
	H415	H	0.967504	0.064318	1.050172
	H416	H	0.975783	0.074495	1.040462
	O417	O	0.437211	0.529071	0.537019
	H418	H	0.436186	0.535790	0.549056
	H419	H	0.423752	0.527718	0.543376
	O420	O	0.176824	0.979749	1.113800
	H421	H	0.194817	0.979713	1.111146
	H422	H	0.164762	1.008731	1.109670
	O423	O	0.401512	0.692188	0.305421
	H424	H	0.382409	0.710278	0.290536
	H425	H	0.388549	0.693667	0.317627
	O426	O	0.424681	0.626462	0.581655
	H427	H	0.427208	0.600892	0.568484
	H428	H	0.431270	0.619462	0.605603
	O429	O	0.656017	0.622649	0.667344
	H430	H	0.652146	0.602800	0.652994
	H431	H	0.666541	0.621122	0.659702
	O432	O	0.458191	0.295498	0.450384
	H433	H	0.440943	0.298983	0.454625
	H434	H	0.482403	0.294245	0.460394
	O435	O	0.191928	-0.200413	0.004146
	H436	H	0.196352	-0.187197	-0.017970
	H437	H	0.210700	-0.209242	-0.005175
	O438	O	0.130874	0.930643	0.952111
	H439	H	0.143304	0.927688	0.954013
	H440	H	0.149750	0.954619	0.951595
	O441	O	0.418953	0.566810	0.688087
	H442	H	0.432346	0.569658	0.698801
	H443	H	0.397395	0.556182	0.694742
