data_Molecule from HDF5

_cell_length_a		16.332860
_cell_length_b		16.357048
_cell_length_c		16.349413
_cell_angle_alpha	90.046373
_cell_angle_beta	89.893918
_cell_angle_gamma	89.800330
_symmetry_space_group_name_H-M	'P 1'
_symmetry_Int_Tables_number		1

loop_
	_symmetry_equiv_pos_as_xyz
	x,y,z

loop_
	_atom_site_label
	_atom_site_type_symbol
	_atom_site_fract_x
	_atom_site_fract_y
	_atom_site_fract_z
	H0	H	0.391577	0.825906	0.723756
	H1	H	0.600084	0.145267	0.722770
	H2	H	0.598313	0.824753	0.282823
	H3	H	0.392386	0.147524	0.286300
	H4	H	0.713455	0.384407	0.841140
	H5	H	0.714042	0.591365	0.162973
	H6	H	0.275806	0.592607	0.842630
	H7	H	0.276209	0.386521	0.163669
	H8	H	0.834758	0.706432	0.396811
	H9	H	0.156595	0.702496	0.603812
	H10	H	0.833551	0.267434	0.603338
	H11	H	0.155906	0.264750	0.397169
	H12	H	0.833951	0.382636	0.721417
	H13	H	0.155297	0.588990	0.721440
	H14	H	0.833712	0.588160	0.283169
	H15	H	0.156826	0.382972	0.282889
	H16	H	0.391620	0.707747	0.843756
	H17	H	0.595948	0.704304	0.164931
	H18	H	0.600750	0.265448	0.842838
	H19	H	0.393306	0.271171	0.164417
	H20	H	0.714623	0.824125	0.398728
	H21	H	0.713860	0.145854	0.605267
	H22	H	0.277268	0.825207	0.607790
	H23	H	0.275868	0.146008	0.401276
	H24	H	0.893961	0.325438	0.218513
	H25	H	0.096842	0.646447	0.221608
	H26	H	0.097745	0.324775	0.785068
	H27	H	0.890707	0.646675	0.781137
	H28	H	0.214893	0.883112	0.341673
	H29	H	0.211904	0.086483	0.664443
	H30	H	0.776822	0.087085	0.341938
	H31	H	0.777393	0.881655	0.663611
	H32	H	0.333903	0.207665	0.899667
	H33	H	0.656073	0.204535	0.105170
	H34	H	0.333273	0.769398	0.106888
	H35	H	0.655004	0.765996	0.899691
	H36	H	0.332948	0.886565	0.220706
	H37	H	0.655410	0.087278	0.220625
	H38	H	0.334379	0.090612	0.783462
	H39	H	0.655249	0.881137	0.782934
	H40	H	0.894209	0.201920	0.341099
	H41	H	0.098184	0.203900	0.663070
	H42	H	0.099582	0.766879	0.341368
	H43	H	0.894274	0.766680	0.662604
	H44	H	0.214821	0.326307	0.899168
	H45	H	0.208729	0.649440	0.102657
	H46	H	0.777984	0.325635	0.102946
	H47	H	0.774433	0.647181	0.897516
	H48	H	0.400277	0.100821	0.591547
	H49	H	0.578415	0.868606	0.607418
	H50	H	0.591473	0.101308	0.411127
	H51	H	0.407939	0.873826	0.418860
	H52	H	0.593899	0.399809	0.118313
	H53	H	0.592426	0.576960	0.886478
	H54	H	0.403212	0.589038	0.121694
	H55	H	0.403255	0.407752	0.891729
	H56	H	0.108571	0.576367	0.414039
	H57	H	0.878746	0.574104	0.597284
	H58	H	0.105908	0.400779	0.587609
	H59	H	0.878569	0.393157	0.406464
	H60	H	0.112210	0.395515	0.600875
	H61	H	0.880689	0.581175	0.586789
	H62	H	0.108741	0.571971	0.410296
	H63	H	0.880213	0.390787	0.413573
	H64	H	0.392075	0.572170	0.119584
	H65	H	0.580064	0.568944	0.892923
	H66	H	0.579965	0.400644	0.113772
	H67	H	0.415933	0.393456	0.890327
	H68	H	0.582378	0.099748	0.409040
	H69	H	0.577304	0.877437	0.580816
	H70	H	0.405576	0.100670	0.597301
	H71	H	0.398626	0.868603	0.411343
	H72	H	0.905430	0.599477	0.089687
	H73	H	0.086982	0.373559	0.087554
	H74	H	0.085446	0.603149	0.905126
	H75	H	0.917620	0.373112	0.901549
	H76	H	0.087239	0.900735	0.615461
	H77	H	0.093760	0.070456	0.387513
	H78	H	0.909007	0.071730	0.614086
	H79	H	0.910281	0.889994	0.387629
	H80	H	0.607443	0.081843	0.921964
	H81	H	0.379207	0.075300	0.098185
	H82	H	0.609311	0.897930	0.095597
	H83	H	0.380381	0.894457	0.914905
	H84	H	0.609614	0.892701	0.094213
	H85	H	0.377463	0.084145	0.096730
	H86	H	0.605221	0.066760	0.914022
	H87	H	0.382649	0.900214	0.917591
	H88	H	0.906954	0.082572	0.619011
	H89	H	0.080075	0.068970	0.391579
	H90	H	0.079737	0.888732	0.615843
	H91	H	0.899114	0.895664	0.385956
	H92	H	0.079703	0.599341	0.911283
	H93	H	0.088681	0.370413	0.094091
	H94	H	0.901675	0.603045	0.091496
	H95	H	0.906670	0.379229	0.927184
	H96	H	0.407385	0.098547	0.590504
	H97	H	0.600760	0.866712	0.590961
	H98	H	0.585560	0.098077	0.417302
	H99	H	0.410372	0.870607	0.406513
	H100	H	0.584711	0.388317	0.119594
	H101	H	0.578222	0.584192	0.888548
	H102	H	0.411457	0.571849	0.113758
	H103	H	0.397931	0.390922	0.884165
	H104	H	0.110807	0.576884	0.408880
	H105	H	0.884723	0.569288	0.586958
	H106	H	0.111081	0.385686	0.588511
	H107	H	0.882540	0.397488	0.411282
	H108	H	0.905866	0.601278	0.095169
	H109	H	0.081959	0.373312	0.092529
	H110	H	0.089293	0.601743	0.914473
	H111	H	0.890441	0.365646	0.907005
	H112	H	0.092714	0.889145	0.621132
	H113	H	0.084268	0.082387	0.385955
	H114	H	0.898093	0.074023	0.618406
	H115	H	0.908660	0.901525	0.391161
	H116	H	0.612505	0.079861	0.905592
	H117	H	0.380490	0.079130	0.089767
	H118	H	0.608482	0.896728	0.090663
	H119	H	0.380549	0.899454	0.910800
	C120	C	0.373828	-0.005691	0.625065
	C121	C	0.617024	0.976758	0.624593
	C122	C	0.617439	-0.006334	0.380715
	C123	C	0.373957	0.977233	0.381958
	C124	C	0.617255	0.364891	0.011008
	C125	C	0.615494	0.608408	0.994896
	C126	C	0.371857	0.609562	0.012398
	C127	C	0.374423	0.367156	0.994937
	C128	C	0.003455	0.606739	0.379722
	C129	C	0.987116	0.606062	0.622271
	C130	C	0.003244	0.363767	0.623221
	C131	C	0.986974	0.363150	0.379303
	C132	C	0.873612	0.495160	0.122794
	C133	C	0.116133	0.478269	0.122971
	C134	C	0.116878	0.495300	0.879560
	C135	C	0.872940	0.478350	0.880123
	C136	C	0.117936	0.862726	0.511064
	C137	C	0.116578	0.105736	0.494570
	C138	C	0.873892	0.106276	0.510717
	C139	C	0.874874	0.864117	0.493956
	C140	C	0.502496	0.108317	0.881991
	C141	C	0.485705	0.109184	0.125127
	C142	C	0.502797	0.865559	0.124750
	C143	C	0.486851	0.865378	0.882614
	C144	C	0.373018	0.873786	0.684315
	C145	C	0.618276	0.097380	0.683074
	C146	C	0.617600	0.872861	0.322166
	C147	C	0.373414	0.098869	0.325016
	C148	C	0.675095	0.364640	0.889820
	C149	C	0.674507	0.609636	0.115149
	C150	C	0.314718	0.611079	0.891045
	C151	C	0.315723	0.367333	0.115687
	C152	C	0.882667	0.666430	0.378365
	C153	C	0.108013	0.663752	0.623050
	C154	C	0.881816	0.306236	0.622921
	C155	C	0.107909	0.304507	0.378601
	C156	C	0.881999	0.363463	0.681636
	C157	C	0.107426	0.607052	0.681648
	C158	C	0.882118	0.607417	0.321832
	C159	C	0.108226	0.363142	0.321432
	C160	C	0.372238	0.668526	0.891742
	C161	C	0.615593	0.665804	0.116242
	C162	C	0.618831	0.305398	0.890673
	C163	C	0.373963	0.309915	0.116197
	C164	C	0.675510	0.872457	0.380104
	C165	C	0.675331	0.097491	0.624676
	C166	C	0.316341	0.873338	0.626099
	C167	C	0.314904	0.098060	0.381779
	C168	C	0.874320	0.373621	0.179742
	C169	C	0.115731	0.599011	0.181495
	C170	C	0.117212	0.373406	0.823066
	C171	C	0.871771	0.598788	0.820949
	C172	C	0.176442	0.862983	0.390136
	C173	C	0.173655	0.106112	0.615956
	C174	C	0.815926	0.106301	0.390086
	C175	C	0.816620	0.862943	0.615466
	C176	C	0.382061	0.167946	0.880640
	C177	C	0.607574	0.165600	0.124391
	C178	C	0.381532	0.808426	0.125622
	C179	C	0.607067	0.805778	0.881372
	C180	C	0.381267	0.866750	0.182179
	C181	C	0.607331	0.107479	0.181965
	C182	C	0.382161	0.109649	0.822884
	C183	C	0.607230	0.863248	0.823237
	C184	C	0.874227	0.163464	0.389374
	C185	C	0.117094	0.164731	0.615124
	C186	C	0.118838	0.805390	0.389706
	C187	C	0.874508	0.805581	0.614865
	C188	C	0.175621	0.374325	0.879738
	C189	C	0.171432	0.600339	0.122372
	C190	C	0.816447	0.374003	0.122372
	C191	C	0.814158	0.599419	0.878961
	C192	C	0.397671	0.078155	0.600266
	C193	C	0.592497	0.892829	0.600400
	C194	C	0.593394	0.077748	0.405273
	C195	C	0.398441	0.892991	0.405452
	C196	C	0.593293	0.389190	0.095282
	C197	C	0.590716	0.583888	0.911070
	C198	C	0.395340	0.584920	0.096536
	C199	C	0.398754	0.390593	0.910592
	C200	C	0.087641	0.582226	0.403982
	C201	C	0.903197	0.581725	0.597594
	C202	C	0.087618	0.387221	0.599410
	C203	C	0.902280	0.386972	0.403278
	C204	C	0.897337	0.579415	0.099166
	C205	C	0.092727	0.394276	0.098348
	C206	C	0.091971	0.579425	0.903172
	C207	C	0.897763	0.394553	0.904770
	C208	C	0.093722	0.886178	0.595519
	C209	C	0.093064	0.081172	0.410206
	C210	C	0.897738	0.082846	0.595299
	C211	C	0.898943	0.888549	0.410189
	C212	C	0.586526	0.083391	0.906593
	C213	C	0.400961	0.086343	0.101660
	C214	C	0.587230	0.888946	0.100586
	C215	C	0.402792	0.890813	0.907344
	Zn216	Zn	0.494886	-0.013802	0.753206
	Zn217	Zn	0.494657	-0.013824	0.253071
	Zn218	Zn	0.744442	0.487525	0.002083
	Zn219	Zn	0.244414	0.487966	0.001871
	Zn220	Zn	-0.004387	0.735266	0.501399
	Zn221	Zn	-0.004587	0.234584	0.501848
	Zn222	Zn	-0.005288	0.485375	0.751991
	Zn223	Zn	-0.005001	0.485565	0.251344
	Zn224	Zn	0.494159	0.736739	0.004469
	Zn225	Zn	0.494642	0.237426	0.003195
	Zn226	Zn	0.745541	-0.015555	0.503218
	Zn227	Zn	0.245795	-0.014963	0.503641
	N228	N	0.408236	0.949918	0.683595
	N229	N	0.582820	0.021372	0.683220
	N230	N	0.582209	0.949230	0.322348
	N231	N	0.409243	0.022647	0.324895
	N232	N	0.674263	0.400887	0.965639
	N233	N	0.674558	0.574608	0.038702
	N234	N	0.314295	0.575098	0.966939
	N235	N	0.316129	0.402588	0.039215
	N236	N	0.959128	0.666266	0.413580
	N237	N	0.032189	0.663266	0.586709
	N238	N	0.958219	0.306258	0.587288
	N239	N	0.031440	0.304315	0.413930
	N240	N	0.958476	0.398145	0.682228
	N241	N	0.031288	0.571544	0.681003
	N242	N	0.958114	0.571195	0.322562
	N243	N	0.031898	0.398722	0.321727
	N244	N	0.407175	0.667590	0.968193
	N245	N	0.579723	0.665412	0.040219
	N246	N	0.583391	0.305551	0.967095
	N247	N	0.409721	0.309657	0.040073
	N248	N	0.675661	0.948585	0.415702
	N249	N	0.674693	0.021343	0.589080
	N250	N	0.316654	0.949251	0.589956
	N251	N	0.315447	0.021654	0.416709
	N252	N	0.908933	0.450041	0.180287
	N253	N	0.082054	0.522209	0.182108
	N254	N	0.081717	0.449795	0.822512
	N255	N	0.907563	0.522592	0.821677
	N256	N	0.176312	0.897726	0.466654
	N257	N	0.173368	0.070012	0.539958
	N258	N	0.815684	0.071568	0.466600
	N259	N	0.816432	0.898479	0.539319
	N260	N	0.457959	0.167034	0.916675
	N261	N	0.530929	0.166863	0.089938
	N262	N	0.457893	0.807826	0.090427
	N263	N	0.531154	0.807219	0.917661
	N264	N	0.457708	0.901838	0.181664
	N265	N	0.530599	0.073134	0.182596
	N266	N	0.458141	0.073360	0.823587
	N267	N	0.531328	0.899856	0.824035
	N268	N	0.909442	0.163592	0.465598
	N269	N	0.082566	0.164777	0.538450
	N270	N	0.083529	0.804765	0.466009
	N271	N	0.910075	0.806220	0.538565
	N272	N	0.175999	0.451320	0.913766
	N273	N	0.171743	0.524186	0.086634
	N274	N	0.815636	0.450718	0.088007
	N275	N	0.814766	0.523464	0.914986
	O276	O	0.630241	0.628776	0.494477
	H277	H	0.629930	0.629476	0.484212
	H278	H	0.642228	0.643041	0.498509
	O279	O	0.436417	0.371913	0.438770
	H280	H	0.431166	0.358905	0.454464
	H281	H	0.441167	0.392251	0.448870
	O282	O	0.913062	-0.166865	0.900628
	H283	H	0.930641	-0.170110	0.910617
	H284	H	0.905124	-0.167884	0.889355
	O285	O	0.353600	0.524303	0.483484
	H286	H	0.356000	0.532741	0.485250
	H287	H	0.340920	0.526246	0.489513
	O288	O	0.861244	0.962482	1.101069
	H289	H	0.863016	0.973787	1.105911
	H290	H	0.855183	0.954590	1.086338
	O291	O	-0.033053	1.099112	-0.020586
	H292	H	-0.030242	1.096495	-0.009556
	H293	H	-0.038850	1.104622	-0.022135
	O294	O	0.489353	0.473134	0.668055
	H295	H	0.490508	0.467987	0.674735
	H296	H	0.474896	0.465890	0.661164
	O297	O	0.610115	0.460241	0.509667
	H298	H	0.608106	0.458626	0.507591
	H299	H	0.605974	0.470780	0.511459
	O300	O	0.467815	0.563999	0.595157
	H301	H	0.473413	0.573577	0.590722
	H302	H	0.474226	0.563157	0.602866
	O303	O	0.631219	0.402218	0.606241
	H304	H	0.625994	0.409850	0.611284
	H305	H	0.636809	0.391472	0.611137
	O306	O	0.346141	0.680889	0.427020
	H307	H	0.341587	0.675956	0.420286
	H308	H	0.357295	0.675442	0.412703
	O309	O	0.395057	0.514065	0.436478
	H310	H	0.391143	0.513706	0.440007
	H311	H	0.409935	0.521799	0.428771
	O312	O	0.041510	-0.106593	0.059171
	H313	H	0.043450	-0.114143	0.067414
	H314	H	0.030296	-0.094608	0.064307
	O315	O	0.620695	0.598296	0.594359
	H316	H	0.615626	0.591599	0.590600
	H317	H	0.613475	0.614068	0.567786
	O318	O	0.069912	1.035991	1.029066
	H319	H	0.063828	1.019949	1.019004
	H320	H	0.067769	1.024716	1.022613
	O321	O	0.394321	0.445665	0.380015
	H322	H	0.390323	0.456038	0.386713
	H323	H	0.390040	0.445579	0.386680
	O324	O	-0.056185	1.043919	0.034546
	H325	H	-0.050511	1.043126	0.045296
	H326	H	-0.048875	1.034859	0.033884
	O327	O	0.504424	0.421947	0.439754
	H328	H	0.504160	0.406865	0.440271
	H329	H	0.515903	0.417318	0.435120
	O330	O	0.054888	-0.047045	1.109032
	H331	H	0.061447	-0.055782	1.100874
	H332	H	0.068033	-0.064049	1.111438
	O333	O	-0.056224	0.112898	0.934670
	H334	H	-0.061578	0.123553	0.923656
	H335	H	-0.044417	0.128884	0.944787
	O336	O	0.545012	0.326421	0.584972
	H337	H	0.551180	0.327221	0.577767
	H338	H	0.546890	0.317288	0.584400
	O339	O	1.062578	0.038719	0.010017
	H340	H	1.068335	0.040273	0.017415
	H341	H	1.077643	0.036719	0.010564
	O342	O	-0.153294	-0.077439	0.005613
	H343	H	-0.158966	-0.071784	0.002744
	H344	H	-0.170425	-0.067446	-0.001718
	O345	O	1.621514	0.649434	0.632392
	H346	H	1.626568	0.656117	0.624332
	H347	H	1.621537	0.648808	0.639821
	O348	O	1.264937	1.261690	0.549241
	H349	H	1.267041	1.287725	0.563251
	H350	H	1.265216	1.260410	0.546741
	O351	O	0.292584	0.458513	0.710256
	H352	H	0.290818	0.468361	0.719381
	H353	H	0.282264	0.459560	0.725508
	O354	O	1.102747	-0.054815	0.946460
	H355	H	1.085970	-0.063808	0.938285
	H356	H	1.101705	-0.047790	0.950917
	O357	O	0.347273	0.649160	0.510993
	H358	H	0.343255	0.653192	0.504458
	H359	H	0.358258	0.648002	0.503111
	O360	O	0.487418	0.380351	0.517764
	H361	H	0.484593	0.378507	0.520801
	H362	H	0.483373	0.367315	0.514249
	O363	O	0.051477	0.925095	0.856377
	H364	H	0.052338	0.942620	0.854116
	H365	H	0.056105	0.919474	0.838411
	O366	O	0.423673	0.572889	0.503116
	H367	H	0.436847	0.577222	0.501089
	H368	H	0.423207	0.574652	0.492694
	O369	O	-0.105759	1.012984	0.057702
	H370	H	-0.096131	1.019423	0.053300
	H371	H	-0.113204	1.021616	0.060786
	O372	O	0.628976	0.397389	0.491912
	H373	H	0.618694	0.401356	0.484282
	H374	H	0.630480	0.399833	0.489684
	O375	O	0.654978	0.398254	0.438681
	H376	H	0.660970	0.389633	0.436322
	H377	H	0.652326	0.397300	0.447491
	O378	O	1.162647	0.967546	-0.108115
	H379	H	1.162313	0.974722	-0.121707
	H380	H	1.155433	0.955132	-0.105462
	O381	O	0.999558	0.072356	0.005527
	H382	H	1.003110	0.081824	0.008528
	H383	H	0.992803	0.075963	0.004714
	O384	O	1.004047	0.918659	-0.009985
	H385	H	1.013355	0.910564	-0.008692
	H386	H	0.989178	0.913380	-0.008909
	O387	O	-0.040198	-0.174314	0.121315
	H388	H	-0.048340	-0.184601	0.134143
	H389	H	-0.064434	-0.171232	0.115737
	O390	O	-0.076180	1.007901	0.053487
	H391	H	-0.075285	1.005977	0.055584
	H392	H	-0.064046	1.016398	0.051584
	O393	O	0.946693	1.080951	1.012919
	H394	H	0.938690	1.086692	1.016290
	H395	H	0.964508	1.071003	1.015879
	O396	O	0.518040	0.623546	0.416414
	H397	H	0.517084	0.602188	0.400357
	H398	H	0.519180	0.628151	0.427983
	O399	O	-0.043010	1.056560	0.952223
	H400	H	-0.026984	1.060540	0.949686
	H401	H	-0.042334	1.051801	0.945721
	O402	O	0.326937	0.311736	0.489195
	H403	H	0.342156	0.313539	0.507270
	H404	H	0.316622	0.303381	0.488346
	O405	O	0.945459	1.088130	-0.044696
	H406	H	0.939873	1.072064	-0.043119
	H407	H	0.952690	1.097401	-0.052415
	O408	O	1.025043	1.070843	0.073227
	H409	H	1.034347	1.066155	0.077040
	H410	H	1.036716	1.069878	0.077701
	O411	O	1.026122	-0.128798	1.019325
	H412	H	1.023314	-0.139494	1.018053
	H413	H	1.028765	-0.120200	1.011467
	O414	O	0.650191	0.457902	0.331974
	H415	H	0.643582	0.450982	0.328109
	H416	H	0.646979	0.437190	0.326079
	O417	O	0.564730	0.350198	0.402136
	H418	H	0.578164	0.351216	0.400536
	H419	H	0.561749	0.331297	0.399390
