data_Molecule from HDF5

_cell_length_a		16.406787
_cell_length_b		16.151645
_cell_length_c		16.322508
_cell_angle_alpha	90.172572
_cell_angle_beta	90.092784
_cell_angle_gamma	90.169272
_symmetry_space_group_name_H-M	'P 1'
_symmetry_Int_Tables_number		1

loop_
	_symmetry_equiv_pos_as_xyz
	x,y,z

loop_
	_atom_site_label
	_atom_site_type_symbol
	_atom_site_fract_x
	_atom_site_fract_y
	_atom_site_fract_z
	H0	H	0.393455	0.833052	0.719543
	H1	H	0.590784	0.162791	0.719945
	H2	H	0.590401	0.833960	0.291353
	H3	H	0.394105	0.162821	0.292563
	H4	H	0.708561	0.395353	0.844668
	H5	H	0.708737	0.599994	0.168323
	H6	H	0.273837	0.597677	0.843766
	H7	H	0.275124	0.398222	0.169107
	H8	H	0.828924	0.711330	0.409823
	H9	H	0.155602	0.713761	0.605821
	H10	H	0.828858	0.282776	0.604043
	H11	H	0.155582	0.284580	0.410107
	H12	H	0.829155	0.397679	0.721331
	H13	H	0.154666	0.597947	0.723618
	H14	H	0.829880	0.596608	0.291500
	H15	H	0.153386	0.397255	0.288847
	H16	H	0.396059	0.709496	0.841623
	H17	H	0.587410	0.710272	0.170811
	H18	H	0.585853	0.285885	0.842162
	H19	H	0.394700	0.285433	0.170866
	H20	H	0.704991	0.833184	0.406706
	H21	H	0.707020	0.161976	0.606656
	H22	H	0.275613	0.833819	0.605993
	H23	H	0.277101	0.162136	0.406518
	H24	H	0.892541	0.333125	0.219207
	H25	H	0.089948	0.662822	0.220578
	H26	H	0.088751	0.332827	0.793664
	H27	H	0.893231	0.662061	0.791857
	H28	H	0.209421	0.895164	0.343973
	H29	H	0.208870	0.098846	0.668703
	H30	H	0.775701	0.096596	0.343526
	H31	H	0.774692	0.896997	0.669449
	H32	H	0.328050	0.210539	0.908902
	H33	H	0.655128	0.212767	0.104036
	H34	H	0.328701	0.784111	0.103017
	H35	H	0.655810	0.784328	0.909700
	H36	H	0.330304	0.897699	0.222183
	H37	H	0.654008	0.098487	0.222689
	H38	H	0.329956	0.096641	0.789702
	H39	H	0.654758	0.899288	0.790869
	H40	H	0.896405	0.209110	0.342486
	H41	H	0.088369	0.209965	0.670527
	H42	H	0.088074	0.784346	0.342017
	H43	H	0.896182	0.785653	0.671734
	H44	H	0.205375	0.333691	0.907038
	H45	H	0.207750	0.662168	0.107889
	H46	H	0.776753	0.334346	0.104843
	H47	H	0.777093	0.662888	0.907022
	H48	H	0.395676	0.115227	0.596541
	H49	H	0.591636	0.876928	0.600370
	H50	H	0.588409	0.114932	0.419185
	H51	H	0.402436	0.881000	0.412205
	H52	H	0.583528	0.408606	0.121405
	H53	H	0.594263	0.587940	0.888887
	H54	H	0.396920	0.585652	0.121422
	H55	H	0.393879	0.400810	0.889329
	H56	H	0.107151	0.596475	0.419129
	H57	H	0.878203	0.592672	0.597643
	H58	H	0.105051	0.398242	0.587161
	H59	H	0.875744	0.406580	0.408873
	H60	H	0.103313	0.420710	0.603325
	H61	H	0.878225	0.587429	0.599811
	H62	H	0.105418	0.583640	0.414352
	H63	H	0.875516	0.399594	0.411977
	H64	H	0.401823	0.592000	0.121573
	H65	H	0.580123	0.583088	0.893570
	H66	H	0.584352	0.402924	0.123849
	H67	H	0.394027	0.410512	0.890288
	H68	H	0.586920	0.117695	0.410842
	H69	H	0.578336	0.880580	0.604918
	H70	H	0.400108	0.116323	0.602032
	H71	H	0.399059	0.882019	0.417966
	H72	H	0.898670	0.617436	0.105590
	H73	H	0.088152	0.379271	0.098987
	H74	H	0.082943	0.613420	0.920090
	H75	H	0.898739	0.379142	0.908933
	H76	H	0.078424	0.905568	0.619859
	H77	H	0.085207	0.088544	0.390930
	H78	H	0.902835	0.089346	0.621179
	H79	H	0.896450	0.897085	0.388717
	H80	H	0.608346	0.096940	0.913623
	H81	H	0.375926	0.085742	0.106770
	H82	H	0.606823	0.908552	0.101874
	H83	H	0.379608	0.911567	0.912428
	H84	H	0.608630	0.903038	0.100387
	H85	H	0.374059	0.097922	0.100367
	H86	H	0.605322	0.089351	0.916854
	H87	H	0.374266	0.902107	0.906015
	H88	H	0.895819	0.093720	0.624599
	H89	H	0.085159	0.091646	0.389767
	H90	H	0.089917	0.903985	0.624111
	H91	H	0.890354	0.909724	0.390534
	H92	H	0.087595	0.616704	0.914353
	H93	H	0.080554	0.380816	0.101985
	H94	H	0.904794	0.613583	0.097308
	H95	H	0.902104	0.383094	0.916323
	H96	H	0.402956	0.113367	0.596111
	H97	H	0.581665	0.882855	0.591271
	H98	H	0.580737	0.114062	0.415521
	H99	H	0.396415	0.880031	0.412311
	H100	H	0.588939	0.406840	0.123960
	H101	H	0.582274	0.598683	0.888311
	H102	H	0.393853	0.593763	0.123977
	H103	H	0.402149	0.405431	0.892254
	H104	H	0.110974	0.593012	0.405916
	H105	H	0.876117	0.591787	0.602924
	H106	H	0.113680	0.396676	0.613779
	H107	H	0.878090	0.405405	0.416171
	H108	H	0.894379	0.616106	0.095608
	H109	H	0.081965	0.383034	0.094094
	H110	H	0.079983	0.614909	0.912614
	H111	H	0.893709	0.380239	0.916377
	H112	H	0.086341	0.914607	0.619814
	H113	H	0.087891	0.089919	0.389156
	H114	H	0.894878	0.085283	0.622467
	H115	H	0.903969	0.908043	0.393761
	H116	H	0.608407	0.090033	0.908204
	H117	H	0.379320	0.087585	0.093774
	H118	H	0.606790	0.906098	0.096763
	H119	H	0.377337	0.901092	0.918081
	C120	C	0.370352	0.006254	0.627358
	C121	C	0.613242	0.989145	0.627983
	C122	C	0.612981	0.006463	0.385925
	C123	C	0.370653	0.989608	0.385083
	C124	C	0.613156	0.377014	0.014910
	C125	C	0.613585	0.619107	0.998149
	C126	C	0.369263	0.619247	0.014464
	C127	C	0.369015	0.376722	0.998405
	C128	C	0.000152	0.619364	0.385311
	C129	C	0.984937	0.619946	0.629425
	C130	C	-0.000081	0.376134	0.629032
	C131	C	0.983830	0.375554	0.384437
	C132	C	0.870342	0.506951	0.127850
	C133	C	0.112957	0.489784	0.127826
	C134	C	0.112139	0.506366	0.886273
	C135	C	0.869931	0.489449	0.885211
	C136	C	0.113678	0.877678	0.513904
	C137	C	0.114151	0.119169	0.497724
	C138	C	0.869896	0.118455	0.515015
	C139	C	0.869274	0.876028	0.498936
	C140	C	0.499814	0.120202	0.884388
	C141	C	0.483880	0.120124	0.128741
	C142	C	0.500137	0.876582	0.127930
	C143	C	0.484087	0.875600	0.883411
	C144	C	0.372735	0.882375	0.682083
	C145	C	0.611130	0.113372	0.682722
	C146	C	0.610236	0.882604	0.330251
	C147	C	0.373384	0.113584	0.330201
	C148	C	0.668855	0.377746	0.892629
	C149	C	0.669744	0.619085	0.120336
	C150	C	0.313047	0.617567	0.891949
	C151	C	0.313651	0.378248	0.120925
	C152	C	0.877595	0.673709	0.388898
	C153	C	0.106848	0.675909	0.626733
	C154	C	0.877519	0.320498	0.625173
	C155	C	0.106540	0.321544	0.388557
	C156	C	0.877501	0.377896	0.683428
	C157	C	0.106437	0.618094	0.685301
	C158	C	0.878077	0.616868	0.329923
	C159	C	0.105565	0.377665	0.328471
	C160	C	0.373361	0.673303	0.890905
	C161	C	0.609371	0.673747	0.121402
	C162	C	0.608380	0.322783	0.891434
	C163	C	0.373000	0.322275	0.121705
	C164	C	0.667406	0.882444	0.387447
	C165	C	0.669166	0.112939	0.626575
	C166	C	0.314526	0.882635	0.625417
	C167	C	0.315381	0.113307	0.386629
	C168	C	0.872790	0.382449	0.181807
	C169	C	0.110398	0.613699	0.182764
	C170	C	0.109697	0.382172	0.830973
	C171	C	0.872983	0.613498	0.830210
	C172	C	0.169929	0.877044	0.392031
	C173	C	0.170156	0.118273	0.620163
	C174	C	0.814151	0.116682	0.392277
	C175	C	0.813569	0.877200	0.621204
	C176	C	0.377214	0.173978	0.887759
	C177	C	0.606157	0.175463	0.125456
	C178	C	0.377662	0.821448	0.124354
	C179	C	0.606844	0.821266	0.887621
	C180	C	0.378406	0.878018	0.183739
	C181	C	0.605760	0.118683	0.184438
	C182	C	0.378065	0.117498	0.828426
	C183	C	0.606323	0.878492	0.828767
	C184	C	0.874113	0.172507	0.391537
	C185	C	0.110283	0.173531	0.621149
	C186	C	0.109760	0.821862	0.391031
	C187	C	0.873837	0.821884	0.622184
	C188	C	0.167562	0.382600	0.887154
	C189	C	0.168969	0.613162	0.126638
	C190	C	0.815125	0.383081	0.125069
	C191	C	0.815256	0.613704	0.887174
	C192	C	0.393060	0.092856	0.604914
	C193	C	0.590551	0.902481	0.605516
	C194	C	0.591616	0.093063	0.408649
	C195	C	0.392842	0.903291	0.407493
	C196	C	0.592077	0.399601	0.100793
	C197	C	0.591930	0.596349	0.912393
	C198	C	0.390977	0.597116	0.100059
	C199	C	0.390460	0.399034	0.912774
	C200	C	0.085667	0.597241	0.406781
	C201	C	0.899514	0.597121	0.606876
	C202	C	0.085222	0.398656	0.607585
	C203	C	0.898479	0.397401	0.405855
	C204	C	0.892846	0.593284	0.106137
	C205	C	0.090193	0.403340	0.105164
	C206	C	0.089903	0.592656	0.908927
	C207	C	0.891774	0.403273	0.907315
	C208	C	0.091480	0.901261	0.599246
	C209	C	0.092415	0.096504	0.412137
	C210	C	0.891455	0.096106	0.600690
	C211	C	0.890627	0.898322	0.413293
	C212	C	0.585178	0.098504	0.906297
	C213	C	0.398484	0.097270	0.106763
	C214	C	0.585379	0.899294	0.106179
	C215	C	0.398945	0.898097	0.905603
	Zn216	Zn	0.492311	-0.001942	0.754994
	Zn217	Zn	0.492045	-0.001590	0.257784
	Zn218	Zn	0.742462	0.498335	0.006732
	Zn219	Zn	0.239848	0.497633	0.006317
	Zn220	Zn	-0.007663	0.748867	0.506608
	Zn221	Zn	-0.008310	0.247021	0.506760
	Zn222	Zn	-0.008268	0.497452	0.758087
	Zn223	Zn	-0.008405	0.497814	0.255466
	Zn224	Zn	0.491957	0.747460	0.006089
	Zn225	Zn	0.491146	0.249000	0.007053
	Zn226	Zn	0.740391	-0.002463	0.507078
	Zn227	Zn	0.242953	-0.001778	0.505906
	N228	N	0.406632	0.960428	0.683398
	N229	N	0.577012	0.035442	0.683510
	N230	N	0.577028	0.960627	0.329182
	N231	N	0.407078	0.035613	0.329150
	N232	N	0.671943	0.410813	0.970635
	N233	N	0.672151	0.585563	0.042849
	N234	N	0.310090	0.585173	0.969837
	N235	N	0.310964	0.411249	0.043255
	N236	N	0.954424	0.674991	0.422879
	N237	N	0.030068	0.677268	0.592789
	N238	N	0.954586	0.319255	0.592085
	N239	N	0.029878	0.320128	0.422436
	N240	N	0.954474	0.411760	0.685847
	N241	N	0.029469	0.584254	0.686986
	N242	N	0.955297	0.583885	0.327410
	N243	N	0.028246	0.410507	0.325720
	N244	N	0.407303	0.674626	0.967957
	N245	N	0.575131	0.673989	0.044261
	N246	N	0.574382	0.322396	0.968222
	N247	N	0.406529	0.321153	0.044548
	N248	N	0.669100	0.960509	0.421445
	N249	N	0.670316	0.034666	0.593061
	N250	N	0.312872	0.960816	0.592250
	N251	N	0.313694	0.035285	0.420057
	N252	N	0.906718	0.460425	0.183409
	N253	N	0.076172	0.535924	0.183557
	N254	N	0.075876	0.460133	0.830347
	N255	N	0.906262	0.535504	0.828818
	N256	N	0.172397	0.910884	0.469496
	N257	N	0.172735	0.085279	0.542338
	N258	N	0.811720	0.083634	0.469891
	N259	N	0.810758	0.910186	0.543738
	N260	N	0.454015	0.175864	0.921794
	N261	N	0.529286	0.176187	0.091397
	N262	N	0.454248	0.820585	0.090411
	N263	N	0.529759	0.819272	0.920744
	N264	N	0.455624	0.911659	0.186058
	N265	N	0.528730	0.085105	0.186623
	N266	N	0.455225	0.084676	0.826250
	N267	N	0.529044	0.911475	0.826098
	N268	N	0.907804	0.173746	0.468751
	N269	N	0.076063	0.174216	0.544153
	N270	N	0.075472	0.822084	0.467865
	N271	N	0.907911	0.821085	0.545104
	N272	N	0.169088	0.460682	0.920777
	N273	N	0.170329	0.534963	0.093014
	N274	N	0.813385	0.461325	0.092410
	N275	N	0.812980	0.535525	0.920494
	O276	O	1.055037	1.079534	-0.019927
	H277	H	1.067825	1.068035	-0.029569
	H278	H	1.055899	1.081709	-0.014591
	O279	O	0.064079	-0.017620	-0.021197
	H280	H	0.070135	-0.013373	-0.027167
	H281	H	0.063402	-0.011595	-0.015724
	O282	O	0.052854	-0.016892	0.970880
	H283	H	0.055324	-0.016700	0.967930
	H284	H	0.048932	-0.019703	0.973460
	O285	O	1.046287	1.007806	-0.058187
	H286	H	1.049348	1.010444	-0.059935
	H287	H	1.045810	1.017740	-0.050085
	O288	O	0.469131	0.448582	0.582807
	H289	H	0.470262	0.450745	0.579102
	H290	H	0.466363	0.438884	0.590850
	O291	O	0.566667	0.504462	0.502082
	H292	H	0.571650	0.500988	0.499141
	H293	H	0.574444	0.509306	0.504078
	O294	O	-0.038074	-0.037940	0.004841
	H295	H	-0.047620	-0.031166	0.009464
	H296	H	-0.037624	-0.031644	0.003093
	O297	O	0.468593	0.467345	0.546835
	H298	H	0.474230	0.480253	0.546425
	H299	H	0.479755	0.463993	0.549242
	O300	O	0.058930	1.044150	0.969566
	H301	H	0.054204	1.037826	0.971563
	H302	H	0.068651	1.047739	0.960185
	O303	O	0.526299	0.511994	0.515717
	H304	H	0.522173	0.515650	0.519296
	H305	H	0.523462	0.507158	0.521542
	O306	O	0.032313	-0.050644	0.944375
	H307	H	0.030761	-0.050797	0.947672
	H308	H	0.022390	-0.053378	0.952267
	O309	O	1.499509	0.481121	0.559650
	H310	H	1.502420	0.484778	0.554607
	H311	H	1.504927	0.490753	0.552150
	O312	O	0.511997	0.526915	0.544370
	H313	H	0.511109	0.524302	0.537643
	H314	H	0.506835	0.529926	0.554294
	O315	O	0.459537	0.507467	0.533780
	H316	H	0.449866	0.501773	0.544559
	H317	H	0.456990	0.499684	0.527432
	O318	O	0.084059	0.958989	-0.014885
	H319	H	0.099243	0.958369	-0.006197
	H320	H	0.082427	0.952420	-0.021630
	O321	O	1.059468	1.041098	-0.103177
	H322	H	1.062963	1.032225	-0.109934
	H323	H	1.052051	1.025786	-0.108993
