data_Molecule from HDF5

_cell_length_a		16.410765
_cell_length_b		16.178664
_cell_length_c		16.198785
_cell_angle_alpha	90.084153
_cell_angle_beta	89.621880
_cell_angle_gamma	90.020776
_symmetry_space_group_name_H-M	'P 1'
_symmetry_Int_Tables_number		1

loop_
	_symmetry_equiv_pos_as_xyz
	x,y,z

loop_
	_atom_site_label
	_atom_site_type_symbol
	_atom_site_fract_x
	_atom_site_fract_y
	_atom_site_fract_z
	H0	H	0.406107	0.835893	0.709994
	H1	H	0.600939	0.165974	0.708841
	H2	H	0.602163	0.835790	0.283374
	H3	H	0.407639	0.165777	0.284064
	H4	H	0.722220	0.399290	0.832656
	H5	H	0.718855	0.601595	0.159867
	H6	H	0.289452	0.602400	0.832896
	H7	H	0.285107	0.397079	0.158411
	H8	H	0.840743	0.716002	0.399454
	H9	H	0.166776	0.717921	0.593356
	H10	H	0.841491	0.288208	0.594084
	H11	H	0.166761	0.285808	0.394304
	H12	H	0.841758	0.403644	0.711315
	H13	H	0.167319	0.601736	0.710781
	H14	H	0.841844	0.600044	0.281019
	H15	H	0.166649	0.401922	0.277597
	H16	H	0.410229	0.712317	0.830942
	H17	H	0.600301	0.713788	0.160993
	H18	H	0.603345	0.286732	0.831327
	H19	H	0.406387	0.288918	0.161536
	H20	H	0.721466	0.837857	0.394404
	H21	H	0.719790	0.165215	0.596183
	H22	H	0.285358	0.838388	0.599583
	H23	H	0.289820	0.165317	0.396670
	H24	H	0.906795	0.337205	0.210462
	H25	H	0.101829	0.666453	0.207575
	H26	H	0.103437	0.336458	0.779600
	H27	H	0.909779	0.666792	0.786065
	H28	H	0.220943	0.901559	0.332810
	H29	H	0.219675	0.103962	0.659867
	H30	H	0.790196	0.103504	0.332444
	H31	H	0.786127	0.900679	0.658400
	H32	H	0.341533	0.215725	0.900384
	H33	H	0.667474	0.215503	0.093978
	H34	H	0.342353	0.784270	0.096780
	H35	H	0.667552	0.785824	0.896480
	H36	H	0.342669	0.899769	0.214658
	H37	H	0.667058	0.099554	0.210864
	H38	H	0.341498	0.099804	0.782655
	H39	H	0.667291	0.902915	0.780231
	H40	H	0.909565	0.213836	0.331173
	H41	H	0.100773	0.216117	0.660651
	H42	H	0.102828	0.789196	0.331275
	H43	H	0.904798	0.788932	0.660069
	H44	H	0.221918	0.336509	0.892487
	H45	H	0.221192	0.663519	0.096409
	H46	H	0.788882	0.337585	0.097797
	H47	H	0.789706	0.664486	0.895912
	H48	H	0.402375	0.120791	0.589129
	H49	H	0.594327	0.884566	0.587218
	H50	H	0.589466	0.116978	0.402211
	H51	H	0.418249	0.888950	0.415197
	H52	H	0.596024	0.400646	0.115100
	H53	H	0.595231	0.597777	0.878606
	H54	H	0.411641	0.587252	0.111725
	H55	H	0.417577	0.406299	0.879614
	H56	H	0.120669	0.594617	0.397259
	H57	H	0.891001	0.591076	0.591029
	H58	H	0.113470	0.423006	0.579987
	H59	H	0.888985	0.409617	0.402109
	H60	H	0.124643	0.410727	0.603864
	H61	H	0.886450	0.597190	0.596891
	H62	H	0.120157	0.599347	0.403053
	H63	H	0.888200	0.408436	0.402411
	H64	H	0.414034	0.594026	0.112429
	H65	H	0.606894	0.595084	0.875584
	H66	H	0.606961	0.412846	0.114908
	H67	H	0.409308	0.406673	0.878230
	H68	H	0.601895	0.117071	0.412362
	H69	H	0.599137	0.884036	0.584628
	H70	H	0.416223	0.118976	0.596223
	H71	H	0.400334	0.881079	0.407775
	H72	H	0.914930	0.618237	0.092343
	H73	H	0.101993	0.378872	0.096152
	H74	H	0.101516	0.615023	0.914049
	H75	H	0.910492	0.382650	0.905535
	H76	H	0.083993	0.915091	0.607940
	H77	H	0.096836	0.085126	0.382955
	H78	H	0.913764	0.088482	0.610372
	H79	H	0.916711	0.900567	0.376873
	H80	H	0.618717	0.085794	0.896777
	H81	H	0.392506	0.094024	0.080266
	H82	H	0.621622	0.906227	0.093780
	H83	H	0.392784	0.909062	0.915520
	H84	H	0.620041	0.904278	0.084633
	H85	H	0.390704	0.084115	0.095014
	H86	H	0.623230	0.101602	0.897586
	H87	H	0.389557	0.915642	0.895795
	H88	H	0.913670	0.101321	0.614747
	H89	H	0.091870	0.100875	0.379214
	H90	H	0.097144	0.898448	0.617789
	H91	H	0.902370	0.912158	0.375776
	H92	H	0.106735	0.622015	0.898066
	H93	H	0.084697	0.387199	0.087517
	H94	H	0.912449	0.616886	0.081850
	H95	H	0.912836	0.383475	0.901907
	H96	H	0.414515	0.114475	0.580871
	H97	H	0.598650	0.882099	0.589720
	H98	H	0.603863	0.122057	0.397257
	H99	H	0.417168	0.882669	0.396098
	H100	H	0.592458	0.415513	0.109327
	H101	H	0.599181	0.586726	0.880558
	H102	H	0.407582	0.591867	0.114755
	H103	H	0.413347	0.413577	0.881204
	H104	H	0.117694	0.592492	0.402846
	H105	H	0.888693	0.600128	0.587439
	H106	H	0.121849	0.394635	0.580191
	H107	H	0.890209	0.408822	0.404547
	H108	H	0.905124	0.620105	0.088274
	H109	H	0.101402	0.385495	0.075633
	H110	H	0.089583	0.615868	0.900460
	H111	H	0.914443	0.383827	0.905621
	H112	H	0.105781	0.919433	0.613100
	H113	H	0.108001	0.095158	0.375299
	H114	H	0.902254	0.093503	0.615631
	H115	H	0.918342	0.918054	0.382979
	H116	H	0.617270	0.094220	0.911494
	H117	H	0.385404	0.102050	0.095375
	H118	H	0.618170	0.913116	0.088912
	H119	H	0.385387	0.895998	0.901411
	C120	C	0.381870	0.009733	0.618533
	C121	C	0.625572	0.992598	0.616469
	C122	C	0.626914	0.009919	0.374470
	C123	C	0.383288	0.992696	0.376467
	C124	C	0.627169	0.379620	0.004521
	C125	C	0.627185	0.622433	0.987149
	C126	C	0.383734	0.620618	0.004261
	C127	C	0.383231	0.379149	0.987874
	C128	C	0.012098	0.623810	0.373802
	C129	C	0.996455	0.624496	0.618800
	C130	C	0.012856	0.380124	0.617685
	C131	C	0.996307	0.379761	0.373322
	C132	C	0.882762	0.509785	0.117062
	C133	C	0.125233	0.492319	0.115922
	C134	C	0.127800	0.508996	0.873768
	C135	C	0.884112	0.492326	0.875761
	C136	C	0.125276	0.881307	0.504720
	C137	C	0.126499	0.123667	0.487484
	C138	C	0.882493	0.123277	0.504803
	C139	C	0.882762	0.880723	0.486946
	C140	C	0.512351	0.122780	0.874340
	C141	C	0.496613	0.122428	0.118697
	C142	C	0.513020	0.878250	0.118744
	C143	C	0.496531	0.878494	0.874621
	C144	C	0.384547	0.885637	0.673200
	C145	C	0.622369	0.116477	0.671844
	C146	C	0.623633	0.885607	0.319789
	C147	C	0.386430	0.116368	0.321144
	C148	C	0.683258	0.380036	0.881240
	C149	C	0.681410	0.621580	0.110885
	C150	C	0.328393	0.620849	0.881417
	C151	C	0.324835	0.378598	0.110136
	C152	C	0.889654	0.678854	0.377596
	C153	C	0.118318	0.680066	0.614635
	C154	C	0.890188	0.325496	0.615068
	C155	C	0.118227	0.323802	0.374510
	C156	C	0.890342	0.382904	0.673372
	C157	C	0.118779	0.622038	0.672917
	C158	C	0.889961	0.621141	0.319041
	C159	C	0.118241	0.381634	0.316396
	C160	C	0.387898	0.675887	0.880557
	C161	C	0.622436	0.677228	0.111524
	C162	C	0.624235	0.324266	0.880730
	C163	C	0.385289	0.324834	0.111789
	C164	C	0.682356	0.886407	0.375578
	C165	C	0.681169	0.116265	0.615634
	C166	C	0.324820	0.886707	0.618153
	C167	C	0.328012	0.116183	0.377510
	C168	C	0.885772	0.386330	0.173013
	C169	C	0.122480	0.616784	0.170621
	C170	C	0.124533	0.385388	0.817542
	C171	C	0.887953	0.616930	0.822101
	C172	C	0.182505	0.881832	0.381771
	C173	C	0.181312	0.123170	0.610929
	C174	C	0.828125	0.122123	0.381326
	C175	C	0.825540	0.881652	0.610004
	C176	C	0.390116	0.177992	0.878612
	C177	C	0.618665	0.178042	0.115558
	C178	C	0.390897	0.822358	0.117209
	C179	C	0.618969	0.823838	0.876305
	C180	C	0.390958	0.880073	0.175636
	C181	C	0.618704	0.120225	0.173311
	C182	C	0.390058	0.120349	0.820231
	C183	C	0.618820	0.881891	0.818464
	C184	C	0.887468	0.177270	0.380584
	C185	C	0.122430	0.179169	0.611303
	C186	C	0.123398	0.826449	0.380736
	C187	C	0.884412	0.826058	0.610746
	C188	C	0.183439	0.385644	0.873521
	C189	C	0.181903	0.615129	0.115376
	C190	C	0.827200	0.386575	0.117056
	C191	C	0.828315	0.615659	0.876693
	C192	C	0.404489	0.095760	0.595558
	C193	C	0.603835	0.906022	0.593811
	C194	C	0.604879	0.096360	0.397126
	C195	C	0.405377	0.906563	0.399561
	C196	C	0.604959	0.402814	0.090757
	C197	C	0.606592	0.599955	0.900743
	C198	C	0.404931	0.597860	0.090631
	C199	C	0.406581	0.402198	0.901802
	C200	C	0.097532	0.601906	0.394851
	C201	C	0.910961	0.602538	0.597929
	C202	C	0.097970	0.402633	0.594838
	C203	C	0.911219	0.402365	0.396264
	C204	C	0.904513	0.596132	0.094026
	C205	C	0.102747	0.406267	0.093106
	C206	C	0.105768	0.595147	0.897363
	C207	C	0.906033	0.405762	0.897870
	C208	C	0.102249	0.904062	0.590633
	C209	C	0.105230	0.100582	0.401498
	C210	C	0.903667	0.101021	0.591199
	C211	C	0.905671	0.903593	0.400831
	C212	C	0.597841	0.100557	0.895724
	C213	C	0.411480	0.099986	0.096723
	C214	C	0.598012	0.901081	0.095858
	C215	C	0.411341	0.900450	0.897483
	Zn216	Zn	0.504430	0.000436	0.744996
	Zn217	Zn	0.504638	0.000636	0.248082
	Zn218	Zn	0.755102	0.500872	-0.004233
	Zn219	Zn	0.255284	0.499704	-0.004511
	Zn220	Zn	0.003878	0.753508	0.495677
	Zn221	Zn	0.004188	0.251038	0.495930
	Zn222	Zn	0.004671	0.501239	0.747702
	Zn223	Zn	0.004432	0.501606	0.244251
	Zn224	Zn	0.504826	0.749252	-0.003663
	Zn225	Zn	0.504703	0.252115	-0.002737
	Zn226	Zn	0.754670	0.001588	0.495625
	Zn227	Zn	0.254105	0.001621	0.497300
	N228	N	0.418907	0.963152	0.673860
	N229	N	0.588218	0.038737	0.672104
	N230	N	0.589608	0.963353	0.319166
	N231	N	0.420660	0.038674	0.320763
	N232	N	0.685199	0.413798	0.959213
	N233	N	0.684515	0.588204	0.032689
	N234	N	0.325498	0.587250	0.959375
	N235	N	0.323737	0.411815	0.031981
	N236	N	0.966512	0.680436	0.410914
	N237	N	0.041215	0.681659	0.581979
	N238	N	0.967120	0.323811	0.581069
	N239	N	0.041415	0.322503	0.409117
	N240	N	0.967609	0.416262	0.675049
	N241	N	0.041843	0.588285	0.675810
	N242	N	0.967080	0.587723	0.316531
	N243	N	0.041492	0.415721	0.315555
	N244	N	0.421606	0.675852	0.958105
	N245	N	0.589528	0.677896	0.033755
	N246	N	0.590097	0.323957	0.958389
	N247	N	0.420807	0.324996	0.034589
	N248	N	0.684841	0.964773	0.408576
	N249	N	0.683444	0.038109	0.582234
	N250	N	0.322892	0.965076	0.585078
	N251	N	0.325884	0.038087	0.410967
	N252	N	0.919653	0.464005	0.173142
	N253	N	0.088152	0.539171	0.171399
	N254	N	0.090841	0.463158	0.817440
	N255	N	0.922088	0.539175	0.821417
	N256	N	0.183711	0.915237	0.459866
	N257	N	0.184069	0.089395	0.533069
	N258	N	0.825195	0.089078	0.459491
	N259	N	0.824504	0.915083	0.531919
	N260	N	0.467275	0.179560	0.911498
	N261	N	0.541764	0.179650	0.082475
	N262	N	0.467531	0.821435	0.082288
	N263	N	0.542140	0.821761	0.910603
	N264	N	0.467917	0.914057	0.176787
	N265	N	0.541801	0.086317	0.175473
	N266	N	0.467068	0.086804	0.817381
	N267	N	0.541578	0.914973	0.817028
	N268	N	0.920570	0.178219	0.458398
	N269	N	0.088960	0.179479	0.533637
	N270	N	0.088304	0.826092	0.458086
	N271	N	0.919301	0.825563	0.533375
	N272	N	0.185638	0.463608	0.907748
	N273	N	0.183788	0.536960	0.082134
	N274	N	0.825341	0.464383	0.082849
	N275	N	0.826075	0.537226	0.909431
	O276	O	1.041739	1.055809	0.000540
	H277	H	1.040456	1.057964	0.001686
	H278	H	1.042272	1.067381	-0.000448
	O279	O	0.080088	-0.005339	1.019755
	H280	H	0.070646	-0.001994	1.017357
	H281	H	0.093821	-0.005090	1.021656
	O282	O	-0.001654	0.005733	0.015390
	H283	H	0.002677	0.004093	0.015815
	H284	H	0.001867	0.016831	0.011927
	O285	O	0.531126	0.425535	0.444676
	H286	H	0.536112	0.427772	0.452020
	H287	H	0.529214	0.420247	0.455919
	O288	O	-0.078951	-0.005939	0.039013
	H289	H	-0.086383	-0.008093	0.041981
	H290	H	-0.088397	-0.003084	0.036845
	O291	O	0.001535	1.003527	-0.037858
	H292	H	0.000060	0.998397	-0.040218
	H293	H	-0.004092	0.998370	-0.038080
	O294	O	0.082792	0.955750	-0.039878
	H295	H	0.088252	0.953495	-0.043959
	H296	H	0.083109	0.946038	-0.036069
	O297	O	0.404859	0.463187	0.459279
	H298	H	0.393786	0.469588	0.455752
	H299	H	0.415986	0.465487	0.450637
	O300	O	0.503578	0.510578	0.465614
	H301	H	0.496786	0.519198	0.459740
	H302	H	0.499426	0.503875	0.474813
	O303	O	1.026489	-0.021880	0.938402
	H304	H	1.032438	-0.034550	0.935765
	H305	H	1.023329	-0.028530	0.937601
	O306	O	-0.001698	0.920564	0.964374
	H307	H	0.000381	0.915845	0.967207
	H308	H	0.004077	0.928377	0.973851
	O309	O	0.049185	0.971998	1.004087
	H310	H	0.051691	0.973196	1.009780
	H311	H	0.044940	0.966275	1.014547
	O312	O	0.068994	0.029799	0.998248
	H313	H	0.066115	0.024890	1.002994
	H314	H	0.068242	0.034388	1.003552
	O315	O	0.379120	0.570145	0.446524
	H316	H	0.383045	0.566510	0.444118
	H317	H	0.371751	0.571471	0.442305
	O318	O	-0.050493	-0.049509	0.910438
	H319	H	-0.046461	-0.048418	0.905960
	H320	H	-0.052095	-0.050135	0.904160
	O321	O	0.467517	0.472931	0.572874
	H322	H	0.462751	0.483809	0.572666
	H323	H	0.461445	0.469203	0.567010
	O324	O	1.006151	-0.000827	1.048228
	H325	H	1.004356	-0.010429	1.045148
	H326	H	1.003404	0.005279	1.044579
	O327	O	0.973361	0.982583	0.951995
	H328	H	0.976733	0.983643	0.948903
	H329	H	0.976285	0.985784	0.946846
	O330	O	0.539121	0.464451	0.531574
	H331	H	0.533691	0.461780	0.533038
	H332	H	0.537778	0.467141	0.529217
	O333	O	0.461543	0.455015	0.496787
	H334	H	0.452814	0.454144	0.490385
	H335	H	0.455758	0.432732	0.506528
	O336	O	0.471207	0.442991	0.406191
	H337	H	0.483016	0.442068	0.391225
	H338	H	0.482529	0.437542	0.408446
	O339	O	0.445810	0.525154	0.489898
	H340	H	0.444203	0.532207	0.482797
	H341	H	0.440217	0.522132	0.489179
	O342	O	0.444927	0.411463	0.540286
	H343	H	0.447166	0.412686	0.543175
	H344	H	0.445466	0.403567	0.542485
	O345	O	0.479974	0.396217	0.514075
	H346	H	0.490905	0.390500	0.523398
	H347	H	0.469639	0.392830	0.524929
