data_Molecule from HDF5

_cell_length_a		16.247545
_cell_length_b		16.242881
_cell_length_c		16.315370
_cell_angle_alpha	90.116786
_cell_angle_beta	89.995930
_cell_angle_gamma	90.114789
_symmetry_space_group_name_H-M	'P 1'
_symmetry_Int_Tables_number		1

loop_
	_symmetry_equiv_pos_as_xyz
	x,y,z

loop_
	_atom_site_label
	_atom_site_type_symbol
	_atom_site_fract_x
	_atom_site_fract_y
	_atom_site_fract_z
	H0	H	0.396526	0.836587	0.714336
	H1	H	0.594829	0.164190	0.714628
	H2	H	0.595462	0.836358	0.284891
	H3	H	0.396964	0.164780	0.286155
	H4	H	0.708584	0.402804	0.835263
	H5	H	0.711036	0.600943	0.162710
	H6	H	0.281444	0.599651	0.835900
	H7	H	0.279242	0.402707	0.162624
	H8	H	0.831372	0.712770	0.402495
	H9	H	0.160265	0.715188	0.597794
	H10	H	0.831345	0.286486	0.597181
	H11	H	0.159480	0.286006	0.401368
	H12	H	0.831739	0.400707	0.713696
	H13	H	0.159599	0.600392	0.714421
	H14	H	0.832119	0.599153	0.285343
	H15	H	0.159217	0.400145	0.283452
	H16	H	0.398156	0.715080	0.835934
	H17	H	0.594215	0.715821	0.163309
	H18	H	0.594138	0.284500	0.836730
	H19	H	0.397213	0.287472	0.163753
	H20	H	0.708542	0.835964	0.402837
	H21	H	0.710857	0.164325	0.598946
	H22	H	0.281702	0.836324	0.597981
	H23	H	0.282077	0.164727	0.403242
	H24	H	0.896375	0.336534	0.213267
	H25	H	0.094944	0.664557	0.215457
	H26	H	0.094518	0.337555	0.784190
	H27	H	0.896273	0.664941	0.784086
	H28	H	0.211042	0.900768	0.336576
	H29	H	0.210157	0.098973	0.663166
	H30	H	0.781562	0.097011	0.335990
	H31	H	0.781728	0.901592	0.663354
	H32	H	0.331060	0.213655	0.902563
	H33	H	0.659218	0.215901	0.099182
	H34	H	0.331377	0.787529	0.096745
	H35	H	0.660521	0.787884	0.903349
	H36	H	0.331916	0.901775	0.214492
	H37	H	0.659586	0.100718	0.215367
	H38	H	0.331928	0.100110	0.784737
	H39	H	0.659678	0.902862	0.786163
	H40	H	0.897956	0.214252	0.335785
	H41	H	0.096326	0.216867	0.662783
	H42	H	0.094612	0.785184	0.335983
	H43	H	0.897854	0.785605	0.663012
	H44	H	0.209633	0.337007	0.900307
	H45	H	0.209530	0.665776	0.097402
	H46	H	0.781683	0.336554	0.095735
	H47	H	0.783134	0.665475	0.902778
	H48	H	0.403396	0.116108	0.590081
	H49	H	0.586675	0.883489	0.596309
	H50	H	0.586545	0.115680	0.409350
	H51	H	0.401829	0.885820	0.414278
	H52	H	0.589232	0.398393	0.118644
	H53	H	0.589510	0.589184	0.884141
	H54	H	0.400873	0.588824	0.114640
	H55	H	0.401045	0.402791	0.882203
	H56	H	0.113119	0.595608	0.410446
	H57	H	0.881477	0.588744	0.587520
	H58	H	0.110978	0.412983	0.593544
	H59	H	0.877884	0.403496	0.406897
	H60	H	0.114545	0.406187	0.596039
	H61	H	0.878408	0.590393	0.599366
	H62	H	0.111470	0.587716	0.406573
	H63	H	0.881007	0.410566	0.409626
	H64	H	0.406952	0.595966	0.114939
	H65	H	0.584105	0.597624	0.884260
	H66	H	0.597569	0.414662	0.116087
	H67	H	0.399551	0.411056	0.883810
	H68	H	0.591908	0.117509	0.409106
	H69	H	0.588574	0.883596	0.591896
	H70	H	0.401010	0.118163	0.594497
	H71	H	0.398162	0.881422	0.402826
	H72	H	0.898288	0.618414	0.090537
	H73	H	0.089790	0.383928	0.089380
	H74	H	0.083035	0.617414	0.903363
	H75	H	0.906594	0.383285	0.897996
	H76	H	0.092152	0.906255	0.617456
	H77	H	0.084424	0.097429	0.383621
	H78	H	0.903917	0.100540	0.617764
	H79	H	0.897347	0.907067	0.382072
	H80	H	0.608985	0.090043	0.913904
	H81	H	0.378452	0.089716	0.099028
	H82	H	0.608385	0.913428	0.083865
	H83	H	0.378963	0.907463	0.906424
	H84	H	0.612947	0.915275	0.103474
	H85	H	0.376923	0.098742	0.094588
	H86	H	0.612901	0.089167	0.901021
	H87	H	0.378497	0.907662	0.906537
	H88	H	0.896751	0.090028	0.616093
	H89	H	0.094656	0.094728	0.382172
	H90	H	0.087355	0.910136	0.614803
	H91	H	0.904506	0.907444	0.384599
	H92	H	0.088540	0.616444	0.911322
	H93	H	0.087058	0.384044	0.093867
	H94	H	0.902639	0.619414	0.098178
	H95	H	0.906795	0.387995	0.912905
	H96	H	0.405641	0.116565	0.594812
	H97	H	0.591025	0.881839	0.595145
	H98	H	0.588196	0.117527	0.404846
	H99	H	0.409829	0.884430	0.404532
	H100	H	0.579357	0.412591	0.111796
	H101	H	0.593637	0.598170	0.880886
	H102	H	0.397716	0.597327	0.117311
	H103	H	0.406999	0.407718	0.885667
	H104	H	0.114540	0.594437	0.401901
	H105	H	0.878137	0.599510	0.591381
	H106	H	0.112162	0.406366	0.588472
	H107	H	0.878162	0.409109	0.402385
	H108	H	0.907624	0.615655	0.091497
	H109	H	0.084685	0.386655	0.089608
	H110	H	0.092970	0.619457	0.903521
	H111	H	0.894067	0.381826	0.906719
	H112	H	0.086700	0.903593	0.616176
	H113	H	0.087519	0.087427	0.385419
	H114	H	0.909015	0.089891	0.613217
	H115	H	0.901575	0.900889	0.381358
	H116	H	0.613992	0.100829	0.908072
	H117	H	0.381072	0.091497	0.089352
	H118	H	0.616311	0.897506	0.093704
	H119	H	0.378885	0.908005	0.907072
	C120	C	0.374215	0.008946	0.621884
	C121	C	0.617841	0.991561	0.622702
	C122	C	0.616652	0.008308	0.379685
	C123	C	0.374526	0.992022	0.379034
	C124	C	0.616977	0.379497	0.007635
	C125	C	0.617288	0.623189	0.991331
	C126	C	0.374019	0.622657	0.007614
	C127	C	0.373359	0.378995	0.991479
	C128	C	0.004491	0.621174	0.378222
	C129	C	0.987798	0.621896	0.621309
	C130	C	0.003861	0.379531	0.620914
	C131	C	0.987202	0.378676	0.377402
	C132	C	0.873934	0.509511	0.121101
	C133	C	0.116593	0.492928	0.120184
	C134	C	0.117295	0.509381	0.877220
	C135	C	0.874054	0.492660	0.877464
	C136	C	0.117519	0.878077	0.507873
	C137	C	0.117866	0.122297	0.491599
	C138	C	0.874174	0.121685	0.507520
	C139	C	0.873466	0.877210	0.491075
	C140	C	0.503946	0.122304	0.878703
	C141	C	0.487300	0.122452	0.122650
	C142	C	0.504078	0.879390	0.122286
	C143	C	0.487231	0.879113	0.878487
	C144	C	0.376740	0.885390	0.676226
	C145	C	0.615495	0.115181	0.677184
	C146	C	0.615212	0.885340	0.323182
	C147	C	0.376447	0.115642	0.324167
	C148	C	0.671295	0.381782	0.884433
	C149	C	0.672481	0.620342	0.114314
	C150	C	0.319372	0.620227	0.884682
	C151	C	0.317553	0.382064	0.114270
	C152	C	0.880797	0.675838	0.381375
	C153	C	0.111070	0.677510	0.618742
	C154	C	0.880667	0.324071	0.617808
	C155	C	0.110725	0.323641	0.380255
	C156	C	0.880845	0.380826	0.675783
	C157	C	0.110869	0.620187	0.676353
	C158	C	0.881081	0.619415	0.323192
	C159	C	0.110338	0.380244	0.321591
	C160	C	0.377497	0.677435	0.884890
	C161	C	0.614575	0.677775	0.114615
	C162	C	0.614314	0.323265	0.885191
	C163	C	0.376051	0.324614	0.114655
	C164	C	0.671057	0.884752	0.382096
	C165	C	0.672999	0.115151	0.619398
	C166	C	0.319285	0.885341	0.618552
	C167	C	0.319465	0.115747	0.382070
	C168	C	0.876268	0.385544	0.175291
	C169	C	0.114879	0.616084	0.176484
	C170	C	0.114852	0.386187	0.822235
	C171	C	0.876462	0.615958	0.822225
	C172	C	0.173235	0.880148	0.385214
	C173	C	0.172960	0.120094	0.614260
	C174	C	0.819105	0.118158	0.384806
	C175	C	0.819186	0.880625	0.614404
	C176	C	0.380175	0.176577	0.881529
	C177	C	0.610314	0.178073	0.119721
	C178	C	0.380569	0.824713	0.118231
	C179	C	0.611223	0.825014	0.882056
	C180	C	0.380890	0.881165	0.176991
	C181	C	0.610569	0.120837	0.177517
	C182	C	0.380719	0.119997	0.823054
	C183	C	0.610783	0.881712	0.823685
	C184	C	0.876926	0.176226	0.384526
	C185	C	0.116404	0.178813	0.614034
	C186	C	0.114909	0.823031	0.384845
	C187	C	0.876988	0.823049	0.614304
	C188	C	0.171892	0.385997	0.879993
	C189	C	0.171779	0.616795	0.118007
	C190	C	0.819093	0.385545	0.117188
	C191	C	0.820138	0.616463	0.881042
	C192	C	0.396702	0.094839	0.599747
	C193	C	0.595431	0.905365	0.600908
	C194	C	0.594960	0.094697	0.401377
	C195	C	0.396806	0.906292	0.400730
	C196	C	0.594956	0.401899	0.093292
	C197	C	0.595645	0.601326	0.905373
	C198	C	0.395673	0.600484	0.093466
	C199	C	0.395740	0.400845	0.905986
	C200	C	0.090657	0.599193	0.400059
	C201	C	0.901495	0.599518	0.599235
	C202	C	0.090173	0.401936	0.599003
	C203	C	0.901456	0.401106	0.399800
	C204	C	0.896051	0.595479	0.099687
	C205	C	0.093854	0.407207	0.097608
	C206	C	0.094910	0.595607	0.899660
	C207	C	0.895907	0.406598	0.899275
	C208	C	0.095267	0.900166	0.593887
	C209	C	0.095437	0.099735	0.405725
	C210	C	0.896649	0.099919	0.593473
	C211	C	0.894823	0.898752	0.404820
	C212	C	0.589597	0.099956	0.901161
	C213	C	0.401065	0.099806	0.100783
	C214	C	0.590342	0.902154	0.100423
	C215	C	0.400984	0.901229	0.900175
	Zn216	Zn	0.495642	0.000706	0.750473
	Zn217	Zn	0.496098	0.000618	0.250683
	Zn218	Zn	0.745696	0.501217	-0.001009
	Zn219	Zn	0.245018	0.501486	-0.001097
	Zn220	Zn	-0.004021	0.749625	0.499512
	Zn221	Zn	-0.004138	0.250954	0.499433
	Zn222	Zn	-0.004484	0.500569	0.749515
	Zn223	Zn	-0.004361	0.500507	0.249477
	Zn224	Zn	0.495853	0.751659	0.000147
	Zn225	Zn	0.495225	0.250408	-0.000018
	Zn226	Zn	0.745333	-0.000347	0.500169
	Zn227	Zn	0.245908	0.000159	0.500060
	N228	N	0.410201	0.963408	0.678463
	N229	N	0.582023	0.037450	0.679435
	N230	N	0.582120	0.963276	0.321623
	N231	N	0.409764	0.037924	0.321757
	N232	N	0.673030	0.416135	0.961509
	N233	N	0.674295	0.587001	0.036572
	N234	N	0.317378	0.586641	0.961912
	N235	N	0.315926	0.415199	0.036741
	N236	N	0.958639	0.677102	0.414959
	N237	N	0.033511	0.678551	0.585129
	N238	N	0.958397	0.323201	0.584354
	N239	N	0.033432	0.322636	0.414363
	N240	N	0.958501	0.414757	0.677809
	N241	N	0.032978	0.586426	0.678144
	N242	N	0.958679	0.586105	0.321152
	N243	N	0.032460	0.413601	0.319625
	N244	N	0.410848	0.679002	0.962452
	N245	N	0.581006	0.679350	0.037426
	N246	N	0.581282	0.321714	0.962855
	N247	N	0.410026	0.322609	0.037468
	N248	N	0.672278	0.962098	0.416315
	N249	N	0.674606	0.037113	0.586364
	N250	N	0.317683	0.963076	0.585452
	N251	N	0.318045	0.037927	0.415393
	N252	N	0.909662	0.463408	0.177824
	N253	N	0.081423	0.538265	0.177976
	N254	N	0.081837	0.463990	0.820282
	N255	N	0.909458	0.537969	0.820196
	N256	N	0.174825	0.913842	0.462791
	N257	N	0.173712	0.085746	0.537264
	N258	N	0.817574	0.084972	0.462419
	N259	N	0.816860	0.913461	0.536728
	N260	N	0.457567	0.178054	0.915496
	N261	N	0.532527	0.179290	0.086212
	N262	N	0.458402	0.823452	0.085022
	N263	N	0.533389	0.823241	0.915219
	N264	N	0.458709	0.914577	0.179292
	N265	N	0.532990	0.086866	0.179281
	N266	N	0.458663	0.087031	0.821165
	N267	N	0.532826	0.914818	0.821498
	N268	N	0.910353	0.178661	0.461938
	N269	N	0.082632	0.180283	0.536540
	N270	N	0.081032	0.821717	0.462077
	N271	N	0.910199	0.820913	0.536708
	N272	N	0.173587	0.463842	0.913266
	N273	N	0.173060	0.539239	0.083824
	N274	N	0.817543	0.463419	0.084161
	N275	N	0.818248	0.538922	0.914420
	O276	O	0.486942	0.467197	0.453947
	H277	H	0.479569	0.454991	0.453820
	H278	H	0.488479	0.456261	0.448048
	O279	O	0.515591	0.458303	0.505260
	H280	H	0.515654	0.461669	0.510734
	H281	H	0.522918	0.458257	0.507619
	O282	O	0.429600	0.507057	0.483707
	H283	H	0.429184	0.504773	0.472780
	H284	H	0.430310	0.511633	0.485860
	O285	O	0.050749	1.091878	0.999064
	H286	H	0.047764	1.098183	1.000291
	H287	H	0.051355	1.096010	0.999841
	O288	O	0.532714	0.467620	0.544287
	H289	H	0.541855	0.475615	0.550537
	H290	H	0.532055	0.464684	0.538450
	O291	O	0.011066	0.008911	0.980297
	H292	H	0.006489	0.010364	0.976517
	H293	H	0.005865	0.006825	0.973597
	O294	O	0.538472	0.513986	0.491077
	H295	H	0.533960	0.513850	0.484800
	H296	H	0.543561	0.502888	0.486252
	O297	O	0.454804	0.558287	0.428482
	H298	H	0.456589	0.555741	0.429405
	H299	H	0.454952	0.558638	0.422657
	O300	O	0.507340	0.458406	0.524724
	H301	H	0.509049	0.463981	0.530721
	H302	H	0.500144	0.460224	0.523217
	O303	O	0.438170	0.464376	0.489066
	H304	H	0.437527	0.462458	0.497660
	H305	H	0.440239	0.467341	0.480136
	O306	O	1.051328	0.017948	0.964755
	H307	H	1.057022	0.015628	0.963459
	H308	H	1.051524	0.029764	0.968763
	O309	O	0.470638	0.466870	0.497967
	H310	H	0.476597	0.472575	0.498519
	H311	H	0.458185	0.462254	0.504633
	O312	O	0.526418	0.517402	0.512402
	H313	H	0.539272	0.520080	0.513946
	H314	H	0.522692	0.516623	0.507625
	O315	O	1.049496	0.100084	0.982790
	H316	H	1.055122	0.102457	0.979573
	H317	H	1.046350	0.095037	0.991565
	O318	O	0.018760	0.072907	-0.011686
	H319	H	0.018376	0.071123	-0.014120
	H320	H	0.015962	0.072362	-0.013757
	O321	O	0.521994	0.497733	0.443419
	H322	H	0.522255	0.488978	0.442400
	H323	H	0.514180	0.496016	0.437810
	O324	O	1.024789	0.068257	-0.032225
	H325	H	1.033776	0.056662	-0.024505
	H326	H	1.026550	0.070587	-0.036219
	O327	O	1.021766	1.059836	-0.045124
	H328	H	1.020078	1.066115	-0.052110
	H329	H	1.021232	1.058923	-0.043730
	O330	O	0.534815	0.459111	0.497688
	H331	H	0.522178	0.456306	0.493408
	H332	H	0.538979	0.449308	0.507030
	O333	O	0.528961	0.526461	0.579251
	H334	H	0.536649	0.534694	0.577231
	H335	H	0.535187	0.543003	0.587949
