data_Molecule from HDF5

_cell_length_a		16.256429
_cell_length_b		16.332245
_cell_length_c		16.311889
_cell_angle_alpha	89.948848
_cell_angle_beta	90.308866
_cell_angle_gamma	90.657422
_symmetry_space_group_name_H-M	'P 1'
_symmetry_Int_Tables_number		1

loop_
	_symmetry_equiv_pos_as_xyz
	x,y,z

loop_
	_atom_site_label
	_atom_site_type_symbol
	_atom_site_fract_x
	_atom_site_fract_y
	_atom_site_fract_z
	H0	H	0.394898	0.841250	0.717766
	H1	H	0.602406	0.165247	0.719685
	H2	H	0.599508	0.841392	0.285012
	H3	H	0.399841	0.164690	0.283533
	H4	H	0.712903	0.401937	0.840738
	H5	H	0.714044	0.603515	0.164574
	H6	H	0.279915	0.600172	0.839843
	H7	H	0.280766	0.400816	0.166278
	H8	H	0.835673	0.718634	0.399804
	H9	H	0.160023	0.723126	0.605184
	H10	H	0.836903	0.281630	0.605313
	H11	H	0.161594	0.289244	0.401821
	H12	H	0.835018	0.399815	0.719152
	H13	H	0.159963	0.606497	0.720924
	H14	H	0.835423	0.603649	0.285455
	H15	H	0.161662	0.407204	0.287978
	H16	H	0.394979	0.717990	0.839369
	H17	H	0.601585	0.721493	0.163039
	H18	H	0.595300	0.287989	0.839320
	H19	H	0.395993	0.283752	0.165090
	H20	H	0.710850	0.840477	0.403312
	H21	H	0.718837	0.163997	0.605667
	H22	H	0.279342	0.841387	0.601301
	H23	H	0.283295	0.165750	0.398627
	H24	H	0.897000	0.341938	0.218603
	H25	H	0.100700	0.666692	0.217997
	H26	H	0.097863	0.341644	0.784994
	H27	H	0.896206	0.664362	0.784359
	H28	H	0.210642	0.905873	0.338745
	H29	H	0.216702	0.103541	0.664975
	H30	H	0.781831	0.102044	0.339786
	H31	H	0.780524	0.900232	0.664849
	H32	H	0.333053	0.215550	0.900555
	H33	H	0.659544	0.221623	0.103808
	H34	H	0.335179	0.783570	0.101623
	H35	H	0.660161	0.788054	0.901611
	H36	H	0.335390	0.899343	0.217843
	H37	H	0.661681	0.102445	0.216423
	H38	H	0.334395	0.100561	0.784124
	H39	H	0.661299	0.905445	0.787775
	H40	H	0.897460	0.219304	0.340596
	H41	H	0.102016	0.220592	0.665150
	H42	H	0.095458	0.789365	0.339250
	H43	H	0.896811	0.784911	0.664231
	H44	H	0.208367	0.339835	0.905291
	H45	H	0.218375	0.664305	0.105365
	H46	H	0.780911	0.340901	0.102426
	H47	H	0.783430	0.665570	0.903248
	H48	H	0.414749	0.117053	0.591640
	H49	H	0.586517	0.889160	0.593023
	H50	H	0.590091	0.117266	0.415602
	H51	H	0.399278	0.886187	0.407508
	H52	H	0.588440	0.413480	0.117008
	H53	H	0.584660	0.586604	0.889808
	H54	H	0.411079	0.598951	0.117770
	H55	H	0.411982	0.408480	0.890425
	H56	H	0.116621	0.600794	0.406889
	H57	H	0.881296	0.588358	0.600044
	H58	H	0.113153	0.414374	0.593049
	H59	H	0.885477	0.418274	0.413424
	H60	H	0.113624	0.415222	0.594934
	H61	H	0.879915	0.602127	0.592520
	H62	H	0.113409	0.600321	0.416616
	H63	H	0.879823	0.407840	0.403137
	H64	H	0.401688	0.592174	0.118731
	H65	H	0.584536	0.604330	0.884989
	H66	H	0.586252	0.409423	0.117280
	H67	H	0.397015	0.400715	0.883201
	H68	H	0.594936	0.120110	0.407623
	H69	H	0.591172	0.886420	0.594979
	H70	H	0.406126	0.118437	0.588428
	H71	H	0.407744	0.886986	0.406744
	H72	H	0.906608	0.618484	0.091763
	H73	H	0.089269	0.387642	0.096420
	H74	H	0.090040	0.616239	0.921344
	H75	H	0.901720	0.386579	0.911028
	H76	H	0.086465	0.913916	0.616741
	H77	H	0.084396	0.092747	0.389991
	H78	H	0.913464	0.092501	0.616165
	H79	H	0.913029	0.896875	0.384910
	H80	H	0.610872	0.094651	0.915016
	H81	H	0.383186	0.090874	0.088567
	H82	H	0.613974	0.916266	0.099099
	H83	H	0.379023	0.903934	0.907254
	H84	H	0.616528	0.904856	0.095577
	H85	H	0.381882	0.087492	0.094265
	H86	H	0.613229	0.094101	0.908120
	H87	H	0.382898	0.909325	0.914172
	H88	H	0.906827	0.096059	0.619068
	H89	H	0.088663	0.105444	0.384401
	H90	H	0.089888	0.910221	0.618188
	H91	H	0.887066	0.910264	0.381321
	H92	H	0.097265	0.621465	0.908498
	H93	H	0.086978	0.387078	0.098965
	H94	H	0.903335	0.621839	0.096413
	H95	H	0.908196	0.388126	0.908816
	H96	H	0.408082	0.119996	0.597042
	H97	H	0.587157	0.886588	0.597810
	H98	H	0.585940	0.118164	0.407518
	H99	H	0.403718	0.889274	0.414558
	H100	H	0.590087	0.409876	0.118567
	H101	H	0.600181	0.594437	0.882978
	H102	H	0.412162	0.587857	0.114413
	H103	H	0.397543	0.417624	0.888707
	H104	H	0.111844	0.591708	0.410975
	H105	H	0.885599	0.589171	0.585091
	H106	H	0.113822	0.413621	0.594608
	H107	H	0.882924	0.403680	0.417753
	H108	H	0.909599	0.619473	0.097117
	H109	H	0.086108	0.388575	0.095558
	H110	H	0.081580	0.617743	0.907828
	H111	H	0.905786	0.389544	0.915651
	H112	H	0.091497	0.915654	0.617338
	H113	H	0.097789	0.094646	0.384960
	H114	H	0.906411	0.088793	0.617117
	H115	H	0.910780	0.924079	0.393481
	H116	H	0.614337	0.100287	0.911340
	H117	H	0.380521	0.094355	0.094605
	H118	H	0.611906	0.913345	0.087392
	H119	H	0.381555	0.913383	0.905650
	C120	C	0.377612	0.011835	0.622268
	C121	C	0.620221	0.994581	0.624994
	C122	C	0.618615	0.011164	0.381324
	C123	C	0.375760	0.994757	0.379121
	C124	C	0.617770	0.381585	0.010500
	C125	C	0.620095	0.625171	0.993061
	C126	C	0.376991	0.622406	0.009962
	C127	C	0.373346	0.379001	0.994506
	C128	C	0.006501	0.625916	0.380987
	C129	C	0.989537	0.624976	0.623659
	C130	C	0.006518	0.382055	0.624469
	C131	C	0.990166	0.382063	0.381561
	C132	C	0.876197	0.512569	0.124612
	C133	C	0.119510	0.494710	0.126264
	C134	C	0.118100	0.511217	0.882362
	C135	C	0.875860	0.494532	0.881475
	C136	C	0.118107	0.883846	0.510196
	C137	C	0.121685	0.127010	0.493712
	C138	C	0.877979	0.123076	0.510675
	C139	C	0.874397	0.880037	0.493632
	C140	C	0.505344	0.124380	0.880482
	C141	C	0.489224	0.122493	0.122967
	C142	C	0.506801	0.879985	0.123818
	C143	C	0.489005	0.880938	0.880048
	C144	C	0.376309	0.889487	0.678991
	C145	C	0.621320	0.116475	0.681514
	C146	C	0.617886	0.889590	0.324518
	C147	C	0.379059	0.116253	0.322113
	C148	C	0.674232	0.382750	0.888833
	C149	C	0.676692	0.624098	0.115414
	C150	C	0.318613	0.620685	0.888281
	C151	C	0.318354	0.380528	0.117204
	C152	C	0.884215	0.680959	0.380799
	C153	C	0.111429	0.683727	0.624255
	C154	C	0.885112	0.321769	0.624537
	C155	C	0.112743	0.327039	0.382426
	C156	C	0.884255	0.380496	0.681188
	C157	C	0.111359	0.625937	0.682125
	C158	C	0.884215	0.623562	0.323999
	C159	C	0.112666	0.385628	0.325595
	C160	C	0.376052	0.679175	0.887908
	C161	C	0.620278	0.682654	0.114641
	C162	C	0.615534	0.326138	0.888049
	C163	C	0.375668	0.322260	0.116744
	C164	C	0.673745	0.889092	0.383073
	C165	C	0.679445	0.115948	0.624809
	C166	C	0.318679	0.889700	0.621238
	C167	C	0.321000	0.116754	0.379507
	C168	C	0.876680	0.390328	0.180860
	C169	C	0.120199	0.617487	0.180987
	C170	C	0.117096	0.389938	0.824375
	C171	C	0.876720	0.616295	0.823757
	C172	C	0.172614	0.885800	0.387354
	C173	C	0.178627	0.124503	0.616250
	C174	C	0.820378	0.122376	0.388579
	C175	C	0.818901	0.880832	0.615978
	C176	C	0.382285	0.178365	0.880839
	C177	C	0.611495	0.181257	0.122439
	C178	C	0.383973	0.822421	0.122075
	C179	C	0.611560	0.826030	0.881729
	C180	C	0.384223	0.879948	0.179781
	C181	C	0.612454	0.122552	0.178866
	C182	C	0.382942	0.121099	0.822992
	C183	C	0.612062	0.884340	0.825009
	C184	C	0.878084	0.180428	0.388931
	C185	C	0.121584	0.182550	0.616418
	C186	C	0.115505	0.827845	0.387644
	C187	C	0.876487	0.823202	0.615551
	C188	C	0.171877	0.388735	0.884383
	C189	C	0.178490	0.616484	0.124499
	C190	C	0.818890	0.390008	0.123076
	C191	C	0.820693	0.616780	0.882824
	C192	C	0.402507	0.096323	0.599160
	C193	C	0.595533	0.909556	0.602027
	C194	C	0.596483	0.096368	0.403618
	C195	C	0.397295	0.909539	0.402632
	C196	C	0.594980	0.404175	0.095688
	C197	C	0.596609	0.601917	0.907992
	C198	C	0.401288	0.599713	0.094795
	C199	C	0.395637	0.402103	0.909422
	C200	C	0.092118	0.604001	0.404648
	C201	C	0.904330	0.600171	0.599632
	C202	C	0.091444	0.407121	0.601141
	C203	C	0.904931	0.403674	0.404628
	C204	C	0.899645	0.597753	0.101791
	C205	C	0.094718	0.409949	0.103731
	C206	C	0.096031	0.596364	0.905625
	C207	C	0.898749	0.409912	0.904803
	C208	C	0.095971	0.906639	0.595147
	C209	C	0.097518	0.104381	0.408703
	C210	C	0.901878	0.099431	0.595558
	C211	C	0.896801	0.903561	0.408465
	C212	C	0.590789	0.102762	0.904373
	C213	C	0.404041	0.098166	0.099274
	C214	C	0.591967	0.904233	0.100950
	C215	C	0.403415	0.902521	0.902330
	Zn216	Zn	0.498258	0.003087	0.752151
	Zn217	Zn	0.498703	0.001994	0.251853
	Zn218	Zn	0.747251	0.503297	0.002356
	Zn219	Zn	0.246350	0.502183	0.003647
	Zn220	Zn	-0.002245	0.753764	0.502199
	Zn221	Zn	-0.001136	0.253306	0.503022
	Zn222	Zn	-0.002571	0.503502	0.752929
	Zn223	Zn	-0.001939	0.504430	0.253819
	Zn224	Zn	0.498036	0.752503	0.001243
	Zn225	Zn	0.496282	0.252121	0.001936
	Zn226	Zn	0.746986	0.002595	0.502697
	Zn227	Zn	0.248235	0.003756	0.501266
	N228	N	0.412288	0.966184	0.679996
	N229	N	0.585376	0.039882	0.681895
	N230	N	0.584396	0.966464	0.323294
	N231	N	0.412089	0.039203	0.321529
	N232	N	0.675789	0.416397	0.966138
	N233	N	0.676635	0.589017	0.038893
	N234	N	0.319134	0.586064	0.965239
	N235	N	0.316550	0.414791	0.040195
	N236	N	0.961314	0.682554	0.415814
	N237	N	0.034560	0.683158	0.588580
	N238	N	0.962157	0.322413	0.590062
	N239	N	0.035578	0.324610	0.416574
	N240	N	0.960541	0.417482	0.680975
	N241	N	0.034444	0.590153	0.681861
	N242	N	0.961360	0.590041	0.323990
	N243	N	0.035347	0.419162	0.324907
	N244	N	0.411669	0.680314	0.964514
	N245	N	0.585956	0.683794	0.037358
	N246	N	0.581127	0.325078	0.964854
	N247	N	0.408945	0.320984	0.039384
	N248	N	0.674301	0.965618	0.418053
	N249	N	0.678991	0.039016	0.590586
	N250	N	0.319332	0.966537	0.586755
	N251	N	0.318907	0.040028	0.414298
	N252	N	0.911369	0.467526	0.182147
	N253	N	0.084238	0.540828	0.182242
	N254	N	0.084188	0.467113	0.823166
	N255	N	0.910259	0.539417	0.822696
	N256	N	0.174294	0.919920	0.464284
	N257	N	0.179265	0.091095	0.538776
	N258	N	0.820305	0.087331	0.465348
	N259	N	0.817367	0.915472	0.539087
	N260	N	0.459510	0.180514	0.915897
	N261	N	0.533711	0.181544	0.088446
	N262	N	0.461184	0.822137	0.088088
	N263	N	0.534050	0.823661	0.915138
	N264	N	0.461623	0.915064	0.180935
	N265	N	0.535563	0.086815	0.179261
	N266	N	0.460455	0.088345	0.822690
	N267	N	0.534786	0.917821	0.823769
	N268	N	0.913130	0.180932	0.465853
	N269	N	0.087067	0.184397	0.539278
	N270	N	0.082397	0.826372	0.465107
	N271	N	0.909980	0.822509	0.538344
	N272	N	0.172626	0.465213	0.919684
	N273	N	0.178377	0.539081	0.091465
	N274	N	0.818663	0.466878	0.088766
	N275	N	0.820035	0.540171	0.917874
	O276	O	1.393553	0.545453	0.516702
	H277	H	1.394623	0.549904	0.511741
	H278	H	1.401640	0.531521	0.513102
	O279	O	0.602644	0.477236	0.498143
	H280	H	0.606858	0.480096	0.511950
	H281	H	0.610750	0.482676	0.501990
	O282	O	0.669996	0.658314	0.569823
	H283	H	0.685425	0.668233	0.578885
	H284	H	0.667230	0.664969	0.586302
	O285	O	0.488068	0.640518	0.523588
	H286	H	0.484821	0.641953	0.523463
	H287	H	0.490547	0.638682	0.522618
	O288	O	0.406765	0.655135	0.449045
	H289	H	0.421911	0.651550	0.459818
	H290	H	0.398969	0.649731	0.436322
	O291	O	-0.019481	0.000334	1.061273
	H292	H	-0.020114	0.011451	1.064479
	H293	H	-0.015074	-0.003757	1.070889
	O294	O	1.035939	0.992545	-0.039776
	H295	H	1.035967	0.984236	-0.039026
	H296	H	1.022185	0.998859	-0.043067
	O297	O	1.026966	1.085363	0.075737
	H298	H	1.025991	1.084032	0.070253
	H299	H	1.027515	1.084374	0.073847
	O300	O	0.459157	0.361448	0.419391
	H301	H	0.453465	0.360700	0.405763
	H302	H	0.464958	0.357758	0.427361
	O303	O	0.684695	0.560830	0.656157
	H304	H	0.682446	0.563765	0.651697
	H305	H	0.681795	0.565840	0.657691
	O306	O	0.615414	0.405227	0.605874
	H307	H	0.624756	0.422211	0.594528
	H308	H	0.614753	0.390927	0.602439
	O309	O	0.452369	0.639657	0.421796
	H310	H	0.441591	0.635840	0.423135
	H311	H	0.450246	0.631082	0.429977
	O312	O	0.980872	0.908324	1.013748
	H313	H	0.980975	0.903829	1.009922
	H314	H	0.975372	0.913190	1.015938
	O315	O	1.084790	1.032900	0.098738
	H316	H	1.094448	1.021198	0.102327
	H317	H	1.089025	1.033779	0.106263
	O318	O	0.376548	0.445352	0.466627
	H319	H	0.369602	0.445339	0.470390
	H320	H	0.386513	0.447905	0.464782
	O321	O	0.583625	0.586516	0.485206
	H322	H	0.578699	0.596653	0.480123
	H323	H	0.593165	0.587436	0.467797
	O324	O	-0.336257	1.400345	0.353145
	H325	H	-0.336240	1.405867	0.351300
	H326	H	-0.335186	1.395964	0.348734
	O327	O	0.045097	1.026139	1.026497
	H328	H	0.045879	1.027021	1.046436
	H329	H	0.043903	1.012997	1.022400
	O330	O	-0.455187	-0.547606	0.383021
	H331	H	-0.449481	-0.536910	0.372053
	H332	H	-0.456379	-0.556323	0.386592
	O333	O	0.462227	0.634092	0.326549
	H334	H	0.451956	0.641892	0.324914
	H335	H	0.460576	0.642805	0.317253
	O336	O	-0.589099	-0.645882	-0.322087
	H337	H	-0.594918	-0.647192	-0.346588
	H338	H	-0.586133	-0.645983	-0.315054
	O339	O	0.031770	0.048570	-0.005382
	H340	H	0.046695	0.053664	0.008913
	H341	H	0.030273	0.046103	0.001794
	O342	O	0.378220	0.513119	0.436660
	H343	H	0.378415	0.515144	0.436154
	H344	H	0.381169	0.505057	0.429439
	O345	O	0.048826	1.069660	1.084959
	H346	H	0.051277	1.072671	1.077620
	H347	H	0.042199	1.066753	1.086748
	O348	O	0.385682	0.295355	0.602538
	H349	H	0.352796	0.279180	0.605580
	H350	H	0.392851	0.295266	0.621195
	O351	O	0.546397	0.566221	0.603495
	H352	H	0.537512	0.561965	0.615580
	H353	H	0.536493	0.562420	0.604213
	O354	O	-0.049441	0.984323	0.050617
	H355	H	-0.044541	0.990357	0.049713
	H356	H	-0.053726	0.990891	0.050157
	O357	O	-0.082622	0.104883	0.968672
	H358	H	-0.075271	0.101477	0.958008
	H359	H	-0.079081	0.115591	0.957319
	O360	O	0.887435	0.061853	0.867822
	H361	H	0.888460	0.069886	0.863944
	H362	H	0.889244	0.063054	0.867897
	O363	O	0.466831	0.451745	0.422109
	H364	H	0.469338	0.450585	0.427325
	H365	H	0.461006	0.451355	0.433150
	O366	O	0.589373	0.402945	0.500150
	H367	H	0.595280	0.402171	0.503696
	H368	H	0.577666	0.412880	0.493149
	O369	O	1.050306	-0.078375	-0.039110
	H370	H	1.039602	-0.078352	-0.055787
	H371	H	1.049848	-0.079214	-0.038070
	O372	O	0.544178	0.531316	0.519698
	H373	H	0.552527	0.534448	0.523975
	H374	H	0.547523	0.514894	0.508900
	O375	O	0.988715	0.032847	0.953253
	H376	H	0.992801	0.027844	0.957120
	H377	H	0.993312	0.028561	0.949241
	O378	O	-0.074806	0.983142	-0.005384
	H379	H	-0.070670	0.977626	-0.011552
	H380	H	-0.084085	0.997195	0.001924
	O381	O	0.988194	0.055978	0.914218
	H382	H	0.986641	0.057740	0.915202
	H383	H	0.984633	0.053795	0.909956
	O384	O	0.934489	1.074380	-0.001862
	H385	H	0.935402	1.081320	-0.007622
	H386	H	0.932990	1.081143	0.000814
	O387	O	1.044961	-0.034610	1.045560
	H388	H	1.048236	-0.028952	1.044500
	H389	H	1.033310	-0.034397	1.042524
	O390	O	1.465104	1.556030	-0.499094
	H391	H	1.459223	1.560794	-0.499454
	H392	H	1.474367	1.562894	-0.492326
	O393	O	0.394447	0.462659	0.676085
	H394	H	0.410257	0.454996	0.679716
	H395	H	0.401101	0.464165	0.684757
