data_Molecule from HDF5

_cell_length_a		16.321172
_cell_length_b		16.101155
_cell_length_c		16.363754
_cell_angle_alpha	90.047060
_cell_angle_beta	90.265361
_cell_angle_gamma	90.044131
_symmetry_space_group_name_H-M	'P 1'
_symmetry_Int_Tables_number		1

loop_
	_symmetry_equiv_pos_as_xyz
	x,y,z

loop_
	_atom_site_label
	_atom_site_type_symbol
	_atom_site_fract_x
	_atom_site_fract_y
	_atom_site_fract_z
	H0	H	0.403772	0.827900	0.713579
	H1	H	0.602519	0.156695	0.717855
	H2	H	0.600839	0.828270	0.287577
	H3	H	0.400907	0.157330	0.286957
	H4	H	0.717076	0.391447	0.837551
	H5	H	0.718283	0.592696	0.163086
	H6	H	0.284450	0.592080	0.838067
	H7	H	0.283469	0.389450	0.161858
	H8	H	0.837077	0.705730	0.403290
	H9	H	0.165334	0.705585	0.597733
	H10	H	0.836929	0.278552	0.596628
	H11	H	0.165342	0.278676	0.403445
	H12	H	0.838958	0.391191	0.717144
	H13	H	0.164035	0.593755	0.717466
	H14	H	0.838736	0.593966	0.282583
	H15	H	0.163689	0.389978	0.283452
	H16	H	0.403689	0.705578	0.836843
	H17	H	0.598534	0.704002	0.164893
	H18	H	0.596122	0.278346	0.836841
	H19	H	0.406101	0.281158	0.164920
	H20	H	0.712978	0.828118	0.404019
	H21	H	0.716663	0.157424	0.601871
	H22	H	0.287024	0.828459	0.599837
	H23	H	0.288500	0.158677	0.402930
	H24	H	0.902147	0.327789	0.214451
	H25	H	0.101316	0.657080	0.214945
	H26	H	0.101897	0.328675	0.784349
	H27	H	0.902111	0.657836	0.786317
	H28	H	0.218538	0.891764	0.338918
	H29	H	0.218231	0.094226	0.662107
	H30	H	0.782717	0.094294	0.338799
	H31	H	0.785719	0.892758	0.663288
	H32	H	0.336232	0.203679	0.904846
	H33	H	0.664779	0.205728	0.099050
	H34	H	0.337065	0.778325	0.096943
	H35	H	0.665678	0.779080	0.906291
	H36	H	0.338342	0.891546	0.216867
	H37	H	0.663859	0.092973	0.218081
	H38	H	0.338087	0.092652	0.784892
	H39	H	0.663716	0.889903	0.785626
	H40	H	0.902979	0.205802	0.336448
	H41	H	0.098952	0.205509	0.664225
	H42	H	0.096466	0.779863	0.336858
	H43	H	0.904457	0.778514	0.664437
	H44	H	0.213428	0.326414	0.901070
	H45	H	0.216166	0.656702	0.099437
	H46	H	0.788512	0.326919	0.098180
	H47	H	0.787612	0.657819	0.902139
	H48	H	0.409085	0.110690	0.591384
	H49	H	0.591803	0.877439	0.586869
	H50	H	0.592494	0.111917	0.405219
	H51	H	0.400678	0.873739	0.412501
	H52	H	0.597396	0.402915	0.115948
	H53	H	0.603622	0.579510	0.883832
	H54	H	0.411876	0.580207	0.114071
	H55	H	0.415559	0.403001	0.888493
	H56	H	0.118770	0.587534	0.405939
	H57	H	0.887286	0.583858	0.587438
	H58	H	0.116574	0.403640	0.597713
	H59	H	0.885957	0.402647	0.406580
	H60	H	0.118578	0.396183	0.595094
	H61	H	0.885480	0.578582	0.599273
	H62	H	0.116209	0.584812	0.409019
	H63	H	0.885318	0.399638	0.403513
	H64	H	0.408989	0.587962	0.118091
	H65	H	0.587335	0.579963	0.888282
	H66	H	0.593744	0.398683	0.115914
	H67	H	0.405670	0.386576	0.880625
	H68	H	0.589145	0.109683	0.410792
	H69	H	0.601548	0.871842	0.596204
	H70	H	0.406771	0.112999	0.595593
	H71	H	0.410782	0.872811	0.400205
	H72	H	0.905791	0.610965	0.090830
	H73	H	0.093100	0.373550	0.094980
	H74	H	0.097295	0.609438	0.913957
	H75	H	0.901948	0.374938	0.914789
	H76	H	0.095126	0.899165	0.616805
	H77	H	0.094332	0.083187	0.385224
	H78	H	0.907020	0.090733	0.618449
	H79	H	0.905729	0.898749	0.384654
	H80	H	0.618717	0.077635	0.900438
	H81	H	0.388680	0.077346	0.088572
	H82	H	0.615730	0.896349	0.086393
	H83	H	0.384885	0.904094	0.900659
	H84	H	0.615508	0.909893	0.100831
	H85	H	0.382154	0.081775	0.106186
	H86	H	0.620696	0.094504	0.908157
	H87	H	0.382523	0.892066	0.905929
	H88	H	0.903483	0.079968	0.615747
	H89	H	0.093859	0.087323	0.383862
	H90	H	0.097488	0.899881	0.617755
	H91	H	0.905284	0.899389	0.385037
	H92	H	0.095255	0.612506	0.903111
	H93	H	0.090870	0.375221	0.092495
	H94	H	0.910637	0.611556	0.097187
	H95	H	0.908064	0.371519	0.898551
	H96	H	0.411748	0.110714	0.596443
	H97	H	0.586715	0.875502	0.599871
	H98	H	0.595585	0.111596	0.411403
	H99	H	0.415739	0.878638	0.414904
	H100	H	0.598284	0.396974	0.117078
	H101	H	0.594473	0.594320	0.881659
	H102	H	0.402274	0.580898	0.116826
	H103	H	0.396283	0.404613	0.882493
	H104	H	0.117620	0.583193	0.404439
	H105	H	0.882123	0.591131	0.596995
	H106	H	0.115769	0.400961	0.590575
	H107	H	0.885778	0.399025	0.407780
	H108	H	0.913137	0.608182	0.090150
	H109	H	0.094630	0.374272	0.091780
	H110	H	0.087354	0.608087	0.909901
	H111	H	0.919023	0.378961	0.910546
	H112	H	0.095476	0.900904	0.616422
	H113	H	0.097968	0.085711	0.382688
	H114	H	0.914422	0.083063	0.613696
	H115	H	0.906118	0.899542	0.385005
	H116	H	0.612599	0.080337	0.917679
	H117	H	0.382380	0.094527	0.092426
	H118	H	0.621427	0.890971	0.104359
	H119	H	0.387995	0.901196	0.913431
	C120	C	0.380778	0.001975	0.622376
	C121	C	0.622864	0.983717	0.623316
	C122	C	0.621406	0.002041	0.380481
	C123	C	0.380237	0.984183	0.380313
	C124	C	0.623765	0.370161	0.008682
	C125	C	0.623469	0.613453	0.992354
	C126	C	0.379323	0.612785	0.008684
	C127	C	0.378150	0.369585	0.991756
	C128	C	0.009522	0.614108	0.378149
	C129	C	0.993055	0.613936	0.622725
	C130	C	0.009481	0.370529	0.622649
	C131	C	0.993431	0.371193	0.378137
	C132	C	0.880953	0.500928	0.121117
	C133	C	0.122496	0.483437	0.121679
	C134	C	0.122098	0.500615	0.879711
	C135	C	0.880487	0.484176	0.879225
	C136	C	0.123775	0.871040	0.509146
	C137	C	0.123862	0.114673	0.491623
	C138	C	0.878885	0.113939	0.508551
	C139	C	0.878457	0.870556	0.492580
	C140	C	0.508981	0.112876	0.880146
	C141	C	0.492539	0.114020	0.124321
	C142	C	0.509722	0.869720	0.124563
	C143	C	0.493062	0.870083	0.879292
	C144	C	0.383265	0.877250	0.676229
	C145	C	0.622347	0.107653	0.679549
	C146	C	0.620119	0.877495	0.325356
	C147	C	0.381496	0.108244	0.324951
	C148	C	0.679130	0.371452	0.886273
	C149	C	0.679314	0.611893	0.114848
	C150	C	0.323111	0.611745	0.886382
	C151	C	0.322709	0.370707	0.113900
	C152	C	0.886279	0.668783	0.381617
	C153	C	0.116133	0.668673	0.619205
	C154	C	0.886194	0.315681	0.618446
	C155	C	0.116280	0.315740	0.381998
	C156	C	0.887094	0.371962	0.677952
	C157	C	0.115663	0.613069	0.678555
	C158	C	0.887153	0.613475	0.321571
	C159	C	0.115488	0.371502	0.322377
	C160	C	0.382611	0.667984	0.885842
	C161	C	0.619840	0.667376	0.115637
	C162	C	0.618597	0.315508	0.885602
	C163	C	0.383422	0.316578	0.115251
	C164	C	0.676384	0.877494	0.382997
	C165	C	0.678758	0.108019	0.621525
	C166	C	0.325213	0.877729	0.619914
	C167	C	0.325720	0.108957	0.382807
	C168	C	0.882394	0.376748	0.176243
	C169	C	0.120805	0.607746	0.176628
	C170	C	0.120690	0.377039	0.823352
	C171	C	0.882289	0.608440	0.824329
	C172	C	0.179143	0.872637	0.386957
	C173	C	0.179590	0.113515	0.614044
	C174	C	0.821645	0.113377	0.387058
	C175	C	0.823805	0.872629	0.615075
	C176	C	0.385678	0.167095	0.883270
	C177	C	0.615539	0.168801	0.120723
	C178	C	0.386313	0.815154	0.119422
	C179	C	0.616561	0.816043	0.884380
	C180	C	0.386936	0.871467	0.178963
	C181	C	0.615112	0.112606	0.179762
	C182	C	0.386832	0.111964	0.823512
	C183	C	0.615375	0.871136	0.824316
	C184	C	0.881424	0.168949	0.385711
	C185	C	0.120310	0.169010	0.614788
	C186	C	0.118838	0.816907	0.385888
	C187	C	0.882942	0.815965	0.615602
	C188	C	0.176673	0.376282	0.881239
	C189	C	0.177871	0.607557	0.119025
	C190	C	0.826101	0.376244	0.118554
	C191	C	0.825116	0.608482	0.881636
	C192	C	0.402798	0.088901	0.600781
	C193	C	0.600161	0.897231	0.600832
	C194	C	0.598966	0.088576	0.402644
	C195	C	0.402506	0.897604	0.402571
	C196	C	0.602639	0.392810	0.094243
	C197	C	0.601383	0.591154	0.906781
	C198	C	0.401363	0.589898	0.094115
	C199	C	0.399365	0.391631	0.906170
	C200	C	0.095332	0.591596	0.399795
	C201	C	0.907039	0.591208	0.600902
	C202	C	0.094852	0.393497	0.600873
	C203	C	0.907698	0.394005	0.399703
	C204	C	0.903165	0.587622	0.099096
	C205	C	0.099589	0.396613	0.099497
	C206	C	0.099746	0.587612	0.902439
	C207	C	0.903086	0.397443	0.901370
	C208	C	0.102516	0.893556	0.594749
	C209	C	0.101870	0.092058	0.406069
	C210	C	0.901743	0.091341	0.593809
	C211	C	0.899436	0.892726	0.407023
	C212	C	0.595087	0.090651	0.902153
	C213	C	0.406540	0.091221	0.102326
	C214	C	0.595482	0.892293	0.103517
	C215	C	0.407185	0.892483	0.900345
	Zn216	Zn	0.501630	-0.007600	0.750607
	Zn217	Zn	0.500794	-0.007632	0.253024
	Zn218	Zn	0.753043	0.492941	0.000624
	Zn219	Zn	0.249693	0.491044	0.000167
	Zn220	Zn	0.001142	0.742144	0.500734
	Zn221	Zn	0.001519	0.241910	0.500071
	Zn222	Zn	0.001829	0.492807	0.751846
	Zn223	Zn	0.001381	0.492096	0.249238
	Zn224	Zn	0.501298	0.741882	0.001098
	Zn225	Zn	0.500251	0.241461	0.000871
	Zn226	Zn	0.749363	-0.007288	0.501007
	Zn227	Zn	0.252848	-0.006253	0.500578
	N228	N	0.417100	0.955356	0.677759
	N229	N	0.588172	0.029603	0.680636
	N230	N	0.586801	0.955887	0.323577
	N231	N	0.414750	0.029821	0.323430
	N232	N	0.682273	0.404889	0.963869
	N233	N	0.682092	0.579413	0.037191
	N234	N	0.321182	0.577787	0.963603
	N235	N	0.319299	0.402942	0.036209
	N236	N	0.963224	0.669082	0.416199
	N237	N	0.038839	0.669360	0.585238
	N238	N	0.963164	0.314740	0.584701
	N239	N	0.039388	0.315481	0.416057
	N240	N	0.964853	0.405135	0.680901
	N241	N	0.038029	0.579562	0.680680
	N242	N	0.964820	0.580167	0.319214
	N243	N	0.038041	0.405113	0.319911
	N244	N	0.416647	0.668961	0.962843
	N245	N	0.585708	0.668631	0.038477
	N246	N	0.585167	0.314358	0.962619
	N247	N	0.417295	0.315709	0.038281
	N248	N	0.677020	0.955677	0.416813
	N249	N	0.679233	0.029876	0.587363
	N250	N	0.323551	0.956326	0.586935
	N251	N	0.324689	0.030638	0.416646
	N252	N	0.916086	0.455065	0.177730
	N253	N	0.087251	0.529392	0.178424
	N254	N	0.087460	0.455435	0.822424
	N255	N	0.915955	0.530068	0.822677
	N256	N	0.182558	0.905326	0.464720
	N257	N	0.181835	0.080395	0.536557
	N258	N	0.820157	0.079850	0.464442
	N259	N	0.820902	0.905818	0.537575
	N260	N	0.462719	0.167829	0.917752
	N261	N	0.538305	0.169664	0.086647
	N262	N	0.463716	0.813895	0.086494
	N263	N	0.539540	0.815413	0.917947
	N264	N	0.464643	0.904776	0.182263
	N265	N	0.537440	0.079313	0.182005
	N266	N	0.464602	0.078820	0.821630
	N267	N	0.537448	0.903965	0.820924
	N268	N	0.916243	0.169589	0.462435
	N269	N	0.086360	0.169834	0.537642
	N270	N	0.085142	0.815893	0.462774
	N271	N	0.916104	0.814574	0.538486
	N272	N	0.177363	0.454346	0.915738
	N273	N	0.178781	0.529165	0.085643
	N274	N	0.824919	0.454484	0.085000
	N275	N	0.824003	0.530161	0.915148
	O276	O	1.097168	1.029339	0.057488
	H277	H	1.097792	1.032830	0.060243
	H278	H	1.089668	1.036308	0.054728
	O279	O	0.541920	0.449735	0.485956
	H280	H	0.534965	0.453707	0.481072
	H281	H	0.536599	0.452054	0.481325
	O282	O	-0.021484	0.070500	-0.069599
	H283	H	-0.029030	0.072941	-0.063734
	H284	H	-0.017959	0.063537	-0.067977
	O285	O	0.502820	0.577946	0.468378
	H286	H	0.496150	0.572319	0.478888
	H287	H	0.508644	0.580592	0.474590
	O288	O	-0.045543	0.071440	-0.042053
	H289	H	-0.044260	0.079596	-0.051876
	H290	H	-0.055422	0.075479	-0.044389
	O291	O	0.010979	0.951370	-0.021762
	H292	H	0.012573	0.945224	-0.022693
	H293	H	0.004471	0.950749	-0.018391
	O294	O	0.035350	0.974349	-0.019923
	H295	H	0.030729	0.981722	-0.026516
	H296	H	0.048476	0.974085	-0.010407
	O297	O	0.527043	0.507290	0.476566
	H298	H	0.534100	0.492924	0.480476
	H299	H	0.525601	0.510545	0.475576
	O300	O	0.467835	0.538704	0.480359
	H301	H	0.469645	0.538590	0.474831
	H302	H	0.475196	0.541984	0.480910
	O303	O	0.901705	0.080032	1.011618
	H304	H	0.899511	0.079153	1.009354
	H305	H	0.900938	0.072259	1.024732
	O306	O	-0.047480	1.038139	0.983977
	H307	H	-0.048267	1.037359	0.983896
	H308	H	-0.050917	1.035324	0.989235
	O309	O	-0.019611	1.043687	0.974723
	H310	H	-0.011365	1.045695	0.977587
	H311	H	-0.020342	1.036868	0.972892
	O312	O	-0.039003	-0.009454	0.956216
	H313	H	-0.031329	-0.012951	0.961562
	H314	H	-0.030048	-0.014299	0.953702
	O315	O	0.484599	0.533602	0.550035
	H316	H	0.475591	0.531211	0.544008
	H317	H	0.495693	0.530563	0.553501
	O318	O	0.035846	0.002305	0.958206
	H319	H	0.043869	0.001941	0.958709
	H320	H	0.035961	0.007969	0.958797
	O321	O	0.555820	0.468844	0.478851
	H322	H	0.544061	0.479743	0.480870
	H323	H	0.565151	0.466814	0.480844
	O324	O	0.935195	-0.006690	0.962485
	H325	H	0.937245	-0.005664	0.951211
	H326	H	0.930302	0.001051	0.959103
	O327	O	1.004502	0.983542	0.957470
	H328	H	0.990217	0.988109	0.958281
	H329	H	1.010168	0.982960	0.945097
	O330	O	0.448243	0.482843	0.482225
	H331	H	0.454966	0.491261	0.479076
	H332	H	0.448566	0.476087	0.485781
	O333	O	0.402965	0.562516	0.477047
	H334	H	0.408142	0.567939	0.476011
	H335	H	0.409741	0.572752	0.480584
	O336	O	0.487045	0.486115	0.461311
	H337	H	0.484065	0.490413	0.451664
	H338	H	0.491073	0.479605	0.448086
	O339	O	0.491109	0.486357	0.453473
	H340	H	0.495761	0.487700	0.449324
	H341	H	0.490978	0.475113	0.448804
	O342	O	0.547783	0.505065	0.460503
	H343	H	0.549060	0.509527	0.463884
	H344	H	0.548520	0.506906	0.459765
	O345	O	0.530214	0.506406	0.482928
	H346	H	0.524824	0.515125	0.486239
	H347	H	0.525668	0.491719	0.481742
