data_Molecule from HDF5

_cell_length_a		16.065982
_cell_length_b		16.439204
_cell_length_c		16.262131
_cell_angle_alpha	90.138879
_cell_angle_beta	89.954174
_cell_angle_gamma	89.714683
_symmetry_space_group_name_H-M	'P 1'
_symmetry_Int_Tables_number		1

loop_
	_symmetry_equiv_pos_as_xyz
	x,y,z

loop_
	_atom_site_label
	_atom_site_type_symbol
	_atom_site_fract_x
	_atom_site_fract_y
	_atom_site_fract_z
	H0	H	0.393931	0.841483	0.719541
	H1	H	0.591475	0.165875	0.720022
	H2	H	0.595400	0.842362	0.284977
	H3	H	0.391016	0.165307	0.286159
	H4	H	0.703887	0.406859	0.837596
	H5	H	0.703786	0.600087	0.165996
	H6	H	0.278946	0.599157	0.837101
	H7	H	0.279423	0.409996	0.167270
	H8	H	0.826783	0.720486	0.401757
	H9	H	0.156130	0.719594	0.603567
	H10	H	0.826781	0.289723	0.601773
	H11	H	0.154703	0.287059	0.398179
	H12	H	0.825505	0.407866	0.714436
	H13	H	0.156566	0.602465	0.716605
	H14	H	0.824966	0.601024	0.290836
	H15	H	0.155836	0.404846	0.288362
	H16	H	0.387812	0.722413	0.840048
	H17	H	0.591951	0.720767	0.165289
	H18	H	0.596032	0.283947	0.841304
	H19	H	0.388877	0.288730	0.165457
	H20	H	0.706532	0.840946	0.407173
	H21	H	0.705381	0.167508	0.601203
	H22	H	0.278613	0.840130	0.600539
	H23	H	0.276845	0.166204	0.405002
	H24	H	0.890780	0.341660	0.218745
	H25	H	0.089609	0.665059	0.219294
	H26	H	0.093924	0.342405	0.783568
	H27	H	0.888632	0.665044	0.784510
	H28	H	0.206028	0.905883	0.337820
	H29	H	0.204773	0.100899	0.666239
	H30	H	0.779958	0.098318	0.337649
	H31	H	0.782332	0.910390	0.668091
	H32	H	0.327457	0.219833	0.903470
	H33	H	0.656192	0.219233	0.104666
	H34	H	0.326298	0.790931	0.103825
	H35	H	0.654858	0.785160	0.899291
	H36	H	0.326587	0.908250	0.216174
	H37	H	0.657733	0.101150	0.215417
	H38	H	0.327001	0.104079	0.789209
	H39	H	0.659213	0.906465	0.792711
	H40	H	0.887638	0.220236	0.338899
	H41	H	0.092777	0.222475	0.663943
	H42	H	0.095918	0.784985	0.339848
	H43	H	0.889945	0.787486	0.664614
	H44	H	0.207220	0.341146	0.903414
	H45	H	0.202385	0.667457	0.098301
	H46	H	0.778494	0.339986	0.098229
	H47	H	0.776159	0.666311	0.904666
	H48	H	0.389763	0.121985	0.598438
	H49	H	0.586077	0.888818	0.594257
	H50	H	0.586552	0.120274	0.406273
	H51	H	0.395485	0.885533	0.403478
	H52	H	0.583844	0.415298	0.117227
	H53	H	0.578658	0.608293	0.883144
	H54	H	0.399869	0.597205	0.118262
	H55	H	0.398902	0.404142	0.883775
	H56	H	0.112186	0.602129	0.408101
	H57	H	0.877289	0.590079	0.589723
	H58	H	0.104895	0.415963	0.582599
	H59	H	0.868397	0.401545	0.407579
	H60	H	0.109456	0.417889	0.600741
	H61	H	0.870259	0.598010	0.601884
	H62	H	0.106606	0.593892	0.417722
	H63	H	0.875804	0.413325	0.419834
	H64	H	0.399846	0.602438	0.119039
	H65	H	0.592046	0.592657	0.883535
	H66	H	0.578993	0.408387	0.118618
	H67	H	0.396986	0.416076	0.886601
	H68	H	0.581199	0.118550	0.408091
	H69	H	0.591129	0.887401	0.598655
	H70	H	0.407065	0.118158	0.604437
	H71	H	0.409232	0.890214	0.406142
	H72	H	0.901739	0.615829	0.088501
	H73	H	0.076250	0.387490	0.105513
	H74	H	0.082658	0.618660	0.909146
	H75	H	0.906470	0.392934	0.914679
	H76	H	0.088072	0.908477	0.620956
	H77	H	0.091860	0.097658	0.382438
	H78	H	0.907943	0.094140	0.614891
	H79	H	0.897038	0.901963	0.382680
	H80	H	0.609164	0.089882	0.907322
	H81	H	0.374219	0.094616	0.093575
	H82	H	0.607074	0.911620	0.085516
	H83	H	0.372971	0.915066	0.906779
	H84	H	0.609603	0.917364	0.098961
	H85	H	0.372579	0.097802	0.098362
	H86	H	0.613357	0.101815	0.909131
	H87	H	0.372975	0.908100	0.913067
	H88	H	0.902265	0.109368	0.621592
	H89	H	0.080681	0.089599	0.388095
	H90	H	0.082628	0.915266	0.617146
	H91	H	0.895798	0.918478	0.386500
	H92	H	0.083805	0.619285	0.908016
	H93	H	0.080618	0.392319	0.084555
	H94	H	0.888071	0.621245	0.096570
	H95	H	0.887448	0.385427	0.909445
	H96	H	0.402860	0.113577	0.586801
	H97	H	0.584626	0.888462	0.601596
	H98	H	0.585470	0.118636	0.411862
	H99	H	0.398834	0.889977	0.416534
	H100	H	0.586971	0.408294	0.121260
	H101	H	0.573332	0.589956	0.890807
	H102	H	0.395417	0.599259	0.120090
	H103	H	0.408706	0.410859	0.888237
	H104	H	0.109272	0.589861	0.405308
	H105	H	0.873116	0.605357	0.588907
	H106	H	0.112115	0.401349	0.591727
	H107	H	0.872349	0.418625	0.402753
	H108	H	0.902398	0.618924	0.105276
	H109	H	0.096726	0.385011	0.096789
	H110	H	0.082431	0.619037	0.907941
	H111	H	0.903431	0.385985	0.896342
	H112	H	0.079257	0.906679	0.617392
	H113	H	0.078042	0.103803	0.385134
	H114	H	0.890790	0.096115	0.620360
	H115	H	0.910434	0.910248	0.387910
	H116	H	0.608369	0.095695	0.919381
	H117	H	0.373668	0.100859	0.092948
	H118	H	0.613004	0.902991	0.096473
	H119	H	0.376540	0.916109	0.915687
	C120	C	0.370683	0.011228	0.625553
	C121	C	0.615095	0.995498	0.626268
	C122	C	0.614142	0.012028	0.380584
	C123	C	0.370936	0.995420	0.380306
	C124	C	0.612889	0.381749	0.010939
	C125	C	0.611470	0.625434	0.993761
	C126	C	0.368812	0.627414	0.010995
	C127	C	0.371172	0.382668	0.994194
	C128	C	0.000125	0.625029	0.381495
	C129	C	0.982875	0.625917	0.623138
	C130	C	-0.000279	0.383733	0.621372
	C131	C	0.981527	0.382183	0.380708
	C132	C	0.868617	0.511514	0.124950
	C133	C	0.112699	0.495319	0.124034
	C134	C	0.113215	0.511869	0.879300
	C135	C	0.869077	0.495263	0.878861
	C136	C	0.113744	0.881211	0.510620
	C137	C	0.112978	0.125994	0.493304
	C138	C	0.870259	0.126728	0.510736
	C139	C	0.871573	0.882550	0.493943
	C140	C	0.500850	0.125271	0.882733
	C141	C	0.482662	0.125944	0.124297
	C142	C	0.500801	0.882957	0.123075
	C143	C	0.483417	0.883304	0.882294
	C144	C	0.373176	0.889768	0.681418
	C145	C	0.612057	0.117728	0.681631
	C146	C	0.614094	0.890463	0.324253
	C147	C	0.371291	0.116965	0.324489
	C148	C	0.667411	0.385087	0.887186
	C149	C	0.666435	0.621489	0.117104
	C150	C	0.315135	0.621867	0.886798
	C151	C	0.316336	0.387883	0.117967
	C152	C	0.875828	0.681662	0.382529
	C153	C	0.107181	0.680885	0.622355
	C154	C	0.875688	0.328114	0.620932
	C155	C	0.105791	0.325766	0.379940
	C156	C	0.875052	0.386810	0.676907
	C157	C	0.107140	0.623087	0.678979
	C158	C	0.874808	0.622363	0.327530
	C159	C	0.106312	0.384670	0.325435
	C160	C	0.368857	0.683382	0.888385
	C161	C	0.610932	0.681699	0.116618
	C162	C	0.613571	0.324015	0.889051
	C163	C	0.370911	0.327579	0.117158
	C164	C	0.669715	0.889852	0.384816
	C165	C	0.668480	0.118508	0.622427
	C166	C	0.315866	0.889043	0.622230
	C167	C	0.314655	0.117430	0.383737
	C168	C	0.870864	0.389832	0.180216
	C169	C	0.109824	0.617073	0.180150
	C170	C	0.112786	0.390513	0.822785
	C171	C	0.869612	0.616882	0.823404
	C172	C	0.169230	0.884527	0.387232
	C173	C	0.167678	0.122639	0.616955
	C174	C	0.815730	0.121233	0.387050
	C175	C	0.818186	0.887921	0.618160
	C176	C	0.376722	0.181558	0.883639
	C177	C	0.606907	0.181182	0.123830
	C178	C	0.375862	0.828944	0.122580
	C179	C	0.606561	0.825203	0.881860
	C180	C	0.375975	0.886755	0.178861
	C181	C	0.607730	0.122202	0.178727
	C182	C	0.376625	0.123851	0.826825
	C183	C	0.608530	0.885335	0.828395
	C184	C	0.869480	0.181946	0.387793
	C185	C	0.111954	0.183025	0.615630
	C186	C	0.114379	0.824257	0.388311
	C187	C	0.871885	0.826714	0.616432
	C188	C	0.169647	0.390003	0.882085
	C189	C	0.166239	0.618118	0.120353
	C190	C	0.815142	0.389065	0.120042
	C191	C	0.813636	0.617559	0.883005
	C192	C	0.393121	0.096067	0.603149
	C193	C	0.593687	0.910339	0.604581
	C194	C	0.590991	0.097169	0.402280
	C195	C	0.394424	0.910399	0.402380
	C196	C	0.590025	0.404155	0.096768
	C197	C	0.588122	0.603335	0.907966
	C198	C	0.391705	0.605938	0.096815
	C199	C	0.394627	0.403961	0.908479
	C200	C	0.086808	0.602175	0.403881
	C201	C	0.896040	0.604205	0.600142
	C202	C	0.086426	0.405486	0.598527
	C203	C	0.894659	0.404492	0.403449
	C204	C	0.890812	0.596760	0.103364
	C205	C	0.091027	0.410203	0.102007
	C206	C	0.089782	0.597013	0.901839
	C207	C	0.892263	0.410169	0.900486
	C208	C	0.090298	0.903749	0.596382
	C209	C	0.090386	0.103566	0.407445
	C210	C	0.893575	0.105971	0.596813
	C211	C	0.894356	0.904018	0.407752
	C212	C	0.587827	0.102570	0.905455
	C213	C	0.395849	0.104291	0.101664
	C214	C	0.587382	0.904365	0.100223
	C215	C	0.396585	0.906533	0.905097
	Zn216	Zn	0.492986	0.004209	0.755509
	Zn217	Zn	0.492466	0.003841	0.250426
	Zn218	Zn	0.740631	0.503644	0.001579
	Zn219	Zn	0.242322	0.503760	0.002188
	Zn220	Zn	-0.008032	0.753166	0.502175
	Zn221	Zn	-0.008796	0.255046	0.500839
	Zn222	Zn	-0.008510	0.504129	0.749840
	Zn223	Zn	-0.009425	0.503109	0.254491
	Zn224	Zn	0.490828	0.755365	0.002543
	Zn225	Zn	0.491976	0.253105	0.003742
	Zn226	Zn	0.743642	0.004517	0.503106
	Zn227	Zn	0.241797	0.003181	0.502439
	N228	N	0.406336	0.966861	0.683696
	N229	N	0.579654	0.040493	0.684310
	N230	N	0.580525	0.967588	0.321269
	N231	N	0.405641	0.040225	0.322320
	N232	N	0.667068	0.420263	0.963915
	N233	N	0.666871	0.587523	0.039834
	N234	N	0.314836	0.587859	0.963968
	N235	N	0.316335	0.421522	0.040688
	N236	N	0.954633	0.683200	0.415578
	N237	N	0.028845	0.682641	0.588318
	N238	N	0.954257	0.326058	0.587117
	N239	N	0.027406	0.324268	0.413718
	N240	N	0.953127	0.420649	0.677231
	N241	N	0.028759	0.589679	0.679460
	N242	N	0.953071	0.587928	0.326566
	N243	N	0.028008	0.419128	0.325717
	N244	N	0.401345	0.686967	0.966573
	N245	N	0.577736	0.684477	0.038685
	N246	N	0.580589	0.321707	0.967252
	N247	N	0.404166	0.324136	0.039124
	N248	N	0.669752	0.966343	0.419146
	N249	N	0.670656	0.041679	0.588632
	N250	N	0.314467	0.965484	0.587985
	N251	N	0.314350	0.040765	0.417707
	N252	N	0.903446	0.467027	0.183436
	N253	N	0.077497	0.539802	0.183042
	N254	N	0.078874	0.467533	0.820761
	N255	N	0.903388	0.539910	0.820674
	N256	N	0.168986	0.919305	0.464398
	N257	N	0.168616	0.088117	0.539805
	N258	N	0.815993	0.087626	0.464315
	N259	N	0.817875	0.921900	0.540975
	N260	N	0.455124	0.182606	0.917510
	N261	N	0.528194	0.183650	0.090881
	N262	N	0.454290	0.826378	0.088768
	N263	N	0.527850	0.824203	0.915111
	N264	N	0.454401	0.920009	0.179143
	N265	N	0.529381	0.088804	0.179448
	N266	N	0.454955	0.089677	0.826148
	N267	N	0.530740	0.920914	0.828509
	N268	N	0.902703	0.185492	0.465787
	N269	N	0.078809	0.185141	0.537619
	N270	N	0.080892	0.821980	0.465974
	N271	N	0.904732	0.823723	0.538219
	N272	N	0.169821	0.466514	0.916620
	N273	N	0.168007	0.541467	0.086193
	N274	N	0.813682	0.465797	0.086387
	N275	N	0.812972	0.540838	0.916677
	O276	O	0.040863	0.050959	0.044557
	H277	H	0.044430	0.031834	0.040121
	H278	H	0.045993	0.049311	0.059058
	O279	O	0.560894	0.503732	0.493821
	H280	H	0.563573	0.509255	0.502021
	H281	H	0.551899	0.509186	0.481564
	O282	O	0.439072	0.517203	0.483831
	H283	H	0.432251	0.507403	0.485258
	H284	H	0.451169	0.508774	0.491217
	O285	O	0.022258	1.054693	1.065597
	H286	H	0.030136	1.051424	1.075219
	H287	H	0.024944	1.066354	1.068034
	O288	O	0.450400	0.441404	0.601287
	H289	H	0.447768	0.440040	0.600367
	H290	H	0.441405	0.438486	0.605803
	O291	O	0.981542	0.939075	1.015494
	H292	H	0.989197	0.933633	1.021451
	H293	H	0.985607	0.935592	1.017275
	O294	O	0.886820	1.061354	0.889632
	H295	H	0.881058	1.061259	0.882161
	H296	H	0.893455	1.063627	0.881551
	O297	O	1.010051	-0.002563	1.073163
	H298	H	1.019372	-0.003213	1.075324
	H299	H	1.006771	-0.010684	1.070062
	O300	O	0.453271	0.458197	0.571588
	H301	H	0.465841	0.453930	0.569641
	H302	H	0.448910	0.460164	0.569097
	O303	O	0.951082	0.030121	-0.074176
	H304	H	0.958099	0.032688	-0.076209
	H305	H	0.933310	0.034935	-0.080581
	O306	O	-0.017825	0.921257	1.054682
	H307	H	-0.014938	0.923057	1.056096
	H308	H	-0.014653	0.923877	1.053927
	O309	O	0.504020	0.450835	0.448257
	H310	H	0.506243	0.457444	0.439738
	H311	H	0.494712	0.438987	0.464088
	O312	O	1.042694	0.006127	0.916025
	H313	H	1.044732	0.009511	0.913430
	H314	H	1.036221	-0.002619	0.917154
	O315	O	0.409715	0.533821	0.478102
	H316	H	0.403047	0.529231	0.475891
	H317	H	0.412469	0.543865	0.466556
	O318	O	0.510610	0.478952	0.481466
	H319	H	0.513569	0.495862	0.470729
	H320	H	0.524019	0.478159	0.489090
	O321	O	0.974163	1.071521	1.007292
	H322	H	0.986544	1.069782	1.012910
	H323	H	0.975761	1.073860	0.992545
	O324	O	0.511408	0.588131	0.524691
	H325	H	0.509270	0.588957	0.524535
	H326	H	0.499974	0.584358	0.526541
	O327	O	0.474667	0.415003	0.561588
	H328	H	0.480166	0.411967	0.564798
	H329	H	0.466832	0.423519	0.577158
	O330	O	1.074588	0.068751	1.015578
	H331	H	1.059023	0.072174	1.015034
	H332	H	1.084930	0.070071	1.016760
	O333	O	0.975356	0.966285	-0.054674
	H334	H	0.970925	0.971096	-0.058768
	H335	H	0.969731	0.954411	-0.050661
	O336	O	0.466926	0.559384	0.481536
	H337	H	0.476503	0.557027	0.466686
	H338	H	0.461931	0.571552	0.481224
	O339	O	0.463299	0.383147	0.414291
	H340	H	0.467871	0.384889	0.411031
	H341	H	0.466469	0.376815	0.406926
	O342	O	-0.048010	0.955903	0.014733
	H343	H	-0.048969	0.947537	0.017192
	H344	H	-0.059205	0.963981	0.021577
	O345	O	-0.001884	-0.035648	0.008792
	H346	H	-0.004892	-0.033830	0.006841
	H347	H	-0.001430	-0.038023	0.008723
	O348	O	0.518311	0.442181	0.506020
	H349	H	0.520195	0.443848	0.504674
	H350	H	0.519056	0.439003	0.505230
	O351	O	0.527196	0.472499	0.441619
	H352	H	0.538540	0.471144	0.448831
	H353	H	0.517539	0.461633	0.439336
	O354	O	0.935943	0.955472	0.107436
	H355	H	0.936897	0.948683	0.107857
	H356	H	0.939588	0.966043	0.108327
	O357	O	0.061538	-0.083514	0.996086
	H358	H	0.060486	-0.084036	1.003012
	H359	H	0.064283	-0.095325	0.990842
	O360	O	0.010174	-0.011547	-0.029648
	H361	H	0.005840	-0.011339	-0.033057
	H362	H	0.015472	-0.014955	-0.038726
	O363	O	0.485086	0.445031	0.494549
	H364	H	0.481220	0.437255	0.481333
	H365	H	0.495492	0.446723	0.503792
	O366	O	0.014272	-0.003280	0.974863
	H367	H	0.014824	0.007984	0.971676
	H368	H	0.011854	-0.009748	0.960453
	O369	O	1.543745	0.594866	-0.496058
	H370	H	1.546378	0.594182	-0.492127
	H371	H	1.543114	0.578111	-0.498637
