data_Molecule from HDF5

_cell_length_a		16.508070
_cell_length_b		16.676315
_cell_length_c		16.607133
_cell_angle_alpha	89.941621
_cell_angle_beta	89.977593
_cell_angle_gamma	90.029455
_symmetry_space_group_name_H-M	'P 1'
_symmetry_Int_Tables_number		1

loop_
	_symmetry_equiv_pos_as_xyz
	x,y,z

loop_
	_atom_site_label
	_atom_site_type_symbol
	_atom_site_fract_x
	_atom_site_fract_y
	_atom_site_fract_z
	H0	H	0.396173	0.839939	0.713888
	H1	H	0.604438	0.152117	0.711294
	H2	H	0.611204	0.839484	0.268188
	H3	H	0.392483	0.147036	0.265768
	H4	H	0.723234	0.389797	0.837912
	H5	H	0.724849	0.601620	0.148716
	H6	H	0.283924	0.595184	0.834802
	H7	H	0.279884	0.390008	0.148569
	H8	H	0.843587	0.715461	0.386963
	H9	H	0.157107	0.715013	0.597128
	H10	H	0.843756	0.273925	0.596828
	H11	H	0.156152	0.272586	0.385020
	H12	H	0.844697	0.387931	0.714451
	H13	H	0.158271	0.597967	0.711747
	H14	H	0.843684	0.597900	0.272848
	H15	H	0.159913	0.393197	0.275077
	H16	H	0.399156	0.712777	0.835864
	H17	H	0.610000	0.718775	0.147671
	H18	H	0.608940	0.272441	0.838120
	H19	H	0.395384	0.273014	0.148899
	H20	H	0.724072	0.838457	0.387835
	H21	H	0.718836	0.152864	0.593149
	H22	H	0.280055	0.840586	0.597126
	H23	H	0.277394	0.148038	0.383805
	H24	H	0.893660	0.339594	0.216389
	H25	H	0.107612	0.651285	0.213536
	H26	H	0.104489	0.338790	0.771219
	H27	H	0.895458	0.648674	0.770825
	H28	H	0.225556	0.887527	0.338268
	H29	H	0.220887	0.098498	0.647740
	H30	H	0.780754	0.096027	0.335397
	H31	H	0.783972	0.893618	0.650753
	H32	H	0.343445	0.211584	0.892007
	H33	H	0.657970	0.215889	0.098474
	H34	H	0.344883	0.772589	0.098848
	H35	H	0.658846	0.774960	0.889736
	H36	H	0.346065	0.886446	0.216422
	H37	H	0.659062	0.098161	0.212768
	H38	H	0.342617	0.092628	0.778344
	H39	H	0.659858	0.893055	0.775484
	H40	H	0.893924	0.215516	0.334996
	H41	H	0.106131	0.217476	0.646355
	H42	H	0.110681	0.769984	0.338144
	H43	H	0.898406	0.775174	0.649166
	H44	H	0.220583	0.338261	0.888314
	H45	H	0.222313	0.650682	0.095243
	H46	H	0.778041	0.339676	0.099402
	H47	H	0.781187	0.649833	0.889444
	H48	H	0.414763	0.105049	0.580238
	H49	H	0.593511	0.882031	0.586183
	H50	H	0.589401	0.102391	0.405857
	H51	H	0.419693	0.887297	0.406511
	H52	H	0.587213	0.408128	0.103593
	H53	H	0.593023	0.580459	0.882236
	H54	H	0.411537	0.586846	0.105476
	H55	H	0.410459	0.403559	0.880024
	H56	H	0.110939	0.578402	0.405572
	H57	H	0.887072	0.584212	0.584773
	H58	H	0.111193	0.403762	0.574577
	H59	H	0.888127	0.405735	0.403255
	H60	H	0.111038	0.411323	0.581154
	H61	H	0.886987	0.587807	0.581358
	H62	H	0.116358	0.585529	0.396009
	H63	H	0.887812	0.406225	0.403314
	H64	H	0.410015	0.581505	0.104758
	H65	H	0.585554	0.581672	0.884961
	H66	H	0.585992	0.404005	0.104373
	H67	H	0.411627	0.403196	0.880175
	H68	H	0.593742	0.105418	0.402384
	H69	H	0.591463	0.882533	0.586279
	H70	H	0.405573	0.108174	0.582502
	H71	H	0.413115	0.885443	0.409798
	H72	H	0.918788	0.602667	0.080888
	H73	H	0.087700	0.384502	0.085830
	H74	H	0.092758	0.607188	0.900148
	H75	H	0.914849	0.383051	0.903161
	H76	H	0.091832	0.907629	0.603517
	H77	H	0.087357	0.082983	0.380911
	H78	H	0.909504	0.090049	0.606316
	H79	H	0.912626	0.904270	0.380311
	H80	H	0.617056	0.089062	0.902709
	H81	H	0.389152	0.082637	0.081788
	H82	H	0.614592	0.904606	0.083454
	H83	H	0.387152	0.901584	0.900793
	H84	H	0.612736	0.904879	0.076571
	H85	H	0.390271	0.082813	0.078983
	H86	H	0.615025	0.084559	0.903887
	H87	H	0.388625	0.902066	0.905047
	H88	H	0.907841	0.084799	0.604846
	H89	H	0.087608	0.083891	0.380419
	H90	H	0.085748	0.906835	0.601785
	H91	H	0.911148	0.903862	0.379978
	H92	H	0.089324	0.604903	0.900375
	H93	H	0.090554	0.385082	0.080130
	H94	H	0.909659	0.604743	0.077556
	H95	H	0.911385	0.382874	0.905966
	H96	H	0.412734	0.108856	0.589260
	H97	H	0.592351	0.882549	0.584868
	H98	H	0.587813	0.104199	0.400170
	H99	H	0.414204	0.883181	0.402877
	H100	H	0.590151	0.405079	0.105064
	H101	H	0.589663	0.587766	0.881436
	H102	H	0.415241	0.582972	0.104191
	H103	H	0.410416	0.401642	0.879951
	H104	H	0.114035	0.590719	0.407791
	H105	H	0.889207	0.583189	0.580106
	H106	H	0.115127	0.402597	0.583811
	H107	H	0.888226	0.405608	0.402533
	H108	H	0.912369	0.606326	0.086403
	H109	H	0.093519	0.382470	0.085067
	H110	H	0.091772	0.605311	0.903722
	H111	H	0.910892	0.381544	0.901613
	H112	H	0.089611	0.901730	0.604454
	H113	H	0.088189	0.083281	0.380632
	H114	H	0.913031	0.086534	0.603693
	H115	H	0.911509	0.905249	0.380038
	H116	H	0.616637	0.085513	0.899421
	H117	H	0.390156	0.080291	0.080293
	H118	H	0.611839	0.910455	0.080507
	H119	H	0.388220	0.905587	0.902124
	C120	C	0.379495	0.004294	0.615123
	C121	C	0.622915	0.986772	0.614963
	C122	C	0.623199	0.001759	0.370974
	C123	C	0.381066	0.986320	0.371500
	C124	C	0.621436	0.373583	0.001704
	C125	C	0.622857	0.616091	0.985142
	C126	C	0.380839	0.614860	0.001128
	C127	C	0.378790	0.371436	0.983535
	C128	C	0.009948	0.616568	0.371114
	C129	C	0.991968	0.615788	0.613365
	C130	C	0.008650	0.373899	0.612121
	C131	C	0.992042	0.374003	0.370703
	C132	C	0.880401	0.502264	0.114388
	C133	C	0.122719	0.486963	0.114077
	C134	C	0.122208	0.502479	0.870620
	C135	C	0.879739	0.485013	0.871539
	C136	C	0.122606	0.872825	0.500793
	C137	C	0.121059	0.116080	0.483127
	C138	C	0.878537	0.117210	0.500765
	C139	C	0.880642	0.873896	0.484261
	C140	C	0.510961	0.115782	0.872230
	C141	C	0.493581	0.114489	0.113344
	C142	C	0.509951	0.873216	0.113435
	C143	C	0.492478	0.872971	0.871523
	C144	C	0.377935	0.886842	0.674086
	C145	C	0.623251	0.105075	0.671887
	C146	C	0.627604	0.885451	0.309787
	C147	C	0.375717	0.101271	0.307692
	C148	C	0.682846	0.371350	0.884769
	C149	C	0.684246	0.619404	0.101970
	C150	C	0.322923	0.614775	0.882320
	C151	C	0.319234	0.370739	0.101412
	C152	C	0.891081	0.675569	0.368983
	C153	C	0.110196	0.675015	0.615331
	C154	C	0.891015	0.313655	0.615085
	C155	C	0.109662	0.313550	0.367901
	C156	C	0.891395	0.370348	0.673633
	C157	C	0.110551	0.616776	0.672352
	C158	C	0.891079	0.617422	0.311936
	C159	C	0.111428	0.373571	0.313005
	C160	C	0.380285	0.673083	0.882749
	C161	C	0.627141	0.677878	0.101305
	C162	C	0.626064	0.312730	0.885040
	C163	C	0.376754	0.312659	0.101575
	C164	C	0.683707	0.884927	0.369347
	C165	C	0.680280	0.105313	0.613059
	C166	C	0.320001	0.887148	0.616296
	C167	C	0.318419	0.101841	0.366307
	C168	C	0.876278	0.386085	0.175851
	C169	C	0.125522	0.604207	0.173271
	C170	C	0.123590	0.385371	0.811122
	C171	C	0.877103	0.602010	0.811307
	C172	C	0.184508	0.869751	0.384447
	C173	C	0.181266	0.118021	0.600744
	C174	C	0.820073	0.116030	0.382300
	C175	C	0.822919	0.874126	0.603406
	C176	C	0.390918	0.172376	0.872619
	C177	C	0.611287	0.174973	0.116105
	C178	C	0.392225	0.812585	0.116652
	C179	C	0.611543	0.814551	0.870778
	C180	C	0.392744	0.868884	0.175330
	C181	C	0.611631	0.116622	0.173188
	C182	C	0.390414	0.113519	0.816249
	C183	C	0.612004	0.873176	0.814085
	C184	C	0.876528	0.175223	0.382329
	C185	C	0.124220	0.176784	0.599984
	C186	C	0.127455	0.811171	0.384500
	C187	C	0.879754	0.815365	0.602514
	C188	C	0.181079	0.385110	0.869468
	C189	C	0.182567	0.604241	0.114401
	C190	C	0.818814	0.385958	0.117684
	C191	C	0.820362	0.602626	0.870323
	C192	C	0.404001	0.085995	0.590753
	C193	C	0.599226	0.904058	0.592188
	C194	C	0.597655	0.082935	0.395619
	C195	C	0.408081	0.906032	0.398634
	C196	C	0.595327	0.398575	0.083136
	C197	C	0.596942	0.590437	0.904053
	C198	C	0.405229	0.590793	0.083247
	C199	C	0.403856	0.395642	0.901417
	C200	C	0.092371	0.592187	0.395948
	C201	C	0.909421	0.592028	0.588902
	C202	C	0.090876	0.398994	0.587033
	C203	C	0.909550	0.398861	0.395774
	C204	C	0.906126	0.583495	0.088644
	C205	C	0.097614	0.405247	0.090352
	C206	C	0.098147	0.584553	0.894534
	C207	C	0.905177	0.403696	0.896475
	C208	C	0.096461	0.898050	0.582153
	C209	C	0.095134	0.090517	0.401913
	C210	C	0.903087	0.093966	0.583413
	C211	C	0.904834	0.897508	0.401633
	C212	C	0.594363	0.093025	0.895254
	C213	C	0.411191	0.089155	0.087791
	C214	C	0.591846	0.899221	0.087619
	C215	C	0.409591	0.896428	0.895498
	Zn216	Zn	0.501750	-0.005073	0.743948
	Zn217	Zn	0.501842	-0.006876	0.241971
	Zn218	Zn	0.750892	0.494099	-0.006124
	Zn219	Zn	0.251414	0.494200	-0.007842
	Zn220	Zn	0.000838	0.744522	0.492330
	Zn221	Zn	-0.000057	0.245536	0.491289
	Zn222	Zn	0.000686	0.493968	0.741332
	Zn223	Zn	0.001450	0.495108	0.243142
	Zn224	Zn	0.501594	0.744802	-0.007260
	Zn225	Zn	0.501396	0.243681	-0.006584
	Zn226	Zn	0.751466	-0.005666	0.493173
	Zn227	Zn	0.250905	-0.004811	0.492019
	N228	N	0.414257	0.960767	0.673713
	N229	N	0.588563	0.030285	0.673359
	N230	N	0.590257	0.959093	0.310719
	N231	N	0.414054	0.028389	0.310800
	N232	N	0.680210	0.408585	0.958363
	N233	N	0.682031	0.581685	0.028600
	N234	N	0.322938	0.579452	0.956979
	N235	N	0.320210	0.406562	0.026904
	N236	N	0.966142	0.675599	0.404718
	N237	N	0.035382	0.674808	0.579400
	N238	N	0.965027	0.315714	0.577502
	N239	N	0.034274	0.313357	0.402706
	N240	N	0.965613	0.407439	0.671741
	N241	N	0.035865	0.580745	0.671485
	N242	N	0.966027	0.581804	0.312719
	N243	N	0.037028	0.410447	0.314523
	N244	N	0.415228	0.673754	0.957705
	N245	N	0.589753	0.676084	0.027606
	N246	N	0.588395	0.314069	0.958841
	N247	N	0.413094	0.312932	0.027216
	N248	N	0.681222	0.958188	0.406719
	N249	N	0.680552	0.030353	0.578635
	N250	N	0.320401	0.961296	0.580435
	N251	N	0.321779	0.029295	0.405461
	N252	N	0.913937	0.459503	0.174018
	N253	N	0.088910	0.530336	0.173153
	N254	N	0.087837	0.459584	0.811471
	N255	N	0.913031	0.527803	0.811377
	N256	N	0.181590	0.907407	0.457755
	N257	N	0.179514	0.080930	0.527000
	N258	N	0.821076	0.080759	0.457063
	N259	N	0.823177	0.909696	0.528698
	N260	N	0.466846	0.174315	0.906342
	N261	N	0.536583	0.173811	0.079703
	N262	N	0.466291	0.814912	0.079041
	N263	N	0.536179	0.814266	0.905719
	N264	N	0.466929	0.906127	0.173233
	N265	N	0.537120	0.079985	0.171796
	N266	N	0.466146	0.079339	0.815581
	N267	N	0.536905	0.908510	0.814023
	N268	N	0.911957	0.176184	0.457139
	N269	N	0.087705	0.175783	0.525841
	N270	N	0.089313	0.813098	0.457801
	N271	N	0.914608	0.814812	0.527527
	N272	N	0.180530	0.459021	0.905590
	N273	N	0.181108	0.530209	0.078327
	N274	N	0.821373	0.459134	0.079983
	N275	N	0.821611	0.528903	0.906993
	O276	O	-0.026808	1.121072	0.010829
	H277	H	-0.028109	1.120634	0.021530
	H278	H	-0.023316	1.123363	0.000040
	O279	O	0.474195	0.364282	0.460409
	H280	H	0.467881	0.379180	0.465094
	H281	H	0.464527	0.365056	0.479799
	O282	O	0.955303	0.042958	1.133407
	H283	H	0.957364	0.050328	1.123831
	H284	H	0.957850	0.029117	1.130803
	O285	O	0.306762	0.673918	0.687584
	H286	H	0.327433	0.661042	0.671692
	H287	H	0.315540	0.651964	0.664581
	O288	O	0.481948	0.621060	0.512342
	H289	H	0.491785	0.618074	0.513993
	H290	H	0.478876	0.622086	0.509398
	O291	O	0.441113	0.345627	0.492836
	H292	H	0.441573	0.361670	0.504561
	H293	H	0.438791	0.333590	0.501082
	O294	O	0.811316	0.186633	0.848182
	H295	H	0.831494	0.195903	0.868418
	H296	H	0.822206	0.195819	0.864146
	O297	O	0.479451	0.713612	0.273382
	H298	H	0.463177	0.717388	0.291745
	H299	H	0.474036	0.737163	0.250769
	O300	O	-0.018655	0.198716	0.790103
	H301	H	-0.013631	0.192464	0.796084
	H302	H	-0.007585	0.196649	0.788383
	O303	O	0.721870	0.519665	0.476372
	H304	H	0.717061	0.516832	0.488963
	H305	H	0.710613	0.540720	0.472558
	O306	O	0.639860	0.352327	0.616048
	H307	H	0.638880	0.365704	0.608806
	H308	H	0.643393	0.354284	0.617764
	O309	O	0.531179	0.717136	0.709408
	H310	H	0.543268	0.738569	0.735345
	H311	H	0.550549	0.713802	0.702278
	O312	O	0.709596	0.707504	0.699354
	H313	H	0.700212	0.672879	0.701302
	H314	H	0.742499	0.736174	0.734617
	O315	O	0.986984	0.763837	1.004440
	H316	H	0.998544	0.762499	1.020787
	H317	H	0.993597	0.766666	0.988590
	O318	O	0.558404	0.479576	0.661802
	H319	H	0.559071	0.485384	0.666866
	H320	H	0.550537	0.490175	0.660547
	O321	O	0.137931	0.801016	1.084852
	H322	H	0.160719	0.800616	1.085673
	H323	H	0.137173	0.804764	1.070295
	O324	O	1.045011	0.929418	0.223005
	H325	H	1.059728	0.930999	0.213908
	H326	H	1.046159	0.911229	0.231865
	O327	O	0.037554	0.221009	1.213540
	H328	H	0.032951	0.239906	1.250141
	H329	H	0.042551	0.199205	1.222261
	O330	O	0.721024	0.363157	0.478293
	H331	H	0.738348	0.340046	0.477265
	H332	H	0.708297	0.379852	0.466707
	O333	O	0.462783	0.508569	0.708937
	H334	H	0.449646	0.509358	0.721389
	H335	H	0.465694	0.510579	0.700587
	O336	O	0.533791	0.274686	0.274406
	H337	H	0.530317	0.258554	0.269507
	H338	H	0.520772	0.256761	0.286916
	O339	O	0.871686	-0.092144	0.827766
	H340	H	0.874430	-0.072471	0.832677
	H341	H	0.872611	-0.085924	0.846012
	O342	O	-0.148564	0.057548	0.090654
	H343	H	-0.154929	0.038991	0.093153
	H344	H	-0.145446	0.053849	0.083632
	O345	O	0.024129	0.991457	0.829000
	H346	H	0.032925	0.982971	0.833091
	H347	H	0.021768	0.981293	0.827908
	O348	O	0.306941	0.325623	0.317584
	H349	H	0.326546	0.319290	0.340244
	H350	H	0.323265	0.349117	0.324127
	O351	O	0.681786	0.662692	0.325570
	H352	H	0.688646	0.672359	0.332204
	H353	H	0.669306	0.660032	0.338697
	O354	O	0.182514	-0.035757	1.022671
	H355	H	0.189713	-0.039810	1.034705
	H356	H	0.171887	-0.047611	1.017971
	O357	O	0.355778	0.541106	0.587644
	H358	H	0.351462	0.531635	0.586356
	H359	H	0.348016	0.536319	0.599132
	O360	O	0.461072	0.270896	0.717806
	H361	H	0.477136	0.267896	0.739866
	H362	H	0.486282	0.274742	0.722126
	O363	O	-0.122835	0.194050	0.120164
	H364	H	-0.139002	0.208061	0.138441
	H365	H	-0.114038	0.192372	0.126216
	O366	O	0.593493	0.444608	0.619602
	H367	H	0.599129	0.444373	0.602937
	H368	H	0.604200	0.437835	0.630357
	O369	O	1.072032	-0.061585	-0.040342
	H370	H	1.064620	-0.077590	-0.035430
	H371	H	1.082213	-0.066773	-0.039795
	O372	O	0.790696	0.783180	0.027942
	H373	H	0.797175	0.769436	0.026309
	H374	H	0.787400	0.776162	0.015643
	O375	O	0.807829	-0.060571	0.013216
	H376	H	0.817697	-0.076492	0.015585
	H377	H	0.799758	-0.052887	0.003502
	O378	O	0.381440	0.394662	0.460663
	H379	H	0.374706	0.375489	0.485690
	H380	H	0.388145	0.395930	0.446363
	O381	O	0.030281	0.773698	0.776144
	H382	H	0.040569	0.766141	0.760677
	H383	H	0.043926	0.775696	0.768956
	O384	O	0.817750	-0.017297	1.183120
	H385	H	0.818293	-0.023451	1.182385
	H386	H	0.808113	-0.007712	1.186422
	O387	O	0.969821	0.773510	0.217486
	H388	H	0.974397	0.763030	0.238598
	H389	H	0.958939	0.767891	0.223133
	O390	O	0.455973	0.462916	0.275763
	H391	H	0.451515	0.491552	0.271450
	H392	H	0.479507	0.458378	0.269138
	O393	O	0.705134	0.461943	0.283208
	H394	H	0.719934	0.470705	0.268525
	H395	H	0.700856	0.476697	0.299134
	O396	O	0.130424	1.002260	0.776750
	H397	H	0.130638	0.990446	0.778764
	H398	H	0.118854	0.991846	0.774078
	O399	O	-0.217108	0.026741	0.769323
	H400	H	-0.244403	0.044991	0.743280
	H401	H	-0.213511	0.063334	0.778528
	O402	O	0.508175	0.595216	0.423923
	H403	H	0.515776	0.593930	0.427178
	H404	H	0.499892	0.599061	0.429315
	O405	O	1.066016	-0.081960	1.027987
	H406	H	1.055521	-0.059723	1.015003
	H407	H	1.061569	-0.090972	1.033352
	O408	O	0.217878	0.215306	0.022420
	H409	H	0.216074	0.224312	0.037153
	H410	H	0.236658	0.229793	0.041320
	O411	O	0.722703	0.721351	0.525807
	H412	H	0.742726	0.742776	0.542281
	H413	H	0.725397	0.722639	0.552755
	O414	O	0.540851	0.600135	0.317292
	H415	H	0.555079	0.605449	0.310463
	H416	H	0.555231	0.615006	0.311383
	O417	O	0.286809	0.437507	0.685303
	H418	H	0.267222	0.430586	0.708752
	H419	H	0.293074	0.396804	0.682792
	O420	O	0.218215	0.775148	0.794554
	H421	H	0.208242	0.799081	0.789706
	H422	H	0.246996	0.749742	0.759452
	O423	O	0.088767	0.204993	0.910113
	H424	H	0.085126	0.204111	0.933794
	H425	H	0.088481	0.202314	0.926998
	O426	O	0.292637	0.710287	0.467280
	H427	H	0.279065	0.708411	0.458234
	H428	H	0.276942	0.712032	0.473903
	O429	O	0.833684	0.793578	0.828887
	H430	H	0.846416	0.810324	0.852882
	H431	H	0.862762	0.805977	0.836541
	O432	O	0.520406	0.486532	0.487430
	H433	H	0.519215	0.509843	0.491096
	H434	H	0.504173	0.483600	0.506780
	O435	O	0.028742	1.054391	0.125547
	H436	H	0.034281	1.056658	0.117578
	H437	H	0.028960	1.046580	0.142327
	O438	O	-0.004441	-0.097361	-0.120106
	H439	H	-0.005074	-0.099942	-0.103706
	H440	H	-0.009253	-0.102547	-0.122404
	O441	O	0.201080	0.189649	0.192601
	H442	H	0.210814	0.217614	0.218650
	H443	H	0.185470	0.176360	0.182702
	O444	O	0.621570	0.396052	0.522755
	H445	H	0.628633	0.401236	0.505449
	H446	H	0.624581	0.383008	0.509502
	O447	O	0.209067	1.008692	0.878730
	H448	H	0.205608	1.012954	0.879651
	H449	H	0.208860	1.020839	0.876934
	O450	O	0.226599	0.783863	0.966554
	H451	H	0.254098	0.759505	0.959771
	H452	H	0.225796	0.789245	0.932747
	O453	O	0.290595	0.279905	0.703741
	H454	H	0.344153	0.271249	0.711823
	H455	H	0.261552	0.247177	0.738434
	O456	O	0.182560	0.014548	1.142044
	H457	H	0.192252	0.018592	1.142271
	H458	H	0.192586	0.011856	1.137473
	O459	O	0.803895	0.799691	0.190970
	H460	H	0.800801	0.821610	0.169223
	H461	H	0.819700	0.785030	0.188182
	O462	O	0.701408	0.293720	0.288640
	H463	H	0.707385	0.329808	0.299322
	H464	H	0.660291	0.292826	0.279127
	O465	O	1.195165	0.147412	-0.162757
	H466	H	1.176279	0.135408	-0.150825
	H467	H	1.186238	0.129741	-0.141253
	O468	O	0.293024	0.530696	0.283008
	H469	H	0.292784	0.535237	0.284595
	H470	H	0.281554	0.513431	0.277051
	O471	O	0.398886	0.647848	0.517184
	H472	H	0.402364	0.646524	0.523432
	H473	H	0.409467	0.653663	0.508207
	O474	O	0.304265	0.694636	0.290393
	H475	H	0.304852	0.699412	0.291876
	H476	H	0.307321	0.670077	0.299454
	O477	O	0.396299	0.436963	1.390788
	H478	H	0.402245	0.419865	1.398632
	H479	H	0.403841	0.434444	1.373623
	O480	O	0.310835	0.340246	0.514157
	H481	H	0.315509	0.334515	0.533419
	H482	H	0.299486	0.332245	0.523077
	O483	O	0.720499	0.516726	0.687075
	H484	H	0.723995	0.512238	0.655432
	H485	H	0.747184	0.521360	0.708238
	O486	O	0.715811	0.275901	0.697395
	H487	H	0.728504	0.284266	0.696790
	H488	H	0.711672	0.278697	0.694125
	O489	O	0.829177	1.208483	-0.004476
	H490	H	0.826658	1.220192	0.009144
	H491	H	0.842270	1.206626	0.010762
