data_Molecule from HDF5

_cell_length_a		16.266343
_cell_length_b		16.261394
_cell_length_c		16.378772
_cell_angle_alpha	90.068983
_cell_angle_beta	89.943394
_cell_angle_gamma	89.928021
_symmetry_space_group_name_H-M	'P 1'
_symmetry_Int_Tables_number		1

loop_
	_symmetry_equiv_pos_as_xyz
	x,y,z

loop_
	_atom_site_label
	_atom_site_type_symbol
	_atom_site_fract_x
	_atom_site_fract_y
	_atom_site_fract_z
	H0	H	0.397543	0.846971	0.717171
	H1	H	0.597023	0.173368	0.717586
	H2	H	0.598540	0.846511	0.286271
	H3	H	0.398630	0.173369	0.286437
	H4	H	0.713131	0.412567	0.838471
	H5	H	0.712821	0.607383	0.165043
	H6	H	0.284579	0.607768	0.838336
	H7	H	0.283508	0.411678	0.164330
	H8	H	0.833525	0.723164	0.404905
	H9	H	0.162741	0.722799	0.598020
	H10	H	0.834037	0.297783	0.597952
	H11	H	0.162676	0.295596	0.403792
	H12	H	0.834468	0.410129	0.717114
	H13	H	0.162072	0.608683	0.716725
	H14	H	0.834226	0.608921	0.287524
	H15	H	0.161065	0.407903	0.284723
	H16	H	0.401457	0.724032	0.838357
	H17	H	0.597364	0.725070	0.165149
	H18	H	0.597827	0.294580	0.838467
	H19	H	0.400323	0.295151	0.164379
	H20	H	0.712620	0.846698	0.402906
	H21	H	0.711038	0.174522	0.599744
	H22	H	0.286353	0.845087	0.597982
	H23	H	0.282481	0.173797	0.402934
	H24	H	0.899060	0.346348	0.216760
	H25	H	0.096480	0.673251	0.216420
	H26	H	0.096849	0.345421	0.787357
	H27	H	0.900138	0.673344	0.786805
	H28	H	0.212048	0.912031	0.338316
	H29	H	0.212594	0.108171	0.664523
	H30	H	0.784119	0.107868	0.338025
	H31	H	0.783123	0.912205	0.664418
	H32	H	0.334559	0.224241	0.904906
	H33	H	0.662406	0.223283	0.099073
	H34	H	0.334070	0.797854	0.096713
	H35	H	0.663051	0.796186	0.903523
	H36	H	0.334644	0.910193	0.216772
	H37	H	0.661461	0.108211	0.215985
	H38	H	0.333611	0.109260	0.787674
	H39	H	0.661642	0.910675	0.785436
	H40	H	0.900693	0.224669	0.338003
	H41	H	0.096924	0.225373	0.664273
	H42	H	0.094547	0.795643	0.337987
	H43	H	0.899562	0.795336	0.664823
	H44	H	0.211960	0.345274	0.904548
	H45	H	0.211408	0.674227	0.099593
	H46	H	0.785629	0.345736	0.098591
	H47	H	0.785757	0.674761	0.904997
	H48	H	0.395734	0.129693	0.595129
	H49	H	0.598048	0.892283	0.591754
	H50	H	0.588149	0.127243	0.402690
	H51	H	0.412339	0.896217	0.410364
	H52	H	0.585159	0.421940	0.113564
	H53	H	0.588257	0.609272	0.886081
	H54	H	0.398755	0.600646	0.118571
	H55	H	0.409287	0.421869	0.888274
	H56	H	0.115373	0.601046	0.404319
	H57	H	0.883070	0.599159	0.597497
	H58	H	0.115465	0.417899	0.598700
	H59	H	0.883323	0.414618	0.415906
	H60	H	0.116292	0.413424	0.595233
	H61	H	0.880070	0.605859	0.598220
	H62	H	0.115389	0.606330	0.409285
	H63	H	0.883692	0.425244	0.405808
	H64	H	0.409587	0.601656	0.114896
	H65	H	0.598369	0.602186	0.884358
	H66	H	0.589879	0.408753	0.118771
	H67	H	0.408334	0.410266	0.884547
	H68	H	0.587321	0.124683	0.412612
	H69	H	0.588050	0.892439	0.602289
	H70	H	0.409809	0.127645	0.604261
	H71	H	0.400424	0.893734	0.412900
	H72	H	0.910997	0.628710	0.110074
	H73	H	0.082165	0.393096	0.103505
	H74	H	0.088354	0.628012	0.900365
	H75	H	0.910572	0.394071	0.906891
	H76	H	0.094875	0.913272	0.618806
	H77	H	0.083720	0.110024	0.386526
	H78	H	0.903315	0.097851	0.615155
	H79	H	0.902260	0.912557	0.383890
	H80	H	0.608379	0.093959	0.919257
	H81	H	0.379864	0.109253	0.094976
	H82	H	0.615336	0.909669	0.088423
	H83	H	0.383895	0.920203	0.908452
	H84	H	0.612422	0.925607	0.093596
	H85	H	0.383563	0.098940	0.089222
	H86	H	0.616976	0.094647	0.893676
	H87	H	0.380215	0.914733	0.904391
	H88	H	0.909385	0.107718	0.616535
	H89	H	0.101080	0.103702	0.382514
	H90	H	0.093033	0.918495	0.617125
	H91	H	0.902794	0.920071	0.387499
	H92	H	0.086580	0.622837	0.914406
	H93	H	0.088851	0.397211	0.083325
	H94	H	0.913962	0.620438	0.084781
	H95	H	0.904501	0.393815	0.912910
	H96	H	0.409387	0.122836	0.587795
	H97	H	0.584892	0.896754	0.588922
	H98	H	0.596312	0.128161	0.409331
	H99	H	0.404951	0.891082	0.402112
	H100	H	0.599078	0.420429	0.118348
	H101	H	0.587818	0.597542	0.889132
	H102	H	0.404137	0.611106	0.119294
	H103	H	0.399222	0.417769	0.884558
	H104	H	0.112427	0.599431	0.411652
	H105	H	0.882656	0.603903	0.591902
	H106	H	0.113336	0.418612	0.593490
	H107	H	0.878916	0.412159	0.402320
	H108	H	0.889937	0.630326	0.093012
	H109	H	0.102559	0.389519	0.097753
	H110	H	0.100382	0.628248	0.909657
	H111	H	0.902538	0.391440	0.905217
	H112	H	0.089499	0.914128	0.616826
	H113	H	0.088163	0.091979	0.390370
	H114	H	0.898346	0.107619	0.620134
	H115	H	0.909422	0.915220	0.387138
	H116	H	0.618654	0.116814	0.908676
	H117	H	0.381808	0.098628	0.101495
	H118	H	0.618747	0.914339	0.104587
	H119	H	0.381232	0.914381	0.911813
	C120	C	0.376463	0.017985	0.623231
	C121	C	0.618899	1.002082	0.623058
	C122	C	0.619182	0.018497	0.380050
	C123	C	0.376871	1.001804	0.380063
	C124	C	0.620443	0.388342	0.009459
	C125	C	0.620202	0.631734	0.993704
	C126	C	0.376432	0.632128	0.009774
	C127	C	0.376992	0.388418	0.993505
	C128	C	0.006039	0.630886	0.380416
	C129	C	0.990059	0.631079	0.623438
	C130	C	0.006575	0.388504	0.623404
	C131	C	0.990379	0.388366	0.379963
	C132	C	0.877010	0.518270	0.123558
	C133	C	0.119669	0.501503	0.123414
	C134	C	0.120238	0.517865	0.879784
	C135	C	0.877503	0.501804	0.880347
	C136	C	0.120343	0.887283	0.509760
	C137	C	0.119620	0.131166	0.493621
	C138	C	0.875877	0.132223	0.509476
	C139	C	0.876405	0.887880	0.493596
	C140	C	0.506231	0.130971	0.879890
	C141	C	0.489963	0.130877	0.123105
	C142	C	0.506827	0.888302	0.123464
	C143	C	0.490289	0.888207	0.879751
	C144	C	0.378099	0.895382	0.678711
	C145	C	0.616946	0.124798	0.678892
	C146	C	0.617561	0.895271	0.324740
	C147	C	0.378592	0.124942	0.325133
	C148	C	0.675870	0.391148	0.887175
	C149	C	0.675500	0.629025	0.116339
	C150	C	0.322388	0.628591	0.886998
	C151	C	0.321428	0.390800	0.115736
	C152	C	0.882709	0.685849	0.383742
	C153	C	0.113685	0.685463	0.619497
	C154	C	0.882997	0.334578	0.619830
	C155	C	0.113349	0.332895	0.382752
	C156	C	0.883323	0.390771	0.678746
	C157	C	0.113451	0.628885	0.678228
	C158	C	0.883013	0.629033	0.325495
	C159	C	0.112658	0.388891	0.323560
	C160	C	0.380182	0.686497	0.887102
	C161	C	0.617888	0.687257	0.116329
	C162	C	0.618092	0.332921	0.887064
	C163	C	0.379622	0.333116	0.115798
	C164	C	0.674159	0.895128	0.382882
	C165	C	0.673672	0.125205	0.620324
	C166	C	0.322900	0.894527	0.619285
	C167	C	0.321039	0.125010	0.382953
	C168	C	0.879548	0.394882	0.178312
	C169	C	0.117419	0.624544	0.178731
	C170	C	0.117570	0.394317	0.825077
	C171	C	0.879508	0.624767	0.825186
	C172	C	0.174428	0.890734	0.386792
	C173	C	0.174711	0.128876	0.616062
	C174	C	0.821803	0.128900	0.386591
	C175	C	0.820993	0.891039	0.615999
	C176	C	0.382979	0.185864	0.883795
	C177	C	0.613517	0.185279	0.119277
	C178	C	0.383271	0.834385	0.119101
	C179	C	0.613740	0.833737	0.882900
	C180	C	0.383522	0.890451	0.178416
	C181	C	0.613033	0.128859	0.177960
	C182	C	0.382700	0.128866	0.825635
	C183	C	0.613167	0.890524	0.824184
	C184	C	0.879761	0.186702	0.386502
	C185	C	0.117076	0.186756	0.616058
	C186	C	0.116163	0.832837	0.386797
	C187	C	0.878926	0.833128	0.616280
	C188	C	0.174434	0.394157	0.883583
	C189	C	0.173976	0.625142	0.120149
	C190	C	0.822737	0.394602	0.119982
	C191	C	0.822387	0.625119	0.883417
	C192	C	0.398384	0.104500	0.601961
	C193	C	0.596902	0.916022	0.600872
	C194	C	0.597002	0.104323	0.401810
	C195	C	0.399339	0.915976	0.401974
	C196	C	0.598107	0.410574	0.094839
	C197	C	0.598100	0.609402	0.908486
	C198	C	0.397824	0.610806	0.095619
	C199	C	0.399120	0.410251	0.907926
	C200	C	0.092236	0.608775	0.402044
	C201	C	0.904217	0.609215	0.602174
	C202	C	0.092781	0.410237	0.602018
	C203	C	0.904149	0.410798	0.401620
	C204	C	0.898693	0.604342	0.102397
	C205	C	0.097773	0.415657	0.101293
	C206	C	0.098101	0.604267	0.901633
	C207	C	0.899445	0.415421	0.901988
	C208	C	0.098880	0.909032	0.595561
	C209	C	0.097310	0.108801	0.408643
	C210	C	0.897243	0.110680	0.595041
	C211	C	0.898353	0.909506	0.408202
	C212	C	0.592354	0.108480	0.901038
	C213	C	0.404003	0.108674	0.101538
	C214	C	0.593134	0.910278	0.102008
	C215	C	0.403918	0.910169	0.901766
	Zn216	Zn	0.497340	0.009756	0.751309
	Zn217	Zn	0.498076	0.010143	0.251661
	Zn218	Zn	0.749422	0.509924	0.001858
	Zn219	Zn	0.248146	0.509954	0.001722
	Zn220	Zn	-0.002214	0.758836	0.502023
	Zn221	Zn	-0.001836	0.260352	0.501612
	Zn222	Zn	-0.001595	0.509823	0.751996
	Zn223	Zn	-0.001522	0.509574	0.251912
	Zn224	Zn	0.498699	0.760386	0.001784
	Zn225	Zn	0.498665	0.259332	0.001529
	Zn226	Zn	0.747274	0.010070	0.501331
	Zn227	Zn	0.248880	0.009668	0.501868
	N228	N	0.410926	0.973332	0.681148
	N229	N	0.583389	0.047299	0.680499
	N230	N	0.584361	0.972989	0.322688
	N231	N	0.412582	0.047534	0.323343
	N232	N	0.677434	0.424785	0.964286
	N233	N	0.676937	0.595111	0.039231
	N234	N	0.320013	0.595475	0.964218
	N235	N	0.319972	0.424465	0.038794
	N236	N	0.960221	0.687035	0.417186
	N237	N	0.036125	0.686871	0.586095
	N238	N	0.960412	0.333092	0.586126
	N239	N	0.036212	0.332450	0.416992
	N240	N	0.961225	0.423739	0.681111
	N241	N	0.035735	0.595699	0.680898
	N242	N	0.960831	0.595563	0.323223
	N243	N	0.035150	0.422798	0.321944
	N244	N	0.412953	0.688772	0.964461
	N245	N	0.584397	0.689177	0.039120
	N246	N	0.584425	0.331149	0.964070
	N247	N	0.413370	0.331337	0.038711
	N248	N	0.675293	0.972606	0.416749
	N249	N	0.674780	0.047853	0.586088
	N250	N	0.321945	0.971900	0.585483
	N251	N	0.319860	0.047385	0.416326
	N252	N	0.912579	0.472669	0.180539
	N253	N	0.084116	0.546934	0.180644
	N254	N	0.084608	0.472341	0.822627
	N255	N	0.912894	0.547127	0.823327
	N256	N	0.177083	0.923731	0.464193
	N257	N	0.176504	0.094918	0.539139
	N258	N	0.819015	0.095860	0.463855
	N259	N	0.819340	0.924481	0.538825
	N260	N	0.460519	0.187182	0.916866
	N261	N	0.535908	0.186799	0.085887
	N262	N	0.460889	0.832985	0.085770
	N263	N	0.536221	0.832160	0.916575
	N264	N	0.461534	0.923175	0.181273
	N265	N	0.535349	0.095736	0.180298
	N266	N	0.460640	0.095530	0.822929
	N267	N	0.535308	0.923563	0.822203
	N268	N	0.912607	0.188954	0.463862
	N269	N	0.083350	0.188078	0.539015
	N270	N	0.083197	0.830687	0.464141
	N271	N	0.912467	0.831061	0.539279
	N272	N	0.176037	0.471931	0.916845
	N273	N	0.175710	0.547514	0.086593
	N274	N	0.821153	0.472094	0.086397
	N275	N	0.821248	0.547456	0.917025
	O276	O	-0.496780	-0.485225	1.530090
	H277	H	-0.482992	-0.492163	1.539717
	H278	H	-0.499771	-0.488022	1.533232
	O279	O	0.456273	0.533769	0.498264
	H280	H	0.454861	0.534473	0.496896
	H281	H	0.444811	0.538650	0.495514
	O282	O	0.476551	0.559214	0.497971
	H283	H	0.476622	0.556259	0.501075
	H284	H	0.481253	0.564037	0.500020
	O285	O	0.487254	0.577836	0.513035
	H286	H	0.487905	0.579809	0.511438
	H287	H	0.483266	0.583210	0.510531
	O288	O	0.527544	0.536912	0.580198
	H289	H	0.520289	0.541816	0.584985
	H290	H	0.536752	0.530285	0.571344
	O291	O	0.465750	0.509738	0.453935
	H292	H	0.465983	0.502702	0.459540
	H293	H	0.455254	0.521890	0.448801
	O294	O	0.543156	0.526850	0.490308
	H295	H	0.541293	0.518634	0.484929
	H296	H	0.543238	0.522733	0.491952
	O297	O	1.467623	-0.437002	-0.517704
	H298	H	1.476899	-0.421797	-0.519718
	H299	H	1.470034	-0.433071	-0.518026
