data_Molecule from HDF5

_cell_length_a		16.326190
_cell_length_b		16.430858
_cell_length_c		16.161329
_cell_angle_alpha	89.707800
_cell_angle_beta	89.924228
_cell_angle_gamma	90.034340
_symmetry_space_group_name_H-M	'P 1'
_symmetry_Int_Tables_number		1

loop_
	_symmetry_equiv_pos_as_xyz
	x,y,z

loop_
	_atom_site_label
	_atom_site_type_symbol
	_atom_site_fract_x
	_atom_site_fract_y
	_atom_site_fract_z
	H0	H	0.407048	0.840950	0.713008
	H1	H	0.606736	0.165434	0.713119
	H2	H	0.607345	0.841126	0.281336
	H3	H	0.408637	0.165049	0.280793
	H4	H	0.721935	0.402822	0.835471
	H5	H	0.720854	0.604911	0.162172
	H6	H	0.289014	0.603209	0.834302
	H7	H	0.286979	0.400684	0.161647
	H8	H	0.844748	0.724894	0.393788
	H9	H	0.167070	0.721139	0.600498
	H10	H	0.845415	0.282242	0.604366
	H11	H	0.166878	0.286879	0.394324
	H12	H	0.841391	0.404456	0.713196
	H13	H	0.167548	0.602303	0.713288
	H14	H	0.842145	0.603994	0.282938
	H15	H	0.167407	0.406160	0.282222
	H16	H	0.401574	0.721172	0.834998
	H17	H	0.606381	0.720370	0.160680
	H18	H	0.607029	0.286924	0.835076
	H19	H	0.399453	0.282318	0.159851
	H20	H	0.725703	0.842946	0.395826
	H21	H	0.725438	0.164538	0.599410
	H22	H	0.286436	0.843021	0.601769
	H23	H	0.287801	0.164197	0.392953
	H24	H	0.903101	0.343069	0.218684
	H25	H	0.105195	0.665553	0.213674
	H26	H	0.104407	0.342038	0.781738
	H27	H	0.903078	0.665140	0.780522
	H28	H	0.222064	0.904035	0.334079
	H29	H	0.222844	0.103719	0.661438
	H30	H	0.791431	0.106051	0.333122
	H31	H	0.788906	0.901536	0.660437
	H32	H	0.342982	0.221858	0.893684
	H33	H	0.664476	0.223870	0.102607
	H34	H	0.343960	0.783327	0.103485
	H35	H	0.665655	0.782765	0.893050
	H36	H	0.343894	0.901901	0.215944
	H37	H	0.668586	0.102087	0.211295
	H38	H	0.341851	0.100813	0.781997
	H39	H	0.668490	0.904506	0.782869
	H40	H	0.905756	0.222815	0.334859
	H41	H	0.109478	0.221111	0.661311
	H42	H	0.108994	0.787533	0.335222
	H43	H	0.902895	0.786278	0.660474
	H44	H	0.222995	0.342711	0.896547
	H45	H	0.224537	0.664052	0.100600
	H46	H	0.784691	0.343152	0.104945
	H47	H	0.784755	0.663701	0.895361
	H48	H	0.419269	0.116977	0.589550
	H49	H	0.603326	0.889641	0.586170
	H50	H	0.599440	0.119477	0.398728
	H51	H	0.413794	0.886719	0.400237
	H52	H	0.582174	0.407709	0.112030
	H53	H	0.603944	0.586384	0.881539
	H54	H	0.413220	0.585179	0.111808
	H55	H	0.417482	0.413904	0.883863
	H56	H	0.119979	0.596942	0.407681
	H57	H	0.885481	0.606032	0.592296
	H58	H	0.122893	0.405486	0.589018
	H59	H	0.893634	0.413945	0.417433
	H60	H	0.116580	0.415387	0.582798
	H61	H	0.892598	0.596981	0.578512
	H62	H	0.121071	0.596973	0.405945
	H63	H	0.891030	0.418436	0.404895
	H64	H	0.421418	0.597613	0.113302
	H65	H	0.584196	0.588444	0.888415
	H66	H	0.601957	0.403676	0.119557
	H67	H	0.413266	0.409711	0.880364
	H68	H	0.594020	0.115592	0.407171
	H69	H	0.599514	0.888008	0.594117
	H70	H	0.413629	0.116446	0.581525
	H71	H	0.420916	0.891983	0.411426
	H72	H	0.909933	0.615663	0.082017
	H73	H	0.096130	0.391253	0.084890
	H74	H	0.099031	0.617350	0.909012
	H75	H	0.914435	0.390360	0.910207
	H76	H	0.105268	0.907078	0.619112
	H77	H	0.096461	0.088555	0.385039
	H78	H	0.916565	0.089643	0.612150
	H79	H	0.916109	0.921669	0.383478
	H80	H	0.618591	0.091885	0.905816
	H81	H	0.387021	0.088692	0.101309
	H82	H	0.620888	0.904359	0.086177
	H83	H	0.393363	0.925090	0.904961
	H84	H	0.618572	0.913439	0.083550
	H85	H	0.387351	0.106387	0.083552
	H86	H	0.622127	0.099372	0.902918
	H87	H	0.384672	0.904446	0.895574
	H88	H	0.919667	0.097435	0.613018
	H89	H	0.089701	0.102284	0.381628
	H90	H	0.096991	0.923440	0.610670
	H91	H	0.923444	0.910024	0.382477
	H92	H	0.098014	0.619512	0.903180
	H93	H	0.101494	0.386856	0.091974
	H94	H	0.907481	0.619886	0.093562
	H95	H	0.909756	0.388990	0.909049
	H96	H	0.409356	0.119345	0.590655
	H97	H	0.594178	0.890911	0.587662
	H98	H	0.604113	0.117952	0.408298
	H99	H	0.406493	0.888749	0.412690
	H100	H	0.597160	0.423770	0.111850
	H101	H	0.593857	0.604364	0.878717
	H102	H	0.406659	0.597826	0.118122
	H103	H	0.412205	0.415612	0.882841
	H104	H	0.121302	0.598709	0.406343
	H105	H	0.890995	0.589355	0.594178
	H106	H	0.120901	0.416388	0.595337
	H107	H	0.887375	0.406236	0.408122
	H108	H	0.919301	0.617047	0.091217
	H109	H	0.092395	0.389393	0.094215
	H110	H	0.093742	0.616496	0.907014
	H111	H	0.913501	0.388754	0.905874
	H112	H	0.085870	0.906749	0.612879
	H113	H	0.104643	0.100227	0.378308
	H114	H	0.912230	0.095200	0.615917
	H115	H	0.910097	0.909839	0.378133
	H116	H	0.619165	0.098639	0.911040
	H117	H	0.396869	0.084126	0.078239
	H118	H	0.621333	0.910870	0.092525
	H119	H	0.391890	0.904700	0.919584
	C120	C	0.384152	0.011285	0.618526
	C121	C	0.628610	0.995907	0.619143
	C122	C	0.628924	0.011463	0.375157
	C123	C	0.384297	0.995135	0.375998
	C124	C	0.625287	0.381539	0.007083
	C125	C	0.624863	0.623830	0.990279
	C126	C	0.383328	0.624187	0.006564
	C127	C	0.383444	0.381848	0.990030
	C128	C	0.013772	0.627165	0.376312
	C129	C	0.996887	0.626192	0.619244
	C130	C	0.013183	0.382027	0.620173
	C131	C	0.997226	0.383487	0.378539
	C132	C	0.881943	0.511711	0.121009
	C133	C	0.126383	0.495932	0.119696
	C134	C	0.126921	0.511735	0.876116
	C135	C	0.882199	0.495355	0.876923
	C136	C	0.127103	0.882549	0.506398
	C137	C	0.127822	0.126091	0.489570
	C138	C	0.885326	0.125271	0.505954
	C139	C	0.885646	0.883391	0.489260
	C140	C	0.512912	0.125724	0.875722
	C141	C	0.496981	0.123661	0.118399
	C142	C	0.513642	0.880122	0.119410
	C143	C	0.496877	0.881401	0.876223
	C144	C	0.386286	0.889755	0.675539
	C145	C	0.627070	0.116979	0.675410
	C146	C	0.627457	0.889675	0.319410
	C147	C	0.386963	0.116463	0.318521
	C148	C	0.683132	0.382899	0.884385
	C149	C	0.682117	0.623722	0.112995
	C150	C	0.326923	0.623234	0.883368
	C151	C	0.325524	0.381355	0.112552
	C152	C	0.892341	0.684893	0.375672
	C153	C	0.118592	0.682723	0.619644
	C154	C	0.892814	0.322777	0.622055
	C155	C	0.118678	0.326099	0.376292
	C156	C	0.890935	0.383523	0.676544
	C157	C	0.118777	0.623588	0.675890
	C158	C	0.891298	0.625297	0.320081
	C159	C	0.119009	0.385599	0.320641
	C160	C	0.382809	0.682109	0.883870
	C161	C	0.625268	0.681437	0.112216
	C162	C	0.625713	0.325530	0.883991
	C163	C	0.381658	0.322556	0.111751
	C164	C	0.686385	0.890582	0.376300
	C165	C	0.686214	0.116434	0.618743
	C166	C	0.326173	0.890815	0.620121
	C167	C	0.327285	0.116138	0.374907
	C168	C	0.882768	0.391063	0.179814
	C169	C	0.125356	0.617042	0.176003
	C170	C	0.124926	0.390248	0.820031
	C171	C	0.883131	0.616819	0.819208
	C172	C	0.184219	0.884017	0.383446
	C173	C	0.184842	0.124187	0.612477
	C174	C	0.829331	0.125196	0.382536
	C175	C	0.827631	0.882746	0.611599
	C176	C	0.391370	0.182765	0.874864
	C177	C	0.617149	0.183129	0.120090
	C178	C	0.392259	0.822779	0.120991
	C179	C	0.617984	0.823236	0.875261
	C180	C	0.392224	0.881602	0.177287
	C181	C	0.619172	0.122545	0.174459
	C182	C	0.390750	0.122632	0.819363
	C183	C	0.619309	0.883624	0.820220
	C184	C	0.886288	0.183317	0.383278
	C185	C	0.128299	0.182575	0.612392
	C186	C	0.127415	0.826253	0.383759
	C187	C	0.884672	0.825518	0.611789
	C188	C	0.184087	0.390685	0.876943
	C189	C	0.184711	0.616417	0.119564
	C190	C	0.823816	0.391151	0.122963
	C191	C	0.824143	0.616109	0.876096
	C192	C	0.407381	0.095719	0.594175
	C193	C	0.605669	0.911407	0.595953
	C194	C	0.605751	0.095737	0.397920
	C195	C	0.406998	0.910993	0.400945
	C196	C	0.600916	0.404704	0.092400
	C197	C	0.600894	0.600027	0.904998
	C198	C	0.406916	0.600419	0.092048
	C199	C	0.407411	0.405829	0.904460
	C200	C	0.098548	0.604426	0.399844
	C201	C	0.911644	0.603952	0.595272
	C202	C	0.098256	0.405647	0.595994
	C203	C	0.912668	0.406127	0.403011
	C204	C	0.905430	0.595706	0.096267
	C205	C	0.103531	0.411295	0.096842
	C206	C	0.103697	0.595900	0.899419
	C207	C	0.905786	0.411362	0.901267
	C208	C	0.103045	0.905741	0.591942
	C209	C	0.104123	0.103725	0.403943
	C210	C	0.908997	0.101128	0.591328
	C211	C	0.909537	0.907001	0.403664
	C212	C	0.597844	0.103366	0.899656
	C213	C	0.412339	0.099958	0.094623
	C214	C	0.598349	0.902990	0.094640
	C215	C	0.411999	0.904408	0.899840
	Zn216	Zn	0.505950	0.003372	0.747731
	Zn217	Zn	0.506457	0.002269	0.246612
	Zn218	Zn	0.753117	0.503372	-0.001023
	Zn219	Zn	0.255776	0.503123	-0.001579
	Zn220	Zn	0.005540	0.755143	0.497942
	Zn221	Zn	0.006283	0.253512	0.498916
	Zn222	Zn	0.004181	0.503994	0.747930
	Zn223	Zn	0.004715	0.504223	0.249048
	Zn224	Zn	0.504424	0.752144	-0.002529
	Zn225	Zn	0.503989	0.253332	-0.002016
	Zn226	Zn	0.757741	0.003988	0.497124
	Zn227	Zn	0.254698	0.003887	0.497758
	N228	N	0.421701	0.965759	0.674654
	N229	N	0.592031	0.040839	0.675896
	N230	N	0.592548	0.965940	0.318403
	N231	N	0.421657	0.040363	0.319167
	N232	N	0.682998	0.416951	0.961887
	N233	N	0.681800	0.588434	0.036086
	N234	N	0.327154	0.587872	0.960577
	N235	N	0.326615	0.417668	0.035626
	N236	N	0.969402	0.686305	0.409857
	N237	N	0.041499	0.684567	0.585344
	N238	N	0.970070	0.321719	0.587838
	N239	N	0.042043	0.324752	0.411799
	N240	N	0.966949	0.419780	0.675241
	N241	N	0.042133	0.589227	0.675736
	N242	N	0.967723	0.590291	0.320145
	N243	N	0.042607	0.420679	0.322102
	N244	N	0.416823	0.682919	0.961717
	N245	N	0.590282	0.681579	0.034895
	N246	N	0.590245	0.324638	0.961278
	N247	N	0.416869	0.322941	0.034546
	N248	N	0.687510	0.967125	0.409977
	N249	N	0.687275	0.040017	0.584664
	N250	N	0.324831	0.967355	0.585327
	N251	N	0.325460	0.039684	0.409882
	N252	N	0.918209	0.466982	0.178694
	N253	N	0.089695	0.541180	0.176128
	N254	N	0.090140	0.466457	0.819275
	N255	N	0.918381	0.540760	0.819562
	N256	N	0.184093	0.918464	0.460863
	N257	N	0.184792	0.090030	0.535129
	N258	N	0.828866	0.089610	0.459885
	N259	N	0.828136	0.918085	0.534324
	N260	N	0.468391	0.184970	0.908844
	N261	N	0.540152	0.183989	0.085929
	N262	N	0.468941	0.821748	0.085633
	N263	N	0.540593	0.821602	0.909146
	N264	N	0.468634	0.916493	0.176371
	N265	N	0.543445	0.086008	0.173242
	N266	N	0.467434	0.087902	0.819803
	N267	N	0.542953	0.919055	0.820610
	N268	N	0.920425	0.183509	0.460972
	N269	N	0.093564	0.183949	0.534884
	N270	N	0.092720	0.825006	0.461228
	N271	N	0.920051	0.825870	0.534630
	N272	N	0.185334	0.467086	0.911063
	N273	N	0.185564	0.540011	0.085428
	N274	N	0.823199	0.467241	0.087168
	N275	N	0.823479	0.539891	0.911334
	O276	O	0.043282	0.148152	-0.067218
	H277	H	0.041267	0.154931	-0.073003
	H278	H	0.041046	0.141539	-0.069230
	O279	O	-0.072083	-0.034329	0.167589
	H280	H	-0.078106	-0.032560	0.154391
	H281	H	-0.076595	-0.041935	0.172325
	O282	O	0.988747	0.109953	0.050025
	H283	H	0.992471	0.110383	0.048853
	H284	H	0.991416	0.101504	0.052976
	O285	O	-0.018698	1.004264	-0.149520
	H286	H	-0.024883	1.005244	-0.160173
	H287	H	-0.020371	1.005896	-0.145778
	O288	O	0.635673	0.375754	0.428922
	H289	H	0.639686	0.384773	0.444639
	H290	H	0.641594	0.360967	0.433146
	O291	O	0.517894	0.438070	0.458110
	H292	H	0.516302	0.431728	0.461788
	H293	H	0.518063	0.438415	0.445062
	O294	O	1.058092	0.944823	0.935150
	H295	H	1.068232	0.946601	0.932615
	H296	H	1.058000	0.941757	0.940631
	O297	O	-0.023232	-0.040770	0.116063
	H298	H	-0.023192	-0.039021	0.120861
	H299	H	-0.045212	-0.045364	0.127147
	O300	O	0.367671	0.531327	0.481875
	H301	H	0.361138	0.528566	0.473245
	H302	H	0.361848	0.544387	0.485869
	O303	O	-0.597253	0.541130	1.488615
	H304	H	-0.607673	0.545047	1.478845
	H305	H	-0.584181	0.529728	1.491875
	O306	O	0.646019	0.534032	0.543849
	H307	H	0.635078	0.547686	0.547575
	H308	H	0.632704	0.526644	0.545397
	O309	O	0.901759	0.172592	-0.067001
	H310	H	0.901204	0.174358	-0.072612
	H311	H	0.898859	0.185423	-0.058639
	O312	O	-0.078607	-0.058748	0.963057
	H313	H	-0.089657	-0.044677	0.964539
	H314	H	-0.070453	-0.057525	0.956668
	O315	O	-0.169709	0.949018	1.101207
	H316	H	-0.174292	0.947577	1.114953
	H317	H	-0.182942	0.949388	1.116862
	O318	O	0.395895	0.478440	0.501392
	H319	H	0.405006	0.483631	0.493925
	H320	H	0.397005	0.476657	0.499391
	O321	O	0.583647	0.568860	0.483371
	H322	H	0.586202	0.563187	0.483081
	H323	H	0.582031	0.565129	0.485204
	O324	O	0.581112	0.536331	0.583192
	H325	H	0.586371	0.534271	0.580156
	H326	H	0.578504	0.530575	0.591691
	O327	O	-0.522556	1.389742	1.452904
	H328	H	-0.521700	1.386372	1.454922
	H329	H	-0.522565	1.395919	1.457778
	O330	O	0.511952	0.603837	0.401705
	H331	H	0.522914	0.598429	0.404592
	H332	H	0.493691	0.607533	0.398493
	O333	O	0.002792	0.945762	1.149444
	H334	H	-0.005645	0.941376	1.148713
	H335	H	-0.005195	0.948151	1.164687
	O336	O	1.167425	0.848594	0.942818
	H337	H	1.170108	0.842504	0.954563
	H338	H	1.168664	0.864414	0.951474
	O339	O	0.874750	0.867348	0.015874
	H340	H	0.862520	0.860216	0.007697
	H341	H	0.890083	0.863181	-0.003352
	O342	O	1.107279	0.124516	0.153886
	H343	H	1.116586	0.118030	0.155185
	H344	H	1.113907	0.117405	0.142905
	O345	O	0.442447	0.594517	0.350760
	H346	H	0.450884	0.605737	0.339256
	H347	H	0.448262	0.587753	0.349107
	O348	O	0.543585	0.528535	0.451451
	H349	H	0.540169	0.524040	0.454883
	H350	H	0.545579	0.532122	0.453309
	O351	O	1.118691	0.970889	-0.036318
	H352	H	1.131055	0.958476	-0.036078
	H353	H	1.117863	0.971034	-0.040971
	O354	O	0.932699	0.124304	0.866272
	H355	H	0.932849	0.113084	0.871242
	H356	H	0.921707	0.109017	0.857106
	O357	O	0.524987	0.477544	0.588419
	H358	H	0.523601	0.485871	0.588595
	H359	H	0.525613	0.481706	0.588635
	O360	O	-0.065403	-0.007772	-0.045281
	H361	H	-0.059085	0.009673	-0.049100
	H362	H	-0.058937	-0.001246	-0.051657
	O363	O	0.578035	0.547416	0.537588
	H364	H	0.573919	0.543180	0.530495
	H365	H	0.578642	0.538820	0.542451
	O366	O	0.569883	0.572940	0.462379
	H367	H	0.579364	0.575902	0.465147
	H368	H	0.567855	0.550915	0.464302
	O369	O	0.927956	0.026268	0.022868
	H370	H	0.936424	0.014865	0.030120
	H371	H	0.924105	0.029636	0.020195
	O372	O	0.478838	0.502239	0.374399
	H373	H	0.490389	0.496318	0.371094
	H374	H	0.480290	0.502790	0.383463
	O375	O	0.532327	0.407936	0.676366
	H376	H	0.522061	0.409223	0.689985
	H377	H	0.505972	0.400874	0.682521
	O378	O	0.439265	0.461416	0.548157
	H379	H	0.447878	0.460951	0.555263
	H380	H	0.440073	0.458788	0.551352
	O381	O	0.342466	0.379580	0.634636
	H382	H	0.327654	0.393728	0.618085
	H383	H	0.336405	0.389010	0.640599
	O384	O	0.076898	1.041562	0.028362
	H385	H	0.085841	1.047395	0.021587
	H386	H	0.079604	1.027326	0.027857
	O387	O	1.056922	-0.067132	1.013837
	H388	H	1.060072	-0.066281	1.021830
	H389	H	1.057637	-0.051416	1.018802
	O390	O	0.024317	0.975414	-0.042080
	H391	H	0.023320	0.978193	-0.051729
	H392	H	0.029292	0.966258	-0.032754
	O393	O	1.077048	0.857275	-0.019566
	H394	H	1.081414	0.857486	-0.003533
	H395	H	1.072199	0.842315	-0.027152
	O396	O	0.401601	0.506591	0.537556
	H397	H	0.402417	0.521392	0.534090
	H398	H	0.399392	0.485740	0.534618
	O399	O	0.120741	1.006404	0.921257
	H400	H	0.114690	1.017761	0.922890
	H401	H	0.115245	1.009230	0.921966
	O402	O	0.912759	1.189360	0.896147
	H403	H	0.914724	1.194517	0.885482
	H404	H	0.898994	1.186631	0.889233
	O405	O	0.517016	0.453521	0.497136
	H406	H	0.514719	0.460288	0.503944
	H407	H	0.512312	0.454610	0.484851
