data_Molecule from HDF5

_cell_length_a		16.355208
_cell_length_b		16.225776
_cell_length_c		16.211724
_cell_angle_alpha	89.906532
_cell_angle_beta	90.180019
_cell_angle_gamma	90.188501
_symmetry_space_group_name_H-M	'P 1'
_symmetry_Int_Tables_number		1

loop_
	_symmetry_equiv_pos_as_xyz
	x,y,z

loop_
	_atom_site_label
	_atom_site_type_symbol
	_atom_site_fract_x
	_atom_site_fract_y
	_atom_site_fract_z
	H0	H	0.405236	0.831359	0.706658
	H1	H	0.601271	0.160650	0.708322
	H2	H	0.598818	0.831427	0.281837
	H3	H	0.404870	0.160583	0.279814
	H4	H	0.715953	0.395611	0.829611
	H5	H	0.718164	0.597117	0.157534
	H6	H	0.284986	0.595129	0.830373
	H7	H	0.286340	0.395791	0.158229
	H8	H	0.839896	0.712594	0.394401
	H9	H	0.165930	0.710662	0.593011
	H10	H	0.839784	0.279030	0.593625
	H11	H	0.166036	0.282573	0.395937
	H12	H	0.838106	0.396998	0.707670
	H13	H	0.164300	0.595573	0.711060
	H14	H	0.838947	0.597324	0.278198
	H15	H	0.164830	0.397656	0.278638
	H16	H	0.402255	0.709927	0.829682
	H17	H	0.599759	0.709140	0.159270
	H18	H	0.596986	0.283086	0.828924
	H19	H	0.403679	0.282003	0.158308
	H20	H	0.716168	0.832627	0.394502
	H21	H	0.720309	0.159446	0.595914
	H22	H	0.286746	0.832307	0.593834
	H23	H	0.287306	0.160097	0.393371
	H24	H	0.901668	0.332795	0.210654
	H25	H	0.099067	0.661813	0.206124
	H26	H	0.095976	0.331599	0.783062
	H27	H	0.902401	0.661153	0.780075
	H28	H	0.214822	0.898088	0.329995
	H29	H	0.219837	0.097589	0.657491
	H30	H	0.786242	0.096643	0.330538
	H31	H	0.787139	0.896548	0.658039
	H32	H	0.337761	0.209719	0.893838
	H33	H	0.663804	0.213267	0.094609
	H34	H	0.337799	0.780976	0.092235
	H35	H	0.664094	0.780177	0.896268
	H36	H	0.338344	0.896200	0.208693
	H37	H	0.664755	0.094510	0.208528
	H38	H	0.339276	0.093481	0.778118
	H39	H	0.665934	0.897562	0.781137
	H40	H	0.903969	0.211279	0.330630
	H41	H	0.103153	0.211565	0.659392
	H42	H	0.099396	0.783240	0.330598
	H43	H	0.905018	0.783335	0.659504
	H44	H	0.213955	0.332600	0.894244
	H45	H	0.218021	0.659449	0.094767
	H46	H	0.785739	0.331635	0.094001
	H47	H	0.784606	0.660004	0.893620
	H48	H	0.417830	0.111935	0.591206
	H49	H	0.591010	0.881079	0.589114
	H50	H	0.589346	0.111319	0.403169
	H51	H	0.400700	0.875127	0.394581
	H52	H	0.592249	0.392841	0.113696
	H53	H	0.586180	0.587046	0.879902
	H54	H	0.409865	0.589670	0.111523
	H55	H	0.401531	0.397528	0.874002
	H56	H	0.117881	0.589903	0.401837
	H57	H	0.888749	0.582756	0.585832
	H58	H	0.119942	0.402182	0.593449
	H59	H	0.884943	0.402463	0.397382
	H60	H	0.116326	0.402247	0.584916
	H61	H	0.882618	0.593354	0.594277
	H62	H	0.118532	0.590491	0.399385
	H63	H	0.887848	0.401323	0.407926
	H64	H	0.405669	0.587916	0.111336
	H65	H	0.594597	0.595393	0.874824
	H66	H	0.603744	0.409511	0.111484
	H67	H	0.403397	0.408528	0.877330
	H68	H	0.598895	0.112861	0.405785
	H69	H	0.596142	0.880864	0.582508
	H70	H	0.410733	0.109571	0.577045
	H71	H	0.416249	0.881038	0.399896
	H72	H	0.904212	0.611931	0.079049
	H73	H	0.091849	0.382789	0.077580
	H74	H	0.094319	0.612891	0.904979
	H75	H	0.896898	0.375840	0.900998
	H76	H	0.086814	0.908680	0.607656
	H77	H	0.096087	0.092550	0.376366
	H78	H	0.924214	0.085525	0.606781
	H79	H	0.910260	0.910396	0.380624
	H80	H	0.619688	0.090025	0.895545
	H81	H	0.386941	0.087902	0.083926
	H82	H	0.621084	0.893186	0.093541
	H83	H	0.385477	0.901583	0.900665
	H84	H	0.614479	0.901435	0.077901
	H85	H	0.385403	0.085756	0.089884
	H86	H	0.617084	0.095730	0.906132
	H87	H	0.386064	0.903740	0.900039
	H88	H	0.905790	0.100065	0.615865
	H89	H	0.095413	0.088029	0.377688
	H90	H	0.095650	0.894379	0.614804
	H91	H	0.913302	0.898397	0.377178
	H92	H	0.096784	0.613954	0.901448
	H93	H	0.101486	0.376728	0.089277
	H94	H	0.903817	0.615273	0.090903
	H95	H	0.914625	0.379347	0.894266
	H96	H	0.402274	0.116886	0.589290
	H97	H	0.598921	0.877608	0.589763
	H98	H	0.595687	0.114789	0.396413
	H99	H	0.403724	0.881142	0.411086
	H100	H	0.583808	0.410700	0.105701
	H101	H	0.597681	0.583553	0.878037
	H102	H	0.409309	0.585955	0.110240
	H103	H	0.411612	0.400866	0.877666
	H104	H	0.118738	0.592126	0.401340
	H105	H	0.886503	0.595949	0.580093
	H106	H	0.116989	0.409701	0.590440
	H107	H	0.889337	0.410557	0.402980
	H108	H	0.914846	0.610578	0.086432
	H109	H	0.085730	0.380382	0.092709
	H110	H	0.091665	0.613433	0.902236
	H111	H	0.909944	0.384189	0.912291
	H112	H	0.104580	0.910166	0.612721
	H113	H	0.091388	0.090598	0.378671
	H114	H	0.901302	0.075582	0.610809
	H115	H	0.901174	0.903190	0.374758
	H116	H	0.614493	0.083483	0.905332
	H117	H	0.383828	0.091957	0.088538
	H118	H	0.616360	0.911823	0.094020
	H119	H	0.385039	0.902566	0.898681
	C120	C	0.381067	0.004408	0.615000
	C121	C	0.624616	0.987930	0.616412
	C122	C	0.623053	0.004638	0.373425
	C123	C	0.379467	0.987680	0.372425
	C124	C	0.621757	0.375081	0.001858
	C125	C	0.622340	0.617593	0.986048
	C126	C	0.379330	0.616618	0.002484
	C127	C	0.378013	0.373824	0.985028
	C128	C	0.010513	0.619316	0.372109
	C129	C	0.993692	0.619281	0.616183
	C130	C	0.010237	0.374611	0.617342
	C131	C	0.994778	0.375974	0.373557
	C132	C	0.878980	0.504382	0.115608
	C133	C	0.122613	0.488143	0.115922
	C134	C	0.121632	0.504879	0.873918
	C135	C	0.878503	0.487946	0.872587
	C136	C	0.123330	0.875841	0.503055
	C137	C	0.123944	0.118806	0.486145
	C138	C	0.880987	0.117285	0.503039
	C139	C	0.880464	0.875372	0.486194
	C140	C	0.509777	0.117755	0.872697
	C141	C	0.493061	0.118027	0.116238
	C142	C	0.509327	0.873686	0.116280
	C143	C	0.493244	0.873991	0.872060
	C144	C	0.383966	0.880747	0.669542
	C145	C	0.621921	0.111424	0.671212
	C146	C	0.619868	0.880901	0.318866
	C147	C	0.383539	0.111328	0.317062
	C148	C	0.677416	0.376307	0.878538
	C149	C	0.678944	0.616180	0.109048
	C150	C	0.323442	0.615072	0.879250
	C151	C	0.323447	0.375467	0.108935
	C152	C	0.888235	0.674587	0.373989
	C153	C	0.116738	0.673481	0.614017
	C154	C	0.888061	0.317793	0.614158
	C155	C	0.117165	0.320367	0.375918
	C156	C	0.887061	0.376304	0.670920
	C157	C	0.115819	0.616245	0.672567
	C158	C	0.887916	0.617068	0.316160
	C159	C	0.116628	0.377716	0.317527
	C160	C	0.381540	0.672159	0.878907
	C161	C	0.620133	0.672107	0.109926
	C162	C	0.618485	0.320217	0.878188
	C163	C	0.382074	0.319332	0.109324
	C164	C	0.678082	0.881423	0.375227
	C165	C	0.681078	0.110813	0.615416
	C166	C	0.325101	0.881255	0.613455
	C167	C	0.324788	0.111015	0.373420
	C168	C	0.881249	0.381655	0.172369
	C169	C	0.120082	0.611963	0.169888
	C170	C	0.117448	0.380995	0.819579
	C171	C	0.880978	0.611582	0.817006
	C172	C	0.177298	0.878060	0.379022
	C173	C	0.181017	0.117261	0.608959
	C174	C	0.824565	0.116563	0.379609
	C175	C	0.825438	0.876747	0.609413
	C176	C	0.386729	0.172101	0.873952
	C177	C	0.615199	0.174507	0.114192
	C178	C	0.386613	0.818826	0.112855
	C179	C	0.615886	0.818459	0.875316
	C180	C	0.386911	0.876063	0.170791
	C181	C	0.615889	0.115567	0.171160
	C182	C	0.387434	0.114355	0.816413
	C183	C	0.616509	0.876397	0.817800
	C184	C	0.883069	0.173422	0.379555
	C185	C	0.122893	0.173813	0.609890
	C186	C	0.119840	0.821221	0.379236
	C187	C	0.884047	0.820369	0.609969
	C188	C	0.175870	0.381411	0.875497
	C189	C	0.179181	0.610787	0.114359
	C190	C	0.823435	0.381066	0.114414
	C191	C	0.822751	0.611194	0.873548
	C192	C	0.403670	0.090581	0.592521
	C193	C	0.602037	0.901894	0.593707
	C194	C	0.601310	0.090876	0.395606
	C195	C	0.400815	0.901311	0.395203
	C196	C	0.599802	0.397727	0.088017
	C197	C	0.599678	0.595203	0.899944
	C198	C	0.401823	0.594278	0.088721
	C199	C	0.399275	0.395713	0.898763
	C200	C	0.096078	0.597428	0.394415
	C201	C	0.908133	0.597346	0.593209
	C202	C	0.095614	0.397814	0.596011
	C203	C	0.909486	0.398101	0.396251
	C204	C	0.901087	0.590453	0.092287
	C205	C	0.099661	0.401899	0.093133
	C206	C	0.100362	0.591093	0.896046
	C207	C	0.900610	0.402218	0.895513
	C208	C	0.102017	0.897969	0.589251
	C209	C	0.101094	0.096712	0.399954
	C210	C	0.903869	0.093922	0.588736
	C211	C	0.901769	0.897780	0.399922
	C212	C	0.594838	0.096176	0.895562
	C213	C	0.407544	0.095239	0.093886
	C214	C	0.595283	0.895634	0.094662
	C215	C	0.407786	0.896125	0.893449
	Zn216	Zn	0.502580	-0.003803	0.743643
	Zn217	Zn	0.501473	-0.004933	0.245040
	Zn218	Zn	0.750307	0.496155	-0.006433
	Zn219	Zn	0.250782	0.495368	-0.005634
	Zn220	Zn	0.002370	0.747990	0.494110
	Zn221	Zn	0.002540	0.246093	0.495164
	Zn222	Zn	0.000281	0.496838	0.745189
	Zn223	Zn	0.002007	0.496970	0.243981
	Zn224	Zn	0.500885	0.745391	-0.005795
	Zn225	Zn	0.500583	0.246997	-0.006038
	Zn226	Zn	0.751775	-0.003775	0.493935
	Zn227	Zn	0.251469	-0.003469	0.494246
	N228	N	0.418217	0.958287	0.670665
	N229	N	0.587531	0.033850	0.671829
	N230	N	0.585956	0.958422	0.317823
	N231	N	0.416753	0.033482	0.316427
	N232	N	0.679586	0.409789	0.956587
	N233	N	0.680499	0.583107	0.030946
	N234	N	0.321870	0.581406	0.957152
	N235	N	0.320830	0.408650	0.030726
	N236	N	0.965326	0.676141	0.407960
	N237	N	0.039692	0.675442	0.579592
	N238	N	0.965609	0.316851	0.581534
	N239	N	0.040218	0.319362	0.410244
	N240	N	0.963856	0.411000	0.672952
	N241	N	0.038350	0.583079	0.673819
	N242	N	0.965050	0.583267	0.314953
	N243	N	0.039683	0.411536	0.315994
	N244	N	0.415725	0.673147	0.956560
	N245	N	0.585503	0.673011	0.032355
	N246	N	0.584751	0.319460	0.955767
	N247	N	0.414931	0.317824	0.031381
	N248	N	0.680433	0.959531	0.408174
	N249	N	0.682629	0.033106	0.581880
	N250	N	0.323215	0.959365	0.580244
	N251	N	0.322183	0.033258	0.407156
	N252	N	0.915129	0.459423	0.172974
	N253	N	0.085605	0.534456	0.170903
	N254	N	0.083968	0.458733	0.818755
	N255	N	0.914910	0.534150	0.816297
	N256	N	0.179540	0.911551	0.456938
	N257	N	0.181818	0.083830	0.530952
	N258	N	0.823189	0.082349	0.457358
	N259	N	0.823117	0.910201	0.531479
	N260	N	0.463550	0.174232	0.908563
	N261	N	0.537789	0.175858	0.080472
	N262	N	0.463997	0.817221	0.079707
	N263	N	0.538425	0.816528	0.908189
	N264	N	0.464349	0.909388	0.173136
	N265	N	0.538908	0.081219	0.172658
	N266	N	0.464760	0.081389	0.815377
	N267	N	0.539380	0.910266	0.815666
	N268	N	0.917371	0.174059	0.457123
	N269	N	0.088103	0.174920	0.532570
	N270	N	0.087049	0.819673	0.457239
	N271	N	0.917435	0.819273	0.532244
	N272	N	0.178625	0.459250	0.908653
	N273	N	0.180906	0.532569	0.081614
	N274	N	0.821916	0.458490	0.079674
	N275	N	0.820897	0.533346	0.907291
	O276	O	1.049372	1.073062	0.027135
	H277	H	1.046580	1.077287	0.030794
	H278	H	1.056176	1.068682	0.034704
	O279	O	0.016739	-0.000167	0.986015
	H280	H	0.008396	-0.006112	0.987310
	H281	H	0.016603	-0.012992	0.980067
	O282	O	0.097058	0.009900	0.045126
	H283	H	0.094821	0.007285	0.047199
	H284	H	0.097354	0.000174	0.053429
	O285	O	0.474667	0.532510	0.470919
	H286	H	0.475683	0.545315	0.468714
	H287	H	0.479795	0.523260	0.465378
	O288	O	-0.013773	0.012087	0.014579
	H289	H	-0.012334	0.018922	0.016525
	H290	H	-0.016849	0.026665	0.019772
	O291	O	-0.011122	1.081453	-0.030337
	H292	H	-0.010034	1.082728	-0.034869
	H293	H	-0.010844	1.078759	-0.028830
	O294	O	-0.054573	0.928580	-0.028247
	H295	H	-0.058469	0.932738	-0.032803
	H296	H	-0.064849	0.928526	-0.023898
	O297	O	0.549779	0.532124	0.545646
	H298	H	0.560488	0.519840	0.552296
	H299	H	0.544845	0.539423	0.535619
	O300	O	0.535859	0.482263	0.571816
	H301	H	0.527764	0.470422	0.572106
	H302	H	0.554137	0.478829	0.573193
	O303	O	0.944015	0.016100	0.988578
	H304	H	0.949129	0.014317	0.988907
	H305	H	0.951091	0.014767	0.988510
	O306	O	0.028086	0.999252	1.004299
	H307	H	0.026422	0.994529	1.010673
	H308	H	0.026915	1.001344	0.996446
	O309	O	-0.056210	1.030124	0.979269
	H310	H	-0.060054	1.034486	0.972958
	H311	H	-0.063217	1.035069	0.979190
	O312	O	-0.025739	0.040722	1.008423
	H313	H	-0.019968	0.048133	1.006001
	H314	H	-0.033956	0.036390	1.000007
	O315	O	0.520827	0.510832	0.519845
	H316	H	0.517005	0.516445	0.523874
	H317	H	0.521902	0.510617	0.512423
	O318	O	-0.036123	0.013554	0.979271
	H319	H	-0.034680	0.016845	0.975697
	H320	H	-0.029323	0.018894	0.978445
	O321	O	0.559738	0.483512	0.469012
	H322	H	0.558149	0.475404	0.480334
	H323	H	0.559549	0.475184	0.458178
	O324	O	1.037750	-0.020507	0.983166
	H325	H	1.036328	-0.026595	0.986671
	H326	H	1.042202	-0.021977	0.988862
	O327	O	0.948680	1.006617	0.976896
	H328	H	0.959368	1.011937	0.979052
	H329	H	0.948731	1.016065	0.968620
	O330	O	0.561223	0.409804	0.453779
	H331	H	0.568290	0.411385	0.454368
	H332	H	0.554629	0.405583	0.448878
	O333	O	0.533513	0.497274	0.537994
	H334	H	0.532426	0.498596	0.537533
	H335	H	0.538914	0.508979	0.535605
	O336	O	0.559984	0.524497	0.503285
	H337	H	0.559700	0.519682	0.507702
	H338	H	0.561679	0.532074	0.501674
	O339	O	0.531091	0.507750	0.450804
	H340	H	0.539492	0.511208	0.439332
	H341	H	0.532655	0.510453	0.454913
	O342	O	0.539048	0.526392	0.511824
	H343	H	0.532238	0.532812	0.513423
	H344	H	0.535392	0.528710	0.511279
	O345	O	0.515809	0.518416	0.486907
	H346	H	0.512436	0.520936	0.488018
	H347	H	0.517318	0.519935	0.494303
