data_Molecule from HDF5

_cell_length_a		16.291297
_cell_length_b		16.307246
_cell_length_c		16.281361
_cell_angle_alpha	90.285920
_cell_angle_beta	90.001161
_cell_angle_gamma	90.066118
_symmetry_space_group_name_H-M	'P 1'
_symmetry_Int_Tables_number		1

loop_
	_symmetry_equiv_pos_as_xyz
	x,y,z

loop_
	_atom_site_label
	_atom_site_type_symbol
	_atom_site_fract_x
	_atom_site_fract_y
	_atom_site_fract_z
	H0	H	0.401784	0.836936	0.710763
	H1	H	0.600867	0.163462	0.713509
	H2	H	0.601113	0.837652	0.280220
	H3	H	0.404123	0.164461	0.283615
	H4	H	0.716284	0.400464	0.832913
	H5	H	0.714733	0.598282	0.160694
	H6	H	0.287712	0.597850	0.833028
	H7	H	0.287112	0.402737	0.160969
	H8	H	0.839119	0.713981	0.400205
	H9	H	0.165050	0.717432	0.597104
	H10	H	0.838712	0.286530	0.594189
	H11	H	0.165697	0.286274	0.397902
	H12	H	0.838629	0.400960	0.711217
	H13	H	0.165747	0.600211	0.712003
	H14	H	0.838306	0.597556	0.285205
	H15	H	0.166415	0.403367	0.283324
	H16	H	0.402547	0.714664	0.833220
	H17	H	0.599229	0.715583	0.160486
	H18	H	0.600101	0.283920	0.833512
	H19	H	0.401488	0.285574	0.160458
	H20	H	0.716544	0.836997	0.398106
	H21	H	0.717466	0.163803	0.597551
	H22	H	0.285163	0.837580	0.595470
	H23	H	0.286280	0.163656	0.396625
	H24	H	0.903789	0.336586	0.210032
	H25	H	0.099688	0.663875	0.211759
	H26	H	0.100897	0.337239	0.780656
	H27	H	0.903367	0.664128	0.783035
	H28	H	0.215720	0.901418	0.333032
	H29	H	0.217648	0.100366	0.659713
	H30	H	0.788238	0.096966	0.333360
	H31	H	0.788154	0.902438	0.660975
	H32	H	0.338162	0.215283	0.898398
	H33	H	0.664018	0.216940	0.097369
	H34	H	0.338154	0.786390	0.094972
	H35	H	0.664322	0.784746	0.897171
	H36	H	0.338491	0.900985	0.211850
	H37	H	0.664749	0.101111	0.212736
	H38	H	0.337904	0.099118	0.781722
	H39	H	0.665124	0.901199	0.781919
	H40	H	0.904837	0.212983	0.332945
	H41	H	0.101947	0.217146	0.660034
	H42	H	0.100188	0.784986	0.333688
	H43	H	0.901745	0.785261	0.660239
	H44	H	0.217322	0.336842	0.897253
	H45	H	0.216139	0.663948	0.095392
	H46	H	0.787516	0.336319	0.093755
	H47	H	0.786826	0.663949	0.898569
	H48	H	0.411428	0.116196	0.591953
	H49	H	0.598592	0.882416	0.593668
	H50	H	0.593629	0.115776	0.405057
	H51	H	0.408104	0.883654	0.399765
	H52	H	0.594927	0.412646	0.112119
	H53	H	0.595298	0.591745	0.880626
	H54	H	0.407463	0.596282	0.114266
	H55	H	0.410879	0.410123	0.882709
	H56	H	0.120322	0.601399	0.408993
	H57	H	0.880120	0.603795	0.597344
	H58	H	0.116031	0.409048	0.583556
	H59	H	0.887470	0.405974	0.410446
	H60	H	0.117548	0.413423	0.592663
	H61	H	0.889869	0.595060	0.576117
	H62	H	0.115499	0.586392	0.408769
	H63	H	0.885976	0.412375	0.398652
	H64	H	0.408193	0.593688	0.113314
	H65	H	0.593504	0.593089	0.880645
	H66	H	0.590410	0.405929	0.112366
	H67	H	0.411390	0.405247	0.881608
	H68	H	0.596636	0.115970	0.406601
	H69	H	0.590777	0.885285	0.589703
	H70	H	0.413078	0.114147	0.586281
	H71	H	0.412288	0.885743	0.404610
	H72	H	0.914055	0.615402	0.093317
	H73	H	0.098711	0.383212	0.088222
	H74	H	0.092371	0.616102	0.901492
	H75	H	0.903518	0.382630	0.903276
	H76	H	0.096907	0.919777	0.610448
	H77	H	0.104025	0.095975	0.376732
	H78	H	0.910322	0.093686	0.613310
	H79	H	0.907904	0.906606	0.380720
	H80	H	0.616523	0.093786	0.908733
	H81	H	0.385512	0.093836	0.089548
	H82	H	0.619425	0.906474	0.090596
	H83	H	0.384665	0.906598	0.903312
	H84	H	0.616335	0.908314	0.086376
	H85	H	0.384784	0.092673	0.091263
	H86	H	0.616422	0.088476	0.903596
	H87	H	0.385372	0.909009	0.904147
	H88	H	0.910271	0.095329	0.614154
	H89	H	0.093887	0.084418	0.383215
	H90	H	0.083924	0.907022	0.610500
	H91	H	0.910214	0.907710	0.381701
	H92	H	0.094258	0.615511	0.908198
	H93	H	0.095217	0.382511	0.093814
	H94	H	0.906508	0.615307	0.085009
	H95	H	0.913050	0.384506	0.898313
	H96	H	0.407594	0.116525	0.587077
	H97	H	0.598670	0.884601	0.584855
	H98	H	0.595332	0.117194	0.403518
	H99	H	0.406050	0.884286	0.405278
	H100	H	0.598207	0.405094	0.114546
	H101	H	0.595463	0.594345	0.879293
	H102	H	0.410800	0.595549	0.113519
	H103	H	0.407435	0.407422	0.881008
	H104	H	0.120800	0.592839	0.395963
	H105	H	0.888490	0.580184	0.595862
	H106	H	0.120622	0.403825	0.590959
	H107	H	0.882776	0.398809	0.399681
	H108	H	0.903394	0.619018	0.095047
	H109	H	0.092252	0.385181	0.088310
	H110	H	0.099463	0.617141	0.903725
	H111	H	0.911723	0.387412	0.908820
	H112	H	0.100766	0.902884	0.617444
	H113	H	0.087925	0.100333	0.380475
	H114	H	0.909622	0.094148	0.613298
	H115	H	0.909688	0.905446	0.380427
	H116	H	0.618944	0.095181	0.902565
	H117	H	0.384034	0.095290	0.091471
	H118	H	0.617793	0.910868	0.090641
	H119	H	0.385787	0.908229	0.902076
	C120	C	0.380517	0.008130	0.617607
	C121	C	0.624028	0.992123	0.618664
	C122	C	0.623528	0.008611	0.375838
	C123	C	0.380352	0.992207	0.374675
	C124	C	0.623006	0.378587	0.005160
	C125	C	0.623020	0.622044	0.988163
	C126	C	0.380113	0.622869	0.005499
	C127	C	0.380388	0.379048	0.989291
	C128	C	0.011036	0.621694	0.376347
	C129	C	0.993822	0.622644	0.619033
	C130	C	0.010258	0.379539	0.617674
	C131	C	0.993646	0.378138	0.374435
	C132	C	0.879769	0.508487	0.118479
	C133	C	0.123222	0.492262	0.118505
	C134	C	0.123930	0.508375	0.875291
	C135	C	0.880426	0.492538	0.875212
	C136	C	0.122926	0.879652	0.504977
	C137	C	0.124095	0.122888	0.488184
	C138	C	0.881196	0.121908	0.505548
	C139	C	0.880493	0.878582	0.489122
	C140	C	0.509436	0.121457	0.875830
	C141	C	0.493010	0.122608	0.119252
	C142	C	0.509632	0.880113	0.117731
	C143	C	0.493044	0.878709	0.874543
	C144	C	0.381929	0.885820	0.672908
	C145	C	0.621660	0.114653	0.675374
	C146	C	0.621230	0.886069	0.319152
	C147	C	0.383892	0.115486	0.320868
	C148	C	0.678496	0.379907	0.881851
	C149	C	0.677555	0.619667	0.111647
	C150	C	0.325412	0.618926	0.882056
	C151	C	0.325013	0.381807	0.112081
	C152	C	0.887597	0.676067	0.379362
	C153	C	0.116465	0.679216	0.617639
	C154	C	0.887393	0.324279	0.614789
	C155	C	0.117063	0.324091	0.377638
	C156	C	0.887420	0.381381	0.672895
	C157	C	0.116720	0.620775	0.674495
	C158	C	0.887482	0.618498	0.321957
	C159	C	0.117284	0.382127	0.320610
	C160	C	0.382134	0.677047	0.882119
	C161	C	0.619959	0.677616	0.111466
	C162	C	0.621010	0.321961	0.882206
	C163	C	0.381916	0.323773	0.111848
	C164	C	0.678728	0.885788	0.377443
	C165	C	0.679525	0.114985	0.617671
	C166	C	0.323606	0.886245	0.615705
	C167	C	0.324876	0.115060	0.376754
	C168	C	0.882838	0.385503	0.172608
	C169	C	0.120554	0.614975	0.174043
	C170	C	0.121719	0.385929	0.818789
	C171	C	0.882797	0.615261	0.820443
	C172	C	0.177699	0.881491	0.381936
	C173	C	0.179549	0.120728	0.611220
	C174	C	0.826148	0.118098	0.382122
	C175	C	0.825703	0.881742	0.612016
	C176	C	0.386519	0.176703	0.878115
	C177	C	0.615631	0.178279	0.117255
	C178	C	0.386870	0.824399	0.115457
	C179	C	0.615915	0.823054	0.876789
	C180	C	0.387190	0.881763	0.173365
	C181	C	0.616052	0.120322	0.174182
	C182	C	0.386648	0.119472	0.819784
	C183	C	0.616254	0.880908	0.819682
	C184	C	0.884034	0.175555	0.381844
	C185	C	0.121867	0.178490	0.611458
	C186	C	0.120608	0.823395	0.382308
	C187	C	0.882123	0.823371	0.611680
	C188	C	0.179425	0.385652	0.876879
	C189	C	0.178150	0.615199	0.116170
	C190	C	0.824882	0.385432	0.114883
	C191	C	0.825019	0.615223	0.878024
	C192	C	0.403784	0.093744	0.594968
	C193	C	0.602287	0.906223	0.596048
	C194	C	0.601681	0.094100	0.398489
	C195	C	0.402117	0.906586	0.396866
	C196	C	0.601088	0.401290	0.090605
	C197	C	0.601203	0.599694	0.902424
	C198	C	0.402202	0.601288	0.091501
	C199	C	0.403291	0.401204	0.903710
	C200	C	0.096757	0.600100	0.398181
	C201	C	0.908265	0.599857	0.596451
	C202	C	0.096084	0.402167	0.595590
	C203	C	0.907634	0.399504	0.396274
	C204	C	0.901600	0.594540	0.097204
	C205	C	0.101779	0.405785	0.096505
	C206	C	0.101754	0.594165	0.897813
	C207	C	0.902730	0.406860	0.897180
	C208	C	0.100213	0.902909	0.590644
	C209	C	0.101839	0.100264	0.402421
	C210	C	0.903513	0.100913	0.591286
	C211	C	0.902738	0.900193	0.403057
	C212	C	0.595152	0.099087	0.898384
	C213	C	0.406965	0.100485	0.097006
	C214	C	0.595655	0.901977	0.095550
	C215	C	0.407369	0.901216	0.896703
	Zn216	Zn	0.501824	-0.000171	0.746843
	Zn217	Zn	0.501731	0.001152	0.246748
	Zn218	Zn	0.751236	0.500426	-0.003397
	Zn219	Zn	0.252457	0.500479	-0.002614
	Zn220	Zn	0.002106	0.750532	0.497475
	Zn221	Zn	0.002151	0.250815	0.496772
	Zn222	Zn	0.001890	0.500775	0.746822
	Zn223	Zn	0.001610	0.500245	0.247168
	Zn224	Zn	0.501626	0.751266	-0.003620
	Zn225	Zn	0.501314	0.250091	-0.002571
	Zn226	Zn	0.752947	0.000502	0.497232
	Zn227	Zn	0.251749	0.000803	0.495947
	N228	N	0.416632	0.962656	0.674042
	N229	N	0.587793	0.037300	0.675954
	N230	N	0.587869	0.963474	0.317805
	N231	N	0.417333	0.038032	0.319209
	N232	N	0.679970	0.414353	0.959150
	N233	N	0.679157	0.585715	0.034220
	N234	N	0.323873	0.586158	0.959746
	N235	N	0.324041	0.415445	0.034905
	N236	N	0.965103	0.678174	0.412385
	N237	N	0.039001	0.680389	0.583885
	N238	N	0.964851	0.323147	0.581025
	N239	N	0.039209	0.321258	0.410266
	N240	N	0.964930	0.415041	0.674721
	N241	N	0.039632	0.586345	0.675549
	N242	N	0.965230	0.585236	0.320007
	N243	N	0.039614	0.415027	0.318622
	N244	N	0.415637	0.679665	0.959798
	N245	N	0.586921	0.679544	0.033621
	N246	N	0.587128	0.321140	0.959535
	N247	N	0.415665	0.321849	0.034292
	N248	N	0.680304	0.962899	0.411889
	N249	N	0.681163	0.037727	0.583244
	N250	N	0.322777	0.963548	0.581885
	N251	N	0.322641	0.037519	0.409691
	N252	N	0.916164	0.462994	0.174934
	N253	N	0.086903	0.537592	0.175202
	N254	N	0.088079	0.463190	0.817773
	N255	N	0.916534	0.537965	0.818768
	N256	N	0.179021	0.915848	0.459246
	N257	N	0.180974	0.086951	0.533685
	N258	N	0.824393	0.085389	0.459886
	N259	N	0.824435	0.915142	0.534686
	N260	N	0.463881	0.178148	0.911960
	N261	N	0.538086	0.179723	0.083828
	N262	N	0.464138	0.823425	0.081247
	N263	N	0.538196	0.821402	0.909879
	N264	N	0.464643	0.915576	0.174606
	N265	N	0.538644	0.086574	0.175555
	N266	N	0.464205	0.085919	0.818298
	N267	N	0.538916	0.914740	0.818247
	N268	N	0.917607	0.177856	0.459253
	N269	N	0.088301	0.180113	0.533936
	N270	N	0.087343	0.822099	0.459976
	N271	N	0.915761	0.821461	0.534142
	N272	N	0.180734	0.462883	0.911385
	N273	N	0.179947	0.537654	0.082532
	N274	N	0.823162	0.462997	0.081751
	N275	N	0.823431	0.537954	0.911336
	O276	O	1.000500	0.998480	0.015688
	H277	H	0.995908	0.993047	0.024350
	H278	H	0.996074	0.989198	0.023291
	O279	O	0.044965	-0.003042	0.009241
	H280	H	0.045613	-0.000944	-0.000891
	H281	H	0.047331	-0.004549	0.017064
	O282	O	-0.007794	-0.000282	0.989769
	H283	H	-0.004859	0.002873	0.990009
	H284	H	-0.004464	-0.001466	0.986614
	O285	O	0.468123	0.455529	0.562217
	H286	H	0.462036	0.461648	0.565554
	H287	H	0.464266	0.452113	0.565073
	O288	O	0.453788	0.435207	0.554360
	H289	H	0.439075	0.438240	0.558436
	H290	H	0.453395	0.435476	0.560393
	O291	O	0.498337	0.472561	0.554079
	H292	H	0.492805	0.469359	0.557390
	H293	H	0.493620	0.472793	0.558564
	O294	O	-0.064856	-0.033040	0.028451
	H295	H	-0.060702	-0.029217	0.035645
	H296	H	-0.072770	-0.043625	0.028172
	O297	O	0.491407	0.445831	0.557839
	H298	H	0.485144	0.444980	0.555774
	H299	H	0.491234	0.442838	0.556813
	O300	O	0.041308	0.991034	1.006544
	H301	H	0.046357	0.984470	1.003925
	H302	H	0.034960	0.990301	1.002934
	O303	O	0.497669	0.489946	0.588795
	H304	H	0.510941	0.488156	0.600323
	H305	H	0.498432	0.488248	0.585513
	O306	O	-0.025013	-0.016040	1.034841
	H307	H	-0.016153	-0.017827	1.042895
	H308	H	-0.011956	-0.011829	1.035317
	O309	O	0.986361	0.951927	0.975539
	H310	H	0.981631	0.950741	0.987184
	H311	H	0.989104	0.958326	0.971464
	O312	O	0.503087	0.463089	0.573845
	H313	H	0.500375	0.461176	0.574272
	H314	H	0.515822	0.460250	0.569639
	O315	O	0.462692	0.495059	0.602588
	H316	H	0.466862	0.496148	0.603709
	H317	H	0.467046	0.485625	0.603651
	O318	O	0.010222	0.953668	-0.049400
	H319	H	0.004656	0.949447	-0.057958
	H320	H	0.006973	0.951281	-0.052354
	O321	O	1.016060	0.964930	-0.082265
	H322	H	1.008720	0.980970	-0.088556
	H323	H	1.007593	0.963465	-0.091824
