data_Molecule from HDF5

_cell_length_a		16.264726
_cell_length_b		16.360144
_cell_length_c		16.296017
_cell_angle_alpha	90.107786
_cell_angle_beta	89.882508
_cell_angle_gamma	89.953665
_symmetry_space_group_name_H-M	'P 1'
_symmetry_Int_Tables_number		1

loop_
	_symmetry_equiv_pos_as_xyz
	x,y,z

loop_
	_atom_site_label
	_atom_site_type_symbol
	_atom_site_fract_x
	_atom_site_fract_y
	_atom_site_fract_z
	H0	H	0.400100	0.846000	0.714839
	H1	H	0.596003	0.172955	0.714915
	H2	H	0.597362	0.846230	0.285889
	H3	H	0.400491	0.172653	0.286362
	H4	H	0.712224	0.410590	0.836450
	H5	H	0.712324	0.606393	0.164174
	H6	H	0.284666	0.608046	0.836589
	H7	H	0.283785	0.411659	0.163642
	H8	H	0.835111	0.724436	0.400756
	H9	H	0.161387	0.724575	0.599536
	H10	H	0.834771	0.294898	0.597927
	H11	H	0.161375	0.292867	0.399541
	H12	H	0.834707	0.411533	0.713456
	H13	H	0.162607	0.607261	0.713181
	H14	H	0.834281	0.606149	0.286880
	H15	H	0.161849	0.410051	0.285176
	H16	H	0.399632	0.723872	0.837104
	H17	H	0.597290	0.724588	0.163738
	H18	H	0.597396	0.293988	0.837877
	H19	H	0.399660	0.294884	0.163476
	H20	H	0.713056	0.846617	0.402631
	H21	H	0.712376	0.172952	0.597993
	H22	H	0.283195	0.846555	0.599482
	H23	H	0.283839	0.172558	0.402663
	H24	H	0.899978	0.345251	0.214054
	H25	H	0.095846	0.671427	0.215003
	H26	H	0.096668	0.346099	0.785271
	H27	H	0.901665	0.672222	0.785895
	H28	H	0.212543	0.911177	0.336451
	H29	H	0.210099	0.105565	0.664767
	H30	H	0.785367	0.105925	0.336943
	H31	H	0.784932	0.912952	0.664709
	H32	H	0.334534	0.222881	0.903544
	H33	H	0.662437	0.223714	0.099143
	H34	H	0.334748	0.795131	0.099694
	H35	H	0.662300	0.795429	0.902501
	H36	H	0.334169	0.913021	0.214320
	H37	H	0.663370	0.105384	0.213113
	H38	H	0.334687	0.106784	0.788048
	H39	H	0.662098	0.912079	0.786231
	H40	H	0.900529	0.221907	0.336687
	H41	H	0.097167	0.224829	0.662745
	H42	H	0.098754	0.792334	0.337668
	H43	H	0.898577	0.793941	0.663074
	H44	H	0.212755	0.346259	0.902410
	H45	H	0.212078	0.672678	0.097917
	H46	H	0.784428	0.345899	0.097176
	H47	H	0.784265	0.671811	0.902779
	H48	H	0.396846	0.128085	0.597305
	H49	H	0.583833	0.897343	0.589792
	H50	H	0.585613	0.124735	0.404149
	H51	H	0.412747	0.896257	0.407553
	H52	H	0.589197	0.408439	0.118646
	H53	H	0.592212	0.604052	0.883595
	H54	H	0.405012	0.595802	0.114129
	H55	H	0.398675	0.404539	0.878489
	H56	H	0.111852	0.593813	0.408003
	H57	H	0.879756	0.606757	0.595991
	H58	H	0.116364	0.415296	0.593738
	H59	H	0.879243	0.415079	0.401582
	H60	H	0.115239	0.414199	0.590555
	H61	H	0.884590	0.603025	0.585819
	H62	H	0.117450	0.603473	0.401020
	H63	H	0.880322	0.410269	0.409356
	H64	H	0.410976	0.606461	0.116141
	H65	H	0.592672	0.600077	0.884413
	H66	H	0.599569	0.417927	0.118735
	H67	H	0.400053	0.428566	0.885898
	H68	H	0.593823	0.123664	0.413684
	H69	H	0.598969	0.893401	0.588577
	H70	H	0.412305	0.124184	0.600450
	H71	H	0.400992	0.894335	0.413710
	H72	H	0.900866	0.625345	0.089333
	H73	H	0.098446	0.393735	0.085613
	H74	H	0.088903	0.623442	0.909016
	H75	H	0.903554	0.392530	0.903754
	H76	H	0.094889	0.915323	0.618210
	H77	H	0.088237	0.096651	0.386261
	H78	H	0.892431	0.104183	0.621541
	H79	H	0.908549	0.921935	0.386286
	H80	H	0.614807	0.106132	0.913493
	H81	H	0.383051	0.102788	0.091059
	H82	H	0.614464	0.910601	0.088359
	H83	H	0.380880	0.913477	0.906245
	H84	H	0.612621	0.922172	0.091932
	H85	H	0.382412	0.100133	0.096614
	H86	H	0.613800	0.096226	0.907044
	H87	H	0.381868	0.915041	0.910817
	H88	H	0.910110	0.092957	0.612218
	H89	H	0.087978	0.107885	0.382810
	H90	H	0.089437	0.919185	0.615397
	H91	H	0.911086	0.909650	0.382850
	H92	H	0.097281	0.626944	0.906335
	H93	H	0.094012	0.389965	0.101742
	H94	H	0.904544	0.626254	0.099874
	H95	H	0.907543	0.392918	0.903779
	H96	H	0.406232	0.122126	0.585480
	H97	H	0.591059	0.891439	0.602625
	H98	H	0.597705	0.128401	0.402614
	H99	H	0.402662	0.890885	0.400454
	H100	H	0.586298	0.421393	0.113945
	H101	H	0.588943	0.602406	0.885112
	H102	H	0.399039	0.606240	0.119160
	H103	H	0.419968	0.413374	0.887884
	H104	H	0.114319	0.605291	0.413951
	H105	H	0.882632	0.595454	0.594851
	H106	H	0.114440	0.416903	0.591379
	H107	H	0.883437	0.419074	0.408715
	H108	H	0.910735	0.622483	0.092218
	H109	H	0.082709	0.395136	0.090564
	H110	H	0.090489	0.625780	0.899843
	H111	H	0.905256	0.392857	0.907817
	H112	H	0.088154	0.911918	0.616287
	H113	H	0.098642	0.101473	0.381726
	H114	H	0.912241	0.114100	0.618528
	H115	H	0.898900	0.914839	0.382410
	H116	H	0.618361	0.106007	0.901493
	H117	H	0.380401	0.106072	0.095750
	H118	H	0.617979	0.913780	0.099916
	H119	H	0.381697	0.918163	0.906918
	C120	C	0.376289	0.017262	0.622788
	C121	C	0.619837	1.001456	0.622232
	C122	C	0.620235	0.017809	0.378844
	C123	C	0.377169	1.001602	0.379284
	C124	C	0.620182	0.387495	0.009130
	C125	C	0.620095	0.630563	0.992211
	C126	C	0.377075	0.630893	0.008369
	C127	C	0.377399	0.387726	0.992161
	C128	C	0.006595	0.629797	0.378817
	C129	C	0.990377	0.630442	0.621096
	C130	C	0.007173	0.387490	0.620880
	C131	C	0.989360	0.386412	0.377775
	C132	C	0.876828	0.516747	0.121732
	C133	C	0.119766	0.500754	0.121399
	C134	C	0.120644	0.517868	0.877272
	C135	C	0.877160	0.500689	0.877753
	C136	C	0.120302	0.886699	0.508722
	C137	C	0.119560	0.130309	0.491589
	C138	C	0.877081	0.130763	0.508876
	C139	C	0.877010	0.887670	0.492163
	C140	C	0.507031	0.130932	0.879671
	C141	C	0.490347	0.130907	0.122249
	C142	C	0.506824	0.887903	0.122079
	C143	C	0.490017	0.887697	0.879166
	C144	C	0.379080	0.894995	0.677539
	C145	C	0.616918	0.124167	0.677202
	C146	C	0.617762	0.895018	0.323724
	C147	C	0.379929	0.123974	0.324387
	C148	C	0.674683	0.390242	0.885519
	C149	C	0.675112	0.627846	0.115104
	C150	C	0.322564	0.628273	0.885342
	C151	C	0.322071	0.391110	0.114997
	C152	C	0.883715	0.685944	0.380837
	C153	C	0.112741	0.686237	0.619460
	C154	C	0.883616	0.332700	0.618401
	C155	C	0.112886	0.331491	0.379908
	C156	C	0.883534	0.390675	0.675602
	C157	C	0.113461	0.627758	0.675633
	C158	C	0.883243	0.627256	0.324017
	C159	C	0.113044	0.389513	0.323002
	C160	C	0.379573	0.686107	0.885817
	C161	C	0.617878	0.686229	0.114976
	C162	C	0.618079	0.331912	0.886244
	C163	C	0.379464	0.332949	0.114869
	C164	C	0.675380	0.895073	0.381508
	C165	C	0.674474	0.124342	0.618989
	C166	C	0.321218	0.895088	0.619948
	C167	C	0.321903	0.124060	0.382031
	C168	C	0.879771	0.394089	0.176065
	C169	C	0.117026	0.623087	0.177063
	C170	C	0.118167	0.394904	0.822773
	C171	C	0.880452	0.623472	0.823467
	C172	C	0.175256	0.889900	0.385401
	C173	C	0.172841	0.126681	0.615704
	C174	C	0.822995	0.126705	0.385554
	C175	C	0.822151	0.891255	0.615381
	C176	C	0.383623	0.185527	0.882848
	C177	C	0.613862	0.185485	0.119513
	C178	C	0.383445	0.833511	0.119762
	C179	C	0.613078	0.832792	0.881570
	C180	C	0.383223	0.891681	0.176823
	C181	C	0.614247	0.126787	0.176023
	C182	C	0.383499	0.127881	0.825365
	C183	C	0.613173	0.890847	0.824054
	C184	C	0.880201	0.184428	0.385548
	C185	C	0.116829	0.185816	0.614688
	C186	C	0.118392	0.831311	0.385969
	C187	C	0.878822	0.832462	0.614653
	C188	C	0.175275	0.394914	0.881192
	C189	C	0.174532	0.623786	0.118714
	C190	C	0.822367	0.394191	0.118217
	C191	C	0.822211	0.623296	0.881427
	C192	C	0.398557	0.102780	0.600869
	C193	C	0.597922	0.916246	0.600102
	C194	C	0.598708	0.103379	0.400398
	C195	C	0.398985	0.915848	0.401082
	C196	C	0.598107	0.409479	0.094937
	C197	C	0.597820	0.608459	0.906538
	C198	C	0.398663	0.608940	0.094429
	C199	C	0.399682	0.409211	0.906121
	C200	C	0.092388	0.607409	0.401127
	C201	C	0.904389	0.608102	0.598819
	C202	C	0.093117	0.409064	0.598418
	C203	C	0.903502	0.408318	0.400026
	C204	C	0.898844	0.602501	0.100132
	C205	C	0.098279	0.415216	0.099222
	C206	C	0.098755	0.603269	0.898643
	C207	C	0.898917	0.414952	0.898984
	C208	C	0.097710	0.908844	0.594498
	C209	C	0.098037	0.108385	0.405883
	C210	C	0.898576	0.109865	0.595197
	C211	C	0.899477	0.909154	0.405801
	C212	C	0.593321	0.109236	0.901072
	C213	C	0.404269	0.109380	0.100607
	C214	C	0.592899	0.909243	0.099797
	C215	C	0.403853	0.909356	0.901288
	Zn216	Zn	0.498148	0.009616	0.751216
	Zn217	Zn	0.498728	0.009554	0.249942
	Zn218	Zn	0.748392	0.508711	0.000274
	Zn219	Zn	0.248892	0.509618	-0.000123
	Zn220	Zn	-0.001636	0.758690	0.500293
	Zn221	Zn	-0.001744	0.258934	0.499701
	Zn222	Zn	-0.001130	0.508738	0.748968
	Zn223	Zn	-0.001913	0.508445	0.250489
	Zn224	Zn	0.497949	0.759209	0.000551
	Zn225	Zn	0.498842	0.259079	0.000770
	Zn226	Zn	0.748956	0.009779	0.500461
	Zn227	Zn	0.247928	0.009564	0.500458
	N228	N	0.412720	0.972097	0.679362
	N229	N	0.583535	0.046984	0.679399
	N230	N	0.584088	0.972251	0.321857
	N231	N	0.413648	0.046829	0.322732
	N232	N	0.675998	0.424090	0.962819
	N233	N	0.676574	0.593982	0.037680
	N234	N	0.320893	0.594600	0.962723
	N235	N	0.320705	0.424579	0.037616
	N236	N	0.961433	0.687572	0.414284
	N237	N	0.035032	0.688132	0.586370
	N238	N	0.961344	0.330701	0.584866
	N239	N	0.035149	0.329321	0.413357
	N240	N	0.961320	0.423706	0.677493
	N241	N	0.036168	0.593547	0.676675
	N242	N	0.960579	0.593058	0.322823
	N243	N	0.035512	0.423131	0.321849
	N244	N	0.413007	0.687351	0.963263
	N245	N	0.584427	0.688187	0.037560
	N246	N	0.584785	0.330038	0.963918
	N247	N	0.413276	0.331033	0.037451
	N248	N	0.676983	0.972081	0.415311
	N249	N	0.676374	0.047119	0.585419
	N250	N	0.319619	0.972107	0.586358
	N251	N	0.320295	0.046947	0.415755
	N252	N	0.913038	0.471392	0.178163
	N253	N	0.083728	0.545890	0.178571
	N254	N	0.085076	0.472166	0.820009
	N255	N	0.913582	0.546024	0.820837
	N256	N	0.176326	0.923956	0.462713
	N257	N	0.174793	0.093029	0.538300
	N258	N	0.820979	0.094122	0.463344
	N259	N	0.821017	0.924903	0.538059
	N260	N	0.461483	0.187440	0.915714
	N261	N	0.535820	0.188133	0.086879
	N262	N	0.461185	0.831018	0.086492
	N263	N	0.535578	0.830946	0.915149
	N264	N	0.460946	0.924821	0.178359
	N265	N	0.536603	0.093582	0.177907
	N266	N	0.461250	0.094698	0.823178
	N267	N	0.535481	0.924122	0.822417
	N268	N	0.912980	0.187115	0.463170
	N269	N	0.084515	0.188271	0.536699
	N270	N	0.085111	0.829200	0.463575
	N271	N	0.911973	0.830146	0.536892
	N272	N	0.177122	0.472238	0.914393
	N273	N	0.176416	0.546675	0.084708
	N274	N	0.820391	0.471495	0.085090
	N275	N	0.820201	0.546006	0.914437
	O276	O	-0.507949	-0.423260	1.565390
	H277	H	-0.501316	-0.418775	1.550949
	H278	H	-0.507936	-0.429419	1.575011
	O279	O	0.500349	0.540647	0.546588
	H280	H	0.501321	0.543875	0.557066
	H281	H	0.487830	0.548989	0.553386
	O282	O	0.493436	0.549659	0.547012
	H283	H	0.510385	0.547694	0.546062
	H284	H	0.494380	0.552559	0.549774
	O285	O	0.462862	0.529680	0.548735
	H286	H	0.468718	0.536671	0.555386
	H287	H	0.447301	0.535977	0.543969
	O288	O	0.526813	0.569133	0.490200
	H289	H	0.527470	0.563301	0.490224
	H290	H	0.527940	0.561445	0.479499
	O291	O	0.452499	0.542361	0.528775
	H292	H	0.452614	0.547846	0.522393
	H293	H	0.448387	0.537740	0.539402
	O294	O	0.495324	0.538937	0.505660
	H295	H	0.490154	0.538341	0.509834
	H296	H	0.496067	0.530504	0.511074
	O297	O	1.469364	-0.417207	-0.474121
	H298	H	1.469169	-0.411310	-0.480988
	H299	H	1.468814	-0.415319	-0.473836
