data_Molecule from HDF5

_cell_length_a		16.439194
_cell_length_b		16.355884
_cell_length_c		16.451761
_cell_angle_alpha	89.891628
_cell_angle_beta	89.994950
_cell_angle_gamma	89.955672
_symmetry_space_group_name_H-M	'P 1'
_symmetry_Int_Tables_number		1

loop_
	_symmetry_equiv_pos_as_xyz
	x,y,z

loop_
	_atom_site_label
	_atom_site_type_symbol
	_atom_site_fract_x
	_atom_site_fract_y
	_atom_site_fract_z
	H0	H	0.396558	0.832289	0.727616
	H1	H	0.605451	0.150392	0.723705
	H2	H	0.609907	0.832142	0.281982
	H3	H	0.396921	0.150395	0.283943
	H4	H	0.722257	0.387551	0.845814
	H5	H	0.726830	0.599265	0.161924
	H6	H	0.278065	0.601097	0.847734
	H7	H	0.280641	0.386005	0.163601
	H8	H	0.842927	0.712134	0.400238
	H9	H	0.161464	0.712599	0.609581
	H10	H	0.843394	0.271213	0.605970
	H11	H	0.161824	0.270782	0.398487
	H12	H	0.844389	0.385655	0.725065
	H13	H	0.160061	0.598308	0.727571
	H14	H	0.841984	0.596527	0.283701
	H15	H	0.160989	0.386250	0.281349
	H16	H	0.398097	0.713094	0.846024
	H17	H	0.608926	0.713851	0.163158
	H18	H	0.604001	0.272657	0.845113
	H19	H	0.397203	0.270161	0.163737
	H20	H	0.723989	0.831037	0.399625
	H21	H	0.723244	0.149538	0.609971
	H22	H	0.280525	0.831811	0.612453
	H23	H	0.282669	0.150462	0.400418
	H24	H	0.896921	0.332165	0.225126
	H25	H	0.105190	0.651368	0.224853
	H26	H	0.109196	0.331706	0.784200
	H27	H	0.897289	0.650127	0.781871
	H28	H	0.223305	0.886061	0.345425
	H29	H	0.222577	0.094337	0.663119
	H30	H	0.778694	0.099525	0.346186
	H31	H	0.781243	0.885155	0.662592
	H32	H	0.343347	0.212267	0.900447
	H33	H	0.661042	0.213530	0.110019
	H34	H	0.344807	0.768849	0.112774
	H35	H	0.660460	0.772247	0.901101
	H36	H	0.344337	0.885686	0.227489
	H37	H	0.660434	0.099401	0.227899
	H38	H	0.345138	0.099435	0.780967
	H39	H	0.660041	0.886185	0.783423
	H40	H	0.899244	0.210501	0.343472
	H41	H	0.106739	0.211133	0.662571
	H42	H	0.104501	0.772473	0.343650
	H43	H	0.897965	0.768913	0.661947
	H44	H	0.224450	0.332553	0.900726
	H45	H	0.223685	0.650849	0.112575
	H46	H	0.783887	0.330418	0.106706
	H47	H	0.780904	0.650498	0.897530
	H48	H	0.418636	0.102535	0.593706
	H49	H	0.588860	0.880842	0.583692
	H50	H	0.590056	0.102278	0.418680
	H51	H	0.414734	0.879985	0.421558
	H52	H	0.594041	0.407601	0.115957
	H53	H	0.601050	0.578226	0.889598
	H54	H	0.413221	0.582040	0.117560
	H55	H	0.416172	0.403749	0.893186
	H56	H	0.117119	0.584575	0.411564
	H57	H	0.885460	0.581779	0.604541
	H58	H	0.117725	0.400318	0.597268
	H59	H	0.888199	0.404506	0.407265
	H60	H	0.115988	0.398625	0.591114
	H61	H	0.890819	0.588168	0.583207
	H62	H	0.112568	0.580190	0.419140
	H63	H	0.886702	0.393212	0.414117
	H64	H	0.411683	0.579774	0.116829
	H65	H	0.584157	0.573473	0.897327
	H66	H	0.587145	0.401810	0.116168
	H67	H	0.411239	0.399473	0.891418
	H68	H	0.592398	0.104417	0.415748
	H69	H	0.601529	0.872908	0.595372
	H70	H	0.409640	0.103465	0.588016
	H71	H	0.409141	0.875012	0.414514
	H72	H	0.914729	0.606002	0.096887
	H73	H	0.090192	0.378021	0.095989
	H74	H	0.093176	0.602711	0.924133
	H75	H	0.910991	0.377365	0.916886
	H76	H	0.086831	0.898356	0.615942
	H77	H	0.097609	0.079264	0.389391
	H78	H	0.916801	0.079733	0.615282
	H79	H	0.910170	0.903304	0.390764
	H80	H	0.616591	0.082135	0.912258
	H81	H	0.390993	0.085583	0.085937
	H82	H	0.614773	0.900553	0.090340
	H83	H	0.390227	0.904047	0.917755
	H84	H	0.613337	0.907938	0.093128
	H85	H	0.392918	0.071681	0.094354
	H86	H	0.615653	0.082352	0.915751
	H87	H	0.388831	0.905122	0.914365
	H88	H	0.911325	0.083146	0.617284
	H89	H	0.090599	0.078316	0.392336
	H90	H	0.095950	0.897646	0.619120
	H91	H	0.915220	0.906702	0.393467
	H92	H	0.093584	0.607524	0.910189
	H93	H	0.089543	0.380700	0.091018
	H94	H	0.915286	0.603102	0.089519
	H95	H	0.911106	0.375959	0.912097
	H96	H	0.410179	0.106964	0.598478
	H97	H	0.584084	0.876520	0.601336
	H98	H	0.588431	0.103481	0.414886
	H99	H	0.419256	0.877507	0.412648
	H100	H	0.594926	0.399635	0.119614
	H101	H	0.586958	0.591038	0.890277
	H102	H	0.414216	0.579677	0.117351
	H103	H	0.409819	0.406325	0.892850
	H104	H	0.113913	0.574809	0.410210
	H105	H	0.895053	0.566715	0.590696
	H106	H	0.114861	0.405124	0.593364
	H107	H	0.892016	0.404454	0.420266
	H108	H	0.908731	0.606029	0.091978
	H109	H	0.093856	0.377410	0.092076
	H110	H	0.081251	0.601081	0.915430
	H111	H	0.915358	0.378308	0.914976
	H112	H	0.093149	0.906325	0.615685
	H113	H	0.092495	0.084659	0.389562
	H114	H	0.911341	0.076764	0.616086
	H115	H	0.916712	0.900339	0.390733
	H116	H	0.615664	0.078854	0.914264
	H117	H	0.385977	0.084741	0.101958
	H118	H	0.616827	0.902796	0.097288
	H119	H	0.387672	0.901682	0.915653
	C120	C	0.380629	-0.000924	0.626190
	C121	C	0.623292	0.982229	0.625319
	C122	C	0.623725	-0.001196	0.383188
	C123	C	0.381787	0.982634	0.383722
	C124	C	0.623455	0.370246	0.012824
	C125	C	0.624382	0.613753	0.996560
	C126	C	0.380552	0.613639	0.013056
	C127	C	0.380084	0.370315	0.996924
	C128	C	0.009711	0.612400	0.382204
	C129	C	0.994597	0.612083	0.625562
	C130	C	0.011355	0.368888	0.625719
	C131	C	0.994116	0.369501	0.381747
	C132	C	0.880585	0.499803	0.124905
	C133	C	0.123332	0.483678	0.126070
	C134	C	0.123173	0.499197	0.883793
	C135	C	0.880910	0.482687	0.882529
	C136	C	0.124027	0.869113	0.512085
	C137	C	0.124526	0.112103	0.495455
	C138	C	0.880713	0.112663	0.511484
	C139	C	0.881692	0.870213	0.495976
	C140	C	0.511152	0.113183	0.882623
	C141	C	0.494292	0.113365	0.126741
	C142	C	0.510971	0.870117	0.126856
	C143	C	0.493282	0.871151	0.883636
	C144	C	0.378172	0.879644	0.687160
	C145	C	0.624501	0.102530	0.684287
	C146	C	0.627461	0.879619	0.322116
	C147	C	0.378929	0.102358	0.323709
	C148	C	0.682401	0.368696	0.893207
	C149	C	0.685728	0.616678	0.114805
	C150	C	0.319255	0.617753	0.894814
	C151	C	0.320365	0.367878	0.116123
	C152	C	0.890104	0.672046	0.381412
	C153	C	0.113593	0.672707	0.627899
	C154	C	0.891456	0.310150	0.625844
	C155	C	0.114006	0.310456	0.380208
	C156	C	0.891857	0.367072	0.685006
	C157	C	0.113124	0.615729	0.686600
	C158	C	0.889846	0.614445	0.323405
	C159	C	0.113393	0.367677	0.321622
	C160	C	0.378782	0.673694	0.893864
	C161	C	0.626809	0.673782	0.115671
	C162	C	0.623912	0.311462	0.893023
	C163	C	0.378362	0.309945	0.115975
	C164	C	0.684302	0.879058	0.380589
	C165	C	0.683159	0.101851	0.627578
	C166	C	0.320485	0.879450	0.629717
	C167	C	0.321919	0.102478	0.381908
	C168	C	0.878769	0.379660	0.184591
	C169	C	0.124574	0.603486	0.185576
	C170	C	0.126708	0.379638	0.823986
	C171	C	0.878901	0.602485	0.822114
	C172	C	0.183621	0.867451	0.392723
	C173	C	0.183120	0.113059	0.615357
	C174	C	0.819589	0.116440	0.393182
	C175	C	0.821409	0.866958	0.614961
	C176	C	0.391391	0.172944	0.881152
	C177	C	0.613356	0.173942	0.128784
	C178	C	0.392151	0.809097	0.130367
	C179	C	0.613034	0.811863	0.882448
	C180	C	0.392122	0.867085	0.187829
	C181	C	0.613135	0.116650	0.187251
	C182	C	0.392223	0.116633	0.821745
	C183	C	0.612391	0.868137	0.823421
	C184	C	0.879399	0.172279	0.392098
	C185	C	0.125395	0.171178	0.615046
	C186	C	0.124255	0.811004	0.391880
	C187	C	0.879386	0.809194	0.614848
	C188	C	0.183963	0.379995	0.882225
	C189	C	0.183689	0.603088	0.129720
	C190	C	0.822317	0.379061	0.125821
	C191	C	0.820834	0.602588	0.879548
	C192	C	0.405715	0.082458	0.600680
	C193	C	0.598447	0.898711	0.600708
	C194	C	0.597670	0.081554	0.409017
	C195	C	0.407225	0.899369	0.409020
	C196	C	0.598930	0.395707	0.095675
	C197	C	0.598179	0.588289	0.914043
	C198	C	0.405864	0.587818	0.095959
	C199	C	0.405072	0.395856	0.914075
	C200	C	0.092906	0.587316	0.406555
	C201	C	0.912040	0.586314	0.600040
	C202	C	0.094449	0.394074	0.601243
	C203	C	0.910740	0.393809	0.406629
	C204	C	0.905523	0.583057	0.099820
	C205	C	0.098263	0.400388	0.100350
	C206	C	0.096941	0.582081	0.909186
	C207	C	0.905462	0.399155	0.907531
	C208	C	0.099279	0.893698	0.595162
	C209	C	0.100566	0.087659	0.412059
	C210	C	0.905833	0.086996	0.594619
	C211	C	0.906756	0.896008	0.413307
	C212	C	0.594258	0.088298	0.907172
	C213	C	0.411575	0.087901	0.101485
	C214	C	0.593462	0.896168	0.100949
	C215	C	0.410359	0.896241	0.908816
	Zn216	Zn	0.502046	-0.009078	0.753792
	Zn217	Zn	0.502927	-0.008824	0.254985
	Zn218	Zn	0.752582	0.491332	0.004024
	Zn219	Zn	0.251658	0.492762	0.005208
	Zn220	Zn	0.002214	0.740427	0.503362
	Zn221	Zn	0.002914	0.240486	0.502991
	Zn222	Zn	0.002880	0.491058	0.754667
	Zn223	Zn	0.001628	0.491596	0.253160
	Zn224	Zn	0.502120	0.742451	0.004945
	Zn225	Zn	0.501916	0.241560	0.004794
	Zn226	Zn	0.751889	-0.009049	0.504236
	Zn227	Zn	0.253222	-0.009703	0.504500
	N228	N	0.415005	0.955034	0.684965
	N229	N	0.587969	0.027104	0.683120
	N230	N	0.590518	0.954990	0.323600
	N231	N	0.415727	0.026916	0.324804
	N232	N	0.682281	0.404600	0.968616
	N233	N	0.684493	0.580264	0.039609
	N234	N	0.320249	0.581229	0.970042
	N235	N	0.321351	0.404870	0.041048
	N236	N	0.965525	0.670781	0.417289
	N237	N	0.038806	0.670540	0.590527
	N238	N	0.966881	0.310860	0.590040
	N239	N	0.038700	0.311371	0.416832
	N240	N	0.967544	0.402859	0.685171
	N241	N	0.038282	0.578572	0.685106
	N242	N	0.965267	0.578081	0.323832
	N243	N	0.037857	0.403607	0.322350
	N244	N	0.416350	0.671289	0.968529
	N245	N	0.589072	0.671946	0.041186
	N246	N	0.588070	0.312268	0.968508
	N247	N	0.414761	0.311344	0.040855
	N248	N	0.682201	0.954302	0.417667
	N249	N	0.682311	0.026139	0.591588
	N250	N	0.321991	0.954696	0.592476
	N251	N	0.323564	0.026930	0.418541
	N252	N	0.914082	0.455773	0.184423
	N253	N	0.087980	0.528033	0.183581
	N254	N	0.089542	0.455038	0.824991
	N255	N	0.915212	0.526795	0.823419
	N256	N	0.183802	0.902582	0.468522
	N257	N	0.182829	0.077218	0.539958
	N258	N	0.820294	0.080080	0.468635
	N259	N	0.822919	0.904401	0.540146
	N260	N	0.466128	0.170908	0.918467
	N261	N	0.538386	0.172160	0.091991
	N262	N	0.467141	0.810624	0.093361
	N263	N	0.538009	0.813425	0.919225
	N264	N	0.467042	0.904017	0.185836
	N265	N	0.538085	0.079833	0.186198
	N266	N	0.467520	0.080129	0.822470
	N267	N	0.536980	0.904253	0.824099
	N268	N	0.916692	0.170136	0.466759
	N269	N	0.089822	0.170824	0.539457
	N270	N	0.088310	0.811526	0.467327
	N271	N	0.916187	0.810976	0.539928
	N272	N	0.182030	0.455424	0.918687
	N273	N	0.183013	0.527532	0.093282
	N274	N	0.823521	0.454680	0.089181
	N275	N	0.821987	0.527060	0.916345
	O276	O	0.579289	0.338909	0.504397
	H277	H	0.581375	0.351337	0.508532
	H278	H	0.578117	0.337538	0.513298
	O279	O	0.277871	0.601295	0.510526
	H280	H	0.251512	0.635931	0.509846
	H281	H	0.287241	0.599595	0.494135
	O282	O	0.584553	0.483705	0.373743
	H283	H	0.561755	0.486042	0.358279
	H284	H	0.587341	0.483338	0.361785
	O285	O	0.876009	0.971684	-0.197764
	H286	H	0.866899	0.972911	-0.190119
	H287	H	0.886788	0.961443	-0.202952
	O288	O	0.626045	0.505231	0.632528
	H289	H	0.622773	0.510555	0.634439
	H290	H	0.621498	0.496347	0.642932
	O291	O	0.357839	0.605321	0.313903
	H292	H	0.357012	0.589406	0.298464
	H293	H	0.365545	0.604148	0.302708
	O294	O	0.986734	1.044563	1.187114
	H295	H	0.985056	1.047563	1.189575
	H296	H	0.977143	1.052974	1.181239
	O297	O	0.508356	0.435777	0.340522
	H298	H	0.517256	0.417968	0.334280
	H299	H	0.512975	0.439853	0.363923
	O300	O	0.704071	0.429273	0.644964
	H301	H	0.700274	0.429519	0.643714
	H302	H	0.707482	0.446214	0.642919
	O303	O	0.351804	0.458368	0.402956
	H304	H	0.362546	0.453717	0.405383
	H305	H	0.341693	0.456553	0.405171
	O306	O	-0.075564	0.193653	1.056411
	H307	H	-0.074587	0.197060	1.045921
	H308	H	-0.059140	0.198042	1.070005
	O309	O	0.841764	-0.003545	0.002940
	H310	H	0.840643	-0.023708	0.009395
	H311	H	0.836584	-0.001671	0.009845
	O312	O	0.508434	0.334337	0.321607
	H313	H	0.505633	0.315551	0.305440
	H314	H	0.494115	0.326705	0.336058
	O315	O	0.495899	0.421338	0.699811
	H316	H	0.519377	0.434127	0.695319
	H317	H	0.472878	0.420335	0.686934
	O318	O	0.154750	0.154735	-0.082876
	H319	H	0.153242	0.170395	-0.085665
	H320	H	0.138384	0.148170	-0.053451
	O321	O	0.549811	0.355794	0.599835
	H322	H	0.561699	0.352141	0.608102
	H323	H	0.547361	0.368655	0.611842
	O324	O	0.519460	0.380542	0.486360
	H325	H	0.507017	0.377299	0.484853
	H326	H	0.521288	0.397055	0.489439
	O327	O	0.336141	0.502393	0.652165
	H328	H	0.330662	0.485635	0.644306
	H329	H	0.325747	0.508020	0.663308
	O330	O	-0.148009	0.963042	1.147311
	H331	H	-0.128366	0.949695	1.150761
	H332	H	-0.140199	0.965737	1.137000
	O333	O	0.195994	1.070074	0.192723
	H334	H	0.189059	1.070206	0.214031
	H335	H	0.185170	1.072781	0.185613
	O336	O	1.091418	1.176871	0.201134
	H337	H	1.083767	1.166165	0.197439
	H338	H	1.086125	1.194121	0.196505
	O339	O	-0.035461	0.814306	0.817454
	H340	H	-0.007580	0.810091	0.811716
	H341	H	-0.040023	0.823629	0.801842
	O342	O	0.203431	0.958687	0.077173
	H343	H	0.193714	0.956752	0.088176
	H344	H	0.192822	0.950745	0.061948
	O345	O	0.187246	-0.211316	0.958027
	H346	H	0.201251	-0.212513	0.972793
	H347	H	0.182108	-0.220843	0.940692
	O348	O	0.344953	0.296584	0.638780
	H349	H	0.339698	0.284548	0.623297
	H350	H	0.365740	0.304116	0.643297
	O351	O	1.042346	1.121428	0.090563
	H352	H	1.043883	1.115623	0.095505
	H353	H	1.038364	1.103959	0.076269
	O354	O	0.810590	1.182285	0.912804
	H355	H	0.799346	1.154730	0.923425
	H356	H	0.809245	1.194166	0.928370
	O357	O	0.019728	-0.175123	0.149315
	H358	H	0.024778	-0.166784	0.135376
	H359	H	0.018905	-0.175376	0.142842
	O360	O	0.461114	0.429295	0.457935
	H361	H	0.464731	0.444048	0.461821
	H362	H	0.438103	0.420894	0.452103
	O363	O	1.080750	0.069747	0.018053
	H364	H	1.083477	0.066888	0.013817
	H365	H	1.089249	0.072280	0.020921
	O366	O	-0.104990	-0.171423	1.192765
	H367	H	-0.104796	-0.176236	1.179462
	H368	H	-0.073657	-0.167043	1.195061
	O369	O	0.879544	0.193010	0.803347
	H370	H	0.864832	0.184993	0.813146
	H371	H	0.852368	0.205844	0.793007
	O372	O	0.639581	0.413163	0.679713
	H373	H	0.636753	0.435828	0.675834
	H374	H	0.655723	0.416750	0.687051
	O375	O	0.196445	-0.091124	0.823247
	H376	H	0.188874	-0.090119	0.806964
	H377	H	0.194249	-0.072213	0.825290
	O378	O	0.682220	0.314301	0.441380
	H379	H	0.656287	0.308067	0.434280
	H380	H	0.691908	0.307160	0.454167
	O381	O	-0.206876	0.972586	0.174531
	H382	H	-0.210680	0.953413	0.184342
	H383	H	-0.214022	0.957898	0.176463
	O384	O	0.442981	0.387914	0.434198
	H385	H	0.422810	0.403200	0.448500
	H386	H	0.456383	0.382295	0.449148
	O387	O	0.451381	0.646423	0.674237
	H388	H	0.454618	0.659576	0.671317
	H389	H	0.434270	0.639839	0.679692
	O390	O	1.092978	0.923045	0.040782
	H391	H	1.092405	0.929737	0.040704
	H392	H	1.097959	0.932046	0.044306
	O393	O	1.100877	-0.129865	0.898879
	H394	H	1.112537	-0.106333	0.907173
	H395	H	1.115011	-0.121659	0.894351
	O396	O	0.715873	0.450129	0.366585
	H397	H	0.726628	0.436237	0.359056
	H398	H	0.727896	0.430367	0.362514
	O399	O	0.308705	0.425951	0.631500
	H400	H	0.321685	0.411621	0.633053
	H401	H	0.295982	0.435162	0.630462
	O402	O	0.922388	1.009031	-0.158155
	H403	H	0.905926	1.017096	-0.170739
	H404	H	0.925874	1.015255	-0.143289
	O405	O	0.638991	0.631030	0.694869
	H406	H	0.625993	0.628767	0.688808
	H407	H	0.631257	0.634645	0.675698
	O408	O	0.580156	0.664967	0.501944
	H409	H	0.570657	0.670278	0.499829
	H410	H	0.571005	0.661949	0.501068
	O411	O	0.837824	0.800813	1.008898
	H412	H	0.856705	0.800382	0.995712
	H413	H	0.826544	0.784228	0.992241
	O414	O	0.306094	0.688041	0.394576
	H415	H	0.331381	0.689984	0.388569
	H416	H	0.286240	0.681040	0.378415
	O417	O	-0.017128	1.202084	0.884161
	H418	H	-0.044501	1.199692	0.873333
	H419	H	-0.021052	1.220631	0.869474
	O420	O	0.103124	1.071150	0.886429
	H421	H	0.081121	1.091844	0.868530
	H422	H	0.109597	1.067454	0.876825
	O423	O	0.061469	0.967225	0.068557
	H424	H	0.047486	0.964082	0.079616
	H425	H	0.062169	0.974124	0.065688
	O426	O	0.600808	0.672747	0.517146
	H427	H	0.598191	0.669212	0.515170
	H428	H	0.595295	0.676900	0.507194
	O429	O	0.463249	0.691353	0.602413
	H430	H	0.448907	0.700326	0.597452
	H431	H	0.463596	0.681006	0.590152
	O432	O	0.524980	0.682289	0.339836
	H433	H	0.530455	0.689055	0.321714
	H434	H	0.529497	0.677969	0.332787
	O435	O	0.053445	-0.084404	-0.011625
	H436	H	0.052629	-0.082442	-0.008313
	H437	H	0.060764	-0.079281	-0.023271
	O438	O	-0.132199	0.852501	0.876101
	H439	H	-0.134660	0.833244	0.866915
	H440	H	-0.125491	0.864482	0.879532
	O441	O	0.456307	0.485361	0.351469
	H442	H	0.467447	0.467318	0.356666
	H443	H	0.458494	0.478174	0.360227
