data_Molecule from HDF5

_cell_length_a		16.591108
_cell_length_b		16.412315
_cell_length_c		16.378563
_cell_angle_alpha	89.997259
_cell_angle_beta	90.072075
_cell_angle_gamma	90.127494
_symmetry_space_group_name_H-M	'P 1'
_symmetry_Int_Tables_number		1

loop_
	_symmetry_equiv_pos_as_xyz
	x,y,z

loop_
	_atom_site_label
	_atom_site_type_symbol
	_atom_site_fract_x
	_atom_site_fract_y
	_atom_site_fract_z
	H0	H	0.387607	0.847861	0.716495
	H1	H	0.601419	0.163215	0.716719
	H2	H	0.600317	0.848063	0.271659
	H3	H	0.390432	0.164611	0.273336
	H4	H	0.720593	0.395929	0.839415
	H5	H	0.721419	0.616514	0.151477
	H6	H	0.272201	0.615358	0.837177
	H7	H	0.270096	0.395421	0.151408
	H8	H	0.837756	0.728979	0.386697
	H9	H	0.151361	0.730399	0.601551
	H10	H	0.840855	0.280255	0.604618
	H11	H	0.149659	0.279575	0.383953
	H12	H	0.840606	0.397230	0.720700
	H13	H	0.151454	0.614521	0.718398
	H14	H	0.838855	0.612742	0.269744
	H15	H	0.150464	0.396239	0.268689
	H16	H	0.388900	0.729367	0.836455
	H17	H	0.604613	0.730954	0.152614
	H18	H	0.602073	0.283391	0.837886
	H19	H	0.388447	0.283111	0.152743
	H20	H	0.719581	0.849939	0.383633
	H21	H	0.718710	0.162495	0.602257
	H22	H	0.268101	0.850780	0.605026
	H23	H	0.270845	0.162881	0.383987
	H24	H	0.890355	0.348141	0.215983
	H25	H	0.102102	0.664412	0.216663
	H26	H	0.102184	0.349376	0.771419
	H27	H	0.888117	0.664671	0.771928
	H28	H	0.220780	0.893168	0.338981
	H29	H	0.220506	0.116259	0.650103
	H30	H	0.768385	0.117319	0.338280
	H31	H	0.769362	0.895663	0.650299
	H32	H	0.339115	0.229674	0.885752
	H33	H	0.649851	0.230958	0.103251
	H34	H	0.340452	0.778605	0.104987
	H35	H	0.653012	0.784463	0.889301
	H36	H	0.338705	0.897024	0.218573
	H37	H	0.649712	0.114785	0.219489
	H38	H	0.338695	0.111703	0.770978
	H39	H	0.651441	0.897454	0.769615
	H40	H	0.887434	0.230308	0.337222
	H41	H	0.102239	0.229036	0.651651
	H42	H	0.100862	0.782842	0.337234
	H43	H	0.887912	0.784788	0.652654
	H44	H	0.219744	0.350508	0.884370
	H45	H	0.219736	0.663691	0.103393
	H46	H	0.769960	0.350739	0.105183
	H47	H	0.768956	0.661937	0.883481
	H48	H	0.405648	0.118823	0.580287
	H49	H	0.585607	0.891971	0.581317
	H50	H	0.590790	0.117556	0.415618
	H51	H	0.399367	0.890135	0.405780
	H52	H	0.581401	0.424499	0.105464
	H53	H	0.585985	0.595397	0.880803
	H54	H	0.408956	0.588600	0.105540
	H55	H	0.406954	0.421938	0.884006
	H56	H	0.105828	0.594543	0.408111
	H57	H	0.882681	0.594074	0.585312
	H58	H	0.106716	0.417413	0.581161
	H59	H	0.884724	0.420039	0.405886
	H60	H	0.105206	0.420145	0.579268
	H61	H	0.882830	0.596752	0.583179
	H62	H	0.105331	0.594154	0.405777
	H63	H	0.884098	0.417910	0.405082
	H64	H	0.410506	0.594374	0.105957
	H65	H	0.583961	0.589149	0.884025
	H66	H	0.578805	0.416302	0.107722
	H67	H	0.409546	0.417486	0.882531
	H68	H	0.584232	0.122171	0.398451
	H69	H	0.578854	0.893676	0.582508
	H70	H	0.407150	0.119272	0.582385
	H71	H	0.411542	0.893791	0.403083
	H72	H	0.908378	0.618516	0.080314
	H73	H	0.083183	0.391885	0.087095
	H74	H	0.080740	0.619240	0.904502
	H75	H	0.909035	0.397627	0.914872
	H76	H	0.080022	0.917530	0.607071
	H77	H	0.080895	0.091412	0.382171
	H78	H	0.900154	0.090704	0.608514
	H79	H	0.907759	0.915442	0.380374
	H80	H	0.606849	0.093488	0.902981
	H81	H	0.383108	0.095319	0.082823
	H82	H	0.605746	0.923323	0.086748
	H83	H	0.383390	0.917200	0.903634
	H84	H	0.608307	0.914160	0.085637
	H85	H	0.383277	0.093302	0.079120
	H86	H	0.607381	0.098470	0.906393
	H87	H	0.384760	0.915430	0.909342
	H88	H	0.910398	0.088518	0.603784
	H89	H	0.081789	0.093876	0.380955
	H90	H	0.085879	0.920564	0.608399
	H91	H	0.902763	0.919969	0.379862
	H92	H	0.083276	0.616761	0.913363
	H93	H	0.079885	0.396708	0.077681
	H94	H	0.906945	0.618832	0.080373
	H95	H	0.901640	0.392399	0.908277
	H96	H	0.408007	0.117370	0.580386
	H97	H	0.581585	0.894777	0.576067
	H98	H	0.572652	0.113806	0.411034
	H99	H	0.406176	0.896966	0.415057
	H100	H	0.586984	0.418746	0.109466
	H101	H	0.579507	0.594566	0.884177
	H102	H	0.405538	0.593127	0.107992
	H103	H	0.404858	0.418315	0.880198
	H104	H	0.106677	0.595783	0.407213
	H105	H	0.884142	0.593706	0.582067
	H106	H	0.105914	0.420714	0.583258
	H107	H	0.884852	0.418436	0.407541
	H108	H	0.907760	0.619064	0.081579
	H109	H	0.089898	0.392467	0.078712
	H110	H	0.089519	0.621128	0.907503
	H111	H	0.912310	0.394475	0.904604
	H112	H	0.081292	0.923979	0.605522
	H113	H	0.083630	0.091419	0.381544
	H114	H	0.908384	0.099111	0.608600
	H115	H	0.908463	0.921379	0.383042
	H116	H	0.605264	0.093516	0.909131
	H117	H	0.384358	0.091453	0.083172
	H118	H	0.604184	0.918727	0.077909
	H119	H	0.386742	0.920961	0.907322
	C120	C	0.373116	0.014760	0.615295
	C121	C	0.615934	0.997135	0.614619
	C122	C	0.616197	0.014286	0.373151
	C123	C	0.372635	0.997482	0.373316
	C124	C	0.616255	0.385224	0.003956
	C125	C	0.617216	0.627561	0.986884
	C126	C	0.374998	0.626668	0.002534
	C127	C	0.373410	0.384766	0.986106
	C128	C	0.002856	0.628029	0.372925
	C129	C	0.986333	0.628600	0.616773
	C130	C	0.003882	0.384993	0.616240
	C131	C	0.986996	0.384207	0.372166
	C132	C	0.874468	0.514959	0.115114
	C133	C	0.117607	0.497643	0.115818
	C134	C	0.117417	0.515582	0.873470
	C135	C	0.873539	0.498263	0.874033
	C136	C	0.116052	0.885437	0.503309
	C137	C	0.116108	0.126907	0.485409
	C138	C	0.872882	0.127513	0.503052
	C139	C	0.872979	0.885152	0.485454
	C140	C	0.503495	0.128232	0.872164
	C141	C	0.486050	0.127449	0.115742
	C142	C	0.503417	0.883964	0.117174
	C143	C	0.488049	0.884040	0.872972
	C144	C	0.369677	0.895932	0.676805
	C145	C	0.619331	0.115764	0.676153
	C146	C	0.618655	0.895728	0.311712
	C147	C	0.371129	0.116597	0.312427
	C148	C	0.678983	0.379740	0.886408
	C149	C	0.679891	0.632949	0.104867
	C150	C	0.312845	0.631810	0.884605
	C151	C	0.311251	0.379061	0.104244
	C152	C	0.885102	0.688679	0.369013
	C153	C	0.104142	0.689957	0.619609
	C154	C	0.887418	0.321587	0.621607
	C155	C	0.103225	0.321032	0.367330
	C156	C	0.887333	0.379873	0.679579
	C157	C	0.104408	0.632103	0.677693
	C158	C	0.885672	0.630921	0.310589
	C159	C	0.103599	0.379393	0.309655
	C160	C	0.371314	0.688724	0.884152
	C161	C	0.621553	0.689878	0.105263
	C162	C	0.619818	0.323504	0.885571
	C163	C	0.370218	0.322986	0.104963
	C164	C	0.678434	0.896706	0.367328
	C165	C	0.677779	0.115376	0.619242
	C166	C	0.309891	0.897196	0.621160
	C167	C	0.311717	0.115814	0.367946
	C168	C	0.871825	0.395996	0.176196
	C169	C	0.120447	0.616713	0.176858
	C170	C	0.120385	0.397114	0.811146
	C171	C	0.870041	0.616529	0.811686
	C172	C	0.179133	0.878094	0.385871
	C173	C	0.178894	0.132539	0.603223
	C174	C	0.810198	0.133270	0.385143
	C175	C	0.810672	0.879405	0.603356
	C176	C	0.386104	0.189416	0.868152
	C177	C	0.603137	0.189795	0.120401
	C178	C	0.387124	0.819958	0.121996
	C179	C	0.605673	0.823873	0.870641
	C180	C	0.386109	0.879172	0.178710
	C181	C	0.603081	0.131806	0.178204
	C182	C	0.385878	0.130583	0.810838
	C183	C	0.604798	0.880479	0.811044
	C184	C	0.869296	0.189827	0.384643
	C185	C	0.119893	0.188744	0.603972
	C186	C	0.119287	0.822692	0.385095
	C187	C	0.869862	0.824058	0.604510
	C188	C	0.178972	0.397520	0.867715
	C189	C	0.179153	0.616247	0.120408
	C190	C	0.811805	0.397302	0.121029
	C191	C	0.810570	0.615235	0.867530
	C192	C	0.399436	0.096968	0.588667
	C193	C	0.589638	0.914977	0.587603
	C194	C	0.590033	0.096354	0.400575
	C195	C	0.398209	0.915326	0.400259
	C196	C	0.589870	0.412124	0.086339
	C197	C	0.590709	0.600582	0.904492
	C198	C	0.400819	0.599727	0.085088
	C199	C	0.399519	0.411544	0.903761
	C200	C	0.084707	0.602181	0.399469
	C201	C	0.904578	0.602497	0.591031
	C202	C	0.084658	0.411823	0.589098
	C203	C	0.905753	0.411066	0.398727
	C204	C	0.900335	0.597365	0.088512
	C205	C	0.091716	0.415309	0.088995
	C206	C	0.091750	0.597497	0.900509
	C207	C	0.900066	0.416204	0.901273
	C208	C	0.090012	0.912926	0.585413
	C209	C	0.089794	0.099874	0.403150
	C210	C	0.898828	0.100510	0.585333
	C211	C	0.898786	0.911363	0.402783
	C212	C	0.585079	0.102557	0.898504
	C213	C	0.404739	0.101011	0.089240
	C214	C	0.584818	0.911005	0.090924
	C215	C	0.406315	0.910208	0.899281
	Zn216	Zn	0.495252	0.005548	0.743431
	Zn217	Zn	0.494316	0.006350	0.245429
	Zn218	Zn	0.745194	0.506513	-0.004620
	Zn219	Zn	0.245650	0.506056	-0.005260
	Zn220	Zn	-0.006064	0.757491	0.494651
	Zn221	Zn	-0.004951	0.255238	0.494320
	Zn222	Zn	-0.004545	0.507005	0.745962
	Zn223	Zn	-0.004520	0.506531	0.243367
	Zn224	Zn	0.496008	0.755077	-0.005148
	Zn225	Zn	0.494531	0.257104	-0.005356
	Zn226	Zn	0.745240	0.005477	0.494204
	Zn227	Zn	0.244506	0.006374	0.493966
	N228	N	0.408267	0.970068	0.673277
	N229	N	0.581631	0.041373	0.673411
	N230	N	0.580703	0.969877	0.315300
	N231	N	0.408173	0.041958	0.315580
	N232	N	0.676674	0.417560	0.961052
	N233	N	0.677347	0.595109	0.030049
	N234	N	0.315027	0.593858	0.959429
	N235	N	0.313181	0.416860	0.029442
	N236	N	0.959168	0.687334	0.406691
	N237	N	0.029559	0.688136	0.582744
	N238	N	0.960821	0.324499	0.582982
	N239	N	0.029651	0.323934	0.405464
	N240	N	0.960697	0.418497	0.676568
	N241	N	0.030287	0.594747	0.676337
	N242	N	0.960084	0.594151	0.312654
	N243	N	0.030283	0.418068	0.312528
	N244	N	0.409141	0.685814	0.958605
	N245	N	0.583244	0.686579	0.030836
	N246	N	0.581615	0.326588	0.959827
	N247	N	0.408157	0.326395	0.030390
	N248	N	0.676998	0.971627	0.404784
	N249	N	0.675836	0.040446	0.581700
	N250	N	0.311775	0.971997	0.583575
	N251	N	0.312417	0.040624	0.405088
	N252	N	0.910322	0.470111	0.172429
	N253	N	0.083053	0.541958	0.174300
	N254	N	0.082774	0.471458	0.814636
	N255	N	0.908572	0.542642	0.815569
	N256	N	0.177387	0.916361	0.460507
	N257	N	0.176670	0.094890	0.528369
	N258	N	0.812569	0.095029	0.459660
	N259	N	0.812535	0.916807	0.528248
	N260	N	0.460298	0.188101	0.905601
	N261	N	0.529504	0.187004	0.082035
	N262	N	0.461173	0.822674	0.084572
	N263	N	0.531840	0.825953	0.908319
	N264	N	0.459519	0.918096	0.176032
	N265	N	0.529305	0.093599	0.175430
	N266	N	0.459906	0.093272	0.813064
	N267	N	0.530470	0.917140	0.812427
	N268	N	0.907435	0.186586	0.459105
	N269	N	0.081756	0.185560	0.529566
	N270	N	0.080636	0.827233	0.459086
	N271	N	0.908104	0.827557	0.530180
	N272	N	0.177509	0.472084	0.905539
	N273	N	0.177642	0.541149	0.083245
	N274	N	0.813300	0.472316	0.083938
	N275	N	0.812662	0.540629	0.905691
	O276	O	0.621596	0.586115	0.442958
	H277	H	0.616447	0.598282	0.440560
	H278	H	0.610349	0.571649	0.416457
	O279	O	1.045563	0.059822	0.823126
	H280	H	1.033402	0.067974	0.827563
	H281	H	1.019574	0.060677	0.816899
	O282	O	0.509684	0.509959	0.707858
	H283	H	0.489523	0.511149	0.707591
	H284	H	0.480721	0.530756	0.706973
	O285	O	0.695563	0.303177	0.568557
	H286	H	0.674287	0.317452	0.560177
	H287	H	0.710169	0.296577	0.545777
	O288	O	1.199924	1.072276	0.199874
	H289	H	1.173629	1.062288	0.205982
	H290	H	1.214453	1.078017	0.216262
	O291	O	1.052318	-0.022698	0.202730
	H292	H	1.042179	-0.005158	0.187978
	H293	H	1.048851	-0.026923	0.199542
	O294	O	-0.209954	0.041028	0.916507
	H295	H	-0.183899	0.030580	0.924760
	H296	H	-0.216830	0.037735	0.935321
	O297	O	0.647278	0.426897	0.622011
	H298	H	0.629484	0.454852	0.643129
	H299	H	0.662780	0.455688	0.610276
	O300	O	0.717833	0.501837	0.482518
	H301	H	0.720384	0.495850	0.472835
	H302	H	0.719072	0.501107	0.452274
	O303	O	0.310076	0.327704	0.676375
	H304	H	0.315113	0.321763	0.646835
	H305	H	0.338518	0.316198	0.664041
	O306	O	0.019382	0.794455	0.775358
	H307	H	0.032503	0.779611	0.765340
	H308	H	0.040355	0.785803	0.767088
	O309	O	0.434792	0.591369	0.291785
	H310	H	0.441210	0.593664	0.317384
	H311	H	0.414487	0.555239	0.288071
	O312	O	-0.218508	1.218367	0.975518
	H313	H	-0.223369	1.198328	0.969743
	H314	H	-0.241514	1.238436	0.976995
	O315	O	0.370617	0.550635	0.602288
	H316	H	0.360273	0.551148	0.626938
	H317	H	0.368296	0.572316	0.590904
	O318	O	1.272572	0.528906	0.275604
	H319	H	1.256042	0.515990	0.275644
	H320	H	1.255323	0.554169	0.263133
	O321	O	0.174712	0.162713	0.103170
	H322	H	0.189994	0.166564	0.070432
	H323	H	0.165930	0.136290	0.103545
	O324	O	0.530339	0.300592	0.538599
	H325	H	0.537978	0.297058	0.550139
	H326	H	0.543046	0.301261	0.528059
	O327	O	0.566012	0.384255	0.439648
	H328	H	0.573170	0.372204	0.445627
	H329	H	0.582462	0.399256	0.465399
	O330	O	-0.065764	0.827418	-0.068482
	H331	H	-0.045773	0.824404	-0.055413
	H332	H	-0.047505	0.826306	-0.083360
	O333	O	0.982390	0.932505	1.002289
	H334	H	0.967470	0.947035	1.011277
	H335	H	0.997703	0.942711	0.976378
	O336	O	0.209351	0.007574	-0.148342
	H337	H	0.206097	0.013833	-0.158949
	H338	H	0.200008	0.018699	-0.158937
	O339	O	0.028715	0.807105	1.012558
	H340	H	0.039643	0.812833	1.013251
	H341	H	0.026714	0.818143	1.002796
	O342	O	0.195721	1.123544	1.021129
	H343	H	0.222231	1.156387	1.017106
	H344	H	0.195173	1.097077	0.994959
	O345	O	0.985798	1.152794	-0.223625
	H346	H	0.959229	1.151352	-0.233949
	H347	H	0.959312	1.168748	-0.228930
	O348	O	1.033928	1.210835	1.175052
	H349	H	1.065767	1.212965	1.173048
	H350	H	1.022482	1.221772	1.184270
	O351	O	0.193188	1.038873	0.902651
	H352	H	0.189811	1.050928	0.897891
	H353	H	0.181020	1.028725	0.887572
	O354	O	-0.312633	0.417925	-0.697740
	H355	H	-0.322860	0.413698	-0.705526
	H356	H	-0.316938	0.424032	-0.708369
	O357	O	-0.114847	-0.051940	0.832015
	H358	H	-0.118513	-0.044789	0.819641
	H359	H	-0.110228	-0.057432	0.842583
	O360	O	0.667674	0.682532	0.669519
	H361	H	0.679658	0.652079	0.657932
	H362	H	0.681490	0.669145	0.642504
	O363	O	-0.207960	-0.175119	1.005564
	H364	H	-0.218522	-0.188358	1.003702
	H365	H	-0.199270	-0.168392	0.992719
	O366	O	0.561071	0.517299	0.410178
	H367	H	0.555498	0.512123	0.405851
	H368	H	0.543031	0.519203	0.408550
	O369	O	0.492461	0.720708	0.485265
	H370	H	0.497480	0.725321	0.451626
	H371	H	0.493213	0.709025	0.505186
	O372	O	1.213835	-0.209930	0.972834
	H373	H	1.233799	-0.219811	0.961113
	H374	H	1.229182	-0.195220	0.987607
	O375	O	0.272556	0.505108	0.489689
	H376	H	0.275990	0.498163	0.503752
	H377	H	0.276695	0.517087	0.503292
	O378	O	0.448452	0.404988	0.361892
	H379	H	0.446272	0.404709	0.379672
	H380	H	0.432005	0.408932	0.364976
	O381	O	0.791175	0.029883	0.796189
	H382	H	0.781019	0.031035	0.811334
	H383	H	0.783836	0.033352	0.783719
	O384	O	0.436814	0.344774	0.371533
	H385	H	0.449802	0.331203	0.394950
	H386	H	0.425758	0.362615	0.356887
	O387	O	-0.054883	0.222172	1.041028
	H388	H	-0.086718	0.220918	1.030168
	H389	H	-0.050395	0.224837	1.064709
	O390	O	-0.160086	-0.176268	0.182395
	H391	H	-0.160314	-0.179690	0.143151
	H392	H	-0.118260	-0.192966	0.195727
	O393	O	0.697345	0.712436	0.507421
	H394	H	0.680411	0.718323	0.497230
	H395	H	0.704996	0.728163	0.494890
	O396	O	1.218715	-0.030264	0.099590
	H397	H	1.218329	-0.019240	0.126235
	H398	H	1.210775	-0.004696	0.100002
	O399	O	0.911964	0.049511	1.210073
	H400	H	0.891872	0.044332	1.216037
	H401	H	0.905113	0.055821	1.214288
	O402	O	1.472928	0.720867	1.279878
	H403	H	1.458724	0.696000	1.276106
	H404	H	1.464605	0.749686	1.244420
	O405	O	0.992667	0.815262	0.203524
	H406	H	1.010859	0.806325	0.195911
	H407	H	0.999913	0.812942	0.201469
	O408	O	0.785756	-0.031352	0.203257
	H409	H	0.794086	-0.070651	0.202976
	H410	H	0.769918	-0.040231	0.221791
	O411	O	0.984421	1.033781	0.010137
	H412	H	0.979993	1.050639	0.012509
	H413	H	0.980250	1.035703	0.016118
	O414	O	0.348416	0.712437	0.516179
	H415	H	0.377465	0.714114	0.528697
	H416	H	0.345547	0.734209	0.528962
	O417	O	0.295337	0.296438	0.514390
	H418	H	0.305808	0.307712	0.487180
	H419	H	0.272887	0.273458	0.510455
	O420	O	-0.209429	0.109782	0.096988
	H421	H	-0.203919	0.088997	0.091866
	H422	H	-0.209526	0.099541	0.115703
	O423	O	0.618251	0.314958	0.295759
	H424	H	0.623758	0.313475	0.298366
	H425	H	0.601550	0.319965	0.296823
	O426	O	0.390885	0.465234	0.363133
	H427	H	0.385267	0.491038	0.377842
	H428	H	0.373510	0.471812	0.341223
	O429	O	0.476036	0.293998	0.706317
	H430	H	0.485228	0.298187	0.703415
	H431	H	0.478820	0.279174	0.722533
	O432	O	0.542356	0.522444	0.513731
	H433	H	0.542729	0.511052	0.525510
	H434	H	0.566184	0.531405	0.514040
	O435	O	0.302207	0.697143	0.371603
	H436	H	0.312864	0.701362	0.375524
	H437	H	0.308516	0.703035	0.407450
	O438	O	0.176169	-0.177560	-0.187569
	H439	H	0.187524	-0.125172	-0.194846
	H440	H	0.171706	-0.185955	-0.150172
	O441	O	0.855600	0.205127	-0.203681
	H442	H	0.844544	0.226830	-0.208131
	H443	H	0.855094	0.184881	-0.192232
	O444	O	0.077150	1.215597	0.909443
	H445	H	0.089065	1.221581	0.894224
	H446	H	0.053889	1.209040	0.933746
	O447	O	0.708463	0.525872	0.705184
	H448	H	0.721724	0.524945	0.733685
	H449	H	0.696936	0.507780	0.696046
	O450	O	0.277397	0.486856	0.708922
	H451	H	0.267427	0.465627	0.711293
	H452	H	0.261259	0.465363	0.724557
	O453	O	0.515239	0.723615	0.711340
	H454	H	0.556740	0.715962	0.705947
	H455	H	0.531599	0.750537	0.738615
