data_Molecule from HDF5

_cell_length_a		16.410226
_cell_length_b		16.504799
_cell_length_c		16.449089
_cell_angle_alpha	89.891241
_cell_angle_beta	89.988912
_cell_angle_gamma	89.923514
_symmetry_space_group_name_H-M	'P 1'
_symmetry_Int_Tables_number		1

loop_
	_symmetry_equiv_pos_as_xyz
	x,y,z

loop_
	_atom_site_label
	_atom_site_type_symbol
	_atom_site_fract_x
	_atom_site_fract_y
	_atom_site_fract_z
	H0	H	0.383553	0.850737	0.722397
	H1	H	0.601274	0.161850	0.718508
	H2	H	0.604069	0.848877	0.272884
	H3	H	0.387297	0.160920	0.269290
	H4	H	0.716988	0.397804	0.837318
	H5	H	0.716578	0.610761	0.152033
	H6	H	0.272550	0.612055	0.836683
	H7	H	0.270442	0.399009	0.152491
	H8	H	0.839278	0.733178	0.384048
	H9	H	0.152706	0.732870	0.603986
	H10	H	0.836782	0.288277	0.595894
	H11	H	0.152248	0.281582	0.382440
	H12	H	0.836977	0.403424	0.712960
	H13	H	0.151864	0.617744	0.720666
	H14	H	0.836976	0.613174	0.272191
	H15	H	0.153139	0.400458	0.270206
	H16	H	0.384411	0.730824	0.839093
	H17	H	0.600444	0.727114	0.153041
	H18	H	0.602194	0.281009	0.839233
	H19	H	0.385002	0.281365	0.152973
	H20	H	0.719073	0.848890	0.390997
	H21	H	0.715686	0.163957	0.600225
	H22	H	0.264107	0.853697	0.610380
	H23	H	0.271091	0.162363	0.385332
	H24	H	0.888166	0.349787	0.215904
	H25	H	0.103186	0.662654	0.218323
	H26	H	0.101789	0.349937	0.771449
	H27	H	0.886414	0.663646	0.768980
	H28	H	0.222904	0.896555	0.340126
	H29	H	0.220892	0.117067	0.650633
	H30	H	0.775005	0.110331	0.337214
	H31	H	0.776178	0.900714	0.654895
	H32	H	0.336935	0.229313	0.886050
	H33	H	0.652089	0.227919	0.100833
	H34	H	0.336702	0.781715	0.105963
	H35	H	0.649802	0.779585	0.886642
	H36	H	0.338942	0.896531	0.222057
	H37	H	0.654474	0.109343	0.214729
	H38	H	0.338912	0.114901	0.769088
	H39	H	0.652575	0.897577	0.774018
	H40	H	0.891185	0.226163	0.336180
	H41	H	0.104533	0.232207	0.649583
	H42	H	0.106518	0.781146	0.339763
	H43	H	0.887063	0.781028	0.651304
	H44	H	0.215632	0.348463	0.889328
	H45	H	0.219035	0.662653	0.103216
	H46	H	0.774227	0.348468	0.096768
	H47	H	0.768410	0.662955	0.883646
	H48	H	0.412354	0.115897	0.583984
	H49	H	0.589457	0.888858	0.591032
	H50	H	0.580641	0.118487	0.401547
	H51	H	0.409130	0.894824	0.410038
	H52	H	0.580502	0.419585	0.106169
	H53	H	0.580832	0.591688	0.883258
	H54	H	0.407328	0.592206	0.106284
	H55	H	0.406100	0.414103	0.882454
	H56	H	0.104931	0.589603	0.406741
	H57	H	0.885829	0.591843	0.579546
	H58	H	0.111701	0.417453	0.587632
	H59	H	0.883076	0.416274	0.408797
	H60	H	0.109337	0.414300	0.576900
	H61	H	0.884989	0.594463	0.579130
	H62	H	0.109369	0.595359	0.403002
	H63	H	0.883217	0.420274	0.401696
	H64	H	0.406874	0.595430	0.108233
	H65	H	0.577678	0.594343	0.883481
	H66	H	0.580674	0.414618	0.108098
	H67	H	0.404848	0.419793	0.883273
	H68	H	0.585164	0.117028	0.410492
	H69	H	0.579210	0.894141	0.586002
	H70	H	0.410883	0.114984	0.578538
	H71	H	0.412163	0.895411	0.410025
	H72	H	0.904748	0.620331	0.083313
	H73	H	0.078588	0.395910	0.081788
	H74	H	0.079848	0.617316	0.908039
	H75	H	0.901887	0.392368	0.901237
	H76	H	0.075629	0.914285	0.606689
	H77	H	0.085427	0.095626	0.380190
	H78	H	0.907795	0.096883	0.608519
	H79	H	0.906972	0.918438	0.382758
	H80	H	0.608151	0.098465	0.909314
	H81	H	0.381169	0.095909	0.082109
	H82	H	0.606584	0.918525	0.083619
	H83	H	0.382066	0.917168	0.910389
	H84	H	0.608073	0.914669	0.083191
	H85	H	0.383201	0.090785	0.082525
	H86	H	0.605459	0.091358	0.910764
	H87	H	0.383587	0.922273	0.911402
	H88	H	0.906604	0.101151	0.610195
	H89	H	0.083133	0.090748	0.383644
	H90	H	0.086973	0.922790	0.608235
	H91	H	0.906000	0.919773	0.383058
	H92	H	0.083901	0.618537	0.908056
	H93	H	0.084295	0.395399	0.079555
	H94	H	0.908356	0.617682	0.081071
	H95	H	0.909349	0.395022	0.901401
	H96	H	0.407300	0.117757	0.581980
	H97	H	0.589904	0.893078	0.579259
	H98	H	0.590173	0.121171	0.403172
	H99	H	0.410281	0.896147	0.412441
	H100	H	0.585538	0.417140	0.107793
	H101	H	0.581148	0.595226	0.881862
	H102	H	0.403467	0.592979	0.107858
	H103	H	0.410115	0.417541	0.884603
	H104	H	0.106887	0.596444	0.410985
	H105	H	0.886303	0.592847	0.577053
	H106	H	0.106909	0.424923	0.579937
	H107	H	0.880395	0.412879	0.401930
	H108	H	0.903860	0.618918	0.079017
	H109	H	0.083290	0.393141	0.085473
	H110	H	0.081713	0.619057	0.904391
	H111	H	0.904806	0.395872	0.907913
	H112	H	0.075111	0.927277	0.601262
	H113	H	0.080400	0.095297	0.382428
	H114	H	0.903100	0.097612	0.609996
	H115	H	0.907638	0.920012	0.383274
	H116	H	0.607595	0.092822	0.903731
	H117	H	0.380990	0.092921	0.086978
	H118	H	0.606011	0.916378	0.079674
	H119	H	0.381665	0.921163	0.906395
	C120	C	0.373872	0.014237	0.617095
	C121	C	0.617345	0.996614	0.617596
	C122	C	0.618744	0.014888	0.372969
	C123	C	0.375354	0.997942	0.374971
	C124	C	0.615139	0.384260	0.003416
	C125	C	0.614370	0.626776	0.986479
	C126	C	0.372170	0.627372	0.003675
	C127	C	0.372666	0.383584	0.987081
	C128	C	0.003666	0.628222	0.372617
	C129	C	0.988467	0.627908	0.614153
	C130	C	0.004470	0.386694	0.613584
	C131	C	0.986521	0.384123	0.371171
	C132	C	0.873104	0.514910	0.114151
	C133	C	0.115786	0.498272	0.115418
	C134	C	0.115779	0.514839	0.873057
	C135	C	0.871276	0.497878	0.869970
	C136	C	0.116088	0.886368	0.503198
	C137	C	0.117612	0.128715	0.485249
	C138	C	0.873692	0.129080	0.504304
	C139	C	0.873756	0.884906	0.486960
	C140	C	0.503521	0.127699	0.873534
	C141	C	0.486460	0.125740	0.116221
	C142	C	0.503447	0.883159	0.117399
	C143	C	0.485788	0.884928	0.875166
	C144	C	0.366824	0.897904	0.681426
	C145	C	0.619448	0.115003	0.677972
	C146	C	0.621958	0.896060	0.313181
	C147	C	0.370243	0.114454	0.310761
	C148	C	0.676416	0.380517	0.884950
	C149	C	0.676215	0.629309	0.104870
	C150	C	0.312154	0.629934	0.884433
	C151	C	0.310834	0.380490	0.105261
	C152	C	0.886149	0.691314	0.367548
	C153	C	0.105786	0.691265	0.620450
	C154	C	0.884542	0.327749	0.614955
	C155	C	0.104960	0.322476	0.366154
	C156	C	0.884858	0.385032	0.673288
	C157	C	0.105389	0.634020	0.678794
	C158	C	0.884914	0.631679	0.311562
	C159	C	0.105410	0.381958	0.310140
	C160	C	0.367611	0.689505	0.885884
	C161	C	0.618182	0.686985	0.105241
	C162	C	0.619178	0.322293	0.885751
	C163	C	0.368138	0.321981	0.105440
	C164	C	0.679413	0.896286	0.371627
	C165	C	0.676368	0.115899	0.619094
	C166	C	0.307322	0.899323	0.625038
	C167	C	0.312457	0.115170	0.368983
	C168	C	0.870073	0.396887	0.175436
	C169	C	0.120503	0.615781	0.177600
	C170	C	0.119346	0.396898	0.811718
	C171	C	0.867850	0.616115	0.808712
	C172	C	0.181108	0.879904	0.386710
	C173	C	0.179622	0.133620	0.603395
	C174	C	0.814332	0.129442	0.384773
	C175	C	0.814621	0.882087	0.606282
	C176	C	0.384786	0.189006	0.868844
	C177	C	0.605183	0.187045	0.118878
	C178	C	0.384571	0.821967	0.122905
	C179	C	0.603187	0.821315	0.870178
	C180	C	0.385670	0.879125	0.181014
	C181	C	0.606306	0.128218	0.175603
	C182	C	0.385730	0.132122	0.810213
	C183	C	0.604667	0.880290	0.813869
	C184	C	0.872092	0.187181	0.384267
	C185	C	0.121812	0.191214	0.602908
	C186	C	0.123055	0.822612	0.386293
	C187	C	0.870039	0.822334	0.604499
	C188	C	0.176237	0.396365	0.870416
	C189	C	0.178614	0.615299	0.120219
	C190	C	0.813551	0.396088	0.115910
	C191	C	0.808733	0.615517	0.865691
	C192	C	0.402033	0.095215	0.589214
	C193	C	0.592969	0.913648	0.592761
	C194	C	0.592611	0.097160	0.397750
	C195	C	0.402733	0.916664	0.402978
	C196	C	0.589561	0.409972	0.085739
	C197	C	0.587636	0.601130	0.904391
	C198	C	0.398402	0.601172	0.086041
	C199	C	0.399237	0.409686	0.904918
	C200	C	0.085751	0.601471	0.399161
	C201	C	0.907024	0.600722	0.586305
	C202	C	0.087589	0.411532	0.588567
	C203	C	0.903837	0.409293	0.396914
	C204	C	0.898423	0.597518	0.088618
	C205	C	0.089435	0.416234	0.089702
	C206	C	0.089458	0.596805	0.899266
	C207	C	0.897603	0.415822	0.895943
	C208	C	0.087482	0.913785	0.584341
	C209	C	0.090713	0.101603	0.403428
	C210	C	0.898618	0.105418	0.587716
	C211	C	0.899574	0.911543	0.404489
	C212	C	0.585680	0.101626	0.900042
	C213	C	0.403624	0.100417	0.091127
	C214	C	0.585221	0.909020	0.089990
	C215	C	0.403971	0.912391	0.901916
	Zn216	Zn	0.495176	0.004935	0.745891
	Zn217	Zn	0.496426	0.004712	0.244868
	Zn218	Zn	0.743766	0.506488	-0.006645
	Zn219	Zn	0.244574	0.506012	-0.005891
	Zn220	Zn	-0.004224	0.757033	0.494493
	Zn221	Zn	-0.003818	0.256571	0.493483
	Zn222	Zn	-0.004019	0.507735	0.743558
	Zn223	Zn	-0.005345	0.506872	0.244014
	Zn224	Zn	0.492932	0.755774	-0.004446
	Zn225	Zn	0.494009	0.255119	-0.004241
	Zn226	Zn	0.746023	0.006112	0.496129
	Zn227	Zn	0.244923	0.006791	0.495075
	N228	N	0.407556	0.970309	0.676417
	N229	N	0.583659	0.039747	0.677325
	N230	N	0.584999	0.970838	0.313844
	N231	N	0.408634	0.040484	0.314406
	N232	N	0.674048	0.418678	0.958993
	N233	N	0.674101	0.592823	0.029794
	N234	N	0.314546	0.592355	0.958995
	N235	N	0.313507	0.418088	0.030731
	N236	N	0.961146	0.689559	0.404516
	N237	N	0.032291	0.687268	0.580626
	N238	N	0.960068	0.328419	0.578642
	N239	N	0.030092	0.323819	0.403655
	N240	N	0.960444	0.420852	0.672773
	N241	N	0.031469	0.595023	0.674694
	N242	N	0.959136	0.592987	0.314700
	N243	N	0.030778	0.419616	0.313057
	N244	N	0.404018	0.688065	0.961046
	N245	N	0.580622	0.685688	0.030569
	N246	N	0.581851	0.324297	0.960439
	N247	N	0.405654	0.323555	0.030760
	N248	N	0.677480	0.971061	0.408096
	N249	N	0.675323	0.041149	0.582524
	N250	N	0.311583	0.972833	0.585735
	N251	N	0.315382	0.041547	0.408123
	N252	N	0.906340	0.471974	0.174531
	N253	N	0.082386	0.541847	0.175016
	N254	N	0.082329	0.471704	0.813341
	N255	N	0.905940	0.541942	0.811063
	N256	N	0.176826	0.918787	0.460363
	N257	N	0.176998	0.095533	0.529286
	N258	N	0.814926	0.094247	0.460568
	N259	N	0.816783	0.920291	0.531916
	N260	N	0.458998	0.186601	0.907321
	N261	N	0.529524	0.185780	0.082958
	N262	N	0.458760	0.824140	0.084153
	N263	N	0.528300	0.824101	0.907476
	N264	N	0.460406	0.916545	0.177682
	N265	N	0.531481	0.090986	0.174300
	N266	N	0.460628	0.094763	0.812727
	N267	N	0.530404	0.919018	0.816582
	N268	N	0.908161	0.187268	0.459561
	N269	N	0.084268	0.188529	0.528340
	N270	N	0.083132	0.826704	0.459668
	N271	N	0.905856	0.823885	0.528988
	N272	N	0.173977	0.470685	0.907932
	N273	N	0.175801	0.541193	0.082378
	N274	N	0.815409	0.470561	0.078579
	N275	N	0.810491	0.540876	0.902769
	O276	O	0.510239	0.289279	0.302395
	H277	H	0.507775	0.276404	0.288705
	H278	H	0.524329	0.284614	0.295513
	O279	O	1.054089	0.206067	0.939575
	H280	H	1.046345	0.209023	0.951697
	H281	H	1.056369	0.216841	0.917638
	O282	O	0.550706	0.472255	0.716144
	H283	H	0.527045	0.471294	0.715375
	H284	H	0.518329	0.471410	0.717024
	O285	O	0.693211	0.403726	0.692734
	H286	H	0.677354	0.404019	0.689229
	H287	H	0.684107	0.408647	0.691087
	O288	O	1.170805	1.184825	0.177761
	H289	H	1.171241	1.193192	0.141772
	H290	H	1.172471	1.143673	0.184685
	O291	O	1.057685	-0.003687	0.213663
	H292	H	1.070709	0.021615	0.215094
	H293	H	1.082422	0.001866	0.205362
	O294	O	-0.209370	0.154489	0.993691
	H295	H	-0.219503	0.162523	0.977745
	H296	H	-0.195616	0.157830	0.998767
	O297	O	0.696973	0.491644	0.528592
	H298	H	0.686406	0.499756	0.530073
	H299	H	0.689614	0.499236	0.546868
	O300	O	0.697535	0.543323	0.323352
	H301	H	0.700838	0.536176	0.311714
	H302	H	0.687796	0.512318	0.319116
	O303	O	0.314395	0.331633	0.673207
	H304	H	0.345945	0.322511	0.659662
	H305	H	0.305834	0.357734	0.660914
	O306	O	0.012047	0.807922	0.786198
	H307	H	-0.010617	0.812599	0.803047
	H308	H	-0.004905	0.790071	0.789406
	O309	O	0.585358	0.545327	0.334822
	H310	H	0.594809	0.537648	0.331640
	H311	H	0.592443	0.538190	0.331654
	O312	O	-0.121563	1.218230	1.029005
	H313	H	-0.117882	1.229449	1.029289
	H314	H	-0.121494	1.208113	1.024056
	O315	O	0.282307	0.443262	0.434583
	H316	H	0.297478	0.440438	0.415403
	H317	H	0.275321	0.448408	0.453487
	O318	O	1.315778	0.680002	0.316079
	H319	H	1.303351	0.642539	0.301227
	H320	H	1.302625	0.691945	0.366176
	O321	O	0.202834	-0.006655	-0.209938
	H322	H	0.205563	0.004474	-0.229293
	H323	H	0.187121	0.014535	-0.229951
	O324	O	0.495768	0.387294	0.402926
	H325	H	0.491291	0.395225	0.406140
	H326	H	0.490021	0.389687	0.411862
	O327	O	0.530419	0.427217	0.501459
	H328	H	0.533899	0.446543	0.510692
	H329	H	0.518974	0.434181	0.502333
	O330	O	0.040639	0.788344	0.049338
	H331	H	0.051463	0.786021	0.077411
	H332	H	0.073125	0.784211	0.053325
	O333	O	0.797292	0.812568	1.054525
	H334	H	0.803940	0.827805	1.095694
	H335	H	0.772826	0.788984	1.059785
	O336	O	0.045176	-0.014389	-0.024606
	H337	H	0.038493	-0.026837	-0.040824
	H338	H	0.039078	-0.010335	-0.015448
	O339	O	-0.075728	0.790608	0.923787
	H340	H	-0.048628	0.786329	0.962541
	H341	H	-0.114173	0.787826	0.945035
	O342	O	0.202351	0.933135	1.059218
	H343	H	0.196006	0.947217	1.037978
	H344	H	0.209395	0.900282	1.034664
	O345	O	0.968835	1.224966	-0.226656
	H346	H	0.944468	1.232507	-0.235080
	H347	H	0.938126	1.239773	-0.239380
	O348	O	1.216075	1.111005	0.967583
	H349	H	1.217146	1.110253	0.954667
	H350	H	1.210581	1.103534	0.969158
	O351	O	0.148809	1.154792	1.027887
	H352	H	0.152204	1.151314	1.012463
	H353	H	0.171716	1.165596	1.023351
	O354	O	-0.314073	0.340461	-0.695777
	H355	H	-0.316929	0.345245	-0.685485
	H356	H	-0.307578	0.320772	-0.687781
	O357	O	0.058289	0.069421	0.788949
	H358	H	0.037312	0.048843	0.803529
	H359	H	0.041338	0.108477	0.782164
	O360	O	0.615115	0.690751	0.587673
	H361	H	0.631284	0.663824	0.587890
	H362	H	0.627658	0.693804	0.546978
	O363	O	-0.073166	-0.029855	0.845129
	H364	H	-0.064524	-0.019341	0.867160
	H365	H	-0.084835	-0.030477	0.843224
	O366	O	0.455838	0.630325	0.564187
	H367	H	0.467463	0.645578	0.585821
	H368	H	0.453009	0.626634	0.562427
	O369	O	0.490523	0.497330	0.355034
	H370	H	0.486989	0.489718	0.359029
	H371	H	0.499610	0.521657	0.368229
	O372	O	1.211728	-0.214186	0.975126
	H373	H	1.197867	-0.198763	0.922149
	H374	H	1.251015	-0.251171	0.969189
	O375	O	0.284474	0.641596	0.519039
	H376	H	0.270402	0.661566	0.507806
	H377	H	0.305549	0.651896	0.520313
	O378	O	0.493313	0.323752	0.433507
	H379	H	0.493745	0.337450	0.417461
	H380	H	0.485872	0.314852	0.412816
	O381	O	0.781271	0.040585	0.780795
	H382	H	0.748546	0.033158	0.752375
	H383	H	0.786099	0.007606	0.807316
	O384	O	0.297144	0.526728	0.285186
	H385	H	0.289146	0.514656	0.274532
	H386	H	0.296627	0.516398	0.280025
	O387	O	-0.149956	0.048068	1.183095
	H388	H	-0.167065	0.063270	1.215342
	H389	H	-0.128080	0.064400	1.180402
	O390	O	-0.143964	-0.189741	0.182634
	H391	H	-0.122193	-0.197070	0.202924
	H392	H	-0.147968	-0.150275	0.191445
	O393	O	0.701636	0.708022	0.509924
	H394	H	0.698598	0.685263	0.486075
	H395	H	0.734842	0.719917	0.500907
	O396	O	1.176861	0.008152	0.203979
	H397	H	1.185588	-0.005820	0.187758
	H398	H	1.205111	-0.004386	0.203321
	O399	O	0.950225	0.036540	1.094726
	H400	H	0.942624	0.041705	1.077331
	H401	H	0.938494	0.017532	1.085032
	O402	O	1.477283	0.717409	1.288574
	H403	H	1.463955	0.722156	1.277025
	H404	H	1.446273	0.726291	1.280661
	O405	O	1.003990	0.822235	0.200883
	H406	H	0.999976	0.803968	0.216751
	H407	H	1.016097	0.855744	0.204038
	O408	O	0.783390	-0.025721	0.033442
	H409	H	0.783433	-0.040597	0.052667
	H410	H	0.785980	-0.014977	0.044913
	O411	O	0.987963	1.193869	0.138937
	H412	H	1.001862	1.189824	0.128523
	H413	H	1.003188	1.213725	0.147184
	O414	O	0.464329	0.725320	0.637282
	H415	H	0.504281	0.713423	0.616757
	H416	H	0.479969	0.750967	0.672339
	O417	O	0.544864	0.358797	0.532997
	H418	H	0.529077	0.361489	0.516653
	H419	H	0.549228	0.375078	0.536527
	O420	O	-0.110280	0.109279	0.173164
	H421	H	-0.076882	0.112713	0.166607
	H422	H	-0.105780	0.111572	0.152902
	O423	O	0.696900	0.300136	0.449527
	H424	H	0.695181	0.297359	0.466646
	H425	H	0.703255	0.298788	0.452567
	O426	O	0.281403	0.293349	0.513679
	H427	H	0.252248	0.270662	0.512311
	H428	H	0.287257	0.301913	0.513857
	O429	O	0.473683	0.293158	0.710836
	H430	H	0.481473	0.279174	0.695217
	H431	H	0.459772	0.268694	0.723290
	O432	O	0.593779	0.660023	0.406123
	H433	H	0.598929	0.648374	0.400903
	H434	H	0.588435	0.659709	0.392924
	O435	O	0.355695	0.654937	0.574685
	H436	H	0.352930	0.691581	0.579915
	H437	H	0.362878	0.651172	0.591672
	O438	O	0.172815	-0.168367	-0.178871
	H439	H	0.119000	-0.178062	-0.193693
	H440	H	0.183579	-0.114784	-0.190303
	O441	O	0.803441	0.204616	-0.197173
	H442	H	0.789708	0.163163	-0.209928
	H443	H	0.782738	0.210110	-0.190993
	O444	O	-0.138718	0.969138	0.868987
	H445	H	-0.132581	0.942982	0.876668
	H446	H	-0.138217	0.972466	0.900758
	O447	O	0.688575	0.595914	0.694052
	H448	H	0.679760	0.567760	0.711771
	H449	H	0.701149	0.595908	0.692274
	O450	O	0.296561	0.525962	0.618484
	H451	H	0.287624	0.542099	0.610855
	H452	H	0.278596	0.551179	0.632009
	O453	O	0.399708	0.598903	0.695780
	H454	H	0.418677	0.583970	0.686587
	H455	H	0.399453	0.607921	0.707188
