data_Molecule from HDF5

_cell_length_a		16.264670
_cell_length_b		16.282946
_cell_length_c		16.279791
_cell_angle_alpha	89.824631
_cell_angle_beta	89.407521
_cell_angle_gamma	90.052123
_symmetry_space_group_name_H-M	'P 1'
_symmetry_Int_Tables_number		1

loop_
	_symmetry_equiv_pos_as_xyz
	x,y,z

loop_
	_atom_site_label
	_atom_site_type_symbol
	_atom_site_fract_x
	_atom_site_fract_y
	_atom_site_fract_z
	H0	H	0.407167	0.854011	0.711441
	H1	H	0.609277	0.179464	0.707441
	H2	H	0.612598	0.852144	0.276729
	H3	H	0.413866	0.180200	0.278480
	H4	H	0.729504	0.414364	0.833036
	H5	H	0.722725	0.613538	0.159392
	H6	H	0.295343	0.615001	0.831621
	H7	H	0.293596	0.414475	0.158378
	H8	H	0.847047	0.730998	0.397523
	H9	H	0.173086	0.730502	0.593790
	H10	H	0.847794	0.297123	0.598162
	H11	H	0.173253	0.300864	0.394408
	H12	H	0.848611	0.410750	0.714522
	H13	H	0.173936	0.612552	0.707042
	H14	H	0.845337	0.614175	0.283234
	H15	H	0.172824	0.417007	0.279384
	H16	H	0.410780	0.730668	0.831376
	H17	H	0.607234	0.731082	0.157614
	H18	H	0.610944	0.301816	0.831195
	H19	H	0.408590	0.298238	0.157389
	H20	H	0.727043	0.852715	0.393125
	H21	H	0.724053	0.179751	0.590243
	H22	H	0.293707	0.852773	0.594103
	H23	H	0.295595	0.179169	0.394073
	H24	H	0.908582	0.351149	0.213096
	H25	H	0.108943	0.677867	0.209454
	H26	H	0.112900	0.351631	0.777825
	H27	H	0.908447	0.676195	0.777164
	H28	H	0.227367	0.915568	0.331921
	H29	H	0.224219	0.114914	0.656594
	H30	H	0.798512	0.114958	0.329679
	H31	H	0.790091	0.914854	0.656948
	H32	H	0.347310	0.233108	0.894586
	H33	H	0.673215	0.232045	0.092357
	H34	H	0.346505	0.799661	0.096364
	H35	H	0.672712	0.799625	0.891260
	H36	H	0.348376	0.914657	0.212236
	H37	H	0.674980	0.114306	0.205518
	H38	H	0.346454	0.118493	0.778641
	H39	H	0.672840	0.917429	0.775860
	H40	H	0.910569	0.233256	0.332022
	H41	H	0.110548	0.230728	0.656759
	H42	H	0.111982	0.799751	0.332113
	H43	H	0.907217	0.799747	0.658338
	H44	H	0.228118	0.352201	0.894113
	H45	H	0.225214	0.677771	0.094598
	H46	H	0.793218	0.351889	0.097425
	H47	H	0.795829	0.677554	0.896413
	H48	H	0.410593	0.137648	0.599547
	H49	H	0.598190	0.902295	0.581669
	H50	H	0.608152	0.134489	0.393295
	H51	H	0.423684	0.900845	0.397875
	H52	H	0.611182	0.422563	0.114751
	H53	H	0.604065	0.618513	0.875563
	H54	H	0.419333	0.608843	0.110761
	H55	H	0.411960	0.427055	0.877657
	H56	H	0.127187	0.612778	0.403488
	H57	H	0.891887	0.613791	0.586181
	H58	H	0.129429	0.410813	0.584295
	H59	H	0.893325	0.428579	0.402480
	H60	H	0.122389	0.428154	0.576637
	H61	H	0.897151	0.601267	0.580711
	H62	H	0.123800	0.604000	0.404908
	H63	H	0.891400	0.417078	0.401828
	H64	H	0.414608	0.608637	0.111511
	H65	H	0.614486	0.602042	0.877791
	H66	H	0.595352	0.430411	0.107021
	H67	H	0.423826	0.428738	0.882086
	H68	H	0.599671	0.130876	0.396827
	H69	H	0.602628	0.899543	0.583847
	H70	H	0.432218	0.126531	0.585171
	H71	H	0.419689	0.902117	0.407396
	H72	H	0.915906	0.630865	0.089560
	H73	H	0.102120	0.400393	0.079324
	H74	H	0.095514	0.629225	0.899183
	H75	H	0.923207	0.400828	0.908184
	H76	H	0.097714	0.919086	0.610730
	H77	H	0.105477	0.105815	0.378147
	H78	H	0.913900	0.106039	0.611154
	H79	H	0.914248	0.922015	0.377184
	H80	H	0.625942	0.100408	0.890858
	H81	H	0.395771	0.107839	0.081294
	H82	H	0.622869	0.937973	0.084846
	H83	H	0.392129	0.918779	0.902577
	H84	H	0.633880	0.913513	0.098004
	H85	H	0.395883	0.101830	0.087761
	H86	H	0.628588	0.118104	0.899036
	H87	H	0.395448	0.925029	0.907059
	H88	H	0.916873	0.103804	0.609246
	H89	H	0.099785	0.108466	0.379397
	H90	H	0.104796	0.923231	0.612473
	H91	H	0.922109	0.926572	0.380788
	H92	H	0.101417	0.627470	0.909013
	H93	H	0.108321	0.395088	0.093638
	H94	H	0.916835	0.630671	0.089034
	H95	H	0.914211	0.397329	0.906194
	H96	H	0.407981	0.132516	0.571775
	H97	H	0.597778	0.900950	0.587169
	H98	H	0.606948	0.131587	0.402137
	H99	H	0.413156	0.898552	0.400147
	H100	H	0.594705	0.412830	0.112094
	H101	H	0.594664	0.601958	0.882864
	H102	H	0.416229	0.604030	0.110102
	H103	H	0.420483	0.417093	0.877595
	H104	H	0.127142	0.606151	0.395682
	H105	H	0.893001	0.601891	0.594682
	H106	H	0.128503	0.426392	0.596299
	H107	H	0.894866	0.421508	0.411280
	H108	H	0.916123	0.631441	0.088636
	H109	H	0.093057	0.400051	0.092754
	H110	H	0.106454	0.632061	0.899765
	H111	H	0.921212	0.397625	0.899162
	H112	H	0.098285	0.927776	0.608911
	H113	H	0.105084	0.111463	0.376389
	H114	H	0.918148	0.107665	0.610740
	H115	H	0.922370	0.917410	0.378899
	H116	H	0.621124	0.103061	0.909735
	H117	H	0.392217	0.109838	0.089061
	H118	H	0.624297	0.912437	0.069479
	H119	H	0.393783	0.925826	0.898993
	C120	C	0.386932	0.024864	0.615870
	C121	C	0.629508	1.008216	0.613312
	C122	C	0.633988	0.024192	0.369108
	C123	C	0.389866	1.008122	0.372332
	C124	C	0.631349	0.393318	0.003725
	C125	C	0.632046	0.636575	0.986736
	C126	C	0.387862	0.636826	0.003357
	C127	C	0.388020	0.393749	0.986316
	C128	C	0.018065	0.637127	0.373215
	C129	C	1.001838	0.635203	0.616158
	C130	C	0.019423	0.391608	0.616861
	C131	C	1.001159	0.394028	0.374561
	C132	C	0.887234	0.523108	0.118724
	C133	C	0.130344	0.506379	0.116687
	C134	C	0.131651	0.522450	0.873212
	C135	C	0.889389	0.505973	0.874240
	C136	C	0.130884	0.894186	0.503066
	C137	C	0.131695	0.137119	0.485573
	C138	C	0.888845	0.135881	0.502250
	C139	C	0.887811	0.892688	0.486197
	C140	C	0.517566	0.137651	0.871630
	C141	C	0.502342	0.136313	0.114347
	C142	C	0.519146	0.892820	0.115030
	C143	C	0.501347	0.894061	0.871940
	C144	C	0.387796	0.902414	0.672695
	C145	C	0.628618	0.130920	0.668950
	C146	C	0.632446	0.901285	0.314312
	C147	C	0.392722	0.131117	0.316289
	C148	C	0.689934	0.394775	0.881354
	C149	C	0.685674	0.634366	0.110058
	C150	C	0.332784	0.635319	0.880514
	C151	C	0.331724	0.394924	0.109319
	C152	C	0.895582	0.693013	0.376775
	C153	C	0.124435	0.692176	0.614225
	C154	C	0.896647	0.335297	0.617574
	C155	C	0.124396	0.338960	0.375072
	C156	C	0.896889	0.391889	0.675207
	C157	C	0.124737	0.633473	0.670486
	C158	C	0.894790	0.634729	0.319780
	C159	C	0.123917	0.396408	0.317721
	C160	C	0.390322	0.692638	0.880251
	C161	C	0.628219	0.692657	0.109222
	C162	C	0.631118	0.338692	0.880503
	C163	C	0.389082	0.337150	0.109083
	C164	C	0.689647	0.901635	0.371935
	C165	C	0.685761	0.131113	0.610698
	C166	C	0.331147	0.901879	0.614562
	C167	C	0.333631	0.130661	0.373622
	C168	C	0.888595	0.400334	0.174973
	C169	C	0.128937	0.629159	0.171739
	C170	C	0.131801	0.400246	0.816612
	C171	C	0.889653	0.627847	0.816529
	C172	C	0.188348	0.895830	0.380415
	C173	C	0.186864	0.135079	0.607950
	C174	C	0.835372	0.134940	0.379033
	C175	C	0.828933	0.894462	0.608293
	C176	C	0.395757	0.194648	0.874145
	C177	C	0.624903	0.193215	0.112079
	C178	C	0.395810	0.837431	0.115577
	C179	C	0.623973	0.838150	0.871940
	C180	C	0.396569	0.894467	0.173194
	C181	C	0.625702	0.134764	0.168399
	C182	C	0.395337	0.137359	0.816582
	C183	C	0.623983	0.896724	0.814579
	C184	C	0.891444	0.193695	0.380111
	C185	C	0.130049	0.192795	0.608056
	C186	C	0.131139	0.837945	0.380774
	C187	C	0.887323	0.837196	0.609165
	C188	C	0.189126	0.400468	0.874560
	C189	C	0.186904	0.628971	0.114516
	C190	C	0.831130	0.400553	0.117683
	C191	C	0.833654	0.628763	0.875907
	C192	C	0.410251	0.110224	0.592469
	C193	C	0.606299	0.923032	0.590879
	C194	C	0.611544	0.110048	0.391025
	C195	C	0.412211	0.922557	0.395089
	C196	C	0.607435	0.415506	0.089014
	C197	C	0.610615	0.614047	0.901030
	C198	C	0.410163	0.613891	0.088682
	C199	C	0.411815	0.417262	0.900927
	C200	C	0.103940	0.614254	0.394896
	C201	C	0.916277	0.612358	0.593862
	C202	C	0.104648	0.415046	0.592938
	C203	C	0.915543	0.416011	0.398188
	C204	C	0.909573	0.608797	0.095752
	C205	C	0.107766	0.420599	0.094824
	C206	C	0.107963	0.607567	0.895982
	C207	C	0.912634	0.420762	0.897710
	C208	C	0.107110	0.916550	0.588532
	C209	C	0.109773	0.115003	0.400071
	C210	C	0.909869	0.112570	0.587920
	C211	C	0.912441	0.915367	0.400816
	C212	C	0.603172	0.114037	0.893546
	C213	C	0.416774	0.113190	0.092541
	C214	C	0.604656	0.914842	0.091094
	C215	C	0.415786	0.916528	0.895920
	Zn216	Zn	0.508650	0.016970	0.743220
	Zn217	Zn	0.511597	0.015171	0.242229
	Zn218	Zn	0.760483	0.514263	-0.004176
	Zn219	Zn	0.259459	0.515161	-0.004700
	Zn220	Zn	0.010174	0.764623	0.495896
	Zn221	Zn	0.010040	0.264734	0.494908
	Zn222	Zn	0.010567	0.513555	0.744357
	Zn223	Zn	0.008776	0.514952	0.245497
	Zn224	Zn	0.509492	0.764962	-0.005916
	Zn225	Zn	0.509718	0.265805	-0.005754
	Zn226	Zn	0.759827	0.015561	0.493163
	Zn227	Zn	0.259588	0.015737	0.494190
	N228	N	0.421677	0.979865	0.673756
	N229	N	0.594300	0.053692	0.670643
	N230	N	0.598522	0.978685	0.312392
	N231	N	0.426826	0.053789	0.315272
	N232	N	0.690546	0.427774	0.958958
	N233	N	0.688209	0.600158	0.032797
	N234	N	0.330944	0.601578	0.958091
	N235	N	0.331251	0.429579	0.032084
	N236	N	0.973408	0.694818	0.409050
	N237	N	0.046890	0.693404	0.581161
	N238	N	0.973552	0.334973	0.581985
	N239	N	0.046896	0.337267	0.409817
	N240	N	0.974246	0.426216	0.675064
	N241	N	0.047612	0.598808	0.671810
	N242	N	0.972163	0.600845	0.317521
	N243	N	0.046311	0.429748	0.317181
	N244	N	0.423766	0.693957	0.957568
	N245	N	0.595816	0.694261	0.031501
	N246	N	0.595316	0.337781	0.957431
	N247	N	0.423253	0.336192	0.031517
	N248	N	0.690770	0.979144	0.405221
	N249	N	0.686358	0.053832	0.576701
	N250	N	0.330560	0.979035	0.580016
	N251	N	0.331857	0.053273	0.407815
	N252	N	0.922632	0.477783	0.175727
	N253	N	0.094472	0.551972	0.173199
	N254	N	0.096791	0.477100	0.815525
	N255	N	0.923603	0.550516	0.815489
	N256	N	0.188383	0.930071	0.457372
	N257	N	0.188056	0.101078	0.530752
	N258	N	0.833602	0.099630	0.455767
	N259	N	0.829168	0.928287	0.530695
	N260	N	0.472808	0.194748	0.907904
	N261	N	0.547249	0.194127	0.079061
	N262	N	0.472945	0.836197	0.079988
	N263	N	0.546646	0.836360	0.906896
	N264	N	0.474134	0.927950	0.173221
	N265	N	0.548708	0.100018	0.169850
	N266	N	0.472269	0.102347	0.815043
	N267	N	0.546584	0.930627	0.814416
	N268	N	0.923991	0.194380	0.457863
	N269	N	0.096463	0.194272	0.530935
	N270	N	0.096109	0.836700	0.458084
	N271	N	0.922981	0.835986	0.532319
	N272	N	0.188985	0.477516	0.909182
	N273	N	0.187845	0.551578	0.080920
	N274	N	0.830303	0.477720	0.083130
	N275	N	0.833294	0.551803	0.911140
	O276	O	-0.000143	-0.038432	1.011937
	H277	H	0.003851	-0.034771	1.021633
	H278	H	-0.004969	-0.043968	1.003831
	O279	O	1.112106	0.003073	0.861122
	H280	H	1.112146	0.004350	0.869647
	H281	H	1.108810	0.009305	0.855757
	O282	O	0.996682	0.885245	-0.031459
	H283	H	1.005434	0.886623	-0.024059
	H284	H	0.996853	0.876084	-0.033331
	O285	O	1.048711	0.134563	0.997590
	H286	H	1.046399	0.125320	0.997515
	H287	H	1.044848	0.145311	1.009215
	O288	O	0.545599	0.599296	0.498777
	H289	H	0.552751	0.606857	0.485964
	H290	H	0.537241	0.610931	0.499371
	O291	O	0.444662	0.593207	0.494066
	H292	H	0.435584	0.586658	0.480870
	H293	H	0.441528	0.591605	0.494039
	O294	O	0.597040	0.489812	0.484254
	H295	H	0.600908	0.494522	0.473611
	H296	H	0.598418	0.496186	0.481835
	O297	O	-0.102062	-0.012072	1.161986
	H298	H	-0.103459	-0.009325	1.169365
	H299	H	-0.099210	-0.009425	1.162993
	O300	O	0.104363	0.022044	0.068362
	H301	H	0.102054	0.014787	0.060378
	H302	H	0.102807	0.014744	0.088336
	O303	O	0.463754	0.548214	0.568163
	H304	H	0.468225	0.548483	0.568402
	H305	H	0.474543	0.554655	0.575690
	O306	O	0.066252	0.981094	1.001234
	H307	H	0.069247	0.986430	1.002662
	H308	H	0.067057	0.972618	1.000136
	O309	O	0.500955	0.505153	0.552759
	H310	H	0.502151	0.521022	0.554007
	H311	H	0.500982	0.504846	0.568078
	O312	O	-0.403697	0.534230	0.612174
	H313	H	-0.397733	0.528021	0.612916
	H314	H	-0.401303	0.536016	0.619470
	O315	O	0.429244	-0.440389	-0.568394
	H316	H	0.424512	-0.436746	-0.563295
	H317	H	0.440697	-0.443922	-0.566062
	O318	O	0.851542	0.870476	1.077531
	H319	H	0.849937	0.877122	1.092753
	H320	H	0.840725	0.862689	1.081032
	O321	O	-0.165938	-0.017168	1.038398
	H322	H	-0.166980	-0.028108	1.035802
	H323	H	-0.167588	-0.027062	1.045660
	O324	O	0.413982	0.600131	0.471154
	H325	H	0.417304	0.596609	0.463665
	H326	H	0.410845	0.598726	0.475081
	O327	O	-0.045465	0.160287	-0.045512
	H328	H	-0.042671	0.149299	-0.046534
	H329	H	-0.057848	0.165566	-0.051633
	O330	O	0.973583	0.965072	-0.025288
	H331	H	0.987546	0.959287	-0.035594
	H332	H	0.971920	0.970107	-0.038077
	O333	O	0.001385	1.146528	0.955486
	H334	H	-0.007561	1.147170	0.966816
	H335	H	0.002944	1.144354	0.967630
	O336	O	0.094098	0.022773	0.073478
	H337	H	0.102593	0.030616	0.071538
	H338	H	0.092485	0.013754	0.065009
	O339	O	0.540154	0.493458	0.427643
	H340	H	0.548358	0.491274	0.420462
	H341	H	0.528542	0.494331	0.418229
	O342	O	1.093682	0.912548	0.907281
	H343	H	1.090472	0.911188	0.888717
	H344	H	1.091597	0.909913	0.908045
	O345	O	1.148522	1.059870	-0.055698
	H346	H	1.144762	1.079313	-0.056660
	H347	H	1.154469	1.066751	-0.069060
	O348	O	0.507954	0.517310	0.484772
	H349	H	0.506791	0.522356	0.493713
	H350	H	0.506037	0.536628	0.489908
	O351	O	1.037617	0.027966	-0.042070
	H352	H	1.041056	0.026649	-0.038911
	H353	H	1.054641	0.024380	-0.041650
	O354	O	0.567374	0.487316	0.407026
	H355	H	0.554179	0.489383	0.410928
	H356	H	0.572077	0.476137	0.406006
	O357	O	0.498178	0.522307	1.539295
	H358	H	0.495172	0.522589	1.548812
	H359	H	0.491869	0.526282	1.536307
	O360	O	0.041535	-0.019614	-0.059573
	H361	H	0.039530	-0.003187	-0.065236
	H362	H	0.042386	-0.021793	-0.056140
	O363	O	0.545218	0.569185	0.523383
	H364	H	0.545099	0.581100	0.533491
	H365	H	0.555992	0.562037	0.517341
	O366	O	1.047063	1.001669	1.002160
	H367	H	1.038567	1.029478	0.999368
	H368	H	1.039943	1.004253	1.001991
	O369	O	0.906408	0.042198	0.868680
	H370	H	0.915706	0.032773	0.868158
	H371	H	0.902388	0.052143	0.868307
	O372	O	0.034515	0.018236	0.094962
	H373	H	0.030322	0.021466	0.086834
	H374	H	0.027627	0.017428	0.109025
	O375	O	0.598359	-0.429024	0.490120
	H376	H	0.599350	-0.441499	0.493041
	H377	H	0.596772	-0.431528	0.490493
	O378	O	0.972456	-0.015054	0.932493
	H379	H	0.973223	-0.021113	0.942159
	H380	H	0.961702	-0.013884	0.936406
	O381	O	0.628774	0.583455	0.486211
	H382	H	0.636368	0.580808	0.485473
	H383	H	0.623566	0.577006	0.487551
