data_Molecule from HDF5

_cell_length_a		16.630463
_cell_length_b		16.414459
_cell_length_c		16.621591
_cell_angle_alpha	90.017448
_cell_angle_beta	89.878907
_cell_angle_gamma	90.152446
_symmetry_space_group_name_H-M	'P 1'
_symmetry_Int_Tables_number		1

loop_
	_symmetry_equiv_pos_as_xyz
	x,y,z

loop_
	_atom_site_label
	_atom_site_type_symbol
	_atom_site_fract_x
	_atom_site_fract_y
	_atom_site_fract_z
	H0	H	0.399712	0.837856	0.711505
	H1	H	0.611471	0.152203	0.714038
	H2	H	0.607349	0.835638	0.271321
	H3	H	0.401459	0.152703	0.273053
	H4	H	0.728622	0.384850	0.836025
	H5	H	0.723723	0.599382	0.147090
	H6	H	0.285367	0.595660	0.832800
	H7	H	0.279964	0.387513	0.146133
	H8	H	0.845147	0.712508	0.391669
	H9	H	0.159692	0.715029	0.594931
	H10	H	0.845671	0.273496	0.595524
	H11	H	0.158086	0.272929	0.385760
	H12	H	0.846875	0.387989	0.713933
	H13	H	0.157837	0.601394	0.714557
	H14	H	0.846764	0.599591	0.270812
	H15	H	0.156634	0.386824	0.266809
	H16	H	0.403865	0.710830	0.832470
	H17	H	0.604420	0.712407	0.148233
	H18	H	0.608609	0.271343	0.834563
	H19	H	0.398257	0.273585	0.147322
	H20	H	0.720739	0.834004	0.389642
	H21	H	0.725065	0.152416	0.596452
	H22	H	0.283397	0.837150	0.595742
	H23	H	0.283360	0.152689	0.386858
	H24	H	0.897230	0.336880	0.212910
	H25	H	0.105430	0.653232	0.208305
	H26	H	0.109630	0.335441	0.768442
	H27	H	0.901605	0.652425	0.772651
	H28	H	0.223518	0.890432	0.334918
	H29	H	0.225714	0.102652	0.647205
	H30	H	0.783131	0.098103	0.335130
	H31	H	0.780161	0.887256	0.647897
	H32	H	0.345132	0.212710	0.889778
	H33	H	0.658395	0.219787	0.099458
	H34	H	0.345213	0.776576	0.091955
	H35	H	0.660206	0.774280	0.887093
	H36	H	0.347798	0.889493	0.212895
	H37	H	0.658129	0.104135	0.216409
	H38	H	0.348064	0.101853	0.768441
	H39	H	0.658660	0.887368	0.767777
	H40	H	0.900528	0.214783	0.335195
	H41	H	0.106869	0.216034	0.648371
	H42	H	0.103159	0.778154	0.333537
	H43	H	0.902122	0.776605	0.650465
	H44	H	0.224338	0.335442	0.884579
	H45	H	0.221401	0.652889	0.092301
	H46	H	0.781195	0.336625	0.097634
	H47	H	0.782980	0.651345	0.886459
	H48	H	0.412170	0.108675	0.577211
	H49	H	0.595391	0.880837	0.580307
	H50	H	0.595096	0.108909	0.399484
	H51	H	0.412787	0.879607	0.400267
	H52	H	0.589734	0.407210	0.100995
	H53	H	0.595090	0.584147	0.877638
	H54	H	0.409568	0.591323	0.105860
	H55	H	0.412868	0.402756	0.878288
	H56	H	0.115523	0.584806	0.396867
	H57	H	0.892000	0.580880	0.582323
	H58	H	0.110722	0.408447	0.575563
	H59	H	0.890099	0.403027	0.402279
	H60	H	0.114080	0.410148	0.585200
	H61	H	0.890234	0.584208	0.584519
	H62	H	0.115932	0.588127	0.398419
	H63	H	0.893213	0.407028	0.405787
	H64	H	0.404346	0.581041	0.104965
	H65	H	0.594905	0.581918	0.878459
	H66	H	0.592565	0.406927	0.101226
	H67	H	0.412209	0.407238	0.879366
	H68	H	0.590768	0.106128	0.403105
	H69	H	0.585990	0.882115	0.584040
	H70	H	0.413444	0.109489	0.583102
	H71	H	0.414632	0.881834	0.402869
	H72	H	0.912726	0.606634	0.078185
	H73	H	0.095717	0.377881	0.085920
	H74	H	0.095057	0.608362	0.900663
	H75	H	0.903280	0.376736	0.902217
	H76	H	0.092135	0.901228	0.604783
	H77	H	0.091483	0.085189	0.380873
	H78	H	0.915454	0.080079	0.600963
	H79	H	0.907061	0.898575	0.376876
	H80	H	0.614293	0.084904	0.905550
	H81	H	0.395800	0.075540	0.079492
	H82	H	0.618890	0.899584	0.086824
	H83	H	0.391716	0.902897	0.901413
	H84	H	0.614731	0.902472	0.075346
	H85	H	0.390303	0.082253	0.088863
	H86	H	0.611602	0.078685	0.904703
	H87	H	0.392730	0.906759	0.902544
	H88	H	0.914468	0.084059	0.603394
	H89	H	0.095914	0.082454	0.380000
	H90	H	0.099289	0.904837	0.606193
	H91	H	0.908192	0.910049	0.381901
	H92	H	0.090011	0.605163	0.900152
	H93	H	0.082816	0.382966	0.081319
	H94	H	0.911827	0.608724	0.081854
	H95	H	0.922483	0.379720	0.893089
	H96	H	0.417767	0.107562	0.579671
	H97	H	0.588309	0.885123	0.574452
	H98	H	0.596850	0.107145	0.405420
	H99	H	0.410604	0.880649	0.403412
	H100	H	0.591577	0.409357	0.099875
	H101	H	0.593027	0.583316	0.879117
	H102	H	0.415194	0.582385	0.101033
	H103	H	0.416100	0.405447	0.879764
	H104	H	0.114900	0.585031	0.400422
	H105	H	0.891155	0.584546	0.580766
	H106	H	0.115720	0.401267	0.580728
	H107	H	0.890935	0.409312	0.400297
	H108	H	0.915730	0.607357	0.081085
	H109	H	0.094342	0.381665	0.071976
	H110	H	0.093199	0.603913	0.904515
	H111	H	0.919463	0.385699	0.913475
	H112	H	0.093175	0.909339	0.602742
	H113	H	0.091818	0.079648	0.381340
	H114	H	0.911327	0.080703	0.603721
	H115	H	0.918065	0.902868	0.380586
	H116	H	0.614712	0.081462	0.899632
	H117	H	0.392042	0.087782	0.077254
	H118	H	0.614378	0.911516	0.084376
	H119	H	0.390999	0.905621	0.898878
	C120	C	0.382484	0.003898	0.612186
	C121	C	0.623651	0.986563	0.612544
	C122	C	0.624861	0.002319	0.370919
	C123	C	0.382057	0.985576	0.370885
	C124	C	0.624597	0.372846	-0.001395
	C125	C	0.624727	0.614974	0.982248
	C126	C	0.380955	0.615229	-0.000686
	C127	C	0.381008	0.372614	0.982389
	C128	C	0.011396	0.616953	0.369117
	C129	C	0.994664	0.615491	0.613289
	C130	C	0.010910	0.372995	0.613232
	C131	C	0.994074	0.373306	0.369842
	C132	C	0.881382	0.503043	0.112680
	C133	C	0.122663	0.485721	0.110821
	C134	C	0.124481	0.501624	0.869154
	C135	C	0.882898	0.484978	0.870798
	C136	C	0.125353	0.873749	0.500504
	C137	C	0.124752	0.116011	0.483670
	C138	C	0.882232	0.114352	0.499667
	C139	C	0.880997	0.872720	0.483896
	C140	C	0.510827	0.114833	0.870890
	C141	C	0.495275	0.116011	0.114101
	C142	C	0.512070	0.872758	0.112992
	C143	C	0.495072	0.872834	0.869279
	C144	C	0.380913	0.885053	0.671631
	C145	C	0.628153	0.105074	0.673431
	C146	C	0.625755	0.883038	0.311521
	C147	C	0.382047	0.105159	0.312246
	C148	C	0.686827	0.367814	0.882200
	C149	C	0.683660	0.617439	0.100080
	C150	C	0.324370	0.615008	0.880286
	C151	C	0.320226	0.369405	0.099307
	C152	C	0.892721	0.674380	0.370808
	C153	C	0.112436	0.675532	0.614274
	C154	C	0.893062	0.312827	0.614789
	C155	C	0.111413	0.313322	0.367688
	C156	C	0.893481	0.369883	0.673639
	C157	C	0.111675	0.618850	0.673465
	C158	C	0.893380	0.618186	0.310925
	C159	C	0.110624	0.369890	0.308502
	C160	C	0.383316	0.672224	0.880018
	C161	C	0.624360	0.673722	0.100879
	C162	C	0.627356	0.311208	0.881546
	C163	C	0.379331	0.312859	0.100050
	C164	C	0.682504	0.882357	0.369915
	C165	C	0.684689	0.104954	0.614808
	C166	C	0.323094	0.884776	0.614334
	C167	C	0.323516	0.105225	0.368934
	C168	C	0.878968	0.384366	0.173038
	C169	C	0.124231	0.605342	0.169283
	C170	C	0.127260	0.382911	0.808726
	C171	C	0.881921	0.604554	0.811817
	C172	C	0.183600	0.872271	0.381970
	C173	C	0.185181	0.120080	0.600632
	C174	C	0.822900	0.116659	0.382049
	C175	C	0.821404	0.870343	0.601705
	C176	C	0.392921	0.174311	0.869780
	C177	C	0.611628	0.178763	0.117404
	C178	C	0.393094	0.815133	0.112313
	C179	C	0.612976	0.813581	0.868200
	C180	C	0.394123	0.871407	0.172056
	C181	C	0.611528	0.121070	0.175619
	C182	C	0.394321	0.118763	0.809674
	C183	C	0.611969	0.869892	0.808624
	C184	C	0.881197	0.174644	0.382008
	C185	C	0.126370	0.177062	0.600959
	C186	C	0.123740	0.816294	0.381283
	C187	C	0.881646	0.814992	0.602831
	C188	C	0.184547	0.382801	0.866273
	C189	C	0.181740	0.605195	0.111465
	C190	C	0.821477	0.383997	0.115331
	C191	C	0.823131	0.603993	0.868281
	C192	C	0.407298	0.086968	0.587025
	C193	C	0.597345	0.904251	0.587049
	C194	C	0.600968	0.085722	0.395396
	C195	C	0.405722	0.902337	0.395151
	C196	C	0.598730	0.399868	0.079630
	C197	C	0.601157	0.590272	0.899898
	C198	C	0.403311	0.591807	0.082185
	C199	C	0.406424	0.397933	0.900409
	C200	C	0.093994	0.592820	0.391893
	C201	C	0.912526	0.590338	0.589232
	C202	C	0.092466	0.399171	0.588008
	C203	C	0.912589	0.399176	0.395451
	C204	C	0.906384	0.586064	0.087518
	C205	C	0.098113	0.402391	0.086490
	C206	C	0.099682	0.584243	0.894362
	C207	C	0.907751	0.402198	0.895802
	C208	C	0.101858	0.898103	0.583075
	C209	C	0.100095	0.089872	0.402209
	C210	C	0.906704	0.088904	0.581482
	C211	C	0.904325	0.897003	0.401277
	C212	C	0.592442	0.089001	0.896019
	C213	C	0.413948	0.089538	0.089059
	C214	C	0.594521	0.897315	0.089278
	C215	C	0.413026	0.897950	0.893925
	Zn216	Zn	0.503743	-0.005129	0.740634
	Zn217	Zn	0.503814	-0.005935	0.242907
	Zn218	Zn	0.754073	0.493689	-0.008707
	Zn219	Zn	0.251546	0.493228	-0.009696
	Zn220	Zn	0.003052	0.744805	0.492244
	Zn221	Zn	0.002729	0.244509	0.491800
	Zn222	Zn	0.003491	0.493460	0.742156
	Zn223	Zn	0.002404	0.494853	0.240417
	Zn224	Zn	0.503441	0.744015	-0.009474
	Zn225	Zn	0.502944	0.244135	-0.008798
	Zn226	Zn	0.752043	-0.006520	0.492173
	Zn227	Zn	0.253993	-0.004910	0.491803
	N228	N	0.416910	0.960423	0.670661
	N229	N	0.590685	0.030358	0.672019
	N230	N	0.591125	0.958996	0.311543
	N231	N	0.417797	0.029832	0.313268
	N232	N	0.685328	0.405116	0.956102
	N233	N	0.684274	0.581769	0.025343
	N234	N	0.322447	0.580492	0.955561
	N235	N	0.321194	0.405817	0.024965
	N236	N	0.967130	0.673747	0.406341
	N237	N	0.038682	0.673327	0.577448
	N238	N	0.967050	0.314644	0.578109
	N239	N	0.037911	0.315639	0.405348
	N240	N	0.967755	0.406471	0.672845
	N241	N	0.037531	0.581900	0.672776
	N242	N	0.968287	0.583396	0.309636
	N243	N	0.036528	0.406480	0.309493
	N244	N	0.417518	0.672788	0.955110
	N245	N	0.588485	0.672492	0.026527
	N246	N	0.589274	0.314254	0.955009
	N247	N	0.416458	0.314700	0.026331
	N248	N	0.682027	0.957613	0.406083
	N249	N	0.681948	0.030345	0.577536
	N250	N	0.324093	0.959843	0.577911
	N251	N	0.323303	0.029884	0.404673
	N252	N	0.915408	0.459560	0.171497
	N253	N	0.088336	0.529918	0.169196
	N254	N	0.090716	0.457863	0.810220
	N255	N	0.918242	0.529526	0.813092
	N256	N	0.184967	0.906929	0.457192
	N257	N	0.184523	0.083006	0.526714
	N258	N	0.823403	0.079898	0.456277
	N259	N	0.820777	0.905249	0.526706
	N260	N	0.466556	0.172121	0.907017
	N261	N	0.538270	0.175834	0.079725
	N262	N	0.467556	0.815635	0.076522
	N263	N	0.539150	0.815296	0.905270
	N264	N	0.469193	0.906465	0.172818
	N265	N	0.538131	0.082762	0.173802
	N266	N	0.468922	0.082855	0.809939
	N267	N	0.537713	0.906229	0.809360
	N268	N	0.917343	0.173295	0.456160
	N269	N	0.089806	0.174919	0.527016
	N270	N	0.088209	0.816834	0.456001
	N271	N	0.917898	0.816086	0.528549
	N272	N	0.183014	0.457566	0.903208
	N273	N	0.181044	0.529660	0.075960
	N274	N	0.822734	0.458905	0.078508
	N275	N	0.823513	0.528525	0.904070
	O276	O	1.066663	0.922836	0.189240
	H277	H	1.063928	0.937692	0.176842
	H278	H	1.045923	0.927434	0.189849
	O279	O	-0.125724	-0.130169	0.848478
	H280	H	-0.108222	-0.114734	0.859495
	H281	H	-0.109676	-0.124058	0.859778
	O282	O	0.616888	0.457105	0.484421
	H283	H	0.623865	0.447956	0.487085
	H284	H	0.611427	0.470997	0.498800
	O285	O	0.687847	0.673132	0.532415
	H286	H	0.703440	0.685723	0.540264
	H287	H	0.689137	0.683719	0.556763
	O288	O	1.013049	0.004408	0.858580
	H289	H	1.026235	0.005088	0.846370
	H290	H	1.009465	0.001017	0.862485
	O291	O	1.059756	0.962538	0.930306
	H292	H	1.057308	0.965773	0.929128
	H293	H	1.048585	0.963901	0.928593
	O294	O	0.214609	0.203798	0.023148
	H295	H	0.231502	0.209923	0.032106
	H296	H	0.218638	0.204142	0.027136
	O297	O	0.799959	-0.204952	0.194588
	H298	H	0.790424	-0.159860	0.206100
	H299	H	0.783358	-0.223695	0.222694
	O300	O	0.061501	0.206693	0.035044
	H301	H	0.051485	0.203946	0.033074
	H302	H	0.046486	0.215264	0.020303
	O303	O	0.000585	0.143192	0.037000
	H304	H	0.019744	0.133930	0.044118
	H305	H	-0.009096	0.151768	0.058984
	O306	O	1.097272	-0.171495	0.018429
	H307	H	1.102963	-0.163934	0.018226
	H308	H	1.102203	-0.189189	0.007298
	O309	O	0.520360	0.559133	0.602105
	H310	H	0.500351	0.550106	0.600860
	H311	H	0.521540	0.574614	0.597797
	O312	O	0.486791	0.499109	0.441160
	H313	H	0.485896	0.501410	0.435549
	H314	H	0.482501	0.493758	0.428211
	O315	O	0.580359	0.454309	0.537165
	H316	H	0.561937	0.466193	0.529296
	H317	H	0.583540	0.446939	0.540778
	O318	O	1.105525	1.003614	-0.014027
	H319	H	1.111244	1.007675	-0.017155
	H320	H	1.102451	1.006873	-0.010446
	O321	O	0.210151	0.778002	0.958110
	H322	H	0.224677	0.766496	0.955785
	H323	H	0.216854	0.773674	0.928770
	O324	O	0.781685	0.205724	0.966116
	H325	H	0.788479	0.212960	0.944669
	H326	H	0.771416	0.227949	0.969891
	O327	O	0.716603	0.526514	0.706122
	H328	H	0.711615	0.508707	0.715592
	H329	H	0.719549	0.504290	0.713087
	O330	O	-0.138033	0.992594	-0.213575
	H331	H	-0.133147	0.976273	-0.193618
	H332	H	-0.151036	0.979805	-0.216733
	O333	O	0.587202	0.438852	0.700199
	H334	H	0.579266	0.444507	0.691766
	H335	H	0.560352	0.423762	0.704360
	O336	O	0.576886	0.335487	0.595363
	H337	H	0.573843	0.341950	0.573529
	H338	H	0.569927	0.354288	0.594453
	O339	O	0.294261	0.472821	0.698160
	H340	H	0.274180	0.463967	0.715568
	H341	H	0.306355	0.482069	0.679439
	O342	O	-0.187106	0.981348	0.016471
	H343	H	-0.193326	0.976455	0.010212
	H344	H	-0.169406	0.991261	0.007547
	O345	O	0.417778	0.415963	0.315623
	H346	H	0.410936	0.400947	0.308543
	H347	H	0.398707	0.411332	0.318384
	O348	O	0.138347	0.790927	0.793847
	H349	H	0.162081	0.768249	0.775592
	H350	H	0.137821	0.812347	0.801172
	O351	O	0.344726	0.334123	1.299990
	H352	H	0.342300	0.351845	1.323478
	H353	H	0.318495	0.313274	1.278885
	O354	O	1.178122	-0.089735	1.019772
	H355	H	1.167850	-0.090915	1.010596
	H356	H	1.173713	-0.101753	1.002747
	O357	O	0.494192	0.645756	0.498108
	H358	H	0.504729	0.643621	0.517598
	H359	H	0.501889	0.654364	0.495185
	O360	O	0.570199	0.472079	0.624090
	H361	H	0.573341	0.475541	0.636092
	H362	H	0.555840	0.470515	0.611654
	O363	O	0.563050	0.292345	0.295106
	H364	H	0.554268	0.278990	0.280474
	H365	H	0.549094	0.290589	0.281401
	O366	O	0.508716	0.427324	0.352332
	H367	H	0.498865	0.437547	0.341298
	H368	H	0.497499	0.423532	0.351257
	O369	O	-0.141005	-0.007539	1.055031
	H370	H	-0.131714	-0.006892	1.048788
	H371	H	-0.140839	-0.011071	1.047512
	O372	O	0.208703	1.202209	1.200637
	H373	H	0.180203	1.184909	1.201250
	H374	H	0.207196	1.185319	1.182208
	O375	O	1.030746	-0.151112	-0.163269
	H376	H	1.030552	-0.155530	-0.169704
	H377	H	1.046271	-0.161075	-0.164805
	O378	O	0.347326	0.649550	0.478821
	H379	H	0.347359	0.652594	0.478363
	H380	H	0.341730	0.662131	0.466680
	O381	O	-0.189809	1.176539	-0.198192
	H382	H	-0.181871	1.168523	-0.179504
	H383	H	-0.198603	1.159539	-0.213422
	O384	O	0.463203	0.496657	0.500585
	H385	H	0.480139	0.496262	0.483110
	H386	H	0.460972	0.498753	0.481842
	O387	O	0.222613	1.029626	1.208127
	H388	H	0.239193	1.018155	1.220843
	H389	H	0.207993	1.027391	1.213116
	O390	O	-0.036062	1.203320	0.792874
	H391	H	-0.030048	1.226395	0.777818
	H392	H	-0.055031	1.196779	0.794672
	O393	O	0.719961	0.288767	0.286769
	H394	H	0.696033	0.286516	0.270626
	H395	H	0.721101	0.302323	0.309994
	O396	O	0.295831	0.641879	0.285159
	H397	H	0.290996	0.662148	0.284369
	H398	H	0.286887	0.628908	0.280234
	O399	O	0.279202	0.542762	0.545344
	H400	H	0.292617	0.541990	0.529204
	H401	H	0.266718	0.548483	0.547291
	O402	O	1.012759	0.065681	1.010306
	H403	H	1.020744	0.050666	1.005463
	H404	H	0.998243	0.068395	0.997041
	O405	O	0.293160	0.419530	0.409677
	H406	H	0.287765	0.429407	0.425082
	H407	H	0.291582	0.416819	0.404152
	O408	O	0.815709	0.954608	0.868513
	H409	H	0.823272	0.953687	0.880897
	H410	H	0.813544	0.951094	0.870016
	O411	O	0.988723	0.774143	-0.064685
	H412	H	0.982584	0.774252	-0.061222
	H413	H	0.993930	0.765856	-0.062895
	O414	O	0.463669	-0.290260	0.271440
	H415	H	0.453075	-0.296829	0.271627
	H416	H	0.461644	-0.267837	0.244949
	O417	O	0.089594	0.161249	0.873440
	H418	H	0.077259	0.161812	0.888872
	H419	H	0.086126	0.154585	0.873860
	O420	O	0.976531	0.180139	1.162861
	H421	H	0.977975	0.176039	1.172919
	H422	H	0.963955	0.174261	1.148280
	O423	O	1.028773	0.986260	0.199886
	H424	H	1.011918	0.988090	0.202141
	H425	H	1.020972	0.968370	0.191356
	O426	O	0.284377	0.281146	0.512077
	H427	H	0.278634	0.281020	0.528811
	H428	H	0.277500	0.265653	0.522835
	O429	O	0.306990	0.476561	0.385482
	H430	H	0.314608	0.479549	0.387626
	H431	H	0.293242	0.477483	0.375924
	O432	O	0.939579	0.097979	0.974394
	H433	H	0.941683	0.087819	0.973557
	H434	H	0.943977	0.094566	0.972678
	O435	O	0.707623	0.695729	0.695066
	H436	H	0.723402	0.663221	0.709729
	H437	H	0.724318	0.699713	0.713474
	O438	O	0.519388	0.613162	0.352290
	H439	H	0.538534	0.592774	0.348921
	H440	H	0.508568	0.609212	0.353150
	O441	O	0.780293	0.796857	0.017341
	H442	H	0.752442	0.763472	0.024411
	H443	H	0.784950	0.804280	0.063171
	O444	O	0.586710	0.650340	0.640004
	H445	H	0.608565	0.642621	0.631263
	H446	H	0.596318	0.664394	0.663446
	O447	O	0.379222	0.298179	0.697416
	H448	H	0.388654	0.301457	0.681938
	H449	H	0.365721	0.267383	0.707048
	O450	O	1.216098	-0.072477	-0.221732
	H451	H	1.210282	-0.068772	-0.225267
	H452	H	1.231199	-0.078421	-0.235510
	O453	O	0.690832	0.289870	0.491709
	H454	H	0.691504	0.285885	0.478310
	H455	H	0.700515	0.294416	0.478839
	O456	O	0.383025	1.258523	0.716800
	H457	H	0.384335	1.256593	0.734170
	H458	H	0.379603	1.258987	0.710896
	O459	O	0.315054	0.682095	0.679201
	H460	H	0.340321	0.672674	0.657899
	H461	H	0.326137	0.657800	0.662707
	O462	O	0.708907	0.472705	0.279045
	H463	H	0.700488	0.466096	0.282309
	H464	H	0.731050	0.474145	0.278385
	O465	O	0.695978	0.668312	0.318052
	H466	H	0.672262	0.653438	0.335195
	H467	H	0.695261	0.641696	0.333912
	O468	O	0.242384	0.853093	0.128981
	H469	H	0.228948	0.866923	0.117618
	H470	H	0.248673	0.851754	0.137278
	O471	O	0.577314	0.653052	0.502153
	H472	H	0.577067	0.648341	0.495952
	H473	H	0.599863	0.661514	0.514290
	O474	O	0.789469	0.963859	0.202500
	H475	H	0.777474	0.976962	0.199364
	H476	H	0.777843	0.980049	0.193770
	O477	O	-0.026997	-0.211779	1.204661
	H478	H	-0.061444	-0.197983	1.193426
	H479	H	-0.034656	-0.244082	1.229453
