data_Molecule from HDF5

_cell_length_a		16.435360
_cell_length_b		16.346842
_cell_length_c		16.420511
_cell_angle_alpha	90.070723
_cell_angle_beta	89.975066
_cell_angle_gamma	90.004981
_symmetry_space_group_name_H-M	'P 1'
_symmetry_Int_Tables_number		1

loop_
	_symmetry_equiv_pos_as_xyz
	x,y,z

loop_
	_atom_site_label
	_atom_site_type_symbol
	_atom_site_fract_x
	_atom_site_fract_y
	_atom_site_fract_z
	H0	H	0.402712	0.832195	0.721139
	H1	H	0.604822	0.154348	0.725032
	H2	H	0.607788	0.837411	0.281133
	H3	H	0.395727	0.154381	0.287281
	H4	H	0.717031	0.390905	0.846901
	H5	H	0.720332	0.601524	0.164659
	H6	H	0.277582	0.597526	0.847246
	H7	H	0.276590	0.388341	0.165323
	H8	H	0.842300	0.717818	0.399057
	H9	H	0.160155	0.709037	0.606873
	H10	H	0.840855	0.272266	0.610068
	H11	H	0.159819	0.274983	0.401651
	H12	H	0.839643	0.387667	0.726908
	H13	H	0.156931	0.597546	0.727190
	H14	H	0.840397	0.599573	0.284423
	H15	H	0.156782	0.385434	0.281406
	H16	H	0.397123	0.711243	0.845401
	H17	H	0.603493	0.716796	0.164607
	H18	H	0.598278	0.277602	0.845997
	H19	H	0.392946	0.273470	0.165590
	H20	H	0.721699	0.835552	0.398384
	H21	H	0.722038	0.153146	0.610817
	H22	H	0.282246	0.833760	0.610040
	H23	H	0.280336	0.153450	0.401321
	H24	H	0.893056	0.334273	0.226611
	H25	H	0.104095	0.652482	0.228055
	H26	H	0.098346	0.333583	0.788588
	H27	H	0.892771	0.654961	0.786217
	H28	H	0.221755	0.889089	0.346743
	H29	H	0.217808	0.095427	0.665757
	H30	H	0.778143	0.101023	0.347002
	H31	H	0.778923	0.888838	0.664359
	H32	H	0.338012	0.208400	0.906848
	H33	H	0.657914	0.215998	0.109913
	H34	H	0.340218	0.773709	0.110646
	H35	H	0.659969	0.773864	0.902191
	H36	H	0.341806	0.888001	0.229289
	H37	H	0.657608	0.101960	0.228145
	H38	H	0.339639	0.092487	0.788396
	H39	H	0.661390	0.891268	0.787052
	H40	H	0.895558	0.215675	0.346593
	H41	H	0.101136	0.211604	0.666075
	H42	H	0.105263	0.773397	0.345938
	H43	H	0.898279	0.775897	0.666031
	H44	H	0.216104	0.334133	0.902710
	H45	H	0.219574	0.652988	0.113254
	H46	H	0.777347	0.334724	0.110679
	H47	H	0.779377	0.655383	0.904159
	H48	H	0.409070	0.112145	0.603035
	H49	H	0.586759	0.880139	0.598078
	H50	H	0.579425	0.107496	0.409697
	H51	H	0.416696	0.883364	0.422109
	H52	H	0.588266	0.405908	0.120657
	H53	H	0.586497	0.587422	0.892496
	H54	H	0.406058	0.585446	0.120748
	H55	H	0.402865	0.405084	0.892590
	H56	H	0.111763	0.582419	0.416626
	H57	H	0.885026	0.586227	0.594861
	H58	H	0.114186	0.401817	0.600197
	H59	H	0.883873	0.403438	0.410241
	H60	H	0.112037	0.403666	0.594386
	H61	H	0.884229	0.584137	0.596432
	H62	H	0.111601	0.581180	0.415944
	H63	H	0.887450	0.399769	0.422862
	H64	H	0.408765	0.581259	0.119235
	H65	H	0.593234	0.582701	0.891686
	H66	H	0.586978	0.407395	0.119565
	H67	H	0.409921	0.403717	0.893381
	H68	H	0.587307	0.101991	0.429741
	H69	H	0.589807	0.881451	0.589766
	H70	H	0.414402	0.105711	0.594759
	H71	H	0.406507	0.879960	0.419242
	H72	H	0.912102	0.608512	0.099632
	H73	H	0.084143	0.378774	0.102257
	H74	H	0.084923	0.609430	0.912632
	H75	H	0.899675	0.377308	0.913091
	H76	H	0.091775	0.900383	0.619979
	H77	H	0.091226	0.083492	0.391612
	H78	H	0.915308	0.079299	0.615552
	H79	H	0.915027	0.905035	0.393289
	H80	H	0.615424	0.087819	0.913548
	H81	H	0.384803	0.089224	0.096469
	H82	H	0.610394	0.906716	0.090448
	H83	H	0.387937	0.911285	0.909304
	H84	H	0.610333	0.909868	0.092864
	H85	H	0.388467	0.080729	0.090822
	H86	H	0.614896	0.086178	0.915840
	H87	H	0.382681	0.896753	0.906469
	H88	H	0.913392	0.087570	0.619323
	H89	H	0.091896	0.084595	0.391214
	H90	H	0.094826	0.903891	0.620206
	H91	H	0.910265	0.903749	0.391690
	H92	H	0.087040	0.607343	0.920566
	H93	H	0.081893	0.384548	0.087450
	H94	H	0.913671	0.604065	0.090065
	H95	H	0.912801	0.379745	0.910303
	H96	H	0.403583	0.110158	0.593572
	H97	H	0.596065	0.878463	0.595497
	H98	H	0.600107	0.113345	0.415142
	H99	H	0.415260	0.879255	0.412374
	H100	H	0.586451	0.405638	0.119446
	H101	H	0.586424	0.579854	0.895438
	H102	H	0.411302	0.585668	0.118888
	H103	H	0.405041	0.398793	0.890580
	H104	H	0.112483	0.582188	0.415997
	H105	H	0.883685	0.586352	0.597039
	H106	H	0.111944	0.407552	0.599774
	H107	H	0.890060	0.412423	0.418269
	H108	H	0.904067	0.608168	0.092646
	H109	H	0.095977	0.377768	0.091474
	H110	H	0.092310	0.610286	0.915597
	H111	H	0.907687	0.382613	0.922299
	H112	H	0.090035	0.904813	0.619120
	H113	H	0.092550	0.083381	0.391119
	H114	H	0.906636	0.080962	0.619479
	H115	H	0.910707	0.909042	0.394433
	H116	H	0.614245	0.085043	0.912864
	H117	H	0.385314	0.079478	0.101579
	H118	H	0.611876	0.906295	0.093750
	H119	H	0.388633	0.900160	0.920566
	C120	C	0.379280	0.002591	0.627423
	C121	C	0.622744	0.985493	0.626717
	C122	C	0.622161	0.003487	0.384035
	C123	C	0.380066	0.986097	0.385686
	C124	C	0.618806	0.374162	0.014689
	C125	C	0.620417	0.616198	0.997859
	C126	C	0.376970	0.615394	0.014201
	C127	C	0.375019	0.371374	0.997724
	C128	C	0.007456	0.615161	0.384199
	C129	C	0.990102	0.615592	0.627253
	C130	C	0.007107	0.372816	0.628189
	C131	C	0.991585	0.372590	0.384343
	C132	C	0.877469	0.502091	0.126904
	C133	C	0.119527	0.485461	0.126898
	C134	C	0.118727	0.503161	0.885077
	C135	C	0.875713	0.486097	0.884213
	C136	C	0.122966	0.871539	0.514102
	C137	C	0.122328	0.115222	0.497051
	C138	C	0.878923	0.115537	0.513825
	C139	C	0.879790	0.873277	0.497831
	C140	C	0.508307	0.115248	0.884261
	C141	C	0.490960	0.116231	0.127933
	C142	C	0.507116	0.874118	0.126147
	C143	C	0.492230	0.871818	0.882526
	C144	C	0.381704	0.880841	0.683520
	C145	C	0.623918	0.106113	0.685986
	C146	C	0.625529	0.884588	0.322030
	C147	C	0.377392	0.105992	0.326179
	C148	C	0.677286	0.372749	0.894668
	C149	C	0.680305	0.619388	0.117232
	C150	C	0.318191	0.615946	0.894458
	C151	C	0.315907	0.369709	0.117438
	C152	C	0.888913	0.676634	0.381513
	C153	C	0.111394	0.671658	0.626897
	C154	C	0.888181	0.312230	0.628874
	C155	C	0.111302	0.313033	0.382303
	C156	C	0.887343	0.370059	0.687005
	C157	C	0.109652	0.616393	0.687024
	C158	C	0.888354	0.618030	0.324016
	C159	C	0.110072	0.369027	0.323048
	C160	C	0.377374	0.672845	0.893661
	C161	C	0.622385	0.676987	0.117073
	C162	C	0.618319	0.316228	0.894203
	C163	C	0.374474	0.312734	0.117719
	C164	C	0.682299	0.883808	0.380276
	C165	C	0.681795	0.105819	0.628713
	C166	C	0.321678	0.881842	0.628440
	C167	C	0.320182	0.105637	0.383558
	C168	C	0.874913	0.382161	0.186643
	C169	C	0.121985	0.604856	0.187910
	C170	C	0.118050	0.381951	0.827421
	C171	C	0.874570	0.606997	0.825815
	C172	C	0.182112	0.870395	0.394318
	C173	C	0.178946	0.114871	0.617676
	C174	C	0.818642	0.118687	0.394477
	C175	C	0.819737	0.871109	0.617205
	C176	C	0.386573	0.170469	0.886026
	C177	C	0.610380	0.176532	0.128886
	C178	C	0.387800	0.813894	0.128863
	C179	C	0.612152	0.812833	0.882906
	C180	C	0.388635	0.870666	0.187941
	C181	C	0.610347	0.119264	0.187365
	C182	C	0.387473	0.112943	0.827393
	C183	C	0.612906	0.871220	0.825330
	C184	C	0.877128	0.175932	0.394293
	C185	C	0.121183	0.172725	0.617950
	C186	C	0.124120	0.812715	0.394081
	C187	C	0.879005	0.814748	0.617912
	C188	C	0.176733	0.382319	0.883985
	C189	C	0.179467	0.605302	0.130513
	C190	C	0.817537	0.382314	0.128684
	C191	C	0.817773	0.606939	0.884206
	C192	C	0.402390	0.087224	0.604036
	C193	C	0.598115	0.901895	0.601703
	C194	C	0.596498	0.085976	0.410532
	C195	C	0.405672	0.902534	0.410674
	C196	C	0.594305	0.399063	0.098137
	C197	C	0.595741	0.590497	0.914747
	C198	C	0.401531	0.591005	0.097851
	C199	C	0.398956	0.395713	0.913816
	C200	C	0.090312	0.589541	0.409062
	C201	C	0.906212	0.592317	0.603096
	C202	C	0.090911	0.397548	0.604915
	C203	C	0.908580	0.397916	0.409775
	C204	C	0.902814	0.585237	0.101603
	C205	C	0.094523	0.401940	0.101096
	C206	C	0.094869	0.587114	0.909306
	C207	C	0.899717	0.401969	0.908129
	C208	C	0.098871	0.895933	0.597983
	C209	C	0.098750	0.091073	0.413158
	C210	C	0.904390	0.089807	0.596483
	C211	C	0.904693	0.898598	0.414657
	C212	C	0.592835	0.092816	0.907410
	C213	C	0.407642	0.090545	0.103405
	C214	C	0.589505	0.900241	0.100016
	C215	C	0.408112	0.895877	0.905714
	Zn216	Zn	0.501506	-0.005879	0.754543
	Zn217	Zn	0.500055	-0.005110	0.256395
	Zn218	Zn	0.748512	0.494663	0.006925
	Zn219	Zn	0.247510	0.494167	0.006401
	Zn220	Zn	0.000700	0.744089	0.505716
	Zn221	Zn	0.000891	0.244301	0.505717
	Zn222	Zn	-0.002582	0.494633	0.756624
	Zn223	Zn	-0.001010	0.492965	0.255367
	Zn224	Zn	0.498838	0.744431	0.005893
	Zn225	Zn	0.498112	0.244228	0.006496
	Zn226	Zn	0.750515	-0.005835	0.505612
	Zn227	Zn	0.251512	-0.006652	0.505924
	N228	N	0.416804	0.957130	0.682974
	N229	N	0.587716	0.030345	0.684766
	N230	N	0.588964	0.959976	0.323895
	N231	N	0.414213	0.030466	0.327449
	N232	N	0.677705	0.408028	0.970635
	N233	N	0.679309	0.582405	0.041926
	N234	N	0.317896	0.581116	0.970615
	N235	N	0.316214	0.405582	0.041720
	N236	N	0.963935	0.675114	0.417888
	N237	N	0.035978	0.671476	0.590538
	N238	N	0.963581	0.313998	0.592769
	N239	N	0.036556	0.315108	0.419718
	N240	N	0.962466	0.406999	0.686624
	N241	N	0.033135	0.582717	0.687712
	N242	N	0.963012	0.580175	0.325814
	N243	N	0.034610	0.405160	0.324112
	N244	N	0.412967	0.672794	0.969366
	N245	N	0.586124	0.675297	0.041897
	N246	N	0.582473	0.317044	0.969874
	N247	N	0.410451	0.313527	0.042217
	N248	N	0.680419	0.958812	0.418011
	N249	N	0.681289	0.029846	0.592875
	N250	N	0.319941	0.958603	0.594403
	N251	N	0.321522	0.029827	0.419577
	N252	N	0.911546	0.457513	0.185637
	N253	N	0.085445	0.529310	0.185635
	N254	N	0.082582	0.458171	0.827908
	N255	N	0.909564	0.530679	0.825407
	N256	N	0.181577	0.906285	0.470217
	N257	N	0.180084	0.080165	0.541360
	N258	N	0.819585	0.082014	0.469764
	N259	N	0.819755	0.906309	0.541246
	N260	N	0.462842	0.172263	0.920265
	N261	N	0.534849	0.174720	0.092969
	N262	N	0.462272	0.816291	0.091104
	N263	N	0.536002	0.813188	0.917788
	N264	N	0.463984	0.907423	0.186608
	N265	N	0.535179	0.082595	0.186913
	N266	N	0.464346	0.079689	0.825945
	N267	N	0.537258	0.907093	0.824983
	N268	N	0.913770	0.174367	0.469494
	N269	N	0.086764	0.173098	0.541757
	N270	N	0.088211	0.813482	0.469523
	N271	N	0.915540	0.815984	0.542665
	N272	N	0.177266	0.458680	0.919092
	N273	N	0.177949	0.529959	0.093211
	N274	N	0.818979	0.458006	0.092444
	N275	N	0.818189	0.530792	0.919599
	O276	O	0.356237	0.702915	0.433023
	H277	H	0.356265	0.704369	0.406701
	H278	H	0.350412	0.718491	0.441526
	O279	O	0.474966	0.408893	0.360835
	H280	H	0.495016	0.425281	0.350856
	H281	H	0.468297	0.397399	0.362653
	O282	O	0.615394	0.383017	0.567266
	H283	H	0.627146	0.381603	0.555822
	H284	H	0.617970	0.387520	0.567068
	O285	O	0.865331	1.053785	0.190918
	H286	H	0.857331	1.054107	0.208385
	H287	H	0.865892	1.082560	0.165427
	O288	O	0.466708	0.434222	0.699372
	H289	H	0.478433	0.418756	0.690243
	H290	H	0.467290	0.422627	0.701733
	O291	O	0.296838	0.478757	0.701210
	H292	H	0.287423	0.457738	0.701976
	H293	H	0.306808	0.458044	0.709592
	O294	O	1.193213	0.916245	0.816033
	H295	H	1.181577	0.907022	0.819617
	H296	H	1.206575	0.882136	0.805869
	O297	O	0.318002	0.683205	0.342630
	H298	H	0.325338	0.677931	0.341566
	H299	H	0.313327	0.652663	0.341970
	O300	O	0.650267	0.442522	0.482128
	H301	H	0.678913	0.430331	0.489777
	H302	H	0.647281	0.447389	0.499884
	O303	O	0.493428	0.379418	0.696841
	H304	H	0.499314	0.378120	0.684887
	H305	H	0.516709	0.372279	0.700366
	O306	O	0.084734	0.144317	0.917110
	H307	H	0.098520	0.136658	0.939870
	H308	H	0.089008	0.130962	0.910700
	O309	O	1.118496	-0.029688	-0.148008
	H310	H	1.122442	-0.038660	-0.142640
	H311	H	1.127855	-0.060249	-0.160005
	O312	O	0.579427	0.296851	0.299864
	H313	H	0.571802	0.298650	0.293800
	H314	H	0.566871	0.297777	0.298375
	O315	O	0.582928	0.654495	0.565883
	H316	H	0.581755	0.634150	0.595887
	H317	H	0.601150	0.675585	0.562218
	O318	O	-0.142708	0.183344	-0.030132
	H319	H	-0.120055	0.185868	-0.036609
	H320	H	-0.155269	0.199013	-0.047417
	O321	O	0.606147	0.427622	0.533749
	H322	H	0.601819	0.438629	0.507832
	H323	H	0.598093	0.439709	0.541979
	O324	O	0.285425	0.282014	0.532594
	H325	H	0.274264	0.270105	0.548277
	H326	H	0.277258	0.268685	0.566205
	O327	O	0.467259	0.627458	0.580352
	H328	H	0.450869	0.635674	0.574619
	H329	H	0.455017	0.620299	0.571661
	O330	O	-0.044547	0.918390	0.853508
	H331	H	-0.053203	0.920992	0.875785
	H332	H	-0.042055	0.904512	0.841776
	O333	O	-0.086982	1.064010	0.209785
	H334	H	-0.085194	1.068202	0.223919
	H335	H	-0.104410	1.038705	0.220692
	O336	O	1.075766	1.169922	0.079308
	H337	H	1.075654	1.172225	0.078009
	H338	H	1.075747	1.162805	0.092859
	O339	O	-0.049292	1.011172	1.076721
	H340	H	-0.031543	1.016456	1.073790
	H341	H	-0.045456	1.006427	1.087290
	O342	O	0.190022	0.968746	0.062394
	H343	H	0.198370	0.968685	0.080968
	H344	H	0.185772	0.956590	0.049559
	O345	O	-0.191417	0.037463	0.863634
	H346	H	-0.190794	0.044618	0.853833
	H347	H	-0.175245	0.050745	0.858643
	O348	O	0.698898	0.517044	0.317756
	H349	H	0.693287	0.495061	0.316866
	H350	H	0.720623	0.516059	0.307616
	O351	O	1.050997	0.941351	0.135788
	H352	H	1.066693	0.930069	0.142658
	H353	H	1.055326	0.943341	0.133514
	O354	O	0.896648	0.880237	1.000690
	H355	H	0.888477	0.882130	0.987109
	H356	H	0.898460	0.878950	0.989210
	O357	O	0.091078	-0.199808	-0.192473
	H358	H	0.083346	-0.205075	-0.191534
	H359	H	0.080151	-0.215069	-0.187368
	O360	O	0.306567	0.299888	0.697025
	H361	H	0.336523	0.291495	0.712961
	H362	H	0.308010	0.288021	0.719683
	O363	O	1.002588	-0.212290	0.125903
	H364	H	0.971532	-0.204684	0.129399
	H365	H	0.988807	-0.222448	0.146537
	O366	O	-0.138602	0.119698	1.070761
	H367	H	-0.127462	0.137037	1.060962
	H368	H	-0.133042	0.114523	1.069539
	O369	O	1.008175	-0.103745	0.973181
	H370	H	1.022659	-0.104180	0.976385
	H371	H	1.016155	-0.096571	0.967912
	O372	O	0.435221	0.503371	0.430368
	H373	H	0.425576	0.517311	0.434822
	H374	H	0.459774	0.495722	0.430435
	O375	O	0.328334	-0.291910	0.670658
	H376	H	0.330950	-0.312830	0.661665
	H377	H	0.334287	-0.297696	0.656792
	O378	O	0.598166	0.647909	0.417115
	H379	H	0.586947	0.644921	0.420909
	H380	H	0.613810	0.650623	0.420277
	O381	O	-0.139175	0.813906	0.186682
	H382	H	-0.140596	0.811884	0.159199
	H383	H	-0.152327	0.842661	0.196401
	O384	O	0.710145	0.512661	0.691848
	H385	H	0.725639	0.528982	0.711306
	H386	H	0.712116	0.509979	0.681798
	O387	O	0.470240	0.365709	0.384424
	H388	H	0.488272	0.362759	0.383212
	H389	H	0.466409	0.363966	0.387929
	O390	O	1.076234	0.953227	0.078902
	H391	H	1.083289	0.948967	0.101947
	H392	H	1.059767	0.932144	0.076657
	O393	O	1.154384	0.077931	0.955077
	H394	H	1.133304	0.063406	0.943986
	H395	H	1.150473	0.051953	0.971902
	O396	O	0.682689	0.665449	0.691829
	H397	H	0.637494	0.669987	0.696370
	H398	H	0.691012	0.650683	0.713431
	O399	O	0.687331	0.317314	0.380061
	H400	H	0.644526	0.314542	0.367345
	H401	H	0.700626	0.308261	0.410086
	O402	O	1.006439	1.182966	-0.129850
	H403	H	1.008190	1.187030	-0.137001
	H404	H	1.009107	1.179636	-0.117972
	O405	O	0.369772	0.444371	0.429926
	H406	H	0.376659	0.440514	0.416158
	H407	H	0.366639	0.441685	0.443042
	O408	O	0.294916	0.538231	0.305823
	H409	H	0.273841	0.535733	0.291813
	H410	H	0.303129	0.510099	0.319618
	O411	O	1.168251	1.007142	1.187300
	H412	H	1.161074	1.007000	1.187228
	H413	H	1.170157	1.000641	1.192821
	O414	O	0.488993	0.638648	0.296345
	H415	H	0.483326	0.659731	0.296002
	H416	H	0.480257	0.647194	0.301203
	O417	O	-0.044765	0.959370	0.982157
	H418	H	-0.044561	0.963502	0.984821
	H419	H	-0.027439	0.976924	0.996373
	O420	O	-0.167680	1.146029	0.843445
	H421	H	-0.169770	1.129707	0.847393
	H422	H	-0.137439	1.137107	0.844122
	O423	O	0.069882	1.078458	0.136217
	H424	H	0.052510	1.064089	0.142739
	H425	H	0.061479	1.094365	0.140277
	O426	O	0.475188	0.628869	0.671558
	H427	H	0.467279	0.630998	0.656567
	H428	H	0.464675	0.607525	0.681276
	O429	O	0.705508	0.607246	0.496774
	H430	H	0.714294	0.629327	0.504799
	H431	H	0.711369	0.610942	0.485527
	O432	O	0.552260	0.404075	0.603429
	H433	H	0.570618	0.418532	0.599242
	H434	H	0.566616	0.404314	0.585416
	O435	O	0.207201	-0.212865	-0.026371
	H436	H	0.219291	-0.231575	-0.037623
	H437	H	0.200053	-0.221380	-0.034086
	O438	O	-0.198201	0.920524	0.984320
	H439	H	-0.192706	0.931815	0.990218
	H440	H	-0.201617	0.940681	0.972955
	O441	O	0.402906	0.379515	0.499404
	H442	H	0.391265	0.383358	0.502845
	H443	H	0.405706	0.368300	0.500553
