data_Molecule from HDF5

_cell_length_a		16.615372
_cell_length_b		16.600686
_cell_length_c		16.570200
_cell_angle_alpha	89.973620
_cell_angle_beta	90.000950
_cell_angle_gamma	89.942071
_symmetry_space_group_name_H-M	'P 1'
_symmetry_Int_Tables_number		1

loop_
	_symmetry_equiv_pos_as_xyz
	x,y,z

loop_
	_atom_site_label
	_atom_site_type_symbol
	_atom_site_fract_x
	_atom_site_fract_y
	_atom_site_fract_z
	H0	H	0.420865	0.834531	0.722706
	H1	H	0.630511	0.147202	0.721297
	H2	H	0.630901	0.833757	0.279312
	H3	H	0.425666	0.147547	0.284259
	H4	H	0.747137	0.384027	0.844192
	H5	H	0.746736	0.595133	0.157153
	H6	H	0.303109	0.595213	0.845553
	H7	H	0.309809	0.389373	0.160543
	H8	H	0.869313	0.710550	0.397108
	H9	H	0.182746	0.709769	0.604435
	H10	H	0.871991	0.265108	0.610790
	H11	H	0.181882	0.271092	0.398790
	H12	H	0.872511	0.381225	0.726966
	H13	H	0.183771	0.592068	0.719755
	H14	H	0.867783	0.593567	0.281559
	H15	H	0.181501	0.388846	0.283246
	H16	H	0.419933	0.709900	0.844085
	H17	H	0.629788	0.710904	0.157234
	H18	H	0.631249	0.268681	0.844369
	H19	H	0.425669	0.271612	0.159313
	H20	H	0.748405	0.834298	0.394764
	H21	H	0.748847	0.144868	0.607733
	H22	H	0.305021	0.833856	0.605253
	H23	H	0.308904	0.147780	0.400708
	H24	H	0.920933	0.332640	0.220800
	H25	H	0.126931	0.647199	0.221227
	H26	H	0.131256	0.334411	0.780919
	H27	H	0.919438	0.644894	0.777589
	H28	H	0.245242	0.885713	0.343348
	H29	H	0.244728	0.093125	0.657856
	H30	H	0.801916	0.096375	0.346113
	H31	H	0.802457	0.882516	0.656438
	H32	H	0.368373	0.208813	0.899303
	H33	H	0.681522	0.212280	0.107947
	H34	H	0.370525	0.768850	0.106433
	H35	H	0.678950	0.764360	0.891159
	H36	H	0.370147	0.885458	0.221756
	H37	H	0.680714	0.096892	0.225111
	H38	H	0.367385	0.090252	0.785082
	H39	H	0.679627	0.881653	0.776180
	H40	H	0.920784	0.210030	0.344519
	H41	H	0.130306	0.210937	0.656548
	H42	H	0.128169	0.770319	0.342994
	H43	H	0.919961	0.767121	0.657058
	H44	H	0.245936	0.332922	0.899108
	H45	H	0.246586	0.645548	0.108258
	H46	H	0.804580	0.333616	0.104736
	H47	H	0.800159	0.643552	0.890803
	H48	H	0.430815	0.103908	0.591363
	H49	H	0.618855	0.877186	0.589221
	H50	H	0.604453	0.096818	0.415186
	H51	H	0.435590	0.877901	0.416733
	H52	H	0.619100	0.397464	0.115517
	H53	H	0.612374	0.577250	0.889653
	H54	H	0.440920	0.571588	0.108567
	H55	H	0.433843	0.394041	0.886756
	H56	H	0.138394	0.584900	0.411630
	H57	H	0.914164	0.577106	0.593872
	H58	H	0.136910	0.403152	0.591883
	H59	H	0.909945	0.395840	0.410009
	H60	H	0.137538	0.397552	0.589467
	H61	H	0.914213	0.581779	0.588594
	H62	H	0.134498	0.575487	0.415349
	H63	H	0.912781	0.398448	0.413869
	H64	H	0.441903	0.589682	0.115002
	H65	H	0.613272	0.577106	0.889709
	H66	H	0.615541	0.407213	0.110153
	H67	H	0.430540	0.404850	0.888622
	H68	H	0.621076	0.101157	0.421016
	H69	H	0.608365	0.879623	0.593622
	H70	H	0.435609	0.103008	0.594633
	H71	H	0.427765	0.874030	0.407642
	H72	H	0.933892	0.604071	0.097077
	H73	H	0.119484	0.377201	0.089016
	H74	H	0.115388	0.601055	0.914312
	H75	H	0.934472	0.375973	0.908139
	H76	H	0.111532	0.901975	0.610485
	H77	H	0.117245	0.079061	0.387979
	H78	H	0.941741	0.073304	0.608923
	H79	H	0.936147	0.903311	0.390547
	H80	H	0.640521	0.083675	0.904383
	H81	H	0.414633	0.081464	0.089633
	H82	H	0.639502	0.901318	0.093342
	H83	H	0.411398	0.895514	0.907830
	H84	H	0.637502	0.897054	0.085535
	H85	H	0.413944	0.079812	0.091491
	H86	H	0.637456	0.084106	0.916680
	H87	H	0.416109	0.899430	0.920266
	H88	H	0.939662	0.081339	0.612682
	H89	H	0.115471	0.082141	0.387995
	H90	H	0.115623	0.893126	0.614649
	H91	H	0.940040	0.902739	0.391161
	H92	H	0.115834	0.602155	0.911320
	H93	H	0.119638	0.374683	0.097312
	H94	H	0.941414	0.599635	0.090366
	H95	H	0.946840	0.382037	0.914368
	H96	H	0.435048	0.101388	0.589166
	H97	H	0.610636	0.882441	0.582305
	H98	H	0.616393	0.104663	0.403442
	H99	H	0.440149	0.876635	0.405323
	H100	H	0.608212	0.398322	0.110795
	H101	H	0.612617	0.576934	0.890134
	H102	H	0.425633	0.579816	0.117116
	H103	H	0.440962	0.401750	0.891223
	H104	H	0.137803	0.576262	0.405135
	H105	H	0.917031	0.575293	0.587705
	H106	H	0.135407	0.402390	0.586026
	H107	H	0.912286	0.400952	0.409367
	H108	H	0.931285	0.601798	0.086370
	H109	H	0.112827	0.378536	0.093829
	H110	H	0.113416	0.601215	0.912618
	H111	H	0.934195	0.380769	0.921965
	H112	H	0.121678	0.902091	0.613273
	H113	H	0.118436	0.081654	0.386609
	H114	H	0.933097	0.074326	0.613063
	H115	H	0.937752	0.899390	0.389695
	H116	H	0.636506	0.072788	0.909981
	H117	H	0.413460	0.082318	0.091681
	H118	H	0.634241	0.905860	0.087034
	H119	H	0.416172	0.908714	0.909619
	C120	C	0.403067	-0.001186	0.623072
	C121	C	0.646145	0.982267	0.621714
	C122	C	0.646898	-0.001934	0.379930
	C123	C	0.404446	0.980852	0.379956
	C124	C	0.646712	0.368537	0.008960
	C125	C	0.645973	0.610452	0.992510
	C126	C	0.403404	0.611950	0.009977
	C127	C	0.405096	0.369547	0.993495
	C128	C	0.033336	0.610776	0.379377
	C129	C	1.018302	0.610540	0.622275
	C130	C	0.034466	0.368043	0.622858
	C131	C	1.015676	0.367873	0.379865
	C132	C	0.903586	0.498187	0.122605
	C133	C	0.147020	0.481025	0.124068
	C134	C	0.146750	0.497983	0.881425
	C135	C	0.904877	0.481523	0.879918
	C136	C	0.147036	0.868407	0.508814
	C137	C	0.147531	0.111702	0.491785
	C138	C	0.904819	0.110132	0.509140
	C139	C	0.904539	0.868352	0.493037
	C140	C	0.533895	0.111087	0.880086
	C141	C	0.517269	0.112291	0.122935
	C142	C	0.534004	0.869239	0.120948
	C143	C	0.516403	0.867541	0.878302
	C144	C	0.402160	0.881138	0.682533
	C145	C	0.648995	0.099637	0.681853
	C146	C	0.649606	0.880578	0.319374
	C147	C	0.405551	0.100049	0.322910
	C148	C	0.706930	0.366298	0.891342
	C149	C	0.706688	0.613401	0.109983
	C150	C	0.343281	0.613373	0.892427
	C151	C	0.348246	0.369419	0.112817
	C152	C	0.915828	0.670417	0.378483
	C153	C	0.136044	0.669488	0.623137
	C154	C	0.918416	0.305863	0.627848
	C155	C	0.134462	0.310334	0.379606
	C156	C	0.918616	0.363787	0.685456
	C157	C	0.136606	0.611087	0.680440
	C158	C	0.915215	0.612479	0.320851
	C159	C	0.134434	0.368710	0.322192
	C160	C	0.401361	0.670625	0.891725
	C161	C	0.648400	0.670834	0.110162
	C162	C	0.649396	0.308496	0.891267
	C163	C	0.405868	0.311163	0.112195
	C164	C	0.707781	0.880869	0.376935
	C165	C	0.707709	0.098692	0.625120
	C166	C	0.344795	0.880624	0.624186
	C167	C	0.347602	0.100094	0.380779
	C168	C	0.902107	0.380009	0.181401
	C169	C	0.146774	0.599415	0.182408
	C170	C	0.149079	0.380555	0.821568
	C171	C	0.901252	0.598077	0.817847
	C172	C	0.205686	0.866931	0.390342
	C173	C	0.205903	0.112346	0.610231
	C174	C	0.843352	0.113771	0.392156
	C175	C	0.843311	0.864846	0.609837
	C176	C	0.415645	0.169362	0.880167
	C177	C	0.634722	0.172202	0.125812
	C178	C	0.417287	0.808790	0.124191
	C179	C	0.632763	0.805646	0.874080
	C180	C	0.417117	0.866899	0.181543
	C181	C	0.634387	0.114720	0.183910
	C182	C	0.414991	0.110360	0.823474
	C183	C	0.633078	0.864019	0.816968
	C184	C	0.902295	0.170306	0.391644
	C185	C	0.148942	0.170984	0.609694
	C186	C	0.147613	0.809582	0.390317
	C187	C	0.901792	0.807531	0.610055
	C188	C	0.206007	0.379997	0.880259
	C189	C	0.206061	0.598931	0.126117
	C190	C	0.844361	0.380421	0.123564
	C191	C	0.842115	0.597351	0.874411
	C192	C	0.426992	0.081246	0.598660
	C193	C	0.620115	0.900832	0.595719
	C194	C	0.621324	0.079596	0.405620
	C195	C	0.427759	0.897718	0.403297
	C196	C	0.621532	0.393731	0.090884
	C197	C	0.620198	0.584520	0.910934
	C198	C	0.428839	0.587407	0.092202
	C199	C	0.428343	0.393562	0.910634
	C200	C	0.115464	0.585814	0.403769
	C201	C	0.936344	0.585329	0.597253
	C202	C	0.115485	0.393864	0.596627
	C203	C	0.933198	0.391531	0.403968
	C204	C	0.928349	0.580553	0.098092
	C205	C	0.123944	0.398363	0.100203
	C206	C	0.121916	0.579987	0.905798
	C207	C	0.931174	0.400633	0.907033
	C208	C	0.123403	0.892224	0.591286
	C209	C	0.123702	0.087813	0.409034
	C210	C	0.930646	0.083820	0.590329
	C211	C	0.930464	0.894439	0.411441
	C212	C	0.616583	0.087046	0.903593
	C213	C	0.435448	0.087941	0.098000
	C214	C	0.615837	0.894410	0.095638
	C215	C	0.435436	0.893828	0.904842
	Zn216	Zn	0.525552	-0.009694	0.750863
	Zn217	Zn	0.526381	-0.010596	0.250798
	Zn218	Zn	0.775247	0.489703	0.000461
	Zn219	Zn	0.275486	0.490046	0.002596
	Zn220	Zn	0.025898	0.739381	0.500609
	Zn221	Zn	0.024969	0.239274	0.501330
	Zn222	Zn	0.026357	0.489579	0.751346
	Zn223	Zn	0.024277	0.489523	0.251293
	Zn224	Zn	0.525721	0.739596	0.000528
	Zn225	Zn	0.526393	0.240124	0.001157
	Zn226	Zn	0.775388	-0.010395	0.501019
	Zn227	Zn	0.275298	-0.010660	0.500408
	N228	N	0.437624	0.955775	0.682011
	N229	N	0.611111	0.026119	0.679827
	N230	N	0.612463	0.954576	0.321046
	N231	N	0.439994	0.024778	0.321943
	N232	N	0.705593	0.402931	0.965687
	N233	N	0.705649	0.576875	0.035732
	N234	N	0.344310	0.577717	0.967187
	N235	N	0.347475	0.404826	0.037870
	N236	N	0.990389	0.669422	0.414264
	N237	N	0.061396	0.669289	0.587711
	N238	N	0.991434	0.308500	0.589309
	N239	N	0.059484	0.309361	0.414325
	N240	N	0.991804	0.401693	0.682503
	N241	N	0.062079	0.575445	0.680344
	N242	N	0.989270	0.575879	0.321469
	N243	N	0.059282	0.403296	0.321713
	N244	N	0.437994	0.670143	0.966038
	N245	N	0.611600	0.669216	0.035973
	N246	N	0.612654	0.309855	0.965428
	N247	N	0.440101	0.310868	0.036781
	N248	N	0.706193	0.954966	0.413661
	N249	N	0.705950	0.024584	0.588414
	N250	N	0.345142	0.954982	0.587962
	N251	N	0.346406	0.024741	0.414899
	N252	N	0.938282	0.454332	0.180905
	N253	N	0.110716	0.525078	0.181281
	N254	N	0.113031	0.454908	0.822101
	N255	N	0.939714	0.524881	0.821218
	N256	N	0.205546	0.902964	0.465017
	N257	N	0.205253	0.076198	0.535744
	N258	N	0.844553	0.077055	0.466351
	N259	N	0.844754	0.901996	0.535731
	N260	N	0.490802	0.169978	0.914527
	N261	N	0.560988	0.170788	0.088455
	N262	N	0.491058	0.810360	0.087088
	N263	N	0.559148	0.807660	0.911575
	N264	N	0.490865	0.904034	0.179838
	N265	N	0.560423	0.078066	0.182431
	N266	N	0.489787	0.075088	0.823062
	N267	N	0.559819	0.901954	0.819422
	N268	N	0.939702	0.168221	0.465446
	N269	N	0.113580	0.170822	0.534903
	N270	N	0.111962	0.810182	0.464914
	N271	N	0.939130	0.809601	0.536246
	N272	N	0.204887	0.454089	0.916711
	N273	N	0.206384	0.524227	0.090481
	N274	N	0.845122	0.455036	0.087766
	N275	N	0.844166	0.523866	0.912327
	O276	O	-0.004084	1.074012	0.114676
	H277	H	0.000638	1.065851	0.099717
	H278	H	0.004211	1.064856	0.108586
	O279	O	0.786161	0.698744	0.283561
	H280	H	0.769861	0.673450	0.305946
	H281	H	0.806942	0.693956	0.276903
	O282	O	0.761559	0.377141	0.607577
	H283	H	0.763862	0.369935	0.618623
	H284	H	0.756580	0.357301	0.596269
	O285	O	-0.028836	1.042865	1.227754
	H286	H	-0.016160	1.033281	1.224478
	H287	H	-0.034649	1.034470	1.230163
	O288	O	-0.201630	0.006026	0.984146
	H289	H	-0.204990	0.001281	0.989760
	H290	H	-0.200334	-0.014987	1.002819
	O291	O	0.506141	0.696941	0.539914
	H292	H	0.509301	0.695432	0.532166
	H293	H	0.497614	0.696590	0.524655
	O294	O	0.310060	0.483057	0.475537
	H295	H	0.304275	0.501379	0.486154
	H296	H	0.317738	0.501737	0.463051
	O297	O	0.501661	0.697597	0.314601
	H298	H	0.501723	0.691297	0.321007
	H299	H	0.499383	0.708044	0.312290
	O300	O	-0.682319	0.524445	0.518539
	H301	H	-0.681712	0.520598	0.535824
	H302	H	-0.685426	0.551369	0.530613
	O303	O	0.307910	0.706318	0.465846
	H304	H	0.300867	0.715505	0.444739
	H305	H	0.296466	0.719380	0.436277
	O306	O	0.557045	0.508046	0.677438
	H307	H	0.553156	0.507707	0.676023
	H308	H	0.535730	0.495600	0.673230
	O309	O	0.314126	0.524427	0.291741
	H310	H	0.308676	0.518858	0.278996
	H311	H	0.319065	0.522515	0.292113
	O312	O	0.551127	0.273936	0.464002
	H313	H	0.557094	0.270412	0.471870
	H314	H	0.567783	0.272649	0.460118
	O315	O	0.833812	1.177195	0.816092
	H316	H	0.840239	1.172913	0.842504
	H317	H	0.845341	1.148282	0.822802
	O318	O	1.250318	0.215146	0.037771
	H319	H	1.277092	0.241919	0.044491
	H320	H	1.249833	0.211490	0.080794
	O321	O	0.070831	1.211970	1.220140
	H322	H	0.049802	1.209558	1.228150
	H323	H	0.070053	1.220283	1.230336
	O324	O	0.967362	1.214571	0.060796
	H325	H	0.973970	1.216504	0.048866
	H326	H	0.970449	1.208404	0.059498
	O327	O	0.071997	0.030586	0.868245
	H328	H	0.073086	0.023883	0.871009
	H329	H	0.084165	0.015422	0.865921
	O330	O	0.724447	0.687739	0.700472
	H331	H	0.699836	0.694798	0.703739
	H332	H	0.714366	0.648441	0.703064
	O333	O	0.062824	0.766452	0.781230
	H334	H	0.062009	0.773362	0.766229
	H335	H	0.063908	0.750804	0.764951
	O336	O	0.494629	0.494777	0.506201
	H337	H	0.484359	0.487661	0.504865
	H338	H	0.497407	0.488915	0.513944
	O339	O	0.833890	-0.065113	1.211281
	H340	H	0.838056	-0.086238	1.219064
	H341	H	0.828107	-0.070950	1.222770
	O342	O	0.233794	-0.026203	-0.208785
	H343	H	0.231559	-0.037399	-0.203638
	H344	H	0.245371	-0.026043	-0.222637
	O345	O	-0.493410	1.493683	1.421945
	H346	H	-0.488446	1.491676	1.424116
	H347	H	-0.489181	1.487340	1.428293
	O348	O	0.730752	0.286662	0.298170
	H349	H	0.721737	0.302865	0.310808
	H350	H	0.756672	0.266416	0.268452
	O351	O	0.921984	0.014582	1.021954
	H352	H	0.917632	0.007189	1.019896
	H353	H	0.937544	0.005694	1.031093
	O354	O	0.171631	0.001160	0.968013
	H355	H	0.171513	-0.012452	0.982826
	H356	H	0.180549	0.014300	0.981051
	O357	O	0.335569	0.301072	0.315374
	H358	H	0.350946	0.317997	0.338325
	H359	H	0.357875	0.319823	0.331889
	O360	O	0.665760	0.628595	0.574419
	H361	H	0.683273	0.639635	0.583053
	H362	H	0.659114	0.627726	0.596600
	O363	O	-0.036563	-0.244189	-0.056125
	H364	H	-0.043936	-0.249320	-0.073712
	H365	H	-0.048066	-0.247554	-0.066209
	O366	O	0.495510	0.373354	0.470219
	H367	H	0.501198	0.366367	0.481528
	H368	H	0.483882	0.366933	0.489577
	O369	O	1.480920	0.265605	-0.276368
	H370	H	1.495631	0.267386	-0.255802
	H371	H	1.460589	0.256785	-0.264106
	O372	O	0.845087	1.018742	-0.180288
	H373	H	0.822518	1.012174	-0.184178
	H374	H	0.847484	1.015782	-0.172843
	O375	O	0.818165	-0.126214	-0.106997
	H376	H	0.813486	-0.133699	-0.094265
	H377	H	0.815872	-0.133464	-0.107016
	O378	O	-0.689272	0.278808	0.540599
	H379	H	-0.703139	0.256418	0.537076
	H380	H	-0.697905	0.289822	0.547224
	O381	O	0.164862	0.985036	0.946207
	H382	H	0.165410	0.981950	0.949274
	H383	H	0.172120	0.979121	0.956495
	O384	O	1.031386	-0.037746	0.806345
	H385	H	1.027282	-0.032113	0.802745
	H386	H	1.028592	-0.038840	0.818822
	O387	O	0.823071	1.195907	-0.033921
	H388	H	0.821643	1.194268	-0.024974
	H389	H	0.811949	1.187794	-0.022485
	O390	O	0.545773	0.290143	0.294584
	H391	H	0.566319	0.283989	0.298027
	H392	H	0.551201	0.285698	0.295804
	O393	O	0.935044	0.795544	0.186244
	H394	H	0.941128	0.783946	0.186872
	H395	H	0.944934	0.809839	0.189772
	O396	O	0.206454	1.168010	0.832643
	H397	H	0.171467	1.161430	0.841989
	H398	H	0.198180	1.145272	0.854395
	O399	O	-0.012946	-0.102539	1.133040
	H400	H	-0.022013	-0.111996	1.138661
	H401	H	0.001321	-0.112186	1.120116
	O402	O	0.828113	0.117975	0.191166
	H403	H	0.839118	0.082778	0.185879
	H404	H	0.840603	0.115539	0.182440
	O405	O	0.800105	-0.233354	1.025780
	H406	H	0.799138	-0.239508	1.042524
	H407	H	0.784652	-0.248578	1.045325
	O408	O	0.151631	0.122340	-0.009148
	H409	H	0.159964	0.141257	-0.022826
	H410	H	0.161318	0.131875	-0.009177
	O411	O	0.671241	0.296464	0.639643
	H412	H	0.672026	0.310108	0.631294
	H413	H	0.688462	0.271503	0.664014
	O414	O	0.740305	0.503519	0.483566
	H415	H	0.733320	0.500690	0.495463
	H416	H	0.737481	0.510922	0.509097
	O417	O	-0.549396	0.565978	0.692638
	H418	H	-0.561058	0.547416	0.709740
	H419	H	-0.571410	0.560666	0.670941
	O420	O	0.131123	0.932514	1.186035
	H421	H	0.151141	0.941160	1.193000
	H422	H	0.120080	0.948102	1.190630
	O423	O	0.091475	0.172630	0.858623
	H424	H	0.069951	0.181046	0.864094
	H425	H	0.077767	0.176551	0.842725
	O426	O	0.305381	0.453477	0.722652
	H427	H	0.296285	0.425502	0.730410
	H428	H	0.288652	0.442008	0.736887
	O429	O	1.253963	1.026131	1.225700
	H430	H	1.288299	1.026722	1.256595
	H431	H	1.248479	1.057232	1.215603
	O432	O	0.231823	0.782909	0.794889
	H433	H	0.249476	0.765228	0.773531
	H434	H	0.211865	0.793748	0.802809
	O435	O	-0.281127	0.679340	0.387038
	H436	H	-0.276049	0.667530	0.397177
	H437	H	-0.303442	0.665794	0.403483
	O438	O	-0.414025	0.648217	-0.573917
	H439	H	-0.408523	0.652271	-0.567224
	H440	H	-0.405165	0.633637	-0.559253
	O441	O	0.221172	-0.181948	0.170049
	H442	H	0.196580	-0.184484	0.151414
	H443	H	0.214047	-0.161631	0.157188
	O444	O	0.572335	0.614427	0.333800
	H445	H	0.577604	0.602322	0.337401
	H446	H	0.589666	0.610180	0.327941
	O447	O	0.084758	0.764488	1.052020
	H448	H	0.093041	0.758366	1.035719
	H449	H	0.096605	0.762436	1.027801
	O450	O	-0.015508	1.015458	0.986347
	H451	H	-0.016298	1.013870	0.976148
	H452	H	-0.007805	1.006185	0.997532
	O453	O	0.321542	-0.303800	1.297065
	H454	H	0.298272	-0.294655	1.269423
	H455	H	0.347184	-0.325630	1.292385
	O456	O	-0.005076	0.075540	0.858443
	H457	H	-0.007046	0.075484	0.856222
	H458	H	0.009098	0.071440	0.856547
	O459	O	0.238890	0.200357	0.210745
	H460	H	0.267795	0.233427	0.246467
	H461	H	0.197372	0.195455	0.216303
	O462	O	0.733650	0.460432	0.286185
	H463	H	0.744572	0.452887	0.283974
	H464	H	0.747161	0.464940	0.292010
	O465	O	0.901009	-0.145426	-0.200485
	H466	H	0.904051	-0.128522	-0.198826
	H467	H	0.887483	-0.150985	-0.198806
	O468	O	0.374217	0.680398	0.656997
	H469	H	0.388866	0.671074	0.642377
	H470	H	0.380667	0.663544	0.641343
	O471	O	0.502841	0.472244	0.276181
	H472	H	0.508233	0.467780	0.272067
	H473	H	0.499255	0.473554	0.278896
	O474	O	0.719859	0.276504	0.483124
	H475	H	0.725057	0.273040	0.477940
	H476	H	0.724342	0.262574	0.471752
	O477	O	0.236487	-0.227426	0.975844
	H478	H	0.240880	-0.206468	0.968812
	H479	H	0.259942	-0.246185	0.953750
	O480	O	0.567924	0.378642	0.628706
	H481	H	0.572124	0.378129	0.629372
	H482	H	0.585532	0.383338	0.628940
	O483	O	0.316147	1.284166	-0.290135
	H484	H	0.287400	1.258733	-0.261642
	H485	H	0.337691	1.274398	-0.312893
	O486	O	0.739712	0.517121	0.708749
	H487	H	0.753234	0.514859	0.731354
	H488	H	0.723913	0.508645	0.699147
	O489	O	1.555614	0.674803	-0.306955
	H490	H	1.543219	0.678285	-0.294981
	H491	H	1.545924	0.684597	-0.315149
