data_Molecule from HDF5

_cell_length_a		16.331612
_cell_length_b		16.308823
_cell_length_c		16.283126
_cell_angle_alpha	89.896425
_cell_angle_beta	90.035363
_cell_angle_gamma	90.078274
_symmetry_space_group_name_H-M	'P 1'
_symmetry_Int_Tables_number		1

loop_
	_symmetry_equiv_pos_as_xyz
	x,y,z

loop_
	_atom_site_label
	_atom_site_type_symbol
	_atom_site_fract_x
	_atom_site_fract_y
	_atom_site_fract_z
	H0	H	0.405385	0.842541	0.708585
	H1	H	0.601676	0.169634	0.707948
	H2	H	0.600185	0.841657	0.281040
	H3	H	0.405643	0.168962	0.279890
	H4	H	0.719033	0.407556	0.830887
	H5	H	0.719184	0.604591	0.158470
	H6	H	0.289958	0.603980	0.830701
	H7	H	0.290253	0.408133	0.158190
	H8	H	0.840799	0.720140	0.394522
	H9	H	0.165497	0.720631	0.594276
	H10	H	0.840981	0.289710	0.593106
	H11	H	0.167738	0.291201	0.397028
	H12	H	0.840620	0.406074	0.709461
	H13	H	0.166395	0.603203	0.708270
	H14	H	0.840789	0.602932	0.279557
	H15	H	0.167193	0.407947	0.280500
	H16	H	0.405775	0.720268	0.830787
	H17	H	0.602126	0.720288	0.158337
	H18	H	0.602552	0.291550	0.830613
	H19	H	0.407047	0.291402	0.157772
	H20	H	0.717824	0.842237	0.396877
	H21	H	0.718785	0.169391	0.592809
	H22	H	0.289300	0.842872	0.591748
	H23	H	0.288982	0.169310	0.395645
	H24	H	0.905228	0.342323	0.208545
	H25	H	0.102233	0.669603	0.208853
	H26	H	0.102075	0.342487	0.780748
	H27	H	0.905410	0.668627	0.778608
	H28	H	0.217991	0.906228	0.330567
	H29	H	0.218785	0.103675	0.657624
	H30	H	0.789985	0.103229	0.330759
	H31	H	0.788913	0.905891	0.658001
	H32	H	0.341380	0.220929	0.894426
	H33	H	0.667354	0.220258	0.093429
	H34	H	0.340758	0.790383	0.092929
	H35	H	0.667339	0.791990	0.896442
	H36	H	0.340177	0.907044	0.208252
	H37	H	0.666783	0.103387	0.209116
	H38	H	0.340578	0.103934	0.779910
	H39	H	0.667442	0.908482	0.780312
	H40	H	0.906293	0.218961	0.330598
	H41	H	0.102743	0.218890	0.658040
	H42	H	0.101867	0.789936	0.331383
	H43	H	0.904814	0.789947	0.657791
	H44	H	0.218513	0.343107	0.896989
	H45	H	0.219515	0.669323	0.094156
	H46	H	0.788144	0.342889	0.094126
	H47	H	0.788253	0.668839	0.894237
	H48	H	0.420355	0.121077	0.591725
	H49	H	0.597995	0.888535	0.589766
	H50	H	0.597080	0.121351	0.404253
	H51	H	0.405974	0.890330	0.406900
	H52	H	0.597568	0.420120	0.108367
	H53	H	0.592671	0.606405	0.877755
	H54	H	0.412575	0.599470	0.110391
	H55	H	0.405274	0.412898	0.876560
	H56	H	0.118756	0.591133	0.398453
	H57	H	0.889140	0.594825	0.584699
	H58	H	0.122144	0.411003	0.595434
	H59	H	0.889257	0.414257	0.402724
	H60	H	0.120094	0.404542	0.582857
	H61	H	0.885713	0.596978	0.591702
	H62	H	0.122678	0.604978	0.397124
	H63	H	0.887056	0.411608	0.397978
	H64	H	0.409905	0.599340	0.111579
	H65	H	0.605836	0.599877	0.875489
	H66	H	0.590036	0.409395	0.109385
	H67	H	0.412954	0.416797	0.879579
	H68	H	0.599642	0.122564	0.399099
	H69	H	0.593575	0.891004	0.588555
	H70	H	0.409198	0.119865	0.577390
	H71	H	0.406438	0.887049	0.395793
	H72	H	0.907108	0.621477	0.083713
	H73	H	0.091980	0.390893	0.090008
	H74	H	0.094004	0.624634	0.891451
	H75	H	0.908483	0.391076	0.909027
	H76	H	0.105074	0.918938	0.611287
	H77	H	0.095060	0.112550	0.374480
	H78	H	0.912172	0.105569	0.612936
	H79	H	0.911604	0.910289	0.377578
	H80	H	0.620782	0.101598	0.900925
	H81	H	0.388462	0.092578	0.089958
	H82	H	0.621497	0.909389	0.089415
	H83	H	0.384250	0.906299	0.895360
	H84	H	0.618639	0.912722	0.084007
	H85	H	0.385510	0.104201	0.089573
	H86	H	0.619260	0.097996	0.903903
	H87	H	0.389935	0.909336	0.909596
	H88	H	0.903054	0.094056	0.612299
	H89	H	0.109661	0.092400	0.375858
	H90	H	0.087634	0.915719	0.606956
	H91	H	0.907331	0.913355	0.377702
	H92	H	0.090327	0.618267	0.907534
	H93	H	0.098906	0.390816	0.081495
	H94	H	0.911345	0.623546	0.091588
	H95	H	0.905932	0.386554	0.897690
	H96	H	0.403132	0.126462	0.593136
	H97	H	0.597497	0.890467	0.585425
	H98	H	0.594005	0.121769	0.399337
	H99	H	0.415820	0.891308	0.401207
	H100	H	0.602428	0.408746	0.113610
	H101	H	0.594057	0.591952	0.881981
	H102	H	0.411282	0.597086	0.110278
	H103	H	0.412773	0.408353	0.877017
	H104	H	0.118066	0.599965	0.409396
	H105	H	0.886265	0.602189	0.585860
	H106	H	0.117118	0.418634	0.584544
	H107	H	0.887735	0.408402	0.402737
	H108	H	0.916063	0.620025	0.084570
	H109	H	0.102250	0.387745	0.091638
	H110	H	0.106223	0.624775	0.903791
	H111	H	0.917307	0.390864	0.900294
	H112	H	0.098039	0.902553	0.613753
	H113	H	0.085899	0.091210	0.382769
	H114	H	0.916907	0.093144	0.607170
	H115	H	0.911599	0.914440	0.379979
	H116	H	0.620261	0.097435	0.898620
	H117	H	0.389967	0.099396	0.079656
	H118	H	0.618712	0.916278	0.090408
	H119	H	0.389647	0.920459	0.899017
	C120	C	0.382436	0.014547	0.615614
	C121	C	0.625242	0.997814	0.616425
	C122	C	0.624968	0.013820	0.372813
	C123	C	0.381114	0.997369	0.372613
	C124	C	0.625165	0.384367	0.002526
	C125	C	0.625732	0.627703	0.986597
	C126	C	0.382907	0.627239	0.002608
	C127	C	0.382386	0.384188	0.985889
	C128	C	0.011989	0.626755	0.372944
	C129	C	0.994943	0.626519	0.616012
	C130	C	0.012217	0.382619	0.616720
	C131	C	0.995820	0.383292	0.373119
	C132	C	0.882191	0.513995	0.115955
	C133	C	0.126068	0.497894	0.116530
	C134	C	0.125231	0.514563	0.873192
	C135	C	0.882384	0.497386	0.873123
	C136	C	0.125205	0.883906	0.502781
	C137	C	0.125189	0.126686	0.485956
	C138	C	0.882447	0.126275	0.502698
	C139	C	0.881889	0.883982	0.486486
	C140	C	0.512176	0.127196	0.872701
	C141	C	0.495750	0.127203	0.115364
	C142	C	0.511894	0.883505	0.116521
	C143	C	0.495939	0.884379	0.872910
	C144	C	0.384724	0.891321	0.670651
	C145	C	0.622432	0.120984	0.670440
	C146	C	0.621479	0.890643	0.318567
	C147	C	0.384325	0.120351	0.317482
	C148	C	0.680526	0.387123	0.879536
	C149	C	0.680883	0.625059	0.109739
	C150	C	0.327794	0.624831	0.879684
	C151	C	0.327816	0.387224	0.109269
	C152	C	0.889378	0.681758	0.374837
	C153	C	0.117352	0.682110	0.614026
	C154	C	0.889517	0.327780	0.613904
	C155	C	0.118863	0.329170	0.376411
	C156	C	0.889351	0.385702	0.671520
	C157	C	0.117653	0.623684	0.670623
	C158	C	0.889441	0.623733	0.317552
	C159	C	0.118711	0.387104	0.318746
	C160	C	0.385396	0.682284	0.879603
	C161	C	0.622769	0.682506	0.109682
	C162	C	0.622675	0.329724	0.879326
	C163	C	0.385350	0.328951	0.108990
	C164	C	0.679697	0.890830	0.376038
	C165	C	0.680757	0.120635	0.613399
	C166	C	0.327073	0.891472	0.612876
	C167	C	0.326771	0.120625	0.375230
	C168	C	0.884351	0.391240	0.170992
	C169	C	0.123066	0.620599	0.171411
	C170	C	0.122866	0.391449	0.818579
	C171	C	0.884612	0.620053	0.816979
	C172	C	0.180173	0.886083	0.379596
	C173	C	0.181082	0.124424	0.608914
	C174	C	0.827413	0.124145	0.379593
	C175	C	0.826877	0.885854	0.609317
	C176	C	0.389702	0.182621	0.874370
	C177	C	0.618688	0.181981	0.113139
	C178	C	0.389314	0.828458	0.113374
	C179	C	0.618568	0.829650	0.875629
	C180	C	0.389134	0.886446	0.170702
	C181	C	0.618204	0.124404	0.170944
	C182	C	0.389324	0.124414	0.817625
	C183	C	0.618540	0.887457	0.817954
	C184	C	0.885244	0.181434	0.379638
	C185	C	0.122990	0.181263	0.609342
	C186	C	0.122391	0.828358	0.379832
	C187	C	0.884814	0.828650	0.609334
	C188	C	0.180552	0.391655	0.876275
	C189	C	0.181075	0.620692	0.114167
	C190	C	0.826315	0.391429	0.113966
	C191	C	0.826700	0.620234	0.874598
	C192	C	0.404350	0.100207	0.593821
	C193	C	0.603001	0.911964	0.594328
	C194	C	0.603349	0.099764	0.394394
	C195	C	0.402903	0.911689	0.394716
	C196	C	0.603247	0.406314	0.088185
	C197	C	0.603787	0.605855	0.900569
	C198	C	0.404781	0.605133	0.088587
	C199	C	0.403969	0.406178	0.900003
	C200	C	0.097642	0.604960	0.395133
	C201	C	0.909115	0.604559	0.593745
	C202	C	0.097854	0.404904	0.594454
	C203	C	0.910095	0.405076	0.394753
	C204	C	0.904862	0.599633	0.093402
	C205	C	0.104148	0.412003	0.094398
	C206	C	0.103378	0.600358	0.894853
	C207	C	0.904276	0.411747	0.895769
	C208	C	0.103511	0.906000	0.588628
	C209	C	0.103270	0.105108	0.399984
	C210	C	0.904289	0.104162	0.588551
	C211	C	0.903762	0.906216	0.400543
	C212	C	0.597676	0.105350	0.894622
	C213	C	0.410188	0.105263	0.092892
	C214	C	0.597562	0.906040	0.094462
	C215	C	0.410162	0.905780	0.894850
	Zn216	Zn	0.503800	0.006310	0.744631
	Zn217	Zn	0.503294	0.005584	0.244247
	Zn218	Zn	0.753632	0.505952	-0.005247
	Zn219	Zn	0.253975	0.506577	-0.005327
	Zn220	Zn	0.003525	0.755240	0.494524
	Zn221	Zn	0.004049	0.254505	0.494729
	Zn222	Zn	0.003597	0.505045	0.744552
	Zn223	Zn	0.003893	0.505163	0.244319
	Zn224	Zn	0.503899	0.755630	-0.005661
	Zn225	Zn	0.503972	0.255542	-0.006453
	Zn226	Zn	0.753570	0.005673	0.494748
	Zn227	Zn	0.253502	0.005983	0.494251
	N228	N	0.418618	0.968605	0.672438
	N229	N	0.588851	0.043695	0.672420
	N230	N	0.588027	0.967916	0.316773
	N231	N	0.417511	0.042864	0.315741
	N232	N	0.682274	0.420523	0.956988
	N233	N	0.682717	0.591713	0.032263
	N234	N	0.326125	0.591328	0.957208
	N235	N	0.325696	0.420617	0.031660
	N236	N	0.966580	0.683761	0.408489
	N237	N	0.039948	0.683925	0.580683
	N238	N	0.966756	0.325887	0.580502
	N239	N	0.041387	0.326801	0.409515
	N240	N	0.966714	0.419073	0.673336
	N241	N	0.040596	0.589681	0.671640
	N242	N	0.966580	0.590143	0.316457
	N243	N	0.041296	0.420056	0.316457
	N244	N	0.419038	0.683784	0.957101
	N245	N	0.589469	0.684403	0.032014
	N246	N	0.589182	0.327743	0.956816
	N247	N	0.418629	0.327104	0.031471
	N248	N	0.682039	0.968418	0.408996
	N249	N	0.682427	0.042967	0.580421
	N250	N	0.325559	0.968809	0.579263
	N251	N	0.324655	0.043201	0.408599
	N252	N	0.918660	0.468219	0.171993
	N253	N	0.089486	0.543138	0.172761
	N254	N	0.089129	0.468662	0.816646
	N255	N	0.918302	0.542800	0.815908
	N256	N	0.181963	0.920039	0.456989
	N257	N	0.182273	0.091018	0.531468
	N258	N	0.825555	0.090397	0.457114
	N259	N	0.824886	0.919400	0.531840
	N260	N	0.466898	0.184410	0.908028
	N261	N	0.541432	0.183860	0.079227
	N262	N	0.466947	0.826492	0.080493
	N263	N	0.541222	0.827583	0.909127
	N264	N	0.466336	0.919957	0.172645
	N265	N	0.540918	0.090946	0.172471
	N266	N	0.466589	0.090858	0.816287
	N267	N	0.541346	0.920754	0.816275
	N268	N	0.918617	0.182953	0.457120
	N269	N	0.089152	0.182950	0.531892
	N270	N	0.088637	0.827073	0.457165
	N271	N	0.918286	0.827264	0.531821
	N272	N	0.182159	0.469198	0.909478
	N273	N	0.183093	0.543414	0.080738
	N274	N	0.824850	0.468887	0.080309
	N275	N	0.825044	0.542947	0.908834
	O276	O	0.978910	0.043583	1.017286
	H277	H	0.973987	0.042860	1.015368
	H278	H	0.981002	0.051088	1.009539
	O279	O	-0.015866	-0.019794	0.969484
	H280	H	-0.017143	-0.035047	0.975537
	H281	H	-0.011985	-0.021133	0.970267
	O282	O	0.989492	1.039424	0.011454
	H283	H	0.982826	1.054030	0.011797
	H284	H	1.001846	1.039718	0.020709
	O285	O	-0.014854	0.040409	0.988726
	H286	H	-0.012441	0.038344	0.992781
	H287	H	-0.021133	0.042166	0.989301
