data_Molecule from HDF5

_cell_length_a		16.243860
_cell_length_b		16.318911
_cell_length_c		16.206165
_cell_angle_alpha	90.142767
_cell_angle_beta	89.922551
_cell_angle_gamma	90.486822
_symmetry_space_group_name_H-M	'P 1'
_symmetry_Int_Tables_number		1

loop_
	_symmetry_equiv_pos_as_xyz
	x,y,z

loop_
	_atom_site_label
	_atom_site_type_symbol
	_atom_site_fract_x
	_atom_site_fract_y
	_atom_site_fract_z
	H0	H	0.409583	0.832277	0.710909
	H1	H	0.609057	0.159100	0.716059
	H2	H	0.607629	0.832455	0.283245
	H3	H	0.411102	0.159314	0.284139
	H4	H	0.719594	0.397318	0.834404
	H5	H	0.723550	0.596192	0.162199
	H6	H	0.298710	0.590472	0.832441
	H7	H	0.290036	0.395771	0.162097
	H8	H	0.844597	0.711552	0.397934
	H9	H	0.171384	0.714985	0.599042
	H10	H	0.845306	0.279911	0.597044
	H11	H	0.172275	0.282308	0.397427
	H12	H	0.843831	0.397285	0.710343
	H13	H	0.171938	0.596696	0.712219
	H14	H	0.843277	0.593094	0.284835
	H15	H	0.172160	0.400451	0.283231
	H16	H	0.410020	0.708304	0.834569
	H17	H	0.607507	0.710864	0.162707
	H18	H	0.606938	0.279952	0.836074
	H19	H	0.406463	0.280898	0.163339
	H20	H	0.722991	0.833168	0.400090
	H21	H	0.725076	0.159368	0.599057
	H22	H	0.290686	0.834907	0.598290
	H23	H	0.297705	0.161327	0.401557
	H24	H	0.906624	0.332867	0.212964
	H25	H	0.107708	0.660146	0.211502
	H26	H	0.103547	0.331522	0.781982
	H27	H	0.910299	0.659044	0.782598
	H28	H	0.223809	0.899081	0.334646
	H29	H	0.223605	0.099083	0.663112
	H30	H	0.795311	0.093698	0.334643
	H31	H	0.793430	0.895574	0.663359
	H32	H	0.344846	0.209204	0.900011
	H33	H	0.671060	0.213458	0.101017
	H34	H	0.343869	0.779118	0.098954
	H35	H	0.671801	0.780812	0.900279
	H36	H	0.344068	0.895573	0.214722
	H37	H	0.672241	0.095913	0.213360
	H38	H	0.343648	0.090602	0.787502
	H39	H	0.672239	0.897632	0.784656
	H40	H	0.910668	0.208886	0.334099
	H41	H	0.108073	0.213558	0.662232
	H42	H	0.109356	0.782135	0.334413
	H43	H	0.907430	0.780029	0.661271
	H44	H	0.220225	0.331244	0.897888
	H45	H	0.223608	0.659504	0.094820
	H46	H	0.789744	0.333353	0.097658
	H47	H	0.793090	0.658796	0.897725
	H48	H	0.417793	0.114070	0.597484
	H49	H	0.611967	0.874611	0.598234
	H50	H	0.604032	0.111550	0.410778
	H51	H	0.416223	0.882816	0.411955
	H52	H	0.601737	0.412779	0.114467
	H53	H	0.604819	0.591190	0.878896
	H54	H	0.411324	0.584189	0.116091
	H55	H	0.414883	0.405035	0.883473
	H56	H	0.123785	0.588432	0.405549
	H57	H	0.890632	0.586648	0.596494
	H58	H	0.125742	0.405071	0.593042
	H59	H	0.892494	0.401232	0.410063
	H60	H	0.125502	0.402171	0.586832
	H61	H	0.890047	0.596278	0.589381
	H62	H	0.125566	0.591718	0.401729
	H63	H	0.892176	0.405495	0.403007
	H64	H	0.419610	0.586841	0.114315
	H65	H	0.600756	0.583728	0.882839
	H66	H	0.591563	0.402349	0.114865
	H67	H	0.419529	0.398229	0.882820
	H68	H	0.605777	0.113613	0.403356
	H69	H	0.590476	0.880341	0.599441
	H70	H	0.418041	0.111797	0.592319
	H71	H	0.410111	0.879213	0.406716
	H72	H	0.917241	0.611822	0.089343
	H73	H	0.091265	0.379023	0.097417
	H74	H	0.112075	0.613158	0.909599
	H75	H	0.910995	0.377158	0.897314
	H76	H	0.104526	0.906349	0.615584
	H77	H	0.100729	0.093722	0.380912
	H78	H	0.912175	0.093720	0.619444
	H79	H	0.903896	0.902982	0.377903
	H80	H	0.621609	0.090291	0.920302
	H81	H	0.394260	0.079919	0.091038
	H82	H	0.626882	0.901473	0.097527
	H83	H	0.390051	0.902248	0.902785
	H84	H	0.624347	0.897998	0.085785
	H85	H	0.388825	0.088755	0.099001
	H86	H	0.624026	0.078156	0.902620
	H87	H	0.389002	0.896176	0.904897
	H88	H	0.915722	0.081954	0.613732
	H89	H	0.107920	0.091082	0.379513
	H90	H	0.097033	0.908694	0.612925
	H91	H	0.920955	0.914380	0.386626
	H92	H	0.103372	0.614223	0.894554
	H93	H	0.096358	0.384034	0.080403
	H94	H	0.915027	0.611864	0.089733
	H95	H	0.919556	0.381729	0.904370
	H96	H	0.413147	0.114720	0.594009
	H97	H	0.601566	0.883717	0.580031
	H98	H	0.598256	0.110874	0.405172
	H99	H	0.418226	0.880430	0.403223
	H100	H	0.605045	0.399295	0.119277
	H101	H	0.596143	0.592141	0.882005
	H102	H	0.412967	0.591642	0.116948
	H103	H	0.410675	0.397708	0.879121
	H104	H	0.125187	0.593546	0.406231
	H105	H	0.893989	0.586068	0.584757
	H106	H	0.124282	0.408922	0.588010
	H107	H	0.889344	0.398183	0.403154
	H108	H	0.916721	0.611571	0.090962
	H109	H	0.108587	0.376988	0.091621
	H110	H	0.094994	0.607894	0.908189
	H111	H	0.908701	0.379753	0.908996
	H112	H	0.097965	0.901347	0.616018
	H113	H	0.101993	0.086489	0.382983
	H114	H	0.924293	0.092022	0.614659
	H115	H	0.923356	0.894364	0.381166
	H116	H	0.629775	0.098184	0.902299
	H117	H	0.391874	0.092632	0.086123
	H118	H	0.621841	0.909053	0.089713
	H119	H	0.392710	0.900191	0.909338
	C120	C	0.386548	0.005710	0.622288
	C121	C	0.630764	0.987642	0.621479
	C122	C	0.630821	0.004247	0.377510
	C123	C	0.387155	0.988584	0.378348
	C124	C	0.628227	0.375195	0.007885
	C125	C	0.629762	0.617858	0.989859
	C126	C	0.386776	0.615591	0.007001
	C127	C	0.384985	0.372013	0.990246
	C128	C	0.016484	0.618931	0.376200
	C129	C	0.999779	0.619044	0.619368
	C130	C	0.016967	0.375477	0.618291
	C131	C	0.999451	0.374133	0.376039
	C132	C	0.885665	0.504333	0.119369
	C133	C	0.128898	0.487904	0.118653
	C134	C	0.130250	0.503618	0.874945
	C135	C	0.885599	0.487301	0.875319
	C136	C	0.129481	0.876563	0.506786
	C137	C	0.131407	0.119713	0.490088
	C138	C	0.888563	0.117046	0.507103
	C139	C	0.886351	0.874524	0.489840
	C140	C	0.516756	0.116356	0.879061
	C141	C	0.499636	0.117196	0.121256
	C142	C	0.516081	0.873516	0.120722
	C143	C	0.499343	0.872499	0.877153
	C144	C	0.388553	0.881905	0.674977
	C145	C	0.629349	0.110605	0.677393
	C146	C	0.628186	0.881432	0.321668
	C147	C	0.390681	0.111111	0.322564
	C148	C	0.682602	0.376998	0.883784
	C149	C	0.685651	0.616050	0.113178
	C150	C	0.334260	0.611851	0.882352
	C151	C	0.328548	0.375345	0.113425
	C152	C	0.893288	0.673493	0.378345
	C153	C	0.122660	0.675801	0.618161
	C154	C	0.893961	0.318500	0.617038
	C155	C	0.123277	0.319961	0.377581
	C156	C	0.893131	0.377094	0.673053
	C157	C	0.123049	0.617179	0.674565
	C158	C	0.892554	0.614587	0.322132
	C159	C	0.123172	0.378560	0.320740
	C160	C	0.389712	0.670434	0.883357
	C161	C	0.627637	0.672957	0.113664
	C162	C	0.626458	0.318697	0.884652
	C163	C	0.386086	0.317863	0.113915
	C164	C	0.685675	0.881800	0.379704
	C165	C	0.687013	0.110570	0.619384
	C166	C	0.329588	0.883278	0.618878
	C167	C	0.334294	0.112121	0.380997
	C168	C	0.886654	0.381783	0.175143
	C169	C	0.127796	0.610974	0.173952
	C170	C	0.125490	0.380577	0.819444
	C171	C	0.889355	0.610380	0.820475
	C172	C	0.185618	0.878842	0.383585
	C173	C	0.185798	0.118560	0.613941
	C174	C	0.832979	0.114286	0.383754
	C175	C	0.831051	0.875828	0.613707
	C176	C	0.393508	0.170975	0.880648
	C177	C	0.622300	0.174697	0.120453
	C178	C	0.392633	0.817799	0.118870
	C179	C	0.622954	0.818597	0.879961
	C180	C	0.392733	0.875602	0.176478
	C181	C	0.623247	0.115623	0.175864
	C182	C	0.393030	0.112120	0.824499
	C183	C	0.623137	0.876562	0.822534
	C184	C	0.890150	0.171782	0.383536
	C185	C	0.128583	0.175575	0.613441
	C186	C	0.128716	0.820708	0.383551
	C187	C	0.887698	0.818152	0.612816
	C188	C	0.183158	0.380320	0.877398
	C189	C	0.185605	0.610566	0.115983
	C190	C	0.828700	0.381900	0.117554
	C191	C	0.831105	0.610174	0.877787
	C192	C	0.409597	0.091365	0.600924
	C193	C	0.607906	0.901899	0.599102
	C194	C	0.609047	0.089776	0.399884
	C195	C	0.408449	0.903123	0.400736
	C196	C	0.605971	0.398151	0.093987
	C197	C	0.607274	0.595653	0.903606
	C198	C	0.408212	0.593895	0.093431
	C199	C	0.407975	0.393914	0.904114
	C200	C	0.102659	0.597610	0.398084
	C201	C	0.913747	0.596301	0.596848
	C202	C	0.103062	0.398502	0.595969
	C203	C	0.913700	0.395341	0.398725
	C204	C	0.909501	0.589725	0.096810
	C205	C	0.105540	0.402141	0.096340
	C206	C	0.109520	0.589564	0.897417
	C207	C	0.906810	0.401784	0.897200
	C208	C	0.106412	0.898895	0.592880
	C209	C	0.109994	0.096962	0.403548
	C210	C	0.910877	0.095453	0.593547
	C211	C	0.909304	0.897296	0.404094
	C212	C	0.602732	0.095074	0.901678
	C213	C	0.413756	0.093937	0.098650
	C214	C	0.602057	0.896157	0.097928
	C215	C	0.412961	0.893439	0.899032
	Zn216	Zn	0.509104	-0.004408	0.749914
	Zn217	Zn	0.508356	-0.004510	0.249077
	Zn218	Zn	0.756702	0.495984	-0.002297
	Zn219	Zn	0.258607	0.494869	-0.002834
	Zn220	Zn	0.008350	0.747489	0.497844
	Zn221	Zn	0.009027	0.246049	0.498061
	Zn222	Zn	0.007973	0.496176	0.746507
	Zn223	Zn	0.007345	0.496671	0.248228
	Zn224	Zn	0.507376	0.744966	-0.000793
	Zn225	Zn	0.508018	0.245588	0.000108
	Zn226	Zn	0.759673	-0.003702	0.499432
	Zn227	Zn	0.258389	-0.001750	0.499358
	N228	N	0.423059	0.959068	0.677500
	N229	N	0.595076	0.033228	0.678861
	N230	N	0.594801	0.958747	0.320024
	N231	N	0.422692	0.033368	0.320503
	N232	N	0.683717	0.411662	0.961370
	N233	N	0.687142	0.582710	0.034984
	N234	N	0.332297	0.578401	0.960094
	N235	N	0.327685	0.408174	0.035310
	N236	N	0.971353	0.676374	0.411085
	N237	N	0.045045	0.677056	0.584526
	N238	N	0.971836	0.317479	0.583651
	N239	N	0.045437	0.317197	0.411372
	N240	N	0.970680	0.411984	0.673978
	N241	N	0.045636	0.582433	0.675282
	N242	N	0.970134	0.581351	0.320502
	N243	N	0.045550	0.411681	0.319636
	N244	N	0.421814	0.672917	0.961801
	N245	N	0.593760	0.674274	0.036056
	N246	N	0.593453	0.317443	0.962863
	N247	N	0.420534	0.315804	0.036346
	N248	N	0.687447	0.959031	0.413599
	N249	N	0.687790	0.033241	0.585309
	N250	N	0.328294	0.961207	0.586427
	N251	N	0.332004	0.035058	0.415186
	N252	N	0.921359	0.459082	0.176281
	N253	N	0.093201	0.533744	0.175589
	N254	N	0.093351	0.458292	0.817798
	N255	N	0.922496	0.533147	0.818536
	N256	N	0.186229	0.913076	0.461259
	N257	N	0.187600	0.084313	0.536144
	N258	N	0.831750	0.081121	0.461776
	N259	N	0.830088	0.910307	0.536269
	N260	N	0.471407	0.173865	0.913999
	N261	N	0.544399	0.175763	0.087309
	N262	N	0.470282	0.816426	0.085033
	N263	N	0.544921	0.815901	0.913230
	N264	N	0.470613	0.909396	0.177743
	N265	N	0.546001	0.080357	0.176487
	N266	N	0.470738	0.079055	0.823283
	N267	N	0.545357	0.909351	0.820838
	N268	N	0.924176	0.173474	0.461271
	N269	N	0.095655	0.176486	0.535339
	N270	N	0.094589	0.819229	0.461246
	N271	N	0.921378	0.817338	0.534964
	N272	N	0.186415	0.457869	0.910951
	N273	N	0.186427	0.532968	0.082426
	N274	N	0.827994	0.459024	0.083510
	N275	N	0.828637	0.532722	0.911200
	O276	O	-0.016295	-0.076941	0.042123
	H277	H	-0.010339	-0.084566	0.042057
	H278	H	-0.024995	-0.075924	0.054268
	O279	O	0.535295	0.529235	0.483315
	H280	H	0.525842	0.524151	0.474217
	H281	H	0.532850	0.540068	0.485001
	O282	O	0.547978	0.470943	0.526774
	H283	H	0.550352	0.473900	0.531310
	H284	H	0.545203	0.478275	0.532357
	O285	O	1.110766	0.071905	1.067854
	H286	H	1.108440	0.073537	1.074380
	H287	H	1.104978	0.062186	1.064757
	O288	O	1.046562	0.026412	-0.010324
	H289	H	1.043503	0.021075	-0.011558
	H290	H	1.042412	0.035428	-0.006384
	O291	O	0.482287	0.538636	0.453001
	H292	H	0.481313	0.537268	0.459489
	H293	H	0.479911	0.544590	0.455860
	O294	O	0.967148	0.058895	1.041670
	H295	H	0.968683	0.057789	1.042311
	H296	H	0.975171	0.056411	1.048526
	O297	O	0.025031	0.033482	0.064364
	H298	H	0.023299	0.039118	0.077544
	H299	H	0.026063	0.023511	0.064152
	O300	O	0.484441	0.439640	0.505985
	H301	H	0.484009	0.430681	0.512811
	H302	H	0.492453	0.439079	0.504153
	O303	O	0.517168	0.512169	0.557729
	H304	H	0.516626	0.515196	0.560202
	H305	H	0.519203	0.506408	0.552552
	O306	O	0.973385	0.037015	-0.067597
	H307	H	0.978349	0.038990	-0.071242
	H308	H	0.978974	0.033545	-0.061601
	O309	O	0.026048	-0.002427	0.997688
	H310	H	0.025443	-0.008973	0.994276
	H311	H	0.025154	-0.016321	1.003702
	O312	O	1.023076	0.969503	0.967638
	H313	H	1.009544	0.972422	0.964834
	H314	H	1.021824	0.982291	0.963178
	O315	O	0.502824	0.518702	0.507515
	H316	H	0.503952	0.510277	0.499567
	H317	H	0.505514	0.522345	0.509199
	O318	O	0.445742	0.518948	0.570399
	H319	H	0.432868	0.517137	0.580292
	H320	H	0.449591	0.520203	0.566967
	O321	O	-0.032000	1.018424	1.070707
	H322	H	-0.022088	1.018981	1.076739
	H323	H	-0.031535	1.018825	1.069858
	O324	O	0.573696	0.499682	0.405607
	H325	H	0.566759	0.496173	0.403794
	H326	H	0.584022	0.505348	0.397841
	O327	O	0.989364	0.937073	-0.014450
	H328	H	1.001246	0.935323	-0.018286
	H329	H	0.993294	0.945095	-0.012315
	O330	O	-0.070156	0.942034	-0.001696
	H331	H	-0.077653	0.947801	0.001795
	H332	H	-0.069780	0.951732	-0.004499
	O333	O	0.011246	0.975049	1.009482
	H334	H	0.014392	0.973261	1.006838
	H335	H	0.025412	0.981544	1.006907
	O336	O	0.439824	0.511489	0.499977
	H337	H	0.451496	0.502994	0.498041
	H338	H	0.444399	0.514868	0.492328
	O339	O	0.968074	0.968110	0.028153
	H340	H	0.964513	0.971950	0.020691
	H341	H	0.971829	0.967334	0.029361
	O342	O	0.446654	0.522521	0.519829
	H343	H	0.443565	0.523139	0.519791
	H344	H	0.445828	0.528742	0.525690
	O345	O	0.480654	0.600279	0.437332
	H346	H	0.480916	0.593831	0.435788
	H347	H	0.475724	0.604232	0.438953
	O348	O	0.099699	0.018715	-0.046847
	H349	H	0.097113	0.021116	-0.055211
	H350	H	0.109513	0.012927	-0.044967
	O351	O	-0.049143	0.906149	1.081750
	H352	H	-0.057996	0.906054	1.076703
	H353	H	-0.044925	0.900740	1.074651
	O354	O	0.543372	0.463979	0.482756
	H355	H	0.534531	0.467805	0.477794
	H356	H	0.549309	0.464505	0.490410
	O357	O	0.041052	0.905116	0.993822
	H358	H	0.033486	0.906860	1.005977
	H359	H	0.037626	0.891534	0.985914
