data_Molecule from HDF5

_cell_length_a		16.307988
_cell_length_b		16.286857
_cell_length_c		16.318617
_cell_angle_alpha	90.092215
_cell_angle_beta	90.230194
_cell_angle_gamma	90.117299
_symmetry_space_group_name_H-M	'P 1'
_symmetry_Int_Tables_number		1

loop_
	_symmetry_equiv_pos_as_xyz
	x,y,z

loop_
	_atom_site_label
	_atom_site_type_symbol
	_atom_site_fract_x
	_atom_site_fract_y
	_atom_site_fract_z
	H0	H	0.401818	0.840396	0.711643
	H1	H	0.602186	0.166301	0.713849
	H2	H	0.598771	0.839865	0.282754
	H3	H	0.401695	0.166087	0.281440
	H4	H	0.716013	0.404077	0.834569
	H5	H	0.716625	0.601821	0.160515
	H6	H	0.286144	0.601015	0.834224
	H7	H	0.286920	0.404069	0.160544
	H8	H	0.837102	0.715809	0.400073
	H9	H	0.164289	0.719460	0.597714
	H10	H	0.837266	0.289311	0.594868
	H11	H	0.164256	0.289346	0.399731
	H12	H	0.837550	0.405254	0.710961
	H13	H	0.164280	0.603498	0.713162
	H14	H	0.837605	0.601358	0.282213
	H15	H	0.164584	0.405620	0.283431
	H16	H	0.402080	0.716860	0.833562
	H17	H	0.601012	0.717928	0.160299
	H18	H	0.598589	0.289468	0.833773
	H19	H	0.402781	0.287960	0.160267
	H20	H	0.714135	0.838740	0.399766
	H21	H	0.716948	0.166110	0.596938
	H22	H	0.285871	0.839968	0.595326
	H23	H	0.287522	0.167105	0.399240
	H24	H	0.903090	0.339368	0.210436
	H25	H	0.100486	0.666958	0.213378
	H26	H	0.098384	0.339714	0.782635
	H27	H	0.903134	0.666960	0.782934
	H28	H	0.214640	0.904065	0.334144
	H29	H	0.217579	0.102590	0.659782
	H30	H	0.785280	0.101151	0.333754
	H31	H	0.786521	0.904607	0.660675
	H32	H	0.337879	0.217036	0.897828
	H33	H	0.664142	0.219300	0.097229
	H34	H	0.337357	0.789370	0.092380
	H35	H	0.664593	0.788396	0.899424
	H36	H	0.338002	0.903280	0.210845
	H37	H	0.663988	0.103109	0.213687
	H38	H	0.338025	0.100951	0.782164
	H39	H	0.664744	0.903603	0.782237
	H40	H	0.902674	0.217097	0.334055
	H41	H	0.100920	0.218315	0.660541
	H42	H	0.098046	0.788706	0.334137
	H43	H	0.903191	0.788817	0.660994
	H44	H	0.215007	0.339646	0.898845
	H45	H	0.216902	0.667311	0.096492
	H46	H	0.786942	0.339765	0.095192
	H47	H	0.786673	0.666556	0.898835
	H48	H	0.413167	0.118004	0.588293
	H49	H	0.591078	0.886184	0.596814
	H50	H	0.584862	0.114727	0.411637
	H51	H	0.408034	0.889092	0.411115
	H52	H	0.597408	0.404417	0.116013
	H53	H	0.600766	0.599305	0.877550
	H54	H	0.408534	0.596876	0.113781
	H55	H	0.393805	0.417255	0.879365
	H56	H	0.115717	0.599298	0.410675
	H57	H	0.881835	0.601944	0.594063
	H58	H	0.116256	0.406173	0.582526
	H59	H	0.884387	0.404382	0.408061
	H60	H	0.114871	0.420026	0.590840
	H61	H	0.887992	0.596432	0.581233
	H62	H	0.115681	0.590611	0.404531
	H63	H	0.886985	0.416546	0.404892
	H64	H	0.409210	0.595535	0.113457
	H65	H	0.594895	0.586573	0.883587
	H66	H	0.598929	0.415906	0.112979
	H67	H	0.419399	0.417200	0.887081
	H68	H	0.603460	0.120203	0.410362
	H69	H	0.589114	0.889761	0.585183
	H70	H	0.406151	0.119129	0.586853
	H71	H	0.400072	0.883451	0.400438
	H72	H	0.911725	0.616326	0.081941
	H73	H	0.093702	0.389832	0.085210
	H74	H	0.099113	0.621452	0.903818
	H75	H	0.915470	0.389886	0.905729
	H76	H	0.099396	0.911690	0.615131
	H77	H	0.095252	0.095062	0.381295
	H78	H	0.911013	0.097856	0.612353
	H79	H	0.902581	0.909291	0.379975
	H80	H	0.620504	0.097549	0.894844
	H81	H	0.389330	0.085376	0.085490
	H82	H	0.615378	0.916084	0.089220
	H83	H	0.381801	0.904936	0.896093
	H84	H	0.619254	0.908469	0.096036
	H85	H	0.382139	0.095786	0.098949
	H86	H	0.618069	0.104569	0.913141
	H87	H	0.387128	0.905167	0.912119
	H88	H	0.906817	0.096386	0.613711
	H89	H	0.092041	0.096002	0.381349
	H90	H	0.091896	0.914715	0.610872
	H91	H	0.909148	0.913136	0.383014
	H92	H	0.090674	0.619841	0.900465
	H93	H	0.098220	0.386022	0.092011
	H94	H	0.899446	0.623276	0.092299
	H95	H	0.901331	0.387154	0.909236
	H96	H	0.408819	0.121173	0.592947
	H97	H	0.600445	0.884885	0.588627
	H98	H	0.591865	0.121966	0.394439
	H99	H	0.413733	0.887469	0.398482
	H100	H	0.588394	0.411165	0.111536
	H101	H	0.585788	0.599270	0.882409
	H102	H	0.409885	0.596834	0.112886
	H103	H	0.408163	0.394263	0.877173
	H104	H	0.119396	0.598853	0.400687
	H105	H	0.886199	0.587676	0.593745
	H106	H	0.120975	0.407105	0.597795
	H107	H	0.882328	0.408492	0.395740
	H108	H	0.915299	0.620059	0.098329
	H109	H	0.089902	0.387824	0.092510
	H110	H	0.093276	0.618001	0.908694
	H111	H	0.906417	0.383854	0.895345
	H112	H	0.092719	0.906256	0.614869
	H113	H	0.094079	0.097993	0.380213
	H114	H	0.909691	0.093692	0.612283
	H115	H	0.909393	0.905662	0.380405
	H116	H	0.613123	0.085873	0.908716
	H117	H	0.385311	0.103026	0.082180
	H118	H	0.617830	0.906204	0.085718
	H119	H	0.388153	0.919686	0.902697
	C120	C	0.380557	0.011568	0.617571
	C121	C	0.623231	0.994639	0.619514
	C122	C	0.622242	0.011276	0.376408
	C123	C	0.378753	0.994631	0.374784
	C124	C	0.623100	0.381588	0.005690
	C125	C	0.623084	0.624542	0.988647
	C126	C	0.380261	0.624205	0.005132
	C127	C	0.379040	0.381043	0.989140
	C128	C	0.009161	0.624576	0.376229
	C129	C	0.993145	0.625079	0.619013
	C130	C	0.009260	0.381908	0.618734
	C131	C	0.992496	0.381555	0.375180
	C132	C	0.880244	0.511641	0.118565
	C133	C	0.123344	0.495568	0.119256
	C134	C	0.122613	0.511517	0.875877
	C135	C	0.879438	0.494979	0.875358
	C136	C	0.122403	0.882147	0.505785
	C137	C	0.123057	0.125134	0.488740
	C138	C	0.879794	0.124458	0.505176
	C139	C	0.879040	0.881295	0.489089
	C140	C	0.509715	0.124477	0.875919
	C141	C	0.493088	0.124610	0.118446
	C142	C	0.509426	0.881384	0.118282
	C143	C	0.493371	0.881072	0.875085
	C144	C	0.381945	0.888672	0.672974
	C145	C	0.621707	0.117671	0.675207
	C146	C	0.619714	0.888443	0.320765
	C147	C	0.381465	0.117453	0.319505
	C148	C	0.677744	0.383947	0.883061
	C149	C	0.678844	0.622529	0.111674
	C150	C	0.324871	0.621267	0.882444
	C151	C	0.324839	0.383919	0.111716
	C152	C	0.886294	0.679094	0.378628
	C153	C	0.115574	0.681333	0.617796
	C154	C	0.886083	0.327181	0.615197
	C155	C	0.115578	0.327013	0.378753
	C156	C	0.886267	0.384343	0.673301
	C157	C	0.115341	0.623750	0.675325
	C158	C	0.886405	0.621850	0.320311
	C159	C	0.115780	0.384547	0.321053
	C160	C	0.382064	0.679136	0.882348
	C161	C	0.621059	0.679929	0.111745
	C162	C	0.619489	0.326839	0.882750
	C163	C	0.382554	0.326214	0.111631
	C164	C	0.677083	0.888004	0.378839
	C165	C	0.678973	0.117555	0.617331
	C166	C	0.324237	0.888670	0.615327
	C167	C	0.324271	0.117814	0.377520
	C168	C	0.882542	0.388294	0.173162
	C169	C	0.121449	0.618276	0.175107
	C170	C	0.119194	0.388410	0.820871
	C171	C	0.882415	0.618211	0.820765
	C172	C	0.176998	0.883943	0.382935
	C173	C	0.179306	0.123233	0.611273
	C174	C	0.823795	0.121571	0.382493
	C175	C	0.824399	0.883981	0.611985
	C176	C	0.386577	0.179130	0.877630
	C177	C	0.615670	0.180667	0.117157
	C178	C	0.386386	0.826412	0.114355
	C179	C	0.616089	0.825998	0.878224
	C180	C	0.386786	0.883092	0.173066
	C181	C	0.615498	0.123088	0.175082
	C182	C	0.386784	0.121582	0.820146
	C183	C	0.616159	0.883800	0.820592
	C184	C	0.881836	0.179203	0.382504
	C185	C	0.121226	0.180516	0.611568
	C186	C	0.119059	0.826636	0.382897
	C187	C	0.882475	0.826759	0.612240
	C188	C	0.176988	0.388378	0.878756
	C189	C	0.179053	0.618367	0.117055
	C190	C	0.824886	0.388508	0.115719
	C191	C	0.824325	0.617900	0.878021
	C192	C	0.402683	0.097335	0.595750
	C193	C	0.600433	0.909195	0.596938
	C194	C	0.600034	0.096933	0.398809
	C195	C	0.400826	0.908776	0.396874
	C196	C	0.601301	0.403829	0.091452
	C197	C	0.600417	0.601788	0.903294
	C198	C	0.402615	0.602762	0.091107
	C199	C	0.400739	0.403098	0.903120
	C200	C	0.094965	0.602743	0.398782
	C201	C	0.907403	0.602003	0.596239
	C202	C	0.095004	0.404399	0.596850
	C203	C	0.906970	0.403512	0.396511
	C204	C	0.902405	0.597515	0.097242
	C205	C	0.100616	0.410022	0.096404
	C206	C	0.100771	0.597565	0.897854
	C207	C	0.901279	0.409187	0.897061
	C208	C	0.101019	0.904407	0.591633
	C209	C	0.100415	0.102979	0.403128
	C210	C	0.902534	0.102277	0.590711
	C211	C	0.900608	0.902997	0.403222
	C212	C	0.595072	0.102494	0.898881
	C213	C	0.407722	0.101583	0.095524
	C214	C	0.595254	0.903715	0.096568
	C215	C	0.407660	0.903420	0.897002
	Zn216	Zn	0.501389	0.003319	0.746871
	Zn217	Zn	0.501341	0.003211	0.247169
	Zn218	Zn	0.751596	0.503107	-0.002545
	Zn219	Zn	0.251114	0.503473	-0.002821
	Zn220	Zn	0.000874	0.753383	0.497881
	Zn221	Zn	0.000898	0.253607	0.497225
	Zn222	Zn	0.000939	0.503342	0.746831
	Zn223	Zn	0.001084	0.503095	0.247277
	Zn224	Zn	0.501880	0.752255	-0.003056
	Zn225	Zn	0.500966	0.253033	-0.003128
	Zn226	Zn	0.751102	0.002990	0.497530
	Zn227	Zn	0.251224	0.003608	0.496696
	N228	N	0.416390	0.965764	0.674501
	N229	N	0.587908	0.040149	0.676761
	N230	N	0.586400	0.965919	0.319115
	N231	N	0.414459	0.039794	0.317519
	N232	N	0.679961	0.417104	0.960409
	N233	N	0.680151	0.588645	0.034361
	N234	N	0.323455	0.587947	0.959835
	N235	N	0.322521	0.417091	0.034257
	N236	N	0.963491	0.680656	0.412783
	N237	N	0.038406	0.682252	0.583370
	N238	N	0.963634	0.325512	0.582117
	N239	N	0.037956	0.325026	0.411547
	N240	N	0.963726	0.417626	0.675518
	N241	N	0.038220	0.589314	0.676033
	N242	N	0.963876	0.588546	0.318822
	N243	N	0.038316	0.417578	0.318596
	N244	N	0.416091	0.680778	0.959640
	N245	N	0.587134	0.681168	0.034454
	N246	N	0.586176	0.325141	0.960194
	N247	N	0.415493	0.324443	0.034227
	N248	N	0.678588	0.965413	0.412900
	N249	N	0.679928	0.040302	0.583311
	N250	N	0.323482	0.966059	0.581501
	N251	N	0.322561	0.040444	0.411157
	N252	N	0.916489	0.465686	0.174845
	N253	N	0.087689	0.540876	0.176826
	N254	N	0.085888	0.465932	0.819158
	N255	N	0.915928	0.540757	0.818909
	N256	N	0.179068	0.917782	0.460333
	N257	N	0.180461	0.089536	0.534057
	N258	N	0.822490	0.088288	0.459928
	N259	N	0.822296	0.917125	0.534614
	N260	N	0.464005	0.181269	0.911482
	N261	N	0.538451	0.181807	0.082724
	N262	N	0.463687	0.825172	0.081005
	N263	N	0.538631	0.824175	0.911274
	N264	N	0.464372	0.916522	0.175622
	N265	N	0.538313	0.088738	0.175699
	N266	N	0.464203	0.088314	0.818866
	N267	N	0.538730	0.917118	0.818377
	N268	N	0.915770	0.181171	0.459721
	N269	N	0.086959	0.181907	0.534272
	N270	N	0.085787	0.825336	0.460182
	N271	N	0.915458	0.824713	0.534678
	N272	N	0.179032	0.465905	0.912207
	N273	N	0.180153	0.541044	0.083047
	N274	N	0.823439	0.465986	0.082402
	N275	N	0.822739	0.540558	0.911587
	O276	O	0.506607	0.566979	0.549374
	H277	H	0.516097	0.571146	0.550859
	H278	H	0.512920	0.566861	0.553720
	O279	O	0.061541	0.087828	0.047423
	H280	H	0.059410	0.090279	0.057824
	H281	H	0.059148	0.101103	0.049875
	O282	O	0.983051	0.103635	1.016965
	H283	H	0.991383	0.100058	1.015097
	H284	H	0.976026	0.110655	1.008138
	O285	O	0.465307	0.585240	0.545590
	H286	H	0.475081	0.582829	0.551056
	H287	H	0.469597	0.588991	0.545878
	O288	O	1.058681	0.119018	-0.004531
	H289	H	1.056902	0.113980	0.002301
	H290	H	1.061376	0.127137	-0.006409
	O291	O	-0.513559	0.584511	-0.450524
	H292	H	-0.514565	0.589595	-0.438856
	H293	H	-0.505941	0.574637	-0.440154
	O294	O	0.542656	0.527608	0.557571
	H295	H	0.541988	0.524875	0.556461
	H296	H	0.535443	0.526865	0.550450
	O297	O	0.015701	1.085065	0.037101
	H298	H	0.014465	1.089140	0.041887
	H299	H	0.007883	1.077024	0.026013
	O300	O	1.065627	0.104382	1.029973
	H301	H	1.079684	0.094440	1.025923
	H302	H	1.063287	0.102787	1.029371
	O303	O	0.447869	0.510594	0.527001
	H304	H	0.435876	0.520399	0.523045
	H305	H	0.440226	0.522467	0.519392
	O306	O	0.033700	1.104569	0.981671
	H307	H	0.038964	1.112064	0.991144
	H308	H	0.034646	1.111345	0.975345
	O309	O	0.510534	0.513593	0.544538
	H310	H	0.511629	0.515212	0.547248
	H311	H	0.496538	0.507301	0.537617
