data_Molecule from HDF5

_cell_length_a		16.350435
_cell_length_b		16.305053
_cell_length_c		16.302095
_cell_angle_alpha	90.039859
_cell_angle_beta	90.102735
_cell_angle_gamma	90.045281
_symmetry_space_group_name_H-M	'P 1'
_symmetry_Int_Tables_number		1

loop_
	_symmetry_equiv_pos_as_xyz
	x,y,z

loop_
	_atom_site_label
	_atom_site_type_symbol
	_atom_site_fract_x
	_atom_site_fract_y
	_atom_site_fract_z
	H0	H	0.401558	0.836230	0.714385
	H1	H	0.598972	0.163012	0.715380
	H2	H	0.596865	0.835575	0.286663
	H3	H	0.402117	0.163529	0.285850
	H4	H	0.714244	0.401849	0.836461
	H5	H	0.715156	0.598877	0.163058
	H6	H	0.285306	0.597713	0.837139
	H7	H	0.286179	0.401986	0.163510
	H8	H	0.837272	0.714036	0.401644
	H9	H	0.163107	0.714643	0.598477
	H10	H	0.836839	0.285717	0.597452
	H11	H	0.163157	0.285874	0.402140
	H12	H	0.836550	0.402704	0.712963
	H13	H	0.162824	0.598826	0.715137
	H14	H	0.837700	0.598611	0.285030
	H15	H	0.163984	0.402369	0.285898
	H16	H	0.402534	0.712904	0.836451
	H17	H	0.598133	0.714522	0.163345
	H18	H	0.597907	0.285431	0.836785
	H19	H	0.402299	0.285727	0.163773
	H20	H	0.715061	0.836785	0.400866
	H21	H	0.714330	0.163199	0.598462
	H22	H	0.285103	0.836205	0.597800
	H23	H	0.285305	0.163123	0.400906
	H24	H	0.902380	0.336486	0.214085
	H25	H	0.098094	0.663395	0.214833
	H26	H	0.097023	0.336691	0.785606
	H27	H	0.901626	0.664451	0.786154
	H28	H	0.214781	0.900543	0.336817
	H29	H	0.215397	0.099070	0.663189
	H30	H	0.784912	0.099030	0.336955
	H31	H	0.784767	0.901169	0.663003
	H32	H	0.337445	0.215581	0.901276
	H33	H	0.663006	0.214084	0.097815
	H34	H	0.336595	0.785389	0.098035
	H35	H	0.662874	0.785278	0.902209
	H36	H	0.337028	0.902298	0.214447
	H37	H	0.663032	0.098315	0.215663
	H38	H	0.336842	0.098462	0.785804
	H39	H	0.663734	0.903413	0.787367
	H40	H	0.902775	0.213884	0.336526
	H41	H	0.099036	0.215291	0.663530
	H42	H	0.098190	0.784841	0.336914
	H43	H	0.901559	0.784997	0.662980
	H44	H	0.214541	0.336669	0.901564
	H45	H	0.215571	0.663003	0.099772
	H46	H	0.785718	0.336790	0.098498
	H47	H	0.786094	0.663715	0.902586
	H48	H	0.412243	0.114773	0.596018
	H49	H	0.597674	0.879146	0.602992
	H50	H	0.591074	0.112173	0.417698
	H51	H	0.404412	0.883769	0.409378
	H52	H	0.586207	0.402582	0.115082
	H53	H	0.599601	0.593751	0.881840
	H54	H	0.413098	0.608765	0.118944
	H55	H	0.414038	0.414913	0.888906
	H56	H	0.117493	0.597314	0.408916
	H57	H	0.885786	0.587899	0.593075
	H58	H	0.116140	0.401838	0.589401
	H59	H	0.886405	0.414380	0.404506
	H60	H	0.113991	0.412414	0.590481
	H61	H	0.881805	0.595578	0.597174
	H62	H	0.114655	0.590050	0.409026
	H63	H	0.881032	0.402938	0.400981
	H64	H	0.391360	0.589472	0.119971
	H65	H	0.591905	0.587697	0.885604
	H66	H	0.601039	0.401792	0.120186
	H67	H	0.410093	0.396477	0.881986
	H68	H	0.603271	0.119373	0.404306
	H69	H	0.581212	0.887250	0.592626
	H70	H	0.406016	0.113821	0.587335
	H71	H	0.404472	0.882559	0.403959
	H72	H	0.913963	0.612722	0.088222
	H73	H	0.092051	0.385645	0.086307
	H74	H	0.092272	0.618186	0.899210
	H75	H	0.903497	0.383397	0.907661
	H76	H	0.089140	0.902813	0.615676
	H77	H	0.100169	0.087246	0.383528
	H78	H	0.904032	0.092567	0.617244
	H79	H	0.899361	0.908277	0.381848
	H80	H	0.618663	0.095129	0.901435
	H81	H	0.384948	0.090726	0.092809
	H82	H	0.613063	0.911647	0.089560
	H83	H	0.385983	0.911357	0.908943
	H84	H	0.616342	0.907542	0.099380
	H85	H	0.383044	0.093897	0.096105
	H86	H	0.615196	0.097636	0.913767
	H87	H	0.382304	0.905371	0.900822
	H88	H	0.908289	0.091133	0.615246
	H89	H	0.084619	0.090153	0.387478
	H90	H	0.098551	0.907161	0.618487
	H91	H	0.910857	0.913117	0.386877
	H92	H	0.086841	0.613022	0.911824
	H93	H	0.100262	0.381613	0.094103
	H94	H	0.900250	0.617856	0.088965
	H95	H	0.907360	0.383754	0.903272
	H96	H	0.402103	0.118198	0.596176
	H97	H	0.599526	0.884857	0.582677
	H98	H	0.585161	0.115838	0.399035
	H99	H	0.408995	0.884452	0.406234
	H100	H	0.596044	0.415405	0.114337
	H101	H	0.589822	0.597506	0.882972
	H102	H	0.417465	0.581592	0.110091
	H103	H	0.395643	0.410350	0.881702
	H104	H	0.117280	0.593178	0.402440
	H105	H	0.884653	0.596064	0.588364
	H106	H	0.117422	0.406898	0.598923
	H107	H	0.885566	0.404664	0.412612
	H108	H	0.908692	0.618061	0.100765
	H109	H	0.088346	0.384229	0.098541
	H110	H	0.100675	0.617095	0.910976
	H111	H	0.908877	0.385767	0.908696
	H112	H	0.091172	0.912737	0.613618
	H113	H	0.093991	0.102684	0.381223
	H114	H	0.908433	0.095562	0.616984
	H115	H	0.910281	0.900496	0.382685
	H116	H	0.613296	0.086149	0.908600
	H117	H	0.383586	0.094849	0.091489
	H118	H	0.616848	0.900812	0.090903
	H119	H	0.383373	0.900857	0.910300
	C120	C	0.378289	0.007613	0.621382
	C121	C	0.621438	0.991444	0.621594
	C122	C	0.621286	0.008030	0.378605
	C123	C	0.377877	0.991713	0.378129
	C124	C	0.621590	0.378672	0.008472
	C125	C	0.622073	0.621402	0.991540
	C126	C	0.378630	0.621634	0.008665
	C127	C	0.378279	0.378419	0.991891
	C128	C	0.008580	0.621653	0.378178
	C129	C	0.991972	0.622038	0.621485
	C130	C	0.008143	0.378440	0.621427
	C131	C	0.992010	0.378558	0.377815
	C132	C	0.878894	0.508361	0.121105
	C133	C	0.121873	0.491780	0.121437
	C134	C	0.121621	0.508231	0.878757
	C135	C	0.878138	0.492280	0.878222
	C136	C	0.120938	0.878681	0.508221
	C137	C	0.121459	0.121981	0.491780
	C138	C	0.878669	0.121564	0.508352
	C139	C	0.878150	0.878300	0.491606
	C140	C	0.508026	0.121797	0.878711
	C141	C	0.492054	0.121363	0.121869
	C142	C	0.507782	0.878360	0.121511
	C143	C	0.491753	0.877807	0.878387
	C144	C	0.380846	0.885023	0.676579
	C145	C	0.619201	0.114337	0.677040
	C146	C	0.618240	0.884716	0.323716
	C147	C	0.381370	0.114575	0.323826
	C148	C	0.676298	0.381158	0.885194
	C149	C	0.677213	0.619340	0.114488
	C150	C	0.323289	0.618705	0.885745
	C151	C	0.323752	0.381117	0.115004
	C152	C	0.886014	0.676293	0.381133
	C153	C	0.114514	0.676908	0.619046
	C154	C	0.885382	0.323669	0.618486
	C155	C	0.114665	0.323641	0.381224
	C156	C	0.885348	0.381780	0.675888
	C157	C	0.114493	0.619127	0.676616
	C158	C	0.886133	0.618886	0.323060
	C159	C	0.114817	0.381191	0.323177
	C160	C	0.381612	0.675699	0.885359
	C161	C	0.618797	0.676298	0.114725
	C162	C	0.618444	0.323583	0.885279
	C163	C	0.381283	0.323402	0.114903
	C164	C	0.676720	0.885188	0.380503
	C165	C	0.676991	0.114330	0.619363
	C166	C	0.323030	0.885006	0.618568
	C167	C	0.322866	0.114368	0.380704
	C168	C	0.881779	0.385375	0.176055
	C169	C	0.119023	0.614663	0.176963
	C170	C	0.118206	0.385337	0.823430
	C171	C	0.881135	0.615348	0.823888
	C172	C	0.175981	0.880583	0.385222
	C173	C	0.177062	0.119398	0.614762
	C174	C	0.823247	0.119514	0.385651
	C175	C	0.822928	0.880692	0.614442
	C176	C	0.385776	0.177204	0.881032
	C177	C	0.614518	0.176439	0.118898
	C178	C	0.385301	0.823321	0.118773
	C179	C	0.614475	0.823358	0.881599
	C180	C	0.385380	0.881409	0.176408
	C181	C	0.614398	0.118820	0.177232
	C182	C	0.385628	0.119094	0.823603
	C183	C	0.614738	0.881558	0.824414
	C184	C	0.881748	0.176478	0.385232
	C185	C	0.118912	0.176786	0.614933
	C186	C	0.118224	0.823152	0.385233
	C187	C	0.880967	0.823134	0.614444
	C188	C	0.176696	0.385332	0.880865
	C189	C	0.176901	0.614722	0.119607
	C190	C	0.823815	0.385349	0.118652
	C191	C	0.823314	0.615056	0.881379
	C192	C	0.400438	0.093579	0.599533
	C193	C	0.599164	0.905991	0.599267
	C194	C	0.599584	0.093768	0.400595
	C195	C	0.399540	0.905689	0.400127
	C196	C	0.600467	0.400061	0.094316
	C197	C	0.600238	0.599301	0.905715
	C198	C	0.400682	0.599751	0.094353
	C199	C	0.400148	0.400809	0.906138
	C200	C	0.094373	0.599752	0.400251
	C201	C	0.906292	0.599703	0.599261
	C202	C	0.093773	0.400377	0.599418
	C203	C	0.906472	0.400705	0.399739
	C204	C	0.901037	0.594074	0.099145
	C205	C	0.100165	0.405972	0.099329
	C206	C	0.099845	0.593885	0.900976
	C207	C	0.900108	0.406188	0.900060
	C208	C	0.099318	0.900916	0.593824
	C209	C	0.099537	0.099839	0.406080
	C210	C	0.900684	0.099620	0.594414
	C211	C	0.900213	0.900726	0.405935
	C212	C	0.593632	0.099492	0.901261
	C213	C	0.406103	0.099575	0.099824
	C214	C	0.593530	0.900247	0.099603
	C215	C	0.406083	0.899458	0.900208
	Zn216	Zn	0.499726	-0.000040	0.750237
	Zn217	Zn	0.499854	-0.000394	0.250477
	Zn218	Zn	0.750094	0.500050	-0.000140
	Zn219	Zn	0.250534	0.499942	0.000598
	Zn220	Zn	0.000047	0.750034	0.499854
	Zn221	Zn	-0.000051	0.250091	0.500062
	Zn222	Zn	-0.000323	0.500475	0.749672
	Zn223	Zn	0.000160	0.500022	0.249433
	Zn224	Zn	0.500046	0.749476	0.000012
	Zn225	Zn	0.499702	0.250442	0.000333
	Zn226	Zn	0.749872	-0.000147	0.499819
	Zn227	Zn	0.249479	-0.000100	0.499713
	N228	N	0.414637	0.962231	0.678117
	N229	N	0.585414	0.037034	0.678584
	N230	N	0.584339	0.961921	0.322511
	N231	N	0.414687	0.037248	0.322130
	N232	N	0.678612	0.414648	0.962691
	N233	N	0.679133	0.585882	0.037022
	N234	N	0.321233	0.585862	0.963373
	N235	N	0.321981	0.414647	0.037716
	N236	N	0.963266	0.678020	0.414547
	N237	N	0.037285	0.678514	0.585317
	N238	N	0.962643	0.321623	0.585277
	N239	N	0.037268	0.321766	0.414457
	N240	N	0.962683	0.414944	0.677824
	N241	N	0.037228	0.585731	0.678245
	N242	N	0.963388	0.585603	0.321092
	N243	N	0.037707	0.414791	0.321181
	N244	N	0.415547	0.677282	0.962548
	N245	N	0.585219	0.677820	0.037274
	N246	N	0.584951	0.322201	0.962582
	N247	N	0.414551	0.321852	0.037444
	N248	N	0.678481	0.962597	0.414147
	N249	N	0.678501	0.037077	0.585342
	N250	N	0.321311	0.962437	0.585048
	N251	N	0.320622	0.036798	0.413755
	N252	N	0.915548	0.462739	0.177437
	N253	N	0.085601	0.537283	0.178177
	N254	N	0.084646	0.462623	0.821974
	N255	N	0.914676	0.538021	0.821935
	N256	N	0.177884	0.914463	0.462460
	N257	N	0.178709	0.085912	0.537290
	N258	N	0.821481	0.085875	0.463083
	N259	N	0.821321	0.914491	0.537101
	N260	N	0.462986	0.178871	0.914592
	N261	N	0.537399	0.178148	0.085217
	N262	N	0.462339	0.821421	0.085352
	N263	N	0.537086	0.821096	0.914574
	N264	N	0.462707	0.914577	0.178377
	N265	N	0.537122	0.085507	0.178998
	N266	N	0.462822	0.085506	0.821989
	N267	N	0.537408	0.914834	0.822312
	N268	N	0.915442	0.177789	0.462604
	N269	N	0.085479	0.178765	0.537476
	N270	N	0.084510	0.822247	0.462461
	N271	N	0.914405	0.821476	0.537157
	N272	N	0.178819	0.462644	0.914553
	N273	N	0.178787	0.537460	0.085799
	N274	N	0.822008	0.462747	0.085128
	N275	N	0.821416	0.537359	0.914323
