data_Molecule from HDF5

_cell_length_a		16.478766
_cell_length_b		16.318179
_cell_length_c		16.537466
_cell_angle_alpha	89.998848
_cell_angle_beta	89.880468
_cell_angle_gamma	90.165744
_symmetry_space_group_name_H-M	'P 1'
_symmetry_Int_Tables_number		1

loop_
	_symmetry_equiv_pos_as_xyz
	x,y,z

loop_
	_atom_site_label
	_atom_site_type_symbol
	_atom_site_fract_x
	_atom_site_fract_y
	_atom_site_fract_z
	H0	H	0.381804	0.843099	0.714235
	H1	H	0.596792	0.160373	0.709665
	H2	H	0.601020	0.843522	0.264029
	H3	H	0.384740	0.158207	0.267382
	H4	H	0.714811	0.390296	0.835645
	H5	H	0.714997	0.610671	0.145922
	H6	H	0.268675	0.607016	0.833109
	H7	H	0.267163	0.396416	0.149009
	H8	H	0.832289	0.723864	0.383326
	H9	H	0.147907	0.723948	0.594998
	H10	H	0.832347	0.280751	0.593800
	H11	H	0.148483	0.281834	0.384603
	H12	H	0.833162	0.393946	0.712406
	H13	H	0.146835	0.610732	0.713196
	H14	H	0.835071	0.615073	0.261649
	H15	H	0.145722	0.394932	0.265731
	H16	H	0.382864	0.724654	0.834437
	H17	H	0.598151	0.725802	0.147203
	H18	H	0.591966	0.281433	0.832885
	H19	H	0.385736	0.281325	0.149656
	H20	H	0.714084	0.842327	0.380757
	H21	H	0.710608	0.160959	0.592561
	H22	H	0.265979	0.843070	0.598880
	H23	H	0.268851	0.157917	0.382338
	H24	H	0.880919	0.344625	0.214604
	H25	H	0.101940	0.658808	0.216878
	H26	H	0.089907	0.341872	0.773502
	H27	H	0.880655	0.659906	0.766181
	H28	H	0.217600	0.889477	0.333896
	H29	H	0.211389	0.106884	0.645339
	H30	H	0.765567	0.110450	0.332880
	H31	H	0.767200	0.894204	0.647060
	H32	H	0.331642	0.216946	0.890269
	H33	H	0.648317	0.224143	0.096364
	H34	H	0.333167	0.778118	0.098052
	H35	H	0.646727	0.776755	0.882709
	H36	H	0.335750	0.889926	0.217045
	H37	H	0.648155	0.110577	0.213374
	H38	H	0.335008	0.107598	0.768854
	H39	H	0.646824	0.889918	0.764116
	H40	H	0.883450	0.224682	0.332074
	H41	H	0.091762	0.219349	0.646905
	H42	H	0.097145	0.777711	0.332233
	H43	H	0.884494	0.779104	0.647636
	H44	H	0.205025	0.341642	0.890240
	H45	H	0.215300	0.659695	0.100400
	H46	H	0.767658	0.342429	0.097961
	H47	H	0.764125	0.658962	0.881345
	H48	H	0.401890	0.113806	0.577269
	H49	H	0.576575	0.885575	0.583073
	H50	H	0.582824	0.112629	0.408412
	H51	H	0.410849	0.891112	0.410770
	H52	H	0.571288	0.406411	0.103591
	H53	H	0.569046	0.589314	0.881981
	H54	H	0.393484	0.593178	0.106910
	H55	H	0.391237	0.407586	0.875083
	H56	H	0.098608	0.585846	0.405937
	H57	H	0.878358	0.593121	0.573671
	H58	H	0.104962	0.412560	0.582458
	H59	H	0.878020	0.413274	0.404246
	H60	H	0.104518	0.411278	0.581989
	H61	H	0.880118	0.582018	0.578677
	H62	H	0.100581	0.584524	0.398456
	H63	H	0.878552	0.416273	0.401740
	H64	H	0.400331	0.578635	0.098783
	H65	H	0.580867	0.591482	0.877028
	H66	H	0.587781	0.411878	0.107422
	H67	H	0.397302	0.414355	0.879034
	H68	H	0.580272	0.117004	0.394926
	H69	H	0.574069	0.889518	0.575041
	H70	H	0.399375	0.115896	0.580547
	H71	H	0.396445	0.885163	0.406301
	H72	H	0.909901	0.609482	0.070496
	H73	H	0.080634	0.390490	0.071334
	H74	H	0.078539	0.617104	0.902841
	H75	H	0.895354	0.387963	0.904537
	H76	H	0.076530	0.912570	0.599910
	H77	H	0.075435	0.088979	0.377609
	H78	H	0.900527	0.093777	0.602332
	H79	H	0.902542	0.914176	0.378393
	H80	H	0.606747	0.091235	0.895656
	H81	H	0.379307	0.086142	0.080105
	H82	H	0.603169	0.911577	0.077902
	H83	H	0.379432	0.911838	0.904291
	H84	H	0.600102	0.916394	0.071306
	H85	H	0.377663	0.088990	0.083540
	H86	H	0.605618	0.094195	0.902306
	H87	H	0.380511	0.918907	0.901113
	H88	H	0.897742	0.088805	0.601939
	H89	H	0.081897	0.095379	0.372850
	H90	H	0.080315	0.913665	0.600686
	H91	H	0.902390	0.914877	0.379073
	H92	H	0.081803	0.618229	0.899564
	H93	H	0.078285	0.386216	0.083763
	H94	H	0.896356	0.614877	0.071381
	H95	H	0.901210	0.386453	0.894265
	H96	H	0.404039	0.114683	0.581376
	H97	H	0.582636	0.885908	0.575823
	H98	H	0.569744	0.110070	0.403091
	H99	H	0.408247	0.886099	0.394741
	H100	H	0.576506	0.422700	0.099242
	H101	H	0.577564	0.579577	0.882326
	H102	H	0.410622	0.593065	0.101462
	H103	H	0.400417	0.405165	0.877031
	H104	H	0.102417	0.591153	0.402031
	H105	H	0.874743	0.590321	0.584989
	H106	H	0.104663	0.412363	0.581243
	H107	H	0.876401	0.413501	0.400391
	H108	H	0.905672	0.616014	0.082203
	H109	H	0.068727	0.393252	0.076783
	H110	H	0.077406	0.617742	0.898454
	H111	H	0.906846	0.391468	0.903944
	H112	H	0.077872	0.916047	0.599428
	H113	H	0.084865	0.085879	0.375473
	H114	H	0.902751	0.089549	0.599966
	H115	H	0.902832	0.914321	0.378936
	H116	H	0.603597	0.087216	0.901414
	H117	H	0.378128	0.091240	0.079395
	H118	H	0.601397	0.920451	0.078457
	H119	H	0.376815	0.912680	0.897321
	C120	C	0.368583	0.009914	0.612436
	C121	C	0.610778	0.992331	0.610090
	C122	C	0.612449	0.009375	0.367818
	C123	C	0.371219	0.991610	0.369453
	C124	C	0.610724	0.380273	-0.000337
	C125	C	0.611058	0.622314	0.982616
	C126	C	0.367967	0.622340	-0.000715
	C127	C	0.365889	0.378366	0.982286
	C128	C	-0.002214	0.622706	0.367895
	C129	C	0.981478	0.622887	0.611727
	C130	C	-0.000793	0.380080	0.612101
	C131	C	0.981490	0.381012	0.368667
	C132	C	0.869633	0.509752	0.109997
	C133	C	0.110539	0.493961	0.111505
	C134	C	0.109824	0.511156	0.869741
	C135	C	0.867331	0.493147	0.867750
	C136	C	0.112309	0.879125	0.497393
	C137	C	0.112205	0.122695	0.479467
	C138	C	0.867912	0.123733	0.497527
	C139	C	0.869031	0.880301	0.482095
	C140	C	0.500241	0.122152	0.869280
	C141	C	0.482315	0.122492	0.113002
	C142	C	0.498778	0.880960	0.110914
	C143	C	0.482227	0.879526	0.867521
	C144	C	0.364501	0.890838	0.673821
	C145	C	0.614397	0.112420	0.670003
	C146	C	0.617882	0.890756	0.305090
	C147	C	0.367206	0.110468	0.307687
	C148	C	0.672428	0.375041	0.882031
	C149	C	0.674180	0.628163	0.099112
	C150	C	0.307646	0.625845	0.880828
	C151	C	0.306986	0.377521	0.101557
	C152	C	0.880018	0.684692	0.364379
	C153	C	0.100192	0.684398	0.613748
	C154	C	0.880055	0.320212	0.613055
	C155	C	0.100392	0.320965	0.365772
	C156	C	0.880466	0.376617	0.672333
	C157	C	0.099722	0.627999	0.672775
	C158	C	0.881306	0.630205	0.303919
	C159	C	0.099205	0.377571	0.306860
	C160	C	0.364910	0.684276	0.881411
	C161	C	0.615490	0.685312	0.099673
	C162	C	0.611784	0.320193	0.880790
	C163	C	0.366041	0.320257	0.101942
	C164	C	0.674225	0.890094	0.363449
	C165	C	0.671018	0.112622	0.611646
	C166	C	0.306782	0.890769	0.616042
	C167	C	0.309240	0.110365	0.364867
	C168	C	0.864236	0.391635	0.173302
	C169	C	0.116803	0.612161	0.174754
	C170	C	0.109552	0.390173	0.812285
	C171	C	0.862786	0.611874	0.806185
	C172	C	0.175615	0.873336	0.380587
	C173	C	0.171183	0.124622	0.598158
	C174	C	0.806757	0.127180	0.379792
	C175	C	0.807645	0.876593	0.599924
	C176	C	0.380137	0.179164	0.870030
	C177	C	0.600850	0.184348	0.114982
	C178	C	0.380738	0.818203	0.115722
	C179	C	0.599548	0.817065	0.864379
	C180	C	0.381921	0.874054	0.175011
	C181	C	0.600902	0.127114	0.173152
	C182	C	0.381969	0.124763	0.809446
	C183	C	0.599479	0.873600	0.805012
	C184	C	0.865762	0.184240	0.379251
	C185	C	0.111901	0.181064	0.598809
	C186	C	0.115579	0.817428	0.379663
	C187	C	0.866467	0.819399	0.600225
	C188	C	0.166693	0.390051	0.870299
	C189	C	0.173618	0.612557	0.116598
	C190	C	0.807626	0.390532	0.115170
	C191	C	0.804963	0.611495	0.863970
	C192	C	0.394464	0.093080	0.586958
	C193	C	0.585148	0.908831	0.585147
	C194	C	0.585411	0.091622	0.394503
	C195	C	0.397573	0.908962	0.396251
	C196	C	0.585562	0.406153	0.081886
	C197	C	0.583800	0.594606	0.901524
	C198	C	0.393884	0.595896	0.080990
	C199	C	0.389586	0.402178	0.898974
	C200	C	0.079250	0.595067	0.394447
	C201	C	0.899155	0.596226	0.586504
	C202	C	0.082708	0.404947	0.588466
	C203	C	0.899212	0.406864	0.394674
	C204	C	0.896337	0.592061	0.082483
	C205	C	0.083532	0.411575	0.084880
	C206	C	0.085980	0.595751	0.893414
	C207	C	0.893578	0.409999	0.893508
	C208	C	0.085919	0.906379	0.578961
	C209	C	0.087949	0.097488	0.396953
	C210	C	0.893136	0.098063	0.579796
	C211	C	0.895046	0.906868	0.400214
	C212	C	0.583652	0.097909	0.893055
	C213	C	0.399934	0.096184	0.088338
	C214	C	0.580168	0.908237	0.083723
	C215	C	0.400177	0.906552	0.893501
	Zn216	Zn	0.491397	0.001551	0.739511
	Zn217	Zn	0.491623	0.000597	0.240407
	Zn218	Zn	0.740289	0.500646	-0.009144
	Zn219	Zn	0.238441	0.502003	-0.008955
	Zn220	Zn	-0.009946	0.750488	0.489322
	Zn221	Zn	-0.009769	0.252224	0.489145
	Zn222	Zn	-0.010138	0.502541	0.740569
	Zn223	Zn	-0.010724	0.502452	0.239326
	Zn224	Zn	0.489781	0.751360	-0.009328
	Zn225	Zn	0.489801	0.250712	-0.008546
	Zn226	Zn	0.739054	0.001003	0.489365
	Zn227	Zn	0.241519	0.000689	0.489181
	N228	N	0.402160	0.966022	0.671815
	N229	N	0.577731	0.036472	0.669327
	N230	N	0.580343	0.965802	0.307624
	N231	N	0.405128	0.035559	0.310441
	N232	N	0.671999	0.411691	0.956874
	N233	N	0.671840	0.589941	0.025093
	N234	N	0.309412	0.588210	0.955059
	N235	N	0.306633	0.412696	0.026037
	N236	N	0.953321	0.680050	0.403598
	N237	N	0.025751	0.681221	0.576550
	N238	N	0.954756	0.322337	0.576341
	N239	N	0.025995	0.323027	0.403279
	N240	N	0.955792	0.413353	0.671971
	N241	N	0.024738	0.590818	0.671903
	N242	N	0.955751	0.592646	0.305774
	N243	N	0.024235	0.414197	0.308513
	N244	N	0.401528	0.682525	0.956020
	N245	N	0.577320	0.682218	0.025889
	N246	N	0.574115	0.323263	0.954913
	N247	N	0.401685	0.320362	0.026739
	N248	N	0.671043	0.964897	0.401775
	N249	N	0.668962	0.036949	0.575271
	N250	N	0.309026	0.965964	0.578565
	N251	N	0.311796	0.035547	0.402765
	N252	N	0.901901	0.466790	0.170418
	N253	N	0.077904	0.537523	0.171591
	N254	N	0.075029	0.466750	0.811774
	N255	N	0.900801	0.537095	0.808368
	N256	N	0.173547	0.911144	0.454884
	N257	N	0.171770	0.089071	0.522923
	N258	N	0.807819	0.090242	0.454407
	N259	N	0.808979	0.913484	0.525272
	N260	N	0.454859	0.177720	0.906558
	N261	N	0.526243	0.181602	0.078197
	N262	N	0.454226	0.822368	0.076255
	N263	N	0.525489	0.820486	0.902421
	N264	N	0.456293	0.912117	0.172242
	N265	N	0.526286	0.089322	0.171992
	N266	N	0.457826	0.090041	0.808785
	N267	N	0.525188	0.911616	0.806832
	N268	N	0.902995	0.182250	0.453470
	N269	N	0.076057	0.180064	0.523904
	N270	N	0.077097	0.820856	0.453402
	N271	N	0.903716	0.821343	0.525727
	N272	N	0.167101	0.466551	0.905172
	N273	N	0.169759	0.538185	0.077877
	N274	N	0.810718	0.465189	0.076448
	N275	N	0.807424	0.536230	0.901239
	O276	O	0.463415	0.676182	0.300414
	H277	H	0.474006	0.682559	0.311769
	H278	H	0.478888	0.678846	0.294107
	O279	O	0.978855	-0.057166	1.034284
	H280	H	0.975479	-0.058437	1.019599
	H281	H	0.971961	-0.051089	1.014707
	O282	O	0.465651	0.708717	0.517917
	H283	H	0.455257	0.705850	0.502070
	H284	H	0.470315	0.698467	0.502533
	O285	O	0.898230	0.958170	0.783221
	H286	H	0.892955	0.980826	0.777463
	H287	H	0.878018	0.961045	0.784606
	O288	O	0.902728	1.129216	-0.168343
	H289	H	0.891679	1.132894	-0.177359
	H290	H	0.903230	1.162309	-0.165163
	O291	O	0.946915	0.102280	0.203493
	H292	H	0.927719	0.081948	0.198647
	H293	H	0.943690	0.078066	0.209506
	O294	O	0.275211	-0.283423	1.461678
	H295	H	0.272284	-0.274534	1.438251
	H296	H	0.259009	-0.270920	1.434316
	O297	O	0.406967	0.409463	0.328566
	H298	H	0.384181	0.401034	0.333276
	H299	H	0.415981	0.415246	0.332525
	O300	O	0.568931	0.415326	0.697453
	H301	H	0.555623	0.404374	0.679939
	H302	H	0.558555	0.405110	0.695866
	O303	O	0.291397	0.505725	0.305551
	H304	H	0.287202	0.496892	0.301822
	H305	H	0.301175	0.491241	0.332417
	O306	O	-0.085036	0.789275	0.947993
	H307	H	-0.091430	0.791721	0.966076
	H308	H	-0.081307	0.797549	0.958625
	O309	O	0.378847	0.508468	0.531489
	H310	H	0.376172	0.518315	0.541732
	H311	H	0.391578	0.514377	0.527526
	O312	O	-0.027989	1.200931	0.922229
	H313	H	-0.016025	1.193979	0.925429
	H314	H	-0.016915	1.185872	0.927856
	O315	O	0.670156	0.634205	0.558876
	H316	H	0.668886	0.615238	0.556994
	H317	H	0.652094	0.648034	0.569906
	O318	O	1.278951	0.464018	0.702900
	H319	H	1.287091	0.493929	0.683270
	H320	H	1.264028	0.477665	0.719833
	O321	O	-0.226135	-0.017892	0.209553
	H322	H	-0.267514	-0.022226	0.244663
	H323	H	-0.218442	-0.053094	0.186187
	O324	O	0.401809	0.300504	0.337619
	H325	H	0.399123	0.292305	0.334473
	H326	H	0.391902	0.310117	0.362722
	O327	O	0.369990	0.565414	0.638050
	H328	H	0.390501	0.563398	0.630482
	H329	H	0.375569	0.582253	0.626040
	O330	O	0.192538	1.053839	-0.057678
	H331	H	0.188593	1.061074	-0.044984
	H332	H	0.198624	1.049826	-0.081170
	O333	O	1.007698	1.111616	0.784723
	H334	H	1.014989	1.106259	0.791984
	H335	H	1.016867	1.102791	0.782794
	O336	O	-0.212651	-0.183061	-0.007349
	H337	H	-0.208937	-0.174007	-0.029279
	H338	H	-0.234287	-0.206640	-0.016883
	O339	O	0.203634	0.810105	0.979038
	H340	H	0.220043	0.828314	0.996032
	H341	H	0.231196	0.798841	0.981063
	O342	O	0.045018	0.950725	1.200530
	H343	H	0.027040	0.917964	1.200672
	H344	H	0.033897	0.958216	1.181421
	O345	O	0.785255	1.055454	-0.007559
	H346	H	0.786055	1.046701	0.004757
	H347	H	0.782176	1.083203	-0.018642
	O348	O	1.167554	0.827216	0.812218
	H349	H	1.115409	0.814482	0.801150
	H350	H	1.177573	0.817790	0.855340
	O351	O	0.199083	1.209862	1.013612
	H352	H	0.220339	1.227027	1.022423
	H353	H	0.200444	1.199025	1.037894
	O354	O	-0.721248	0.294997	-0.475084
	H355	H	-0.747854	0.267980	-0.473128
	H356	H	-0.719156	0.294965	-0.429656
	O357	O	0.205443	0.018899	1.201530
	H358	H	0.178738	0.003873	1.221389
	H359	H	0.217579	0.046964	1.222943
	O360	O	0.552454	0.524755	0.690480
	H361	H	0.543870	0.500293	0.702788
	H362	H	0.535140	0.521734	0.704147
	O363	O	0.179678	0.185291	1.176549
	H364	H	0.125932	0.196471	1.185428
	H365	H	0.195810	0.172966	1.178529
	O366	O	0.695161	0.339279	0.466905
	H367	H	0.716409	0.316922	0.470727
	H368	H	0.683456	0.356035	0.452676
	O369	O	0.511342	0.706868	0.697978
	H370	H	0.493150	0.726969	0.683456
	H371	H	0.500766	0.718759	0.703285
	O372	O	1.021698	0.035052	0.895528
	H373	H	1.036244	0.033427	0.890728
	H374	H	1.006964	0.024189	0.888432
	O375	O	0.285347	0.473786	0.470022
	H376	H	0.280576	0.470198	0.480205
	H377	H	0.291959	0.462480	0.485409
	O378	O	0.596090	0.336924	0.302798
	H379	H	0.602469	0.347383	0.283824
	H380	H	0.568867	0.334188	0.324053
	O381	O	0.999982	0.177633	1.199261
	H382	H	0.979536	0.162091	1.202062
	H383	H	0.980319	0.180575	1.218817
	O384	O	0.860895	1.032604	-0.044062
	H385	H	0.851643	1.053691	-0.056986
	H386	H	0.871752	1.051265	-0.040840
	O387	O	0.058456	-0.195787	1.032352
	H388	H	0.058969	-0.180143	1.020161
	H389	H	0.081304	-0.194432	1.025050
	O390	O	-0.185219	-0.173211	0.165895
	H391	H	-0.140507	-0.185365	0.170322
	H392	H	-0.194137	-0.170528	0.132955
	O393	O	0.515525	0.623525	0.528050
	H394	H	0.512274	0.612596	0.534815
	H395	H	0.515079	0.627179	0.532591
	O396	O	0.840405	0.122800	0.054521
	H397	H	0.844236	0.111235	0.054635
	H398	H	0.855159	0.113950	0.052709
	O399	O	1.008474	-0.204226	0.783098
	H400	H	0.998147	-0.212113	0.763148
	H401	H	0.986810	-0.209131	0.793837
	O402	O	1.709616	0.721450	1.515332
	H403	H	1.736618	0.750493	1.526715
	H404	H	1.707705	0.715768	1.557286
	O405	O	1.174021	0.953900	0.035668
	H406	H	1.176393	0.974141	0.043175
	H407	H	1.170437	0.968228	0.059273
	O408	O	1.178512	0.185433	-0.200510
	H409	H	1.169365	0.161856	-0.180576
	H410	H	1.155274	0.166063	-0.191532
	O411	O	0.793860	1.119237	-0.212621
	H412	H	0.787976	1.141385	-0.178549
	H413	H	0.798663	1.138251	-0.228423
	O414	O	0.633496	0.502444	0.441382
	H415	H	0.627790	0.507897	0.437071
	H416	H	0.630970	0.503942	0.432350
	O417	O	0.469097	0.451506	0.369670
	H418	H	0.475376	0.436032	0.362047
	H419	H	0.470109	0.444839	0.395447
	O420	O	0.205335	-0.015368	-0.228702
	H421	H	0.204830	-0.049673	-0.222175
	H422	H	0.224797	-0.032865	-0.252142
	O423	O	0.540700	0.423914	0.469716
	H424	H	0.551955	0.424852	0.472471
	H425	H	0.549055	0.419121	0.485733
	O426	O	0.655187	0.521857	0.303376
	H427	H	0.639579	0.513532	0.317844
	H428	H	0.667738	0.532766	0.291781
	O429	O	0.632614	0.429096	0.551380
	H430	H	0.640239	0.440931	0.529913
	H431	H	0.634080	0.427402	0.552171
	O432	O	0.523705	0.296224	0.640148
	H433	H	0.515551	0.281031	0.648269
	H434	H	0.498147	0.296140	0.631495
	O435	O	0.304802	0.669271	0.310243
	H436	H	0.324561	0.648606	0.303739
	H437	H	0.323797	0.649217	0.297670
	O438	O	-0.021258	-0.214378	0.185657
	H439	H	0.000269	-0.213091	0.147932
	H440	H	-0.021475	-0.255770	0.212043
	O441	O	0.782998	0.205744	-0.110821
	H442	H	0.812591	0.213019	-0.082787
	H443	H	0.759274	0.236100	-0.117230
	O444	O	-0.300620	1.519068	1.706445
	H445	H	-0.277116	1.516810	1.737354
	H446	H	-0.317716	1.495535	1.702878
	O447	O	0.287411	0.294627	0.694659
	H448	H	0.255109	0.267030	0.728582
	H449	H	0.280592	0.348809	0.701799
	O450	O	0.688168	0.425250	0.342644
	H451	H	0.665188	0.415850	0.347647
	H452	H	0.686001	0.453430	0.354357
	O453	O	0.518924	0.443994	0.438589
	H454	H	0.540681	0.444610	0.446038
	H455	H	0.529415	0.443125	0.432697
