data_Molecule from HDF5

_cell_length_a		16.336076
_cell_length_b		16.306228
_cell_length_c		16.307646
_cell_angle_alpha	90.091035
_cell_angle_beta	89.931933
_cell_angle_gamma	89.921632
_symmetry_space_group_name_H-M	'P 1'
_symmetry_Int_Tables_number		1

loop_
	_symmetry_equiv_pos_as_xyz
	x,y,z

loop_
	_atom_site_label
	_atom_site_type_symbol
	_atom_site_fract_x
	_atom_site_fract_y
	_atom_site_fract_z
	H0	H	0.403494	0.835671	0.712654
	H1	H	0.596338	0.164483	0.713815
	H2	H	0.597359	0.836829	0.285951
	H3	H	0.402524	0.164195	0.286583
	H4	H	0.715328	0.400424	0.837238
	H5	H	0.714696	0.598211	0.163110
	H6	H	0.286012	0.597787	0.837238
	H7	H	0.284503	0.401279	0.163269
	H8	H	0.836692	0.712895	0.402720
	H9	H	0.162797	0.714721	0.598485
	H10	H	0.836536	0.286119	0.597914
	H11	H	0.163292	0.284594	0.401207
	H12	H	0.836447	0.401811	0.715146
	H13	H	0.162930	0.599006	0.714715
	H14	H	0.837133	0.597045	0.285756
	H15	H	0.163124	0.401293	0.285030
	H16	H	0.402348	0.713902	0.836526
	H17	H	0.598519	0.714564	0.163435
	H18	H	0.599303	0.284688	0.837352
	H19	H	0.400602	0.285274	0.163337
	H20	H	0.713815	0.836569	0.401424
	H21	H	0.713174	0.164528	0.596594
	H22	H	0.286793	0.836201	0.596540
	H23	H	0.285175	0.163904	0.402492
	H24	H	0.902414	0.336450	0.214102
	H25	H	0.097862	0.663332	0.214539
	H26	H	0.098860	0.336552	0.785618
	H27	H	0.902716	0.663406	0.786304
	H28	H	0.214435	0.901847	0.336692
	H29	H	0.213324	0.098391	0.663895
	H30	H	0.785512	0.098357	0.336106
	H31	H	0.784527	0.902679	0.662679
	H32	H	0.336404	0.213989	0.903347
	H33	H	0.663468	0.213838	0.098598
	H34	H	0.337184	0.785314	0.098489
	H35	H	0.663988	0.786771	0.902639
	H36	H	0.336677	0.903600	0.213451
	H37	H	0.663346	0.098137	0.215240
	H38	H	0.336438	0.097792	0.786731
	H39	H	0.662469	0.901542	0.784264
	H40	H	0.902984	0.213560	0.336129
	H41	H	0.096716	0.214527	0.663534
	H42	H	0.097231	0.785631	0.336882
	H43	H	0.900603	0.785673	0.663130
	H44	H	0.215675	0.336804	0.900812
	H45	H	0.214308	0.663429	0.097859
	H46	H	0.786304	0.336498	0.097235
	H47	H	0.784323	0.662737	0.900033
	H48	H	0.409113	0.112633	0.584554
	H49	H	0.598810	0.884450	0.587839
	H50	H	0.585005	0.115758	0.402879
	H51	H	0.397808	0.882630	0.409645
	H52	H	0.583005	0.403112	0.115427
	H53	H	0.589812	0.593643	0.884406
	H54	H	0.408463	0.594214	0.116318
	H55	H	0.406053	0.404157	0.883028
	H56	H	0.119157	0.593050	0.399067
	H57	H	0.877520	0.603288	0.604352
	H58	H	0.112371	0.411440	0.590095
	H59	H	0.886172	0.413588	0.407164
	H60	H	0.116578	0.407351	0.598263
	H61	H	0.887521	0.598007	0.579323
	H62	H	0.117224	0.600552	0.411062
	H63	H	0.882231	0.404103	0.400419
	H64	H	0.405580	0.593855	0.117236
	H65	H	0.595702	0.595787	0.882184
	H66	H	0.600890	0.400393	0.121056
	H67	H	0.407530	0.410057	0.884988
	H68	H	0.594109	0.114455	0.416471
	H69	H	0.593932	0.881920	0.599257
	H70	H	0.395600	0.119803	0.594640
	H71	H	0.406800	0.881409	0.396604
	H72	H	0.904665	0.615552	0.086568
	H73	H	0.097197	0.382492	0.094616
	H74	H	0.094002	0.615529	0.908229
	H75	H	0.904521	0.384264	0.913998
	H76	H	0.084698	0.909570	0.614071
	H77	H	0.093158	0.100870	0.381226
	H78	H	0.902606	0.094970	0.617077
	H79	H	0.898405	0.899506	0.379019
	H80	H	0.617447	0.099473	0.907169
	H81	H	0.383419	0.090336	0.099043
	H82	H	0.611378	0.915120	0.084368
	H83	H	0.383161	0.901291	0.909326
	H84	H	0.618690	0.910523	0.105625
	H85	H	0.382742	0.099391	0.093590
	H86	H	0.613686	0.089208	0.911677
	H87	H	0.385406	0.910209	0.908946
	H88	H	0.905837	0.090194	0.615296
	H89	H	0.099935	0.088123	0.383077
	H90	H	0.095285	0.898388	0.619347
	H91	H	0.904676	0.916785	0.386290
	H92	H	0.095989	0.616512	0.906122
	H93	H	0.090598	0.383908	0.095262
	H94	H	0.902146	0.618683	0.097767
	H95	H	0.903192	0.380880	0.901109
	H96	H	0.411991	0.117206	0.601632
	H97	H	0.586969	0.887594	0.590157
	H98	H	0.600050	0.120266	0.403205
	H99	H	0.412747	0.887178	0.410195
	H100	H	0.595423	0.417419	0.113393
	H101	H	0.595128	0.589249	0.884204
	H102	H	0.407301	0.591642	0.115799
	H103	H	0.412231	0.405771	0.884887
	H104	H	0.112727	0.586657	0.410264
	H105	H	0.886953	0.578758	0.598066
	H106	H	0.116781	0.402009	0.590318
	H107	H	0.884414	0.402442	0.412488
	H108	H	0.912977	0.614734	0.094549
	H109	H	0.093706	0.384137	0.089338
	H110	H	0.092670	0.617319	0.905880
	H111	H	0.914333	0.386050	0.905996
	H112	H	0.099626	0.913370	0.616562
	H113	H	0.086046	0.089240	0.387053
	H114	H	0.907968	0.095603	0.616125
	H115	H	0.917298	0.901837	0.385339
	H116	H	0.616796	0.089832	0.900193
	H117	H	0.385582	0.090658	0.088845
	H118	H	0.619287	0.894337	0.089517
	H119	H	0.382426	0.906496	0.901383
	C120	C	0.377850	0.008223	0.621441
	C121	C	0.621568	0.992637	0.621565
	C122	C	0.621120	0.008444	0.378633
	C123	C	0.378017	0.992085	0.378153
	C124	C	0.621859	0.378079	0.008691
	C125	C	0.622031	0.621394	0.991696
	C126	C	0.379078	0.621681	0.008339
	C127	C	0.379430	0.378240	0.992097
	C128	C	0.008515	0.621459	0.378286
	C129	C	0.991437	0.622087	0.622206
	C130	C	0.007705	0.378746	0.621563
	C131	C	0.991965	0.378227	0.378272
	C132	C	0.878664	0.508303	0.121303
	C133	C	0.121906	0.491484	0.121424
	C134	C	0.122526	0.508238	0.878121
	C135	C	0.878432	0.491633	0.878347
	C136	C	0.121162	0.878719	0.508610
	C137	C	0.121001	0.121341	0.491825
	C138	C	0.877975	0.121609	0.507816
	C139	C	0.878062	0.878254	0.491212
	C140	C	0.507992	0.121475	0.878591
	C141	C	0.491991	0.121716	0.122014
	C142	C	0.508498	0.878576	0.121535
	C143	C	0.491663	0.878084	0.878017
	C144	C	0.382133	0.884796	0.675161
	C145	C	0.617686	0.115692	0.676091
	C146	C	0.618218	0.885495	0.323651
	C147	C	0.381652	0.115440	0.324330
	C148	C	0.677067	0.380407	0.886001
	C149	C	0.676605	0.618523	0.114592
	C150	C	0.324002	0.618640	0.885647
	C151	C	0.323278	0.380857	0.114724
	C152	C	0.885525	0.675678	0.381534
	C153	C	0.114143	0.676911	0.619212
	C154	C	0.885011	0.323773	0.619068
	C155	C	0.114561	0.322571	0.380558
	C156	C	0.885034	0.381473	0.676852
	C157	C	0.114189	0.619457	0.677017
	C158	C	0.885919	0.618330	0.323395
	C159	C	0.114518	0.380621	0.322863
	C160	C	0.381746	0.676256	0.885437
	C161	C	0.619114	0.676508	0.114718
	C162	C	0.619213	0.322918	0.885854
	C163	C	0.381154	0.323471	0.114996
	C164	C	0.676047	0.885493	0.380890
	C165	C	0.675642	0.115643	0.618036
	C166	C	0.323946	0.884943	0.617654
	C167	C	0.323086	0.115119	0.381470
	C168	C	0.881991	0.385118	0.175938
	C169	C	0.118981	0.614615	0.176705
	C170	C	0.119595	0.385403	0.823133
	C171	C	0.881635	0.614563	0.823781
	C172	C	0.176204	0.881167	0.385533
	C173	C	0.175756	0.118994	0.615012
	C174	C	0.823568	0.118661	0.384680
	C175	C	0.822938	0.881756	0.614209
	C176	C	0.385207	0.176222	0.882105
	C177	C	0.614800	0.176344	0.119150
	C178	C	0.385588	0.823873	0.118862
	C179	C	0.614901	0.824002	0.881296
	C180	C	0.385392	0.882155	0.176097
	C181	C	0.614577	0.119182	0.177360
	C182	C	0.384897	0.118303	0.824528
	C183	C	0.614304	0.881075	0.822796
	C184	C	0.881523	0.175924	0.384719
	C185	C	0.117653	0.176332	0.615072
	C186	C	0.118175	0.823604	0.385580
	C187	C	0.880739	0.824013	0.614501
	C188	C	0.177426	0.385473	0.880509
	C189	C	0.176814	0.614501	0.118923
	C190	C	0.824127	0.385192	0.118301
	C191	C	0.822891	0.614236	0.880524
	C192	C	0.399376	0.094439	0.600041
	C193	C	0.599741	0.906691	0.599212
	C194	C	0.599378	0.094671	0.400939
	C195	C	0.399444	0.905973	0.399309
	C196	C	0.599654	0.400307	0.094573
	C197	C	0.600049	0.599371	0.905749
	C198	C	0.400786	0.599707	0.094185
	C199	C	0.401951	0.400176	0.906527
	C200	C	0.094452	0.599729	0.400277
	C201	C	0.905943	0.599857	0.600409
	C202	C	0.093092	0.400508	0.599402
	C203	C	0.906285	0.400149	0.400471
	C204	C	0.900142	0.594169	0.099583
	C205	C	0.100256	0.405548	0.099575
	C206	C	0.100621	0.594270	0.900224
	C207	C	0.900875	0.405759	0.900466
	C208	C	0.099578	0.900685	0.594519
	C209	C	0.099373	0.099349	0.405989
	C210	C	0.899245	0.099975	0.593878
	C211	C	0.900296	0.899787	0.405514
	C212	C	0.593859	0.099377	0.899984
	C213	C	0.406109	0.099936	0.100297
	C214	C	0.594271	0.900255	0.099743
	C215	C	0.405814	0.899604	0.900045
	Zn216	Zn	0.499367	0.000388	0.749814
	Zn217	Zn	0.500138	0.000089	0.250045
	Zn218	Zn	0.750079	0.499937	-0.000049
	Zn219	Zn	0.250610	0.499619	-0.000151
	Zn220	Zn	-0.000331	0.749751	0.500400
	Zn221	Zn	-0.000162	0.249758	0.499957
	Zn222	Zn	0.000379	0.500199	0.750306
	Zn223	Zn	0.000092	0.499974	0.249815
	Zn224	Zn	0.500223	0.749909	-0.000064
	Zn225	Zn	0.500396	0.249622	0.000613
	Zn226	Zn	0.749820	0.000369	0.499370
	Zn227	Zn	0.249499	0.000326	0.499922
	N228	N	0.415108	0.962488	0.677309
	N229	N	0.584929	0.038005	0.678363
	N230	N	0.584601	0.963042	0.322312
	N231	N	0.414991	0.037855	0.322032
	N232	N	0.678755	0.413959	0.963422
	N233	N	0.678241	0.584891	0.037091
	N234	N	0.322293	0.585231	0.963040
	N235	N	0.322069	0.414411	0.037357
	N236	N	0.962933	0.677807	0.414967
	N237	N	0.036771	0.678745	0.585969
	N238	N	0.962272	0.321845	0.585337
	N239	N	0.037275	0.321077	0.414550
	N240	N	0.962264	0.414877	0.678716
	N241	N	0.036883	0.586030	0.679041
	N242	N	0.963393	0.585314	0.321514
	N243	N	0.037360	0.414316	0.321287
	N244	N	0.415268	0.677975	0.962755
	N245	N	0.585650	0.678330	0.037289
	N246	N	0.585403	0.321440	0.963266
	N247	N	0.415377	0.321851	0.037889
	N248	N	0.677731	0.962933	0.414532
	N249	N	0.678094	0.038006	0.584903
	N250	N	0.321309	0.962809	0.584886
	N251	N	0.320941	0.037514	0.414377
	N252	N	0.915186	0.462581	0.177812
	N253	N	0.085550	0.537208	0.178313
	N254	N	0.086068	0.462847	0.821542
	N255	N	0.915486	0.537199	0.822362
	N256	N	0.178088	0.914828	0.462918
	N257	N	0.177921	0.085408	0.537442
	N258	N	0.821404	0.085488	0.462135
	N259	N	0.821304	0.914964	0.536700
	N260	N	0.462636	0.178046	0.915155
	N261	N	0.537569	0.177950	0.085529
	N262	N	0.463008	0.821545	0.085645
	N263	N	0.537593	0.822183	0.914980
	N264	N	0.462779	0.915338	0.177947
	N265	N	0.537231	0.085872	0.179128
	N266	N	0.462329	0.084910	0.822273
	N267	N	0.536687	0.913859	0.820534
	N268	N	0.914577	0.178072	0.462329
	N269	N	0.084555	0.178020	0.537502
	N270	N	0.084603	0.821941	0.463065
	N271	N	0.913968	0.821397	0.536980
	N272	N	0.179336	0.462958	0.914096
	N273	N	0.178596	0.536931	0.085118
	N274	N	0.822005	0.462707	0.085028
	N275	N	0.821050	0.536736	0.913771
