data_Molecule from HDF5

_cell_length_a		16.258824
_cell_length_b		16.327741
_cell_length_c		16.193034
_cell_angle_alpha	89.903650
_cell_angle_beta	89.907988
_cell_angle_gamma	90.636625
_symmetry_space_group_name_H-M	'P 1'
_symmetry_Int_Tables_number		1

loop_
	_symmetry_equiv_pos_as_xyz
	x,y,z

loop_
	_atom_site_label
	_atom_site_type_symbol
	_atom_site_fract_x
	_atom_site_fract_y
	_atom_site_fract_z
	H0	H	0.396194	0.839106	0.715326
	H1	H	0.597691	0.165699	0.716163
	H2	H	0.594524	0.838999	0.288190
	H3	H	0.402355	0.166206	0.286458
	H4	H	0.711427	0.402341	0.837909
	H5	H	0.712132	0.601926	0.166108
	H6	H	0.284802	0.596918	0.837490
	H7	H	0.280875	0.399884	0.166676
	H8	H	0.833688	0.716476	0.403339
	H9	H	0.160284	0.722541	0.603486
	H10	H	0.836810	0.283337	0.605137
	H11	H	0.162319	0.292132	0.402097
	H12	H	0.833555	0.404044	0.715943
	H13	H	0.161107	0.604940	0.716784
	H14	H	0.834177	0.601093	0.287696
	H15	H	0.161742	0.408527	0.287569
	H16	H	0.396501	0.715585	0.838139
	H17	H	0.598839	0.718724	0.165051
	H18	H	0.593864	0.288619	0.836996
	H19	H	0.394997	0.283660	0.165206
	H20	H	0.711224	0.839917	0.402253
	H21	H	0.714462	0.165522	0.601275
	H22	H	0.279007	0.840685	0.600775
	H23	H	0.285791	0.167459	0.402363
	H24	H	0.895518	0.340457	0.220121
	H25	H	0.098885	0.666690	0.215821
	H26	H	0.095495	0.340596	0.785314
	H27	H	0.900435	0.666693	0.788307
	H28	H	0.209740	0.906952	0.337644
	H29	H	0.213546	0.104262	0.665345
	H30	H	0.784742	0.102365	0.337104
	H31	H	0.780966	0.902978	0.665322
	H32	H	0.332183	0.213842	0.901423
	H33	H	0.658252	0.221377	0.103014
	H34	H	0.334043	0.782853	0.102112
	H35	H	0.660878	0.787383	0.901090
	H36	H	0.334003	0.899062	0.217844
	H37	H	0.661419	0.100510	0.214040
	H38	H	0.332396	0.097752	0.787655
	H39	H	0.660940	0.904896	0.786685
	H40	H	0.899276	0.220346	0.338484
	H41	H	0.100656	0.220853	0.665477
	H42	H	0.097328	0.789680	0.338529
	H43	H	0.894613	0.786632	0.665317
	H44	H	0.208255	0.337396	0.904050
	H45	H	0.217592	0.662816	0.104086
	H46	H	0.778765	0.339811	0.103266
	H47	H	0.782180	0.665403	0.901242
	H48	H	0.405610	0.119859	0.595793
	H49	H	0.591343	0.884910	0.593411
	H50	H	0.593970	0.121932	0.400728
	H51	H	0.399718	0.886044	0.409896
	H52	H	0.581963	0.415055	0.114834
	H53	H	0.595750	0.589137	0.885063
	H54	H	0.398852	0.596489	0.123293
	H55	H	0.392623	0.408573	0.882938
	H56	H	0.115374	0.606362	0.413663
	H57	H	0.879729	0.603770	0.590037
	H58	H	0.115016	0.417090	0.599948
	H59	H	0.884451	0.406255	0.424299
	H60	H	0.117221	0.407802	0.594151
	H61	H	0.884953	0.587944	0.591224
	H62	H	0.111029	0.593162	0.414232
	H63	H	0.883867	0.421836	0.409169
	H64	H	0.405696	0.582572	0.115048
	H65	H	0.581239	0.591854	0.887627
	H66	H	0.584182	0.402257	0.119810
	H67	H	0.407714	0.413964	0.887116
	H68	H	0.585647	0.115732	0.410383
	H69	H	0.588010	0.886522	0.596780
	H70	H	0.406037	0.117992	0.594247
	H71	H	0.404653	0.887928	0.409654
	H72	H	0.907381	0.617226	0.092150
	H73	H	0.082426	0.388022	0.096410
	H74	H	0.099169	0.619816	0.910468
	H75	H	0.908554	0.389040	0.910083
	H76	H	0.081957	0.919775	0.615933
	H77	H	0.094909	0.100079	0.382686
	H78	H	0.903760	0.095221	0.619138
	H79	H	0.909385	0.904109	0.384643
	H80	H	0.610655	0.091226	0.911441
	H81	H	0.380183	0.089207	0.095424
	H82	H	0.609230	0.913975	0.087814
	H83	H	0.381037	0.901738	0.914550
	H84	H	0.615789	0.912878	0.102789
	H85	H	0.379844	0.093792	0.094265
	H86	H	0.613797	0.096849	0.903680
	H87	H	0.382314	0.912780	0.909592
	H88	H	0.907121	0.089519	0.616591
	H89	H	0.090898	0.095150	0.386293
	H90	H	0.083419	0.904144	0.620475
	H91	H	0.897219	0.909283	0.382216
	H92	H	0.089309	0.619269	0.904674
	H93	H	0.088975	0.387607	0.091047
	H94	H	0.902603	0.618812	0.092785
	H95	H	0.899476	0.386919	0.914417
	H96	H	0.404099	0.119762	0.594571
	H97	H	0.587349	0.887841	0.592248
	H98	H	0.598546	0.119832	0.413639
	H99	H	0.402117	0.887609	0.414142
	H100	H	0.594143	0.410982	0.120293
	H101	H	0.590718	0.602683	0.882260
	H102	H	0.415126	0.597052	0.117581
	H103	H	0.404736	0.397306	0.883432
	H104	H	0.116830	0.598857	0.402544
	H105	H	0.877973	0.595457	0.604436
	H106	H	0.111413	0.416146	0.589333
	H107	H	0.877356	0.402458	0.404264
	H108	H	0.905989	0.618286	0.096466
	H109	H	0.089212	0.384282	0.099617
	H110	H	0.089755	0.615817	0.915837
	H111	H	0.901020	0.384980	0.904664
	H112	H	0.096129	0.914080	0.620832
	H113	H	0.087954	0.102002	0.384033
	H114	H	0.910798	0.096192	0.617737
	H115	H	0.906527	0.917097	0.387168
	H116	H	0.613067	0.101705	0.912695
	H117	H	0.381273	0.090466	0.091824
	H118	H	0.616038	0.900776	0.092862
	H119	H	0.378592	0.904401	0.903411
	C120	C	0.374749	0.011715	0.623931
	C121	C	0.619073	0.994221	0.623563
	C122	C	0.620178	0.011339	0.379732
	C123	C	0.375360	0.995101	0.380723
	C124	C	0.616414	0.380539	0.010051
	C125	C	0.618800	0.623768	0.993328
	C126	C	0.376759	0.620986	0.010331
	C127	C	0.372905	0.377718	0.992955
	C128	C	0.006048	0.626134	0.380999
	C129	C	0.988491	0.626310	0.624444
	C130	C	0.006739	0.382778	0.624343
	C131	C	0.989982	0.382972	0.381998
	C132	C	0.874823	0.510822	0.124291
	C133	C	0.118301	0.493835	0.124333
	C134	C	0.119432	0.510384	0.881109
	C135	C	0.874961	0.494591	0.880399
	C136	C	0.116832	0.883809	0.510616
	C137	C	0.120613	0.127219	0.492932
	C138	C	0.877762	0.124234	0.509946
	C139	C	0.874961	0.880918	0.492694
	C140	C	0.504674	0.123648	0.880037
	C141	C	0.488170	0.122329	0.122986
	C142	C	0.505957	0.878645	0.123892
	C143	C	0.488792	0.878917	0.879603
	C144	C	0.375938	0.888576	0.678377
	C145	C	0.617772	0.116800	0.678628
	C146	C	0.615798	0.888040	0.325467
	C147	C	0.380648	0.117441	0.324479
	C148	C	0.672610	0.382623	0.886692
	C149	C	0.674514	0.622237	0.116879
	C150	C	0.321845	0.617847	0.886756
	C151	C	0.317875	0.379257	0.117030
	C152	C	0.882831	0.679493	0.383050
	C153	C	0.111649	0.683616	0.623265
	C154	C	0.884710	0.323547	0.624044
	C155	C	0.113202	0.329173	0.382379
	C156	C	0.883212	0.383210	0.679336
	C157	C	0.111940	0.624873	0.679531
	C158	C	0.883084	0.622348	0.325463
	C159	C	0.112921	0.387295	0.325499
	C160	C	0.377401	0.677185	0.887239
	C161	C	0.618162	0.680239	0.116198
	C162	C	0.614250	0.325867	0.886231
	C163	C	0.374477	0.321322	0.116345
	C164	C	0.674041	0.888576	0.382068
	C165	C	0.675872	0.116722	0.621292
	C166	C	0.317069	0.889491	0.621682
	C167	C	0.322497	0.118101	0.381933
	C168	C	0.875707	0.389101	0.181481
	C169	C	0.118600	0.617130	0.178977
	C170	C	0.115753	0.388444	0.824461
	C171	C	0.879252	0.617647	0.825547
	C172	C	0.172510	0.886284	0.387009
	C173	C	0.175975	0.124690	0.616376
	C174	C	0.821936	0.122911	0.386654
	C175	C	0.818974	0.882684	0.616171
	C176	C	0.381303	0.176760	0.881553
	C177	C	0.610175	0.181045	0.121720
	C178	C	0.382955	0.821368	0.122454
	C179	C	0.611823	0.824942	0.881092
	C180	C	0.382866	0.879308	0.180053
	C181	C	0.611807	0.121294	0.177252
	C182	C	0.381485	0.118970	0.824926
	C183	C	0.611944	0.883391	0.824136
	C184	C	0.879125	0.181359	0.387266
	C185	C	0.119850	0.182736	0.616297
	C186	C	0.116337	0.827932	0.387445
	C187	C	0.875466	0.824738	0.616155
	C188	C	0.172278	0.387142	0.883064
	C189	C	0.177564	0.615188	0.123261
	C190	C	0.817542	0.388524	0.123390
	C191	C	0.819941	0.616806	0.881660
	C192	C	0.398281	0.097274	0.601524
	C193	C	0.595620	0.908655	0.600919
	C194	C	0.599044	0.096905	0.401763
	C195	C	0.396048	0.909328	0.404423
	C196	C	0.593515	0.402841	0.095898
	C197	C	0.595973	0.601068	0.907204
	C198	C	0.399723	0.598434	0.096288
	C199	C	0.395073	0.400008	0.906953
	C200	C	0.091904	0.605374	0.403457
	C201	C	0.903082	0.602796	0.601661
	C202	C	0.092132	0.406738	0.601277
	C203	C	0.904132	0.403940	0.405602
	C204	C	0.898405	0.596258	0.100651
	C205	C	0.094004	0.408560	0.102146
	C206	C	0.098871	0.596059	0.903843
	C207	C	0.896627	0.409112	0.903034
	C208	C	0.093889	0.906178	0.596625
	C209	C	0.097899	0.105273	0.406684
	C210	C	0.900457	0.100683	0.595687
	C211	C	0.897719	0.903480	0.406772
	C212	C	0.590460	0.102714	0.902693
	C213	C	0.402443	0.098086	0.100377
	C214	C	0.591551	0.902224	0.101139
	C215	C	0.402956	0.900077	0.902413
	Zn216	Zn	0.496886	0.002352	0.752285
	Zn217	Zn	0.497434	0.001531	0.252289
	Zn218	Zn	0.745904	0.502216	0.001800
	Zn219	Zn	0.247214	0.500538	0.002669
	Zn220	Zn	-0.002866	0.754339	0.502475
	Zn221	Zn	-0.000627	0.254013	0.502702
	Zn222	Zn	-0.002470	0.503727	0.752289
	Zn223	Zn	-0.002399	0.504243	0.253213
	Zn224	Zn	0.497303	0.750389	0.001481
	Zn225	Zn	0.495087	0.251499	0.001449
	Zn226	Zn	0.747970	0.002723	0.501442
	Zn227	Zn	0.246084	0.004499	0.501706
	N228	N	0.411032	0.965587	0.679930
	N229	N	0.583080	0.039591	0.680044
	N230	N	0.583154	0.965423	0.323645
	N231	N	0.412513	0.039654	0.323662
	N232	N	0.674221	0.415794	0.964709
	N233	N	0.674932	0.587729	0.039341
	N234	N	0.321255	0.583712	0.964418
	N235	N	0.316738	0.413541	0.039480
	N236	N	0.960377	0.681999	0.416887
	N237	N	0.033970	0.684783	0.589828
	N238	N	0.962430	0.323119	0.590457
	N239	N	0.035754	0.326591	0.416785
	N240	N	0.959915	0.419541	0.679479
	N241	N	0.034574	0.589803	0.680350
	N242	N	0.960707	0.589893	0.324089
	N243	N	0.035242	0.419888	0.325068
	N244	N	0.410743	0.679193	0.965172
	N245	N	0.584564	0.681427	0.038256
	N246	N	0.579873	0.324556	0.963961
	N247	N	0.407679	0.319936	0.038176
	N248	N	0.676629	0.966098	0.415231
	N249	N	0.677062	0.039342	0.588057
	N250	N	0.316364	0.967110	0.588386
	N251	N	0.319103	0.040919	0.416193
	N252	N	0.910526	0.466264	0.181953
	N253	N	0.082264	0.540691	0.179567
	N254	N	0.083900	0.466157	0.822801
	N255	N	0.912637	0.540573	0.824613
	N256	N	0.172858	0.920512	0.464533
	N257	N	0.176654	0.090958	0.538598
	N258	N	0.821158	0.087990	0.464093
	N259	N	0.818406	0.916959	0.538488
	N260	N	0.458953	0.179834	0.915294
	N261	N	0.532181	0.181703	0.088600
	N262	N	0.460383	0.820847	0.088074
	N263	N	0.534183	0.822137	0.914963
	N264	N	0.460338	0.914110	0.181173
	N265	N	0.534882	0.085383	0.178028
	N266	N	0.459257	0.086748	0.823846
	N267	N	0.534320	0.916217	0.822996
	N268	N	0.912909	0.182460	0.464969
	N269	N	0.086111	0.184307	0.538452
	N270	N	0.082437	0.826313	0.465364
	N271	N	0.909632	0.823579	0.538431
	N272	N	0.174697	0.464176	0.917476
	N273	N	0.177612	0.537597	0.090032
	N274	N	0.816676	0.465431	0.088701
	N275	N	0.817270	0.539367	0.915247
	O276	O	0.541247	0.505360	0.514062
	H277	H	0.551265	0.499234	0.504444
	H278	H	0.539535	0.515088	0.514273
	O279	O	0.400305	0.515294	0.515492
	H280	H	0.410072	0.523676	0.507526
	H281	H	0.398169	0.511361	0.515948
	O282	O	0.966898	1.053848	0.034028
	H283	H	0.965856	1.055063	0.036648
	H284	H	0.953903	1.062562	0.022907
	O285	O	1.023904	-0.095661	0.953401
	H286	H	1.022766	-0.102720	0.959436
	H287	H	1.031447	-0.093209	0.949439
	O288	O	0.526460	0.458128	0.513951
	H289	H	0.518811	0.455791	0.521755
	H290	H	0.528857	0.465895	0.511611
	O291	O	0.474867	0.487177	0.545803
	H292	H	0.474010	0.489652	0.548140
	H293	H	0.471438	0.495804	0.554199
	O294	O	0.519614	0.502495	0.426540
	H295	H	0.523430	0.507872	0.423686
	H296	H	0.524865	0.495800	0.435089
	O297	O	-0.130002	0.061596	1.009441
	H298	H	-0.132473	0.060602	1.011551
	H299	H	-0.135369	0.065449	1.001508
	O300	O	0.527885	0.473392	0.423010
	H301	H	0.524677	0.465067	0.429800
	H302	H	0.533431	0.469235	0.428348
	O303	O	0.954107	1.017853	-0.163711
	H304	H	0.953922	1.017401	-0.166175
	H305	H	0.967612	1.008488	-0.164706
	O306	O	0.132899	0.967379	1.053799
	H307	H	0.131928	0.947334	1.058464
	H308	H	0.132691	0.965048	1.042019
	O309	O	0.583115	0.572859	0.614811
	H310	H	0.575783	0.578215	0.610748
	H311	H	0.585926	0.564897	0.616213
	O312	O	-0.052733	0.012356	-0.052051
	H313	H	-0.046520	0.011416	-0.047079
	H314	H	-0.062107	0.011849	-0.053160
	O315	O	0.889240	-0.114753	0.038392
	H316	H	0.881247	-0.104255	0.038847
	H317	H	0.897710	-0.113373	0.040634
	O318	O	1.036776	1.088518	1.032764
	H319	H	1.032971	1.097739	1.033308
	H320	H	1.039013	1.077701	1.030970
	O321	O	0.028395	-0.037512	1.008986
	H322	H	0.032614	-0.030280	1.004939
	H323	H	0.034453	-0.043897	1.005643
	O324	O	0.519388	0.528649	0.605777
	H325	H	0.504733	0.522381	0.605086
	H326	H	0.524455	0.533141	0.616894
	O327	O	-0.067715	-0.074967	0.108857
	H328	H	-0.077509	-0.071008	0.124479
	H329	H	-0.070472	-0.081645	0.122394
	O330	O	0.483704	0.468301	0.443345
	H331	H	0.481729	0.474412	0.436338
	H332	H	0.485983	0.464057	0.454162
	O333	O	-0.061401	0.982066	0.939995
	H334	H	-0.072349	0.977668	0.940148
	H335	H	-0.060839	0.987410	0.923553
	O336	O	0.097347	0.093189	-0.021753
	H337	H	0.101130	0.096194	-0.026601
	H338	H	0.093354	0.089675	-0.012855
	O339	O	0.498420	0.451201	0.512821
	H340	H	0.496574	0.445774	0.501204
	H341	H	0.495139	0.447464	0.526182
	O342	O	1.007876	0.900166	0.928354
	H343	H	1.003231	0.903955	0.924790
	H344	H	1.013692	0.900190	0.918806
	O345	O	0.837362	0.854028	0.086451
	H346	H	0.835334	0.860076	0.090843
	H347	H	0.827118	0.849305	0.103809
	O348	O	0.549036	0.485240	0.452433
	H349	H	0.539407	0.486942	0.442532
	H350	H	0.546543	0.508271	0.451080
	O351	O	1.097800	0.002141	-0.043195
	H352	H	1.101209	-0.005335	-0.042737
	H353	H	1.102184	-0.005261	-0.042911
	O354	O	0.523992	0.522414	0.382501
	H355	H	0.530310	0.509973	0.375540
	H356	H	0.519950	0.516816	0.388152
	O357	O	1.009940	0.064063	1.011030
	H358	H	0.999477	0.068708	1.005717
	H359	H	1.013215	0.071972	1.013622
	O360	O	0.456004	0.627607	0.498066
	H361	H	0.451989	0.626331	0.483055
	H362	H	0.454900	0.627455	0.507801
	O363	O	0.478370	0.486177	0.580017
	H364	H	0.480934	0.500351	0.589155
	H365	H	0.487289	0.481812	0.572729
	O366	O	1.039566	1.074924	1.119418
	H367	H	1.031657	1.060065	1.133374
	H368	H	1.049050	1.075804	1.124046
	O369	O	0.900648	0.135554	0.986823
	H370	H	0.910992	0.143666	0.975591
	H371	H	0.900608	0.141300	0.991101
	O372	O	0.139953	0.027918	-0.024272
	H373	H	0.138106	0.034990	-0.028716
	H374	H	0.147197	0.034129	-0.021641
	O375	O	1.004864	0.042778	-0.071243
	H376	H	1.013057	0.039287	-0.061199
	H377	H	1.005271	0.049877	-0.074126
	O378	O	0.552543	0.554304	0.508644
	H379	H	0.579439	0.562018	0.514697
	H380	H	0.546908	0.547356	0.502328
	O381	O	0.545486	0.530603	0.627211
	H382	H	0.542373	0.533038	0.626356
	H383	H	0.553787	0.534332	0.633632
