data_Molecule from HDF5

_cell_length_a		16.315058
_cell_length_b		16.320912
_cell_length_c		16.140071
_cell_angle_alpha	89.863284
_cell_angle_beta	89.745007
_cell_angle_gamma	89.740250
_symmetry_space_group_name_H-M	'P 1'
_symmetry_Int_Tables_number		1

loop_
	_symmetry_equiv_pos_as_xyz
	x,y,z

loop_
	_atom_site_label
	_atom_site_type_symbol
	_atom_site_fract_x
	_atom_site_fract_y
	_atom_site_fract_z
	H0	H	0.394346	0.837720	0.716883
	H1	H	0.587935	0.165639	0.714178
	H2	H	0.592136	0.838081	0.286789
	H3	H	0.393934	0.165215	0.286910
	H4	H	0.708256	0.401330	0.837859
	H5	H	0.704734	0.600240	0.167021
	H6	H	0.278174	0.600798	0.836987
	H7	H	0.276701	0.402495	0.166486
	H8	H	0.829632	0.719169	0.402846
	H9	H	0.155408	0.716094	0.601489
	H10	H	0.830093	0.285310	0.605818
	H11	H	0.154603	0.283934	0.401310
	H12	H	0.829362	0.404271	0.716742
	H13	H	0.156890	0.596585	0.713966
	H14	H	0.827852	0.600717	0.288832
	H15	H	0.155670	0.403656	0.288629
	H16	H	0.390663	0.718006	0.837659
	H17	H	0.589573	0.714990	0.166120
	H18	H	0.592170	0.286499	0.836843
	H19	H	0.390181	0.285169	0.165404
	H20	H	0.711964	0.840367	0.398765
	H21	H	0.706072	0.164830	0.600297
	H22	H	0.276013	0.838997	0.603128
	H23	H	0.275682	0.164730	0.401370
	H24	H	0.894997	0.337393	0.217854
	H25	H	0.088866	0.664895	0.216113
	H26	H	0.090812	0.337347	0.789804
	H27	H	0.894093	0.664746	0.788413
	H28	H	0.207069	0.902746	0.337423
	H29	H	0.205002	0.099822	0.666339
	H30	H	0.778041	0.103119	0.337265
	H31	H	0.776417	0.902755	0.665632
	H32	H	0.328909	0.217669	0.902022
	H33	H	0.654152	0.217220	0.101396
	H34	H	0.328567	0.786477	0.104404
	H35	H	0.654239	0.782857	0.899809
	H36	H	0.328519	0.904317	0.217195
	H37	H	0.655480	0.099214	0.214451
	H38	H	0.327304	0.098990	0.789282
	H39	H	0.655472	0.902493	0.786556
	H40	H	0.892476	0.218811	0.338912
	H41	H	0.089471	0.213762	0.666739
	H42	H	0.092677	0.787323	0.338081
	H43	H	0.892916	0.788397	0.667198
	H44	H	0.209345	0.339081	0.901957
	H45	H	0.204712	0.665130	0.100868
	H46	H	0.775077	0.338332	0.104798
	H47	H	0.773752	0.663005	0.900492
	H48	H	0.401909	0.116573	0.595749
	H49	H	0.595329	0.884567	0.588083
	H50	H	0.591190	0.120628	0.403969
	H51	H	0.394668	0.884326	0.411902
	H52	H	0.577543	0.410081	0.116782
	H53	H	0.584225	0.596096	0.883776
	H54	H	0.396029	0.595042	0.120063
	H55	H	0.406073	0.414523	0.887852
	H56	H	0.110974	0.599624	0.405158
	H57	H	0.877433	0.590450	0.596098
	H58	H	0.106656	0.417161	0.597416
	H59	H	0.882133	0.419341	0.422232
	H60	H	0.114113	0.398312	0.603242
	H61	H	0.873415	0.599660	0.600343
	H62	H	0.106278	0.596298	0.416878
	H63	H	0.873618	0.414057	0.397331
	H64	H	0.396224	0.593633	0.119181
	H65	H	0.585926	0.588158	0.885534
	H66	H	0.582104	0.402668	0.121055
	H67	H	0.401600	0.400790	0.882232
	H68	H	0.578394	0.117196	0.405208
	H69	H	0.585720	0.882607	0.604512
	H70	H	0.394882	0.117328	0.588882
	H71	H	0.401475	0.884598	0.405152
	H72	H	0.889919	0.619157	0.093652
	H73	H	0.087332	0.382404	0.102961
	H74	H	0.086801	0.616666	0.912687
	H75	H	0.900142	0.386522	0.915105
	H76	H	0.090960	0.909033	0.621729
	H77	H	0.093559	0.094875	0.381258
	H78	H	0.888942	0.091161	0.622042
	H79	H	0.904305	0.912617	0.386438
	H80	H	0.605799	0.085433	0.908221
	H81	H	0.378196	0.091922	0.088887
	H82	H	0.608972	0.903781	0.094300
	H83	H	0.377080	0.908124	0.915227
	H84	H	0.606316	0.907713	0.089728
	H85	H	0.375085	0.091626	0.098788
	H86	H	0.611166	0.097904	0.899782
	H87	H	0.376694	0.913457	0.908179
	H88	H	0.904218	0.086343	0.615932
	H89	H	0.080270	0.084964	0.387637
	H90	H	0.081237	0.913137	0.617816
	H91	H	0.903301	0.906711	0.383537
	H92	H	0.088989	0.619946	0.905303
	H93	H	0.078011	0.388437	0.093004
	H94	H	0.901602	0.617578	0.101031
	H95	H	0.894920	0.383217	0.909579
	H96	H	0.392918	0.120752	0.599012
	H97	H	0.577197	0.889489	0.588825
	H98	H	0.586251	0.115721	0.415938
	H99	H	0.403100	0.888492	0.414256
	H100	H	0.586939	0.411294	0.118864
	H101	H	0.578230	0.590837	0.886829
	H102	H	0.398240	0.594346	0.119514
	H103	H	0.391060	0.412771	0.882450
	H104	H	0.105995	0.587215	0.407166
	H105	H	0.876650	0.598724	0.590008
	H106	H	0.107241	0.401657	0.582678
	H107	H	0.873025	0.394391	0.416514
	H108	H	0.901033	0.614047	0.087766
	H109	H	0.092092	0.385599	0.088721
	H110	H	0.080981	0.616545	0.905871
	H111	H	0.902692	0.384564	0.907246
	H112	H	0.082609	0.902301	0.621003
	H113	H	0.078026	0.101863	0.383931
	H114	H	0.901963	0.101929	0.620728
	H115	H	0.898445	0.911141	0.383309
	H116	H	0.607566	0.100048	0.915668
	H117	H	0.373911	0.100687	0.093651
	H118	H	0.607063	0.909895	0.094933
	H119	H	0.374408	0.904515	0.907095
	C120	C	0.369130	0.010043	0.623984
	C121	C	0.613613	0.993518	0.622496
	C122	C	0.614768	0.010224	0.379062
	C123	C	0.370640	0.993438	0.380724
	C124	C	0.612584	0.378964	0.010388
	C125	C	0.611520	0.621291	0.993764
	C126	C	0.369201	0.623515	0.010700
	C127	C	0.370278	0.380220	0.993291
	C128	C	0.000105	0.623827	0.380589
	C129	C	0.983929	0.623440	0.623923
	C130	C	0.001488	0.378251	0.623980
	C131	C	0.983963	0.380359	0.382304
	C132	C	0.869346	0.509108	0.124335
	C133	C	0.113723	0.493186	0.123727
	C134	C	0.114395	0.510086	0.879678
	C135	C	0.870328	0.492814	0.881233
	C136	C	0.113951	0.879671	0.511213
	C137	C	0.112512	0.122182	0.493072
	C138	C	0.870332	0.123249	0.510906
	C139	C	0.871850	0.881010	0.493209
	C140	C	0.500120	0.123183	0.879663
	C141	C	0.483440	0.123114	0.122545
	C142	C	0.499964	0.879011	0.123448
	C143	C	0.483682	0.879355	0.880165
	C144	C	0.373261	0.886881	0.679300
	C145	C	0.609642	0.116595	0.677137
	C146	C	0.612916	0.887414	0.323840
	C147	C	0.372955	0.116370	0.324899
	C148	C	0.669729	0.380886	0.886808
	C149	C	0.666924	0.619807	0.117748
	C150	C	0.314942	0.621714	0.886542
	C151	C	0.314607	0.382358	0.117055
	C152	C	0.878047	0.680475	0.382689
	C153	C	0.106642	0.678099	0.621694
	C154	C	0.878753	0.323469	0.624210
	C155	C	0.106242	0.323251	0.382368
	C156	C	0.878309	0.382712	0.679478
	C157	C	0.107451	0.618655	0.677644
	C158	C	0.877030	0.621301	0.326202
	C159	C	0.106751	0.382563	0.326026
	C160	C	0.371343	0.679475	0.886921
	C161	C	0.609678	0.677077	0.117360
	C162	C	0.612014	0.324093	0.886315
	C163	C	0.371136	0.323894	0.116477
	C164	C	0.672453	0.888336	0.379645
	C165	C	0.668405	0.116123	0.620641
	C166	C	0.314236	0.887595	0.622794
	C167	C	0.314057	0.115961	0.381723
	C168	C	0.873182	0.386529	0.180406
	C169	C	0.109973	0.616102	0.178344
	C170	C	0.111950	0.386657	0.825991
	C171	C	0.873141	0.615586	0.825732
	C172	C	0.169400	0.882214	0.386899
	C173	C	0.167519	0.119890	0.617247
	C174	C	0.815348	0.122949	0.386976
	C175	C	0.815132	0.883106	0.616830
	C176	C	0.377407	0.179045	0.882078
	C177	C	0.605587	0.178790	0.121133
	C178	C	0.377453	0.824464	0.123125
	C179	C	0.605750	0.821967	0.880448
	C180	C	0.377325	0.882958	0.179394
	C181	C	0.606416	0.119911	0.177246
	C182	C	0.376416	0.119789	0.826174
	C183	C	0.606378	0.881104	0.823757
	C184	C	0.872379	0.180402	0.387835
	C185	C	0.109840	0.176338	0.617501
	C186	C	0.112719	0.824632	0.387305
	C187	C	0.872832	0.825948	0.617452
	C188	C	0.170773	0.387567	0.881962
	C189	C	0.167664	0.616183	0.120936
	C190	C	0.813769	0.386857	0.124037
	C191	C	0.813055	0.614748	0.881409
	C192	C	0.390501	0.096016	0.601249
	C193	C	0.592528	0.907774	0.600181
	C194	C	0.591870	0.095623	0.401634
	C195	C	0.393265	0.907927	0.403804
	C196	C	0.589207	0.401436	0.096479
	C197	C	0.589288	0.598271	0.907761
	C198	C	0.390668	0.601131	0.097300
	C199	C	0.393047	0.402740	0.906406
	C200	C	0.085744	0.600991	0.402990
	C201	C	0.898086	0.602309	0.602035
	C202	C	0.087067	0.399459	0.601086
	C203	C	0.898535	0.402788	0.405197
	C204	C	0.891145	0.594817	0.100957
	C205	C	0.092240	0.407630	0.101433
	C206	C	0.092106	0.595565	0.901440
	C207	C	0.892786	0.407106	0.904113
	C208	C	0.091552	0.901639	0.597650
	C209	C	0.090574	0.100351	0.406785
	C210	C	0.891863	0.099848	0.597416
	C211	C	0.895135	0.903654	0.406663
	C212	C	0.586060	0.100832	0.901464
	C213	C	0.397835	0.101215	0.100441
	C214	C	0.585410	0.900726	0.099863
	C215	C	0.398109	0.902123	0.903237
	Zn216	Zn	0.491975	0.001720	0.751323
	Zn217	Zn	0.492034	0.001342	0.251142
	Zn218	Zn	0.740256	0.500541	0.002615
	Zn219	Zn	0.242352	0.501959	0.001547
	Zn220	Zn	-0.007256	0.752640	0.502729
	Zn221	Zn	-0.007839	0.250420	0.502907
	Zn222	Zn	-0.007141	0.500415	0.751901
	Zn223	Zn	-0.008150	0.501488	0.252193
	Zn224	Zn	0.491011	0.749918	0.002092
	Zn225	Zn	0.491313	0.251696	0.001106
	Zn226	Zn	0.743065	0.002003	0.501063
	Zn227	Zn	0.240630	0.001407	0.501740
	N228	N	0.406791	0.964202	0.680015
	N229	N	0.576442	0.039342	0.678487
	N230	N	0.577789	0.964282	0.323377
	N231	N	0.407490	0.039374	0.324187
	N232	N	0.670373	0.414317	0.964934
	N233	N	0.668199	0.585608	0.039781
	N234	N	0.313452	0.587363	0.964395
	N235	N	0.314073	0.416726	0.039111
	N236	N	0.955621	0.682053	0.415800
	N237	N	0.028918	0.681250	0.589149
	N238	N	0.956294	0.320527	0.590694
	N239	N	0.029033	0.321766	0.416572
	N240	N	0.955741	0.416029	0.679806
	N241	N	0.030077	0.585383	0.679260
	N242	N	0.954132	0.586970	0.324706
	N243	N	0.029673	0.417312	0.325576
	N244	N	0.404235	0.680780	0.965158
	N245	N	0.576082	0.678067	0.039498
	N246	N	0.577241	0.322777	0.964077
	N247	N	0.404951	0.322746	0.038347
	N248	N	0.674001	0.965729	0.412965
	N249	N	0.671070	0.038597	0.587280
	N250	N	0.311599	0.965018	0.589133
	N251	N	0.312588	0.038429	0.415786
	N252	N	0.906810	0.463760	0.180809
	N253	N	0.076981	0.538814	0.179988
	N254	N	0.077491	0.463705	0.824512
	N255	N	0.907893	0.538568	0.825139
	N256	N	0.170323	0.915718	0.464976
	N257	N	0.169328	0.086833	0.538979
	N258	N	0.813866	0.087946	0.464532
	N259	N	0.814280	0.916489	0.538387
	N260	N	0.455265	0.181309	0.914283
	N261	N	0.528073	0.180855	0.087928
	N262	N	0.454827	0.821897	0.088927
	N263	N	0.528338	0.820622	0.914666
	N264	N	0.454530	0.916166	0.179708
	N265	N	0.529399	0.086046	0.178398
	N266	N	0.453893	0.085846	0.824223
	N267	N	0.529517	0.916062	0.823510
	N268	N	0.905618	0.180757	0.465906
	N269	N	0.076234	0.177854	0.539561
	N270	N	0.078857	0.822970	0.465549
	N271	N	0.907480	0.824754	0.539594
	N272	N	0.172436	0.465253	0.914653
	N273	N	0.170105	0.538679	0.087521
	N274	N	0.811188	0.464259	0.090089
	N275	N	0.811244	0.537272	0.915125
	O276	O	0.005882	-0.052049	-0.010853
	H277	H	0.000334	-0.061641	-0.014503
	H278	H	0.019098	-0.047521	-0.009948
	O279	O	0.535283	0.475551	0.521755
	H280	H	0.543909	0.468557	0.512322
	H281	H	0.525792	0.476906	0.517344
	O282	O	0.441255	0.487901	0.514537
	H283	H	0.437191	0.489060	0.509672
	H284	H	0.440694	0.477921	0.517970
	O285	O	0.044403	0.997550	1.070150
	H286	H	0.062272	0.992934	1.069343
	H287	H	0.049985	1.001092	1.072074
	O288	O	0.469759	0.530322	0.496622
	H289	H	0.465085	0.527099	0.496340
	H290	H	0.477727	0.534654	0.500257
	O291	O	0.992032	1.038497	1.003244
	H292	H	0.982792	1.046283	0.996247
	H293	H	0.993783	1.040024	1.007317
	O294	O	0.989909	0.895957	1.036537
	H295	H	1.001616	0.895371	1.042118
	H296	H	0.986695	0.888119	1.036181
	O297	O	0.957681	0.130873	1.007023
	H298	H	0.949694	0.124596	1.004992
	H299	H	0.946854	0.139519	1.008218
	O300	O	0.498113	0.589387	0.553006
	H301	H	0.487134	0.591111	0.550248
	H302	H	0.498288	0.592941	0.555262
	O303	O	1.037851	0.044898	0.039621
	H304	H	1.040127	0.048872	0.031823
	H305	H	1.042707	0.050060	0.029114
	O306	O	-0.021387	0.942696	0.916004
	H307	H	-0.021538	0.936863	0.908170
	H308	H	-0.024054	0.941603	0.917311
	O309	O	0.523999	0.520102	0.422395
	H310	H	0.520230	0.518895	0.423232
	H311	H	0.517954	0.527928	0.421871
	O312	O	0.922472	0.058029	1.049125
	H313	H	0.912711	0.063461	1.036374
	H314	H	0.923868	0.049954	1.044511
	O315	O	0.425546	0.503399	0.517752
	H316	H	0.430505	0.501611	0.504618
	H317	H	0.424622	0.498741	0.511463
	O318	O	0.499443	0.509290	0.565271
	H319	H	0.506119	0.517285	0.566172
	H320	H	0.498860	0.507463	0.571634
	O321	O	0.982798	1.037170	0.972707
	H322	H	0.965464	1.040885	0.977132
	H323	H	0.985955	1.043049	0.967253
	O324	O	0.493790	0.493916	0.376746
	H325	H	0.491193	0.494641	0.372591
	H326	H	0.501949	0.493958	0.389209
	O327	O	0.450025	0.494646	0.495496
	H328	H	0.454627	0.495970	0.481897
	H329	H	0.450977	0.491659	0.495111
	O330	O	1.070769	-0.064814	1.066789
	H331	H	1.075584	-0.053308	1.080612
	H332	H	1.080867	-0.074384	1.056678
	O333	O	1.004660	0.969865	-0.055461
	H334	H	1.011415	0.964974	-0.054326
	H335	H	1.002407	0.971994	-0.057157
	O336	O	0.466620	0.449172	0.566729
	H337	H	0.471066	0.454032	0.565966
	H338	H	0.461730	0.448705	0.565026
	O339	O	0.505740	0.511747	0.498642
	H340	H	0.524981	0.513554	0.496337
	H341	H	0.507076	0.515950	0.510601
	O342	O	-0.043856	0.922566	-0.007360
	H343	H	-0.043085	0.913580	-0.001710
	H344	H	-0.041763	0.907815	-0.004203
	O345	O	-0.012538	-0.075603	0.011072
	H346	H	-0.001935	-0.080909	0.013899
	H347	H	-0.009793	-0.073363	-0.005250
	O348	O	0.553267	0.507579	0.377219
	H349	H	0.552345	0.490541	0.385120
	H350	H	0.566417	0.518530	0.358135
	O351	O	0.581773	0.467409	0.520474
	H352	H	0.590193	0.463187	0.519451
	H353	H	0.574963	0.467614	0.521042
	O354	O	0.968577	1.113319	-0.025121
	H355	H	0.952007	1.120082	-0.025762
	H356	H	0.973769	1.108459	-0.023882
	O357	O	-0.069223	-0.031509	1.099157
	H358	H	-0.082654	-0.035156	1.103194
	H359	H	-0.067265	-0.036581	1.111036
	O360	O	-0.121613	-0.041560	-0.029233
	H361	H	-0.118596	-0.044739	-0.035554
	H362	H	-0.116191	-0.037381	-0.032572
	O363	O	0.482909	0.618910	0.540693
	H364	H	0.486734	0.616593	0.529548
	H365	H	0.477475	0.614550	0.540803
	O366	O	0.058601	0.092933	0.966770
	H367	H	0.042762	0.105649	0.964535
	H368	H	0.071777	0.089069	0.963315
	O369	O	1.513931	0.489615	-0.496633
	H370	H	1.513424	0.481013	-0.493999
	H371	H	1.502284	0.493554	-0.490117
