data_Molecule from HDF5

_cell_length_a		16.325535
_cell_length_b		16.402480
_cell_length_c		16.178648
_cell_angle_alpha	90.199781
_cell_angle_beta	89.989567
_cell_angle_gamma	90.197445
_symmetry_space_group_name_H-M	'P 1'
_symmetry_Int_Tables_number		1

loop_
	_symmetry_equiv_pos_as_xyz
	x,y,z

loop_
	_atom_site_label
	_atom_site_type_symbol
	_atom_site_fract_x
	_atom_site_fract_y
	_atom_site_fract_z
	H0	H	0.401853	0.832308	0.710329
	H1	H	0.597361	0.158929	0.713916
	H2	H	0.596470	0.833673	0.283075
	H3	H	0.402426	0.159636	0.284389
	H4	H	0.713202	0.398575	0.833967
	H5	H	0.713645	0.596910	0.162702
	H6	H	0.287582	0.592377	0.832957
	H7	H	0.283771	0.398757	0.162160
	H8	H	0.837487	0.712126	0.398189
	H9	H	0.161712	0.714598	0.600179
	H10	H	0.837841	0.278933	0.600646
	H11	H	0.162596	0.281159	0.398327
	H12	H	0.835604	0.400573	0.710853
	H13	H	0.162968	0.595082	0.712228
	H14	H	0.835335	0.592891	0.286197
	H15	H	0.162777	0.399461	0.283713
	H16	H	0.400204	0.710545	0.834339
	H17	H	0.598205	0.712205	0.163284
	H18	H	0.598686	0.282260	0.834457
	H19	H	0.399637	0.282227	0.162447
	H20	H	0.715564	0.833968	0.397315
	H21	H	0.715709	0.158779	0.599152
	H22	H	0.282823	0.834217	0.597045
	H23	H	0.283991	0.158916	0.400114
	H24	H	0.901217	0.334006	0.211360
	H25	H	0.097486	0.659887	0.213226
	H26	H	0.095881	0.334711	0.782549
	H27	H	0.901125	0.660408	0.783237
	H28	H	0.213483	0.898913	0.334437
	H29	H	0.213010	0.096693	0.663481
	H30	H	0.786794	0.093500	0.333954
	H31	H	0.785519	0.898182	0.663012
	H32	H	0.337834	0.212316	0.897122
	H33	H	0.662010	0.213610	0.100174
	H34	H	0.336840	0.780345	0.099273
	H35	H	0.661891	0.780283	0.897560
	H36	H	0.335302	0.900194	0.210660
	H37	H	0.662878	0.095513	0.212971
	H38	H	0.335146	0.091558	0.786817
	H39	H	0.662567	0.899079	0.784384
	H40	H	0.901767	0.208960	0.334553
	H41	H	0.099801	0.212466	0.662377
	H42	H	0.099389	0.781641	0.334342
	H43	H	0.900666	0.782724	0.662222
	H44	H	0.214716	0.335237	0.896305
	H45	H	0.216773	0.658815	0.099376
	H46	H	0.781235	0.335759	0.098775
	H47	H	0.783671	0.660396	0.899039
	H48	H	0.406396	0.109466	0.583696
	H49	H	0.590830	0.883142	0.586988
	H50	H	0.593052	0.112262	0.405075
	H51	H	0.406413	0.883588	0.411332
	H52	H	0.587216	0.406438	0.113735
	H53	H	0.584062	0.595987	0.881603
	H54	H	0.405104	0.587799	0.115390
	H55	H	0.407110	0.397893	0.879027
	H56	H	0.118123	0.598211	0.406436
	H57	H	0.881721	0.591127	0.592132
	H58	H	0.114023	0.402532	0.584724
	H59	H	0.880683	0.394857	0.402526
	H60	H	0.114919	0.409232	0.592076
	H61	H	0.883061	0.592149	0.588464
	H62	H	0.112638	0.586776	0.412363
	H63	H	0.885599	0.400694	0.412635
	H64	H	0.408890	0.587971	0.114488
	H65	H	0.600303	0.590865	0.878493
	H66	H	0.590850	0.400752	0.117104
	H67	H	0.403552	0.405902	0.880765
	H68	H	0.593513	0.111083	0.407061
	H69	H	0.597536	0.879763	0.589323
	H70	H	0.397443	0.115434	0.596882
	H71	H	0.399281	0.878767	0.403575
	H72	H	0.903056	0.617646	0.105048
	H73	H	0.099663	0.380319	0.086040
	H74	H	0.092143	0.612492	0.902919
	H75	H	0.905649	0.382185	0.903937
	H76	H	0.092163	0.904159	0.616375
	H77	H	0.093614	0.093243	0.379911
	H78	H	0.912247	0.085345	0.613094
	H79	H	0.905064	0.901471	0.380661
	H80	H	0.616306	0.091837	0.905254
	H81	H	0.384618	0.088173	0.089179
	H82	H	0.612616	0.906917	0.083529
	H83	H	0.384795	0.906238	0.906473
	H84	H	0.616213	0.906806	0.096415
	H85	H	0.382523	0.089523	0.093068
	H86	H	0.615384	0.089641	0.907965
	H87	H	0.381568	0.900140	0.901313
	H88	H	0.909172	0.095657	0.617714
	H89	H	0.094798	0.086309	0.381278
	H90	H	0.091674	0.906545	0.615338
	H91	H	0.906396	0.905273	0.381887
	H92	H	0.092374	0.612229	0.908404
	H93	H	0.090060	0.380068	0.097911
	H94	H	0.918987	0.607638	0.088791
	H95	H	0.905423	0.383032	0.906470
	H96	H	0.413888	0.111944	0.598432
	H97	H	0.591125	0.880403	0.594174
	H98	H	0.595821	0.111879	0.405683
	H99	H	0.409633	0.881835	0.400161
	H100	H	0.594553	0.407328	0.115895
	H101	H	0.588821	0.580423	0.885730
	H102	H	0.407111	0.590793	0.116237
	H103	H	0.411510	0.404640	0.882863
	H104	H	0.116788	0.586712	0.398735
	H105	H	0.884545	0.588740	0.590217
	H106	H	0.117921	0.399919	0.593727
	H107	H	0.883570	0.407237	0.402148
	H108	H	0.895632	0.613215	0.082026
	H109	H	0.085572	0.385243	0.084410
	H110	H	0.096698	0.613793	0.905519
	H111	H	0.903269	0.382218	0.904815
	H112	H	0.089451	0.904135	0.615181
	H113	H	0.088438	0.089095	0.383052
	H114	H	0.901882	0.086531	0.617070
	H115	H	0.909497	0.902260	0.381246
	H116	H	0.615407	0.088128	0.904682
	H117	H	0.383836	0.092581	0.089555
	H118	H	0.617534	0.895960	0.088652
	H119	H	0.382998	0.898524	0.909432
	C120	C	0.377250	0.004349	0.620694
	C121	C	0.621522	0.988155	0.619920
	C122	C	0.621869	0.004274	0.376555
	C123	C	0.377107	0.988766	0.376799
	C124	C	0.620013	0.376210	0.006974
	C125	C	0.620029	0.618340	0.990348
	C126	C	0.378316	0.617403	0.006944
	C127	C	0.377815	0.374814	0.989518
	C128	C	0.007909	0.618393	0.377107
	C129	C	0.991260	0.619200	0.619686
	C130	C	0.007716	0.375534	0.619306
	C131	C	0.991108	0.373510	0.376278
	C132	C	0.876859	0.505565	0.120429
	C133	C	0.120966	0.488877	0.119253
	C134	C	0.121168	0.505692	0.876051
	C135	C	0.876684	0.489994	0.876538
	C136	C	0.119961	0.876301	0.507127
	C137	C	0.121091	0.118390	0.490079
	C138	C	0.879179	0.117159	0.507156
	C139	C	0.878284	0.875177	0.489663
	C140	C	0.507843	0.117889	0.877039
	C141	C	0.491248	0.118888	0.119876
	C142	C	0.507723	0.874927	0.119035
	C143	C	0.490872	0.873459	0.876747
	C144	C	0.380442	0.881677	0.674101
	C145	C	0.618212	0.110422	0.675710
	C146	C	0.618013	0.882222	0.320866
	C147	C	0.380992	0.111001	0.322044
	C148	C	0.675594	0.378179	0.883318
	C149	C	0.675609	0.616859	0.113908
	C150	C	0.324209	0.613863	0.882532
	C151	C	0.322000	0.377878	0.113095
	C152	C	0.885629	0.673375	0.378791
	C153	C	0.113366	0.675421	0.619177
	C154	C	0.885953	0.318425	0.619309
	C155	C	0.113751	0.318811	0.377926
	C156	C	0.884770	0.378821	0.674149
	C157	C	0.113947	0.616283	0.675033
	C158	C	0.884643	0.613788	0.323302
	C159	C	0.113904	0.377608	0.321117
	C160	C	0.379700	0.672909	0.883486
	C161	C	0.618487	0.674366	0.113981
	C162	C	0.618365	0.320763	0.883332
	C163	C	0.379255	0.319861	0.113151
	C164	C	0.676862	0.882360	0.377975
	C165	C	0.677359	0.110326	0.618964
	C166	C	0.321299	0.882460	0.617747
	C167	C	0.322541	0.110769	0.379761
	C168	C	0.879626	0.383090	0.174857
	C169	C	0.118413	0.611151	0.175337
	C170	C	0.117220	0.383361	0.820263
	C171	C	0.880218	0.611878	0.821401
	C172	C	0.175832	0.878319	0.383439
	C173	C	0.176184	0.116704	0.613924
	C174	C	0.824428	0.114035	0.383343
	C175	C	0.822861	0.877603	0.613575
	C176	C	0.385921	0.173425	0.878189
	C177	C	0.613428	0.175079	0.119372
	C178	C	0.385111	0.818950	0.118814
	C179	C	0.613324	0.818265	0.877962
	C180	C	0.384663	0.878334	0.174507
	C181	C	0.613989	0.116030	0.175034
	C182	C	0.384666	0.113299	0.823151
	C183	C	0.613638	0.877257	0.821463
	C184	C	0.881276	0.171839	0.383657
	C185	C	0.119749	0.174462	0.613477
	C186	C	0.118822	0.820551	0.383247
	C187	C	0.880243	0.820324	0.613332
	C188	C	0.176183	0.383549	0.877005
	C189	C	0.177770	0.610672	0.118727
	C190	C	0.820142	0.383856	0.118635
	C191	C	0.821650	0.611833	0.878844
	C192	C	0.399246	0.090043	0.599233
	C193	C	0.599668	0.903002	0.596934
	C194	C	0.600429	0.089834	0.399279
	C195	C	0.398811	0.903480	0.398516
	C196	C	0.597440	0.398411	0.093221
	C197	C	0.597610	0.595891	0.904282
	C198	C	0.400669	0.595346	0.093113
	C199	C	0.400555	0.396613	0.903397
	C200	C	0.093751	0.596986	0.399268
	C201	C	0.905436	0.597224	0.596948
	C202	C	0.093452	0.397443	0.596751
	C203	C	0.905476	0.394652	0.399253
	C204	C	0.899082	0.590895	0.098355
	C205	C	0.098373	0.403866	0.096234
	C206	C	0.099886	0.590962	0.899043
	C207	C	0.898296	0.404339	0.898638
	C208	C	0.097729	0.898596	0.593183
	C209	C	0.098900	0.095937	0.403791
	C210	C	0.901249	0.095628	0.593566
	C211	C	0.900385	0.896774	0.403668
	C212	C	0.593786	0.096196	0.899545
	C213	C	0.405707	0.096591	0.097219
	C214	C	0.593094	0.896884	0.096259
	C215	C	0.405151	0.895152	0.899423
	Zn216	Zn	0.498838	-0.004369	0.748833
	Zn217	Zn	0.499470	-0.003486	0.247340
	Zn218	Zn	0.747856	0.497527	-0.001500
	Zn219	Zn	0.250184	0.496959	-0.002666
	Zn220	Zn	-0.000147	0.747348	0.498218
	Zn221	Zn	-0.000070	0.245826	0.498809
	Zn222	Zn	-0.001239	0.497523	0.747402
	Zn223	Zn	-0.000947	0.496632	0.248889
	Zn224	Zn	0.498964	0.746033	-0.001069
	Zn225	Zn	0.499937	0.246809	-0.001580
	Zn226	Zn	0.750845	-0.003453	0.498529
	Zn227	Zn	0.248099	-0.002964	0.499151
	N228	N	0.414554	0.958442	0.675819
	N229	N	0.584271	0.033466	0.676692
	N230	N	0.584412	0.958995	0.319965
	N231	N	0.414318	0.034150	0.320298
	N232	N	0.676628	0.412012	0.961332
	N233	N	0.676715	0.582664	0.036124
	N234	N	0.322959	0.580125	0.960223
	N235	N	0.320822	0.411095	0.035189
	N236	N	0.963304	0.676286	0.411633
	N237	N	0.035992	0.677318	0.585462
	N238	N	0.963446	0.316191	0.586135
	N239	N	0.036140	0.316106	0.411322
	N240	N	0.961501	0.413637	0.674288
	N241	N	0.036908	0.582121	0.675609
	N242	N	0.961903	0.580488	0.322045
	N243	N	0.036792	0.410861	0.319970
	N244	N	0.412743	0.674964	0.961732
	N245	N	0.584456	0.675212	0.036186
	N246	N	0.584702	0.319253	0.961215
	N247	N	0.413403	0.317873	0.035300
	N248	N	0.679289	0.959473	0.411695
	N249	N	0.679159	0.033557	0.584797
	N250	N	0.319284	0.959834	0.585214
	N251	N	0.319990	0.033730	0.413128
	N252	N	0.914263	0.459705	0.176002
	N253	N	0.083818	0.534520	0.175998
	N254	N	0.083446	0.460230	0.819738
	N255	N	0.913457	0.534905	0.819689
	N256	N	0.176501	0.912321	0.461272
	N257	N	0.177091	0.082482	0.536107
	N258	N	0.823079	0.080746	0.461182
	N259	N	0.821513	0.911050	0.535770
	N260	N	0.463750	0.176220	0.910969
	N261	N	0.535939	0.177065	0.085758
	N262	N	0.462412	0.816615	0.085304
	N263	N	0.535808	0.815850	0.911522
	N264	N	0.461794	0.912536	0.174707
	N265	N	0.537027	0.081863	0.175686
	N266	N	0.461637	0.079394	0.822310
	N267	N	0.536641	0.911007	0.820799
	N268	N	0.914844	0.173749	0.461652
	N269	N	0.086153	0.175656	0.535576
	N270	N	0.084728	0.819111	0.461063
	N271	N	0.914065	0.818640	0.535552
	N272	N	0.178960	0.460547	0.910488
	N273	N	0.179663	0.533659	0.084673
	N274	N	0.818360	0.461044	0.085627
	N275	N	0.819500	0.534846	0.912436
	O276	O	1.009997	1.025136	-0.016608
	H277	H	1.017986	1.028079	-0.010409
	H278	H	1.020955	1.029264	-0.009920
	O279	O	0.056942	0.087844	-0.031278
	H280	H	0.062900	0.088202	-0.028489
	H281	H	0.061992	0.088117	-0.029900
	O282	O	-0.010936	0.024518	0.926202
	H283	H	-0.011053	0.015885	0.929212
	H284	H	-0.010021	0.037725	0.917245
	O285	O	0.517388	0.466281	0.493142
	H286	H	0.516973	0.466647	0.491883
	H287	H	0.521940	0.461938	0.503386
	O288	O	0.539583	0.442083	0.475930
	H289	H	0.527940	0.436153	0.480858
	H290	H	0.540680	0.451119	0.471355
	O291	O	0.512870	0.478815	0.552023
	H292	H	0.513452	0.483969	0.562948
	H293	H	0.519561	0.472775	0.550305
	O294	O	0.004327	0.000125	0.037852
	H295	H	0.010389	0.009616	0.031708
	H296	H	0.009107	-0.015841	0.032068
	O297	O	0.556546	0.499414	0.499146
	H298	H	0.560675	0.496354	0.494643
	H299	H	0.551856	0.506219	0.500592
	O300	O	-0.003359	1.015364	1.034512
	H301	H	-0.007293	1.008122	1.032813
	H302	H	-0.008375	1.012856	1.040278
	O303	O	0.541097	0.467199	0.547641
	H304	H	0.543101	0.468305	0.552298
	H305	H	0.536155	0.469380	0.552215
	O306	O	0.018956	0.062961	1.051614
	H307	H	0.014114	0.060383	1.055809
	H308	H	0.015427	0.059950	1.053495
	O309	O	0.992115	1.000757	1.055565
	H310	H	0.988984	1.001151	1.063016
	H311	H	0.988352	1.008406	1.051577
	O312	O	0.550072	0.496963	0.488082
	H313	H	0.549447	0.498643	0.479595
	H314	H	0.552688	0.496571	0.489263
	O315	O	0.527814	0.510221	0.509831
	H316	H	0.525701	0.502450	0.507852
	H317	H	0.537669	0.511222	0.500423
	O318	O	-0.026445	1.015121	0.000598
	H319	H	-0.032902	1.008116	0.004018
	H320	H	-0.036451	1.018590	-0.000442
	O321	O	0.973948	1.051014	0.073911
	H322	H	0.975391	1.056768	0.063195
	H323	H	0.974845	1.056784	0.083622
