data_Molecule from HDF5

_cell_length_a		16.407933
_cell_length_b		16.600110
_cell_length_c		16.484467
_cell_angle_alpha	90.217963
_cell_angle_beta	89.831198
_cell_angle_gamma	89.931513
_symmetry_space_group_name_H-M	'P 1'
_symmetry_Int_Tables_number		1

loop_
	_symmetry_equiv_pos_as_xyz
	x,y,z

loop_
	_atom_site_label
	_atom_site_type_symbol
	_atom_site_fract_x
	_atom_site_fract_y
	_atom_site_fract_z
	H0	H	0.407473	0.846035	0.730104
	H1	H	0.616666	0.159623	0.737716
	H2	H	0.618199	0.849369	0.287449
	H3	H	0.399601	0.158384	0.285775
	H4	H	0.734597	0.395693	0.855728
	H5	H	0.729623	0.606180	0.171200
	H6	H	0.291429	0.604917	0.854198
	H7	H	0.284152	0.395007	0.168535
	H8	H	0.852689	0.724505	0.407731
	H9	H	0.167207	0.724488	0.616911
	H10	H	0.853488	0.278872	0.620741
	H11	H	0.167702	0.278159	0.401426
	H12	H	0.852174	0.396653	0.734226
	H13	H	0.167651	0.607066	0.731198
	H14	H	0.849867	0.603619	0.296213
	H15	H	0.167197	0.394577	0.287266
	H16	H	0.406516	0.722324	0.854777
	H17	H	0.617319	0.725954	0.169175
	H18	H	0.619984	0.278367	0.856308
	H19	H	0.395843	0.274820	0.166197
	H20	H	0.733929	0.849359	0.405093
	H21	H	0.734542	0.159844	0.621772
	H22	H	0.293048	0.844791	0.611555
	H23	H	0.284801	0.159364	0.404442
	H24	H	0.901856	0.345718	0.236247
	H25	H	0.112906	0.659792	0.232889
	H26	H	0.119875	0.349109	0.784453
	H27	H	0.906492	0.660004	0.792643
	H28	H	0.229218	0.900461	0.352778
	H29	H	0.225867	0.103984	0.670877
	H30	H	0.785494	0.110945	0.354788
	H31	H	0.789936	0.900969	0.668834
	H32	H	0.355310	0.228486	0.902891
	H33	H	0.664588	0.233157	0.126833
	H34	H	0.352581	0.783866	0.116050
	H35	H	0.669244	0.783112	0.906016
	H36	H	0.351617	0.900135	0.231432
	H37	H	0.665349	0.115249	0.239330
	H38	H	0.350856	0.104954	0.794951
	H39	H	0.668705	0.900008	0.791022
	H40	H	0.900860	0.227192	0.353866
	H41	H	0.114938	0.225209	0.667721
	H42	H	0.116340	0.780841	0.354236
	H43	H	0.904102	0.783229	0.667752
	H44	H	0.234893	0.348227	0.902894
	H45	H	0.228623	0.660896	0.115513
	H46	H	0.784716	0.346287	0.120951
	H47	H	0.792372	0.660897	0.912323
	H48	H	0.409304	0.119240	0.602524
	H49	H	0.598946	0.892989	0.601295
	H50	H	0.594719	0.114040	0.428711
	H51	H	0.407789	0.889754	0.427549
	H52	H	0.593387	0.415161	0.122945
	H53	H	0.597555	0.596522	0.899004
	H54	H	0.418878	0.593086	0.125692
	H55	H	0.421449	0.413381	0.899061
	H56	H	0.122653	0.586731	0.422737
	H57	H	0.895760	0.591044	0.601236
	H58	H	0.118755	0.425561	0.596942
	H59	H	0.899808	0.413171	0.429949
	H60	H	0.125255	0.410940	0.603863
	H61	H	0.894597	0.596234	0.603765
	H62	H	0.125836	0.594395	0.417121
	H63	H	0.898955	0.419250	0.422222
	H64	H	0.422154	0.593300	0.125370
	H65	H	0.606096	0.595780	0.896486
	H66	H	0.597065	0.417700	0.123826
	H67	H	0.424337	0.420153	0.904372
	H68	H	0.595342	0.115169	0.425276
	H69	H	0.598094	0.893481	0.599748
	H70	H	0.420082	0.119203	0.612989
	H71	H	0.424062	0.889676	0.407817
	H72	H	0.919118	0.614217	0.104257
	H73	H	0.098055	0.390510	0.101765
	H74	H	0.093370	0.613356	0.922315
	H75	H	0.923663	0.392235	0.926285
	H76	H	0.105614	0.919596	0.624146
	H77	H	0.094404	0.088007	0.400408
	H78	H	0.915040	0.092198	0.625100
	H79	H	0.926966	0.918043	0.400817
	H80	H	0.623127	0.090270	0.924768
	H81	H	0.396371	0.091445	0.103825
	H82	H	0.626199	0.912077	0.103957
	H83	H	0.395305	0.911146	0.917776
	H84	H	0.623682	0.911618	0.095185
	H85	H	0.401838	0.094427	0.088237
	H86	H	0.622858	0.090611	0.926145
	H87	H	0.394716	0.906040	0.921734
	H88	H	0.926291	0.085379	0.618722
	H89	H	0.096058	0.094877	0.397831
	H90	H	0.090905	0.911911	0.622595
	H91	H	0.924621	0.910582	0.397563
	H92	H	0.103625	0.614535	0.926950
	H93	H	0.094642	0.392517	0.097915
	H94	H	0.921334	0.613071	0.103763
	H95	H	0.918367	0.389410	0.921588
	H96	H	0.423188	0.113984	0.599043
	H97	H	0.599783	0.892812	0.599844
	H98	H	0.592034	0.113618	0.425759
	H99	H	0.431684	0.899295	0.429775
	H100	H	0.593546	0.419136	0.121466
	H101	H	0.602065	0.589201	0.900151
	H102	H	0.420030	0.596225	0.126127
	H103	H	0.429204	0.413158	0.902454
	H104	H	0.123111	0.596535	0.426689
	H105	H	0.896046	0.596099	0.597818
	H106	H	0.119534	0.411173	0.587652
	H107	H	0.895480	0.410220	0.421619
	H108	H	0.919802	0.613066	0.101984
	H109	H	0.100459	0.391516	0.096892
	H110	H	0.101795	0.617955	0.915964
	H111	H	0.925615	0.390489	0.919376
	H112	H	0.104083	0.903823	0.629174
	H113	H	0.101356	0.089222	0.397717
	H114	H	0.928005	0.098984	0.623208
	H115	H	0.918827	0.917003	0.397401
	H116	H	0.622477	0.089437	0.926081
	H117	H	0.404594	0.079342	0.095340
	H118	H	0.622424	0.919562	0.100140
	H119	H	0.396982	0.911610	0.923720
	C120	C	0.387923	0.012248	0.633745
	C121	C	0.631690	0.996233	0.634305
	C122	C	0.629858	0.012613	0.391298
	C123	C	0.387054	0.995164	0.388855
	C124	C	0.630534	0.382384	0.020304
	C125	C	0.632591	0.624919	1.003722
	C126	C	0.389369	0.624471	0.020976
	C127	C	0.388999	0.381416	1.004432
	C128	C	0.018754	0.623532	0.391242
	C129	C	1.000467	0.625603	0.632728
	C130	C	0.017802	0.382362	0.631404
	C131	C	1.001820	0.380435	0.390141
	C132	C	0.887101	0.510053	0.135393
	C133	C	0.130410	0.494739	0.132292
	C134	C	0.132779	0.512309	0.888316
	C135	C	0.889958	0.494515	0.891573
	C136	C	0.132171	0.880573	0.520460
	C137	C	0.130155	0.123453	0.502507
	C138	C	0.888406	0.125597	0.519183
	C139	C	0.890015	0.883474	0.502451
	C140	C	0.518739	0.122968	0.892734
	C141	C	0.502527	0.125161	0.132966
	C142	C	0.519280	0.882455	0.132578
	C143	C	0.501407	0.879928	0.889716
	C144	C	0.388136	0.893405	0.690935
	C145	C	0.634719	0.113074	0.696746
	C146	C	0.635300	0.896007	0.328411
	C147	C	0.382327	0.111915	0.326832
	C148	C	0.693832	0.377567	0.902933
	C149	C	0.690887	0.625597	0.123230
	C150	C	0.330668	0.624583	0.901743
	C151	C	0.325017	0.377305	0.121277
	C152	C	0.899740	0.683813	0.389269
	C153	C	0.119631	0.684904	0.635289
	C154	C	0.900372	0.320147	0.636957
	C155	C	0.120216	0.318771	0.385029
	C156	C	0.899635	0.378963	0.693620
	C157	C	0.119915	0.626306	0.691815
	C158	C	0.898207	0.623621	0.334034
	C159	C	0.120100	0.376799	0.328033
	C160	C	0.388287	0.682638	0.901711
	C161	C	0.634977	0.685256	0.122133
	C162	C	0.636811	0.319243	0.903299
	C163	C	0.381057	0.317567	0.120377
	C164	C	0.692806	0.896021	0.386987
	C165	C	0.693406	0.113134	0.638998
	C166	C	0.331112	0.892896	0.632013
	C167	C	0.325222	0.112568	0.386064
	C168	C	0.884176	0.392586	0.195592
	C169	C	0.132139	0.612740	0.192950
	C170	C	0.137040	0.395559	0.825924
	C171	C	0.887895	0.612955	0.832730
	C172	C	0.190537	0.880470	0.400640
	C173	C	0.188290	0.124370	0.622443
	C174	C	0.826143	0.128794	0.401578
	C175	C	0.829482	0.882168	0.621198
	C176	C	0.401214	0.185677	0.887478
	C177	C	0.618036	0.190771	0.141771
	C178	C	0.400375	0.823026	0.134887
	C179	C	0.621446	0.822471	0.887833
	C180	C	0.399781	0.881298	0.192055
	C181	C	0.618816	0.131643	0.197552
	C182	C	0.399118	0.124736	0.833417
	C183	C	0.621135	0.880458	0.830509
	C184	C	0.883931	0.186563	0.401251
	C185	C	0.132813	0.184241	0.621100
	C186	C	0.134537	0.820837	0.401513
	C187	C	0.886139	0.823335	0.620573
	C188	C	0.194330	0.394959	0.884765
	C189	C	0.189551	0.613376	0.134288
	C190	C	0.825711	0.392775	0.138016
	C191	C	0.831262	0.613442	0.892116
	C192	C	0.410863	0.095796	0.611268
	C193	C	0.606090	0.914511	0.607750
	C194	C	0.602043	0.093284	0.418830
	C195	C	0.413516	0.914055	0.414376
	C196	C	0.602558	0.409508	0.101512
	C197	C	0.608659	0.600731	0.920480
	C198	C	0.413578	0.600932	0.104102
	C199	C	0.417132	0.408026	0.923142
	C200	C	0.102096	0.599447	0.415332
	C201	C	0.917150	0.601357	0.608004
	C202	C	0.099801	0.408495	0.604062
	C203	C	0.919575	0.406584	0.416923
	C204	C	0.912668	0.591963	0.110511
	C205	C	0.105057	0.412944	0.106232
	C206	C	0.106923	0.593948	0.914545
	C207	C	0.915105	0.412276	0.915491
	C208	C	0.107479	0.904761	0.603678
	C209	C	0.104659	0.098205	0.420064
	C210	C	0.915417	0.099731	0.601051
	C211	C	0.916121	0.908129	0.419963
	C212	C	0.601268	0.097512	0.918387
	C213	C	0.421795	0.096663	0.104131
	C214	C	0.602508	0.907368	0.107280
	C215	C	0.417438	0.903049	0.914204
	Zn216	Zn	0.509439	0.003334	0.763377
	Zn217	Zn	0.509979	0.004433	0.260945
	Zn218	Zn	0.759717	0.502476	0.012330
	Zn219	Zn	0.260301	0.503611	0.012034
	Zn220	Zn	0.009612	0.753284	0.511367
	Zn221	Zn	0.010174	0.252893	0.511018
	Zn222	Zn	0.009667	0.503561	0.760243
	Zn223	Zn	0.009927	0.502129	0.262890
	Zn224	Zn	0.511197	0.753175	0.011754
	Zn225	Zn	0.510473	0.252831	0.012104
	Zn226	Zn	0.760495	0.004479	0.511809
	Zn227	Zn	0.259111	0.003191	0.511550
	N228	N	0.422576	0.968656	0.692323
	N229	N	0.597023	0.039304	0.693671
	N230	N	0.596929	0.969560	0.331040
	N231	N	0.419968	0.038018	0.328369
	N232	N	0.690238	0.415895	0.976740
	N233	N	0.689583	0.588922	0.048448
	N234	N	0.331361	0.589070	0.976687
	N235	N	0.329903	0.416461	0.048062
	N236	N	0.975587	0.683884	0.424037
	N237	N	0.044400	0.684320	0.599045
	N238	N	0.974954	0.322061	0.599015
	N239	N	0.045447	0.320851	0.422787
	N240	N	0.973787	0.417031	0.690291
	N241	N	0.044665	0.590251	0.690516
	N242	N	0.973364	0.586778	0.335104
	N243	N	0.045563	0.414382	0.330956
	N244	N	0.423808	0.683069	0.977186
	N245	N	0.599626	0.684938	0.046731
	N246	N	0.598300	0.322008	0.977554
	N247	N	0.420352	0.320185	0.046685
	N248	N	0.689581	0.969616	0.425268
	N249	N	0.691613	0.039422	0.600799
	N250	N	0.330756	0.967917	0.597160
	N251	N	0.328130	0.039151	0.424106
	N252	N	0.921691	0.466425	0.194081
	N253	N	0.096513	0.537791	0.192250
	N254	N	0.099591	0.469514	0.827948
	N255	N	0.923518	0.538088	0.832045
	N256	N	0.189278	0.916657	0.475715
	N257	N	0.187134	0.087662	0.547538
	N258	N	0.828822	0.091878	0.476034
	N259	N	0.831682	0.919003	0.546645
	N260	N	0.476551	0.184671	0.923596
	N261	N	0.544500	0.186889	0.102212
	N262	N	0.476010	0.823553	0.098770
	N263	N	0.545830	0.821929	0.923656
	N264	N	0.475046	0.917317	0.190963
	N265	N	0.545899	0.091446	0.191949
	N266	N	0.473142	0.086259	0.836546
	N267	N	0.545237	0.915246	0.831372
	N268	N	0.921712	0.184883	0.475600
	N269	N	0.097820	0.184058	0.545487
	N270	N	0.099389	0.820364	0.477252
	N271	N	0.923273	0.824246	0.545923
	N272	N	0.192072	0.468682	0.922796
	N273	N	0.188811	0.538937	0.097638
	N274	N	0.827520	0.466899	0.101152
	N275	N	0.832115	0.538714	0.927759
	O276	O	0.718218	0.540862	0.477057
	H277	H	0.720579	0.523936	0.500399
	H278	H	0.718689	0.533013	0.472980
	O279	O	0.528461	0.308727	0.655947
	H280	H	0.528510	0.304672	0.669226
	H281	H	0.557250	0.297723	0.643012
	O282	O	0.793643	0.739101	0.302663
	H283	H	0.801476	0.743773	0.305978
	H284	H	0.775800	0.721697	0.335080
	O285	O	0.703678	0.472685	0.308671
	H286	H	0.716676	0.484098	0.303105
	H287	H	0.683159	0.496649	0.301871
	O288	O	0.121717	0.158701	-0.034475
	H289	H	0.121192	0.173183	-0.045268
	H290	H	0.139263	0.164108	-0.035869
	O291	O	1.140574	0.999782	-0.199436
	H292	H	1.150181	0.990439	-0.199573
	H293	H	1.148928	1.004193	-0.209651
	O294	O	-0.142941	0.849677	-0.182554
	H295	H	-0.134463	0.860819	-0.162022
	H296	H	-0.114455	0.852978	-0.169796
	O297	O	0.812837	0.808312	0.210597
	H298	H	0.826798	0.826234	0.200641
	H299	H	0.805322	0.785307	0.234979
	O300	O	0.478896	0.723859	0.304362
	H301	H	0.456888	0.734329	0.293928
	H302	H	0.486618	0.736849	0.297797
	O303	O	0.312309	0.303603	0.710126
	H304	H	0.302797	0.294580	0.657884
	H305	H	0.364039	0.305530	0.716332
	O306	O	0.011459	0.910725	0.880207
	H307	H	0.036008	0.895410	0.888756
	H308	H	0.008740	0.917395	0.879843
	O309	O	0.543019	0.540023	0.296837
	H310	H	0.527783	0.542341	0.315516
	H311	H	0.528048	0.560779	0.289306
	O312	O	0.287343	0.530653	0.286527
	H313	H	0.297988	0.582899	0.298094
	H314	H	0.248594	0.532913	0.249391
	O315	O	0.172075	0.149820	0.869234
	H316	H	0.174531	0.162277	0.851336
	H317	H	0.168177	0.148841	0.869682
	O318	O	-0.483987	1.392089	0.543839
	H319	H	-0.486618	1.393568	0.549849
	H320	H	-0.478979	1.379313	0.547951
	O321	O	0.314705	0.694835	0.313590
	H322	H	0.308300	0.704303	0.365445
	H323	H	0.317920	0.719573	0.296047
	O324	O	0.982356	0.216465	1.152911
	H325	H	0.997260	0.228823	1.161368
	H326	H	0.982165	0.196650	1.170371
	O327	O	1.073296	0.027281	0.998590
	H328	H	1.075727	0.042479	0.978882
	H329	H	1.063266	0.020241	0.989787
	O330	O	1.134877	-0.197960	-0.166827
	H331	H	1.131408	-0.189968	-0.184266
	H332	H	1.150023	-0.213557	-0.163762
	O333	O	0.711751	0.703330	0.710240
	H334	H	0.706745	0.691290	0.691188
	H335	H	0.735960	0.730238	0.721674
	O336	O	1.007905	0.116509	1.123030
	H337	H	0.983409	0.114778	1.119171
	H338	H	1.006702	0.121394	1.137420
	O339	O	0.112767	0.204239	0.207577
	H340	H	0.096448	0.215368	0.221009
	H341	H	0.119999	0.182561	0.211599
	O342	O	0.461376	0.555498	0.665480
	H343	H	0.434526	0.550093	0.667466
	H344	H	0.470357	0.547913	0.673231
	O345	O	-0.172704	-0.085005	-0.041938
	H346	H	-0.171227	-0.096407	-0.021263
	H347	H	-0.189408	-0.071183	-0.018032
	O348	O	1.218603	-0.119359	0.807083
	H349	H	1.222096	-0.130123	0.812867
	H350	H	1.231742	-0.119407	0.803126
	O351	O	0.980009	1.087216	-0.129899
	H352	H	0.971124	1.103672	-0.124603
	H353	H	0.996082	1.105378	-0.138238
	O354	O	0.564625	0.546200	0.464638
	H355	H	0.555633	0.552811	0.468387
	H356	H	0.560544	0.533287	0.474900
	O357	O	1.026619	0.798167	1.154934
	H358	H	1.028060	0.796452	1.154787
	H359	H	1.017698	0.808717	1.160647
	O360	O	0.647605	0.695588	0.526123
	H361	H	0.656535	0.705186	0.539678
	H362	H	0.641116	0.685085	0.521947
	O363	O	0.328753	0.444872	0.473726
	H364	H	0.339572	0.441226	0.469393
	H365	H	0.327314	0.451873	0.460401
	O366	O	0.927302	0.021549	1.217218
	H367	H	0.909730	0.023763	1.204779
	H368	H	0.909812	0.023050	1.208041
	O369	O	-0.211284	1.040508	0.041268
	H370	H	-0.215424	1.071636	0.021793
	H371	H	-0.204408	1.038653	0.056269
	O372	O	0.299611	0.713458	0.479917
	H373	H	0.287673	0.706145	0.494847
	H374	H	0.290257	0.712706	0.497234
	O375	O	-0.190905	1.025744	0.802106
	H376	H	-0.179042	1.011154	0.791752
	H377	H	-0.200050	1.009716	0.805942
	O378	O	0.490291	0.291342	0.373326
	H379	H	0.470476	0.302121	0.360386
	H380	H	0.492296	0.290687	0.334267
	O381	O	0.808647	0.015944	0.192127
	H382	H	0.786854	0.005316	0.197120
	H383	H	0.811472	0.018833	0.172667
	O384	O	-0.272891	0.288707	1.495555
	H385	H	-0.282427	0.294593	1.450676
	H386	H	-0.245243	0.263728	1.491171
	O387	O	0.216717	1.055273	1.041847
	H388	H	0.217413	1.052347	1.019473
	H389	H	0.224170	1.053990	1.019787
	O390	O	0.726526	0.536798	0.730095
	H391	H	0.739561	0.541417	0.722991
	H392	H	0.738301	0.548677	0.745051
	O393	O	1.210027	1.049072	0.206320
	H394	H	1.214889	1.041630	0.202079
	H395	H	1.219415	1.042661	0.206804
	O396	O	0.291107	0.284284	0.543667
	H397	H	0.282752	0.274438	0.529367
	H398	H	0.292397	0.272887	0.521850
	O399	O	0.297521	0.482664	0.716241
	H400	H	0.288665	0.457435	0.728934
	H401	H	0.289970	0.455195	0.719683
	O402	O	-0.206459	0.219558	0.992106
	H403	H	-0.217272	0.232451	0.967887
	H404	H	-0.201452	0.235370	0.994808
	O405	O	-0.001684	-0.213286	0.002877
	H406	H	0.007069	-0.211885	0.002772
	H407	H	-0.007990	-0.201789	0.011484
	O408	O	0.567705	0.682553	0.399654
	H409	H	0.563959	0.679967	0.413039
	H410	H	0.559613	0.691700	0.400267
	O411	O	0.154144	0.807130	-0.069081
	H412	H	0.171583	0.812456	-0.071257
	H413	H	0.149382	0.801093	-0.080981
	O414	O	0.508792	0.402941	0.703052
	H415	H	0.518502	0.396697	0.701817
	H416	H	0.511158	0.426993	0.709045
	O417	O	0.827625	0.185674	0.833798
	H418	H	0.818473	0.132972	0.821853
	H419	H	0.856089	0.194974	0.844350
	O420	O	0.683992	0.319149	0.340711
	H421	H	0.693767	0.367816	0.329976
	H422	H	0.640230	0.314265	0.334257
	O423	O	-0.026068	0.962440	0.009451
	H424	H	-0.035649	0.968437	-0.000446
	H425	H	-0.022203	0.952385	0.010476
	O426	O	1.203319	0.808603	1.126025
	H427	H	1.205519	0.816609	1.112042
	H428	H	1.179947	0.811893	1.104220
	O429	O	0.520713	0.719946	0.692281
	H430	H	0.529294	0.729400	0.708691
	H431	H	0.552412	0.719611	0.696849
	O432	O	0.621899	0.454672	0.674730
	H433	H	0.633278	0.448636	0.665272
	H434	H	0.633185	0.450505	0.680775
	O435	O	0.022614	0.217390	-0.150799
	H436	H	0.030604	0.228540	-0.146842
	H437	H	0.006198	0.215391	-0.140162
	O438	O	1.214197	0.207273	0.087228
	H439	H	1.210514	0.198365	0.101535
	H440	H	1.233707	0.224203	0.086916
	O441	O	-0.200820	-0.209408	0.042073
	H442	H	-0.225183	-0.239080	0.051176
	H443	H	-0.185002	-0.204996	0.066284
	O444	O	0.415805	0.397778	0.328648
	H445	H	0.419318	0.420100	0.330276
	H446	H	0.394441	0.404985	0.328159
	O447	O	0.671949	0.364250	0.618824
	H448	H	0.685776	0.361416	0.621755
	H449	H	0.674463	0.358203	0.599500
	O450	O	0.584736	0.587572	0.548180
	H451	H	0.572498	0.570694	0.557344
	H452	H	0.581768	0.579573	0.554334
	O453	O	0.298784	0.546992	0.539501
	H454	H	0.305191	0.529117	0.538763
	H455	H	0.301491	0.529831	0.550438
	O456	O	0.486669	0.289030	0.395801
	H457	H	0.501706	0.304951	0.376538
	H458	H	0.499330	0.276115	0.388453
	O459	O	0.102083	-0.036384	0.151937
	H460	H	0.110494	-0.019875	0.146368
	H461	H	0.087172	-0.021012	0.162175
	O462	O	0.434798	0.658933	0.550423
	H463	H	0.435201	0.651252	0.548297
	H464	H	0.442325	0.656874	0.563969
	O465	O	1.329501	-0.310290	-0.303662
	H466	H	1.351574	-0.322353	-0.317771
	H467	H	1.343754	-0.334032	-0.315858
