data_Molecule from HDF5

_cell_length_a		16.127505
_cell_length_b		16.361057
_cell_length_c		16.267197
_cell_angle_alpha	90.599914
_cell_angle_beta	89.583641
_cell_angle_gamma	89.436788
_symmetry_space_group_name_H-M	'P 1'
_symmetry_Int_Tables_number		1

loop_
	_symmetry_equiv_pos_as_xyz
	x,y,z

loop_
	_atom_site_label
	_atom_site_type_symbol
	_atom_site_fract_x
	_atom_site_fract_y
	_atom_site_fract_z
	H0	H	0.393044	0.838325	0.715147
	H1	H	0.588681	0.164705	0.721142
	H2	H	0.594695	0.840516	0.283192
	H3	H	0.390232	0.164838	0.290061
	H4	H	0.708365	0.400226	0.839188
	H5	H	0.700791	0.599484	0.167264
	H6	H	0.280541	0.596215	0.837726
	H7	H	0.277748	0.408504	0.166893
	H8	H	0.827830	0.717914	0.405869
	H9	H	0.157598	0.715541	0.601693
	H10	H	0.826997	0.291109	0.602456
	H11	H	0.155097	0.283706	0.399246
	H12	H	0.827384	0.406461	0.718472
	H13	H	0.157812	0.600011	0.715433
	H14	H	0.827027	0.602419	0.292000
	H15	H	0.155826	0.400126	0.285093
	H16	H	0.390615	0.716137	0.839170
	H17	H	0.589859	0.720241	0.164072
	H18	H	0.595723	0.281553	0.840222
	H19	H	0.391138	0.289450	0.166367
	H20	H	0.709254	0.839321	0.401984
	H21	H	0.703482	0.166403	0.603035
	H22	H	0.278655	0.838160	0.598075
	H23	H	0.274988	0.164594	0.406795
	H24	H	0.890558	0.340773	0.219153
	H25	H	0.089909	0.664517	0.220910
	H26	H	0.096482	0.341785	0.782274
	H27	H	0.891993	0.666609	0.790915
	H28	H	0.207393	0.901728	0.339209
	H29	H	0.201417	0.099641	0.666699
	H30	H	0.777234	0.101033	0.339045
	H31	H	0.778067	0.908209	0.666913
	H32	H	0.327807	0.218217	0.904636
	H33	H	0.656296	0.216542	0.104163
	H34	H	0.325844	0.791847	0.101576
	H35	H	0.654376	0.783482	0.899162
	H36	H	0.325728	0.907815	0.216204
	H37	H	0.656179	0.102259	0.218612
	H38	H	0.325130	0.099793	0.792769
	H39	H	0.655433	0.900285	0.786123
	H40	H	0.888680	0.218925	0.339858
	H41	H	0.093368	0.222277	0.663652
	H42	H	0.097715	0.781526	0.341053
	H43	H	0.892232	0.789863	0.666393
	H44	H	0.208627	0.339707	0.902183
	H45	H	0.202779	0.665899	0.102177
	H46	H	0.778014	0.339074	0.099997
	H47	H	0.774971	0.665902	0.906948
	H48	H	0.396923	0.117982	0.599656
	H49	H	0.574852	0.889718	0.595080
	H50	H	0.593807	0.123457	0.403951
	H51	H	0.408993	0.887545	0.406780
	H52	H	0.590338	0.414489	0.119550
	H53	H	0.583362	0.597428	0.884409
	H54	H	0.402923	0.601899	0.119298
	H55	H	0.407054	0.407612	0.887198
	H56	H	0.104155	0.582791	0.419711
	H57	H	0.875763	0.592318	0.596915
	H58	H	0.111898	0.409904	0.600704
	H59	H	0.873748	0.410392	0.411756
	H60	H	0.109939	0.402388	0.586758
	H61	H	0.871927	0.599999	0.603042
	H62	H	0.113151	0.589108	0.396739
	H63	H	0.874665	0.412029	0.412025
	H64	H	0.391809	0.602645	0.122600
	H65	H	0.586552	0.588671	0.885373
	H66	H	0.575256	0.411333	0.116152
	H67	H	0.400201	0.403700	0.884958
	H68	H	0.572208	0.116463	0.404255
	H69	H	0.589112	0.888537	0.583524
	H70	H	0.396545	0.117278	0.597434
	H71	H	0.397321	0.886932	0.414551
	H72	H	0.891715	0.621556	0.102856
	H73	H	0.081914	0.385630	0.099529
	H74	H	0.081776	0.619710	0.905760
	H75	H	0.896564	0.384566	0.904411
	H76	H	0.081754	0.917490	0.616982
	H77	H	0.075534	0.093325	0.388574
	H78	H	0.895222	0.099717	0.620118
	H79	H	0.903346	0.911307	0.387508
	H80	H	0.608969	0.086837	0.905644
	H81	H	0.375780	0.094497	0.094310
	H82	H	0.605372	0.910645	0.085212
	H83	H	0.371391	0.909684	0.902908
	H84	H	0.608590	0.914722	0.096765
	H85	H	0.373551	0.097239	0.100198
	H86	H	0.612065	0.098211	0.909489
	H87	H	0.372162	0.903276	0.912492
	H88	H	0.899175	0.095955	0.618316
	H89	H	0.085766	0.098355	0.383077
	H90	H	0.077958	0.900527	0.619966
	H91	H	0.904303	0.906190	0.385902
	H92	H	0.083932	0.618197	0.914759
	H93	H	0.082318	0.389114	0.088309
	H94	H	0.902371	0.617170	0.101249
	H95	H	0.907737	0.388459	0.905800
	H96	H	0.394887	0.118303	0.599376
	H97	H	0.591296	0.882538	0.600803
	H98	H	0.584901	0.115622	0.422599
	H99	H	0.397015	0.882971	0.401609
	H100	H	0.584875	0.400728	0.122601
	H101	H	0.578486	0.591147	0.887594
	H102	H	0.395867	0.592332	0.117925
	H103	H	0.399659	0.412078	0.887220
	H104	H	0.112640	0.604964	0.415753
	H105	H	0.875142	0.602598	0.592371
	H106	H	0.105457	0.417342	0.588676
	H107	H	0.873840	0.411450	0.410344
	H108	H	0.894952	0.617189	0.092613
	H109	H	0.091538	0.384754	0.093927
	H110	H	0.090317	0.621151	0.908217
	H111	H	0.900159	0.388604	0.914945
	H112	H	0.093874	0.906428	0.623447
	H113	H	0.086944	0.086516	0.386340
	H114	H	0.900830	0.101374	0.618745
	H115	H	0.899121	0.908572	0.385560
	H116	H	0.606067	0.090501	0.916362
	H117	H	0.373153	0.100546	0.094952
	H118	H	0.611599	0.902424	0.093843
	H119	H	0.375093	0.914379	0.912390
	C120	C	0.368291	0.010165	0.625525
	C121	C	0.612734	0.994607	0.623959
	C122	C	0.614224	0.010827	0.380168
	C123	C	0.370539	0.993448	0.380992
	C124	C	0.614285	0.378572	0.011602
	C125	C	0.610747	0.622357	0.993810
	C126	C	0.368750	0.625225	0.011348
	C127	C	0.371602	0.381129	0.994244
	C128	C	0.001029	0.622553	0.382865
	C129	C	0.983731	0.625665	0.625351
	C130	C	0.000332	0.382429	0.622608
	C131	C	0.982532	0.380411	0.380627
	C132	C	0.867703	0.511117	0.126559
	C133	C	0.112949	0.494178	0.123933
	C134	C	0.114819	0.511880	0.879952
	C135	C	0.871079	0.494826	0.881352
	C136	C	0.114384	0.879093	0.511787
	C137	C	0.111853	0.122908	0.493682
	C138	C	0.869197	0.126376	0.511136
	C139	C	0.872015	0.881512	0.494491
	C140	C	0.500202	0.121788	0.882462
	C141	C	0.483119	0.125233	0.125576
	C142	C	0.499537	0.881823	0.122326
	C143	C	0.481748	0.879331	0.879824
	C144	C	0.372046	0.887204	0.678508
	C145	C	0.609216	0.116321	0.681906
	C146	C	0.614197	0.888715	0.322564
	C147	C	0.370830	0.116124	0.327599
	C148	C	0.670799	0.379636	0.888296
	C149	C	0.664324	0.620334	0.117774
	C150	C	0.315965	0.619217	0.887352
	C151	C	0.315510	0.386257	0.117862
	C152	C	0.877075	0.679833	0.385557
	C153	C	0.108066	0.678851	0.622260
	C154	C	0.876380	0.328439	0.622244
	C155	C	0.106071	0.322672	0.379991
	C156	C	0.876540	0.386096	0.679807
	C157	C	0.108209	0.621380	0.678935
	C158	C	0.876380	0.621887	0.329234
	C159	C	0.106358	0.380350	0.323128
	C160	C	0.370881	0.678690	0.887983
	C161	C	0.609149	0.680114	0.116198
	C162	C	0.614706	0.320756	0.888877
	C163	C	0.371682	0.326972	0.117442
	C164	C	0.671487	0.888406	0.381308
	C165	C	0.666205	0.117345	0.622948
	C166	C	0.315351	0.887025	0.620133
	C167	C	0.313475	0.116035	0.385798
	C168	C	0.870418	0.389143	0.181143
	C169	C	0.109799	0.616134	0.181552
	C170	C	0.114993	0.389854	0.822243
	C171	C	0.871898	0.617770	0.827903
	C172	C	0.170136	0.881006	0.388323
	C173	C	0.165467	0.120901	0.617139
	C174	C	0.814205	0.122287	0.388139
	C175	C	0.816200	0.886570	0.617975
	C176	C	0.376559	0.179415	0.884555
	C177	C	0.607022	0.179098	0.123591
	C178	C	0.375137	0.828924	0.121124
	C179	C	0.605725	0.822618	0.880585
	C180	C	0.375335	0.886478	0.178467
	C181	C	0.606970	0.121954	0.180592
	C182	C	0.375331	0.120444	0.828912
	C183	C	0.606215	0.880331	0.823983
	C184	C	0.869585	0.181132	0.388482
	C185	C	0.111430	0.181855	0.615747
	C186	C	0.115611	0.821232	0.389274
	C187	C	0.872972	0.827675	0.617557
	C188	C	0.170845	0.388814	0.881624
	C189	C	0.165878	0.617077	0.122259
	C190	C	0.814308	0.388400	0.121839
	C191	C	0.813589	0.617274	0.885496
	C192	C	0.389675	0.095725	0.604978
	C193	C	0.591405	0.908983	0.600022
	C194	C	0.590499	0.096295	0.403261
	C195	C	0.394057	0.907990	0.401548
	C196	C	0.590412	0.401824	0.097120
	C197	C	0.589106	0.599239	0.908071
	C198	C	0.390561	0.605019	0.097656
	C199	C	0.395427	0.401728	0.908560
	C200	C	0.087506	0.599057	0.404270
	C201	C	0.896749	0.604584	0.603816
	C202	C	0.086750	0.403593	0.598938
	C203	C	0.896489	0.404248	0.404489
	C204	C	0.889698	0.596645	0.105288
	C205	C	0.091525	0.408589	0.100629
	C206	C	0.091963	0.597394	0.903014
	C207	C	0.894591	0.409516	0.902126
	C208	C	0.091244	0.901517	0.597820
	C209	C	0.089255	0.099597	0.408210
	C210	C	0.891826	0.105294	0.596937
	C211	C	0.895358	0.902438	0.408528
	C212	C	0.586600	0.098720	0.904176
	C213	C	0.396429	0.103619	0.103190
	C214	C	0.586246	0.903132	0.098864
	C215	C	0.395243	0.902361	0.902625
	Zn216	Zn	0.490635	0.001197	0.753423
	Zn217	Zn	0.491904	0.003007	0.251457
	Zn218	Zn	0.740520	0.502127	0.002998
	Zn219	Zn	0.242663	0.502976	0.002728
	Zn220	Zn	-0.006961	0.751613	0.502793
	Zn221	Zn	-0.009050	0.252832	0.501379
	Zn222	Zn	-0.007354	0.504138	0.751750
	Zn223	Zn	-0.008593	0.502527	0.253748
	Zn224	Zn	0.490312	0.752617	0.001728
	Zn225	Zn	0.492317	0.251046	0.002991
	Zn226	Zn	0.742934	0.003711	0.502393
	Zn227	Zn	0.240705	0.001318	0.502810
	N228	N	0.404311	0.964697	0.681959
	N229	N	0.576719	0.038898	0.682514
	N230	N	0.579456	0.965841	0.321723
	N231	N	0.405554	0.039077	0.324476
	N232	N	0.670732	0.414931	0.965425
	N233	N	0.665327	0.584917	0.040653
	N234	N	0.314553	0.586935	0.964917
	N235	N	0.315244	0.419054	0.040391
	N236	N	0.955430	0.680251	0.418179
	N237	N	0.029517	0.681819	0.589791
	N238	N	0.954317	0.325900	0.587580
	N239	N	0.028157	0.322548	0.414873
	N240	N	0.954969	0.418679	0.680490
	N241	N	0.029824	0.589071	0.680955
	N242	N	0.954446	0.587108	0.327198
	N243	N	0.028555	0.415610	0.323333
	N244	N	0.402898	0.682743	0.966171
	N245	N	0.576646	0.681549	0.038243
	N246	N	0.580277	0.319981	0.966524
	N247	N	0.405985	0.323717	0.039598
	N248	N	0.671612	0.965355	0.416362
	N249	N	0.668449	0.040430	0.587549
	N250	N	0.312737	0.964415	0.587937
	N251	N	0.313157	0.038529	0.418156
	N252	N	0.903031	0.466494	0.184236
	N253	N	0.077437	0.538614	0.182646
	N254	N	0.080977	0.467262	0.820923
	N255	N	0.906804	0.540657	0.825145
	N256	N	0.169580	0.916229	0.465447
	N257	N	0.165756	0.084923	0.540516
	N258	N	0.813664	0.089054	0.465510
	N259	N	0.815187	0.919078	0.540330
	N260	N	0.455052	0.180481	0.917126
	N261	N	0.529026	0.181142	0.089810
	N262	N	0.453418	0.826012	0.086866
	N263	N	0.527255	0.821620	0.914359
	N264	N	0.453878	0.918686	0.179338
	N265	N	0.528649	0.089271	0.181887
	N266	N	0.453230	0.085223	0.827404
	N267	N	0.528203	0.914959	0.823351
	N268	N	0.903053	0.183771	0.465911
	N269	N	0.078624	0.183188	0.537858
	N270	N	0.081482	0.819995	0.467018
	N271	N	0.907152	0.824828	0.539797
	N272	N	0.171130	0.465734	0.916830
	N273	N	0.167927	0.540231	0.087078
	N274	N	0.812726	0.465311	0.088504
	N275	N	0.812922	0.539973	0.918127
	O276	O	-0.068095	-0.032791	-0.036183
	H277	H	-0.075627	-0.029920	-0.038303
	H278	H	-0.059167	-0.027193	-0.025518
	O279	O	0.475386	0.452685	0.538710
	H280	H	0.483490	0.460077	0.538744
	H281	H	0.473859	0.443792	0.546161
	O282	O	0.535845	0.449443	0.572270
	H283	H	0.530400	0.456178	0.564471
	H284	H	0.542451	0.453188	0.573233
	O285	O	-0.060936	1.073608	0.925866
	H286	H	-0.061736	1.075810	0.922864
	H287	H	-0.065760	1.074195	0.918422
	O288	O	0.507898	0.455268	0.546407
	H289	H	0.502705	0.456524	0.540037
	H290	H	0.528049	0.463502	0.538617
	O291	O	0.919761	0.996957	1.130884
	H292	H	0.914120	1.001874	1.127311
	H293	H	0.914133	0.997205	1.129226
	O294	O	1.059768	1.078198	1.018064
	H295	H	1.057404	1.086185	1.017798
	H296	H	1.079670	1.079555	1.030141
	O297	O	0.980120	0.016065	1.043572
	H298	H	0.979789	0.026424	1.053754
	H299	H	0.986236	0.011445	1.044212
	O300	O	0.502918	0.512916	0.528748
	H301	H	0.504999	0.520218	0.522144
	H302	H	0.502786	0.521589	0.533103
	O303	O	1.011927	0.098064	-0.025548
	H304	H	1.007307	0.105173	-0.026213
	H305	H	1.007561	0.095092	-0.031803
	O306	O	-0.035401	0.986128	0.928289
	H307	H	-0.036710	0.984276	0.927266
	H308	H	-0.031707	0.991209	0.931556
	O309	O	0.500195	0.518619	0.491551
	H310	H	0.500600	0.515041	0.483713
	H311	H	0.499468	0.508998	0.486093
	O312	O	1.022143	-0.044191	0.932991
	H313	H	1.022528	-0.048643	0.920835
	H314	H	1.018123	-0.038030	0.923896
	O315	O	0.433204	0.485784	0.557811
	H316	H	0.434065	0.479738	0.565180
	H317	H	0.427748	0.481103	0.566704
	O318	O	0.544808	0.489035	0.435085
	H319	H	0.530809	0.496944	0.440290
	H320	H	0.549619	0.485823	0.438371
	O321	O	0.959172	0.991184	1.100708
	H322	H	0.963450	0.994695	1.100675
	H323	H	0.956637	1.000153	1.103381
	O324	O	0.435016	0.474828	0.489375
	H325	H	0.437437	0.468863	0.486240
	H326	H	0.438740	0.466006	0.497986
	O327	O	0.522058	0.482212	0.418618
	H328	H	0.525188	0.478736	0.413988
	H329	H	0.506108	0.476778	0.415525
	O330	O	0.948357	-0.137834	0.990683
	H331	H	0.961094	-0.141913	0.982077
	H332	H	0.950714	-0.144700	0.986713
	O333	O	0.963527	1.002536	0.008671
	H334	H	0.960850	0.998971	0.007776
	H335	H	0.973576	1.002423	0.007355
	O336	O	0.379436	0.522880	0.468358
	H337	H	0.379009	0.524919	0.461934
	H338	H	0.379095	0.518735	0.471379
	O339	O	0.546101	0.445645	0.488169
	H340	H	0.544021	0.450873	0.481099
	H341	H	0.558759	0.447760	0.487786
	O342	O	0.063916	0.956733	-0.018813
	H343	H	0.062901	0.954965	-0.022964
	H344	H	0.063669	0.949937	-0.021110
	O345	O	-0.027039	-0.093120	-0.044386
	H346	H	-0.022659	-0.089608	-0.042325
	H347	H	-0.031850	-0.094553	-0.050851
	O348	O	0.498242	0.474030	0.454216
	H349	H	0.486305	0.477063	0.455692
	H350	H	0.491095	0.459128	0.451515
	O351	O	0.495405	0.502014	0.554316
	H352	H	0.501173	0.512118	0.554740
	H353	H	0.498696	0.504831	0.548548
	O354	O	1.037490	1.110624	-0.020011
	H355	H	1.034255	1.115110	-0.027079
	H356	H	1.039569	1.103374	-0.012891
	O357	O	-0.114338	0.069170	1.023171
	H358	H	-0.128268	0.081574	1.039097
	H359	H	-0.107469	0.047071	1.021995
	O360	O	0.056075	0.069588	0.077173
	H361	H	0.057588	0.074443	0.061133
	H362	H	0.057549	0.079819	0.074804
	O363	O	0.580371	0.561972	0.500463
	H364	H	0.583998	0.556173	0.500827
	H365	H	0.580730	0.568643	0.497200
	O366	O	0.002083	0.064819	0.923603
	H367	H	-0.002981	0.055970	0.922054
	H368	H	0.003202	0.054867	0.926999
	O369	O	1.570725	0.435007	-0.531269
	H370	H	1.575952	0.432320	-0.539876
	H371	H	1.580577	0.442450	-0.522258
