data_Molecule from HDF5

_cell_length_a		16.367088
_cell_length_b		16.282095
_cell_length_c		16.286916
_cell_angle_alpha	90.073181
_cell_angle_beta	90.098194
_cell_angle_gamma	89.972914
_symmetry_space_group_name_H-M	'P 1'
_symmetry_Int_Tables_number		1

loop_
	_symmetry_equiv_pos_as_xyz
	x,y,z

loop_
	_atom_site_label
	_atom_site_type_symbol
	_atom_site_fract_x
	_atom_site_fract_y
	_atom_site_fract_z
	H0	H	0.402463	0.835877	0.714422
	H1	H	0.597019	0.164345	0.713169
	H2	H	0.597519	0.836127	0.285850
	H3	H	0.402450	0.163919	0.286863
	H4	H	0.714824	0.401293	0.836631
	H5	H	0.715196	0.599359	0.163374
	H6	H	0.284724	0.599010	0.836190
	H7	H	0.285116	0.402614	0.163389
	H8	H	0.836743	0.713984	0.402460
	H9	H	0.162981	0.713939	0.597805
	H10	H	0.836118	0.286340	0.596593
	H11	H	0.162596	0.284336	0.401909
	H12	H	0.836650	0.400475	0.715152
	H13	H	0.162993	0.597950	0.714620
	H14	H	0.836448	0.597093	0.285864
	H15	H	0.163694	0.402154	0.286503
	H16	H	0.402655	0.713835	0.835673
	H17	H	0.597119	0.713400	0.164063
	H18	H	0.596010	0.287418	0.835631
	H19	H	0.403601	0.288846	0.164369
	H20	H	0.713532	0.835870	0.402005
	H21	H	0.714831	0.163615	0.598859
	H22	H	0.287509	0.836029	0.597222
	H23	H	0.285205	0.162728	0.401445
	H24	H	0.903586	0.335513	0.212603
	H25	H	0.097089	0.663900	0.213588
	H26	H	0.097253	0.336264	0.785414
	H27	H	0.901612	0.664505	0.786063
	H28	H	0.213533	0.900583	0.336207
	H29	H	0.215837	0.099269	0.663531
	H30	H	0.786203	0.097916	0.336053
	H31	H	0.786845	0.902142	0.663999
	H32	H	0.336754	0.213408	0.902987
	H33	H	0.663233	0.213153	0.096855
	H34	H	0.337438	0.786304	0.097718
	H35	H	0.663120	0.784437	0.901219
	H36	H	0.337118	0.902371	0.214201
	H37	H	0.663214	0.097649	0.214161
	H38	H	0.337296	0.097640	0.785509
	H39	H	0.664539	0.903015	0.786260
	H40	H	0.903221	0.212822	0.336366
	H41	H	0.098596	0.215016	0.663574
	H42	H	0.096478	0.786415	0.336250
	H43	H	0.903391	0.787090	0.664307
	H44	H	0.213596	0.336041	0.901256
	H45	H	0.212857	0.664315	0.097246
	H46	H	0.786137	0.335779	0.097476
	H47	H	0.784595	0.663657	0.901299
	H48	H	0.407442	0.118426	0.602562
	H49	H	0.583543	0.887588	0.588845
	H50	H	0.602435	0.116613	0.415295
	H51	H	0.403324	0.884414	0.412883
	H52	H	0.587461	0.404001	0.114852
	H53	H	0.585013	0.594460	0.885713
	H54	H	0.411079	0.583969	0.111808
	H55	H	0.401187	0.404423	0.881172
	H56	H	0.118192	0.598801	0.406471
	H57	H	0.882999	0.597191	0.592025
	H58	H	0.111640	0.412026	0.586400
	H59	H	0.884083	0.405094	0.407381
	H60	H	0.116281	0.410474	0.601266
	H61	H	0.885314	0.590310	0.591568
	H62	H	0.113999	0.590987	0.410814
	H63	H	0.884605	0.407813	0.405531
	H64	H	0.411862	0.603206	0.116992
	H65	H	0.597942	0.598333	0.880562
	H66	H	0.599993	0.402955	0.119974
	H67	H	0.404980	0.411410	0.884722
	H68	H	0.595313	0.119703	0.396153
	H69	H	0.603118	0.883170	0.585982
	H70	H	0.413928	0.113364	0.588982
	H71	H	0.402861	0.880535	0.401468
	H72	H	0.900678	0.619159	0.097677
	H73	H	0.086584	0.386896	0.089713
	H74	H	0.094466	0.615492	0.912778
	H75	H	0.915170	0.388524	0.912929
	H76	H	0.096425	0.906036	0.617700
	H77	H	0.092771	0.087792	0.385129
	H78	H	0.907403	0.092201	0.616231
	H79	H	0.905111	0.901602	0.381844
	H80	H	0.615228	0.095703	0.910915
	H81	H	0.384830	0.098084	0.087108
	H82	H	0.615443	0.913026	0.099051
	H83	H	0.387723	0.916735	0.906857
	H84	H	0.619570	0.899535	0.095797
	H85	H	0.385400	0.086537	0.094506
	H86	H	0.615739	0.089535	0.904144
	H87	H	0.381440	0.903429	0.896799
	H88	H	0.906497	0.095377	0.617289
	H89	H	0.089713	0.094733	0.384235
	H90	H	0.094714	0.907621	0.615851
	H91	H	0.901949	0.909773	0.383286
	H92	H	0.097463	0.619040	0.903072
	H93	H	0.101476	0.382602	0.089175
	H94	H	0.912762	0.615163	0.095852
	H95	H	0.897555	0.382702	0.911838
	H96	H	0.399108	0.117921	0.589510
	H97	H	0.594336	0.880003	0.604324
	H98	H	0.582870	0.112757	0.410833
	H99	H	0.413356	0.884773	0.406225
	H100	H	0.595816	0.414235	0.114996
	H101	H	0.595294	0.584606	0.885001
	H102	H	0.394737	0.592622	0.119369
	H103	H	0.409419	0.403979	0.883572
	H104	H	0.116286	0.590825	0.401612
	H105	H	0.882501	0.593268	0.597645
	H106	H	0.117125	0.398293	0.591614
	H107	H	0.882957	0.404843	0.403826
	H108	H	0.904852	0.615271	0.086304
	H109	H	0.093104	0.380530	0.102334
	H110	H	0.087174	0.615199	0.904996
	H111	H	0.908011	0.381261	0.896760
	H112	H	0.094001	0.905056	0.616788
	H113	H	0.097399	0.092857	0.383201
	H114	H	0.904296	0.092665	0.616947
	H115	H	0.910649	0.908168	0.385537
	H116	H	0.618441	0.097912	0.903136
	H117	H	0.381130	0.098646	0.100750
	H118	H	0.613161	0.907873	0.085531
	H119	H	0.385547	0.900732	0.913702
	C120	C	0.378879	0.008346	0.621649
	C121	C	0.622293	0.991625	0.621627
	C122	C	0.621619	0.008111	0.378917
	C123	C	0.378601	0.991461	0.378391
	C124	C	0.621948	0.378655	0.008099
	C125	C	0.621237	0.621145	0.991754
	C126	C	0.377618	0.621859	0.007864
	C127	C	0.377967	0.378941	0.991522
	C128	C	0.008009	0.621343	0.378429
	C129	C	0.991633	0.621602	0.621644
	C130	C	0.007435	0.378356	0.621426
	C131	C	0.991924	0.377471	0.377932
	C132	C	0.878485	0.507957	0.121266
	C133	C	0.121401	0.491546	0.121791
	C134	C	0.121197	0.508309	0.878586
	C135	C	0.878490	0.492370	0.878809
	C136	C	0.122268	0.877978	0.508388
	C137	C	0.121773	0.121042	0.492070
	C138	C	0.878464	0.121313	0.508471
	C139	C	0.878407	0.878372	0.491905
	C140	C	0.508477	0.121871	0.878574
	C141	C	0.491662	0.122058	0.122136
	C142	C	0.508421	0.878668	0.121923
	C143	C	0.492869	0.878590	0.877873
	C144	C	0.382322	0.884746	0.675911
	C145	C	0.618571	0.115311	0.675903
	C146	C	0.618206	0.884958	0.323950
	C147	C	0.381706	0.114918	0.324264
	C148	C	0.676767	0.380686	0.885002
	C149	C	0.676800	0.619223	0.114704
	C150	C	0.322666	0.619549	0.884964
	C151	C	0.323427	0.382178	0.114782
	C152	C	0.885241	0.676181	0.381481
	C153	C	0.114399	0.676361	0.618728
	C154	C	0.884873	0.323716	0.617815
	C155	C	0.114503	0.322747	0.381515
	C156	C	0.884884	0.380529	0.676638
	C157	C	0.114310	0.618788	0.676637
	C158	C	0.885068	0.618111	0.323754
	C159	C	0.114776	0.380923	0.323858
	C160	C	0.381225	0.676652	0.884815
	C161	C	0.618118	0.675790	0.115105
	C162	C	0.617836	0.324319	0.884756
	C163	C	0.382126	0.325671	0.115364
	C164	C	0.675932	0.884761	0.381595
	C165	C	0.676745	0.114926	0.618942
	C166	C	0.324770	0.884871	0.618128
	C167	C	0.323461	0.114302	0.380977
	C168	C	0.882359	0.384520	0.175141
	C169	C	0.117570	0.615271	0.175793
	C170	C	0.118051	0.384861	0.823556
	C171	C	0.881502	0.615732	0.824269
	C172	C	0.176052	0.880489	0.385369
	C173	C	0.177443	0.119535	0.614876
	C174	C	0.824138	0.118451	0.384996
	C175	C	0.823844	0.881117	0.614909
	C176	C	0.385600	0.176305	0.881721
	C177	C	0.614497	0.176259	0.118475
	C178	C	0.385895	0.824115	0.118586
	C179	C	0.614974	0.823115	0.880804
	C180	C	0.385958	0.881360	0.176739
	C181	C	0.614518	0.118569	0.176361
	C182	C	0.385706	0.118580	0.823701
	C183	C	0.615630	0.881993	0.823693
	C184	C	0.882041	0.175641	0.384984
	C185	C	0.119239	0.176893	0.615056
	C186	C	0.117776	0.823673	0.385117
	C187	C	0.882170	0.824213	0.615202
	C188	C	0.175879	0.384981	0.881039
	C189	C	0.175212	0.615134	0.118190
	C190	C	0.823966	0.384577	0.118130
	C191	C	0.822830	0.615152	0.880909
	C192	C	0.400357	0.094357	0.600042
	C193	C	0.600280	0.905789	0.599537
	C194	C	0.599819	0.094268	0.401021
	C195	C	0.400234	0.905385	0.400358
	C196	C	0.600782	0.400485	0.094252
	C197	C	0.599096	0.598966	0.905786
	C198	C	0.399412	0.599831	0.093993
	C199	C	0.399094	0.400112	0.905173
	C200	C	0.093760	0.599892	0.399984
	C201	C	0.905970	0.599960	0.600094
	C202	C	0.092901	0.400527	0.599622
	C203	C	0.906140	0.399419	0.399317
	C204	C	0.899646	0.594381	0.099433
	C205	C	0.099954	0.405439	0.100122
	C206	C	0.099440	0.594337	0.900472
	C207	C	0.900415	0.406407	0.900667
	C208	C	0.101317	0.899764	0.594623
	C209	C	0.099547	0.098570	0.406341
	C210	C	0.899782	0.099772	0.594692
	C211	C	0.899784	0.899979	0.405707
	C212	C	0.594315	0.100666	0.899915
	C213	C	0.405742	0.100621	0.100680
	C214	C	0.594047	0.900474	0.100028
	C215	C	0.407094	0.900491	0.899450
	Zn216	Zn	0.500366	0.000327	0.749519
	Zn217	Zn	0.499919	0.000052	0.250503
	Zn218	Zn	0.749802	0.500155	-0.000014
	Zn219	Zn	0.249366	0.499974	0.000033
	Zn220	Zn	0.000083	0.750160	0.500023
	Zn221	Zn	-0.000185	0.249374	0.500120
	Zn222	Zn	-0.000552	0.500038	0.750091
	Zn223	Zn	-0.000057	0.499651	0.249707
	Zn224	Zn	0.500209	0.749962	0.000098
	Zn225	Zn	0.500096	0.250760	0.000334
	Zn226	Zn	0.750286	-0.000120	0.499826
	Zn227	Zn	0.250315	-0.000193	0.499906
	N228	N	0.415297	0.962553	0.678250
	N229	N	0.584998	0.037748	0.677530
	N230	N	0.585088	0.962559	0.322394
	N231	N	0.415304	0.037528	0.322664
	N232	N	0.679216	0.413939	0.962746
	N233	N	0.678630	0.585797	0.037059
	N234	N	0.320495	0.586173	0.962585
	N235	N	0.320676	0.414496	0.036788
	N236	N	0.962516	0.678242	0.414897
	N237	N	0.037192	0.678284	0.585322
	N238	N	0.961925	0.322254	0.584325
	N239	N	0.037126	0.320709	0.414356
	N240	N	0.962179	0.413777	0.679089
	N241	N	0.037155	0.585272	0.678419
	N242	N	0.962354	0.584981	0.321633
	N243	N	0.037402	0.414135	0.321456
	N244	N	0.414875	0.678154	0.962332
	N245	N	0.584389	0.677177	0.037607
	N246	N	0.584220	0.323161	0.962223
	N247	N	0.415405	0.323580	0.037769
	N248	N	0.678025	0.962432	0.415169
	N249	N	0.679213	0.037035	0.585975
	N250	N	0.322514	0.962530	0.585181
	N251	N	0.321533	0.036515	0.414136
	N252	N	0.915502	0.462207	0.177100
	N253	N	0.084772	0.537441	0.178128
	N254	N	0.084696	0.462410	0.821938
	N255	N	0.915382	0.538335	0.822636
	N256	N	0.178689	0.913753	0.463045
	N257	N	0.179080	0.085558	0.537452
	N258	N	0.821955	0.085209	0.462626
	N259	N	0.821697	0.914402	0.537296
	N260	N	0.462961	0.178579	0.914991
	N261	N	0.537143	0.178420	0.085265
	N262	N	0.463037	0.822308	0.085020
	N263	N	0.537671	0.820998	0.913684
	N264	N	0.463223	0.914552	0.178731
	N265	N	0.537062	0.085851	0.178807
	N266	N	0.463063	0.085504	0.821541
	N267	N	0.538509	0.915693	0.821806
	N268	N	0.915270	0.177312	0.462721
	N269	N	0.085266	0.177786	0.537704
	N270	N	0.084843	0.822138	0.462721
	N271	N	0.915119	0.822154	0.537643
	N272	N	0.177800	0.462623	0.914558
	N273	N	0.177518	0.537342	0.085216
	N274	N	0.821534	0.462523	0.085382
	N275	N	0.820907	0.537470	0.913913
