data_Molecule from HDF5

_cell_length_a		16.384324
_cell_length_b		16.219969
_cell_length_c		16.235351
_cell_angle_alpha	90.311831
_cell_angle_beta	89.937541
_cell_angle_gamma	89.955926
_symmetry_space_group_name_H-M	'P 1'
_symmetry_Int_Tables_number		1

loop_
	_symmetry_equiv_pos_as_xyz
	x,y,z

loop_
	_atom_site_label
	_atom_site_type_symbol
	_atom_site_fract_x
	_atom_site_fract_y
	_atom_site_fract_z
	H0	H	0.401268	0.829759	0.698913
	H1	H	0.598447	0.157879	0.703512
	H2	H	0.597217	0.829793	0.272450
	H3	H	0.403137	0.159305	0.276085
	H4	H	0.716916	0.389628	0.825460
	H5	H	0.713899	0.595880	0.151319
	H6	H	0.282734	0.592687	0.824608
	H7	H	0.283550	0.394489	0.152254
	H8	H	0.836573	0.709415	0.389923
	H9	H	0.162628	0.709091	0.585945
	H10	H	0.836157	0.280285	0.586437
	H11	H	0.162152	0.278581	0.387396
	H12	H	0.835830	0.396868	0.702788
	H13	H	0.162122	0.594147	0.704169
	H14	H	0.837380	0.595640	0.271192
	H15	H	0.161600	0.394125	0.270845
	H16	H	0.401086	0.705286	0.822496
	H17	H	0.596681	0.709750	0.151220
	H18	H	0.597813	0.277785	0.823615
	H19	H	0.401516	0.280450	0.152085
	H20	H	0.715915	0.830985	0.386058
	H21	H	0.713981	0.158285	0.587811
	H22	H	0.284762	0.831047	0.585600
	H23	H	0.283192	0.156917	0.386962
	H24	H	0.901271	0.329129	0.201575
	H25	H	0.097123	0.659008	0.202447
	H26	H	0.097917	0.330882	0.772657
	H27	H	0.902058	0.659193	0.777002
	H28	H	0.214664	0.893907	0.324229
	H29	H	0.215679	0.096052	0.650538
	H30	H	0.783145	0.095817	0.323935
	H31	H	0.783399	0.896383	0.651116
	H32	H	0.335955	0.206928	0.889935
	H33	H	0.661993	0.210166	0.086401
	H34	H	0.335136	0.781719	0.083267
	H35	H	0.661517	0.776388	0.886256
	H36	H	0.336091	0.896374	0.201456
	H37	H	0.662293	0.093533	0.202718
	H38	H	0.336252	0.090893	0.773472
	H39	H	0.662122	0.893739	0.770730
	H40	H	0.902576	0.207327	0.322389
	H41	H	0.097191	0.210212	0.651366
	H42	H	0.098182	0.779619	0.323702
	H43	H	0.901924	0.782575	0.652738
	H44	H	0.213937	0.330663	0.887582
	H45	H	0.214950	0.657744	0.090311
	H46	H	0.782936	0.329692	0.088649
	H47	H	0.781751	0.656982	0.888584
	H48	H	0.413272	0.110480	0.581657
	H49	H	0.592712	0.878797	0.573827
	H50	H	0.597915	0.109010	0.408461
	H51	H	0.397905	0.875981	0.397373
	H52	H	0.602091	0.404361	0.106956
	H53	H	0.597675	0.580760	0.870744
	H54	H	0.402084	0.586204	0.105950
	H55	H	0.407904	0.400175	0.871929
	H56	H	0.112316	0.583458	0.399369
	H57	H	0.882267	0.588431	0.585954
	H58	H	0.115930	0.403881	0.587019
	H59	H	0.883645	0.409518	0.385189
	H60	H	0.115625	0.395428	0.579462
	H61	H	0.883672	0.591858	0.580902
	H62	H	0.116080	0.584331	0.389879
	H63	H	0.880282	0.390071	0.393869
	H64	H	0.408508	0.585108	0.103271
	H65	H	0.586730	0.579866	0.874397
	H66	H	0.585343	0.411650	0.099918
	H67	H	0.402858	0.399077	0.870115
	H68	H	0.600738	0.116254	0.385968
	H69	H	0.593687	0.876386	0.578786
	H70	H	0.404178	0.110408	0.573999
	H71	H	0.406638	0.874265	0.384893
	H72	H	0.916101	0.605787	0.076961
	H73	H	0.088220	0.381179	0.071892
	H74	H	0.088755	0.612865	0.889543
	H75	H	0.905950	0.376033	0.892127
	H76	H	0.105410	0.899018	0.609681
	H77	H	0.094350	0.085801	0.370195
	H78	H	0.911202	0.087781	0.602928
	H79	H	0.910759	0.900883	0.372008
	H80	H	0.614002	0.084220	0.897299
	H81	H	0.383071	0.086462	0.085316
	H82	H	0.615565	0.899970	0.082590
	H83	H	0.387779	0.908240	0.896655
	H84	H	0.614764	0.898924	0.075820
	H85	H	0.382748	0.092057	0.081124
	H86	H	0.615205	0.084743	0.892674
	H87	H	0.380175	0.899004	0.882300
	H88	H	0.903076	0.091575	0.605848
	H89	H	0.092927	0.083964	0.370720
	H90	H	0.090886	0.914990	0.600379
	H91	H	0.904754	0.900478	0.369504
	H92	H	0.087055	0.607731	0.903518
	H93	H	0.099629	0.375213	0.078951
	H94	H	0.897638	0.609773	0.071721
	H95	H	0.910906	0.379047	0.897043
	H96	H	0.402738	0.113282	0.584685
	H97	H	0.589095	0.878968	0.578248
	H98	H	0.579565	0.108153	0.392711
	H99	H	0.412933	0.879463	0.398253
	H100	H	0.586553	0.392693	0.105604
	H101	H	0.590738	0.589564	0.869522
	H102	H	0.406709	0.591785	0.105146
	H103	H	0.403644	0.404194	0.872446
	H104	H	0.115706	0.592846	0.396100
	H105	H	0.885413	0.585326	0.580642
	H106	H	0.111824	0.405929	0.576714
	H107	H	0.888954	0.406300	0.406068
	H108	H	0.903575	0.613391	0.090504
	H109	H	0.086851	0.376940	0.086201
	H110	H	0.101334	0.613982	0.898385
	H111	H	0.903959	0.377390	0.899143
	H112	H	0.084020	0.893517	0.604523
	H113	H	0.092164	0.086138	0.371292
	H114	H	0.902656	0.083146	0.602516
	H115	H	0.906994	0.905822	0.372664
	H116	H	0.615416	0.087946	0.894737
	H117	H	0.384830	0.085624	0.078448
	H118	H	0.612839	0.903959	0.078525
	H119	H	0.382520	0.890212	0.898210
	C120	C	0.378010	0.002990	0.608056
	C121	C	0.620910	0.986037	0.607781
	C122	C	0.621482	0.002820	0.365801
	C123	C	0.378025	0.985232	0.365887
	C124	C	0.620395	0.372411	-0.003841
	C125	C	0.620090	0.614216	0.979558
	C126	C	0.377064	0.615427	-0.004005
	C127	C	0.377018	0.372699	0.979778
	C128	C	0.007369	0.615849	0.366533
	C129	C	0.991326	0.617161	0.610881
	C130	C	0.007157	0.372976	0.610035
	C131	C	0.991396	0.372683	0.365612
	C132	C	0.877259	0.501424	0.109143
	C133	C	0.120387	0.486044	0.109155
	C134	C	0.120903	0.503207	0.867268
	C135	C	0.877536	0.485674	0.867259
	C136	C	0.121602	0.872998	0.496336
	C137	C	0.121109	0.115368	0.478820
	C138	C	0.877673	0.116190	0.495494
	C139	C	0.878473	0.873763	0.479595
	C140	C	0.507291	0.114545	0.866018
	C141	C	0.491242	0.116556	0.109715
	C142	C	0.506907	0.872687	0.107922
	C143	C	0.491096	0.870365	0.863788
	C144	C	0.380584	0.879071	0.662195
	C145	C	0.619051	0.108864	0.665079
	C146	C	0.618383	0.879059	0.310125
	C147	C	0.381698	0.109592	0.312567
	C148	C	0.677520	0.371440	0.873618
	C149	C	0.675443	0.614436	0.102607
	C150	C	0.321482	0.612487	0.873096
	C151	C	0.321774	0.374583	0.103288
	C152	C	0.885080	0.671457	0.369229
	C153	C	0.113712	0.671928	0.607359
	C154	C	0.884955	0.317662	0.607286
	C155	C	0.113514	0.316641	0.367217
	C156	C	0.884676	0.376009	0.664988
	C157	C	0.113476	0.614998	0.666318
	C158	C	0.885477	0.614706	0.310329
	C159	C	0.113453	0.374508	0.309715
	C160	C	0.380015	0.668527	0.872069
	C161	C	0.617307	0.671414	0.102439
	C162	C	0.618368	0.315728	0.872704
	C163	C	0.380633	0.318284	0.103364
	C164	C	0.677227	0.879567	0.366548
	C165	C	0.676397	0.109017	0.607498
	C166	C	0.322701	0.879760	0.605707
	C167	C	0.322434	0.108556	0.368065
	C168	C	0.880062	0.378371	0.164372
	C169	C	0.117955	0.609729	0.165143
	C170	C	0.118254	0.379715	0.810978
	C171	C	0.880580	0.609807	0.813553
	C172	C	0.176697	0.874189	0.373025
	C173	C	0.177106	0.115639	0.601911
	C174	C	0.821781	0.114924	0.372443
	C175	C	0.821865	0.875748	0.602379
	C176	C	0.385038	0.169659	0.868839
	C177	C	0.613432	0.172037	0.107388
	C178	C	0.384081	0.818678	0.104639
	C179	C	0.613236	0.814962	0.866012
	C180	C	0.384448	0.875997	0.163167
	C181	C	0.613532	0.114246	0.165128
	C182	C	0.384966	0.111355	0.811452
	C183	C	0.613454	0.873106	0.808356
	C184	C	0.881321	0.170199	0.371591
	C185	C	0.118049	0.171998	0.602319
	C186	C	0.118418	0.817450	0.372811
	C187	C	0.880782	0.819450	0.603303
	C188	C	0.175713	0.379672	0.868350
	C189	C	0.176433	0.609072	0.109217
	C190	C	0.821509	0.378313	0.107835
	C191	C	0.820769	0.608399	0.868895
	C192	C	0.400159	0.089145	0.586413
	C193	C	0.598208	0.900044	0.583966
	C194	C	0.599333	0.089039	0.388945
	C195	C	0.399737	0.898831	0.387169
	C196	C	0.597937	0.396005	0.081960
	C197	C	0.598084	0.590320	0.893702
	C198	C	0.399293	0.594009	0.082403
	C199	C	0.398482	0.394543	0.893802
	C200	C	0.092618	0.593434	0.388603
	C201	C	0.905622	0.594821	0.589100
	C202	C	0.092369	0.395381	0.587678
	C203	C	0.906242	0.395346	0.388345
	C204	C	0.899451	0.587395	0.086380
	C205	C	0.098089	0.399987	0.086027
	C206	C	0.098790	0.589349	0.890298
	C207	C	0.900414	0.399753	0.889462
	C208	C	0.099946	0.895992	0.582615
	C209	C	0.099390	0.092179	0.393059
	C210	C	0.899294	0.093979	0.581526
	C211	C	0.900943	0.895772	0.393769
	C212	C	0.592761	0.092323	0.888445
	C213	C	0.405752	0.094615	0.087881
	C214	C	0.592238	0.894592	0.085650
	C215	C	0.405573	0.892597	0.885827
	Zn216	Zn	0.499481	-0.006623	0.735919
	Zn217	Zn	0.499316	-0.005680	0.237925
	Zn218	Zn	0.749009	0.493029	-0.011741
	Zn219	Zn	0.248564	0.494288	-0.011185
	Zn220	Zn	-0.000581	0.744999	0.488510
	Zn221	Zn	-0.000762	0.244150	0.487170
	Zn222	Zn	-0.000750	0.495019	0.739507
	Zn223	Zn	-0.000479	0.494401	0.237272
	Zn224	Zn	0.498726	0.742500	-0.013251
	Zn225	Zn	0.498973	0.244520	-0.012663
	Zn226	Zn	0.749626	-0.005256	0.487113
	Zn227	Zn	0.249867	-0.005733	0.487545
	N228	N	0.414374	0.956655	0.663936
	N229	N	0.584958	0.031308	0.665131
	N230	N	0.584287	0.956686	0.309625
	N231	N	0.415674	0.031934	0.311118
	N232	N	0.678627	0.406067	0.951210
	N233	N	0.677271	0.579548	0.025172
	N234	N	0.319492	0.580225	0.951277
	N235	N	0.319513	0.408029	0.025598
	N236	N	0.961899	0.672338	0.403372
	N237	N	0.036629	0.673207	0.573839
	N238	N	0.962020	0.315881	0.573736
	N239	N	0.036657	0.315684	0.401495
	N240	N	0.961802	0.409592	0.667063
	N241	N	0.036208	0.581646	0.668488
	N242	N	0.962625	0.580977	0.308424
	N243	N	0.036476	0.408450	0.308377
	N244	N	0.413825	0.670404	0.949565
	N245	N	0.583460	0.671231	0.024886
	N246	N	0.583565	0.316196	0.949904
	N247	N	0.414176	0.316811	0.025654
	N248	N	0.679060	0.957473	0.400213
	N249	N	0.677480	0.031560	0.572500
	N250	N	0.321120	0.957736	0.572866
	N251	N	0.319867	0.030275	0.400199
	N252	N	0.913982	0.455911	0.165346
	N253	N	0.083571	0.532240	0.165055
	N254	N	0.084555	0.457474	0.810497
	N255	N	0.915005	0.532352	0.812371
	N256	N	0.178486	0.908111	0.450884
	N257	N	0.179105	0.081075	0.524271
	N258	N	0.819487	0.082023	0.450391
	N259	N	0.820238	0.908657	0.524564
	N260	N	0.462213	0.171546	0.902066
	N261	N	0.536428	0.173572	0.073694
	N262	N	0.461207	0.816751	0.070733
	N263	N	0.536216	0.813265	0.899583
	N264	N	0.461745	0.908951	0.165225
	N265	N	0.536599	0.080441	0.166792
	N266	N	0.462113	0.077729	0.809511
	N267	N	0.536278	0.906645	0.806619
	N268	N	0.915243	0.171279	0.449146
	N269	N	0.083849	0.171790	0.525005
	N270	N	0.084794	0.816547	0.450558
	N271	N	0.915286	0.818028	0.525980
	N272	N	0.177312	0.457379	0.902662
	N273	N	0.177913	0.531357	0.075058
	N274	N	0.819575	0.456216	0.074553
	N275	N	0.818902	0.530274	0.901453
	O276	O	0.599878	0.488967	0.479598
	H277	H	0.602998	0.481025	0.468083
	H278	H	0.589870	0.484618	0.472607
	O279	O	0.508703	0.489609	0.474664
	H280	H	0.507788	0.476054	0.474709
	H281	H	0.506889	0.491833	0.468763
	O282	O	0.474833	0.452794	0.483287
	H283	H	0.476495	0.456664	0.497320
	H284	H	0.483421	0.456528	0.490515
	O285	O	-0.004687	1.007836	0.977162
	H286	H	-0.001055	1.000061	0.969459
	H287	H	-0.000956	1.004429	0.977834
	O288	O	0.507880	0.487490	0.526996
	H289	H	0.500348	0.489096	0.521415
	H290	H	0.508250	0.497555	0.538087
	O291	O	0.014201	0.002286	0.963037
	H292	H	0.009923	0.005344	0.958770
	H293	H	0.015264	0.000852	0.963493
	O294	O	0.579601	0.557810	0.571436
	H295	H	0.591985	0.560878	0.553891
	H296	H	0.579156	0.570670	0.570639
	O297	O	0.507063	0.388028	0.481199
	H298	H	0.520299	0.389084	0.483287
	H299	H	0.503731	0.388678	0.479465
	O300	O	0.968367	0.994945	1.042442
	H301	H	0.974350	0.999510	1.044728
	H302	H	0.976247	0.997866	1.049782
	O303	O	0.565197	0.456453	0.554241
	H304	H	0.565216	0.453665	0.559212
	H305	H	0.569981	0.452503	0.561416
	O306	O	0.995544	0.012413	0.972962
	H307	H	0.993776	0.007847	0.976175
	H308	H	0.987451	0.010217	0.976822
	O309	O	0.468874	0.484317	0.571871
	H310	H	0.472936	0.474844	0.579493
	H311	H	0.470417	0.486553	0.573504
	O312	O	-0.084360	0.995510	1.035215
	H313	H	-0.081747	1.001879	1.032760
	H314	H	-0.084773	1.002355	1.041661
	O315	O	0.992618	0.029376	0.976962
	H316	H	0.996950	0.032463	0.968383
	H317	H	0.998110	0.028835	0.975865
	O318	O	-0.041283	0.002465	0.013776
	H319	H	-0.043346	0.002675	0.010873
	H320	H	-0.043353	-0.006184	0.022521
	O321	O	0.518187	0.480739	0.562049
	H322	H	0.523750	0.481676	0.554543
	H323	H	0.524722	0.471481	0.571257
	O324	O	0.517763	0.484109	0.510347
	H325	H	0.506591	0.486391	0.518444
	H326	H	0.516204	0.489138	0.509798
	O327	O	0.991114	0.998907	-0.038096
	H328	H	0.990824	1.013720	-0.044225
	H329	H	0.978920	0.994368	-0.037228
	O330	O	0.509691	0.486200	0.465130
	H331	H	0.512920	0.491118	0.463998
	H332	H	0.507861	0.485057	0.472739
	O333	O	0.586690	0.458632	0.502412
	H334	H	0.596227	0.454070	0.500020
	H335	H	0.576657	0.466403	0.505225
