data_Molecule from HDF5

_cell_length_a		16.277128
_cell_length_b		16.294691
_cell_length_c		16.351149
_cell_angle_alpha	90.120693
_cell_angle_beta	90.000158
_cell_angle_gamma	89.979674
_symmetry_space_group_name_H-M	'P 1'
_symmetry_Int_Tables_number		1

loop_
	_symmetry_equiv_pos_as_xyz
	x,y,z

loop_
	_atom_site_label
	_atom_site_type_symbol
	_atom_site_fract_x
	_atom_site_fract_y
	_atom_site_fract_z
	H0	H	0.402803	0.844729	0.717675
	H1	H	0.601431	0.171014	0.717312
	H2	H	0.602032	0.844201	0.286357
	H3	H	0.403548	0.170954	0.287952
	H4	H	0.716500	0.408954	0.838904
	H5	H	0.717488	0.606805	0.165004
	H6	H	0.287649	0.605771	0.838988
	H7	H	0.287714	0.409496	0.165235
	H8	H	0.839454	0.722738	0.402424
	H9	H	0.166835	0.721105	0.600336
	H10	H	0.838815	0.293734	0.599754
	H11	H	0.166016	0.292796	0.402178
	H12	H	0.839113	0.408884	0.715882
	H13	H	0.165663	0.607417	0.718032
	H14	H	0.839327	0.606213	0.287271
	H15	H	0.165614	0.407792	0.286322
	H16	H	0.404002	0.722982	0.839154
	H17	H	0.600793	0.722441	0.165545
	H18	H	0.600246	0.292848	0.839214
	H19	H	0.404390	0.293277	0.165078
	H20	H	0.716313	0.844000	0.404177
	H21	H	0.715756	0.171434	0.600417
	H22	H	0.288167	0.843753	0.600207
	H23	H	0.289128	0.171167	0.405072
	H24	H	0.902935	0.344521	0.216695
	H25	H	0.101708	0.670297	0.217489
	H26	H	0.101337	0.344329	0.785907
	H27	H	0.902876	0.671405	0.787492
	H28	H	0.216991	0.909842	0.338784
	H29	H	0.217311	0.106214	0.665500
	H30	H	0.788520	0.105306	0.338945
	H31	H	0.787226	0.909693	0.665325
	H32	H	0.338747	0.220917	0.904738
	H33	H	0.665916	0.221936	0.100217
	H34	H	0.338820	0.794760	0.099649
	H35	H	0.666576	0.792657	0.903164
	H36	H	0.339568	0.908394	0.217009
	H37	H	0.665721	0.106529	0.216680
	H38	H	0.339377	0.107950	0.787042
	H39	H	0.666546	0.908424	0.787336
	H40	H	0.904820	0.221495	0.338809
	H41	H	0.100716	0.223070	0.665292
	H42	H	0.101134	0.792525	0.338680
	H43	H	0.902991	0.791878	0.665070
	H44	H	0.216226	0.343914	0.903280
	H45	H	0.216410	0.670931	0.100874
	H46	H	0.788566	0.344283	0.099060
	H47	H	0.788063	0.671299	0.904747
	H48	H	0.410465	0.123138	0.593664
	H49	H	0.592112	0.894929	0.588077
	H50	H	0.599775	0.128928	0.397317
	H51	H	0.414405	0.895849	0.420607
	H52	H	0.593570	0.415118	0.117228
	H53	H	0.598306	0.601050	0.885616
	H54	H	0.413105	0.596640	0.114877
	H55	H	0.407626	0.415194	0.886072
	H56	H	0.120712	0.605624	0.408980
	H57	H	0.886574	0.596586	0.598358
	H58	H	0.121439	0.410385	0.600102
	H59	H	0.882958	0.406956	0.405757
	H60	H	0.118105	0.413114	0.586984
	H61	H	0.884382	0.605720	0.595836
	H62	H	0.117168	0.597457	0.413474
	H63	H	0.888992	0.415830	0.417015
	H64	H	0.410848	0.606363	0.119239
	H65	H	0.593770	0.597574	0.887814
	H66	H	0.596965	0.410656	0.119817
	H67	H	0.410367	0.414553	0.887222
	H68	H	0.583640	0.119633	0.409736
	H69	H	0.601311	0.889739	0.595105
	H70	H	0.407958	0.123813	0.595848
	H71	H	0.396994	0.886479	0.406864
	H72	H	0.904585	0.622836	0.087258
	H73	H	0.098414	0.388354	0.101138
	H74	H	0.094444	0.621996	0.913819
	H75	H	0.902417	0.392500	0.917881
	H76	H	0.098716	0.917510	0.617399
	H77	H	0.095831	0.101594	0.385590
	H78	H	0.899753	0.107659	0.622762
	H79	H	0.913684	0.920505	0.389053
	H80	H	0.619472	0.103674	0.911658
	H81	H	0.383058	0.104800	0.099920
	H82	H	0.618576	0.919146	0.096747
	H83	H	0.387289	0.909701	0.915675
	H84	H	0.620882	0.912158	0.096315
	H85	H	0.386202	0.102120	0.089993
	H86	H	0.617800	0.097110	0.909600
	H87	H	0.390477	0.924095	0.911903
	H88	H	0.908433	0.090225	0.614991
	H89	H	0.097157	0.100160	0.386563
	H90	H	0.091523	0.916359	0.615814
	H91	H	0.912701	0.906959	0.385855
	H92	H	0.097932	0.624925	0.907346
	H93	H	0.086715	0.393601	0.095093
	H94	H	0.906162	0.627452	0.103365
	H95	H	0.903523	0.386430	0.896828
	H96	H	0.411183	0.123604	0.596709
	H97	H	0.589801	0.891764	0.600603
	H98	H	0.603452	0.123718	0.418499
	H99	H	0.419048	0.890371	0.398063
	H100	H	0.599199	0.416310	0.118149
	H101	H	0.593240	0.603394	0.886583
	H102	H	0.403844	0.598337	0.118391
	H103	H	0.408866	0.412754	0.885681
	H104	H	0.120080	0.596600	0.404349
	H105	H	0.888102	0.599949	0.589290
	H106	H	0.117176	0.423556	0.596380
	H107	H	0.886802	0.422360	0.402740
	H108	H	0.919541	0.620706	0.095228
	H109	H	0.098953	0.392214	0.088076
	H110	H	0.090675	0.622829	0.907390
	H111	H	0.921367	0.395171	0.906797
	H112	H	0.096108	0.910688	0.618763
	H113	H	0.095203	0.100191	0.387471
	H114	H	0.919676	0.107580	0.616592
	H115	H	0.902010	0.915338	0.384904
	H116	H	0.620579	0.101864	0.904958
	H117	H	0.386927	0.094987	0.097811
	H118	H	0.618265	0.915193	0.090603
	H119	H	0.384191	0.914396	0.901287
	C120	C	0.380830	0.016041	0.624101
	C121	C	0.623509	0.999666	0.623854
	C122	C	0.624364	0.015971	0.380057
	C123	C	0.381657	0.999143	0.380725
	C124	C	0.624067	0.386041	0.010574
	C125	C	0.624092	0.629507	0.994077
	C126	C	0.380309	0.629786	0.010275
	C127	C	0.380389	0.385657	0.993788
	C128	C	0.011145	0.628670	0.380382
	C129	C	0.994493	0.629461	0.623591
	C130	C	0.010769	0.386645	0.622878
	C131	C	0.994100	0.386220	0.380153
	C132	C	0.881044	0.515892	0.123349
	C133	C	0.123812	0.498864	0.123609
	C134	C	0.123415	0.515639	0.880430
	C135	C	0.880285	0.499407	0.879388
	C136	C	0.124430	0.885762	0.510185
	C137	C	0.124712	0.129710	0.493859
	C138	C	0.880842	0.129774	0.510214
	C139	C	0.881015	0.886023	0.494415
	C140	C	0.511142	0.129499	0.880645
	C141	C	0.493876	0.129417	0.123834
	C142	C	0.510976	0.886829	0.123324
	C143	C	0.494962	0.886761	0.880779
	C144	C	0.382773	0.893292	0.679344
	C145	C	0.621379	0.122414	0.679213
	C146	C	0.622148	0.893213	0.324544
	C147	C	0.383405	0.122044	0.325619
	C148	C	0.678909	0.388554	0.887625
	C149	C	0.679658	0.627221	0.116355
	C150	C	0.325455	0.626666	0.887734
	C151	C	0.325869	0.389032	0.116754
	C152	C	0.888230	0.684277	0.382766
	C153	C	0.117603	0.684240	0.621217
	C154	C	0.887707	0.331547	0.620076
	C155	C	0.117048	0.330664	0.382196
	C156	C	0.887844	0.388769	0.677948
	C157	C	0.117124	0.627318	0.679547
	C158	C	0.888338	0.627104	0.324780
	C159	C	0.117140	0.388184	0.324876
	C160	C	0.383449	0.684716	0.887758
	C161	C	0.621705	0.684714	0.116720
	C162	C	0.620872	0.330992	0.887788
	C163	C	0.383650	0.331296	0.116660
	C164	C	0.679147	0.893089	0.382850
	C165	C	0.678225	0.122576	0.620897
	C166	C	0.325625	0.892925	0.621257
	C167	C	0.326619	0.122325	0.383951
	C168	C	0.882959	0.393302	0.178524
	C169	C	0.121963	0.621686	0.179373
	C170	C	0.121332	0.392893	0.824471
	C171	C	0.882735	0.622442	0.825256
	C172	C	0.179514	0.888377	0.387332
	C173	C	0.179603	0.127030	0.616700
	C174	C	0.825939	0.126463	0.387736
	C175	C	0.825320	0.888669	0.616705
	C176	C	0.387916	0.184147	0.883400
	C177	C	0.616927	0.184306	0.120656
	C178	C	0.387817	0.832013	0.120643
	C179	C	0.617763	0.830938	0.882882
	C180	C	0.388232	0.888867	0.178836
	C181	C	0.616983	0.127110	0.178666
	C182	C	0.388113	0.127597	0.825360
	C183	C	0.617583	0.888341	0.825046
	C184	C	0.883861	0.184105	0.387499
	C185	C	0.121580	0.185053	0.616522
	C186	C	0.122348	0.830042	0.387427
	C187	C	0.882961	0.830287	0.616581
	C188	C	0.178316	0.392692	0.882650
	C189	C	0.178698	0.621952	0.121233
	C190	C	0.826655	0.392957	0.119691
	C191	C	0.825755	0.622522	0.883643
	C192	C	0.403324	0.101530	0.601880
	C193	C	0.600846	0.913983	0.601442
	C194	C	0.602022	0.101781	0.402129
	C195	C	0.403763	0.913231	0.402156
	C196	C	0.602809	0.407675	0.096211
	C197	C	0.601622	0.607106	0.908681
	C198	C	0.402855	0.607309	0.095636
	C199	C	0.402434	0.407808	0.908362
	C200	C	0.096979	0.606402	0.402511
	C201	C	0.908448	0.607293	0.601133
	C202	C	0.096667	0.409119	0.601033
	C203	C	0.908284	0.408488	0.402085
	C204	C	0.903506	0.601576	0.101637
	C205	C	0.101399	0.413369	0.101224
	C206	C	0.100960	0.601074	0.902907
	C207	C	0.902496	0.413502	0.900921
	C208	C	0.101944	0.908219	0.595075
	C209	C	0.102602	0.107243	0.408529
	C210	C	0.902637	0.108159	0.596055
	C211	C	0.903048	0.907716	0.408809
	C212	C	0.597073	0.107411	0.902235
	C213	C	0.407655	0.107234	0.102144
	C214	C	0.596991	0.908887	0.100958
	C215	C	0.409391	0.909352	0.903111
	Zn216	Zn	0.502291	0.008273	0.752373
	Zn217	Zn	0.502645	0.007852	0.251811
	Zn218	Zn	0.752465	0.507573	0.002218
	Zn219	Zn	0.251540	0.507485	0.002118
	Zn220	Zn	0.002874	0.757296	0.501934
	Zn221	Zn	0.002491	0.258395	0.502049
	Zn222	Zn	0.002398	0.507812	0.751302
	Zn223	Zn	0.002889	0.507257	0.251711
	Zn224	Zn	0.502832	0.758120	0.002452
	Zn225	Zn	0.502240	0.257301	0.002195
	Zn226	Zn	0.751955	0.008079	0.502134
	Zn227	Zn	0.252995	0.007299	0.501800
	N228	N	0.416066	0.970840	0.681504
	N229	N	0.588081	0.044977	0.681061
	N230	N	0.588784	0.970735	0.322789
	N231	N	0.416894	0.044564	0.323617
	N232	N	0.680965	0.422230	0.964843
	N233	N	0.681040	0.593364	0.039144
	N234	N	0.323536	0.593186	0.964858
	N235	N	0.323907	0.422343	0.039452
	N236	N	0.965540	0.685469	0.416691
	N237	N	0.040316	0.685443	0.586975
	N238	N	0.965170	0.330280	0.586519
	N239	N	0.039698	0.329336	0.415973
	N240	N	0.965362	0.422125	0.679898
	N241	N	0.039424	0.594328	0.681205
	N242	N	0.965635	0.593181	0.323318
	N243	N	0.039791	0.422047	0.323435
	N244	N	0.416674	0.686733	0.965010
	N245	N	0.587971	0.686285	0.039630
	N246	N	0.587737	0.329157	0.965091
	N247	N	0.416737	0.328899	0.039283
	N248	N	0.680564	0.970367	0.416660
	N249	N	0.679487	0.045221	0.586913
	N250	N	0.324478	0.970123	0.587404
	N251	N	0.325301	0.044981	0.417501
	N252	N	0.916294	0.470762	0.180662
	N253	N	0.088506	0.544216	0.180951
	N254	N	0.087662	0.470294	0.823080
	N255	N	0.915756	0.544849	0.822412
	N256	N	0.180892	0.922321	0.464474
	N257	N	0.181494	0.093233	0.539548
	N258	N	0.824114	0.093282	0.465137
	N259	N	0.824030	0.922601	0.539773
	N260	N	0.465229	0.185231	0.917408
	N261	N	0.539278	0.185508	0.087290
	N262	N	0.465115	0.830958	0.086552
	N263	N	0.540522	0.829603	0.916801
	N264	N	0.465731	0.922515	0.180271
	N265	N	0.539423	0.093746	0.180849
	N266	N	0.465702	0.094377	0.823336
	N267	N	0.540142	0.922194	0.823491
	N268	N	0.917255	0.186221	0.464634
	N269	N	0.088119	0.186733	0.539314
	N270	N	0.088783	0.828323	0.464489
	N271	N	0.916903	0.828707	0.539526
	N272	N	0.180113	0.469998	0.916416
	N273	N	0.179782	0.544740	0.087072
	N274	N	0.825161	0.470234	0.086245
	N275	N	0.824125	0.544848	0.916497
	O276	O	0.549150	0.481552	0.525770
	H277	H	0.552125	0.480560	0.530663
	H278	H	0.546570	0.488235	0.516923
	O279	O	0.122840	-0.037588	-0.040894
	H280	H	0.130599	-0.039688	-0.039695
	H281	H	0.120184	-0.050598	-0.035807
	O282	O	0.564473	0.518604	0.542137
	H283	H	0.562163	0.519073	0.555775
	H284	H	0.564871	0.511690	0.541202
	O285	O	0.505388	0.512164	0.564806
	H286	H	0.507432	0.514211	0.555602
	H287	H	0.501184	0.500591	0.562298
	O288	O	1.062975	-0.112893	-0.018147
	H289	H	1.063275	-0.119145	-0.019502
	H290	H	1.059061	-0.116496	-0.020894
	O291	O	-0.446572	0.508273	-0.427882
	H292	H	-0.446444	0.515352	-0.433781
	H293	H	-0.447822	0.512831	-0.417216
	O294	O	0.467012	0.501389	0.536670
	H295	H	0.469806	0.513713	0.544857
	H296	H	0.468177	0.488564	0.540401
	O297	O	0.037263	0.909387	-0.001075
	H298	H	0.030650	0.916083	-0.007033
	H299	H	0.031510	0.902643	-0.002386
	O300	O	1.046254	-0.039208	0.939050
	H301	H	1.047260	-0.043342	0.942583
	H302	H	1.050612	-0.029364	0.928525
	O303	O	0.520820	0.493688	0.547085
	H304	H	0.529821	0.492465	0.549409
	H305	H	0.519538	0.496688	0.548313
	O306	O	0.084069	0.953206	0.934672
	H307	H	0.091538	0.960870	0.937970
	H308	H	0.099509	0.952695	0.930502
	O309	O	0.468384	0.511657	0.552464
	H310	H	0.466279	0.515033	0.545856
	H311	H	0.473646	0.512925	0.551162
