data_Molecule from HDF5

_cell_length_a		16.605676
_cell_length_b		16.617602
_cell_length_c		16.584488
_cell_angle_alpha	89.998279
_cell_angle_beta	89.905215
_cell_angle_gamma	89.842732
_symmetry_space_group_name_H-M	'P 1'
_symmetry_Int_Tables_number		1

loop_
	_symmetry_equiv_pos_as_xyz
	x,y,z

loop_
	_atom_site_label
	_atom_site_type_symbol
	_atom_site_fract_x
	_atom_site_fract_y
	_atom_site_fract_z
	H0	H	0.423772	0.834812	0.712395
	H1	H	0.636235	0.144181	0.708419
	H2	H	0.635067	0.832173	0.266209
	H3	H	0.422975	0.141992	0.264151
	H4	H	0.751503	0.384111	0.830243
	H5	H	0.749128	0.589227	0.144392
	H6	H	0.311439	0.592482	0.831682
	H7	H	0.308315	0.382162	0.142787
	H8	H	0.875547	0.709624	0.383309
	H9	H	0.186777	0.708862	0.591985
	H10	H	0.873876	0.268931	0.591485
	H11	H	0.185531	0.263875	0.379486
	H12	H	0.873760	0.385614	0.706107
	H13	H	0.186809	0.592639	0.707590
	H14	H	0.875273	0.592330	0.267443
	H15	H	0.185571	0.379408	0.263098
	H16	H	0.427191	0.708620	0.831863
	H17	H	0.633502	0.706230	0.144542
	H18	H	0.636097	0.267594	0.830638
	H19	H	0.425547	0.266991	0.143319
	H20	H	0.752379	0.832828	0.382975
	H21	H	0.750312	0.144346	0.590473
	H22	H	0.307249	0.834022	0.596415
	H23	H	0.306125	0.142051	0.379136
	H24	H	0.925897	0.333387	0.208769
	H25	H	0.139994	0.642306	0.211973
	H26	H	0.135949	0.332425	0.766793
	H27	H	0.928221	0.646074	0.768244
	H28	H	0.254601	0.880138	0.332513
	H29	H	0.252110	0.092654	0.643488
	H30	H	0.810212	0.092540	0.331540
	H31	H	0.808219	0.882631	0.643069
	H32	H	0.376045	0.211634	0.881283
	H33	H	0.686705	0.208255	0.091357
	H34	H	0.376024	0.764916	0.094964
	H35	H	0.687780	0.768591	0.883845
	H36	H	0.375409	0.881024	0.210773
	H37	H	0.686527	0.091950	0.207219
	H38	H	0.375930	0.094311	0.765835
	H39	H	0.687361	0.884494	0.767126
	H40	H	0.925680	0.208978	0.331432
	H41	H	0.135189	0.208926	0.643831
	H42	H	0.139869	0.763434	0.333116
	H43	H	0.924301	0.766442	0.642877
	H44	H	0.253480	0.333333	0.881682
	H45	H	0.254506	0.643544	0.094562
	H46	H	0.810701	0.333043	0.091315
	H47	H	0.812525	0.645904	0.885060
	H48	H	0.441948	0.098969	0.575945
	H49	H	0.619957	0.875850	0.579061
	H50	H	0.623731	0.103317	0.391422
	H51	H	0.444486	0.877815	0.402031
	H52	H	0.627017	0.398679	0.100671
	H53	H	0.624729	0.584087	0.871492
	H54	H	0.445581	0.579225	0.099485
	H55	H	0.446422	0.398644	0.876817
	H56	H	0.141944	0.576293	0.404184
	H57	H	0.919003	0.576742	0.577776
	H58	H	0.141309	0.403877	0.577769
	H59	H	0.920520	0.399261	0.401205
	H60	H	0.145388	0.393990	0.581287
	H61	H	0.918155	0.578721	0.578696
	H62	H	0.141403	0.571467	0.398848
	H63	H	0.920193	0.401399	0.397945
	H64	H	0.439021	0.576399	0.100101
	H65	H	0.625375	0.575244	0.874384
	H66	H	0.617901	0.403533	0.096616
	H67	H	0.441384	0.399599	0.873920
	H68	H	0.612545	0.097466	0.395547
	H69	H	0.618148	0.877153	0.575905
	H70	H	0.443425	0.098987	0.575280
	H71	H	0.440825	0.876552	0.400394
	H72	H	0.938790	0.599895	0.071439
	H73	H	0.113270	0.379375	0.078216
	H74	H	0.128335	0.602620	0.898900
	H75	H	0.939387	0.373308	0.890054
	H76	H	0.114200	0.901346	0.596769
	H77	H	0.116478	0.076545	0.376943
	H78	H	0.939249	0.079982	0.600493
	H79	H	0.939481	0.895790	0.373847
	H80	H	0.640264	0.075843	0.902819
	H81	H	0.420696	0.073433	0.074221
	H82	H	0.643661	0.895177	0.077213
	H83	H	0.419265	0.898959	0.900910
	H84	H	0.640569	0.898997	0.073218
	H85	H	0.417484	0.077244	0.079782
	H86	H	0.643471	0.074736	0.893233
	H87	H	0.419963	0.900189	0.899599
	H88	H	0.939792	0.075913	0.599567
	H89	H	0.120122	0.077489	0.375550
	H90	H	0.118939	0.894872	0.600022
	H91	H	0.940764	0.903807	0.376763
	H92	H	0.116248	0.601817	0.891274
	H93	H	0.118610	0.380695	0.067574
	H94	H	0.937309	0.603043	0.082641
	H95	H	0.946261	0.377554	0.897328
	H96	H	0.442275	0.098767	0.573985
	H97	H	0.622029	0.876435	0.575962
	H98	H	0.622672	0.098431	0.403850
	H99	H	0.444374	0.876977	0.398296
	H100	H	0.617946	0.393138	0.099795
	H101	H	0.617420	0.579616	0.874863
	H102	H	0.444686	0.572421	0.097999
	H103	H	0.443904	0.403598	0.878225
	H104	H	0.143551	0.578062	0.397482
	H105	H	0.919461	0.578961	0.576646
	H106	H	0.142391	0.395661	0.570770
	H107	H	0.918561	0.397490	0.398441
	H108	H	0.947917	0.599801	0.078385
	H109	H	0.124552	0.375151	0.077222
	H110	H	0.116377	0.596235	0.904420
	H111	H	0.936237	0.375662	0.900292
	H112	H	0.122568	0.902671	0.599037
	H113	H	0.119593	0.074107	0.376873
	H114	H	0.942733	0.078539	0.599131
	H115	H	0.947602	0.898541	0.377541
	H116	H	0.645310	0.082963	0.898118
	H117	H	0.418331	0.080437	0.072755
	H118	H	0.642142	0.900644	0.078899
	H119	H	0.418693	0.898296	0.899205
	C120	C	0.409637	-0.002935	0.609034
	C121	C	0.651834	0.979810	0.608483
	C122	C	0.651785	-0.003618	0.365676
	C123	C	0.409537	0.979181	0.366403
	C124	C	0.652869	0.366869	-0.004591
	C125	C	0.652933	0.609892	0.978109
	C126	C	0.410896	0.608449	-0.003915
	C127	C	0.410737	0.367872	0.979244
	C128	C	0.039165	0.608225	0.367658
	C129	C	1.022245	0.609635	0.608873
	C130	C	0.039366	0.366956	0.608431
	C131	C	1.022140	0.366183	0.365710
	C132	C	0.909860	0.497568	0.109160
	C133	C	0.152521	0.480487	0.108563
	C134	C	0.152706	0.497288	0.865677
	C135	C	0.910072	0.479809	0.865608
	C136	C	0.152383	0.866189	0.496010
	C137	C	0.151451	0.108844	0.479262
	C138	C	0.909311	0.109450	0.496138
	C139	C	0.909561	0.866763	0.478734
	C140	C	0.540039	0.110439	0.865695
	C141	C	0.521838	0.109237	0.108068
	C142	C	0.539418	0.865639	0.109571
	C143	C	0.522894	0.867582	0.867276
	C144	C	0.405989	0.880809	0.671345
	C145	C	0.653832	0.097408	0.667927
	C146	C	0.653887	0.878897	0.306343
	C147	C	0.405425	0.095527	0.304701
	C148	C	0.712050	0.365441	0.877594
	C149	C	0.710230	0.609082	0.097097
	C150	C	0.351210	0.610958	0.878447
	C151	C	0.349486	0.364762	0.096192
	C152	C	0.922068	0.669096	0.364977
	C153	C	0.139788	0.668990	0.610581
	C154	C	0.921264	0.308443	0.609790
	C155	C	0.138864	0.304666	0.361976
	C156	C	0.921308	0.366399	0.667266
	C157	C	0.140179	0.610834	0.667744
	C158	C	0.921923	0.610667	0.307809
	C159	C	0.138975	0.362305	0.304150
	C160	C	0.408919	0.668189	0.878428
	C161	C	0.652880	0.667234	0.097060
	C162	C	0.654683	0.307499	0.877689
	C163	C	0.407645	0.307284	0.096601
	C164	C	0.711879	0.879039	0.364105
	C165	C	0.710862	0.097520	0.609462
	C166	C	0.348537	0.880436	0.613396
	C167	C	0.347090	0.095345	0.361880
	C168	C	0.907886	0.379965	0.168382
	C169	C	0.156757	0.596384	0.170562
	C170	C	0.154357	0.379386	0.806460
	C171	C	0.909152	0.598598	0.807396
	C172	C	0.214070	0.862208	0.379459
	C173	C	0.211845	0.111187	0.596747
	C174	C	0.849935	0.111461	0.378289
	C175	C	0.848633	0.864311	0.595972
	C176	C	0.422789	0.171209	0.862907
	C177	C	0.639513	0.168773	0.110192
	C178	C	0.422532	0.805101	0.112837
	C179	C	0.640641	0.808143	0.864956
	C180	C	0.422444	0.862781	0.170613
	C181	C	0.639553	0.110656	0.167480
	C182	C	0.422562	0.112796	0.805762
	C183	C	0.640327	0.865849	0.807108
	C184	C	0.907450	0.169190	0.378386
	C185	C	0.153815	0.168922	0.596911
	C186	C	0.157056	0.803930	0.379690
	C187	C	0.906351	0.806448	0.596130
	C188	C	0.212785	0.379929	0.863581
	C189	C	0.213904	0.596868	0.112264
	C190	C	0.850443	0.380035	0.110397
	C191	C	0.851659	0.598559	0.865435
	C192	C	0.435489	0.077800	0.582529
	C193	C	0.626905	0.897728	0.584013
	C194	C	0.626805	0.078388	0.390151
	C195	C	0.435933	0.898035	0.392791
	C196	C	0.628065	0.391328	0.077764
	C197	C	0.629352	0.586459	0.895180
	C198	C	0.435933	0.583232	0.077867
	C199	C	0.436542	0.393376	0.897684
	C200	C	0.120985	0.582452	0.392923
	C201	C	0.940195	0.585346	0.584637
	C202	C	0.121758	0.390935	0.583648
	C203	C	0.940869	0.392249	0.391593
	C204	C	0.934499	0.579562	0.084659
	C205	C	0.126174	0.399635	0.081922
	C206	C	0.127613	0.579025	0.890926
	C207	C	0.933751	0.397263	0.888975
	C208	C	0.126064	0.892228	0.577510
	C209	C	0.125931	0.083304	0.397798
	C210	C	0.933653	0.084930	0.578376
	C211	C	0.935366	0.892181	0.397282
	C212	C	0.621700	0.085187	0.890837
	C213	C	0.440227	0.084293	0.082836
	C214	C	0.620929	0.891005	0.083987
	C215	C	0.440774	0.892010	0.892601
	Zn216	Zn	0.531194	-0.011366	0.737898
	Zn217	Zn	0.530566	-0.012130	0.236929
	Zn218	Zn	0.781761	0.488566	-0.013340
	Zn219	Zn	0.281233	0.488789	-0.012683
	Zn220	Zn	0.030822	0.738320	0.487495
	Zn221	Zn	0.030278	0.237792	0.487482
	Zn222	Zn	0.031118	0.488653	0.737428
	Zn223	Zn	0.031242	0.488530	0.237495
	Zn224	Zn	0.530976	0.737531	-0.012475
	Zn225	Zn	0.531081	0.238411	-0.012968
	Zn226	Zn	0.780791	-0.011832	0.487164
	Zn227	Zn	0.280447	-0.012205	0.487431
	N228	N	0.443286	0.954367	0.668954
	N229	N	0.618103	0.022971	0.667660
	N230	N	0.617340	0.952859	0.307101
	N231	N	0.443691	0.022171	0.307336
	N232	N	0.711329	0.401521	0.952005
	N233	N	0.710602	0.574195	0.022084
	N234	N	0.352274	0.574327	0.952578
	N235	N	0.351242	0.401712	0.022215
	N236	N	0.996140	0.667700	0.401308
	N237	N	0.065441	0.668457	0.574659
	N238	N	0.995899	0.308391	0.574093
	N239	N	0.065156	0.306841	0.399594
	N240	N	0.995793	0.402190	0.666670
	N241	N	0.065928	0.574927	0.667179
	N242	N	0.996004	0.573740	0.309218
	N243	N	0.065399	0.400071	0.306332
	N244	N	0.445016	0.667126	0.952680
	N245	N	0.618129	0.667877	0.021991
	N246	N	0.618623	0.308056	0.952152
	N247	N	0.445094	0.309038	0.022802
	N248	N	0.710627	0.953155	0.400171
	N249	N	0.709883	0.023262	0.573124
	N250	N	0.350323	0.953758	0.575418
	N251	N	0.349645	0.021961	0.399600
	N252	N	0.944055	0.454170	0.167753
	N253	N	0.119422	0.522940	0.168494
	N254	N	0.117853	0.453488	0.807480
	N255	N	0.944579	0.523767	0.807199
	N256	N	0.211337	0.900207	0.452923
	N257	N	0.210557	0.074579	0.522509
	N258	N	0.850877	0.074939	0.452512
	N259	N	0.850314	0.901089	0.521798
	N260	N	0.496930	0.169912	0.899329
	N261	N	0.565326	0.168220	0.074136
	N262	N	0.496436	0.806533	0.075663
	N263	N	0.566420	0.808866	0.901596
	N264	N	0.496197	0.899784	0.168732
	N265	N	0.565207	0.074540	0.166634
	N266	N	0.496430	0.075630	0.807384
	N267	N	0.565858	0.901825	0.808126
	N268	N	0.943431	0.168255	0.452749
	N269	N	0.117135	0.167821	0.522797
	N270	N	0.119378	0.806181	0.453409
	N271	N	0.943514	0.807781	0.522202
	N272	N	0.212047	0.454237	0.899647
	N273	N	0.211418	0.523699	0.074259
	N274	N	0.851366	0.454284	0.074203
	N275	N	0.852143	0.523800	0.900903
	O276	O	0.061213	1.008259	-0.145257
	H277	H	0.068749	0.996744	-0.129795
	H278	H	0.057621	1.027679	-0.149319
	O279	O	0.314945	0.513066	0.270686
	H280	H	0.296641	0.524927	0.266727
	H281	H	0.304891	0.509529	0.270114
	O282	O	1.065211	-0.227702	0.766700
	H283	H	1.068764	-0.250136	0.741135
	H284	H	1.082810	-0.217573	0.770899
	O285	O	-0.046660	1.109490	1.046078
	H286	H	-0.037511	1.117822	1.049166
	H287	H	-0.058649	1.096785	1.060835
	O288	O	0.305595	0.221551	0.749524
	H289	H	0.295725	0.213100	0.739367
	H290	H	0.322435	0.222333	0.749757
	O291	O	0.500630	0.699426	0.272359
	H292	H	0.482701	0.697323	0.269865
	H293	H	0.492920	0.715853	0.265075
	O294	O	0.558311	0.531084	0.391449
	H295	H	0.579823	0.527761	0.387826
	H296	H	0.551310	0.525000	0.380596
	O297	O	0.401618	0.586766	0.674438
	H298	H	0.395523	0.574846	0.660680
	H299	H	0.398003	0.578028	0.669587
	O300	O	-0.328920	0.704804	0.475370
	H301	H	-0.327722	0.708713	0.472843
	H302	H	-0.323157	0.696601	0.469514
	O303	O	0.311055	0.273445	0.517715
	H304	H	0.307239	0.271701	0.519642
	H305	H	0.308830	0.256331	0.517038
	O306	O	0.637287	0.585981	0.429427
	H307	H	0.627213	0.574142	0.425593
	H308	H	0.629901	0.574272	0.422946
	O309	O	0.479095	0.450370	0.424628
	H310	H	0.483850	0.443005	0.413906
	H311	H	0.499659	0.461481	0.427133
	O312	O	0.681458	0.696816	0.696289
	H313	H	0.679780	0.722870	0.720029
	H314	H	0.689693	0.692081	0.667055
	O315	O	0.832130	1.185553	0.786021
	H316	H	0.824712	1.142309	0.779937
	H317	H	0.820990	1.200616	0.759847
	O318	O	0.378900	0.396226	0.472516
	H319	H	0.384181	0.392220	0.461978
	H320	H	0.366529	0.389467	0.474402
	O321	O	-0.051099	1.073803	1.023800
	H322	H	-0.053244	1.073719	1.026612
	H323	H	-0.058567	1.074672	1.012350
	O324	O	1.034777	1.038536	0.133266
	H325	H	1.045177	1.042072	0.135002
	H326	H	1.043087	1.028694	0.122853
	O327	O	-0.178452	-0.223301	1.198544
	H328	H	-0.210644	-0.254197	1.220420
	H329	H	-0.184378	-0.229655	1.160235
	O330	O	0.823231	1.021622	0.772560
	H331	H	0.824382	1.002651	0.768549
	H332	H	0.820756	1.009445	0.773235
	O333	O	0.245168	0.957578	0.776170
	H334	H	0.257124	0.962098	0.753079
	H335	H	0.240466	0.941853	0.772801
	O336	O	0.550140	0.352646	0.470552
	H337	H	0.536879	0.362146	0.456361
	H338	H	0.552846	0.353499	0.462000
	O339	O	1.162391	0.032615	1.184402
	H340	H	1.160480	0.039853	1.191254
	H341	H	1.162190	0.018315	1.171193
	O342	O	0.054432	0.204289	0.204942
	H343	H	0.070013	0.210819	0.211234
	H344	H	0.060182	0.211079	0.209592
	O345	O	-0.122270	1.108848	1.065262
	H346	H	-0.112627	1.083254	1.048389
	H347	H	-0.112180	1.097910	1.060942
	O348	O	0.329075	0.574092	0.537746
	H349	H	0.328202	0.556923	0.543917
	H350	H	0.334172	0.579081	0.542678
	O351	O	0.266903	0.755932	0.754106
	H352	H	0.261468	0.733298	0.746067
	H353	H	0.278639	0.774664	0.760629
	O354	O	-0.075481	-0.214561	0.871491
	H355	H	-0.072303	-0.210863	0.874791
	H356	H	-0.052326	-0.211078	0.870870
	O357	O	0.650112	0.275855	0.509871
	H358	H	0.657899	0.265164	0.496439
	H359	H	0.629367	0.282410	0.488014
	O360	O	0.629174	0.276969	0.410795
	H361	H	0.627026	0.280435	0.407338
	H362	H	0.625547	0.275964	0.399049
	O363	O	-0.000700	-0.022713	-0.238254
	H364	H	-0.008110	-0.008628	-0.240200
	H365	H	0.008969	-0.023426	-0.231577
	O366	O	0.555119	0.674097	0.648243
	H367	H	0.567768	0.695548	0.661442
	H368	H	0.559453	0.675872	0.643730
	O369	O	1.050326	-0.129845	0.022974
	H370	H	1.046740	-0.114939	0.019333
	H371	H	1.064493	-0.128306	0.045761
	O372	O	0.843437	0.975512	0.203687
	H373	H	0.829441	0.966707	0.198405
	H374	H	0.826184	0.950603	0.214360
	O375	O	1.056285	-0.052523	0.002572
	H376	H	1.067327	-0.063059	0.001076
	H377	H	1.044939	-0.053263	0.003158
	O378	O	-0.506923	0.278673	0.701977
	H379	H	-0.499110	0.273845	0.710629
	H380	H	-0.493648	0.271934	0.711959
	O381	O	0.062392	0.867061	0.993969
	H382	H	0.057533	0.865595	0.991742
	H383	H	0.072638	0.863454	1.005458
	O384	O	0.864092	0.206400	0.986659
	H385	H	0.856241	0.209726	0.989611
	H386	H	0.842194	0.218805	0.964039
	O387	O	0.820521	1.013370	-0.082980
	H388	H	0.822399	1.020135	-0.085481
	H389	H	0.809544	1.021531	-0.097369
	O390	O	0.736104	0.403830	0.560506
	H391	H	0.724112	0.412897	0.572687
	H392	H	0.727721	0.391186	0.539330
	O393	O	0.425563	0.448043	0.456543
	H394	H	0.420801	0.443317	0.463357
	H395	H	0.419461	0.439718	0.458528
	O396	O	0.245924	1.201917	1.000544
	H397	H	0.228571	1.196586	0.998792
	H398	H	0.260735	1.217160	0.997831
	O399	O	0.001533	-0.233057	1.210525
	H400	H	-0.029560	-0.239162	1.222188
	H401	H	-0.008020	-0.241008	1.228747
	O402	O	0.774292	0.245041	0.278197
	H403	H	0.780895	0.249912	0.281376
	H404	H	0.804307	0.225277	0.264140
	O405	O	0.814221	-0.228067	1.027139
	H406	H	0.816643	-0.232910	1.008274
	H407	H	0.814571	-0.240629	1.022789
	O408	O	0.142614	0.148832	-0.062265
	H409	H	0.132316	0.154567	-0.082470
	H410	H	0.116648	0.145862	-0.058431
	O411	O	0.597354	0.591023	0.574702
	H412	H	0.603862	0.594485	0.576677
	H413	H	0.603889	0.594126	0.570391
	O414	O	0.736096	0.520396	0.709413
	H415	H	0.766198	0.522707	0.736677
	H416	H	0.722548	0.546640	0.702297
	O417	O	-0.342178	0.475922	0.469579
	H418	H	-0.350229	0.464565	0.454868
	H419	H	-0.343450	0.473439	0.464276
	O420	O	0.248190	0.901312	0.992868
	H421	H	0.258851	0.895358	0.979733
	H422	H	0.250703	0.909702	1.000239
	O423	O	0.251585	0.070097	0.908648
	H424	H	0.246291	0.068154	0.902433
	H425	H	0.238388	0.074064	0.911393
	O426	O	0.481376	0.703904	0.529653
	H427	H	0.462781	0.707783	0.528169
	H428	H	0.477668	0.701834	0.528420
	O429	O	1.027277	0.909144	1.071153
	H430	H	1.022278	0.902685	1.072860
	H431	H	1.020995	0.914344	1.080771
	O432	O	0.345554	0.315595	0.311129
	H433	H	0.336750	0.311169	0.295141
	H434	H	0.345789	0.330307	0.316000
	O435	O	-0.280363	0.676104	0.297879
	H436	H	-0.283107	0.645065	0.319842
	H437	H	-0.312732	0.670850	0.315529
	O438	O	-0.374160	0.445692	-0.475391
	H439	H	-0.375117	0.435926	-0.477391
	H440	H	-0.368779	0.435340	-0.482888
	O441	O	0.227185	-0.112626	0.174731
	H442	H	0.241297	-0.107971	0.169099
	H443	H	0.208859	-0.108305	0.180186
	O444	O	0.339501	0.681432	0.291704
	H445	H	0.343186	0.679815	0.322101
	H446	H	0.330523	0.671785	0.285127
	O447	O	0.107848	1.081317	0.855063
	H448	H	0.109717	1.084760	0.868737
	H449	H	0.112593	1.095576	0.846407
	O450	O	-0.005055	1.209143	0.765328
	H451	H	-0.012415	1.242359	0.731370
	H452	H	-0.026047	1.192866	0.772657
	O453	O	-0.001570	-0.064607	1.208955
	H454	H	-0.022383	-0.070451	1.217412
	H455	H	0.003914	-0.068240	1.209989
	O456	O	-0.067440	-0.077197	0.900240
	H457	H	-0.060098	-0.085164	0.898618
	H458	H	-0.064952	-0.070931	0.915561
	O459	O	0.744411	0.468578	0.406406
	H460	H	0.742262	0.465172	0.386796
	H461	H	0.753479	0.463471	0.424276
	O462	O	0.531443	0.445960	0.649332
	H463	H	0.538694	0.451091	0.652963
	H464	H	0.519427	0.445959	0.647022
	O465	O	1.246420	-0.225801	-0.047012
	H466	H	1.246587	-0.213566	-0.030352
	H467	H	1.256931	-0.241337	-0.053789
	O468	O	0.312558	0.460871	0.704625
	H469	H	0.320059	0.430481	0.703993
	H470	H	0.294685	0.451683	0.727729
	O471	O	0.589768	0.277710	0.382473
	H472	H	0.610443	0.281570	0.373922
	H473	H	0.598940	0.263059	0.369462
	O474	O	0.320515	0.705318	0.459517
	H475	H	0.320102	0.706103	0.468354
	H476	H	0.305122	0.715662	0.463524
	O477	O	0.243011	0.196640	1.192535
	H478	H	0.219924	0.175562	1.187883
	H479	H	0.253610	0.192349	1.172637
	O480	O	0.738496	0.388582	0.282103
	H481	H	0.748331	0.380946	0.273972
	H482	H	0.726899	0.380348	0.265347
	O483	O	0.473473	0.444967	0.303341
	H484	H	0.460815	0.455949	0.300590
	H485	H	0.468852	0.431262	0.303472
	O486	O	0.606715	0.533449	0.645358
	H487	H	0.602596	0.533723	0.633142
	H488	H	0.609420	0.544992	0.647547
	O489	O	0.926887	0.974614	-0.039972
	H490	H	0.931838	0.975402	-0.030313
	H491	H	0.926390	0.959135	-0.033501
