data_Molecule from HDF5

_cell_length_a		16.371770
_cell_length_b		16.370429
_cell_length_c		16.381277
_cell_angle_alpha	90.041503
_cell_angle_beta	89.752963
_cell_angle_gamma	90.062607
_symmetry_space_group_name_H-M	'P 1'
_symmetry_Int_Tables_number		1

loop_
	_symmetry_equiv_pos_as_xyz
	x,y,z

loop_
	_atom_site_label
	_atom_site_type_symbol
	_atom_site_fract_x
	_atom_site_fract_y
	_atom_site_fract_z
	H0	H	0.396684	0.843788	0.719801
	H1	H	0.599655	0.167198	0.722122
	H2	H	0.599213	0.847255	0.284028
	H3	H	0.392552	0.167010	0.282860
	H4	H	0.716475	0.403302	0.838711
	H5	H	0.716256	0.607106	0.160591
	H6	H	0.279991	0.609735	0.839124
	H7	H	0.276068	0.403327	0.160255
	H8	H	0.838272	0.724336	0.398897
	H9	H	0.159413	0.723240	0.601074
	H10	H	0.838223	0.286512	0.604274
	H11	H	0.159376	0.288526	0.398214
	H12	H	0.837557	0.402231	0.719407
	H13	H	0.158756	0.609539	0.718717
	H14	H	0.836856	0.605984	0.283894
	H15	H	0.159536	0.404089	0.281700
	H16	H	0.395416	0.726016	0.840324
	H17	H	0.597081	0.721564	0.162634
	H18	H	0.600934	0.286731	0.840311
	H19	H	0.393157	0.288199	0.161980
	H20	H	0.715674	0.846626	0.400301
	H21	H	0.718303	0.166227	0.607861
	H22	H	0.279471	0.844731	0.605346
	H23	H	0.281588	0.168404	0.404434
	H24	H	0.891932	0.344592	0.220754
	H25	H	0.099425	0.665803	0.217500
	H26	H	0.102229	0.345419	0.778865
	H27	H	0.895372	0.666059	0.780300
	H28	H	0.219272	0.904610	0.342478
	H29	H	0.215802	0.110873	0.663433
	H30	H	0.777077	0.111712	0.343538
	H31	H	0.778009	0.901476	0.662515
	H32	H	0.338258	0.225984	0.900028
	H33	H	0.657397	0.228522	0.107101
	H34	H	0.337672	0.787230	0.106134
	H35	H	0.657808	0.787745	0.899172
	H36	H	0.336220	0.906829	0.219812
	H37	H	0.658333	0.112247	0.222366
	H38	H	0.337050	0.109981	0.784830
	H39	H	0.656654	0.901247	0.781926
	H40	H	0.895754	0.223962	0.341135
	H41	H	0.102861	0.229145	0.660321
	H42	H	0.101233	0.789831	0.340049
	H43	H	0.893969	0.784242	0.660401
	H44	H	0.218837	0.345575	0.894565
	H45	H	0.215747	0.666059	0.101414
	H46	H	0.777892	0.344263	0.101793
	H47	H	0.780716	0.666527	0.897707
	H48	H	0.412668	0.116499	0.587581
	H49	H	0.592167	0.892859	0.588721
	H50	H	0.586939	0.119635	0.417142
	H51	H	0.407024	0.891370	0.410355
	H52	H	0.581966	0.414263	0.113170
	H53	H	0.590169	0.591737	0.886858
	H54	H	0.412431	0.598342	0.112886
	H55	H	0.407566	0.414967	0.886391
	H56	H	0.115358	0.601370	0.404541
	H57	H	0.882684	0.596386	0.593567
	H58	H	0.114012	0.415944	0.593309
	H59	H	0.882193	0.415282	0.403610
	H60	H	0.111983	0.413983	0.584071
	H61	H	0.885030	0.596818	0.586843
	H62	H	0.112432	0.598477	0.412406
	H63	H	0.882946	0.408943	0.412968
	H64	H	0.400633	0.598990	0.116512
	H65	H	0.584731	0.601609	0.886924
	H66	H	0.593200	0.415415	0.116487
	H67	H	0.409122	0.417690	0.887729
	H68	H	0.590208	0.123112	0.412713
	H69	H	0.590393	0.889614	0.598915
	H70	H	0.394959	0.123557	0.593421
	H71	H	0.409534	0.893524	0.412370
	H72	H	0.911848	0.619729	0.097729
	H73	H	0.081115	0.394360	0.084700
	H74	H	0.084605	0.617562	0.910610
	H75	H	0.904334	0.391292	0.912701
	H76	H	0.088339	0.916606	0.615735
	H77	H	0.096382	0.095726	0.386148
	H78	H	0.900969	0.096895	0.618115
	H79	H	0.909800	0.916662	0.388331
	H80	H	0.611662	0.096416	0.913289
	H81	H	0.382711	0.106488	0.089370
	H82	H	0.611400	0.915167	0.091447
	H83	H	0.380738	0.912804	0.907517
	H84	H	0.613116	0.916773	0.095892
	H85	H	0.388945	0.089071	0.087867
	H86	H	0.610924	0.095102	0.914174
	H87	H	0.382570	0.912047	0.917282
	H88	H	0.911560	0.090249	0.612887
	H89	H	0.087481	0.091213	0.390966
	H90	H	0.085276	0.915534	0.615322
	H91	H	0.906835	0.914372	0.387237
	H92	H	0.092964	0.621019	0.910869
	H93	H	0.093226	0.390243	0.085589
	H94	H	0.909958	0.615113	0.084801
	H95	H	0.905945	0.388986	0.903565
	H96	H	0.410225	0.123551	0.606369
	H97	H	0.582187	0.894544	0.593541
	H98	H	0.584347	0.121464	0.411062
	H99	H	0.406252	0.893107	0.413997
	H100	H	0.587470	0.424225	0.111519
	H101	H	0.594957	0.600996	0.883004
	H102	H	0.405538	0.588867	0.111965
	H103	H	0.410735	0.414478	0.887134
	H104	H	0.112401	0.593177	0.405227
	H105	H	0.886013	0.591270	0.590655
	H106	H	0.109756	0.422501	0.587643
	H107	H	0.886414	0.419797	0.412714
	H108	H	0.899884	0.621560	0.091534
	H109	H	0.085427	0.390493	0.096048
	H110	H	0.088261	0.621029	0.903329
	H111	H	0.913018	0.392911	0.908604
	H112	H	0.087968	0.913143	0.616147
	H113	H	0.086702	0.101667	0.386785
	H114	H	0.912784	0.103237	0.616763
	H115	H	0.906084	0.918097	0.389107
	H116	H	0.611707	0.095292	0.912378
	H117	H	0.381337	0.094650	0.103835
	H118	H	0.614141	0.912124	0.094805
	H119	H	0.384359	0.920688	0.913219
	C120	C	0.375628	0.014471	0.625520
	C121	C	0.619299	0.998232	0.625190
	C122	C	0.618832	0.015912	0.381749
	C123	C	0.376799	0.998903	0.382232
	C124	C	0.619051	0.385584	0.008333
	C125	C	0.619869	0.627912	0.992109
	C126	C	0.376169	0.627112	0.008256
	C127	C	0.376577	0.384651	0.992631
	C128	C	0.006990	0.627451	0.377884
	C129	C	0.990299	0.626523	0.621124
	C130	C	0.006703	0.384952	0.620978
	C131	C	0.989722	0.384109	0.378352
	C132	C	0.875694	0.512932	0.122075
	C133	C	0.117941	0.497390	0.119942
	C134	C	0.119877	0.513989	0.877011
	C135	C	0.877550	0.497227	0.878206
	C136	C	0.119063	0.884856	0.510027
	C137	C	0.120358	0.128112	0.493773
	C138	C	0.877023	0.127859	0.510368
	C139	C	0.875937	0.884328	0.493362
	C140	C	0.505989	0.126976	0.881999
	C141	C	0.489842	0.129268	0.124947
	C142	C	0.506263	0.884923	0.124372
	C143	C	0.488505	0.884403	0.881281
	C144	C	0.376692	0.892713	0.681835
	C145	C	0.619400	0.118920	0.683426
	C146	C	0.619045	0.895123	0.323325
	C147	C	0.375119	0.119456	0.323596
	C148	C	0.677071	0.384753	0.886947
	C149	C	0.677039	0.626853	0.112906
	C150	C	0.318998	0.628190	0.887535
	C151	C	0.316010	0.384052	0.112700
	C152	C	0.886090	0.685336	0.378676
	C153	C	0.111122	0.684603	0.620552
	C154	C	0.886078	0.326099	0.622407
	C155	C	0.111089	0.326937	0.378414
	C156	C	0.885852	0.383585	0.679978
	C157	C	0.111035	0.627533	0.678842
	C158	C	0.885390	0.626293	0.322039
	C159	C	0.111187	0.384558	0.320697
	C160	C	0.376385	0.686380	0.888187
	C161	C	0.617913	0.683787	0.113944
	C162	C	0.619724	0.326568	0.887926
	C163	C	0.374270	0.326727	0.113484
	C164	C	0.676443	0.894855	0.381546
	C165	C	0.678211	0.118454	0.626273
	C166	C	0.317968	0.893215	0.625171
	C167	C	0.319641	0.120090	0.383901
	C168	C	0.874064	0.392589	0.180919
	C169	C	0.118885	0.617756	0.178597
	C170	C	0.121470	0.393470	0.817888
	C171	C	0.876844	0.618214	0.819958
	C172	C	0.178970	0.885559	0.389738
	C173	C	0.177527	0.129681	0.614598
	C174	C	0.817553	0.129359	0.390764
	C175	C	0.817533	0.882861	0.614410
	C176	C	0.385789	0.186289	0.881186
	C177	C	0.609575	0.189224	0.126295
	C178	C	0.385508	0.826838	0.124997
	C179	C	0.609425	0.826264	0.879871
	C180	C	0.384794	0.886303	0.181513
	C181	C	0.610101	0.130958	0.183304
	C182	C	0.385634	0.128627	0.823579
	C183	C	0.608928	0.882867	0.821641
	C184	C	0.876459	0.185704	0.389737
	C185	C	0.120861	0.188370	0.613312
	C186	C	0.120545	0.828291	0.388617
	C187	C	0.874779	0.824031	0.613041
	C188	C	0.179255	0.393639	0.875543
	C189	C	0.176489	0.617889	0.120514
	C190	C	0.817097	0.392286	0.121933
	C191	C	0.819566	0.618419	0.878234
	C192	C	0.399081	0.099171	0.602557
	C193	C	0.595179	0.914085	0.600967
	C194	C	0.594299	0.099676	0.406361
	C195	C	0.400779	0.914503	0.405436
	C196	C	0.594694	0.410695	0.091979
	C197	C	0.596654	0.604937	0.907441
	C198	C	0.399544	0.602578	0.092255
	C199	C	0.401853	0.408536	0.908976
	C200	C	0.091546	0.604331	0.400580
	C201	C	0.906274	0.601993	0.597295
	C202	C	0.090137	0.410215	0.595645
	C203	C	0.905571	0.407668	0.402592
	C204	C	0.900108	0.596890	0.098133
	C205	C	0.093557	0.413471	0.095664
	C206	C	0.095540	0.597964	0.901334
	C207	C	0.900848	0.412993	0.901496
	C208	C	0.094215	0.908430	0.593978
	C209	C	0.096877	0.103250	0.409793
	C210	C	0.901417	0.103727	0.594258
	C211	C	0.900384	0.909181	0.409766
	C212	C	0.589707	0.102594	0.906294
	C213	C	0.406176	0.104110	0.100736
	C214	C	0.590751	0.908087	0.100888
	C215	C	0.404562	0.908261	0.905725
	Zn216	Zn	0.497081	0.006009	0.753783
	Zn217	Zn	0.497910	0.007531	0.252839
	Zn218	Zn	0.748266	0.505695	-0.000691
	Zn219	Zn	0.247498	0.505809	-0.000802
	Zn220	Zn	-0.001505	0.755648	0.500232
	Zn221	Zn	-0.001445	0.256233	0.500715
	Zn222	Zn	-0.001615	0.505559	0.749113
	Zn223	Zn	-0.002188	0.504915	0.250099
	Zn224	Zn	0.497307	0.756285	0.001686
	Zn225	Zn	0.498326	0.256482	0.001930
	Zn226	Zn	0.748164	0.006888	0.502594
	Zn227	Zn	0.247853	0.006512	0.503720
	N228	N	0.411294	0.969335	0.682559
	N229	N	0.583547	0.042894	0.682801
	N230	N	0.584010	0.971387	0.323274
	N231	N	0.410072	0.043016	0.322548
	N232	N	0.676888	0.420523	0.962904
	N233	N	0.678571	0.593148	0.036049
	N234	N	0.318553	0.592179	0.963377
	N235	N	0.317162	0.419137	0.036603
	N236	N	0.962653	0.686172	0.412753
	N237	N	0.034905	0.684014	0.585364
	N238	N	0.961990	0.327198	0.586095
	N239	N	0.034645	0.326328	0.413515
	N240	N	0.961760	0.419489	0.679239
	N241	N	0.034902	0.592257	0.679338
	N242	N	0.961652	0.591329	0.321274
	N243	N	0.034742	0.419098	0.320414
	N244	N	0.411280	0.685767	0.964250
	N245	N	0.583183	0.684482	0.037653
	N246	N	0.584317	0.327034	0.964280
	N247	N	0.411438	0.327163	0.037996
	N248	N	0.676341	0.970946	0.417117
	N249	N	0.678344	0.042318	0.590934
	N250	N	0.317004	0.969982	0.591050
	N251	N	0.320640	0.044212	0.419744
	N252	N	0.909856	0.468626	0.180987
	N253	N	0.083225	0.541718	0.178442
	N254	N	0.085230	0.469205	0.818766
	N255	N	0.912135	0.542181	0.819872
	N256	N	0.178141	0.919869	0.466288
	N257	N	0.177177	0.092762	0.539179
	N258	N	0.817741	0.094217	0.466885
	N259	N	0.817896	0.919488	0.538960
	N260	N	0.461674	0.185433	0.916798
	N261	N	0.533605	0.188426	0.090798
	N262	N	0.461886	0.825780	0.090171
	N263	N	0.533651	0.827195	0.916223
	N264	N	0.461086	0.921451	0.181650
	N265	N	0.534468	0.094678	0.182803
	N266	N	0.461207	0.092349	0.824199
	N267	N	0.532883	0.918307	0.822385
	N268	N	0.912958	0.184595	0.465083
	N269	N	0.085841	0.187338	0.537237
	N270	N	0.084046	0.827725	0.464311
	N271	N	0.910400	0.824761	0.536913
	N272	N	0.178307	0.469447	0.911588
	N273	N	0.175812	0.541926	0.084755
	N274	N	0.818041	0.468144	0.086002
	N275	N	0.819666	0.542313	0.913745
	O276	O	0.632840	0.353392	0.436560
	H277	H	0.630917	0.381360	0.446568
	H278	H	0.606153	0.356017	0.435428
	O279	O	0.545531	0.655411	0.582804
	H280	H	0.542085	0.657842	0.562928
	H281	H	0.553219	0.665826	0.586071
	O282	O	0.304192	0.513748	0.407831
	H283	H	0.303932	0.550303	0.412968
	H284	H	0.294481	0.510213	0.397045
	O285	O	1.116304	0.070438	-0.161093
	H286	H	1.137284	0.069573	-0.171617
	H287	H	1.110561	0.053796	-0.149571
	O288	O	0.176480	0.045906	1.071795
	H289	H	0.158181	0.039884	1.072032
	H290	H	0.188315	0.045944	1.065454
	O291	O	0.431475	0.501290	0.312350
	H292	H	0.420311	0.504860	0.325217
	H293	H	0.427347	0.504170	0.301136
	O294	O	0.366237	0.537094	0.439856
	H295	H	0.358458	0.550621	0.459184
	H296	H	0.376422	0.535011	0.442297
	O297	O	1.004411	1.164715	1.192707
	H298	H	1.003023	1.179582	1.205687
	H299	H	1.011660	1.158836	1.191253
	O300	O	0.177420	-0.191129	-0.083649
	H301	H	0.163243	-0.193186	-0.070547
	H302	H	0.160490	-0.203655	-0.085142
	O303	O	0.402779	0.454828	0.458282
	H304	H	0.399532	0.434751	0.465187
	H305	H	0.394558	0.460295	0.456186
	O306	O	0.954890	-0.056587	0.105149
	H307	H	0.942132	-0.053807	0.112653
	H308	H	0.957134	-0.039490	0.102310
	O309	O	0.558566	0.656503	0.499045
	H310	H	0.556588	0.661272	0.483039
	H311	H	0.572834	0.654362	0.487409
	O312	O	1.195972	0.889348	-0.187679
	H313	H	1.182009	0.866103	-0.176728
	H314	H	1.200003	0.886777	-0.196815
	O315	O	0.658290	0.532154	0.628193
	H316	H	0.657254	0.517475	0.629748
	H317	H	0.653252	0.551946	0.639691
	O318	O	0.567936	0.320221	0.374220
	H319	H	0.565674	0.322814	0.368231
	H320	H	0.572313	0.317136	0.378641
	O321	O	0.934406	-0.044477	0.803100
	H322	H	0.941506	-0.051378	0.795027
	H323	H	0.932593	-0.058070	0.788571
	O324	O	-0.056775	-0.196730	1.188083
	H325	H	-0.051224	-0.206426	1.212018
	H326	H	-0.052533	-0.178351	1.180795
	O327	O	0.514503	0.670290	0.384581
	H328	H	0.517837	0.673838	0.383193
	H329	H	0.508546	0.666554	0.386877
	O330	O	0.551312	0.317328	0.388688
	H331	H	0.559028	0.319171	0.403543
	H332	H	0.568922	0.316226	0.369380
	O333	O	0.836844	1.038021	0.997211
	H334	H	0.834939	1.041353	0.997703
	H335	H	0.829214	1.060238	0.976188
	O336	O	0.369932	0.700147	0.303961
	H337	H	0.348229	0.709309	0.294867
	H338	H	0.379375	0.702684	0.311041
	O339	O	0.900267	0.078964	0.808284
	H340	H	0.898369	0.063133	0.799893
	H341	H	0.892213	0.079289	0.812146
	O342	O	-0.034431	1.014247	0.927875
	H343	H	-0.026089	1.013470	0.927594
	H344	H	-0.032792	1.022030	0.931802
	O345	O	0.034965	1.188547	1.031859
	H346	H	0.061687	1.192551	1.046383
	H347	H	0.033504	1.181404	1.014437
	O348	O	0.182124	-0.113873	0.071783
	H349	H	0.165869	-0.118292	0.075636
	H350	H	0.186395	-0.109254	0.043776
	O351	O	-0.086546	-0.142708	-0.097868
	H352	H	-0.071893	-0.132461	-0.097899
	H353	H	-0.112264	-0.135001	-0.088324
	O354	O	1.611107	1.531972	0.618828
	H355	H	1.604440	1.531323	0.628385
	H356	H	1.615412	1.541249	0.611743
	O357	O	-0.178883	0.883032	-0.060222
	H358	H	-0.181160	0.890967	-0.044022
	H359	H	-0.188237	0.867234	-0.051846
	O360	O	0.616092	0.313329	0.405223
	H361	H	0.626157	0.296461	0.396823
	H362	H	0.633234	0.316931	0.391845
	O363	O	0.651686	0.558494	0.334652
	H364	H	0.659068	0.556567	0.328778
	H365	H	0.627601	0.548865	0.348769
	O366	O	0.601010	0.642884	0.506903
	H367	H	0.613332	0.630120	0.508448
	H368	H	0.595541	0.645371	0.534105
	O369	O	0.359978	0.614621	0.541508
	H370	H	0.363248	0.613323	0.535365
	H371	H	0.358623	0.608842	0.547573
	O372	O	0.592181	0.555538	0.601770
	H373	H	0.600120	0.563494	0.615844
	H374	H	0.595349	0.566627	0.586140
	O375	O	0.405367	0.689597	0.505946
	H376	H	0.400599	0.678065	0.528153
	H377	H	0.406378	0.688869	0.515133
	O378	O	0.797972	-0.019201	0.210720
	H379	H	0.789729	-0.041499	0.221127
	H380	H	0.790275	-0.026736	0.220829
	O381	O	0.477147	0.446145	0.692627
	H382	H	0.475377	0.449178	0.702094
	H383	H	0.479099	0.451709	0.689306
	O384	O	-0.066500	1.065688	0.903140
	H385	H	-0.058735	1.072857	0.913590
	H386	H	-0.052659	1.048465	0.925112
	O387	O	1.018442	1.131951	0.048934
	H388	H	1.017078	1.123851	0.041390
	H389	H	1.023950	1.136207	0.048217
	O390	O	0.452638	0.326873	0.597788
	H391	H	0.465995	0.311803	0.594849
	H392	H	0.461921	0.329377	0.583506
	O393	O	0.881798	0.124460	1.045225
	H394	H	0.873868	0.122166	1.042753
	H395	H	0.885916	0.126868	1.041312
	O396	O	-0.369212	0.543923	0.554468
	H397	H	-0.378073	0.537907	0.561410
	H398	H	-0.378145	0.531626	0.557985
	O399	O	0.368469	0.379501	0.513207
	H400	H	0.367449	0.370511	0.498747
	H401	H	0.369865	0.369187	0.517721
	O402	O	1.096896	0.106912	0.985352
	H403	H	1.095823	0.104415	0.984596
	H404	H	1.087188	0.100464	0.981806
	O405	O	-0.034766	-0.098613	-0.085892
	H406	H	-0.047076	-0.075438	-0.075225
	H407	H	-0.016446	-0.099984	-0.078449
	O408	O	1.050555	0.947771	1.110939
	H409	H	1.047053	0.955396	1.118287
	H410	H	1.044375	0.965818	1.097452
	O411	O	1.184011	1.148629	0.069583
	H412	H	1.201786	1.169175	0.063944
	H413	H	1.188252	1.134470	0.071108
	O414	O	0.181247	0.113542	1.134273
	H415	H	0.194168	0.102395	1.140147
	H416	H	0.168484	0.120140	1.113749
	O417	O	0.692613	0.337410	0.718338
	H418	H	0.693974	0.325668	0.716901
	H419	H	0.671574	0.356406	0.712217
	O420	O	-0.023215	1.032513	-0.073576
	H421	H	-0.029829	1.047898	-0.078621
	H422	H	-0.017372	1.041650	-0.070821
	O423	O	0.958340	-0.176874	-0.028424
	H424	H	0.944356	-0.172316	-0.026555
	H425	H	0.946068	-0.171567	-0.028071
	O426	O	-0.183024	-0.125876	1.142219
	H427	H	-0.167723	-0.135154	1.155469
	H428	H	-0.187223	-0.138718	1.157891
	O429	O	0.301766	0.428389	0.669215
	H430	H	0.304115	0.415623	0.659420
	H431	H	0.298207	0.407147	0.677299
