data_Molecule from HDF5

_cell_length_a		16.234690
_cell_length_b		16.270267
_cell_length_c		16.319847
_cell_angle_alpha	90.019462
_cell_angle_beta	89.960164
_cell_angle_gamma	89.955883
_symmetry_space_group_name_H-M	'P 1'
_symmetry_Int_Tables_number		1

loop_
	_symmetry_equiv_pos_as_xyz
	x,y,z

loop_
	_atom_site_label
	_atom_site_type_symbol
	_atom_site_fract_x
	_atom_site_fract_y
	_atom_site_fract_z
	H0	H	0.401964	0.834151	0.711833
	H1	H	0.601202	0.161513	0.713879
	H2	H	0.601718	0.834535	0.281881
	H3	H	0.402986	0.160696	0.283712
	H4	H	0.714163	0.400199	0.834351
	H5	H	0.714112	0.597590	0.161426
	H6	H	0.285063	0.595482	0.834393
	H7	H	0.284566	0.399523	0.161022
	H8	H	0.837509	0.712620	0.399058
	H9	H	0.164977	0.710854	0.596296
	H10	H	0.837202	0.282244	0.597619
	H11	H	0.164902	0.283931	0.400289
	H12	H	0.836429	0.398907	0.712608
	H13	H	0.163687	0.596939	0.713335
	H14	H	0.836784	0.596661	0.284330
	H15	H	0.164452	0.397945	0.282972
	H16	H	0.400223	0.713532	0.834420
	H17	H	0.598086	0.713614	0.160682
	H18	H	0.599221	0.282343	0.834755
	H19	H	0.400493	0.283504	0.160898
	H20	H	0.715890	0.834070	0.399544
	H21	H	0.716201	0.161572	0.596796
	H22	H	0.286858	0.834559	0.595229
	H23	H	0.287263	0.161745	0.398622
	H24	H	0.899031	0.334721	0.214268
	H25	H	0.098448	0.660797	0.212949
	H26	H	0.099371	0.334454	0.782459
	H27	H	0.899418	0.661425	0.781539
	H28	H	0.215077	0.900144	0.333537
	H29	H	0.214706	0.095546	0.661040
	H30	H	0.786512	0.096341	0.334651
	H31	H	0.785103	0.897944	0.660686
	H32	H	0.334954	0.210916	0.901307
	H33	H	0.664545	0.211051	0.095372
	H34	H	0.335953	0.785491	0.096585
	H35	H	0.663506	0.782607	0.898367
	H36	H	0.337165	0.899780	0.212370
	H37	H	0.664192	0.097411	0.212531
	H38	H	0.336376	0.098216	0.782387
	H39	H	0.664664	0.897953	0.782861
	H40	H	0.902918	0.212207	0.335170
	H41	H	0.100735	0.212784	0.660841
	H42	H	0.101104	0.782364	0.334913
	H43	H	0.901798	0.781778	0.660385
	H44	H	0.214457	0.333433	0.899524
	H45	H	0.212949	0.661550	0.096114
	H46	H	0.786058	0.333699	0.095165
	H47	H	0.785628	0.662004	0.899633
	H48	H	0.409923	0.113640	0.590202
	H49	H	0.599016	0.882286	0.583202
	H50	H	0.592959	0.113682	0.406623
	H51	H	0.408686	0.878320	0.396058
	H52	H	0.593540	0.396932	0.116196
	H53	H	0.590152	0.588548	0.883011
	H54	H	0.408210	0.588310	0.112354
	H55	H	0.409222	0.412465	0.884481
	H56	H	0.119599	0.591881	0.399038
	H57	H	0.886903	0.584678	0.584052
	H58	H	0.115331	0.405491	0.585955
	H59	H	0.880790	0.401245	0.399611
	H60	H	0.116479	0.410588	0.593688
	H61	H	0.881496	0.588728	0.599478
	H62	H	0.117858	0.592718	0.409474
	H63	H	0.885291	0.401567	0.413641
	H64	H	0.408312	0.596680	0.114765
	H65	H	0.591033	0.594407	0.881395
	H66	H	0.599414	0.407279	0.115526
	H67	H	0.413166	0.397427	0.880778
	H68	H	0.595440	0.115251	0.404479
	H69	H	0.595151	0.878837	0.599407
	H70	H	0.407717	0.114436	0.590196
	H71	H	0.414925	0.884129	0.409228
	H72	H	0.899925	0.614346	0.083381
	H73	H	0.094175	0.383246	0.081849
	H74	H	0.098023	0.615185	0.906551
	H75	H	0.898140	0.377126	0.900931
	H76	H	0.098501	0.896791	0.617558
	H77	H	0.095838	0.092648	0.381135
	H78	H	0.914803	0.088840	0.612197
	H79	H	0.909736	0.903334	0.381851
	H80	H	0.614349	0.086973	0.907617
	H81	H	0.384719	0.094163	0.083276
	H82	H	0.614860	0.911852	0.087569
	H83	H	0.383029	0.904531	0.906341
	H84	H	0.618991	0.905269	0.095680
	H85	H	0.384828	0.082145	0.094131
	H86	H	0.617762	0.090463	0.900792
	H87	H	0.384054	0.907782	0.904382
	H88	H	0.906537	0.097166	0.616582
	H89	H	0.095364	0.090290	0.380919
	H90	H	0.099998	0.913187	0.613090
	H91	H	0.907052	0.904957	0.381299
	H92	H	0.089930	0.614437	0.899620
	H93	H	0.100399	0.376531	0.096986
	H94	H	0.902642	0.618776	0.102024
	H95	H	0.916588	0.381983	0.898372
	H96	H	0.408510	0.115041	0.592492
	H97	H	0.583005	0.885357	0.589130
	H98	H	0.592404	0.114193	0.402955
	H99	H	0.400515	0.880032	0.409133
	H100	H	0.588122	0.406759	0.112205
	H101	H	0.596022	0.590179	0.880968
	H102	H	0.401197	0.591274	0.115241
	H103	H	0.398311	0.403018	0.879312
	H104	H	0.115318	0.583905	0.404543
	H105	H	0.881813	0.599878	0.587327
	H106	H	0.119377	0.401010	0.593681
	H107	H	0.887236	0.412916	0.405560
	H108	H	0.917650	0.610878	0.091438
	H109	H	0.083407	0.381378	0.096046
	H110	H	0.088063	0.612170	0.910323
	H111	H	0.908185	0.386226	0.915717
	H112	H	0.085516	0.904686	0.611090
	H113	H	0.093691	0.092117	0.381279
	H114	H	0.903314	0.085663	0.614242
	H115	H	0.909755	0.906315	0.382725
	H116	H	0.617309	0.094630	0.907668
	H117	H	0.380056	0.096451	0.098978
	H118	H	0.617586	0.900406	0.085566
	H119	H	0.382951	0.904687	0.902789
	C120	C	0.379726	0.006247	0.619266
	C121	C	0.622473	0.989770	0.620058
	C122	C	0.622671	0.006171	0.376041
	C123	C	0.379525	0.988924	0.375961
	C124	C	0.622203	0.375465	0.006726
	C125	C	0.621336	0.619822	0.989517
	C126	C	0.377581	0.620369	0.006097
	C127	C	0.378433	0.376365	0.989526
	C128	C	0.009441	0.618682	0.376364
	C129	C	0.991674	0.619482	0.619293
	C130	C	0.008945	0.376315	0.619763
	C131	C	0.992548	0.376409	0.376935
	C132	C	0.878167	0.506183	0.120038
	C133	C	0.121098	0.488722	0.119866
	C134	C	0.121156	0.505864	0.876683
	C135	C	0.878456	0.490026	0.876307
	C136	C	0.123226	0.876376	0.505906
	C137	C	0.123332	0.119928	0.489210
	C138	C	0.879496	0.119327	0.506470
	C139	C	0.879571	0.875682	0.489431
	C140	C	0.508079	0.119497	0.876607
	C141	C	0.492061	0.119616	0.119839
	C142	C	0.508875	0.877133	0.118840
	C143	C	0.491906	0.876725	0.875952
	C144	C	0.381710	0.883129	0.674153
	C145	C	0.621279	0.112484	0.675983
	C146	C	0.621380	0.883271	0.320291
	C147	C	0.382328	0.112149	0.321280
	C148	C	0.676826	0.378926	0.883340
	C149	C	0.676124	0.617235	0.112616
	C150	C	0.322386	0.616981	0.883243
	C151	C	0.322784	0.378985	0.112326
	C152	C	0.886179	0.674362	0.379336
	C153	C	0.115604	0.673750	0.616939
	C154	C	0.886046	0.320473	0.617852
	C155	C	0.115894	0.321493	0.379482
	C156	C	0.885379	0.378550	0.674550
	C157	C	0.114877	0.617245	0.675123
	C158	C	0.885751	0.616460	0.322253
	C159	C	0.115532	0.378188	0.321072
	C160	C	0.379974	0.675263	0.883310
	C161	C	0.618667	0.675131	0.112305
	C162	C	0.619543	0.320544	0.883492
	C163	C	0.380158	0.321124	0.112216
	C164	C	0.677952	0.882973	0.379035
	C165	C	0.678309	0.112696	0.617684
	C166	C	0.324216	0.883256	0.616390
	C167	C	0.324939	0.112634	0.378498
	C168	C	0.879846	0.383195	0.175353
	C169	C	0.118437	0.612049	0.174659
	C170	C	0.119247	0.383106	0.820851
	C171	C	0.880103	0.612743	0.820384
	C172	C	0.177912	0.879174	0.382745
	C173	C	0.177978	0.116791	0.612298
	C174	C	0.824347	0.116802	0.383556
	C175	C	0.823484	0.877632	0.611908
	C176	C	0.384255	0.173694	0.879984
	C177	C	0.615327	0.174207	0.116424
	C178	C	0.385319	0.822565	0.116671
	C179	C	0.615018	0.820740	0.878125
	C180	C	0.385980	0.879255	0.174567
	C181	C	0.615338	0.117147	0.174374
	C182	C	0.385031	0.117468	0.821021
	C183	C	0.615395	0.878245	0.820797
	C184	C	0.881874	0.174824	0.383894
	C185	C	0.120777	0.174730	0.612194
	C186	C	0.121074	0.820754	0.383252
	C187	C	0.881457	0.819946	0.611900
	C188	C	0.176749	0.382674	0.878788
	C189	C	0.175526	0.612306	0.116685
	C190	C	0.823590	0.382841	0.116335
	C191	C	0.822993	0.612978	0.878725
	C192	C	0.402032	0.091946	0.597320
	C193	C	0.599360	0.904256	0.597266
	C194	C	0.599990	0.092199	0.398167
	C195	C	0.401663	0.903090	0.397986
	C196	C	0.600169	0.397174	0.092341
	C197	C	0.599038	0.597595	0.903886
	C198	C	0.399523	0.598599	0.092029
	C199	C	0.400509	0.397946	0.903748
	C200	C	0.095482	0.596072	0.397909
	C201	C	0.905837	0.597592	0.596922
	C202	C	0.094758	0.398942	0.597593
	C203	C	0.906591	0.398692	0.399592
	C204	C	0.900343	0.592390	0.098581
	C205	C	0.099207	0.402588	0.098146
	C206	C	0.098618	0.591719	0.899007
	C207	C	0.901072	0.404030	0.898359
	C208	C	0.101156	0.898313	0.591616
	C209	C	0.101507	0.098145	0.403321
	C210	C	0.901954	0.097323	0.592248
	C211	C	0.902220	0.898132	0.403977
	C212	C	0.594245	0.097372	0.898949
	C213	C	0.405430	0.097396	0.098374
	C214	C	0.595078	0.899232	0.096279
	C215	C	0.405767	0.898977	0.897963
	Zn216	Zn	0.500670	-0.001981	0.748421
	Zn217	Zn	0.501229	-0.002350	0.247710
	Zn218	Zn	0.749965	0.498074	-0.001895
	Zn219	Zn	0.249413	0.497408	-0.001923
	Zn220	Zn	0.001624	0.747428	0.497407
	Zn221	Zn	0.001208	0.247876	0.498520
	Zn222	Zn	-0.000093	0.498073	0.747943
	Zn223	Zn	0.000211	0.497497	0.248269
	Zn224	Zn	0.499889	0.748881	-0.002344
	Zn225	Zn	0.499818	0.247689	-0.001890
	Zn226	Zn	0.750911	-0.002224	0.497719
	Zn227	Zn	0.251831	-0.001455	0.497245
	N228	N	0.415295	0.960645	0.676146
	N229	N	0.587296	0.035147	0.677422
	N230	N	0.587655	0.961014	0.318473
	N231	N	0.415775	0.034562	0.319777
	N232	N	0.678628	0.412202	0.960777
	N233	N	0.677862	0.583653	0.035269
	N234	N	0.320795	0.583634	0.960540
	N235	N	0.321651	0.412614	0.035144
	N236	N	0.964258	0.675878	0.412261
	N237	N	0.038144	0.675464	0.582931
	N238	N	0.963762	0.319247	0.584077
	N239	N	0.038418	0.320290	0.413614
	N240	N	0.962788	0.412674	0.675795
	N241	N	0.036982	0.584112	0.676729
	N242	N	0.963241	0.582645	0.320321
	N243	N	0.037744	0.411615	0.319424
	N244	N	0.413563	0.677431	0.960781
	N245	N	0.585414	0.676955	0.034756
	N246	N	0.586392	0.318223	0.961051
	N247	N	0.414040	0.319522	0.034873
	N248	N	0.678842	0.960450	0.412785
	N249	N	0.679161	0.035368	0.583433
	N250	N	0.322853	0.960739	0.582872
	N251	N	0.323033	0.034904	0.411855
	N252	N	0.913053	0.460880	0.177784
	N253	N	0.085116	0.534266	0.176540
	N254	N	0.085833	0.460891	0.819075
	N255	N	0.913634	0.534975	0.818665
	N256	N	0.179297	0.913145	0.459958
	N257	N	0.179732	0.083561	0.534824
	N258	N	0.822851	0.083130	0.460903
	N259	N	0.822241	0.911617	0.534744
	N260	N	0.461816	0.175161	0.913728
	N261	N	0.537377	0.175910	0.083362
	N262	N	0.462904	0.820983	0.082843
	N263	N	0.537242	0.819691	0.911754
	N264	N	0.463747	0.912634	0.175890
	N265	N	0.537504	0.083890	0.176398
	N266	N	0.463130	0.084531	0.818888
	N267	N	0.537821	0.912154	0.819201
	N268	N	0.915608	0.176342	0.461265
	N269	N	0.087685	0.176830	0.534682
	N270	N	0.087681	0.819027	0.460762
	N271	N	0.916018	0.819012	0.534919
	N272	N	0.177862	0.459989	0.912911
	N273	N	0.177132	0.534721	0.083236
	N274	N	0.822312	0.460430	0.082851
	N275	N	0.822035	0.535678	0.912719
	O276	O	0.957211	1.003806	-0.086930
	H277	H	0.938758	1.007754	-0.079408
	H278	H	0.953212	1.006025	-0.082235
	O279	O	0.427075	0.417272	0.529827
	H280	H	0.428426	0.430010	0.529647
	H281	H	0.426657	0.423303	0.538290
	O282	O	0.032298	-0.031948	-0.027666
	H283	H	0.033700	-0.041768	-0.027820
	H284	H	0.029615	-0.045691	-0.029117
	O285	O	0.530998	0.562568	0.457833
	H286	H	0.544071	0.562880	0.454269
	H287	H	0.533818	0.562883	0.459674
	O288	O	-0.006820	0.034781	0.033626
	H289	H	-0.005013	0.034950	0.033762
	H290	H	-0.007023	0.030257	0.034616
	O291	O	-0.006261	0.992344	-0.005524
	H292	H	0.000186	0.997687	-0.007102
	H293	H	-0.006560	0.990741	-0.009160
	O294	O	0.005569	0.951588	-0.125577
	H295	H	-0.004542	0.965673	-0.119426
	H296	H	0.009098	0.945905	-0.134008
	O297	O	0.543688	0.463412	0.510248
	H298	H	0.528638	0.449975	0.510675
	H299	H	0.556498	0.459273	0.505639
	O300	O	0.578161	0.409138	0.520420
	H301	H	0.573136	0.401748	0.532376
	H302	H	0.585779	0.401879	0.515955
	O303	O	0.956283	0.011231	0.992070
	H304	H	0.940276	0.017900	0.996385
	H305	H	0.960398	0.020858	0.994114
	O306	O	-0.022482	0.974637	0.978544
	H307	H	-0.015655	0.960453	0.992193
	H308	H	-0.022149	0.976864	0.976810
	O309	O	-0.030916	1.012264	1.017812
	H310	H	-0.020351	1.007564	1.016172
	H311	H	-0.028939	1.008901	1.028999
	O312	O	0.088194	-0.056098	0.947892
	H313	H	0.095877	-0.050223	0.943386
	H314	H	0.088635	-0.064170	0.939380
	O315	O	0.487244	0.499907	0.462623
	H316	H	0.487979	0.502936	0.458358
	H317	H	0.504983	0.497499	0.461886
	O318	O	-0.134191	-0.012339	1.010591
	H319	H	-0.131269	-0.002375	1.004108
	H320	H	-0.144339	-0.008591	1.011313
	O321	O	0.500519	0.434714	0.471950
	H322	H	0.483034	0.430901	0.471927
	H323	H	0.493577	0.439496	0.470383
	O324	O	1.041840	-0.075618	0.974304
	H325	H	1.049588	-0.068185	0.965763
	H326	H	1.044576	-0.084877	0.969207
	O327	O	0.977286	0.964753	0.947165
	H328	H	0.969928	0.966786	0.958121
	H329	H	0.969887	0.963953	0.947796
	O330	O	0.490052	0.465906	0.536009
	H331	H	0.481371	0.464915	0.534770
	H332	H	0.489413	0.471988	0.531625
	O333	O	0.533598	0.481205	0.541923
	H334	H	0.526046	0.479398	0.540595
	H335	H	0.523360	0.482117	0.538228
	O336	O	0.398654	0.499943	0.539400
	H337	H	0.391965	0.497998	0.533375
	H338	H	0.400869	0.505287	0.536047
	O339	O	0.482486	0.506356	0.583770
	H340	H	0.470848	0.509624	0.582236
	H341	H	0.480929	0.501232	0.590644
	O342	O	0.565903	0.493275	0.575143
	H343	H	0.586061	0.489372	0.581051
	H344	H	0.570854	0.504962	0.580534
	O345	O	0.555841	0.483059	0.523808
	H346	H	0.556528	0.482842	0.524239
	H347	H	0.559637	0.482726	0.533638
