data_Molecule from HDF5

_cell_length_a		16.362588
_cell_length_b		16.412823
_cell_length_c		16.562584
_cell_angle_alpha	90.030460
_cell_angle_beta	90.009427
_cell_angle_gamma	90.017234
_symmetry_space_group_name_H-M	'P 1'
_symmetry_Int_Tables_number		1

loop_
	_symmetry_equiv_pos_as_xyz
	x,y,z

loop_
	_atom_site_label
	_atom_site_type_symbol
	_atom_site_fract_x
	_atom_site_fract_y
	_atom_site_fract_z
	H0	H	0.389572	0.847323	0.716909
	H1	H	0.601607	0.163380	0.717312
	H2	H	0.608781	0.848494	0.270513
	H3	H	0.384943	0.159106	0.266926
	H4	H	0.716711	0.398145	0.838380
	H5	H	0.719229	0.612505	0.151811
	H6	H	0.272091	0.610100	0.838563
	H7	H	0.270165	0.398138	0.151369
	H8	H	0.837322	0.729246	0.386620
	H9	H	0.152900	0.726855	0.599611
	H10	H	0.837177	0.282746	0.600632
	H11	H	0.154430	0.286415	0.389072
	H12	H	0.837431	0.397109	0.717612
	H13	H	0.150305	0.616155	0.719342
	H14	H	0.836412	0.612864	0.271887
	H15	H	0.151166	0.397133	0.269719
	H16	H	0.388370	0.727171	0.837914
	H17	H	0.603193	0.729569	0.151860
	H18	H	0.599988	0.281559	0.837806
	H19	H	0.383383	0.278627	0.149672
	H20	H	0.717025	0.846482	0.392050
	H21	H	0.713994	0.166485	0.598192
	H22	H	0.271268	0.849222	0.603519
	H23	H	0.272436	0.162293	0.386494
	H24	H	0.882995	0.348514	0.219347
	H25	H	0.102577	0.661760	0.217431
	H26	H	0.105050	0.349833	0.767781
	H27	H	0.889718	0.663831	0.773772
	H28	H	0.222781	0.897517	0.340294
	H29	H	0.219390	0.112930	0.651742
	H30	H	0.773320	0.111582	0.337052
	H31	H	0.776355	0.901831	0.652373
	H32	H	0.336210	0.225804	0.887671
	H33	H	0.650871	0.230503	0.101789
	H34	H	0.335499	0.784328	0.101112
	H35	H	0.653788	0.783849	0.892369
	H36	H	0.340848	0.893127	0.223622
	H37	H	0.652885	0.115510	0.218737
	H38	H	0.338206	0.112296	0.770084
	H39	H	0.654964	0.898523	0.775612
	H40	H	0.890744	0.227128	0.335840
	H41	H	0.104690	0.231735	0.649735
	H42	H	0.107129	0.779961	0.339721
	H43	H	0.890533	0.783002	0.650292
	H44	H	0.215590	0.346664	0.888375
	H45	H	0.214201	0.663783	0.098228
	H46	H	0.772377	0.346367	0.098875
	H47	H	0.773122	0.663765	0.890607
	H48	H	0.409843	0.118749	0.585148
	H49	H	0.588927	0.889077	0.590288
	H50	H	0.582893	0.118527	0.402545
	H51	H	0.415613	0.894387	0.406652
	H52	H	0.586139	0.415225	0.108998
	H53	H	0.577608	0.587125	0.887980
	H54	H	0.404814	0.601944	0.109436
	H55	H	0.396320	0.417940	0.881513
	H56	H	0.108241	0.595414	0.404695
	H57	H	0.882102	0.592792	0.579664
	H58	H	0.105576	0.424349	0.580253
	H59	H	0.882940	0.425087	0.404014
	H60	H	0.109683	0.420010	0.587298
	H61	H	0.880635	0.591554	0.584920
	H62	H	0.105935	0.590370	0.407406
	H63	H	0.878507	0.412497	0.400513
	H64	H	0.396848	0.590559	0.108339
	H65	H	0.578088	0.603177	0.882735
	H66	H	0.581315	0.424116	0.103626
	H67	H	0.410374	0.421191	0.886269
	H68	H	0.580290	0.117428	0.408345
	H69	H	0.582865	0.892354	0.587185
	H70	H	0.411119	0.117037	0.583582
	H71	H	0.413824	0.896316	0.413896
	H72	H	0.912362	0.615586	0.083365
	H73	H	0.082242	0.394122	0.075955
	H74	H	0.086166	0.615151	0.916188
	H75	H	0.909935	0.393040	0.905126
	H76	H	0.085114	0.917359	0.607304
	H77	H	0.084890	0.097534	0.382083
	H78	H	0.901328	0.099488	0.608547
	H79	H	0.908590	0.922268	0.383889
	H80	H	0.609916	0.097096	0.906962
	H81	H	0.383967	0.088313	0.082267
	H82	H	0.607985	0.914511	0.080008
	H83	H	0.382735	0.917680	0.907886
	H84	H	0.606369	0.920658	0.080755
	H85	H	0.383796	0.088711	0.080832
	H86	H	0.605998	0.091664	0.909859
	H87	H	0.381248	0.918987	0.902381
	H88	H	0.905651	0.089795	0.604802
	H89	H	0.086326	0.091823	0.382523
	H90	H	0.081396	0.920282	0.604265
	H91	H	0.910761	0.913801	0.381735
	H92	H	0.087808	0.622779	0.898557
	H93	H	0.086970	0.388869	0.087207
	H94	H	0.903358	0.616708	0.078306
	H95	H	0.905794	0.392472	0.907742
	H96	H	0.409004	0.118100	0.583387
	H97	H	0.589769	0.890905	0.583002
	H98	H	0.586795	0.118234	0.407427
	H99	H	0.408390	0.892883	0.409560
	H100	H	0.575663	0.414370	0.104698
	H101	H	0.591570	0.593191	0.881332
	H102	H	0.410433	0.590072	0.104617
	H103	H	0.407534	0.407484	0.880504
	H104	H	0.108934	0.590542	0.402584
	H105	H	0.879650	0.596477	0.582849
	H106	H	0.108090	0.415749	0.579354
	H107	H	0.883180	0.414947	0.413532
	H108	H	0.904011	0.620285	0.087851
	H109	H	0.073967	0.393013	0.086216
	H110	H	0.071271	0.615142	0.904335
	H111	H	0.906160	0.390956	0.903200
	H112	H	0.080643	0.915383	0.605616
	H113	H	0.081629	0.094007	0.384993
	H114	H	0.912073	0.099001	0.605245
	H115	H	0.902786	0.917022	0.380073
	H116	H	0.608263	0.090683	0.903243
	H117	H	0.383857	0.087466	0.081491
	H118	H	0.609452	0.917182	0.085904
	H119	H	0.380317	0.913882	0.904374
	C120	C	0.375852	0.013851	0.616746
	C121	C	0.618385	0.996663	0.617477
	C122	C	0.617438	0.013963	0.373354
	C123	C	0.376296	0.996913	0.374556
	C124	C	0.614170	0.384161	0.002614
	C125	C	0.616537	0.627509	0.987129
	C126	C	0.372250	0.626607	0.003402
	C127	C	0.370943	0.381841	0.985828
	C128	C	0.003474	0.626736	0.371940
	C129	C	0.985384	0.626828	0.615284
	C130	C	0.003660	0.385278	0.615784
	C131	C	0.985981	0.384718	0.372722
	C132	C	0.872928	0.513357	0.116069
	C133	C	0.114545	0.496247	0.115650
	C134	C	0.115866	0.514087	0.872345
	C135	C	0.873818	0.496710	0.873151
	C136	C	0.117873	0.883875	0.503407
	C137	C	0.117998	0.128083	0.486313
	C138	C	0.873840	0.128452	0.502390
	C139	C	0.874603	0.884747	0.485728
	C140	C	0.503426	0.125441	0.873619
	C141	C	0.486828	0.124710	0.115675
	C142	C	0.504039	0.883233	0.116799
	C143	C	0.486658	0.883980	0.873908
	C144	C	0.371452	0.895098	0.677344
	C145	C	0.619862	0.116262	0.676986
	C146	C	0.623980	0.895722	0.311646
	C147	C	0.369099	0.113279	0.309585
	C148	C	0.675984	0.380161	0.885125
	C149	C	0.678618	0.630588	0.104669
	C150	C	0.312606	0.628447	0.885208
	C151	C	0.310229	0.379453	0.104028
	C152	C	0.884787	0.688703	0.368874
	C153	C	0.104826	0.687478	0.618011
	C154	C	0.884979	0.323094	0.618961
	C155	C	0.106197	0.325514	0.370618
	C156	C	0.884975	0.379997	0.677433
	C157	C	0.103563	0.632082	0.677640
	C158	C	0.884153	0.630481	0.311819
	C159	C	0.104524	0.380765	0.311159
	C160	C	0.370329	0.686860	0.885278
	C161	C	0.620379	0.688742	0.104942
	C162	C	0.617676	0.322246	0.885095
	C163	C	0.366708	0.319851	0.103081
	C164	C	0.678131	0.894662	0.372411
	C165	C	0.675879	0.117522	0.617343
	C166	C	0.312825	0.895964	0.620641
	C167	C	0.312766	0.114571	0.368935
	C168	C	0.867321	0.395392	0.177878
	C169	C	0.118764	0.614950	0.176276
	C170	C	0.121118	0.396436	0.809563
	C171	C	0.871147	0.616328	0.813809
	C172	C	0.181607	0.879696	0.386962
	C173	C	0.179083	0.131279	0.604225
	C174	C	0.813589	0.130163	0.384031
	C175	C	0.815623	0.883154	0.604590
	C176	C	0.383809	0.185487	0.870003
	C177	C	0.604309	0.188892	0.119545
	C178	C	0.384235	0.823032	0.120201
	C179	C	0.606269	0.823720	0.873153
	C180	C	0.386926	0.877178	0.181256
	C181	C	0.605249	0.131773	0.178013
	C182	C	0.385012	0.129193	0.811255
	C183	C	0.606823	0.881044	0.815264
	C184	C	0.872200	0.187661	0.383566
	C185	C	0.121919	0.190421	0.603311
	C186	C	0.123884	0.821149	0.386645
	C187	C	0.872394	0.823896	0.603596
	C188	C	0.176279	0.394823	0.869671
	C189	C	0.174824	0.615789	0.117207
	C190	C	0.811772	0.394321	0.118064
	C191	C	0.813235	0.616207	0.871869
	C192	C	0.402298	0.096395	0.591181
	C193	C	0.594188	0.912721	0.593693
	C194	C	0.590563	0.096626	0.398796
	C195	C	0.404590	0.915698	0.402133
	C196	C	0.588204	0.410111	0.084408
	C197	C	0.590057	0.601737	0.905327
	C198	C	0.397167	0.601589	0.086052
	C199	C	0.397055	0.408131	0.904091
	C200	C	0.086233	0.599839	0.397545
	C201	C	0.902531	0.600843	0.589677
	C202	C	0.086163	0.412194	0.589689
	C203	C	0.903302	0.410368	0.398498
	C204	C	0.899251	0.596188	0.090598
	C205	C	0.088536	0.413575	0.090392
	C206	C	0.089401	0.596188	0.898741
	C207	C	0.899833	0.413719	0.897921
	C208	C	0.090418	0.910199	0.584629
	C209	C	0.091871	0.102045	0.404552
	C210	C	0.899158	0.103560	0.584731
	C211	C	0.900079	0.910288	0.403331
	C212	C	0.586518	0.100250	0.899379
	C213	C	0.405055	0.096287	0.089214
	C214	C	0.586466	0.909744	0.090024
	C215	C	0.403017	0.909422	0.897857
	Zn216	Zn	0.496311	0.004845	0.745455
	Zn217	Zn	0.496999	0.004417	0.245090
	Zn218	Zn	0.744933	0.504456	-0.005515
	Zn219	Zn	0.243080	0.504690	-0.005320
	Zn220	Zn	-0.004305	0.754624	0.493663
	Zn221	Zn	-0.004127	0.257360	0.493822
	Zn222	Zn	-0.005484	0.505978	0.743925
	Zn223	Zn	-0.006255	0.505000	0.244200
	Zn224	Zn	0.494030	0.755661	-0.004355
	Zn225	Zn	0.493188	0.253525	-0.005249
	Zn226	Zn	0.745453	0.006155	0.494569
	Zn227	Zn	0.247501	0.005793	0.495821
	N228	N	0.409932	0.969387	0.674953
	N229	N	0.585240	0.039934	0.677394
	N230	N	0.586962	0.970982	0.312110
	N231	N	0.407827	0.039138	0.312919
	N232	N	0.673777	0.418152	0.958881
	N233	N	0.676343	0.593111	0.030402
	N234	N	0.313571	0.592023	0.959851
	N235	N	0.312705	0.417327	0.030042
	N236	N	0.960292	0.686760	0.405439
	N237	N	0.030290	0.684172	0.579762
	N238	N	0.959963	0.325943	0.581521
	N239	N	0.031533	0.327772	0.408315
	N240	N	0.959975	0.417592	0.675705
	N241	N	0.028281	0.595065	0.676090
	N242	N	0.958982	0.592818	0.313604
	N243	N	0.028746	0.416772	0.312379
	N244	N	0.406579	0.685851	0.959960
	N245	N	0.582560	0.687031	0.030838
	N246	N	0.579999	0.324390	0.959306
	N247	N	0.403584	0.321255	0.028605
	N248	N	0.674350	0.969244	0.409966
	N249	N	0.675329	0.041874	0.581358
	N250	N	0.315458	0.970887	0.583736
	N251	N	0.317118	0.041130	0.408571
	N252	N	0.904454	0.470528	0.176649
	N253	N	0.082027	0.539679	0.175421
	N254	N	0.084401	0.471662	0.810968
	N255	N	0.907820	0.540974	0.814517
	N256	N	0.178181	0.917723	0.460635
	N257	N	0.176992	0.093376	0.530312
	N258	N	0.813956	0.094491	0.459079
	N259	N	0.816972	0.920273	0.530237
	N260	N	0.458276	0.183295	0.908267
	N261	N	0.529830	0.184491	0.081453
	N262	N	0.458046	0.826715	0.080931
	N263	N	0.530482	0.825296	0.908836
	N264	N	0.462509	0.913847	0.179242
	N265	N	0.531097	0.092459	0.175622
	N266	N	0.460300	0.092311	0.813660
	N267	N	0.531154	0.917560	0.815414
	N268	N	0.908637	0.186867	0.458412
	N269	N	0.084719	0.188640	0.529082
	N270	N	0.084857	0.823555	0.460099
	N271	N	0.907975	0.824463	0.528353
	N272	N	0.173123	0.469014	0.908114
	N273	N	0.172401	0.540959	0.080108
	N274	N	0.815021	0.468884	0.080345
	N275	N	0.814881	0.540808	0.907984
	O276	O	0.515767	0.304512	0.290824
	H277	H	0.501954	0.299434	0.297842
	H278	H	0.501370	0.295606	0.282017
	O279	O	1.210828	0.023350	1.209969
	H280	H	1.228731	0.034752	1.219442
	H281	H	1.227748	0.021183	1.197052
	O282	O	0.697569	0.434215	0.565021
	H283	H	0.702096	0.415481	0.570994
	H284	H	0.694529	0.427506	0.572073
	O285	O	0.694442	0.705642	0.697494
	H286	H	0.679599	0.730301	0.711514
	H287	H	0.705492	0.716469	0.657422
	O288	O	1.018381	1.208699	0.209051
	H289	H	1.001733	1.210346	0.200402
	H290	H	1.036309	1.230408	0.226166
	O291	O	1.020981	-0.205514	0.024939
	H292	H	1.019678	-0.202706	0.040246
	H293	H	1.019179	-0.213416	0.037818
	O294	O	-0.221546	0.034531	0.775843
	H295	H	-0.254462	0.038783	0.745742
	H296	H	-0.214903	0.082708	0.784335
	O297	O	0.544765	0.353643	0.510842
	H298	H	0.575379	0.337148	0.499025
	H299	H	0.552228	0.371554	0.520999
	O300	O	0.475744	0.441853	0.365565
	H301	H	0.461520	0.438354	0.379310
	H302	H	0.488029	0.448042	0.386908
	O303	O	0.309798	0.318888	0.679236
	H304	H	0.299117	0.356049	0.695611
	H305	H	0.361332	0.314275	0.688380
	O306	O	-0.002968	1.036320	1.023121
	H307	H	0.016015	1.017922	1.037243
	H308	H	-0.013350	1.059052	1.034387
	O309	O	0.292707	0.518420	0.291089
	H310	H	0.303678	0.498567	0.312160
	H311	H	0.267421	0.508503	0.265058
	O312	O	-0.012761	1.219380	0.798662
	H313	H	-0.012644	1.200125	0.808713
	H314	H	-0.018804	1.243154	0.762909
	O315	O	0.478752	0.314331	0.683487
	H316	H	0.494969	0.311593	0.680657
	H317	H	0.500670	0.332228	0.686429
	O318	O	1.314590	0.678524	0.323924
	H319	H	1.360512	0.677701	0.317439
	H320	H	1.304236	0.635717	0.317483
	O321	O	0.022833	0.219431	-0.048916
	H322	H	0.046942	0.222350	-0.043076
	H323	H	0.018516	0.212671	-0.070739
	O324	O	0.292911	0.467566	0.439481
	H325	H	0.286003	0.456476	0.423010
	H326	H	0.316830	0.460923	0.441962
	O327	O	0.711318	0.528517	0.713645
	H328	H	0.741722	0.540864	0.741401
	H329	H	0.705890	0.571417	0.704008
	O330	O	-0.119980	0.803588	-0.120712
	H331	H	-0.096474	0.804545	-0.113636
	H332	H	-0.116999	0.823535	-0.115835
	O333	O	0.800357	0.800489	1.010844
	H334	H	0.796583	0.812792	0.992564
	H335	H	0.806031	0.789232	1.000432
	O336	O	0.194872	-0.020943	-0.203263
	H337	H	0.219782	-0.025163	-0.219294
	H338	H	0.171376	-0.026762	-0.202589
	O339	O	-0.214700	0.990007	1.203170
	H340	H	-0.229287	0.989529	1.233311
	H341	H	-0.205077	0.938274	1.196268
	O342	O	0.195447	1.209659	0.974940
	H343	H	0.211964	1.221454	0.969929
	H344	H	0.205223	1.178471	0.963039
	O345	O	1.047251	0.978233	0.018617
	H346	H	1.035024	0.984527	0.040809
	H347	H	1.068502	0.964393	0.012634
	O348	O	1.183632	0.819436	0.806769
	H349	H	1.147972	0.814204	0.813849
	H350	H	1.201939	0.827370	0.784510
	O351	O	0.178701	1.186360	1.170680
	H352	H	0.185271	1.192100	1.128353
	H353	H	0.155529	1.173645	1.182298
	O354	O	-0.323267	0.325014	-0.684608
	H355	H	-0.316032	0.363821	-0.695506
	H356	H	-0.369094	0.319398	-0.697529
	O357	O	0.007851	0.081646	1.170261
	H358	H	0.010057	0.106598	1.150285
	H359	H	-0.007046	0.089937	1.177973
	O360	O	0.541888	0.554721	0.277721
	H361	H	0.540397	0.551437	0.287600
	H362	H	0.527668	0.566092	0.280393
	O363	O	0.185681	0.074021	0.916362
	H364	H	0.174778	0.063607	0.909890
	H365	H	0.192651	0.056291	0.914878
	O366	O	0.287278	0.482196	0.698285
	H367	H	0.267188	0.496110	0.694557
	H368	H	0.274296	0.486357	0.690174
	O369	O	0.696343	0.489143	0.282405
	H370	H	0.696498	0.506643	0.282197
	H371	H	0.698031	0.491918	0.261150
	O372	O	1.016336	-0.195511	0.799435
	H373	H	1.010087	-0.195654	0.813527
	H374	H	1.012700	-0.186344	0.785053
	O375	O	0.312994	0.725072	0.467273
	H376	H	0.323863	0.710598	0.419042
	H377	H	0.279501	0.759073	0.462764
	O378	O	0.469470	0.711756	0.276577
	H379	H	0.477999	0.741907	0.264927
	H380	H	0.476836	0.712326	0.285968
	O381	O	0.830977	0.199559	0.805218
	H382	H	0.865508	0.213169	0.803968
	H383	H	0.811286	0.210148	0.841131
	O384	O	0.447161	0.595887	0.511852
	H385	H	0.448819	0.598368	0.515277
	H386	H	0.439745	0.590172	0.527386
	O387	O	-0.199236	-0.026891	0.938043
	H388	H	-0.188984	-0.014029	0.938701
	H389	H	-0.208088	-0.013139	0.914172
	O390	O	-0.180496	-0.166132	0.170287
	H391	H	-0.179422	-0.181685	0.141144
	H392	H	-0.148450	-0.173877	0.158910
	O393	O	0.489836	0.649676	0.703712
	H394	H	0.468421	0.642232	0.698522
	H395	H	0.484556	0.659627	0.723561
	O396	O	0.773205	0.059455	0.041022
	H397	H	0.767628	0.039825	0.042887
	H398	H	0.776005	0.039862	0.070956
	O399	O	1.204107	-0.197107	0.977870
	H400	H	1.214914	-0.217132	0.967199
	H401	H	1.195768	-0.205793	0.955184
	O402	O	1.656929	0.627450	1.433391
	H403	H	1.645262	0.621918	1.461928
	H404	H	1.664440	0.617323	1.436092
	O405	O	0.975140	0.794203	0.209816
	H406	H	0.994382	0.821650	0.223378
	H407	H	0.969492	0.775947	0.236344
	O408	O	1.093383	-0.102507	0.205093
	H409	H	1.084888	-0.084876	0.207408
	H410	H	1.107721	-0.088440	0.205345
	O411	O	1.038829	1.049237	-0.216685
	H412	H	1.031019	1.035342	-0.198901
	H413	H	1.037884	1.048827	-0.218872
	O414	O	0.541827	0.544946	0.554002
	H415	H	0.534870	0.532419	0.552342
	H416	H	0.552126	0.537733	0.564010
	O417	O	0.702262	0.712111	0.544313
	H418	H	0.716208	0.728112	0.534387
	H419	H	0.700908	0.698044	0.531845
	O420	O	0.207001	-0.041983	0.043872
	H421	H	0.210217	-0.050316	0.048682
	H422	H	0.199227	-0.064668	0.032758
	O423	O	0.709505	0.288925	0.469913
	H424	H	0.741501	0.256372	0.467152
	H425	H	0.698774	0.299380	0.420681
	O426	O	0.279871	0.286446	0.519186
	H427	H	0.290861	0.300432	0.571163
	H428	H	0.240530	0.248971	0.523717
	O429	O	0.558766	0.453099	0.661257
	H430	H	0.567846	0.469622	0.659962
	H431	H	0.578633	0.472548	0.669684
	O432	O	0.545496	0.699788	0.451969
	H433	H	0.534005	0.693719	0.483796
	H434	H	0.534061	0.708068	0.448421
	O435	O	0.356212	0.436562	0.457713
	H436	H	0.348349	0.416678	0.465991
	H437	H	0.368366	0.419487	0.447991
	O438	O	-0.084158	0.205360	0.086633
	H439	H	-0.068318	0.205082	0.079283
	H440	H	-0.085787	0.198910	0.072428
	O441	O	0.797099	0.202973	-0.046603
	H442	H	0.785963	0.228683	-0.031861
	H443	H	0.784255	0.165545	-0.021355
	O444	O	-0.050048	0.976198	0.839179
	H445	H	-0.049087	0.980995	0.847583
	H446	H	-0.066833	0.998032	0.837594
	O447	O	0.466260	0.305320	0.481004
	H448	H	0.444947	0.297867	0.491634
	H449	H	0.475557	0.310013	0.492549
	O450	O	0.452605	0.666884	0.637903
	H451	H	0.454287	0.656851	0.628198
	H452	H	0.457866	0.662965	0.640543
	O453	O	0.318125	0.627164	0.648101
	H454	H	0.329703	0.617112	0.630942
	H455	H	0.320028	0.625992	0.624326
