data_Molecule from HDF5

_cell_length_a		16.282380
_cell_length_b		16.457349
_cell_length_c		16.389074
_cell_angle_alpha	89.922447
_cell_angle_beta	89.716720
_cell_angle_gamma	90.153784
_symmetry_space_group_name_H-M	'P 1'
_symmetry_Int_Tables_number		1

loop_
	_symmetry_equiv_pos_as_xyz
	x,y,z

loop_
	_atom_site_label
	_atom_site_type_symbol
	_atom_site_fract_x
	_atom_site_fract_y
	_atom_site_fract_z
	H0	H	0.389703	0.842682	0.714430
	H1	H	0.600495	0.160664	0.715387
	H2	H	0.600582	0.842672	0.274638
	H3	H	0.391743	0.160891	0.274122
	H4	H	0.714245	0.398348	0.836883
	H5	H	0.710590	0.605594	0.156311
	H6	H	0.276848	0.601552	0.834237
	H7	H	0.276581	0.401636	0.157990
	H8	H	0.834690	0.725646	0.389488
	H9	H	0.155016	0.721180	0.598811
	H10	H	0.833802	0.281484	0.602409
	H11	H	0.154300	0.285535	0.391902
	H12	H	0.833745	0.397286	0.717212
	H13	H	0.155031	0.605704	0.714062
	H14	H	0.832752	0.608306	0.277146
	H15	H	0.154460	0.402245	0.277444
	H16	H	0.386493	0.723921	0.836822
	H17	H	0.598018	0.724833	0.154039
	H18	H	0.598290	0.281967	0.836037
	H19	H	0.387021	0.279830	0.155315
	H20	H	0.715495	0.843732	0.390933
	H21	H	0.713994	0.162207	0.597025
	H22	H	0.274541	0.842921	0.597077
	H23	H	0.276424	0.162673	0.392552
	H24	H	0.885944	0.343706	0.218482
	H25	H	0.100172	0.660531	0.218072
	H26	H	0.097306	0.343634	0.775260
	H27	H	0.885427	0.659980	0.772553
	H28	H	0.215432	0.899764	0.335631
	H29	H	0.213429	0.106231	0.654599
	H30	H	0.776094	0.106949	0.334893
	H31	H	0.774049	0.899693	0.655270
	H32	H	0.332815	0.218893	0.891481
	H33	H	0.654290	0.221966	0.098894
	H34	H	0.333178	0.782285	0.100956
	H35	H	0.652341	0.780496	0.887381
	H36	H	0.335660	0.893347	0.219853
	H37	H	0.655920	0.104551	0.212017
	H38	H	0.333823	0.104148	0.776505
	H39	H	0.655298	0.898913	0.775255
	H40	H	0.886561	0.227004	0.338059
	H41	H	0.098409	0.222888	0.654919
	H42	H	0.105773	0.777533	0.338270
	H43	H	0.887659	0.781330	0.654289
	H44	H	0.211267	0.341479	0.893353
	H45	H	0.215689	0.660479	0.101391
	H46	H	0.772829	0.342477	0.099330
	H47	H	0.769275	0.660164	0.889143
	H48	H	0.409168	0.113899	0.582253
	H49	H	0.586261	0.888253	0.584268
	H50	H	0.587425	0.118309	0.397714
	H51	H	0.410023	0.893588	0.413404
	H52	H	0.580879	0.406962	0.111518
	H53	H	0.585094	0.586853	0.882462
	H54	H	0.398174	0.592135	0.111062
	H55	H	0.397861	0.406671	0.878725
	H56	H	0.111211	0.600185	0.403422
	H57	H	0.878422	0.594319	0.585467
	H58	H	0.106392	0.418789	0.582632
	H59	H	0.876931	0.411106	0.406551
	H60	H	0.110595	0.412962	0.591961
	H61	H	0.880610	0.591019	0.581339
	H62	H	0.103679	0.589440	0.416706
	H63	H	0.879051	0.412475	0.410684
	H64	H	0.406922	0.586836	0.106496
	H65	H	0.574702	0.588641	0.885717
	H66	H	0.583187	0.412825	0.109993
	H67	H	0.402669	0.413726	0.882205
	H68	H	0.578073	0.113567	0.403259
	H69	H	0.582391	0.888164	0.587810
	H70	H	0.397991	0.117503	0.583591
	H71	H	0.397209	0.887154	0.407915
	H72	H	0.906158	0.614270	0.085044
	H73	H	0.071729	0.394892	0.080489
	H74	H	0.086136	0.615771	0.906629
	H75	H	0.905402	0.391019	0.909532
	H76	H	0.083108	0.919286	0.606751
	H77	H	0.073954	0.090868	0.385897
	H78	H	0.903769	0.092246	0.609510
	H79	H	0.911258	0.909598	0.381260
	H80	H	0.609117	0.091318	0.902954
	H81	H	0.379609	0.091775	0.084086
	H82	H	0.608776	0.909376	0.082317
	H83	H	0.378566	0.912018	0.905130
	H84	H	0.606269	0.914842	0.079257
	H85	H	0.380989	0.087108	0.083353
	H86	H	0.610575	0.094599	0.904954
	H87	H	0.378960	0.913453	0.906182
	H88	H	0.904622	0.093755	0.608561
	H89	H	0.084081	0.105065	0.377644
	H90	H	0.076345	0.909669	0.607346
	H91	H	0.902061	0.910883	0.379541
	H92	H	0.084274	0.616350	0.904162
	H93	H	0.093666	0.388116	0.080599
	H94	H	0.900589	0.615528	0.083616
	H95	H	0.900070	0.388570	0.907557
	H96	H	0.405842	0.118135	0.592642
	H97	H	0.582224	0.890496	0.582857
	H98	H	0.588022	0.114763	0.408766
	H99	H	0.409520	0.888073	0.399501
	H100	H	0.577150	0.411196	0.108093
	H101	H	0.580663	0.596768	0.880705
	H102	H	0.408473	0.597141	0.109540
	H103	H	0.406130	0.405366	0.882010
	H104	H	0.107452	0.582780	0.399664
	H105	H	0.880057	0.588756	0.586779
	H106	H	0.109222	0.407535	0.581591
	H107	H	0.878966	0.415661	0.406623
	H108	H	0.902611	0.616304	0.088972
	H109	H	0.080786	0.385455	0.099344
	H110	H	0.082862	0.614547	0.905959
	H111	H	0.905175	0.388848	0.903814
	H112	H	0.087416	0.909336	0.612046
	H113	H	0.092174	0.087735	0.380686
	H114	H	0.903209	0.093475	0.609932
	H115	H	0.906698	0.917820	0.383877
	H116	H	0.608327	0.091678	0.906825
	H117	H	0.379567	0.088586	0.088041
	H118	H	0.608390	0.914947	0.085497
	H119	H	0.379444	0.913383	0.904456
	C120	C	0.372259	0.011183	0.617260
	C121	C	0.615737	0.993962	0.615695
	C122	C	0.616954	0.010801	0.372269
	C123	C	0.373711	0.994176	0.374160
	C124	C	0.613183	0.379816	0.004309
	C125	C	0.613388	0.623486	0.987448
	C126	C	0.372234	0.623102	0.003880
	C127	C	0.370655	0.378292	0.987267
	C128	C	0.002126	0.624430	0.374353
	C129	C	0.985704	0.623156	0.616548
	C130	C	0.002624	0.381340	0.617386
	C131	C	0.984510	0.381979	0.375341
	C132	C	0.870295	0.510690	0.118592
	C133	C	0.114521	0.494242	0.117939
	C134	C	0.114974	0.510321	0.874530
	C135	C	0.870883	0.494111	0.874296
	C136	C	0.115853	0.880911	0.503858
	C137	C	0.115411	0.125054	0.486843
	C138	C	0.872028	0.125286	0.504324
	C139	C	0.873711	0.881389	0.486912
	C140	C	0.502881	0.123383	0.873548
	C141	C	0.485873	0.121852	0.116159
	C142	C	0.502358	0.880433	0.116085
	C143	C	0.484955	0.881194	0.873124
	C144	C	0.371177	0.890779	0.675065
	C145	C	0.618121	0.113602	0.675186
	C146	C	0.618925	0.890652	0.313763
	C147	C	0.372906	0.113625	0.314298
	C148	C	0.673846	0.379534	0.884493
	C149	C	0.672063	0.624956	0.107922
	C150	C	0.314752	0.621907	0.882917
	C151	C	0.313810	0.380118	0.109002
	C152	C	0.882382	0.684979	0.372215
	C153	C	0.106741	0.681804	0.617606
	C154	C	0.881936	0.321347	0.620425
	C155	C	0.105865	0.324450	0.373543
	C156	C	0.881640	0.378962	0.677500
	C157	C	0.106484	0.624137	0.674991
	C158	C	0.881456	0.626728	0.315779
	C159	C	0.105892	0.382354	0.316408
	C160	C	0.369367	0.682863	0.884001
	C161	C	0.616004	0.684197	0.106685
	C162	C	0.616178	0.321533	0.884218
	C163	C	0.369221	0.319815	0.107689
	C164	C	0.676394	0.891245	0.371612
	C165	C	0.674529	0.114356	0.616146
	C166	C	0.313753	0.890788	0.616719
	C167	C	0.315403	0.114483	0.372951
	C168	C	0.868006	0.391408	0.178468
	C169	C	0.117467	0.613197	0.177543
	C170	C	0.115523	0.390702	0.815731
	C171	C	0.867517	0.612576	0.813059
	C172	C	0.176243	0.880019	0.383835
	C173	C	0.174068	0.125237	0.606999
	C174	C	0.814277	0.126083	0.383565
	C175	C	0.813339	0.880274	0.606916
	C176	C	0.381529	0.180406	0.873020
	C177	C	0.606356	0.181883	0.117015
	C178	C	0.381706	0.820968	0.119325
	C179	C	0.605151	0.821210	0.870411
	C180	C	0.383075	0.876513	0.178574
	C181	C	0.607202	0.123595	0.173673
	C182	C	0.382001	0.123358	0.815438
	C183	C	0.606395	0.879982	0.814282
	C184	C	0.869174	0.186218	0.385167
	C185	C	0.117304	0.183725	0.606968
	C186	C	0.120989	0.819499	0.385038
	C187	C	0.870350	0.821528	0.606659
	C188	C	0.172648	0.389866	0.874188
	C189	C	0.175271	0.613219	0.119569
	C190	C	0.811273	0.390714	0.119531
	C191	C	0.809606	0.612524	0.871315
	C192	C	0.397031	0.094889	0.593185
	C193	C	0.590947	0.910669	0.591895
	C194	C	0.591961	0.093916	0.396161
	C195	C	0.398296	0.911215	0.399637
	C196	C	0.587681	0.403517	0.088078
	C197	C	0.587798	0.598065	0.904527
	C198	C	0.397348	0.598935	0.087455
	C199	C	0.394884	0.401772	0.902915
	C200	C	0.085694	0.598537	0.399326
	C201	C	0.901525	0.598567	0.591726
	C202	C	0.086787	0.405997	0.592544
	C203	C	0.900178	0.406159	0.400385
	C204	C	0.895691	0.593738	0.093212
	C205	C	0.089183	0.411073	0.093795
	C206	C	0.091095	0.593823	0.898481
	C207	C	0.896283	0.411095	0.899844
	C208	C	0.089893	0.905783	0.587180
	C209	C	0.090480	0.101463	0.403161
	C210	C	0.896697	0.100327	0.587726
	C211	C	0.899289	0.905836	0.403351
	C212	C	0.587329	0.099337	0.897739
	C213	C	0.401881	0.096531	0.092107
	C214	C	0.585979	0.905764	0.089797
	C215	C	0.400930	0.905742	0.897947
	Zn216	Zn	0.494666	0.002013	0.745249
	Zn217	Zn	0.495425	0.001247	0.244311
	Zn218	Zn	0.741855	0.502150	-0.003224
	Zn219	Zn	0.243665	0.501520	-0.004025
	Zn220	Zn	-0.005374	0.751898	0.495790
	Zn221	Zn	-0.006495	0.253593	0.496188
	Zn222	Zn	-0.006390	0.502446	0.745374
	Zn223	Zn	-0.007451	0.502840	0.247010
	Zn224	Zn	0.492931	0.752921	-0.005309
	Zn225	Zn	0.492865	0.250183	-0.004424
	Zn226	Zn	0.744674	0.002919	0.494893
	Zn227	Zn	0.243766	0.003452	0.495402
	N228	N	0.406926	0.966577	0.675446
	N229	N	0.582037	0.037932	0.674850
	N230	N	0.582666	0.965987	0.314039
	N231	N	0.408029	0.037687	0.314586
	N232	N	0.672094	0.415218	0.960171
	N233	N	0.670758	0.587970	0.032686
	N234	N	0.316318	0.585561	0.958480
	N235	N	0.314468	0.415515	0.032952
	N236	N	0.958683	0.683828	0.407660
	N237	N	0.030512	0.681353	0.582016
	N238	N	0.958040	0.322735	0.583741
	N239	N	0.029151	0.323859	0.409160
	N240	N	0.957590	0.415594	0.675815
	N241	N	0.030018	0.588400	0.674396
	N242	N	0.957067	0.589991	0.316654
	N243	N	0.029215	0.417167	0.317260
	N244	N	0.404069	0.683918	0.960281
	N245	N	0.580601	0.683679	0.030720
	N246	N	0.578986	0.321874	0.959654
	N247	N	0.403528	0.318349	0.030822
	N248	N	0.675292	0.966712	0.407404
	N249	N	0.673149	0.039143	0.579818
	N250	N	0.314203	0.966720	0.581640
	N251	N	0.315544	0.039105	0.409120
	N252	N	0.903883	0.467142	0.178124
	N253	N	0.080069	0.538309	0.176525
	N254	N	0.080479	0.466591	0.815721
	N255	N	0.904979	0.537913	0.814835
	N256	N	0.172800	0.917837	0.458480
	N257	N	0.173181	0.089607	0.531312
	N258	N	0.815764	0.088940	0.458692
	N259	N	0.815277	0.916709	0.531436
	N260	N	0.457839	0.180578	0.908329
	N261	N	0.529580	0.181120	0.082247
	N262	N	0.456970	0.823280	0.081051
	N263	N	0.528747	0.821750	0.906452
	N264	N	0.459039	0.912865	0.176589
	N265	N	0.531460	0.086945	0.173305
	N266	N	0.458662	0.088601	0.815463
	N267	N	0.530649	0.916587	0.815943
	N268	N	0.904587	0.185781	0.461135
	N269	N	0.081303	0.183757	0.531250
	N270	N	0.084167	0.819880	0.460786
	N271	N	0.906945	0.821926	0.530943
	N272	N	0.172593	0.465281	0.910103
	N273	N	0.173614	0.538245	0.082914
	N274	N	0.812363	0.466022	0.083179
	N275	N	0.811630	0.537786	0.908758
	O276	O	0.584455	0.418113	0.347301
	H277	H	0.598311	0.405808	0.362876
	H278	H	0.567811	0.413369	0.353773
	O279	O	0.560949	0.459596	0.356060
	H280	H	0.567318	0.460524	0.367266
	H281	H	0.558923	0.443048	0.361079
	O282	O	0.634053	0.677388	0.668103
	H283	H	0.635111	0.655139	0.683939
	H284	H	0.621346	0.672188	0.663724
	O285	O	1.154280	-0.174793	0.021139
	H286	H	1.166518	-0.183674	0.017537
	H287	H	1.126450	-0.173464	0.040463
	O288	O	-0.182743	-0.178996	1.173707
	H289	H	-0.193419	-0.189185	1.122575
	H290	H	-0.176135	-0.157496	1.183744
	O291	O	0.462696	0.592786	0.557477
	H292	H	0.468560	0.591899	0.537388
	H293	H	0.460788	0.585280	0.552507
	O294	O	0.340662	0.617875	0.475185
	H295	H	0.346062	0.612506	0.460046
	H296	H	0.338883	0.618522	0.468833
	O297	O	0.836038	1.061182	0.965431
	H298	H	0.833111	1.047877	0.971412
	H299	H	0.847040	1.058503	0.968882
	O300	O	-0.179629	-0.011163	0.168681
	H301	H	-0.175475	-0.014593	0.171794
	H302	H	-0.193444	-0.010024	0.180551
	O303	O	0.340137	0.446775	0.447774
	H304	H	0.347445	0.448704	0.438306
	H305	H	0.340341	0.466711	0.460321
	O306	O	0.860957	0.066636	-0.000221
	H307	H	0.876450	0.061424	0.003784
	H308	H	0.852275	0.064297	-0.008269
	O309	O	0.432494	0.487814	0.511813
	H310	H	0.430947	0.504565	0.497876
	H311	H	0.406295	0.480559	0.513726
	O312	O	0.974241	1.072575	-0.156429
	H313	H	0.967944	1.071332	-0.137593
	H314	H	0.993798	1.084906	-0.153198
	O315	O	0.481200	0.349261	0.633244
	H316	H	0.482344	0.371872	0.642406
	H317	H	0.499413	0.337712	0.649275
	O318	O	0.565541	0.562989	0.630251
	H319	H	0.553472	0.563364	0.633255
	H320	H	0.559826	0.563904	0.634007
	O321	O	1.065284	0.091915	1.099693
	H322	H	1.072648	0.098795	1.086160
	H323	H	1.052656	0.099258	1.117577
	O324	O	0.179358	-0.174828	0.804270
	H325	H	0.165551	-0.180531	0.818352
	H326	H	0.193137	-0.167322	0.822985
	O327	O	0.458052	0.532199	0.342678
	H328	H	0.451095	0.547703	0.337488
	H329	H	0.461610	0.531169	0.339507
	O330	O	0.648028	0.522986	0.568317
	H331	H	0.647991	0.525435	0.564379
	H332	H	0.645153	0.529820	0.571338
	O333	O	1.000911	1.190969	0.894671
	H334	H	0.990135	1.192239	0.895936
	H335	H	1.004331	1.193336	0.901647
	O336	O	0.356287	0.546654	0.521942
	H337	H	0.356868	0.528624	0.531269
	H338	H	0.362445	0.543896	0.511258
	O339	O	1.036750	0.099503	0.825597
	H340	H	1.038534	0.101754	0.826251
	H341	H	1.041493	0.090476	0.821851
	O342	O	0.006903	1.071248	1.110928
	H343	H	0.014324	1.071251	1.113041
	H344	H	0.008060	1.078002	1.104067
	O345	O	0.096041	0.970492	1.053487
	H346	H	0.110633	0.973257	1.069154
	H347	H	0.086090	0.990207	1.042813
	O348	O	0.591770	0.428681	0.404187
	H349	H	0.616771	0.431945	0.385854
	H350	H	0.594330	0.408071	0.411791
	O351	O	-0.094190	-0.167499	-0.064849
	H352	H	-0.094094	-0.167387	-0.071360
	H353	H	-0.090558	-0.178749	-0.083284
	O354	O	1.364942	1.297092	0.264310
	H355	H	1.370746	1.309460	0.265368
	H356	H	1.373651	1.307803	0.266599
	O357	O	-0.168837	1.056565	-0.188817
	H358	H	-0.157477	1.062391	-0.182263
	H359	H	-0.180803	1.061141	-0.197201
	O360	O	0.495529	0.384369	0.349090
	H361	H	0.496721	0.367457	0.351240
	H362	H	0.502094	0.381382	0.346533
	O363	O	0.589179	0.633724	0.456763
	H364	H	0.585721	0.620671	0.474488
	H365	H	0.609282	0.642647	0.460961
	O366	O	0.558904	0.645677	0.602765
	H367	H	0.554797	0.641410	0.600127
	H368	H	0.556831	0.653842	0.607647
	O369	O	0.285292	0.365807	0.637330
	H370	H	0.283688	0.356231	0.649715
	H371	H	0.269446	0.353228	0.653582
	O372	O	0.591209	0.599086	0.516567
	H373	H	0.592316	0.600718	0.508560
	H374	H	0.583928	0.615509	0.507898
	O375	O	0.440571	0.310088	0.675088
	H376	H	0.448730	0.303793	0.686088
	H377	H	0.444366	0.298579	0.654777
	O378	O	1.087958	0.002345	0.052496
	H379	H	1.087080	-0.007446	0.046065
	H380	H	1.076068	-0.001156	0.058625
	O381	O	0.432819	0.596856	0.417790
	H382	H	0.442724	0.602870	0.398716
	H383	H	0.434833	0.579532	0.417660
	O384	O	-0.026863	0.787081	1.178813
	H385	H	-0.030124	0.782419	1.181493
	H386	H	-0.046726	0.777016	1.193438
	O387	O	0.909311	1.025336	-0.085460
	H388	H	0.910241	1.025675	-0.094131
	H389	H	0.909078	1.012613	-0.085741
	O390	O	0.483001	0.305994	0.473424
	H391	H	0.471581	0.302459	0.474517
	H392	H	0.485156	0.312124	0.471342
	O393	O	0.919574	0.136610	1.139205
	H394	H	0.922807	0.140576	1.154663
	H395	H	0.911170	0.132295	1.132500
	O396	O	0.163081	1.027807	1.008117
	H397	H	0.165400	1.031374	1.023717
	H398	H	0.172935	1.025778	1.004737
	O399	O	0.646244	0.439408	0.616046
	H400	H	0.621615	0.427654	0.625942
	H401	H	0.661705	0.442848	0.638632
	O402	O	0.818690	-0.178132	0.996556
	H403	H	0.826262	-0.154245	0.974160
	H404	H	0.816472	-0.197449	0.994820
	O405	O	0.068327	-0.081801	0.098598
	H406	H	0.075096	-0.077556	0.101713
	H407	H	0.060387	-0.102229	0.112072
	O408	O	1.017149	1.146944	1.071226
	H409	H	1.014918	1.154145	1.060384
	H410	H	1.006160	1.135213	1.080570
	O411	O	1.149748	1.002401	-0.074928
	H412	H	1.169863	0.982403	-0.086558
	H413	H	1.141575	1.000644	-0.061137
	O414	O	0.083917	0.045681	1.019798
	H415	H	0.081097	0.035687	1.012827
	H416	H	0.098120	0.055853	1.023015
	O417	O	0.433246	0.599229	0.430046
	H418	H	0.444527	0.610840	0.440238
	H419	H	0.427301	0.612661	0.432644
	O420	O	0.160360	1.072840	-0.198052
	H421	H	0.158213	1.062479	-0.217659
	H422	H	0.153833	1.047732	-0.174172
	O423	O	0.981597	0.092389	0.207049
	H424	H	0.975506	0.105641	0.203721
	H425	H	0.992349	0.080174	0.210959
	O426	O	0.031468	-0.168755	0.803489
	H427	H	0.049579	-0.169033	0.800984
	H428	H	0.049327	-0.176596	0.793307
	O429	O	0.585174	0.360692	0.591872
	H430	H	0.594346	0.353087	0.593399
	H431	H	0.594005	0.380511	0.596777
