data_Molecule from HDF5

_cell_length_a		16.622432
_cell_length_b		16.588320
_cell_length_c		16.590630
_cell_angle_alpha	89.992606
_cell_angle_beta	89.999515
_cell_angle_gamma	89.952158
_symmetry_space_group_name_H-M	'P 1'
_symmetry_Int_Tables_number		1

loop_
	_symmetry_equiv_pos_as_xyz
	x,y,z

loop_
	_atom_site_label
	_atom_site_type_symbol
	_atom_site_fract_x
	_atom_site_fract_y
	_atom_site_fract_z
	H0	H	0.425792	0.833973	0.725247
	H1	H	0.640319	0.143163	0.725490
	H2	H	0.638759	0.833092	0.280602
	H3	H	0.429872	0.145130	0.282785
	H4	H	0.754758	0.381565	0.846615
	H5	H	0.752499	0.592576	0.158056
	H6	H	0.308564	0.595560	0.847301
	H7	H	0.309159	0.380011	0.156398
	H8	H	0.878248	0.709598	0.397504
	H9	H	0.188433	0.710710	0.608801
	H10	H	0.877645	0.268076	0.605984
	H11	H	0.188732	0.266400	0.396804
	H12	H	0.875839	0.385198	0.721412
	H13	H	0.187526	0.595291	0.726355
	H14	H	0.878234	0.593749	0.281756
	H15	H	0.187571	0.380195	0.278541
	H16	H	0.424844	0.712096	0.847301
	H17	H	0.634944	0.707517	0.158830
	H18	H	0.638272	0.266489	0.846353
	H19	H	0.427866	0.267000	0.157443
	H20	H	0.755062	0.833193	0.395788
	H21	H	0.755890	0.144018	0.609055
	H22	H	0.309225	0.834084	0.610879
	H23	H	0.312284	0.143896	0.397396
	H24	H	0.929782	0.332067	0.222397
	H25	H	0.137011	0.644965	0.221946
	H26	H	0.135534	0.331571	0.782648
	H27	H	0.929063	0.645123	0.783660
	H28	H	0.254450	0.883675	0.345686
	H29	H	0.255838	0.093875	0.658580
	H30	H	0.813837	0.091548	0.346125
	H31	H	0.812308	0.883426	0.657878
	H32	H	0.377693	0.212031	0.894060
	H33	H	0.689093	0.207510	0.104789
	H34	H	0.377974	0.764889	0.109671
	H35	H	0.686793	0.764300	0.894962
	H36	H	0.376889	0.882784	0.223516
	H37	H	0.689739	0.089950	0.219678
	H38	H	0.378570	0.096154	0.777583
	H39	H	0.686111	0.879818	0.777966
	H40	H	0.931002	0.208058	0.346258
	H41	H	0.139985	0.210393	0.659559
	H42	H	0.139706	0.766724	0.346585
	H43	H	0.930358	0.768623	0.658436
	H44	H	0.252619	0.331729	0.897159
	H45	H	0.254796	0.644024	0.107977
	H46	H	0.812513	0.332195	0.106959
	H47	H	0.812325	0.644754	0.898841
	H48	H	0.448035	0.099530	0.591901
	H49	H	0.624558	0.875572	0.592814
	H50	H	0.623479	0.101693	0.410291
	H51	H	0.445337	0.876422	0.415523
	H52	H	0.617745	0.398547	0.112509
	H53	H	0.618719	0.577589	0.890447
	H54	H	0.442299	0.575005	0.113841
	H55	H	0.448080	0.402218	0.891904
	H56	H	0.144538	0.578911	0.416909
	H57	H	0.921373	0.583274	0.587175
	H58	H	0.143313	0.404769	0.594027
	H59	H	0.920242	0.403062	0.406183
	H60	H	0.147380	0.396768	0.595923
	H61	H	0.924521	0.572373	0.590010
	H62	H	0.144296	0.571995	0.412832
	H63	H	0.919021	0.390956	0.413443
	H64	H	0.445549	0.573587	0.111758
	H65	H	0.624195	0.578508	0.888946
	H66	H	0.624280	0.394196	0.115860
	H67	H	0.443681	0.395399	0.888305
	H68	H	0.621665	0.100853	0.412203
	H69	H	0.618623	0.878187	0.589883
	H70	H	0.447543	0.096711	0.585584
	H71	H	0.441208	0.874835	0.412564
	H72	H	0.939631	0.601722	0.092810
	H73	H	0.116782	0.378517	0.090745
	H74	H	0.115436	0.597037	0.917129
	H75	H	0.942322	0.373693	0.906784
	H76	H	0.130481	0.901084	0.615200
	H77	H	0.122859	0.074805	0.392226
	H78	H	0.952313	0.074584	0.610848
	H79	H	0.933508	0.899571	0.386043
	H80	H	0.642219	0.074737	0.915845
	H81	H	0.421881	0.079861	0.087156
	H82	H	0.645812	0.900336	0.097471
	H83	H	0.423182	0.900298	0.918232
	H84	H	0.645264	0.892014	0.089159
	H85	H	0.420719	0.074015	0.094902
	H86	H	0.643993	0.075672	0.912352
	H87	H	0.423790	0.905063	0.914301
	H88	H	0.943214	0.085813	0.618123
	H89	H	0.119778	0.080217	0.392428
	H90	H	0.118185	0.905099	0.609984
	H91	H	0.948697	0.907146	0.394340
	H92	H	0.124968	0.600106	0.918176
	H93	H	0.121838	0.378429	0.085757
	H94	H	0.945054	0.600535	0.094461
	H95	H	0.947006	0.378073	0.914091
	H96	H	0.442627	0.100567	0.588501
	H97	H	0.624580	0.877963	0.586175
	H98	H	0.624497	0.101417	0.413312
	H99	H	0.445517	0.875948	0.410041
	H100	H	0.624962	0.402363	0.113772
	H101	H	0.622540	0.573370	0.891003
	H102	H	0.445058	0.577833	0.112961
	H103	H	0.439240	0.403110	0.889624
	H104	H	0.147490	0.579253	0.409414
	H105	H	0.919537	0.579318	0.597995
	H106	H	0.144334	0.398632	0.587543
	H107	H	0.925530	0.402684	0.419207
	H108	H	0.942997	0.599669	0.089002
	H109	H	0.123183	0.375722	0.092313
	H110	H	0.120625	0.601037	0.909147
	H111	H	0.937859	0.375578	0.915434
	H112	H	0.119220	0.892651	0.615593
	H113	H	0.125534	0.080000	0.389824
	H114	H	0.937164	0.072115	0.615060
	H115	H	0.949492	0.889352	0.388737
	H116	H	0.643424	0.078495	0.915173
	H117	H	0.417476	0.083648	0.095484
	H118	H	0.640857	0.902978	0.086953
	H119	H	0.420577	0.900001	0.912365
	C120	C	0.412636	-0.003401	0.622442
	C121	C	0.654944	0.979841	0.623010
	C122	C	0.654682	-0.002396	0.380480
	C123	C	0.412253	0.979373	0.380911
	C124	C	0.654674	0.366247	0.011067
	C125	C	0.653021	0.608728	0.993596
	C126	C	0.411008	0.609288	0.010413
	C127	C	0.411312	0.366934	0.992856
	C128	C	0.042394	0.609249	0.381118
	C129	C	1.024547	0.610642	0.624594
	C130	C	0.041816	0.367783	0.623935
	C131	C	1.024452	0.366486	0.380424
	C132	C	0.911216	0.497072	0.123975
	C133	C	0.153947	0.479891	0.122847
	C134	C	0.153022	0.496478	0.881841
	C135	C	0.910705	0.479911	0.880997
	C136	C	0.154623	0.867576	0.510369
	C137	C	0.155305	0.110607	0.494615
	C138	C	0.912633	0.109149	0.511156
	C139	C	0.912365	0.867279	0.493380
	C140	C	0.540602	0.109198	0.880906
	C141	C	0.524323	0.109458	0.122993
	C142	C	0.541284	0.866290	0.123617
	C143	C	0.524218	0.867256	0.880954
	C144	C	0.408689	0.880233	0.684344
	C145	C	0.658268	0.096419	0.684805
	C146	C	0.656996	0.880016	0.320533
	C147	C	0.410783	0.097709	0.322154
	C148	C	0.714665	0.363883	0.893623
	C149	C	0.712541	0.610913	0.111245
	C150	C	0.349717	0.613138	0.893551
	C151	C	0.350051	0.362889	0.109744
	C152	C	0.925206	0.669535	0.379153
	C153	C	0.141759	0.670613	0.627144
	C154	C	0.924195	0.307703	0.625264
	C155	C	0.141705	0.306180	0.378313
	C156	C	0.923478	0.366007	0.682409
	C157	C	0.141152	0.613615	0.685770
	C158	C	0.924984	0.611626	0.321706
	C159	C	0.141089	0.362954	0.319527
	C160	C	0.407253	0.671217	0.893835
	C161	C	0.654081	0.667979	0.111591
	C162	C	0.656763	0.306378	0.893402
	C163	C	0.409038	0.306601	0.110433
	C164	C	0.714998	0.880240	0.377878
	C165	C	0.716027	0.096829	0.627151
	C166	C	0.350348	0.880598	0.627489
	C167	C	0.352450	0.097188	0.379203
	C168	C	0.910631	0.379025	0.182812
	C169	C	0.156095	0.597549	0.182809
	C170	C	0.154588	0.378787	0.822052
	C171	C	0.909839	0.597848	0.822682
	C172	C	0.214473	0.865237	0.392825
	C173	C	0.215749	0.112391	0.611766
	C174	C	0.853818	0.110517	0.393091
	C175	C	0.852812	0.865358	0.611096
	C176	C	0.424185	0.170757	0.876670
	C177	C	0.642419	0.167656	0.123385
	C178	C	0.424218	0.805746	0.126993
	C179	C	0.640105	0.804853	0.876766
	C180	C	0.423889	0.864300	0.183684
	C181	C	0.642500	0.109514	0.180760
	C182	C	0.424610	0.113289	0.818699
	C183	C	0.639960	0.862540	0.818896
	C184	C	0.911976	0.168083	0.392930
	C185	C	0.157925	0.170274	0.612299
	C186	C	0.157428	0.807026	0.393246
	C187	C	0.911335	0.808158	0.611375
	C188	C	0.212831	0.378868	0.879204
	C189	C	0.214829	0.597096	0.126201
	C190	C	0.852421	0.379245	0.125469
	C191	C	0.851872	0.597684	0.879988
	C192	C	0.438734	0.077827	0.596139
	C193	C	0.629565	0.898507	0.597025
	C194	C	0.630092	0.079842	0.405058
	C195	C	0.437075	0.897131	0.405698
	C196	C	0.629540	0.391359	0.092629
	C197	C	0.628748	0.583823	0.911543
	C198	C	0.436803	0.582946	0.091757
	C199	C	0.436764	0.392784	0.911106
	C200	C	0.124285	0.583936	0.406039
	C201	C	0.943155	0.585433	0.599152
	C202	C	0.123680	0.392848	0.599459
	C203	C	0.942759	0.391722	0.405749
	C204	C	0.935650	0.579295	0.099257
	C205	C	0.128106	0.398572	0.096944
	C206	C	0.127535	0.578349	0.907574
	C207	C	0.935337	0.397327	0.905338
	C208	C	0.129687	0.892598	0.592358
	C209	C	0.129804	0.085606	0.412690
	C210	C	0.937166	0.084651	0.593334
	C211	C	0.936874	0.891849	0.411008
	C212	C	0.621919	0.083529	0.906774
	C213	C	0.441680	0.086053	0.099415
	C214	C	0.622693	0.891280	0.098360
	C215	C	0.443506	0.894022	0.907397
	Zn216	Zn	0.532943	-0.011702	0.751640
	Zn217	Zn	0.532908	-0.011840	0.252011
	Zn218	Zn	0.782833	0.488275	0.002849
	Zn219	Zn	0.282781	0.488114	0.001959
	Zn220	Zn	0.033954	0.738382	0.502137
	Zn221	Zn	0.033644	0.238652	0.502941
	Zn222	Zn	0.032265	0.488804	0.752685
	Zn223	Zn	0.033459	0.488508	0.252236
	Zn224	Zn	0.532039	0.738199	0.001981
	Zn225	Zn	0.532363	0.238496	0.001553
	Zn226	Zn	0.783197	-0.011488	0.501908
	Zn227	Zn	0.283710	-0.011793	0.502114
	N228	N	0.446987	0.953541	0.681316
	N229	N	0.621013	0.022711	0.682653
	N230	N	0.620144	0.954097	0.321902
	N231	N	0.446990	0.023245	0.322723
	N232	N	0.713653	0.400380	0.967836
	N233	N	0.712142	0.574727	0.036883
	N234	N	0.351983	0.575296	0.967136
	N235	N	0.351311	0.399759	0.035649
	N236	N	0.999348	0.668197	0.415503
	N237	N	0.068129	0.668913	0.589800
	N238	N	0.998877	0.308427	0.589712
	N239	N	0.068041	0.308169	0.415367
	N240	N	0.997695	0.402259	0.682081
	N241	N	0.067244	0.577125	0.684405
	N242	N	0.998996	0.574870	0.322738
	N243	N	0.067015	0.399814	0.320606
	N244	N	0.444631	0.668973	0.967566
	N245	N	0.617998	0.667030	0.037272
	N246	N	0.620130	0.307512	0.967568
	N247	N	0.446245	0.308810	0.036542
	N248	N	0.713955	0.954418	0.414416
	N249	N	0.714147	0.023240	0.589353
	N250	N	0.352691	0.953978	0.589702
	N251	N	0.352982	0.022413	0.414835
	N252	N	0.946394	0.453565	0.182180
	N253	N	0.119078	0.523624	0.181123
	N254	N	0.118044	0.453064	0.823461
	N255	N	0.945534	0.523245	0.822996
	N256	N	0.213148	0.901954	0.466781
	N257	N	0.213979	0.075736	0.537561
	N258	N	0.854050	0.074684	0.467649
	N259	N	0.853134	0.901089	0.536544
	N260	N	0.497368	0.168387	0.914602
	N261	N	0.567749	0.167952	0.088212
	N262	N	0.498069	0.806964	0.090129
	N263	N	0.566933	0.807660	0.914744
	N264	N	0.497695	0.901304	0.181863
	N265	N	0.567965	0.074152	0.180712
	N266	N	0.498101	0.075534	0.821258
	N267	N	0.566757	0.900761	0.821384
	N268	N	0.947719	0.167604	0.467484
	N269	N	0.121031	0.169417	0.538263
	N270	N	0.120832	0.808409	0.467544
	N271	N	0.947316	0.808905	0.536840
	N272	N	0.211914	0.453289	0.915624
	N273	N	0.213798	0.522750	0.089814
	N274	N	0.852728	0.453649	0.089574
	N275	N	0.852248	0.523028	0.915474
	O276	O	-0.248609	1.453798	0.282537
	H277	H	-0.252128	1.446367	0.285494
	H278	H	-0.221412	1.462226	0.273716
	O279	O	0.995992	0.797377	0.046699
	H280	H	0.977880	0.791914	0.055558
	H281	H	0.992781	0.800813	0.043203
	O282	O	0.749613	0.270476	0.501848
	H283	H	0.755265	0.260861	0.488029
	H284	H	0.754053	0.265325	0.483103
	O285	O	-0.177702	0.917172	1.160072
	H286	H	-0.178377	0.897741	1.165933
	H287	H	-0.195437	0.900232	1.178959
	O288	O	0.001965	0.051854	0.828916
	H289	H	0.013146	0.035396	0.820101
	H290	H	-0.011471	0.043479	0.835973
	O291	O	0.754798	0.521342	0.723818
	H292	H	0.752477	0.512696	0.746102
	H293	H	0.755942	0.534709	0.741840
	O294	O	0.437602	0.594623	0.640677
	H295	H	0.440371	0.597882	0.649559
	H296	H	0.447142	0.590976	0.640351
	O297	O	0.684551	0.499555	0.424286
	H298	H	0.676238	0.486990	0.421684
	H299	H	0.690266	0.498011	0.432013
	O300	O	-0.428320	0.269194	0.283321
	H301	H	-0.422009	0.269164	0.281834
	H302	H	-0.417303	0.252595	0.265350
	O303	O	0.506503	0.450941	0.507459
	H304	H	0.505310	0.452656	0.502210
	H305	H	0.503913	0.436226	0.497447
	O306	O	0.346807	0.293664	0.382438
	H307	H	0.332865	0.284561	0.378551
	H308	H	0.345256	0.312725	0.381334
	O309	O	0.501046	0.698398	0.292545
	H310	H	0.519642	0.693608	0.303460
	H311	H	0.506306	0.703486	0.278442
	O312	O	0.467932	0.450705	0.408361
	H313	H	0.466978	0.450011	0.388567
	H314	H	0.455459	0.464257	0.417428
	O315	O	0.460852	1.299865	0.625858
	H316	H	0.454979	1.303578	0.603446
	H317	H	0.456366	1.288480	0.627782
	O318	O	1.248735	0.025735	0.216869
	H319	H	1.245017	0.016197	0.208230
	H320	H	1.266091	0.022368	0.236030
	O321	O	0.000325	1.186223	1.084774
	H322	H	-0.023722	1.183642	1.086587
	H323	H	-0.003793	1.186132	1.071463
	O324	O	1.169560	0.943768	-0.131097
	H325	H	1.171433	0.959081	-0.127895
	H326	H	1.178911	0.935846	-0.135322
	O327	O	0.199209	0.033332	0.929563
	H328	H	0.199952	0.057285	0.934725
	H329	H	0.216271	0.026442	0.920612
	O330	O	0.552938	0.685382	0.714426
	H331	H	0.548346	0.692405	0.728292
	H332	H	0.543312	0.684373	0.713131
	O333	O	0.002268	0.895343	0.860913
	H334	H	-0.006820	0.902941	0.858594
	H335	H	0.008197	0.903480	0.868600
	O336	O	0.516199	0.372491	0.567473
	H337	H	0.513198	0.377468	0.557665
	H338	H	0.500428	0.369723	0.560460
	O339	O	0.913240	-0.045356	1.000392
	H340	H	0.903182	-0.027061	0.999658
	H341	H	0.913305	-0.039974	1.004503
	O342	O	0.138488	0.127621	-0.164453
	H343	H	0.132685	0.137028	-0.160305
	H344	H	0.142912	0.109539	-0.169258
	O345	O	-0.404813	1.266628	1.538663
	H346	H	-0.412531	1.263153	1.514535
	H347	H	-0.392557	1.268248	1.532916
	O348	O	0.462831	0.650207	0.518925
	H349	H	0.457714	0.652235	0.508400
	H350	H	0.469704	0.637490	0.528827
	O351	O	0.996762	-0.032507	1.017270
	H352	H	1.004486	-0.029748	1.018019
	H353	H	0.984100	-0.032234	1.022644
	O354	O	0.068699	0.151055	1.163619
	H355	H	0.068437	0.176595	1.185167
	H356	H	0.076132	0.134444	1.139184
	O357	O	0.747050	0.266925	0.286850
	H358	H	0.737263	0.291298	0.289312
	H359	H	0.776045	0.239028	0.256421
	O360	O	0.340463	0.712387	0.489714
	H361	H	0.314032	0.744109	0.484185
	H362	H	0.365449	0.702849	0.461868
	O363	O	-0.057388	-0.041282	-0.086580
	H364	H	-0.056294	-0.051568	-0.079805
	H365	H	-0.056242	-0.036900	-0.094703
	O366	O	0.306791	0.510491	0.281340
	H367	H	0.276022	0.525249	0.248464
	H368	H	0.324173	0.543007	0.286858
	O369	O	1.508347	0.273440	-0.278697
	H370	H	1.502155	0.253817	-0.276506
	H371	H	1.507221	0.261511	-0.287036
	O372	O	0.814371	1.060520	-0.167326
	H373	H	0.805740	1.058443	-0.187699
	H374	H	0.809708	1.065354	-0.176160
	O375	O	1.064181	-0.109803	0.111338
	H376	H	1.059369	-0.116789	0.110187
	H377	H	1.066157	-0.109975	0.109352
	O378	O	-0.688370	0.366647	0.483416
	H379	H	-0.703749	0.372186	0.480358
	H380	H	-0.693292	0.392200	0.470724
	O381	O	-0.191336	0.813785	1.004159
	H382	H	-0.195431	0.831016	1.019587
	H383	H	-0.214169	0.789264	1.000194
	O384	O	1.183578	-0.088966	1.066715
	H385	H	1.187582	-0.080122	1.067499
	H386	H	1.177636	-0.091179	1.053083
	O387	O	0.851214	1.115268	-0.016937
	H388	H	0.843125	1.122053	-0.032240
	H389	H	0.843604	1.121260	-0.039362
	O390	O	0.268890	0.225305	0.240100
	H391	H	0.265772	0.214598	0.240738
	H392	H	0.247764	0.233607	0.232497
	O393	O	1.246966	0.963009	-0.208051
	H394	H	1.251983	0.948137	-0.223134
	H395	H	1.254599	0.956350	-0.199155
	O396	O	0.238103	1.199375	1.026548
	H397	H	0.240253	1.215343	1.021471
	H398	H	0.239776	1.199515	1.041257
	O399	O	-0.133450	-0.037633	1.051456
	H400	H	-0.124829	-0.021096	1.052571
	H401	H	-0.136858	-0.027925	1.053824
	O402	O	0.671204	-0.275170	0.370450
	H403	H	0.653420	-0.295440	0.380066
	H404	H	0.659573	-0.277679	0.375787
	O405	O	0.849767	0.176808	0.818747
	H406	H	0.866645	0.158903	0.814590
	H407	H	0.862110	0.190637	0.801378
	O408	O	0.137965	0.020926	0.205844
	H409	H	0.131327	0.012357	0.213386
	H410	H	0.148791	0.013793	0.179345
	O411	O	0.485292	0.332531	0.494079
	H412	H	0.474236	0.326855	0.484546
	H413	H	0.480756	0.327309	0.488680
	O414	O	0.555197	0.515155	0.385216
	H415	H	0.552221	0.510654	0.397522
	H416	H	0.565281	0.502689	0.372327
	O417	O	-0.646932	0.674763	0.681668
	H418	H	-0.632061	0.653152	0.673816
	H419	H	-0.626191	0.674970	0.665106
	O420	O	0.107401	1.112688	0.877518
	H421	H	0.110532	1.105308	0.892304
	H422	H	0.113474	1.108058	0.882951
	O423	O	-0.155130	-0.196050	0.812185
	H424	H	-0.141377	-0.195384	0.808137
	H425	H	-0.146704	-0.181545	0.837017
	O426	O	0.318528	0.467018	0.717748
	H427	H	0.321578	0.435221	0.717189
	H428	H	0.310784	0.455200	0.734961
	O429	O	0.845337	1.167976	1.179537
	H430	H	0.855141	1.140464	1.169237
	H431	H	0.868081	1.159613	1.156910
	O432	O	0.140141	0.775712	0.789230
	H433	H	0.157151	0.742400	0.759692
	H434	H	0.128484	0.776483	0.806238
	O435	O	-0.557425	0.587130	0.472030
	H436	H	-0.568031	0.589449	0.497985
	H437	H	-0.556914	0.593361	0.483112
	O438	O	-0.340113	0.532289	-0.612214
	H439	H	-0.337524	0.515202	-0.614614
	H440	H	-0.347383	0.540788	-0.600620
	O441	O	0.218634	-0.158927	0.155972
	H442	H	0.210818	-0.152973	0.144776
	H443	H	0.207797	-0.153701	0.139335
	O444	O	0.739836	0.692183	0.705246
	H445	H	0.753416	0.673728	0.706240
	H446	H	0.718600	0.709422	0.719300
	O447	O	0.035989	0.831940	1.174146
	H448	H	0.035402	0.832568	1.186337
	H449	H	0.042358	0.832956	1.168394
	O450	O	-0.126202	0.778953	1.209192
	H451	H	-0.121560	0.776828	1.219330
	H452	H	-0.144055	0.771358	1.234308
	O453	O	0.334003	-0.318353	1.307786
	H454	H	0.375817	-0.311309	1.296956
	H455	H	0.326591	-0.306009	1.313261
	O456	O	-0.003215	0.205371	0.787902
	H457	H	0.009190	0.221710	0.765573
	H458	H	0.019292	0.198221	0.797238
	O459	O	0.042872	0.028830	0.112469
	H460	H	0.049113	0.027964	0.107625
	H461	H	0.026069	0.029875	0.116081
	O462	O	0.749801	0.695977	0.491383
	H463	H	0.762904	0.712788	0.501739
	H464	H	0.750745	0.690337	0.513516
	O465	O	0.991879	-0.021605	-0.010649
	H466	H	0.984368	-0.034405	-0.016109
	H467	H	0.979100	-0.017711	-0.008982
	O468	O	0.674572	0.523689	0.525716
	H469	H	0.679319	0.522781	0.531369
	H470	H	0.683745	0.524055	0.535093
	O471	O	0.741597	0.544921	0.518799
	H472	H	0.750258	0.541729	0.538796
	H473	H	0.746746	0.533182	0.525747
	O474	O	0.558664	0.603238	0.540333
	H475	H	0.572071	0.590804	0.550320
	H476	H	0.562134	0.590270	0.537031
	O477	O	0.251232	-0.224311	0.977069
	H478	H	0.243064	-0.224658	0.953260
	H479	H	0.271832	-0.245864	0.969344
	O480	O	0.684842	0.346592	0.720414
	H481	H	0.673993	0.342761	0.709312
	H482	H	0.665912	0.359438	0.710065
	O483	O	0.309575	1.265722	-0.273137
	H484	H	0.315251	1.259832	-0.288621
	H485	H	0.318394	1.258905	-0.286588
	O486	O	0.474893	0.422293	0.280750
	H487	H	0.467113	0.414037	0.277997
	H488	H	0.470290	0.426161	0.281830
	O489	O	1.555220	0.565835	-0.385858
	H490	H	1.557184	0.562104	-0.387499
	H491	H	1.547733	0.565304	-0.378850
