data_Molecule from HDF5

_cell_length_a		16.314318
_cell_length_b		16.313804
_cell_length_c		16.310587
_cell_angle_alpha	90.007261
_cell_angle_beta	89.803184
_cell_angle_gamma	89.955725
_symmetry_space_group_name_H-M	'P 1'
_symmetry_Int_Tables_number		1

loop_
	_symmetry_equiv_pos_as_xyz
	x,y,z

loop_
	_atom_site_label
	_atom_site_type_symbol
	_atom_site_fract_x
	_atom_site_fract_y
	_atom_site_fract_z
	H0	H	0.401794	0.846739	0.714960
	H1	H	0.597611	0.173252	0.714251
	H2	H	0.599614	0.847412	0.284884
	H3	H	0.402150	0.173697	0.285834
	H4	H	0.715201	0.412989	0.837489
	H5	H	0.714281	0.608311	0.163698
	H6	H	0.285533	0.610539	0.837404
	H7	H	0.284139	0.411206	0.163342
	H8	H	0.836663	0.725201	0.402997
	H9	H	0.163428	0.725598	0.598140
	H10	H	0.837486	0.295705	0.600326
	H11	H	0.163298	0.296471	0.401683
	H12	H	0.836985	0.412674	0.715920
	H13	H	0.163630	0.610527	0.715262
	H14	H	0.835835	0.608578	0.287150
	H15	H	0.163133	0.412180	0.285192
	H16	H	0.402646	0.724642	0.837016
	H17	H	0.598108	0.724155	0.163731
	H18	H	0.600118	0.296132	0.837724
	H19	H	0.401961	0.296366	0.164169
	H20	H	0.715868	0.847221	0.401114
	H21	H	0.713888	0.173527	0.598131
	H22	H	0.285500	0.847056	0.598872
	H23	H	0.286125	0.173760	0.402613
	H24	H	0.901472	0.346897	0.214452
	H25	H	0.096845	0.674010	0.214256
	H26	H	0.099986	0.348116	0.784629
	H27	H	0.902636	0.674319	0.787283
	H28	H	0.215389	0.913269	0.336948
	H29	H	0.213609	0.108484	0.664455
	H30	H	0.787561	0.108597	0.337275
	H31	H	0.785910	0.912577	0.663573
	H32	H	0.337245	0.225479	0.903038
	H33	H	0.663474	0.225495	0.099422
	H34	H	0.336688	0.796090	0.099818
	H35	H	0.663422	0.795092	0.901369
	H36	H	0.337244	0.912854	0.216214
	H37	H	0.663530	0.109268	0.215054
	H38	H	0.336868	0.107940	0.787015
	H39	H	0.663733	0.912697	0.785911
	H40	H	0.903695	0.224729	0.337728
	H41	H	0.098817	0.225826	0.664002
	H42	H	0.098338	0.797095	0.336400
	H43	H	0.902877	0.798074	0.664347
	H44	H	0.215183	0.347433	0.901796
	H45	H	0.213480	0.674172	0.097704
	H46	H	0.785680	0.347399	0.098409
	H47	H	0.786421	0.673660	0.903013
	H48	H	0.404658	0.126707	0.592532
	H49	H	0.597933	0.894795	0.584836
	H50	H	0.599681	0.128244	0.408212
	H51	H	0.416995	0.895325	0.401900
	H52	H	0.583463	0.414441	0.114709
	H53	H	0.600448	0.605678	0.882280
	H54	H	0.407960	0.615184	0.119978
	H55	H	0.415752	0.408861	0.883706
	H56	H	0.118774	0.612975	0.403913
	H57	H	0.888089	0.603526	0.583752
	H58	H	0.116964	0.417771	0.593050
	H59	H	0.879771	0.410632	0.402359
	H60	H	0.115408	0.418389	0.591817
	H61	H	0.884945	0.594897	0.601191
	H62	H	0.113012	0.601608	0.415988
	H63	H	0.885631	0.414702	0.416188
	H64	H	0.394724	0.597512	0.118013
	H65	H	0.592685	0.596541	0.886514
	H66	H	0.600363	0.409719	0.121778
	H67	H	0.398496	0.417682	0.881205
	H68	H	0.591512	0.127481	0.401594
	H69	H	0.598669	0.889979	0.600164
	H70	H	0.406092	0.127175	0.596765
	H71	H	0.408995	0.898045	0.418665
	H72	H	0.908049	0.626644	0.094591
	H73	H	0.088954	0.393753	0.098110
	H74	H	0.095352	0.626775	0.908001
	H75	H	0.910667	0.396138	0.913129
	H76	H	0.095447	0.909390	0.620484
	H77	H	0.098110	0.103688	0.383423
	H78	H	0.906544	0.110974	0.619823
	H79	H	0.912753	0.924538	0.386874
	H80	H	0.613392	0.094093	0.907622
	H81	H	0.388617	0.090241	0.093266
	H82	H	0.620007	0.907712	0.096105
	H83	H	0.385094	0.923382	0.904462
	H84	H	0.612918	0.917742	0.083941
	H85	H	0.380022	0.108021	0.105960
	H86	H	0.620926	0.107659	0.897127
	H87	H	0.381001	0.910482	0.903133
	H88	H	0.900526	0.099595	0.617874
	H89	H	0.091991	0.100027	0.386336
	H90	H	0.099500	0.923050	0.616182
	H91	H	0.912160	0.907867	0.382511
	H92	H	0.094710	0.627833	0.905802
	H93	H	0.089295	0.398044	0.087332
	H94	H	0.906394	0.626114	0.092935
	H95	H	0.901316	0.392229	0.907021
	H96	H	0.409223	0.125888	0.593462
	H97	H	0.584539	0.896477	0.594444
	H98	H	0.590469	0.124248	0.411738
	H99	H	0.399186	0.890621	0.404126
	H100	H	0.597511	0.427477	0.115330
	H101	H	0.588251	0.607719	0.884263
	H102	H	0.416750	0.596228	0.112578
	H103	H	0.413112	0.427858	0.889108
	H104	H	0.116067	0.596007	0.399389
	H105	H	0.879788	0.613932	0.598647
	H106	H	0.116137	0.419201	0.592703
	H107	H	0.884861	0.424820	0.404634
	H108	H	0.906498	0.627273	0.095352
	H109	H	0.098749	0.392596	0.091786
	H110	H	0.093290	0.627255	0.907017
	H111	H	0.911424	0.394023	0.902023
	H112	H	0.085888	0.918709	0.613391
	H113	H	0.092005	0.107273	0.384042
	H114	H	0.913001	0.100948	0.614486
	H115	H	0.898414	0.917406	0.381232
	H116	H	0.616018	0.111143	0.915389
	H117	H	0.384716	0.111110	0.083460
	H118	H	0.615523	0.924228	0.099305
	H119	H	0.385731	0.915758	0.915788
	C120	C	0.378613	0.018511	0.622336
	C121	C	0.621762	1.001634	0.621434
	C122	C	0.622775	0.018817	0.378390
	C123	C	0.379535	1.002408	0.379729
	C124	C	0.622585	0.388683	0.009538
	C125	C	0.621664	0.631394	0.992125
	C126	C	0.378670	0.631766	0.008867
	C127	C	0.379430	0.389422	0.992523
	C128	C	0.007876	0.631902	0.379016
	C129	C	0.992114	0.632498	0.622164
	C130	C	0.008728	0.389522	0.622126
	C131	C	0.991405	0.388786	0.379008
	C132	C	0.878073	0.518905	0.122396
	C133	C	0.121347	0.502209	0.122010
	C134	C	0.122996	0.519531	0.878025
	C135	C	0.879243	0.502179	0.879243
	C136	C	0.122616	0.888400	0.508485
	C137	C	0.122144	0.132204	0.492535
	C138	C	0.879217	0.131786	0.509141
	C139	C	0.878984	0.888646	0.491863
	C140	C	0.508738	0.132363	0.878715
	C141	C	0.492002	0.132090	0.122244
	C142	C	0.508753	0.888171	0.122489
	C143	C	0.492048	0.888151	0.878799
	C144	C	0.381127	0.895573	0.677085
	C145	C	0.618411	0.124631	0.676261
	C146	C	0.620132	0.895949	0.323275
	C147	C	0.381935	0.125179	0.324376
	C148	C	0.677864	0.391786	0.886353
	C149	C	0.676477	0.628991	0.115044
	C150	C	0.323940	0.629984	0.885959
	C151	C	0.322931	0.391528	0.114938
	C152	C	0.885042	0.687065	0.382234
	C153	C	0.114926	0.687542	0.618917
	C154	C	0.886079	0.333822	0.620887
	C155	C	0.114582	0.334178	0.381245
	C156	C	0.885789	0.392306	0.677703
	C157	C	0.115100	0.630233	0.676700
	C158	C	0.884708	0.629008	0.324770
	C159	C	0.114472	0.391914	0.323636
	C160	C	0.381770	0.687203	0.886049
	C161	C	0.619118	0.686644	0.114963
	C162	C	0.620579	0.333905	0.886438
	C163	C	0.381018	0.334063	0.115188
	C164	C	0.677872	0.895957	0.380943
	C165	C	0.676477	0.124650	0.618810
	C166	C	0.323512	0.895629	0.619502
	C167	C	0.324053	0.125110	0.382107
	C168	C	0.881161	0.395772	0.176815
	C169	C	0.118155	0.625143	0.176612
	C170	C	0.120181	0.396650	0.822989
	C171	C	0.882020	0.625283	0.824621
	C172	C	0.177436	0.891973	0.385574
	C173	C	0.176099	0.129253	0.615683
	C174	C	0.825165	0.129130	0.385971
	C175	C	0.823700	0.891823	0.614779
	C176	C	0.385850	0.187108	0.882303
	C177	C	0.614987	0.187004	0.119468
	C178	C	0.385739	0.833557	0.120599
	C179	C	0.614823	0.833462	0.881488
	C180	C	0.385832	0.891598	0.178009
	C181	C	0.615034	0.129579	0.177018
	C182	C	0.385759	0.128841	0.824747
	C183	C	0.614875	0.891505	0.823711
	C184	C	0.882850	0.186697	0.386287
	C185	C	0.118866	0.187408	0.615395
	C186	C	0.119698	0.833976	0.385558
	C187	C	0.882022	0.834908	0.615253
	C188	C	0.177658	0.396347	0.880959
	C189	C	0.175667	0.625341	0.118358
	C190	C	0.823719	0.395898	0.118967
	C191	C	0.824132	0.625042	0.881980
	C192	C	0.400150	0.104274	0.600696
	C193	C	0.600118	0.915886	0.599591
	C194	C	0.600449	0.104368	0.400535
	C195	C	0.401857	0.916902	0.401922
	C196	C	0.600366	0.410756	0.095191
	C197	C	0.600174	0.609618	0.906490
	C198	C	0.400208	0.609451	0.094737
	C199	C	0.402374	0.411796	0.906767
	C200	C	0.093674	0.609975	0.400235
	C201	C	0.906713	0.610640	0.600701
	C202	C	0.094105	0.411723	0.599188
	C203	C	0.905503	0.410365	0.401124
	C204	C	0.900405	0.604710	0.100574
	C205	C	0.098924	0.416720	0.099172
	C206	C	0.100916	0.605266	0.900379
	C207	C	0.901349	0.416194	0.900951
	C208	C	0.100301	0.910451	0.594575
	C209	C	0.100387	0.110222	0.406830
	C210	C	0.900474	0.110152	0.595138
	C211	C	0.901278	0.910282	0.405661
	C212	C	0.594803	0.110693	0.900428
	C213	C	0.406423	0.109728	0.100729
	C214	C	0.594311	0.910209	0.099758
	C215	C	0.405958	0.910231	0.901071
	Zn216	Zn	0.500375	0.009888	0.750351
	Zn217	Zn	0.500820	0.010709	0.250429
	Zn218	Zn	0.750300	0.510570	0.000587
	Zn219	Zn	0.250705	0.510682	0.000010
	Zn220	Zn	0.000385	0.760467	0.500686
	Zn221	Zn	0.000517	0.260750	0.501109
	Zn222	Zn	0.000808	0.511121	0.750689
	Zn223	Zn	-0.000772	0.510538	0.250580
	Zn224	Zn	0.499971	0.759822	0.000794
	Zn225	Zn	0.500810	0.260638	0.000957
	Zn226	Zn	0.750959	0.010319	0.500079
	Zn227	Zn	0.250776	0.010718	0.500790
	N228	N	0.414551	0.972878	0.679042
	N229	N	0.585110	0.047192	0.678106
	N230	N	0.586359	0.973266	0.321627
	N231	N	0.415794	0.047943	0.322865
	N232	N	0.679285	0.425048	0.963792
	N233	N	0.678452	0.595619	0.037705
	N234	N	0.321781	0.596351	0.963353
	N235	N	0.321866	0.425056	0.037402
	N236	N	0.962561	0.688983	0.415208
	N237	N	0.037512	0.689056	0.585666
	N238	N	0.963328	0.332084	0.586821
	N239	N	0.037212	0.332251	0.415207
	N240	N	0.962994	0.426394	0.678501
	N241	N	0.037850	0.596668	0.678981
	N242	N	0.962020	0.595292	0.322830
	N243	N	0.036914	0.425022	0.322015
	N244	N	0.415155	0.688154	0.963390
	N245	N	0.585901	0.688559	0.037572
	N246	N	0.586809	0.331857	0.963858
	N247	N	0.415708	0.332863	0.038154
	N248	N	0.679586	0.973315	0.414401
	N249	N	0.678425	0.047273	0.585289
	N250	N	0.321679	0.973151	0.586224
	N251	N	0.322677	0.047811	0.415925
	N252	N	0.914373	0.473334	0.178911
	N253	N	0.085158	0.547659	0.178877
	N254	N	0.087076	0.474188	0.821154
	N255	N	0.915766	0.547875	0.822979
	N256	N	0.179407	0.924851	0.463241
	N257	N	0.178379	0.095630	0.538387
	N258	N	0.822915	0.095779	0.463295
	N259	N	0.821870	0.924438	0.537073
	N260	N	0.463330	0.189231	0.915161
	N261	N	0.537746	0.188679	0.086134
	N262	N	0.463081	0.831445	0.086764
	N263	N	0.537269	0.831429	0.915008
	N264	N	0.463317	0.924878	0.179527
	N265	N	0.537786	0.095726	0.178718
	N266	N	0.463352	0.095607	0.822313
	N267	N	0.537390	0.924850	0.822036
	N268	N	0.915950	0.188392	0.463818
	N269	N	0.086345	0.189463	0.537689
	N270	N	0.086280	0.831967	0.463144
	N271	N	0.915703	0.832940	0.537757
	N272	N	0.179474	0.473762	0.914474
	N273	N	0.177777	0.547730	0.085072
	N274	N	0.821840	0.473345	0.085874
	N275	N	0.822298	0.547613	0.915234
	O276	O	-0.501833	-0.464959	1.574775
	H277	H	-0.500120	-0.461949	1.576866
	H278	H	-0.497954	-0.470309	1.578275
	O279	O	0.409528	0.488535	0.501579
	H280	H	0.406246	0.481121	0.493339
	H281	H	0.412732	0.498052	0.492092
	O282	O	0.446299	0.531189	0.464885
	H283	H	0.434383	0.529245	0.463205
	H284	H	0.439628	0.526654	0.459673
	O285	O	0.434353	0.515847	0.563114
	H286	H	0.444280	0.513604	0.566293
	H287	H	0.433224	0.523933	0.566614
	O288	O	0.484916	0.507853	0.513415
	H289	H	0.487379	0.505353	0.506437
	H290	H	0.478124	0.514073	0.511660
	O291	O	0.449706	0.525865	0.511422
	H292	H	0.450320	0.528259	0.508605
	H293	H	0.441480	0.526112	0.520780
	O294	O	0.408428	0.558810	0.553610
	H295	H	0.405937	0.559426	0.560845
	H296	H	0.413264	0.550219	0.553767
	O297	O	1.463998	-0.443194	-0.471604
	H298	H	1.463676	-0.433961	-0.463303
	H299	H	1.468210	-0.441168	-0.469068
