data_Molecule from HDF5

_cell_length_a		16.400892
_cell_length_b		16.528191
_cell_length_c		16.573666
_cell_angle_alpha	89.928826
_cell_angle_beta	89.805187
_cell_angle_gamma	90.060005
_symmetry_space_group_name_H-M	'P 1'
_symmetry_Int_Tables_number		1

loop_
	_symmetry_equiv_pos_as_xyz
	x,y,z

loop_
	_atom_site_label
	_atom_site_type_symbol
	_atom_site_fract_x
	_atom_site_fract_y
	_atom_site_fract_z
	H0	H	0.397920	0.849698	0.731834
	H1	H	0.613553	0.162832	0.730427
	H2	H	0.616765	0.849690	0.282331
	H3	H	0.396069	0.159540	0.283461
	H4	H	0.726516	0.403396	0.851671
	H5	H	0.723813	0.608549	0.169506
	H6	H	0.284527	0.610857	0.853209
	H7	H	0.281364	0.397352	0.165206
	H8	H	0.848983	0.729844	0.401835
	H9	H	0.162972	0.729076	0.616229
	H10	H	0.846769	0.284685	0.614988
	H11	H	0.163136	0.283120	0.401112
	H12	H	0.848381	0.398556	0.732926
	H13	H	0.162361	0.614477	0.733242
	H14	H	0.848850	0.614735	0.286306
	H15	H	0.162334	0.398785	0.284462
	H16	H	0.397047	0.730738	0.854502
	H17	H	0.610767	0.727712	0.167480
	H18	H	0.612180	0.284659	0.851613
	H19	H	0.396420	0.279797	0.164084
	H20	H	0.729788	0.847965	0.401276
	H21	H	0.727800	0.163013	0.612112
	H22	H	0.281909	0.850828	0.617022
	H23	H	0.283987	0.162393	0.402369
	H24	H	0.904013	0.349457	0.228419
	H25	H	0.117940	0.661677	0.234957
	H26	H	0.113554	0.349894	0.785797
	H27	H	0.897414	0.662671	0.785939
	H28	H	0.228385	0.902749	0.351622
	H29	H	0.228412	0.112978	0.665264
	H30	H	0.790493	0.105613	0.350505
	H31	H	0.784432	0.899147	0.665299
	H32	H	0.347690	0.227440	0.902305
	H33	H	0.662181	0.228009	0.115117
	H34	H	0.347767	0.781539	0.118277
	H35	H	0.664502	0.785139	0.904978
	H36	H	0.348207	0.895674	0.234763
	H37	H	0.661829	0.111646	0.230980
	H38	H	0.348643	0.113122	0.785834
	H39	H	0.664670	0.901752	0.789221
	H40	H	0.902855	0.226492	0.353062
	H41	H	0.114259	0.230720	0.664472
	H42	H	0.115657	0.782828	0.352350
	H43	H	0.899005	0.780769	0.663945
	H44	H	0.226803	0.348259	0.904188
	H45	H	0.232836	0.661684	0.117705
	H46	H	0.787711	0.348443	0.111956
	H47	H	0.784227	0.663707	0.905332
	H48	H	0.420114	0.119967	0.605769
	H49	H	0.592452	0.893060	0.601425
	H50	H	0.590600	0.116559	0.414449
	H51	H	0.420114	0.894735	0.422762
	H52	H	0.591065	0.409330	0.121715
	H53	H	0.599228	0.593169	0.897854
	H54	H	0.410826	0.596973	0.124877
	H55	H	0.416504	0.416846	0.896408
	H56	H	0.117764	0.594305	0.424154
	H57	H	0.893181	0.593970	0.597126
	H58	H	0.116767	0.416331	0.590875
	H59	H	0.896159	0.423316	0.424581
	H60	H	0.116994	0.424645	0.599475
	H61	H	0.893909	0.592278	0.596286
	H62	H	0.117218	0.590298	0.420639
	H63	H	0.891650	0.419359	0.414241
	H64	H	0.419295	0.582332	0.116918
	H65	H	0.590467	0.593326	0.901020
	H66	H	0.600166	0.414317	0.122889
	H67	H	0.418543	0.416836	0.898515
	H68	H	0.594937	0.114111	0.424946
	H69	H	0.593151	0.893901	0.596600
	H70	H	0.425494	0.113301	0.593595
	H71	H	0.418887	0.894087	0.423257
	H72	H	0.912902	0.621153	0.098005
	H73	H	0.091647	0.397223	0.093770
	H74	H	0.090154	0.616218	0.921624
	H75	H	0.913241	0.393005	0.921288
	H76	H	0.090262	0.924358	0.616151
	H77	H	0.096759	0.104726	0.393150
	H78	H	0.916700	0.094914	0.622693
	H79	H	0.914727	0.920324	0.396536
	H80	H	0.620368	0.095817	0.917222
	H81	H	0.392730	0.089378	0.099301
	H82	H	0.618131	0.919350	0.101222
	H83	H	0.393143	0.919285	0.920241
	H84	H	0.618045	0.914061	0.095085
	H85	H	0.391397	0.095024	0.095347
	H86	H	0.618950	0.096586	0.920924
	H87	H	0.392480	0.915856	0.920293
	H88	H	0.917176	0.094541	0.622134
	H89	H	0.101815	0.088184	0.397345
	H90	H	0.088346	0.911612	0.619952
	H91	H	0.924902	0.917203	0.398664
	H92	H	0.095607	0.617784	0.923404
	H93	H	0.095661	0.393708	0.098497
	H94	H	0.915000	0.621495	0.102633
	H95	H	0.919918	0.393793	0.917073
	H96	H	0.412168	0.119452	0.593521
	H97	H	0.597339	0.892759	0.599763
	H98	H	0.601909	0.119555	0.416666
	H99	H	0.419480	0.893927	0.422253
	H100	H	0.592165	0.419176	0.119010
	H101	H	0.593874	0.601006	0.896744
	H102	H	0.428880	0.598376	0.119296
	H103	H	0.418087	0.414707	0.897405
	H104	H	0.119245	0.594784	0.418730
	H105	H	0.893783	0.592297	0.598280
	H106	H	0.121007	0.413409	0.601093
	H107	H	0.892610	0.411711	0.423411
	H108	H	0.917822	0.619286	0.098599
	H109	H	0.089307	0.396340	0.100206
	H110	H	0.094066	0.618479	0.917978
	H111	H	0.918755	0.397457	0.924024
	H112	H	0.100364	0.917028	0.622048
	H113	H	0.085243	0.093909	0.401540
	H114	H	0.916976	0.095238	0.622159
	H115	H	0.918005	0.910748	0.394086
	H116	H	0.618451	0.092645	0.919138
	H117	H	0.394483	0.089468	0.092835
	H118	H	0.614615	0.921225	0.093893
	H119	H	0.393390	0.917690	0.922801
	C120	C	0.384798	0.014763	0.631017
	C121	C	0.627760	0.997043	0.630661
	C122	C	0.628557	0.013094	0.386210
	C123	C	0.385467	0.997128	0.388896
	C124	C	0.627080	0.383638	0.017459
	C125	C	0.626775	0.627381	1.002420
	C126	C	0.385347	0.626540	0.017744
	C127	C	0.383580	0.382893	1.000348
	C128	C	0.014583	0.627403	0.387665
	C129	C	0.997546	0.626605	0.630231
	C130	C	0.014037	0.384780	0.630340
	C131	C	0.997590	0.385125	0.387964
	C132	C	0.884196	0.516137	0.131293
	C133	C	0.127397	0.498588	0.130990
	C134	C	0.126976	0.514113	0.887858
	C135	C	0.884381	0.498358	0.888180
	C136	C	0.127318	0.884996	0.516635
	C137	C	0.127954	0.128444	0.500273
	C138	C	0.885292	0.126555	0.518056
	C139	C	0.885404	0.883179	0.499562
	C140	C	0.514527	0.127291	0.887004
	C141	C	0.496675	0.125263	0.129199
	C142	C	0.513400	0.883986	0.130857
	C143	C	0.497542	0.885110	0.888536
	C144	C	0.380772	0.897135	0.691780
	C145	C	0.631319	0.115452	0.690387
	C146	C	0.633158	0.896176	0.323845
	C147	C	0.379815	0.113370	0.325288
	C148	C	0.687002	0.384005	0.898954
	C149	C	0.685050	0.627727	0.121617
	C150	C	0.324428	0.629454	0.900370
	C151	C	0.321731	0.379372	0.118004
	C152	C	0.896574	0.689333	0.384089
	C153	C	0.115730	0.688609	0.633949
	C154	C	0.894910	0.324072	0.633514
	C155	C	0.115736	0.324061	0.384055
	C156	C	0.895600	0.381056	0.691957
	C157	C	0.115451	0.631283	0.692013
	C158	C	0.896398	0.631981	0.326323
	C159	C	0.115471	0.381889	0.326130
	C160	C	0.380301	0.689312	0.901250
	C161	C	0.628712	0.687128	0.120828
	C162	C	0.629774	0.325099	0.898859
	C163	C	0.378799	0.320662	0.117441
	C164	C	0.689626	0.895384	0.383261
	C165	C	0.688409	0.115582	0.631513
	C166	C	0.322746	0.897451	0.634484
	C167	C	0.323826	0.114887	0.384580
	C168	C	0.884213	0.396585	0.189097
	C169	C	0.133870	0.615138	0.193323
	C170	C	0.130832	0.396817	0.826667
	C171	C	0.880682	0.615976	0.827065
	C172	C	0.188732	0.883144	0.398803
	C173	C	0.188439	0.130967	0.618066
	C174	C	0.828318	0.126120	0.398580
	C175	C	0.824148	0.880433	0.617825
	C176	C	0.395299	0.187434	0.884378
	C177	C	0.614812	0.187151	0.132785
	C178	C	0.395048	0.822103	0.135209
	C179	C	0.616908	0.825368	0.886536
	C180	C	0.395277	0.879013	0.193316
	C181	C	0.614623	0.129405	0.190650
	C182	C	0.395875	0.130459	0.826322
	C183	C	0.616910	0.883218	0.828685
	C184	C	0.884181	0.186072	0.399762
	C185	C	0.131820	0.189930	0.617635
	C186	C	0.132293	0.823599	0.399272
	C187	C	0.881223	0.821805	0.617347
	C188	C	0.186952	0.395745	0.886022
	C189	C	0.191471	0.615037	0.135145
	C190	C	0.826576	0.396249	0.131359
	C191	C	0.823886	0.616433	0.886111
	C192	C	0.411494	0.096286	0.605043
	C193	C	0.601736	0.914694	0.606058
	C194	C	0.602976	0.095462	0.411415
	C195	C	0.411923	0.915558	0.415268
	C196	C	0.601707	0.407654	0.099755
	C197	C	0.601668	0.602969	0.920102
	C198	C	0.411913	0.600185	0.099102
	C199	C	0.409983	0.408824	0.918766
	C200	C	0.096860	0.600721	0.413704
	C201	C	0.915190	0.600415	0.604488
	C202	C	0.096698	0.410684	0.604414
	C203	C	0.914831	0.410838	0.413788
	C204	C	0.908399	0.598921	0.107004
	C205	C	0.100099	0.417022	0.104902
	C206	C	0.100793	0.596039	0.913795
	C207	C	0.910108	0.416225	0.913467
	C208	C	0.100628	0.910352	0.598054
	C209	C	0.102004	0.102906	0.418598
	C210	C	0.909798	0.101881	0.600808
	C211	C	0.911528	0.908647	0.417920
	C212	C	0.597613	0.102306	0.911898
	C213	C	0.414290	0.098851	0.103334
	C214	C	0.595460	0.910706	0.104339
	C215	C	0.414529	0.910188	0.913807
	Zn216	Zn	0.506276	0.005853	0.759510
	Zn217	Zn	0.505084	0.004436	0.259144
	Zn218	Zn	0.755649	0.506604	0.009642
	Zn219	Zn	0.255695	0.505531	0.009458
	Zn220	Zn	0.007085	0.755141	0.508696
	Zn221	Zn	0.005941	0.256242	0.509442
	Zn222	Zn	0.005684	0.505891	0.759066
	Zn223	Zn	0.005757	0.507207	0.259383
	Zn224	Zn	0.506002	0.756227	0.010196
	Zn225	Zn	0.505476	0.254496	0.008325
	Zn226	Zn	0.756756	0.004525	0.508753
	Zn227	Zn	0.256418	0.006199	0.509070
	N228	N	0.418575	0.971185	0.689895
	N229	N	0.594364	0.040734	0.689864
	N230	N	0.595766	0.970590	0.325569
	N231	N	0.417456	0.039274	0.327882
	N232	N	0.685633	0.419501	0.973882
	N233	N	0.684005	0.591346	0.046991
	N234	N	0.327448	0.591092	0.973742
	N235	N	0.324446	0.417327	0.044192
	N236	N	0.971064	0.686549	0.421535
	N237	N	0.041309	0.685811	0.596082
	N238	N	0.969716	0.326220	0.595762
	N239	N	0.041321	0.326355	0.422226
	N240	N	0.970822	0.417658	0.690435
	N241	N	0.040892	0.593660	0.689953
	N242	N	0.970929	0.594145	0.328430
	N243	N	0.040875	0.419418	0.328601
	N244	N	0.417389	0.687721	0.975479
	N245	N	0.593447	0.687106	0.045782
	N246	N	0.593512	0.324471	0.973658
	N247	N	0.416627	0.322718	0.043394
	N248	N	0.686707	0.969004	0.421486
	N249	N	0.686500	0.040765	0.595194
	N250	N	0.324933	0.971758	0.597469
	N251	N	0.327398	0.041583	0.423581
	N252	N	0.918851	0.472190	0.189554
	N253	N	0.094628	0.541758	0.190697
	N254	N	0.094136	0.471426	0.827828
	N255	N	0.917702	0.541382	0.828361
	N256	N	0.186022	0.920271	0.472719
	N257	N	0.186418	0.093531	0.544102
	N258	N	0.828761	0.090029	0.473329
	N259	N	0.826617	0.917705	0.543636
	N260	N	0.470244	0.185728	0.921338
	N261	N	0.540244	0.184861	0.095468
	N262	N	0.469578	0.824977	0.097208
	N263	N	0.541522	0.826083	0.922935
	N264	N	0.470005	0.916696	0.190966
	N265	N	0.540171	0.091496	0.188541
	N266	N	0.471168	0.093872	0.827681
	N267	N	0.541427	0.919264	0.829655
	N268	N	0.918808	0.186384	0.475199
	N269	N	0.094902	0.188492	0.543377
	N270	N	0.095178	0.824237	0.473773
	N271	N	0.918299	0.823128	0.542876
	N272	N	0.184782	0.469989	0.923387
	N273	N	0.187466	0.541427	0.097062
	N274	N	0.826254	0.471638	0.096133
	N275	N	0.826092	0.542307	0.923435
	O276	O	0.643103	0.399338	0.442960
	H277	H	0.646247	0.392421	0.433806
	H278	H	0.642802	0.382908	0.442728
	O279	O	0.713931	0.296165	0.465338
	H280	H	0.727532	0.281071	0.476001
	H281	H	0.699731	0.305386	0.482829
	O282	O	0.984535	0.790360	0.223148
	H283	H	1.012466	0.798041	0.196817
	H284	H	0.986522	0.759680	0.256508
	O285	O	0.526134	0.500067	0.340649
	H286	H	0.548706	0.516284	0.340789
	H287	H	0.544932	0.467930	0.337369
	O288	O	-0.005051	0.043575	0.223104
	H289	H	-0.017252	0.040547	0.226864
	H290	H	-0.002243	0.060923	0.217962
	O291	O	1.149360	0.977911	0.210551
	H292	H	1.150155	0.998000	0.220909
	H293	H	1.144729	0.969883	0.210142
	O294	O	0.206838	1.028773	-0.013721
	H295	H	0.206128	1.019569	-0.035882
	H296	H	0.195790	1.020212	0.003237
	O297	O	0.555149	0.728994	0.462935
	H298	H	0.577895	0.726104	0.479001
	H299	H	0.548530	0.732140	0.487450
	O300	O	0.450654	0.446422	0.616955
	H301	H	0.459153	0.454923	0.619376
	H302	H	0.444512	0.456892	0.615606
	O303	O	0.290808	0.290406	0.533495
	H304	H	0.272490	0.266021	0.521610
	H305	H	0.291019	0.294949	0.516455
	O306	O	-0.114825	0.899990	1.120696
	H307	H	-0.078985	0.896796	1.127297
	H308	H	-0.121519	0.926358	1.125309
	O309	O	0.422255	0.699911	0.590300
	H310	H	0.428313	0.689858	0.583508
	H311	H	0.418663	0.704853	0.595605
	O312	O	0.326207	0.528664	0.520383
	H313	H	0.320591	0.517389	0.525179
	H314	H	0.326382	0.554264	0.505128
	O315	O	-0.197394	-0.017115	1.212871
	H316	H	-0.221627	-0.008122	1.218607
	H317	H	-0.198275	0.004153	1.192466
	O318	O	-0.118507	1.174651	0.148252
	H319	H	-0.101260	1.175075	0.134745
	H320	H	-0.120885	1.165763	0.123485
	O321	O	0.489339	0.708001	0.299089
	H322	H	0.507244	0.725075	0.316481
	H323	H	0.506960	0.716048	0.293578
	O324	O	1.021441	-0.081537	0.864458
	H325	H	1.011131	-0.086544	0.876847
	H326	H	1.008952	-0.092324	0.844818
	O327	O	0.991752	-0.018687	0.813485
	H328	H	1.024678	-0.031990	0.811107
	H329	H	0.980197	-0.025935	0.821617
	O330	O	0.803099	-0.196985	0.088324
	H331	H	0.805990	-0.183973	0.107270
	H332	H	0.804146	-0.198014	0.110961
	O333	O	0.700050	0.699690	0.704028
	H334	H	0.706713	0.714451	0.673090
	H335	H	0.704820	0.655552	0.702393
	O336	O	0.792196	0.028319	1.035584
	H337	H	0.787142	0.019442	1.018648
	H338	H	0.801469	0.029851	1.020194
	O339	O	0.314095	0.254838	0.355947
	H340	H	0.321960	0.260316	0.326959
	H341	H	0.321779	0.262300	0.371435
	O342	O	0.648611	0.519934	0.553955
	H343	H	0.640646	0.526894	0.544541
	H344	H	0.645920	0.511224	0.558164
	O345	O	0.064550	-0.210101	0.073872
	H346	H	0.101923	-0.209700	0.058347
	H347	H	0.057414	-0.217638	0.068052
	O348	O	0.940503	0.032602	1.062038
	H349	H	0.937820	0.039373	1.060295
	H350	H	0.939853	0.024975	1.060308
	O351	O	1.118151	1.185967	-0.090595
	H352	H	1.134133	1.196533	-0.098538
	H353	H	1.129907	1.185147	-0.070491
	O354	O	0.703578	0.534313	0.716560
	H355	H	0.718349	0.515167	0.721495
	H356	H	0.685049	0.528305	0.720710
	O357	O	0.802029	0.905386	0.984233
	H358	H	0.817692	0.908485	1.004057
	H359	H	0.789419	0.895515	0.975863
	O360	O	0.321721	0.422424	0.449719
	H361	H	0.325019	0.429125	0.464965
	H362	H	0.326138	0.431351	0.430281
	O363	O	0.597648	0.577158	0.510248
	H364	H	0.584152	0.564722	0.507231
	H365	H	0.600321	0.593038	0.522937
	O366	O	0.798516	0.031387	0.795600
	H367	H	0.822193	-0.002524	0.797288
	H368	H	0.776836	0.026153	0.765016
	O369	O	-0.072962	0.888361	-0.146966
	H370	H	-0.057551	0.883461	-0.138880
	H371	H	-0.067986	0.890945	-0.126475
	O372	O	0.286597	0.725966	0.487515
	H373	H	0.276477	0.733115	0.458346
	H374	H	0.277351	0.737338	0.459393
	O375	O	-0.015556	1.138557	0.946696
	H376	H	0.002614	1.130112	0.943837
	H377	H	-0.037177	1.145587	0.939057
	O378	O	0.525335	0.294106	0.294748
	H379	H	0.556716	0.281882	0.285489
	H380	H	0.543094	0.283150	0.292461
	O381	O	0.788568	0.224671	-0.018374
	H382	H	0.781922	0.227279	-0.048745
	H383	H	0.770263	0.239260	-0.042442
	O384	O	-0.246726	0.252341	1.257652
	H385	H	-0.233197	0.240260	1.283566
	H386	H	-0.218849	0.228462	1.228912
	O387	O	0.191320	0.820633	0.823764
	H388	H	0.162156	0.811234	0.819670
	H389	H	0.195497	0.825389	0.825102
	O390	O	0.458353	0.300006	0.710814
	H391	H	0.427307	0.296049	0.699895
	H392	H	0.443078	0.300345	0.722921
	O393	O	1.194125	0.941202	0.099412
	H394	H	1.185471	0.948354	0.092310
	H395	H	1.181360	0.930275	0.100978
	O396	O	0.701956	0.579846	0.432085
	H397	H	0.693595	0.573801	0.416554
	H398	H	0.706132	0.561520	0.435032
	O399	O	0.399448	0.652890	0.699160
	H400	H	0.422206	0.670359	0.697049
	H401	H	0.398305	0.646866	0.680247
	O402	O	-0.018340	0.219899	0.796113
	H403	H	-0.004048	0.218855	0.782162
	H404	H	-0.004434	0.231179	0.790888
	O405	O	0.107895	0.139195	-0.141258
	H406	H	0.114556	0.159468	-0.149921
	H407	H	0.120672	0.126608	-0.134102
	O408	O	0.721702	0.722452	0.539460
	H409	H	0.754683	0.745747	0.542153
	H410	H	0.737618	0.690858	0.518013
	O411	O	0.321380	0.685665	0.330850
	H412	H	0.371812	0.696813	0.315116
	H413	H	0.312549	0.632945	0.318596
	O414	O	0.492444	0.515523	0.551468
	H415	H	0.478952	0.506247	0.547464
	H416	H	0.500194	0.525343	0.556024
	O417	O	0.822666	0.191418	0.826801
	H418	H	0.810238	0.147288	0.810603
	H419	H	0.869308	0.196002	0.816492
	O420	O	0.528139	0.514468	0.297756
	H421	H	0.547373	0.510173	0.318788
	H422	H	0.549721	0.521490	0.290214
	O423	O	0.169469	1.126096	0.186909
	H424	H	0.175077	1.142378	0.180385
	H425	H	0.184900	1.122683	0.200441
	O426	O	1.221991	0.980264	0.792117
	H427	H	1.209820	0.958834	0.811312
	H428	H	1.257935	0.977439	0.755217
	O429	O	0.528416	0.690900	0.730961
	H430	H	0.563355	0.692680	0.721305
	H431	H	0.525613	0.713467	0.758207
	O432	O	0.303122	0.524347	0.301503
	H433	H	0.317766	0.506679	0.293865
	H434	H	0.309280	0.516500	0.279806
	O435	O	0.223026	-0.209871	-0.015202
	H436	H	0.245028	-0.220052	-0.027373
	H437	H	0.235796	-0.205054	-0.024397
	O438	O	1.215171	0.183769	0.031868
	H439	H	1.216676	0.167368	0.029742
	H440	H	1.238637	0.204542	0.037912
	O441	O	0.003124	-0.078909	-0.046003
	H442	H	-0.018262	-0.079877	-0.033632
	H443	H	0.008846	-0.085804	-0.028605
	O444	O	0.356945	0.407313	0.452122
	H445	H	0.355340	0.421129	0.446526
	H446	H	0.368037	0.421650	0.437141
	O447	O	0.572906	0.413781	0.643561
	H448	H	0.556790	0.401429	0.642426
	H449	H	0.554721	0.413237	0.655675
	O450	O	0.444582	0.350787	0.688019
	H451	H	0.439190	0.387872	0.683667
	H452	H	0.422114	0.344991	0.655217
	O453	O	0.319805	0.478968	0.685803
	H454	H	0.312527	0.491332	0.701636
	H455	H	0.321092	0.497771	0.683564
	O456	O	0.713090	0.400402	0.301341
	H457	H	0.725972	0.392949	0.295327
	H458	H	0.727829	0.370458	0.294543
	O459	O	0.068348	0.201509	0.194125
	H460	H	0.087511	0.213094	0.182223
	H461	H	0.073776	0.197661	0.189013
	O462	O	0.579030	0.355519	0.532797
	H463	H	0.561985	0.351897	0.539199
	H464	H	0.571632	0.360423	0.549464
	O465	O	0.930421	-0.195265	-0.124681
	H466	H	0.923698	-0.183735	-0.128328
	H467	H	0.923042	-0.200655	-0.107922
