data_Molecule from HDF5

_cell_length_a		16.622466
_cell_length_b		16.629044
_cell_length_c		16.556022
_cell_angle_alpha	89.983076
_cell_angle_beta	90.116788
_cell_angle_gamma	90.077807
_symmetry_space_group_name_H-M	'P 1'
_symmetry_Int_Tables_number		1

loop_
	_symmetry_equiv_pos_as_xyz
	x,y,z

loop_
	_atom_site_label
	_atom_site_type_symbol
	_atom_site_fract_x
	_atom_site_fract_y
	_atom_site_fract_z
	H0	H	0.417154	0.839642	0.712004
	H1	H	0.628882	0.150930	0.705554
	H2	H	0.633196	0.839996	0.262682
	H3	H	0.421517	0.150345	0.266615
	H4	H	0.749405	0.389278	0.831732
	H5	H	0.752604	0.604235	0.140766
	H6	H	0.302761	0.601470	0.831401
	H7	H	0.308011	0.390271	0.143734
	H8	H	0.872879	0.716079	0.380712
	H9	H	0.180548	0.721170	0.598607
	H10	H	0.871438	0.274248	0.590499
	H11	H	0.182034	0.271912	0.381524
	H12	H	0.871654	0.390813	0.707363
	H13	H	0.182335	0.603510	0.712135
	H14	H	0.873301	0.599678	0.264573
	H15	H	0.182009	0.387598	0.264846
	H16	H	0.417772	0.718580	0.831907
	H17	H	0.636173	0.719478	0.140494
	H18	H	0.632941	0.272164	0.831881
	H19	H	0.424023	0.273885	0.143048
	H20	H	0.749714	0.839881	0.379307
	H21	H	0.746259	0.150216	0.590188
	H22	H	0.299825	0.839810	0.597186
	H23	H	0.304560	0.149003	0.381376
	H24	H	0.924526	0.339097	0.206798
	H25	H	0.138722	0.648634	0.212829
	H26	H	0.130701	0.339128	0.766697
	H27	H	0.920462	0.650624	0.764519
	H28	H	0.247946	0.887680	0.330326
	H29	H	0.248734	0.098946	0.642721
	H30	H	0.808050	0.096484	0.329761
	H31	H	0.803388	0.886922	0.642388
	H32	H	0.371081	0.215079	0.881262
	H33	H	0.683639	0.212217	0.089093
	H34	H	0.372169	0.767879	0.096788
	H35	H	0.680645	0.770796	0.879181
	H36	H	0.371232	0.886005	0.210539
	H37	H	0.682853	0.097440	0.206110
	H38	H	0.370770	0.098259	0.765406
	H39	H	0.681768	0.887678	0.764263
	H40	H	0.925287	0.212205	0.329683
	H41	H	0.132425	0.214874	0.643366
	H42	H	0.133701	0.770367	0.332555
	H43	H	0.919327	0.771204	0.642698
	H44	H	0.247116	0.338662	0.883753
	H45	H	0.252426	0.649008	0.095710
	H46	H	0.807341	0.339776	0.090641
	H47	H	0.804425	0.649899	0.880046
	H48	H	0.433805	0.103884	0.571055
	H49	H	0.619613	0.881280	0.571888
	H50	H	0.623835	0.108620	0.394815
	H51	H	0.442614	0.884150	0.395550
	H52	H	0.617260	0.400757	0.100827
	H53	H	0.616140	0.570607	0.878719
	H54	H	0.441005	0.581757	0.097166
	H55	H	0.436233	0.404737	0.873774
	H56	H	0.141194	0.577516	0.390392
	H57	H	0.917690	0.585564	0.571241
	H58	H	0.140574	0.401270	0.574888
	H59	H	0.916504	0.404440	0.399507
	H60	H	0.137658	0.407309	0.575366
	H61	H	0.918460	0.578156	0.573818
	H62	H	0.141369	0.594562	0.403842
	H63	H	0.915179	0.405880	0.395641
	H64	H	0.439816	0.580394	0.096902
	H65	H	0.603411	0.584155	0.878951
	H66	H	0.620435	0.406574	0.099594
	H67	H	0.438206	0.404747	0.873665
	H68	H	0.612591	0.106048	0.392406
	H69	H	0.614102	0.881081	0.580368
	H70	H	0.437096	0.106552	0.578995
	H71	H	0.437217	0.883762	0.404201
	H72	H	0.939643	0.605365	0.072836
	H73	H	0.120610	0.380311	0.082363
	H74	H	0.121007	0.606482	0.903252
	H75	H	0.937828	0.384635	0.902294
	H76	H	0.116737	0.902968	0.600096
	H77	H	0.115965	0.083770	0.374440
	H78	H	0.935149	0.079862	0.598970
	H79	H	0.945221	0.904910	0.377599
	H80	H	0.641869	0.086591	0.889317
	H81	H	0.414179	0.086487	0.072833
	H82	H	0.638282	0.904545	0.079045
	H83	H	0.414218	0.903359	0.898212
	H84	H	0.635137	0.903444	0.068353
	H85	H	0.414941	0.081378	0.076414
	H86	H	0.638409	0.088853	0.902943
	H87	H	0.417451	0.907257	0.903444
	H88	H	0.941013	0.086692	0.599611
	H89	H	0.115418	0.083168	0.374866
	H90	H	0.116033	0.916945	0.595187
	H91	H	0.934484	0.899857	0.372627
	H92	H	0.114433	0.607274	0.893962
	H93	H	0.110101	0.385179	0.077206
	H94	H	0.938918	0.607567	0.076270
	H95	H	0.932970	0.381036	0.894895
	H96	H	0.441946	0.101319	0.573641
	H97	H	0.610122	0.884988	0.572201
	H98	H	0.616619	0.104180	0.403100
	H99	H	0.433306	0.879918	0.395557
	H100	H	0.613888	0.405976	0.098440
	H101	H	0.620604	0.587166	0.871628
	H102	H	0.441201	0.580347	0.096699
	H103	H	0.436588	0.403448	0.873555
	H104	H	0.133009	0.575263	0.410442
	H105	H	0.915707	0.583567	0.578481
	H106	H	0.140880	0.404829	0.580106
	H107	H	0.914118	0.401967	0.396454
	H108	H	0.942625	0.606483	0.076265
	H109	H	0.120537	0.384255	0.070060
	H110	H	0.110624	0.603138	0.903224
	H111	H	0.942458	0.383792	0.894127
	H112	H	0.104144	0.908296	0.594183
	H113	H	0.114898	0.084327	0.374399
	H114	H	0.932461	0.087315	0.602233
	H115	H	0.935283	0.912490	0.376339
	H116	H	0.636294	0.076568	0.897136
	H117	H	0.412567	0.086954	0.078770
	H118	H	0.633858	0.913191	0.073287
	H119	H	0.416321	0.910626	0.897388
	C120	C	0.404333	0.001845	0.608276
	C121	C	0.646904	0.985572	0.606923
	C122	C	0.648747	0.003025	0.364450
	C123	C	0.405388	0.985454	0.365848
	C124	C	0.649156	0.373044	-0.003842
	C125	C	0.647932	0.615420	0.978127
	C126	C	0.406154	0.615079	-0.005255
	C127	C	0.406095	0.373049	0.977815
	C128	C	0.036328	0.615365	0.367150
	C129	C	1.019253	0.616690	0.609047
	C130	C	0.036259	0.373111	0.608227
	C131	C	1.018300	0.372287	0.365478
	C132	C	0.907588	0.503757	0.107370
	C133	C	0.150371	0.485858	0.109746
	C134	C	0.147745	0.503107	0.867108
	C135	C	0.905498	0.486279	0.864916
	C136	C	0.146605	0.874454	0.494651
	C137	C	0.148126	0.115798	0.478119
	C138	C	0.905985	0.115048	0.495748
	C139	C	0.905105	0.872586	0.478587
	C140	C	0.535286	0.115591	0.864984
	C141	C	0.517761	0.115556	0.107503
	C142	C	0.534141	0.872614	0.108151
	C143	C	0.518221	0.873363	0.865777
	C144	C	0.400053	0.885830	0.670618
	C145	C	0.648203	0.103542	0.666351
	C146	C	0.651168	0.886378	0.303607
	C147	C	0.403104	0.103045	0.306034
	C148	C	0.709267	0.370833	0.878500
	C149	C	0.711360	0.621204	0.094169
	C150	C	0.343627	0.619255	0.878128
	C151	C	0.347484	0.371631	0.096399
	C152	C	0.919391	0.675736	0.363209
	C153	C	0.134587	0.679724	0.614811
	C154	C	0.918292	0.313891	0.609909
	C155	C	0.135233	0.312008	0.363146
	C156	C	0.918465	0.371866	0.667619
	C157	C	0.135328	0.620928	0.671519
	C158	C	0.919701	0.618062	0.305458
	C159	C	0.135441	0.369862	0.305378
	C160	C	0.401166	0.677176	0.878041
	C161	C	0.653218	0.678333	0.094160
	C162	C	0.651647	0.312772	0.878493
	C163	C	0.404795	0.313514	0.095999
	C164	C	0.709333	0.886344	0.361203
	C165	C	0.706503	0.103329	0.609146
	C166	C	0.341590	0.886011	0.613425
	C167	C	0.344945	0.102329	0.363254
	C168	C	0.905703	0.385978	0.166833
	C169	C	0.155558	0.601780	0.172137
	C170	C	0.149500	0.385768	0.806969
	C171	C	0.902857	0.603574	0.804699
	C172	C	0.207762	0.870166	0.377610
	C173	C	0.208588	0.117653	0.595767
	C174	C	0.847931	0.115248	0.376912
	C175	C	0.844038	0.869249	0.595746
	C176	C	0.418085	0.175320	0.862863
	C177	C	0.636122	0.173440	0.108506
	C178	C	0.418578	0.809193	0.113652
	C179	C	0.634382	0.811757	0.861845
	C180	C	0.418099	0.867915	0.170430
	C181	C	0.635739	0.116095	0.166484
	C182	C	0.417650	0.117154	0.805403
	C183	C	0.634815	0.869929	0.804636
	C184	C	0.905884	0.172877	0.376968
	C185	C	0.150695	0.175156	0.596184
	C186	C	0.150754	0.811916	0.378416
	C187	C	0.901724	0.811781	0.595784
	C188	C	0.207031	0.385325	0.865125
	C189	C	0.212289	0.602062	0.113527
	C190	C	0.847697	0.386210	0.109132
	C191	C	0.844746	0.603133	0.861909
	C192	C	0.430433	0.082739	0.582177
	C193	C	0.621885	0.903725	0.581828
	C194	C	0.624504	0.084838	0.389592
	C195	C	0.430471	0.903864	0.391256
	C196	C	0.624351	0.397670	0.078073
	C197	C	0.620981	0.588340	0.897382
	C198	C	0.433091	0.588468	0.075748
	C199	C	0.430304	0.397427	0.895235
	C200	C	0.117467	0.589495	0.393922
	C201	C	0.938295	0.590012	0.582021
	C202	C	0.118141	0.397614	0.583726
	C203	C	0.936539	0.396986	0.390243
	C204	C	0.933004	0.585256	0.082185
	C205	C	0.124498	0.404402	0.083925
	C206	C	0.122657	0.584519	0.892654
	C207	C	0.930647	0.404487	0.889906
	C208	C	0.119871	0.901618	0.575509
	C209	C	0.122678	0.090940	0.395892
	C210	C	0.929463	0.091290	0.578733
	C211	C	0.931089	0.898346	0.397001
	C212	C	0.617344	0.090906	0.889486
	C213	C	0.435262	0.091772	0.082882
	C214	C	0.614611	0.899510	0.081215
	C215	C	0.437213	0.899611	0.892149
	Zn216	Zn	0.526222	-0.006095	0.736233
	Zn217	Zn	0.525856	-0.005534	0.236352
	Zn218	Zn	0.777384	0.495424	-0.013143
	Zn219	Zn	0.277729	0.494490	-0.012783
	Zn220	Zn	0.027026	0.744751	0.487471
	Zn221	Zn	0.026749	0.243892	0.487394
	Zn222	Zn	0.027435	0.495134	0.736983
	Zn223	Zn	0.028225	0.494877	0.237268
	Zn224	Zn	0.526378	0.744023	-0.013528
	Zn225	Zn	0.527300	0.244653	-0.013465
	Zn226	Zn	0.776684	-0.006289	0.486772
	Zn227	Zn	0.276069	-0.006667	0.486510
	N228	N	0.438531	0.958754	0.667583
	N229	N	0.611881	0.029219	0.665313
	N230	N	0.614212	0.959986	0.305307
	N231	N	0.440038	0.029267	0.307361
	N232	N	0.707903	0.407556	0.952637
	N233	N	0.707925	0.582425	0.021157
	N234	N	0.346460	0.581395	0.951741
	N235	N	0.348169	0.407814	0.021888
	N236	N	0.993040	0.674347	0.400818
	N237	N	0.061250	0.677113	0.576733
	N238	N	0.992553	0.314352	0.573866
	N239	N	0.061401	0.313551	0.399981
	N240	N	0.992882	0.407795	0.667058
	N241	N	0.062387	0.582343	0.668085
	N242	N	0.993545	0.581502	0.307518
	N243	N	0.061647	0.406702	0.306495
	N244	N	0.439366	0.674627	0.951568
	N245	N	0.614312	0.674968	0.021015
	N246	N	0.614951	0.313782	0.952661
	N247	N	0.440533	0.314084	0.021104
	N248	N	0.708067	0.959918	0.398195
	N249	N	0.706078	0.028843	0.573249
	N250	N	0.344411	0.959009	0.574923
	N251	N	0.346208	0.028187	0.399693
	N252	N	0.942131	0.460146	0.166112
	N253	N	0.117801	0.528210	0.170135
	N254	N	0.113360	0.459931	0.808057
	N255	N	0.939870	0.529800	0.806319
	N256	N	0.205148	0.908375	0.451008
	N257	N	0.207311	0.081432	0.521256
	N258	N	0.847797	0.079880	0.451842
	N259	N	0.845903	0.906425	0.521722
	N260	N	0.492379	0.174473	0.899174
	N261	N	0.561583	0.173418	0.072712
	N262	N	0.491878	0.811748	0.075591
	N263	N	0.560843	0.813853	0.899394
	N264	N	0.490964	0.906650	0.167192
	N265	N	0.560974	0.080855	0.166189
	N266	N	0.491654	0.080819	0.806399
	N267	N	0.561373	0.907589	0.806889
	N268	N	0.941152	0.172946	0.451918
	N269	N	0.114051	0.174263	0.521832
	N270	N	0.113484	0.814399	0.452291
	N271	N	0.938995	0.813640	0.521837
	N272	N	0.206446	0.459470	0.901552
	N273	N	0.209321	0.528760	0.075566
	N274	N	0.848548	0.460414	0.072964
	N275	N	0.846132	0.529102	0.898623
	O276	O	0.057097	0.776257	0.000954
	H277	H	0.033692	0.772455	-0.020603
	H278	H	0.048703	0.787406	0.013562
	O279	O	0.633159	0.514363	0.393637
	H280	H	0.637393	0.506017	0.377003
	H281	H	0.636544	0.507890	0.402989
	O282	O	1.157103	-0.116189	0.862995
	H283	H	1.140449	-0.102921	0.867128
	H284	H	1.155975	-0.146619	0.858147
	O285	O	0.088184	1.173553	1.030017
	H286	H	0.098798	1.184540	1.044026
	H287	H	0.099572	1.173611	1.042627
	O288	O	0.513424	0.510203	0.712547
	H289	H	0.519282	0.502607	0.710895
	H290	H	0.482143	0.513167	0.712687
	O291	O	0.562210	0.305977	0.298744
	H292	H	0.552771	0.310252	0.318009
	H293	H	0.549619	0.282486	0.288391
	O294	O	0.604445	0.310674	0.528495
	H295	H	0.620564	0.301304	0.509028
	H296	H	0.604890	0.316553	0.511514
	O297	O	0.294938	0.449348	0.431371
	H298	H	0.291638	0.429711	0.422698
	H299	H	0.295575	0.460613	0.452785
	O300	O	-0.512413	0.385488	0.472428
	H301	H	-0.515818	0.387559	0.482352
	H302	H	-0.531629	0.390327	0.481397
	O303	O	0.313686	0.333941	0.565966
	H304	H	0.334219	0.333038	0.568989
	H305	H	0.299780	0.333584	0.567399
	O306	O	0.546457	0.710893	0.582397
	H307	H	0.541239	0.708404	0.580503
	H308	H	0.539002	0.690843	0.587994
	O309	O	0.727492	0.514537	0.582487
	H310	H	0.738181	0.508151	0.590242
	H311	H	0.731940	0.509954	0.580309
	O312	O	0.535806	0.704945	0.690235
	H313	H	0.525923	0.706993	0.689594
	H314	H	0.533591	0.708901	0.698274
	O315	O	0.811686	1.025151	0.770173
	H316	H	0.798780	1.040278	0.757257
	H317	H	0.805360	1.056119	0.765923
	O318	O	0.315805	0.289229	0.697379
	H319	H	0.295386	0.262922	0.712409
	H320	H	0.323342	0.312497	0.686075
	O321	O	-0.102982	1.005371	0.958228
	H322	H	-0.109196	1.001443	0.966365
	H323	H	-0.101216	1.009510	0.946010
	O324	O	0.956223	0.958371	-0.211972
	H325	H	0.945774	0.959189	-0.213668
	H326	H	0.955102	0.974110	-0.208330
	O327	O	-0.175975	-0.210635	1.195409
	H328	H	-0.202460	-0.233885	1.204026
	H329	H	-0.171048	-0.213002	1.155366
	O330	O	0.687465	0.688857	0.675190
	H331	H	0.683844	0.687925	0.671280
	H332	H	0.687036	0.693486	0.677768
	O333	O	0.224542	0.802945	0.795672
	H334	H	0.191168	0.795189	0.794506
	H335	H	0.222477	0.801341	0.828073
	O336	O	0.728939	0.445709	0.280110
	H337	H	0.757689	0.439988	0.255454
	H338	H	0.716451	0.419754	0.287930
	O339	O	0.977334	0.129004	1.065591
	H340	H	0.994643	0.123238	1.062703
	H341	H	0.972057	0.122665	1.080557
	O342	O	0.043669	0.170897	0.193739
	H343	H	0.048537	0.166929	0.204619
	H344	H	0.044381	0.177806	0.194348
	O345	O	0.236232	0.964849	0.951448
	H346	H	0.247066	0.949326	0.929990
	H347	H	0.235487	0.962536	0.969732
	O348	O	0.308462	0.514606	0.277550
	H349	H	0.306353	0.514282	0.281001
	H350	H	0.286062	0.519555	0.266252
	O351	O	0.586740	0.452000	0.582881
	H352	H	0.580707	0.443279	0.588731
	H353	H	0.576801	0.458745	0.572502
	O354	O	-0.097446	-0.027096	1.078886
	H355	H	-0.101775	-0.039650	1.094424
	H356	H	-0.080990	-0.030357	1.071568
	O357	O	0.731260	0.444564	0.504119
	H358	H	0.735369	0.444823	0.494658
	H359	H	0.731800	0.460421	0.504742
	O360	O	0.505893	0.711610	0.269346
	H361	H	0.512112	0.720496	0.251706
	H362	H	0.508828	0.706886	0.261842
	O363	O	0.047070	-0.077994	-0.235793
	H364	H	0.033548	-0.057543	-0.232902
	H365	H	0.034970	-0.084169	-0.246354
	O366	O	0.461400	0.532245	0.616544
	H367	H	0.460971	0.551719	0.606086
	H368	H	0.451150	0.529645	0.629199
	O369	O	0.934705	-0.018074	0.129536
	H370	H	0.951014	-0.025282	0.138707
	H371	H	0.918317	-0.027598	0.129010
	O372	O	0.886889	1.049583	0.156241
	H373	H	0.889808	1.045373	0.167158
	H374	H	0.895099	1.022586	0.164786
	O375	O	1.039300	0.095267	0.083304
	H376	H	1.034199	0.090324	0.083837
	H377	H	1.044588	0.092157	0.101201
	O378	O	-0.037694	-0.018578	0.915222
	H379	H	-0.028840	-0.015217	0.922930
	H380	H	-0.050362	-0.017373	0.910865
	O381	O	0.052417	0.930316	1.086184
	H382	H	0.045031	0.933093	1.090991
	H383	H	0.051666	0.928098	1.088396
	O384	O	0.810158	0.150033	0.964669
	H385	H	0.810464	0.155853	0.957599
	H386	H	0.795681	0.153344	0.977333
	O387	O	0.946285	0.818646	-0.125378
	H388	H	0.945190	0.823576	-0.145740
	H389	H	0.929379	0.829482	-0.137571
	O390	O	0.624892	0.411814	0.706989
	H391	H	0.605695	0.395793	0.722144
	H392	H	0.618118	0.408627	0.719130
	O393	O	0.491238	0.605761	0.460622
	H394	H	0.476456	0.600759	0.442683
	H395	H	0.494765	0.608599	0.464672
	O396	O	0.181152	1.211825	0.995276
	H397	H	0.207820	1.226176	0.997588
	H398	H	0.188160	1.187449	0.974856
	O399	O	0.006505	-0.224949	1.203949
	H400	H	-0.018569	-0.241021	1.219013
	H401	H	-0.008703	-0.226202	1.207640
	O402	O	0.741137	0.285065	0.273608
	H403	H	0.709648	0.293617	0.265781
	H404	H	0.764385	0.255167	0.249200
	O405	O	0.832267	-0.159929	0.967586
	H406	H	0.828859	-0.148783	0.955458
	H407	H	0.842790	-0.160018	0.949183
	O408	O	0.224561	0.097271	-0.034271
	H409	H	0.218235	0.075000	-0.024995
	H410	H	0.225821	0.089096	-0.047176
	O411	O	0.605255	0.531526	0.424307
	H412	H	0.601536	0.521447	0.431591
	H413	H	0.611764	0.546561	0.429442
	O414	O	0.540813	0.734314	0.471411
	H415	H	0.540655	0.738237	0.474494
	H416	H	0.540242	0.729646	0.472020
	O417	O	-0.191746	0.211870	0.766464
	H418	H	-0.225786	0.242777	0.739815
	H419	H	-0.172979	0.215013	0.796554
	O420	O	0.067472	1.012487	0.902432
	H421	H	0.072777	1.011125	0.900965
	H422	H	0.076055	1.018375	0.900643
	O423	O	0.215154	0.183800	0.800248
	H424	H	0.205669	0.164688	0.810754
	H425	H	0.199064	0.175413	0.808626
	O426	O	0.458992	0.393809	0.521500
	H427	H	0.452419	0.414274	0.521904
	H428	H	0.467540	0.393392	0.515124
	O429	O	1.182299	0.825330	1.114558
	H430	H	1.176134	0.829924	1.122481
	H431	H	1.158351	0.823296	1.105705
	O432	O	0.334348	0.293263	0.374729
	H433	H	0.327954	0.293912	0.374266
	H434	H	0.330063	0.293226	0.390753
	O435	O	-0.285367	0.686527	0.300031
	H436	H	-0.295340	0.674359	0.319871
	H437	H	-0.297484	0.678030	0.310521
	O438	O	-0.298194	0.310726	-0.319852
	H439	H	-0.323804	0.335711	-0.319979
	H440	H	-0.312679	0.319643	-0.347344
	O441	O	0.137113	0.008623	0.203945
	H442	H	0.152065	0.005198	0.202560
	H443	H	0.137446	0.004554	0.215045
	O444	O	0.331330	0.691087	0.299698
	H445	H	0.339018	0.667224	0.302640
	H446	H	0.353642	0.698867	0.292826
	O447	O	0.032487	0.890927	0.916176
	H448	H	0.024498	0.895233	0.898738
	H449	H	0.030726	0.880931	0.907526
	O450	O	-0.002429	1.207227	0.770870
	H451	H	-0.009191	1.208244	0.786826
	H452	H	-0.006555	1.229276	0.751804
	O453	O	-0.161104	0.182182	1.168446
	H454	H	-0.140210	0.171527	1.151856
	H455	H	-0.150973	0.155548	1.158764
	O456	O	0.224116	0.113824	1.158446
	H457	H	0.237967	0.134023	1.172328
	H458	H	0.236054	0.107294	1.158755
	O459	O	0.718089	0.275305	0.423975
	H460	H	0.749301	0.252816	0.410514
	H461	H	0.718733	0.283272	0.397131
	O462	O	0.486654	0.438611	0.267565
	H463	H	0.475448	0.437363	0.265835
	H464	H	0.486856	0.436344	0.275117
	O465	O	1.245744	-0.168606	-0.094039
	H466	H	1.230925	-0.193290	-0.080691
	H467	H	1.262690	-0.179946	-0.097904
	O468	O	0.308917	0.599508	0.591232
	H469	H	0.303023	0.610590	0.577563
	H470	H	0.303900	0.612751	0.591185
	O471	O	0.516079	0.285352	0.644312
	H472	H	0.520628	0.272737	0.655140
	H473	H	0.506026	0.280747	0.643413
	O474	O	0.323347	0.688618	0.453898
	H475	H	0.313413	0.710676	0.445049
	H476	H	0.334369	0.689199	0.436902
	O477	O	0.267753	0.242309	1.230354
	H478	H	0.259138	0.244229	1.226549
	H479	H	0.265613	0.255039	1.230510
	O480	O	0.589559	0.536534	0.263843
	H481	H	0.610335	0.523827	0.258525
	H482	H	0.598388	0.524653	0.268901
	O483	O	0.320964	0.516308	0.699411
	H484	H	0.322389	0.492940	0.700487
	H485	H	0.302579	0.517632	0.699501
	O486	O	0.740978	0.710936	0.507533
	H487	H	0.762688	0.730466	0.524205
	H488	H	0.726807	0.714723	0.520937
	O489	O	0.784749	0.790204	-0.213677
	H490	H	0.792516	0.776473	-0.215532
	H491	H	0.762121	0.785058	-0.218327
