data_Molecule from HDF5

_cell_length_a		16.282949
_cell_length_b		16.257844
_cell_length_c		16.266963
_cell_angle_alpha	89.639985
_cell_angle_beta	90.085577
_cell_angle_gamma	90.289349
_symmetry_space_group_name_H-M	'P 1'
_symmetry_Int_Tables_number		1

loop_
	_symmetry_equiv_pos_as_xyz
	x,y,z

loop_
	_atom_site_label
	_atom_site_type_symbol
	_atom_site_fract_x
	_atom_site_fract_y
	_atom_site_fract_z
	H0	H	0.395864	0.831990	0.709498
	H1	H	0.595093	0.159534	0.708643
	H2	H	0.591470	0.830909	0.282787
	H3	H	0.397055	0.158720	0.278629
	H4	H	0.709411	0.398529	0.831630
	H5	H	0.711193	0.595418	0.158054
	H6	H	0.280009	0.595507	0.831589
	H7	H	0.276716	0.393185	0.158322
	H8	H	0.830475	0.709671	0.396911
	H9	H	0.157849	0.711534	0.593800
	H10	H	0.831372	0.279867	0.594812
	H11	H	0.158036	0.282771	0.394803
	H12	H	0.830623	0.396205	0.709859
	H13	H	0.157246	0.595781	0.709143
	H14	H	0.831075	0.596851	0.279255
	H15	H	0.157586	0.400141	0.280160
	H16	H	0.396303	0.711547	0.832295
	H17	H	0.594324	0.708792	0.159560
	H18	H	0.592774	0.282939	0.831181
	H19	H	0.395479	0.279147	0.159392
	H20	H	0.707427	0.831544	0.398079
	H21	H	0.710440	0.158839	0.594217
	H22	H	0.278507	0.832844	0.595499
	H23	H	0.282009	0.160343	0.394986
	H24	H	0.894266	0.334394	0.211665
	H25	H	0.094122	0.661399	0.206274
	H26	H	0.091278	0.332763	0.781240
	H27	H	0.895615	0.660055	0.778775
	H28	H	0.208119	0.900076	0.331537
	H29	H	0.211805	0.095981	0.658600
	H30	H	0.778629	0.096252	0.332323
	H31	H	0.778760	0.894871	0.658679
	H32	H	0.330895	0.209728	0.895256
	H33	H	0.657834	0.209792	0.093259
	H34	H	0.332078	0.777708	0.095125
	H35	H	0.658577	0.782476	0.896955
	H36	H	0.330927	0.894130	0.210322
	H37	H	0.657721	0.094526	0.210106
	H38	H	0.331762	0.094974	0.778923
	H39	H	0.658457	0.898663	0.781995
	H40	H	0.895970	0.211628	0.330845
	H41	H	0.094344	0.211370	0.659155
	H42	H	0.092013	0.785773	0.330576
	H43	H	0.895676	0.779454	0.658463
	H44	H	0.207898	0.332269	0.895523
	H45	H	0.211032	0.659879	0.092522
	H46	H	0.779590	0.333684	0.095554
	H47	H	0.779550	0.660140	0.893733
	H48	H	0.404788	0.112967	0.589833
	H49	H	0.583204	0.878410	0.592596
	H50	H	0.588529	0.112322	0.402963
	H51	H	0.398781	0.876777	0.397797
	H52	H	0.590426	0.397858	0.114170
	H53	H	0.583082	0.590235	0.879772
	H54	H	0.405636	0.579210	0.109589
	H55	H	0.401004	0.407916	0.880419
	H56	H	0.110273	0.593454	0.405421
	H57	H	0.879211	0.585799	0.584783
	H58	H	0.117024	0.400456	0.606309
	H59	H	0.876355	0.400882	0.398318
	H60	H	0.110753	0.390407	0.574221
	H61	H	0.877001	0.587843	0.590039
	H62	H	0.110317	0.587255	0.400181
	H63	H	0.879384	0.400878	0.408951
	H64	H	0.406968	0.593617	0.112253
	H65	H	0.589563	0.593590	0.877079
	H66	H	0.589593	0.409090	0.110499
	H67	H	0.405194	0.400873	0.879974
	H68	H	0.586334	0.111947	0.400310
	H69	H	0.585324	0.880205	0.584382
	H70	H	0.404994	0.111479	0.584339
	H71	H	0.405171	0.881361	0.404829
	H72	H	0.907368	0.614958	0.092885
	H73	H	0.087141	0.378949	0.092154
	H74	H	0.086475	0.614811	0.891792
	H75	H	0.898457	0.378696	0.901767
	H76	H	0.082242	0.898202	0.612012
	H77	H	0.088500	0.088775	0.379333
	H78	H	0.902826	0.090207	0.612481
	H79	H	0.891709	0.902976	0.375752
	H80	H	0.611949	0.088703	0.901260
	H81	H	0.377481	0.089198	0.087770
	H82	H	0.610490	0.905165	0.089585
	H83	H	0.377487	0.901684	0.899832
	H84	H	0.611443	0.902043	0.090957
	H85	H	0.378645	0.085812	0.084640
	H86	H	0.611912	0.091991	0.901310
	H87	H	0.378450	0.900432	0.905527
	H88	H	0.899750	0.087734	0.611659
	H89	H	0.085524	0.091810	0.379383
	H90	H	0.093291	0.902735	0.613577
	H91	H	0.903323	0.912340	0.381798
	H92	H	0.081941	0.609157	0.907913
	H93	H	0.080773	0.381809	0.088589
	H94	H	0.904966	0.610808	0.079837
	H95	H	0.904023	0.380063	0.901611
	H96	H	0.399957	0.113645	0.586590
	H97	H	0.591112	0.876956	0.590494
	H98	H	0.585391	0.111410	0.403778
	H99	H	0.395397	0.877762	0.407311
	H100	H	0.580221	0.402345	0.109123
	H101	H	0.589366	0.585984	0.878956
	H102	H	0.394320	0.586853	0.113920
	H103	H	0.397704	0.401289	0.877400
	H104	H	0.113332	0.593943	0.397482
	H105	H	0.876989	0.591764	0.585600
	H106	H	0.104576	0.422317	0.584446
	H107	H	0.879691	0.410534	0.402555
	H108	H	0.894856	0.617167	0.086928
	H109	H	0.087505	0.380528	0.084758
	H110	H	0.098012	0.615084	0.905035
	H111	H	0.901154	0.381368	0.906785
	H112	H	0.084516	0.910047	0.609983
	H113	H	0.089853	0.093146	0.378239
	H114	H	0.903286	0.086967	0.610547
	H115	H	0.906176	0.897323	0.378328
	H116	H	0.610001	0.090151	0.903636
	H117	H	0.378083	0.085104	0.089218
	H118	H	0.610946	0.901900	0.087393
	H119	H	0.379808	0.905547	0.902848
	C120	C	0.373930	0.004539	0.616308
	C121	C	0.616440	0.986946	0.617433
	C122	C	0.615389	0.003603	0.374057
	C123	C	0.372353	0.987104	0.373663
	C124	C	0.615802	0.374787	0.003399
	C125	C	0.616390	0.617980	0.986631
	C126	C	0.373613	0.616441	0.003817
	C127	C	0.371817	0.373162	0.986987
	C128	C	0.003015	0.619702	0.372262
	C129	C	0.985815	0.617940	0.615937
	C130	C	0.002740	0.374482	0.617246
	C131	C	0.986261	0.375976	0.373548
	C132	C	0.873135	0.506181	0.116630
	C133	C	0.115440	0.488325	0.116184
	C134	C	0.116486	0.504747	0.872996
	C135	C	0.872837	0.488232	0.873656
	C136	C	0.115220	0.876245	0.503393
	C137	C	0.117181	0.119289	0.486970
	C138	C	0.873112	0.117702	0.503472
	C139	C	0.871727	0.874164	0.486693
	C140	C	0.503335	0.118641	0.872383
	C141	C	0.485770	0.115968	0.116177
	C142	C	0.503150	0.873063	0.117918
	C143	C	0.486858	0.874802	0.874500
	C144	C	0.375238	0.881219	0.671989
	C145	C	0.615132	0.110170	0.671743
	C146	C	0.612543	0.880165	0.319982
	C147	C	0.376099	0.110260	0.317076
	C148	C	0.671234	0.377828	0.880379
	C149	C	0.672585	0.615387	0.109541
	C150	C	0.318202	0.615411	0.880675
	C151	C	0.315783	0.373907	0.109883
	C152	C	0.879800	0.673770	0.375185
	C153	C	0.108788	0.673572	0.613657
	C154	C	0.880053	0.318074	0.615399
	C155	C	0.109374	0.321077	0.375179
	C156	C	0.879696	0.376185	0.672414
	C157	C	0.108593	0.615912	0.671204
	C158	C	0.880165	0.617276	0.316924
	C159	C	0.109099	0.379329	0.318079
	C160	C	0.375941	0.673087	0.880882
	C161	C	0.614551	0.672001	0.110182
	C162	C	0.613219	0.320303	0.880336
	C163	C	0.374482	0.316928	0.110277
	C164	C	0.670118	0.880500	0.377134
	C165	C	0.672534	0.110047	0.614517
	C166	C	0.317179	0.881557	0.615107
	C167	C	0.319060	0.110958	0.375080
	C168	C	0.874288	0.383229	0.173567
	C169	C	0.114754	0.611888	0.170123
	C170	C	0.112465	0.381547	0.818712
	C171	C	0.875279	0.611358	0.817117
	C172	C	0.170015	0.879736	0.380217
	C173	C	0.173352	0.116807	0.609773
	C174	C	0.817403	0.115845	0.380644
	C175	C	0.817086	0.875481	0.609885
	C176	C	0.380077	0.172988	0.874348
	C177	C	0.608980	0.171830	0.114022
	C178	C	0.380511	0.816425	0.115296
	C179	C	0.609887	0.820308	0.876900
	C180	C	0.379969	0.873789	0.172980
	C181	C	0.608916	0.114238	0.171816
	C182	C	0.380389	0.115498	0.816912
	C183	C	0.609788	0.878011	0.819656
	C184	C	0.875569	0.173511	0.380078
	C185	C	0.115007	0.173882	0.610091
	C186	C	0.112235	0.822696	0.379743
	C187	C	0.874872	0.817815	0.609808
	C188	C	0.170407	0.381509	0.875607
	C189	C	0.172623	0.611078	0.113334
	C190	C	0.817467	0.382724	0.115649
	C191	C	0.817583	0.611265	0.874293
	C192	C	0.396608	0.090354	0.593523
	C193	C	0.593415	0.900803	0.595714
	C194	C	0.593323	0.089604	0.395764
	C195	C	0.393479	0.901063	0.396509
	C196	C	0.593231	0.396649	0.089127
	C197	C	0.594027	0.596364	0.900695
	C198	C	0.395791	0.593337	0.089683
	C199	C	0.394609	0.396502	0.901536
	C200	C	0.089111	0.597996	0.394449
	C201	C	0.899866	0.595158	0.593471
	C202	C	0.088592	0.397523	0.594696
	C203	C	0.900711	0.397747	0.396599
	C204	C	0.895743	0.591982	0.093322
	C205	C	0.092066	0.402575	0.094686
	C206	C	0.095122	0.590888	0.894932
	C207	C	0.894811	0.402349	0.896599
	C208	C	0.093190	0.897421	0.589673
	C209	C	0.094626	0.097711	0.401286
	C210	C	0.895550	0.095079	0.589379
	C211	C	0.893828	0.897370	0.400673
	C212	C	0.589149	0.096780	0.895261
	C213	C	0.400169	0.093285	0.093899
	C214	C	0.588753	0.896209	0.095891
	C215	C	0.400763	0.896269	0.896342
	Zn216	Zn	0.495133	-0.004119	0.745418
	Zn217	Zn	0.494139	-0.005390	0.245876
	Zn218	Zn	0.744645	0.496767	-0.004931
	Zn219	Zn	0.244070	0.495582	-0.004625
	Zn220	Zn	-0.005488	0.747275	0.494256
	Zn221	Zn	-0.005480	0.246960	0.495042
	Zn222	Zn	-0.005845	0.496567	0.745373
	Zn223	Zn	-0.005713	0.497934	0.244726
	Zn224	Zn	0.495329	0.745669	-0.004497
	Zn225	Zn	0.494129	0.245004	-0.004744
	Zn226	Zn	0.743467	-0.004389	0.495365
	Zn227	Zn	0.244906	-0.003422	0.495299
	N228	N	0.409723	0.958616	0.672983
	N229	N	0.580880	0.032555	0.673525
	N230	N	0.579200	0.957694	0.317966
	N231	N	0.408340	0.032125	0.315847
	N232	N	0.673033	0.410867	0.957997
	N233	N	0.673928	0.582618	0.031769
	N234	N	0.316827	0.580867	0.957979
	N235	N	0.314057	0.407922	0.032292
	N236	N	0.957194	0.675182	0.409078
	N237	N	0.031389	0.674642	0.579658
	N238	N	0.957544	0.316979	0.581799
	N239	N	0.031857	0.318814	0.408949
	N240	N	0.957162	0.410584	0.673677
	N241	N	0.031080	0.582079	0.672709
	N242	N	0.957815	0.584343	0.315271
	N243	N	0.031836	0.412873	0.317237
	N244	N	0.409707	0.673943	0.958515
	N245	N	0.580242	0.673674	0.032762
	N246	N	0.579410	0.318179	0.957831
	N247	N	0.408401	0.316082	0.032789
	N248	N	0.671886	0.958306	0.410073
	N249	N	0.673373	0.032297	0.581528
	N250	N	0.316155	0.959265	0.581146
	N251	N	0.316651	0.033540	0.409430
	N252	N	0.907952	0.461010	0.174454
	N253	N	0.079914	0.534595	0.172198
	N254	N	0.079434	0.459242	0.816999
	N255	N	0.908829	0.533882	0.816630
	N256	N	0.171814	0.912331	0.457983
	N257	N	0.174852	0.083661	0.532239
	N258	N	0.815877	0.081751	0.458233
	N259	N	0.815370	0.909822	0.532465
	N260	N	0.457474	0.175109	0.907988
	N261	N	0.531569	0.172862	0.080084
	N262	N	0.458011	0.815781	0.081844
	N263	N	0.532221	0.818209	0.910318
	N264	N	0.457184	0.908485	0.174575
	N265	N	0.531358	0.080012	0.173204
	N266	N	0.458099	0.082467	0.815494
	N267	N	0.532275	0.911062	0.818129
	N268	N	0.909478	0.174716	0.457542
	N269	N	0.080873	0.175782	0.532647
	N270	N	0.078601	0.820503	0.457331
	N271	N	0.908280	0.816960	0.532162
	N272	N	0.172826	0.459205	0.908638
	N273	N	0.173292	0.533226	0.080600
	N274	N	0.816519	0.460068	0.080857
	N275	N	0.816163	0.533807	0.908986
	O276	O	0.970741	0.948174	0.027912
	H277	H	0.972954	0.948869	0.029878
	H278	H	0.961535	0.940439	0.028369
	O279	O	0.558539	0.456381	0.458216
	H280	H	0.561726	0.462770	0.465885
	H281	H	0.556610	0.455993	0.459954
	O282	O	0.010044	0.032512	0.010416
	H283	H	0.005874	0.028791	0.009304
	H284	H	0.009378	0.031832	0.006249
	O285	O	0.507083	0.454613	0.485599
	H286	H	0.510256	0.455482	0.485969
	H287	H	0.509776	0.460194	0.490763
	O288	O	0.008212	-0.043773	-0.000303
	H289	H	0.003587	-0.033248	0.001828
	H290	H	0.016104	-0.046315	0.001978
	O291	O	-0.027939	0.964602	0.024177
	H292	H	-0.019180	0.964855	0.013153
	H293	H	-0.043094	0.968733	0.007336
	O294	O	0.043444	1.022483	0.047174
	H295	H	0.051437	1.023494	0.046892
	H296	H	0.042580	1.020315	0.040638
	O297	O	0.480601	0.472231	0.584960
	H298	H	0.472922	0.473212	0.583335
	H299	H	0.484640	0.480956	0.589107
	O300	O	0.433417	0.529947	0.544986
	H301	H	0.426949	0.519320	0.545147
	H302	H	0.424804	0.534318	0.555055
	O303	O	1.002776	0.039292	0.965671
	H304	H	1.000074	0.036044	0.969006
	H305	H	0.998644	0.037534	0.975787
	O306	O	-0.028567	1.003332	0.932440
	H307	H	-0.027809	1.011185	0.942327
	H308	H	-0.018780	1.002265	0.934494
	O309	O	-0.017978	1.016717	0.940618
	H310	H	-0.024940	1.023172	0.929601
	H311	H	-0.011812	1.010222	0.946979
	O312	O	0.444601	0.351134	0.619505
	H313	H	0.438068	0.342696	0.612312
	H314	H	0.449528	0.343049	0.617413
	O315	O	0.523176	0.476556	0.494841
	H316	H	0.516707	0.481208	0.494144
	H317	H	0.521203	0.478127	0.494453
	O318	O	0.065608	0.081625	1.031440
	H319	H	0.072840	0.083853	1.035942
	H320	H	0.058183	0.079685	1.041460
	O321	O	0.515589	0.442233	0.537728
	H322	H	0.508719	0.436095	0.539976
	H323	H	0.512156	0.440880	0.523305
	O324	O	1.072444	0.063061	1.073532
	H325	H	1.059654	0.061741	1.080160
	H326	H	1.070818	0.050344	1.076859
	O327	O	0.979533	0.986774	0.999635
	H328	H	0.985549	0.987622	1.003422
	H329	H	0.965800	0.990661	0.986144
	O330	O	0.479462	0.519546	0.441129
	H331	H	0.478970	0.519754	0.436862
	H332	H	0.478984	0.512157	0.448592
	O333	O	0.985022	0.090916	0.983164
	H334	H	0.993458	0.097897	0.979256
	H335	H	0.987517	0.094991	0.986441
	O336	O	0.501255	0.476239	0.498551
	H337	H	0.501528	0.473812	0.508131
	H338	H	0.498976	0.478295	0.502069
	O339	O	0.462212	0.431962	0.556804
	H340	H	0.473422	0.434187	0.555299
	H341	H	0.463682	0.428768	0.544884
	O342	O	0.468762	0.433324	0.508008
	H343	H	0.468882	0.437602	0.505577
	H344	H	0.468855	0.435277	0.506525
	O345	O	0.426685	0.486032	0.566062
	H346	H	0.428644	0.471327	0.574966
	H347	H	0.416128	0.489653	0.568636
