data_Molecule from HDF5

_cell_length_a		16.308226
_cell_length_b		16.155818
_cell_length_c		16.343348
_cell_angle_alpha	90.107200
_cell_angle_beta	89.886857
_cell_angle_gamma	90.409016
_symmetry_space_group_name_H-M	'P 1'
_symmetry_Int_Tables_number		1

loop_
	_symmetry_equiv_pos_as_xyz
	x,y,z

loop_
	_atom_site_label
	_atom_site_type_symbol
	_atom_site_fract_x
	_atom_site_fract_y
	_atom_site_fract_z
	H0	H	0.404431	0.839780	0.712682
	H1	H	0.605936	0.167653	0.713756
	H2	H	0.605562	0.840062	0.281914
	H3	H	0.407176	0.167624	0.283795
	H4	H	0.720892	0.403129	0.835674
	H5	H	0.722312	0.605408	0.160876
	H6	H	0.290213	0.602531	0.835890
	H7	H	0.286924	0.402057	0.160652
	H8	H	0.840816	0.713863	0.401034
	H9	H	0.168094	0.720580	0.597192
	H10	H	0.842313	0.288519	0.593797
	H11	H	0.169641	0.292621	0.400577
	H12	H	0.842467	0.400500	0.713635
	H13	H	0.167092	0.606276	0.714580
	H14	H	0.841897	0.601702	0.282478
	H15	H	0.167549	0.402690	0.280345
	H16	H	0.408385	0.716115	0.834772
	H17	H	0.603569	0.718735	0.161575
	H18	H	0.601414	0.289407	0.835084
	H19	H	0.406388	0.289539	0.162264
	H20	H	0.719874	0.839858	0.396762
	H21	H	0.722200	0.167779	0.597941
	H22	H	0.288335	0.840839	0.598435
	H23	H	0.294102	0.169284	0.400917
	H24	H	0.904799	0.338122	0.211540
	H25	H	0.104635	0.667528	0.212534
	H26	H	0.103066	0.338791	0.782488
	H27	H	0.905727	0.667249	0.782136
	H28	H	0.222520	0.904549	0.335128
	H29	H	0.221525	0.105721	0.660558
	H30	H	0.790315	0.103887	0.335460
	H31	H	0.787572	0.902185	0.659061
	H32	H	0.340806	0.215582	0.900968
	H33	H	0.667676	0.218935	0.096139
	H34	H	0.341833	0.787576	0.096559
	H35	H	0.669193	0.791455	0.900885
	H36	H	0.343114	0.900473	0.216336
	H37	H	0.667330	0.105657	0.214044
	H38	H	0.342146	0.102615	0.782904
	H39	H	0.667702	0.903034	0.781378
	H40	H	0.911500	0.214384	0.333039
	H41	H	0.104393	0.219845	0.660672
	H42	H	0.103619	0.789732	0.333625
	H43	H	0.905994	0.788175	0.660137
	H44	H	0.217762	0.337904	0.898836
	H45	H	0.219615	0.667829	0.095757
	H46	H	0.788976	0.338746	0.096751
	H47	H	0.792755	0.668147	0.899401
	H48	H	0.415796	0.122509	0.595830
	H49	H	0.597593	0.887096	0.586363
	H50	H	0.607118	0.120780	0.416282
	H51	H	0.414052	0.887396	0.408389
	H52	H	0.591310	0.410157	0.112921
	H53	H	0.601001	0.586548	0.884892
	H54	H	0.407344	0.587160	0.112740
	H55	H	0.411345	0.413608	0.883850
	H56	H	0.120169	0.593167	0.405472
	H57	H	0.891770	0.585472	0.590663
	H58	H	0.120415	0.411025	0.584584
	H59	H	0.884841	0.409320	0.392168
	H60	H	0.119900	0.420160	0.593643
	H61	H	0.885409	0.597594	0.600009
	H62	H	0.122248	0.594852	0.401329
	H63	H	0.887715	0.398618	0.409434
	H64	H	0.420491	0.594909	0.111771
	H65	H	0.591170	0.600083	0.883611
	H66	H	0.602290	0.406599	0.115949
	H67	H	0.414504	0.407085	0.882864
	H68	H	0.603267	0.126000	0.394564
	H69	H	0.598106	0.885514	0.591927
	H70	H	0.415892	0.120206	0.589500
	H71	H	0.411037	0.886977	0.406915
	H72	H	0.912830	0.621695	0.093516
	H73	H	0.093112	0.387452	0.086918
	H74	H	0.098935	0.619870	0.907543
	H75	H	0.912028	0.388502	0.912785
	H76	H	0.099628	0.920395	0.610680
	H77	H	0.095930	0.097202	0.383369
	H78	H	0.914653	0.092678	0.611901
	H79	H	0.906412	0.907705	0.378714
	H80	H	0.621846	0.090959	0.896762
	H81	H	0.386312	0.097051	0.094776
	H82	H	0.618353	0.917652	0.087417
	H83	H	0.392698	0.914016	0.913119
	H84	H	0.623255	0.913291	0.098090
	H85	H	0.389089	0.094895	0.089447
	H86	H	0.624130	0.107155	0.903737
	H87	H	0.388614	0.915269	0.897656
	H88	H	0.914561	0.099013	0.614528
	H89	H	0.103607	0.102275	0.378951
	H90	H	0.089587	0.911154	0.610892
	H91	H	0.912513	0.915170	0.382456
	H92	H	0.098415	0.620409	0.904967
	H93	H	0.100363	0.384725	0.088403
	H94	H	0.915075	0.619918	0.091514
	H95	H	0.907557	0.383260	0.902113
	H96	H	0.410702	0.123272	0.591957
	H97	H	0.592916	0.887362	0.589913
	H98	H	0.586759	0.117470	0.407555
	H99	H	0.414117	0.886595	0.405047
	H100	H	0.600737	0.418277	0.113221
	H101	H	0.607149	0.600996	0.879203
	H102	H	0.408548	0.601799	0.117187
	H103	H	0.407091	0.407858	0.880640
	H104	H	0.120586	0.598110	0.404949
	H105	H	0.889557	0.600881	0.584924
	H106	H	0.124068	0.408269	0.595947
	H107	H	0.892427	0.418449	0.409427
	H108	H	0.912204	0.620920	0.090305
	H109	H	0.094914	0.384411	0.094419
	H110	H	0.096634	0.619064	0.906152
	H111	H	0.919276	0.387020	0.902532
	H112	H	0.101655	0.907756	0.615607
	H113	H	0.104949	0.092118	0.381380
	H114	H	0.909537	0.094763	0.614748
	H115	H	0.916206	0.905582	0.380870
	H116	H	0.617390	0.093342	0.914195
	H117	H	0.388359	0.091402	0.094375
	H118	H	0.621627	0.906446	0.088615
	H119	H	0.386241	0.901414	0.905506
	C120	C	0.384037	0.013205	0.620425
	C121	C	0.626599	0.994930	0.619425
	C122	C	0.627341	0.012536	0.376432
	C123	C	0.385208	0.995665	0.378180
	C124	C	0.626563	0.382022	0.006485
	C125	C	0.628326	0.625905	0.989975
	C126	C	0.383838	0.624134	0.006588
	C127	C	0.382008	0.380854	0.990060
	C128	C	0.013407	0.624166	0.375712
	C129	C	0.996588	0.625126	0.620117
	C130	C	0.014017	0.381929	0.619858
	C131	C	0.996708	0.381241	0.375278
	C132	C	0.883793	0.511704	0.119790
	C133	C	0.125670	0.494364	0.118880
	C134	C	0.126117	0.511124	0.876902
	C135	C	0.884202	0.494961	0.876769
	C136	C	0.126874	0.883017	0.505339
	C137	C	0.129098	0.126796	0.489056
	C138	C	0.885160	0.124285	0.505707
	C139	C	0.882656	0.880838	0.488412
	C140	C	0.513036	0.124924	0.876764
	C141	C	0.496006	0.124613	0.120570
	C142	C	0.513537	0.881842	0.120418
	C143	C	0.496585	0.881240	0.875942
	C144	C	0.384545	0.889040	0.675230
	C145	C	0.626103	0.118619	0.675353
	C146	C	0.625123	0.889161	0.320233
	C147	C	0.387473	0.118981	0.322304
	C148	C	0.682198	0.383560	0.884051
	C149	C	0.683714	0.624747	0.112430
	C150	C	0.328245	0.622520	0.884238
	C151	C	0.326078	0.382755	0.112550
	C152	C	0.890149	0.678002	0.379254
	C153	C	0.119168	0.682280	0.617704
	C154	C	0.891152	0.325790	0.615750
	C155	C	0.120216	0.328502	0.378929
	C156	C	0.891340	0.381399	0.675475
	C157	C	0.118747	0.625095	0.675871
	C158	C	0.890618	0.621908	0.320526
	C159	C	0.119094	0.383370	0.319030
	C160	C	0.387218	0.678922	0.883666
	C161	C	0.624870	0.681375	0.112683
	C162	C	0.622704	0.326955	0.883727
	C163	C	0.385108	0.326451	0.113206
	C164	C	0.682152	0.889023	0.377538
	C165	C	0.683662	0.118644	0.617824
	C166	C	0.326706	0.889652	0.618382
	C167	C	0.331373	0.119772	0.380591
	C168	C	0.884974	0.387488	0.174162
	C169	C	0.124441	0.618474	0.174438
	C170	C	0.123565	0.387797	0.820713
	C171	C	0.886208	0.618481	0.821021
	C172	C	0.183686	0.884501	0.383348
	C173	C	0.183492	0.125273	0.611946
	C174	C	0.829457	0.122982	0.383503
	C175	C	0.826328	0.882490	0.610771
	C176	C	0.389819	0.178591	0.879969
	C177	C	0.618844	0.180871	0.117126
	C178	C	0.390780	0.825574	0.117604
	C179	C	0.619787	0.827660	0.879197
	C180	C	0.391298	0.881825	0.176867
	C181	C	0.618530	0.124634	0.175794
	C182	C	0.390754	0.122552	0.821022
	C183	C	0.619097	0.883138	0.819716
	C184	C	0.889589	0.178091	0.382522
	C185	C	0.125471	0.182238	0.611854
	C186	C	0.124464	0.827428	0.382655
	C187	C	0.884977	0.825630	0.611188
	C188	C	0.180518	0.387380	0.878585
	C189	C	0.181917	0.618580	0.116847
	C190	C	0.827516	0.387698	0.116978
	C191	C	0.829794	0.618806	0.878978
	C192	C	0.407260	0.099529	0.598819
	C193	C	0.603085	0.908926	0.596135
	C194	C	0.605438	0.099172	0.399331
	C195	C	0.406712	0.909163	0.400255
	C196	C	0.604608	0.405012	0.092026
	C197	C	0.606305	0.602673	0.904682
	C198	C	0.405767	0.601308	0.091814
	C199	C	0.404372	0.402860	0.904380
	C200	C	0.098998	0.601955	0.397694
	C201	C	0.911064	0.601584	0.598212
	C202	C	0.099447	0.405976	0.597837
	C203	C	0.910558	0.402609	0.397272
	C204	C	0.906559	0.598293	0.097983
	C205	C	0.102906	0.408046	0.096446
	C206	C	0.104282	0.597550	0.899631
	C207	C	0.906493	0.408571	0.899266
	C208	C	0.103792	0.906131	0.590488
	C209	C	0.107823	0.104029	0.403352
	C210	C	0.906697	0.102149	0.591393
	C211	C	0.905055	0.903090	0.402840
	C212	C	0.598940	0.103492	0.898526
	C213	C	0.410064	0.101332	0.099009
	C214	C	0.598997	0.905629	0.098056
	C215	C	0.411191	0.903752	0.898680
	Zn216	Zn	0.505349	0.003722	0.747880
	Zn217	Zn	0.505492	0.003348	0.249399
	Zn218	Zn	0.756536	0.503841	-0.001940
	Zn219	Zn	0.254365	0.502927	-0.001930
	Zn220	Zn	0.005166	0.752942	0.496853
	Zn221	Zn	0.006127	0.253783	0.496974
	Zn222	Zn	0.004618	0.503627	0.748661
	Zn223	Zn	0.004940	0.502667	0.247427
	Zn224	Zn	0.505408	0.753324	-0.002040
	Zn225	Zn	0.503981	0.253031	-0.001045
	Zn226	Zn	0.754845	0.003904	0.497350
	Zn227	Zn	0.256759	0.004809	0.498646
	N228	N	0.419472	0.966679	0.676514
	N229	N	0.591426	0.040820	0.676395
	N230	N	0.591742	0.967122	0.319635
	N231	N	0.420252	0.040738	0.320722
	N232	N	0.684676	0.416928	0.961421
	N233	N	0.685767	0.590596	0.035231
	N234	N	0.326178	0.589211	0.961540
	N235	N	0.324086	0.415745	0.034972
	N236	N	0.967400	0.679440	0.412969
	N237	N	0.042227	0.682273	0.583519
	N238	N	0.968321	0.325938	0.582002
	N239	N	0.043057	0.326983	0.413038
	N240	N	0.968827	0.415797	0.678029
	N241	N	0.041625	0.590395	0.677606
	N242	N	0.968358	0.589333	0.317981
	N243	N	0.041106	0.415437	0.316871
	N244	N	0.421428	0.679768	0.960580
	N245	N	0.591123	0.682090	0.035636
	N246	N	0.588646	0.326086	0.960923
	N247	N	0.419108	0.325070	0.036044
	N248	N	0.683640	0.966849	0.411707
	N249	N	0.684025	0.040634	0.583668
	N250	N	0.326161	0.967897	0.585201
	N251	N	0.330060	0.042192	0.414977
	N252	N	0.919082	0.465617	0.176108
	N253	N	0.090277	0.540529	0.175746
	N254	N	0.090412	0.465857	0.819548
	N255	N	0.919018	0.540360	0.819337
	N256	N	0.185446	0.918256	0.460784
	N257	N	0.185944	0.091497	0.534702
	N258	N	0.826433	0.090418	0.461223
	N259	N	0.824655	0.916165	0.533425
	N260	N	0.466915	0.180351	0.913945
	N261	N	0.541611	0.180881	0.083302
	N262	N	0.467762	0.825625	0.083151
	N263	N	0.542723	0.826255	0.913259
	N264	N	0.468790	0.915939	0.178971
	N265	N	0.541120	0.090520	0.178151
	N266	N	0.468475	0.089933	0.819141
	N267	N	0.541391	0.915782	0.817523
	N268	N	0.923620	0.178882	0.459593
	N269	N	0.092189	0.183203	0.534522
	N270	N	0.089866	0.826520	0.459486
	N271	N	0.919205	0.824584	0.534307
	N272	N	0.182229	0.465321	0.912731
	N273	N	0.182981	0.540387	0.083124
	N274	N	0.826607	0.465978	0.083992
	N275	N	0.828481	0.541010	0.912998
	O276	O	0.013294	-0.008158	-0.082690
	H277	H	0.017466	0.002226	-0.089058
	H278	H	0.017283	-0.004442	-0.083577
	O279	O	0.513773	0.530277	0.463029
	H280	H	0.511340	0.527645	0.449003
	H281	H	0.514313	0.531987	0.463299
	O282	O	0.477153	0.462897	0.451341
	H283	H	0.477769	0.454989	0.449338
	H284	H	0.482550	0.454126	0.445385
	O285	O	1.051113	0.094028	0.996617
	H286	H	1.057085	0.087334	1.005706
	H287	H	1.049153	0.089721	0.998746
	O288	O	1.030458	-0.081196	0.019989
	H289	H	1.033687	-0.077350	0.028694
	H290	H	1.025536	-0.070803	0.008422
	O291	O	0.589733	0.528316	0.509669
	H292	H	0.589625	0.534624	0.510131
	H293	H	0.592440	0.533775	0.524559
	O294	O	0.908172	0.025633	1.010695
	H295	H	0.901871	0.026019	1.012028
	H296	H	0.920940	0.027083	1.009831
	O297	O	0.010295	0.021909	-0.027328
	H298	H	0.013553	0.013137	-0.018324
	H299	H	0.015020	0.016210	-0.022364
	O300	O	0.525712	0.545443	0.388287
	H301	H	0.534384	0.547187	0.386684
	H302	H	0.527009	0.553533	0.380806
	O303	O	0.500265	0.530944	0.457475
	H304	H	0.509251	0.530736	0.464146
	H305	H	0.498053	0.538536	0.456111
	O306	O	0.955189	-0.018688	-0.068484
	H307	H	0.952117	-0.020965	-0.079125
	H308	H	0.961739	-0.019654	-0.074250
	O309	O	0.057865	0.000804	1.000491
	H310	H	0.059296	-0.000712	0.992224
	H311	H	0.055970	0.005522	1.005020
	O312	O	1.033934	0.988689	0.981137
	H313	H	1.036068	0.976907	0.984778
	H314	H	1.039366	0.981937	0.973976
	O315	O	0.454580	0.526408	0.483361
	H316	H	0.440894	0.521314	0.476649
	H317	H	0.462284	0.518336	0.477453
	O318	O	0.484807	0.527033	0.563357
	H319	H	0.481542	0.527724	0.563584
	H320	H	0.483287	0.532461	0.558661
	O321	O	-0.078787	1.005110	0.948283
	H322	H	-0.085733	1.014303	0.950840
	H323	H	-0.087303	1.008411	0.941332
	O324	O	0.469850	0.527401	0.495975
	H325	H	0.461943	0.530545	0.500404
	H326	H	0.470354	0.533060	0.500384
	O327	O	0.523510	0.510430	0.511332
	H328	H	0.522507	0.516819	0.503887
	H329	H	0.523324	0.519656	0.511519
	O330	O	0.508451	0.530447	0.497805
	H331	H	0.517630	0.531145	0.510646
	H332	H	0.511003	0.538764	0.495512
	O333	O	0.490627	0.477285	0.559503
	H334	H	0.493083	0.482577	0.546500
	H335	H	0.487409	0.474360	0.565312
	O336	O	0.519697	0.573136	0.552565
	H337	H	0.523538	0.558331	0.556804
	H338	H	0.509116	0.570268	0.555115
	O339	O	1.001093	0.982625	-0.079500
	H340	H	0.998763	0.977342	-0.081724
	H341	H	1.003243	0.986239	-0.074712
	O342	O	0.478937	0.557072	0.595127
	H343	H	0.490414	0.555091	0.591349
	H344	H	0.471155	0.555507	0.598764
	O345	O	0.462503	0.515304	0.505140
	H346	H	0.460657	0.513713	0.500800
	H347	H	0.456728	0.524449	0.502370
	O348	O	-0.014727	-0.022177	0.056530
	H349	H	-0.018578	-0.027151	0.052743
	H350	H	-0.019820	-0.026265	0.060291
	O351	O	0.043561	0.939607	0.947888
	H352	H	0.045981	0.944401	0.936835
	H353	H	0.036815	0.949833	0.947479
	O354	O	0.535092	0.538382	0.526709
	H355	H	0.532732	0.542948	0.534365
	H356	H	0.537124	0.537543	0.537503
	O357	O	0.008536	0.987589	0.989093
	H358	H	0.001083	0.990529	0.989767
	H359	H	0.011018	0.984179	0.994195
