data_Molecule from HDF5

_cell_length_a		16.326323
_cell_length_b		16.226847
_cell_length_c		16.291213
_cell_angle_alpha	90.042795
_cell_angle_beta	90.771534
_cell_angle_gamma	89.496194
_symmetry_space_group_name_H-M	'P 1'
_symmetry_Int_Tables_number		1

loop_
	_symmetry_equiv_pos_as_xyz
	x,y,z

loop_
	_atom_site_label
	_atom_site_type_symbol
	_atom_site_fract_x
	_atom_site_fract_y
	_atom_site_fract_z
	H0	H	0.400473	0.838620	0.712923
	H1	H	0.598072	0.165615	0.717273
	H2	H	0.595334	0.837768	0.283783
	H3	H	0.390937	0.165037	0.280704
	H4	H	0.711812	0.400676	0.837243
	H5	H	0.713684	0.602724	0.162682
	H6	H	0.274930	0.606952	0.838977
	H7	H	0.283588	0.402950	0.162812
	H8	H	0.832852	0.716916	0.400191
	H9	H	0.159631	0.713932	0.601281
	H10	H	0.831537	0.288451	0.597225
	H11	H	0.157672	0.283412	0.403560
	H12	H	0.832252	0.403214	0.713956
	H13	H	0.158221	0.600002	0.718730
	H14	H	0.833450	0.601167	0.282511
	H15	H	0.158919	0.398315	0.286967
	H16	H	0.395389	0.716383	0.834992
	H17	H	0.596119	0.717044	0.163312
	H18	H	0.598764	0.284419	0.837957
	H19	H	0.400047	0.287474	0.162496
	H20	H	0.710726	0.837390	0.401705
	H21	H	0.712827	0.165093	0.601706
	H22	H	0.285396	0.837515	0.596183
	H23	H	0.273458	0.163499	0.394805
	H24	H	0.900055	0.338179	0.212081
	H25	H	0.096049	0.664790	0.219044
	H26	H	0.094716	0.337564	0.787256
	H27	H	0.893618	0.665617	0.782623
	H28	H	0.209950	0.897703	0.335850
	H29	H	0.215443	0.102448	0.660610
	H30	H	0.774771	0.102751	0.337823
	H31	H	0.783133	0.902306	0.663164
	H32	H	0.335029	0.223062	0.894447
	H33	H	0.660390	0.215160	0.100719
	H34	H	0.333002	0.789070	0.095236
	H35	H	0.658916	0.785684	0.903181
	H36	H	0.333342	0.902144	0.211261
	H37	H	0.656662	0.102973	0.219890
	H38	H	0.335085	0.105012	0.779487
	H39	H	0.660473	0.900983	0.786538
	H40	H	0.889156	0.218829	0.336852
	H41	H	0.095220	0.215499	0.662818
	H42	H	0.093810	0.783095	0.336970
	H43	H	0.899679	0.787197	0.663549
	H44	H	0.214450	0.339948	0.900636
	H45	H	0.212521	0.666299	0.103790
	H46	H	0.783162	0.339440	0.099268
	H47	H	0.778943	0.666011	0.899253
	H48	H	0.401973	0.119956	0.590654
	H49	H	0.587724	0.886409	0.592636
	H50	H	0.581082	0.115199	0.410559
	H51	H	0.405621	0.885680	0.404236
	H52	H	0.590590	0.408716	0.116407
	H53	H	0.599321	0.591552	0.881268
	H54	H	0.404024	0.590809	0.114801
	H55	H	0.402672	0.419073	0.885604
	H56	H	0.110493	0.597655	0.421327
	H57	H	0.879823	0.595367	0.591097
	H58	H	0.110487	0.408407	0.595897
	H59	H	0.877950	0.404891	0.402326
	H60	H	0.110921	0.405087	0.593476
	H61	H	0.879858	0.595484	0.590311
	H62	H	0.108443	0.578826	0.408673
	H63	H	0.881792	0.410344	0.410715
	H64	H	0.411614	0.599488	0.114923
	H65	H	0.580130	0.586734	0.888617
	H66	H	0.594018	0.411114	0.116752
	H67	H	0.410627	0.414290	0.885941
	H68	H	0.587267	0.117140	0.411841
	H69	H	0.593053	0.885969	0.590507
	H70	H	0.408169	0.116402	0.589028
	H71	H	0.401868	0.886023	0.405737
	H72	H	0.910916	0.616495	0.088232
	H73	H	0.092460	0.384563	0.096380
	H74	H	0.076817	0.614420	0.912822
	H75	H	0.900689	0.384771	0.906183
	H76	H	0.085643	0.913039	0.612854
	H77	H	0.080327	0.094424	0.384225
	H78	H	0.904524	0.094359	0.615827
	H79	H	0.898301	0.907715	0.382372
	H80	H	0.612673	0.097643	0.910191
	H81	H	0.382941	0.088765	0.087060
	H82	H	0.614332	0.907773	0.098553
	H83	H	0.378472	0.913948	0.895334
	H84	H	0.611054	0.906257	0.087561
	H85	H	0.378262	0.098774	0.093519
	H86	H	0.610725	0.089836	0.910909
	H87	H	0.378467	0.903040	0.904437
	H88	H	0.903667	0.094563	0.615520
	H89	H	0.087142	0.094261	0.381505
	H90	H	0.091132	0.900726	0.617505
	H91	H	0.902262	0.915290	0.386043
	H92	H	0.093320	0.618885	0.915582
	H93	H	0.089189	0.387821	0.090858
	H94	H	0.899541	0.619452	0.087890
	H95	H	0.906206	0.385371	0.904552
	H96	H	0.402731	0.117188	0.583951
	H97	H	0.592019	0.884070	0.596159
	H98	H	0.583962	0.117770	0.405962
	H99	H	0.401904	0.884086	0.401528
	H100	H	0.590427	0.412829	0.114464
	H101	H	0.583851	0.605994	0.880630
	H102	H	0.400114	0.601383	0.119233
	H103	H	0.402889	0.410439	0.883535
	H104	H	0.116592	0.597240	0.399443
	H105	H	0.880021	0.594944	0.590838
	H106	H	0.109598	0.408786	0.591777
	H107	H	0.879545	0.415340	0.401820
	H108	H	0.905491	0.621013	0.097984
	H109	H	0.095276	0.385742	0.090192
	H110	H	0.085142	0.621431	0.899712
	H111	H	0.904622	0.386991	0.909924
	H112	H	0.099317	0.912264	0.616200
	H113	H	0.084718	0.088654	0.384956
	H114	H	0.904117	0.094532	0.614914
	H115	H	0.906123	0.907246	0.384865
	H116	H	0.613269	0.093408	0.903579
	H117	H	0.382124	0.100950	0.081457
	H118	H	0.610245	0.917463	0.092191
	H119	H	0.383057	0.916030	0.908529
	C120	C	0.376624	0.010302	0.617810
	C121	C	0.619622	0.993570	0.622429
	C122	C	0.614795	0.009053	0.379607
	C123	C	0.371982	0.993025	0.374508
	C124	C	0.619817	0.380784	0.008320
	C125	C	0.617860	0.624265	0.991176
	C126	C	0.374106	0.626252	0.008475
	C127	C	0.377122	0.383577	0.991903
	C128	C	0.004603	0.622046	0.378880
	C129	C	0.987484	0.623338	0.621789
	C130	C	0.002837	0.379523	0.621475
	C131	C	0.987124	0.379310	0.377788
	C132	C	0.876353	0.510866	0.120139
	C133	C	0.120438	0.493684	0.123430
	C134	C	0.116282	0.510345	0.880080
	C135	C	0.873613	0.493661	0.877172
	C136	C	0.119257	0.878267	0.507845
	C137	C	0.115674	0.122087	0.490703
	C138	C	0.872329	0.124147	0.508239
	C139	C	0.874797	0.880753	0.492026
	C140	C	0.505523	0.125227	0.876415
	C141	C	0.488049	0.124676	0.119797
	C142	C	0.504312	0.881315	0.119930
	C143	C	0.487929	0.880830	0.876147
	C144	C	0.380115	0.887175	0.674008
	C145	C	0.617945	0.116641	0.678833
	C146	C	0.614881	0.886594	0.322482
	C147	C	0.371499	0.115684	0.318381
	C148	C	0.674372	0.381688	0.885961
	C149	C	0.675165	0.623023	0.113964
	C150	C	0.315163	0.625491	0.886658
	C151	C	0.322063	0.383913	0.114255
	C152	C	0.881717	0.678719	0.379801
	C153	C	0.110398	0.677361	0.621712
	C154	C	0.880285	0.325904	0.617701
	C155	C	0.109107	0.321563	0.382096
	C156	C	0.880714	0.382760	0.676100
	C157	C	0.109801	0.620164	0.679661
	C158	C	0.882092	0.621336	0.321089
	C159	C	0.109887	0.378899	0.324184
	C160	C	0.374842	0.680292	0.884988
	C161	C	0.616186	0.679460	0.114181
	C162	C	0.617590	0.323948	0.886215
	C163	C	0.379684	0.326175	0.114024
	C164	C	0.672035	0.886268	0.381318
	C165	C	0.675026	0.116560	0.621529
	C166	C	0.322655	0.886722	0.616242
	C167	C	0.313089	0.115033	0.375246
	C168	C	0.879171	0.387413	0.174971
	C169	C	0.117476	0.616136	0.180953
	C170	C	0.115074	0.386944	0.824796
	C171	C	0.874112	0.616582	0.820981
	C172	C	0.172788	0.878354	0.385052
	C173	C	0.175198	0.121543	0.612521
	C174	C	0.813939	0.122711	0.386092
	C175	C	0.820576	0.882141	0.614476
	C176	C	0.383758	0.183719	0.875521
	C177	C	0.610636	0.178829	0.120587
	C178	C	0.381849	0.826493	0.116084
	C179	C	0.610472	0.823820	0.881161
	C180	C	0.381941	0.882952	0.173737
	C181	C	0.608932	0.122988	0.179979
	C182	C	0.383769	0.125453	0.817832
	C183	C	0.611138	0.881434	0.823610
	C184	C	0.871120	0.180319	0.385702
	C185	C	0.115646	0.177785	0.613704
	C186	C	0.114836	0.821410	0.385428
	C187	C	0.878538	0.824885	0.614617
	C188	C	0.174525	0.388014	0.881294
	C189	C	0.175122	0.616816	0.123332
	C190	C	0.821039	0.388083	0.118572
	C191	C	0.816878	0.616845	0.878850
	C192	C	0.397966	0.095647	0.594635
	C193	C	0.597515	0.907881	0.599674
	C194	C	0.591056	0.094573	0.402857
	C195	C	0.396230	0.907300	0.397176
	C196	C	0.598283	0.404086	0.093647
	C197	C	0.594584	0.601497	0.905496
	C198	C	0.398271	0.603836	0.094092
	C199	C	0.398894	0.407563	0.907127
	C200	C	0.089669	0.598317	0.402929
	C201	C	0.902087	0.601600	0.597765
	C202	C	0.088394	0.401160	0.600027
	C203	C	0.901831	0.403239	0.398563
	C204	C	0.898711	0.596813	0.097826
	C205	C	0.098595	0.408102	0.099781
	C206	C	0.092215	0.596099	0.902772
	C207	C	0.896873	0.408047	0.900216
	C208	C	0.098380	0.901818	0.593400
	C209	C	0.091125	0.099104	0.405764
	C210	C	0.896935	0.101153	0.593377
	C211	C	0.895888	0.903395	0.406426
	C212	C	0.590479	0.100810	0.901084
	C213	C	0.402926	0.102593	0.094608
	C214	C	0.589842	0.903849	0.098952
	C215	C	0.402238	0.904180	0.896690
	Zn216	Zn	0.497579	0.002612	0.748099
	Zn217	Zn	0.494918	0.002062	0.247852
	Zn218	Zn	0.747199	0.502646	0.000463
	Zn219	Zn	0.246928	0.503925	0.000767
	Zn220	Zn	-0.003493	0.751703	0.500265
	Zn221	Zn	-0.005992	0.251105	0.499813
	Zn222	Zn	-0.004813	0.501726	0.750102
	Zn223	Zn	-0.003075	0.500840	0.249351
	Zn224	Zn	0.495770	0.753297	-0.000735
	Zn225	Zn	0.497715	0.253585	-0.000665
	Zn226	Zn	0.745448	0.001581	0.500365
	Zn227	Zn	0.246013	0.000771	0.497769
	N228	N	0.413082	0.964886	0.675268
	N229	N	0.584237	0.039408	0.679393
	N230	N	0.579940	0.964027	0.321391
	N231	N	0.407269	0.038594	0.317746
	N232	N	0.675917	0.416443	0.963004
	N233	N	0.676119	0.589167	0.036507
	N234	N	0.314386	0.592866	0.964479
	N235	N	0.320304	0.418925	0.037383
	N236	N	0.958885	0.679389	0.414834
	N237	N	0.033342	0.679538	0.586438
	N238	N	0.957243	0.323871	0.584463
	N239	N	0.031801	0.321654	0.414585
	N240	N	0.958013	0.415618	0.678417
	N241	N	0.032246	0.587512	0.679766
	N242	N	0.959544	0.586998	0.320339
	N243	N	0.033068	0.414222	0.321411
	N244	N	0.410866	0.680951	0.961799
	N245	N	0.581579	0.680590	0.036793
	N246	N	0.584519	0.323104	0.963221
	N247	N	0.413213	0.325821	0.037156
	N248	N	0.672230	0.963578	0.416050
	N249	N	0.676145	0.039034	0.587044
	N250	N	0.320412	0.964160	0.581832
	N251	N	0.313230	0.037588	0.409122
	N252	N	0.913125	0.464582	0.175865
	N253	N	0.084278	0.538423	0.181154
	N254	N	0.079599	0.464167	0.823969
	N255	N	0.908658	0.539067	0.819865
	N256	N	0.175603	0.912905	0.462140
	N257	N	0.175328	0.087711	0.535046
	N258	N	0.814444	0.088619	0.463161
	N259	N	0.818085	0.916188	0.537261
	N260	N	0.460677	0.183805	0.911050
	N261	N	0.534213	0.180030	0.084106
	N262	N	0.458838	0.825616	0.083172
	N263	N	0.532867	0.823055	0.912963
	N264	N	0.459188	0.916479	0.176267
	N265	N	0.531664	0.089945	0.179578
	N266	N	0.460524	0.090006	0.818121
	N267	N	0.533945	0.916194	0.820510
	N268	N	0.906775	0.181362	0.462659
	N269	N	0.079393	0.178267	0.536990
	N270	N	0.082324	0.821040	0.462890
	N271	N	0.911885	0.824242	0.537545
	N272	N	0.175321	0.465780	0.914813
	N273	N	0.177045	0.539703	0.088424
	N274	N	0.819484	0.465880	0.085165
	N275	N	0.816444	0.539356	0.913126
	O276	O	1.100363	-0.054723	1.011978
	H277	H	1.108402	-0.051074	1.018037
	H278	H	1.095016	-0.053832	1.011041
	O279	O	0.477978	0.467774	0.515755
	H280	H	0.469276	0.461851	0.514409
	H281	H	0.480285	0.463406	0.514057
	O282	O	0.565160	0.522946	0.543069
	H283	H	0.578042	0.532613	0.550026
	H284	H	0.564294	0.520444	0.557089
	O285	O	0.479143	0.589852	0.483893
	H286	H	0.486337	0.599798	0.491020
	H287	H	0.482579	0.582870	0.487763
	O288	O	0.429290	0.505918	0.496485
	H289	H	0.436594	0.501967	0.486710
	H290	H	0.419632	0.521962	0.492968
	O291	O	0.059898	0.118130	0.953815
	H292	H	0.054041	0.127185	0.953731
	H293	H	0.054853	0.114623	0.963564
	O294	O	0.933074	1.034494	0.082056
	H295	H	0.934121	1.029539	0.081965
	H296	H	0.931558	1.034855	0.077021
	O297	O	0.984567	1.047159	0.010766
	H298	H	0.990761	1.038948	0.004831
	H299	H	0.978794	1.039723	0.016301
	O300	O	0.532099	0.557738	0.534512
	H301	H	0.547972	0.557308	0.532884
	H302	H	0.523676	0.563567	0.538602
	O303	O	0.455417	0.477854	0.559960
	H304	H	0.457558	0.483103	0.559940
	H305	H	0.454284	0.472521	0.547138
	O306	O	0.529449	0.550742	0.630594
	H307	H	0.545935	0.538258	0.633686
	H308	H	0.519001	0.551789	0.631590
	O309	O	0.479667	0.424052	0.492992
	H310	H	0.471560	0.426186	0.487171
	H311	H	0.477805	0.426501	0.497016
	O312	O	1.019498	0.894675	1.032302
	H313	H	1.016684	0.896323	1.024864
	H314	H	1.025892	0.893935	1.035376
	O315	O	0.859631	1.087932	-0.071212
	H316	H	0.857760	1.080347	-0.066395
	H317	H	0.855906	1.096222	-0.075731
	O318	O	0.414119	0.425943	0.642271
	H319	H	0.403377	0.417940	0.641695
	H320	H	0.413948	0.414196	0.640557
	O321	O	0.458834	0.533606	0.440471
	H322	H	0.466193	0.538946	0.448590
	H323	H	0.459755	0.532638	0.443117
	O324	O	0.135605	0.938804	1.060886
	H325	H	0.141209	0.952243	1.054606
	H326	H	0.131169	0.956092	1.067895
	O327	O	-0.108354	0.980620	0.984441
	H328	H	-0.104890	0.969363	0.977431
	H329	H	-0.102290	0.981247	1.000156
	O330	O	-0.008650	0.057602	0.103044
	H331	H	-0.014245	0.043118	0.101297
	H332	H	-0.003863	0.052875	0.103705
	O333	O	0.451862	0.600983	0.429658
	H334	H	0.437495	0.596748	0.416406
	H335	H	0.466577	0.601706	0.427872
	O336	O	-0.024421	0.021469	0.157221
	H337	H	-0.032964	0.008771	0.169116
	H338	H	-0.016736	0.030500	0.163446
	O339	O	0.035219	0.120448	-0.065176
	H340	H	0.040810	0.116386	-0.062537
	H341	H	0.035884	0.114177	-0.062892
	O342	O	0.463583	0.441861	0.587681
	H343	H	0.469853	0.437005	0.593393
	H344	H	0.465659	0.453944	0.590080
	O345	O	-0.114355	0.991832	0.924031
	H346	H	-0.110045	0.989168	0.933673
	H347	H	-0.117915	0.982496	0.918169
	O348	O	0.450392	0.559134	0.451783
	H349	H	0.448736	0.554215	0.446653
	H350	H	0.453881	0.558414	0.447596
	O351	O	0.469642	0.618231	0.487777
	H352	H	0.470563	0.625362	0.485542
	H353	H	0.464529	0.625086	0.492266
	O354	O	0.048128	0.971922	0.064636
	H355	H	0.051364	0.974069	0.046960
	H356	H	0.056648	0.978233	0.071885
	O357	O	0.536537	0.501352	0.541145
	H358	H	0.539103	0.503885	0.541560
	H359	H	0.549551	0.497534	0.541795
	O360	O	1.012027	0.010078	1.120801
	H361	H	1.017572	-0.004471	1.130541
	H362	H	1.010129	0.008561	1.127214
	O363	O	0.492800	0.428574	0.439162
	H364	H	0.491160	0.422792	0.431896
	H365	H	0.495542	0.421221	0.445727
	O366	O	0.434672	0.552180	0.459909
	H367	H	0.424518	0.556299	0.457490
	H368	H	0.428705	0.544629	0.470182
	O369	O	1.079265	-0.127584	-0.108737
	H370	H	1.077738	-0.115530	-0.119588
	H371	H	1.082519	-0.131793	-0.119127
	O372	O	0.450303	0.499538	0.401786
	H373	H	0.454692	0.498640	0.411580
	H374	H	0.446778	0.507212	0.400639
	O375	O	1.020007	0.049059	0.905378
	H376	H	1.015907	0.043125	0.906458
	H377	H	1.014516	0.058945	0.901356
	O378	O	-0.003774	0.975854	0.037344
	H379	H	0.006945	0.982989	0.032524
	H380	H	-0.004782	0.965183	0.031948
	O381	O	0.618725	0.381461	0.504599
	H382	H	0.624980	0.380431	0.501238
	H383	H	0.604182	0.378163	0.501251
	O384	O	1.096080	0.899360	-0.092224
	H385	H	1.107466	0.901029	-0.098281
	H386	H	1.085038	0.898911	-0.098523
	O387	O	1.013781	0.014371	0.989398
	H388	H	1.023828	0.017207	0.996721
	H389	H	1.007829	0.024608	0.980661
	O390	O	0.871720	1.008890	-0.039106
	H391	H	0.868940	1.012541	-0.031029
	H392	H	0.865561	1.006153	-0.037125
	O393	O	0.540542	0.399017	0.417874
	H394	H	0.536637	0.397471	0.419416
	H395	H	0.542258	0.389457	0.420476
