data_Molecule from HDF5

_cell_length_a		16.594912
_cell_length_b		16.700004
_cell_length_c		16.498938
_cell_angle_alpha	90.083313
_cell_angle_beta	90.146612
_cell_angle_gamma	89.750039
_symmetry_space_group_name_H-M	'P 1'
_symmetry_Int_Tables_number		1

loop_
	_symmetry_equiv_pos_as_xyz
	x,y,z

loop_
	_atom_site_label
	_atom_site_type_symbol
	_atom_site_fract_x
	_atom_site_fract_y
	_atom_site_fract_z
	H0	H	0.425377	0.834658	0.706137
	H1	H	0.635195	0.143903	0.707972
	H2	H	0.635954	0.833820	0.263561
	H3	H	0.424688	0.144523	0.263211
	H4	H	0.749730	0.384959	0.825985
	H5	H	0.751819	0.593235	0.140056
	H6	H	0.309789	0.592615	0.826899
	H7	H	0.309322	0.381798	0.140205
	H8	H	0.876034	0.712039	0.378690
	H9	H	0.185924	0.710179	0.593426
	H10	H	0.874543	0.267485	0.590802
	H11	H	0.184899	0.264804	0.377853
	H12	H	0.874005	0.385449	0.705302
	H13	H	0.188048	0.590194	0.704564
	H14	H	0.875834	0.594615	0.263004
	H15	H	0.186285	0.382526	0.263973
	H16	H	0.421119	0.711862	0.828461
	H17	H	0.636065	0.709825	0.139645
	H18	H	0.634346	0.268464	0.826141
	H19	H	0.426746	0.266598	0.140888
	H20	H	0.752767	0.833990	0.380987
	H21	H	0.754485	0.142441	0.593840
	H22	H	0.305793	0.836729	0.592341
	H23	H	0.305175	0.142995	0.375877
	H24	H	0.928896	0.333624	0.204632
	H25	H	0.137915	0.642791	0.208241
	H26	H	0.132673	0.330979	0.765296
	H27	H	0.927993	0.645968	0.765789
	H28	H	0.249905	0.884405	0.327739
	H29	H	0.249593	0.090968	0.642330
	H30	H	0.808883	0.093304	0.329241
	H31	H	0.810627	0.885100	0.642589
	H32	H	0.376021	0.213201	0.875708
	H33	H	0.688322	0.206658	0.088631
	H34	H	0.373732	0.768961	0.088361
	H35	H	0.684243	0.764511	0.876936
	H36	H	0.372663	0.887655	0.201755
	H37	H	0.687486	0.090693	0.204593
	H38	H	0.373252	0.091395	0.765179
	H39	H	0.685963	0.884118	0.763655
	H40	H	0.923633	0.210531	0.329562
	H41	H	0.134885	0.208598	0.642588
	H42	H	0.135775	0.766692	0.328851
	H43	H	0.925841	0.767706	0.641794
	H44	H	0.251856	0.331761	0.880172
	H45	H	0.252330	0.643137	0.090007
	H46	H	0.813147	0.332446	0.086638
	H47	H	0.808326	0.644141	0.879408
	H48	H	0.437516	0.099356	0.567300
	H49	H	0.622757	0.878851	0.571321
	H50	H	0.620776	0.100839	0.394044
	H51	H	0.440220	0.878939	0.397435
	H52	H	0.618413	0.391348	0.097936
	H53	H	0.615797	0.576643	0.872126
	H54	H	0.438764	0.579890	0.097675
	H55	H	0.442749	0.393581	0.870150
	H56	H	0.141811	0.572656	0.395200
	H57	H	0.914415	0.581116	0.584700
	H58	H	0.142238	0.401236	0.574035
	H59	H	0.920112	0.401716	0.398240
	H60	H	0.143379	0.396865	0.575456
	H61	H	0.918258	0.588459	0.566374
	H62	H	0.145070	0.581530	0.395944
	H63	H	0.918868	0.402205	0.393278
	H64	H	0.442839	0.572831	0.094942
	H65	H	0.618506	0.577693	0.871578
	H66	H	0.628809	0.396476	0.098988
	H67	H	0.438463	0.403104	0.872543
	H68	H	0.618043	0.100312	0.395376
	H69	H	0.621427	0.877024	0.576116
	H70	H	0.439919	0.102278	0.577750
	H71	H	0.437645	0.877082	0.393253
	H72	H	0.939741	0.600200	0.071839
	H73	H	0.120736	0.377000	0.076201
	H74	H	0.127106	0.601096	0.895395
	H75	H	0.939942	0.373879	0.886838
	H76	H	0.122918	0.908573	0.595637
	H77	H	0.115446	0.080238	0.372852
	H78	H	0.935010	0.076097	0.600627
	H79	H	0.940283	0.898585	0.372154
	H80	H	0.637735	0.074400	0.904561
	H81	H	0.419532	0.080251	0.070432
	H82	H	0.643291	0.893015	0.072146
	H83	H	0.415842	0.898846	0.891693
	H84	H	0.640477	0.900505	0.069467
	H85	H	0.419980	0.077608	0.072069
	H86	H	0.643128	0.071553	0.889055
	H87	H	0.418468	0.896008	0.899654
	H88	H	0.948536	0.073433	0.593107
	H89	H	0.120211	0.078098	0.371388
	H90	H	0.109727	0.896717	0.595000
	H91	H	0.942272	0.902099	0.373890
	H92	H	0.116947	0.599637	0.889467
	H93	H	0.117503	0.379640	0.072230
	H94	H	0.941337	0.600512	0.074296
	H95	H	0.945546	0.379403	0.895860
	H96	H	0.447775	0.097422	0.571583
	H97	H	0.617790	0.879348	0.573116
	H98	H	0.620494	0.099741	0.397315
	H99	H	0.442283	0.878329	0.393243
	H100	H	0.619861	0.402288	0.094492
	H101	H	0.617897	0.574569	0.871793
	H102	H	0.447003	0.580452	0.095044
	H103	H	0.448744	0.401597	0.875110
	H104	H	0.140109	0.577485	0.403154
	H105	H	0.923296	0.569747	0.570571
	H106	H	0.141078	0.396812	0.570945
	H107	H	0.917763	0.397715	0.396341
	H108	H	0.942409	0.598799	0.071816
	H109	H	0.123046	0.378036	0.071175
	H110	H	0.118334	0.595882	0.900172
	H111	H	0.934249	0.376724	0.897031
	H112	H	0.125636	0.892196	0.602188
	H113	H	0.116592	0.075342	0.373658
	H114	H	0.945829	0.087159	0.600418
	H115	H	0.944441	0.898400	0.373410
	H116	H	0.645740	0.086047	0.896054
	H117	H	0.418784	0.080313	0.073822
	H118	H	0.643537	0.899317	0.077542
	H119	H	0.419902	0.904457	0.897247
	C120	C	0.409344	-0.002383	0.604955
	C121	C	0.652710	0.980556	0.606895
	C122	C	0.652100	-0.002529	0.363799
	C123	C	0.407875	0.980763	0.362424
	C124	C	0.653180	0.366007	-0.007378
	C125	C	0.650504	0.608953	0.975269
	C126	C	0.409750	0.609538	-0.007522
	C127	C	0.411014	0.366979	0.976066
	C128	C	0.039434	0.609983	0.364692
	C129	C	1.022069	0.610329	0.606755
	C130	C	0.038676	0.367557	0.605542
	C131	C	1.021843	0.367561	0.363480
	C132	C	0.910058	0.497254	0.104998
	C133	C	0.153062	0.480348	0.106269
	C134	C	0.152285	0.495560	0.863150
	C135	C	0.908564	0.479960	0.862162
	C136	C	0.151800	0.867083	0.493763
	C137	C	0.150202	0.109535	0.476487
	C138	C	0.909501	0.110733	0.494515
	C139	C	0.910494	0.868349	0.477090
	C140	C	0.538980	0.109605	0.863484
	C141	C	0.522811	0.109980	0.104665
	C142	C	0.538856	0.867121	0.104864
	C143	C	0.521102	0.867262	0.863003
	C144	C	0.406731	0.881031	0.665761
	C145	C	0.654222	0.097088	0.668003
	C146	C	0.654311	0.880280	0.303906
	C147	C	0.405809	0.097570	0.302466
	C148	C	0.710747	0.365620	0.873521
	C149	C	0.711259	0.611489	0.093045
	C150	C	0.348999	0.611482	0.874481
	C151	C	0.350438	0.364389	0.093703
	C152	C	0.922546	0.671263	0.360761
	C153	C	0.139460	0.669533	0.610370
	C154	C	0.921163	0.308190	0.608262
	C155	C	0.138597	0.305893	0.360248
	C156	C	0.920672	0.366749	0.665190
	C157	C	0.140447	0.609853	0.665835
	C158	C	0.922430	0.612878	0.303406
	C159	C	0.139341	0.364588	0.303770
	C160	C	0.404864	0.670520	0.875066
	C161	C	0.653854	0.669675	0.092841
	C162	C	0.653384	0.307884	0.873506
	C163	C	0.408461	0.306910	0.093921
	C164	C	0.712393	0.880502	0.362113
	C165	C	0.713315	0.096675	0.611272
	C166	C	0.347575	0.882118	0.609039
	C167	C	0.346596	0.096797	0.358992
	C168	C	0.909927	0.380070	0.164429
	C169	C	0.155802	0.596425	0.167485
	C170	C	0.151972	0.377718	0.804808
	C171	C	0.908146	0.598494	0.804369
	C172	C	0.210650	0.865594	0.375071
	C173	C	0.210244	0.110630	0.594988
	C174	C	0.848757	0.112507	0.376439
	C175	C	0.850572	0.866541	0.595440
	C176	C	0.422095	0.171165	0.859306
	C177	C	0.640971	0.167687	0.107029
	C178	C	0.420786	0.808760	0.106741
	C179	C	0.637951	0.805769	0.859236
	C180	C	0.420284	0.867865	0.163191
	C181	C	0.640440	0.110074	0.164796
	C182	C	0.420660	0.111007	0.804077
	C183	C	0.638760	0.865071	0.803077
	C184	C	0.905594	0.170776	0.376581
	C185	C	0.153094	0.168867	0.594965
	C186	C	0.154152	0.807104	0.375707
	C187	C	0.908117	0.808474	0.595053
	C188	C	0.211205	0.378251	0.861809
	C189	C	0.212872	0.596459	0.108785
	C190	C	0.852194	0.379654	0.106116
	C191	C	0.848883	0.597733	0.860936
	C192	C	0.434742	0.078604	0.579459
	C193	C	0.627795	0.899394	0.580784
	C194	C	0.627030	0.079141	0.388491
	C195	C	0.433170	0.899222	0.387550
	C196	C	0.629366	0.389862	0.075679
	C197	C	0.624567	0.583509	0.893133
	C198	C	0.435555	0.584673	0.074511
	C199	C	0.436205	0.392247	0.893963
	C200	C	0.121032	0.584548	0.390585
	C201	C	0.939914	0.586540	0.581152
	C202	C	0.120790	0.391571	0.580676
	C203	C	0.940087	0.393184	0.388798
	C204	C	0.934311	0.578743	0.079978
	C205	C	0.127656	0.399269	0.080526
	C206	C	0.127656	0.577579	0.887709
	C207	C	0.932854	0.398285	0.886309
	C208	C	0.126849	0.892003	0.576209
	C209	C	0.124735	0.084944	0.394054
	C210	C	0.935524	0.085847	0.576652
	C211	C	0.935183	0.892946	0.394618
	C212	C	0.620929	0.084486	0.889244
	C213	C	0.440702	0.086123	0.079262
	C214	C	0.621028	0.890745	0.080246
	C215	C	0.439249	0.892575	0.888727
	Zn216	Zn	0.529887	-0.011184	0.734702
	Zn217	Zn	0.530278	-0.011202	0.234276
	Zn218	Zn	0.779784	0.488462	-0.016219
	Zn219	Zn	0.282152	0.487761	-0.015582
	Zn220	Zn	0.031466	0.738860	0.485501
	Zn221	Zn	0.030174	0.238993	0.484575
	Zn222	Zn	0.030249	0.488449	0.734218
	Zn223	Zn	0.031363	0.488848	0.235329
	Zn224	Zn	0.529718	0.738283	-0.016544
	Zn225	Zn	0.531762	0.238815	-0.016057
	Zn226	Zn	0.781681	-0.010469	0.485581
	Zn227	Zn	0.279155	-0.010980	0.483895
	N228	N	0.444559	0.953791	0.663235
	N229	N	0.617319	0.023798	0.665510
	N230	N	0.617516	0.954005	0.304737
	N231	N	0.443268	0.024243	0.304446
	N232	N	0.711010	0.400884	0.948695
	N233	N	0.709166	0.574286	0.018954
	N234	N	0.351556	0.574239	0.948620
	N235	N	0.351920	0.400933	0.019297
	N236	N	0.996514	0.669698	0.398025
	N237	N	0.064827	0.670083	0.574359
	N238	N	0.995353	0.308630	0.571850
	N239	N	0.064395	0.307428	0.396478
	N240	N	0.994675	0.403118	0.663589
	N241	N	0.066248	0.573604	0.663739
	N242	N	0.996124	0.575493	0.305673
	N243	N	0.065585	0.402189	0.305491
	N244	N	0.441882	0.669556	0.949446
	N245	N	0.616865	0.668349	0.018438
	N246	N	0.618373	0.307920	0.948823
	N247	N	0.445416	0.308298	0.019622
	N248	N	0.711254	0.954429	0.398552
	N249	N	0.712505	0.023190	0.573958
	N250	N	0.349082	0.955502	0.571767
	N251	N	0.347663	0.023008	0.395469
	N252	N	0.945018	0.454298	0.164067
	N253	N	0.119507	0.522855	0.166454
	N254	N	0.116230	0.451928	0.805408
	N255	N	0.944394	0.524367	0.804698
	N256	N	0.209445	0.902142	0.449683
	N257	N	0.208765	0.074567	0.520216
	N258	N	0.850841	0.075873	0.450851
	N259	N	0.851702	0.902932	0.520875
	N260	N	0.496809	0.170467	0.895503
	N261	N	0.566604	0.167968	0.070508
	N262	N	0.495682	0.807793	0.071481
	N263	N	0.563725	0.806991	0.895732
	N264	N	0.494864	0.903410	0.162486
	N265	N	0.565893	0.074915	0.163704
	N266	N	0.494394	0.073474	0.806549
	N267	N	0.565033	0.902477	0.805274
	N268	N	0.942288	0.170001	0.451083
	N269	N	0.116761	0.168530	0.520068
	N270	N	0.118616	0.807660	0.450705
	N271	N	0.944453	0.809303	0.520459
	N272	N	0.211747	0.452764	0.897019
	N273	N	0.211467	0.523146	0.071475
	N274	N	0.851831	0.453716	0.070042
	N275	N	0.848832	0.523148	0.895950
	O276	O	0.069760	1.043267	-0.096934
	H277	H	0.063257	1.028743	-0.093457
	H278	H	0.068096	1.034161	-0.085869
	O279	O	0.311793	0.512568	0.263920
	H280	H	0.292752	0.528074	0.260167
	H281	H	0.299432	0.526155	0.264837
	O282	O	1.059202	-0.222565	0.776177
	H283	H	1.047297	-0.217151	0.761509
	H284	H	1.065692	-0.225219	0.773456
	O285	O	0.064989	1.186546	1.101164
	H286	H	0.068753	1.189517	1.096086
	H287	H	0.054234	1.187383	1.118659
	O288	O	0.213900	0.016191	0.937209
	H289	H	0.211937	0.002447	0.946965
	H290	H	0.225140	0.032743	0.944136
	O291	O	0.546777	0.522065	0.276641
	H292	H	0.537200	0.512261	0.267383
	H293	H	0.534021	0.514220	0.280680
	O294	O	0.476847	0.475142	0.442501
	H295	H	0.486092	0.477658	0.443576
	H296	H	0.482363	0.471089	0.450125
	O297	O	0.632300	0.566997	0.568445
	H298	H	0.625075	0.566432	0.562359
	H299	H	0.630160	0.561429	0.567493
	O300	O	-0.405928	0.717394	0.443951
	H301	H	-0.416740	0.722462	0.436836
	H302	H	-0.408973	0.715991	0.464572
	O303	O	0.308326	0.265282	0.507583
	H304	H	0.296873	0.258401	0.529287
	H305	H	0.299493	0.253934	0.535137
	O306	O	0.527662	0.494520	0.291819
	H307	H	0.521626	0.496744	0.290505
	H308	H	0.535199	0.491957	0.296761
	O309	O	0.309430	0.455972	0.693649
	H310	H	0.279040	0.450597	0.722229
	H311	H	0.317254	0.428771	0.683038
	O312	O	0.820505	0.772562	0.770350
	H313	H	0.839708	0.792918	0.780341
	H314	H	0.801308	0.777328	0.786089
	O315	O	0.985209	1.097761	0.772250
	H316	H	0.994651	1.080675	0.770767
	H317	H	0.972928	1.112662	0.772443
	O318	O	0.589973	0.336074	0.304185
	H319	H	0.583282	0.334353	0.292102
	H320	H	0.602284	0.321435	0.297143
	O321	O	0.014508	1.183958	1.083417
	H322	H	0.012201	1.179147	1.074768
	H323	H	0.003609	1.184998	1.074766
	O324	O	0.892789	0.998302	-0.049757
	H325	H	0.899358	1.004967	-0.041689
	H326	H	0.867472	0.993528	-0.057005
	O327	O	-0.178369	-0.221113	1.189862
	H328	H	-0.209989	-0.249466	1.223359
	H329	H	-0.162175	-0.198047	1.185181
	O330	O	0.824399	1.119597	0.773775
	H331	H	0.862908	1.131021	0.770808
	H332	H	0.801924	1.126896	0.748995
	O333	O	0.232334	0.960365	0.791217
	H334	H	0.234943	0.967120	0.803674
	H335	H	0.224501	0.975722	0.785771
	O336	O	0.358989	0.315866	0.292193
	H337	H	0.360417	0.332115	0.312965
	H338	H	0.375088	0.329243	0.302727
	O339	O	0.859462	0.197002	0.977963
	H340	H	0.841204	0.214700	0.973829
	H341	H	0.858231	0.196701	0.950390
	O342	O	-0.102272	0.061729	0.139185
	H343	H	-0.092701	0.072393	0.141977
	H344	H	-0.103379	0.047170	0.148957
	O345	O	-0.243530	1.263183	1.254606
	H346	H	-0.224553	1.245969	1.230134
	H347	H	-0.253932	1.255595	1.284605
	O348	O	0.470238	0.722353	0.528496
	H349	H	0.474971	0.722196	0.533516
	H350	H	0.455980	0.721824	0.549187
	O351	O	0.444377	0.588862	0.594850
	H352	H	0.445325	0.572617	0.599757
	H353	H	0.425750	0.611558	0.597034
	O354	O	-0.128051	-0.007826	1.003097
	H355	H	-0.127339	0.005987	0.996305
	H356	H	-0.131250	-0.004582	1.006739
	O357	O	0.667526	0.286838	0.620033
	H358	H	0.646162	0.300860	0.613358
	H359	H	0.660268	0.279933	0.601359
	O360	O	0.496554	0.272821	0.693783
	H361	H	0.515292	0.291432	0.700104
	H362	H	0.511984	0.260622	0.698351
	O363	O	-0.024922	-0.031369	-0.136544
	H364	H	-0.029246	-0.032478	-0.121575
	H365	H	-0.034982	-0.046308	-0.132283
	O366	O	0.713838	0.435998	0.566943
	H367	H	0.729256	0.444233	0.584499
	H368	H	0.707764	0.440228	0.553097
	O369	O	1.081472	0.139013	-0.055959
	H370	H	1.093030	0.129969	-0.040623
	H371	H	1.086499	0.135816	-0.048856
	O372	O	0.828255	0.941274	0.190416
	H373	H	0.813254	0.940869	0.205282
	H374	H	0.832229	0.929973	0.191781
	O375	O	1.003009	-0.030421	0.113877
	H376	H	1.015429	-0.022559	0.111782
	H377	H	1.011108	-0.053817	0.107249
	O378	O	-0.674832	0.283598	0.685868
	H379	H	-0.685916	0.262451	0.707324
	H380	H	-0.630156	0.283029	0.692879
	O381	O	-0.021685	0.775335	0.916291
	H382	H	-0.029471	0.781672	0.908470
	H383	H	-0.025177	0.776385	0.913869
	O384	O	0.815838	-0.041443	0.954707
	H385	H	0.817751	-0.034995	0.963996
	H386	H	0.805961	-0.043594	0.954863
	O387	O	0.922702	1.200930	-0.170604
	H388	H	0.923458	1.214922	-0.175506
	H389	H	0.939324	1.207217	-0.168333
	O390	O	0.618323	0.278316	0.502214
	H391	H	0.594606	0.280810	0.491385
	H392	H	0.608254	0.277239	0.489414
	O393	O	0.479801	0.262934	0.441286
	H394	H	0.456501	0.269228	0.446326
	H395	H	0.482837	0.272174	0.432268
	O396	O	0.213333	1.123836	0.850240
	H397	H	0.192076	1.113622	0.866969
	H398	H	0.205663	1.113170	0.870951
	O399	O	0.000428	-0.229487	1.197232
	H400	H	-0.011875	-0.229356	1.195127
	H401	H	0.003485	-0.252140	1.207799
	O402	O	0.739525	0.277452	0.453565
	H403	H	0.762636	0.263829	0.455994
	H404	H	0.726933	0.291346	0.453337
	O405	O	0.817107	-0.222901	1.006871
	H406	H	0.813235	-0.219554	1.028278
	H407	H	0.804575	-0.230478	1.023221
	O408	O	0.217557	0.068951	0.129334
	H409	H	0.213765	0.068502	0.137792
	H410	H	0.220955	0.086031	0.140650
	O411	O	0.749474	0.706851	0.515634
	H412	H	0.740789	0.702203	0.519575
	H413	H	0.774108	0.726810	0.514704
	O414	O	0.752061	0.520377	0.704930
	H415	H	0.759935	0.538189	0.709066
	H416	H	0.767978	0.545926	0.719511
	O417	O	-0.412725	0.433092	0.437339
	H418	H	-0.416765	0.440967	0.427355
	H419	H	-0.409161	0.439208	0.443690
	O420	O	0.239193	0.969446	1.100102
	H421	H	0.238097	0.973604	1.102720
	H422	H	0.247701	0.970222	1.121056
	O423	O	0.240509	-0.174714	0.960696
	H424	H	0.236662	-0.173481	0.969958
	H425	H	0.243821	-0.176046	0.960387
	O426	O	0.367047	0.565762	0.524730
	H427	H	0.364053	0.559083	0.532631
	H428	H	0.373548	0.561360	0.537786
	O429	O	0.846735	1.111324	1.103343
	H430	H	0.857416	1.105573	1.095758
	H431	H	0.856489	1.108525	1.092798
	O432	O	0.317299	0.493618	0.517828
	H433	H	0.317195	0.468705	0.522681
	H434	H	0.315215	0.503266	0.529955
	O435	O	-0.280458	0.679589	0.297518
	H436	H	-0.288826	0.651959	0.314832
	H437	H	-0.305588	0.670191	0.317394
	O438	O	-0.601923	0.462981	-0.570184
	H439	H	-0.592277	0.470203	-0.570053
	H440	H	-0.615034	0.466999	-0.550740
	O441	O	0.214549	-0.193387	0.161950
	H442	H	0.203351	-0.194926	0.135987
	H443	H	0.236202	-0.214448	0.186176
	O444	O	0.494291	0.710675	0.263119
	H445	H	0.501564	0.708425	0.253568
	H446	H	0.506652	0.719444	0.249828
	O447	O	0.070128	0.777351	1.002596
	H448	H	0.063462	0.770528	0.984633
	H449	H	0.060491	0.768257	1.011497
	O450	O	-0.009382	1.008078	0.794891
	H451	H	-0.021837	1.014898	0.799228
	H452	H	-0.018804	1.019701	0.800662
	O453	O	0.091062	-0.059776	1.199290
	H454	H	0.120635	-0.066458	1.204971
	H455	H	0.091730	-0.075121	1.198156
	O456	O	0.239003	0.207804	1.007124
	H457	H	0.245432	0.216700	1.035635
	H458	H	0.249726	0.215535	1.016326
	O459	O	0.750385	0.515356	0.450021
	H460	H	0.752904	0.504776	0.445897
	H461	H	0.751366	0.517650	0.463236
	O462	O	0.581407	0.381927	0.660586
	H463	H	0.574252	0.405238	0.645764
	H464	H	0.606631	0.394336	0.667034
	O465	O	1.228083	-0.211702	-0.193462
	H466	H	1.225070	-0.174297	-0.189580
	H467	H	1.208029	-0.215303	-0.168188
	O468	O	0.664966	0.638311	0.670116
	H469	H	0.654470	0.641246	0.640452
	H470	H	0.665408	0.645362	0.683915
	O471	O	0.498795	0.447297	0.591970
	H472	H	0.492148	0.444306	0.601349
	H473	H	0.488722	0.451893	0.602148
	O474	O	0.312154	0.714090	0.455785
	H475	H	0.303948	0.710557	0.455090
	H476	H	0.300915	0.725861	0.463230
	O477	O	0.238097	0.199222	1.188126
	H478	H	0.259697	0.228000	1.217446
	H479	H	0.197961	0.197594	1.188031
	O480	O	0.750458	0.465936	0.265333
	H481	H	0.759533	0.457246	0.248349
	H482	H	0.753287	0.439753	0.265101
	O483	O	0.331274	0.689321	0.278838
	H484	H	0.343857	0.682216	0.295907
	H485	H	0.357954	0.684596	0.299171
	O486	O	0.575116	0.684450	0.679232
	H487	H	0.570048	0.692319	0.690506
	H488	H	0.574355	0.676372	0.684046
	O489	O	1.341271	0.708813	-0.287525
	H490	H	1.337087	0.741093	-0.270924
	H491	H	1.336964	0.708921	-0.296361
