data_Molecule from HDF5

_cell_length_a		16.515011
_cell_length_b		16.396018
_cell_length_c		16.607102
_cell_angle_alpha	89.987767
_cell_angle_beta	89.946507
_cell_angle_gamma	89.914456
_symmetry_space_group_name_H-M	'P 1'
_symmetry_Int_Tables_number		1

loop_
	_symmetry_equiv_pos_as_xyz
	x,y,z

loop_
	_atom_site_label
	_atom_site_type_symbol
	_atom_site_fract_x
	_atom_site_fract_y
	_atom_site_fract_z
	H0	H	0.401154	0.843671	0.734004
	H1	H	0.618533	0.155491	0.736005
	H2	H	0.616278	0.841716	0.290271
	H3	H	0.402889	0.157350	0.287448
	H4	H	0.735202	0.392363	0.855932
	H5	H	0.734006	0.606454	0.166731
	H6	H	0.287161	0.606813	0.856198
	H7	H	0.286775	0.390540	0.167373
	H8	H	0.853597	0.720219	0.408793
	H9	H	0.168179	0.721124	0.617240
	H10	H	0.852544	0.280771	0.614641
	H11	H	0.166752	0.275130	0.403882
	H12	H	0.855187	0.393858	0.734509
	H13	H	0.167313	0.606791	0.735187
	H14	H	0.855358	0.608432	0.288371
	H15	H	0.165823	0.387832	0.285465
	H16	H	0.405848	0.721344	0.855152
	H17	H	0.614804	0.720934	0.167986
	H18	H	0.617428	0.277106	0.855161
	H19	H	0.406268	0.277511	0.168570
	H20	H	0.730672	0.841444	0.407570
	H21	H	0.730460	0.158305	0.617065
	H22	H	0.286628	0.843247	0.617581
	H23	H	0.285129	0.156384	0.401217
	H24	H	0.904799	0.342366	0.233910
	H25	H	0.117510	0.657169	0.233638
	H26	H	0.119155	0.341261	0.789300
	H27	H	0.905553	0.657457	0.790011
	H28	H	0.234048	0.891518	0.354780
	H29	H	0.236140	0.109657	0.665265
	H30	H	0.789578	0.104976	0.354172
	H31	H	0.789154	0.894678	0.667982
	H32	H	0.353083	0.221971	0.906022
	H33	H	0.668549	0.219815	0.114734
	H34	H	0.350685	0.781171	0.114127
	H35	H	0.668652	0.780123	0.907476
	H36	H	0.353013	0.893579	0.233743
	H37	H	0.668212	0.104843	0.231995
	H38	H	0.353574	0.108392	0.787572
	H39	H	0.665211	0.890874	0.786333
	H40	H	0.906411	0.221812	0.354401
	H41	H	0.114460	0.220512	0.668012
	H42	H	0.118921	0.774331	0.356034
	H43	H	0.909653	0.781634	0.669837
	H44	H	0.233632	0.341169	0.905388
	H45	H	0.230856	0.658396	0.116993
	H46	H	0.790758	0.341110	0.116680
	H47	H	0.791806	0.658678	0.907972
	H48	H	0.424015	0.109468	0.590655
	H49	H	0.596682	0.887388	0.599074
	H50	H	0.597611	0.113151	0.421666
	H51	H	0.423122	0.884809	0.415055
	H52	H	0.596286	0.410324	0.122407
	H53	H	0.598085	0.587535	0.900840
	H54	H	0.419461	0.590247	0.123590
	H55	H	0.428410	0.408711	0.901578
	H56	H	0.123655	0.587001	0.420401
	H57	H	0.898017	0.590229	0.602392
	H58	H	0.123522	0.408505	0.598296
	H59	H	0.900086	0.413820	0.424243
	H60	H	0.122617	0.414425	0.602023
	H61	H	0.898677	0.588113	0.601256
	H62	H	0.123616	0.588818	0.424573
	H63	H	0.900742	0.414281	0.423752
	H64	H	0.419517	0.586378	0.123674
	H65	H	0.600048	0.592259	0.898196
	H66	H	0.602564	0.408789	0.123932
	H67	H	0.417677	0.408390	0.897606
	H68	H	0.601448	0.113832	0.421739
	H69	H	0.599637	0.887834	0.598050
	H70	H	0.419318	0.114643	0.600871
	H71	H	0.428441	0.890515	0.424947
	H72	H	0.926136	0.612485	0.100970
	H73	H	0.094286	0.388824	0.096588
	H74	H	0.092216	0.609032	0.922440
	H75	H	0.925893	0.387754	0.924050
	H76	H	0.104780	0.905700	0.625865
	H77	H	0.093264	0.083805	0.402735
	H78	H	0.914592	0.092399	0.625385
	H79	H	0.916979	0.905431	0.396891
	H80	H	0.620629	0.085403	0.923416
	H81	H	0.399595	0.089780	0.094893
	H82	H	0.622838	0.906991	0.100312
	H83	H	0.397610	0.916099	0.916532
	H84	H	0.620962	0.912933	0.100420
	H85	H	0.399867	0.082300	0.100964
	H86	H	0.621808	0.084890	0.921282
	H87	H	0.395612	0.905062	0.921672
	H88	H	0.918048	0.084056	0.621797
	H89	H	0.096884	0.092401	0.398734
	H90	H	0.103682	0.919980	0.620625
	H91	H	0.917642	0.916826	0.399936
	H92	H	0.100891	0.610623	0.929259
	H93	H	0.103600	0.386450	0.097244
	H94	H	0.920195	0.612250	0.097718
	H95	H	0.920884	0.386330	0.925377
	H96	H	0.430489	0.110564	0.600784
	H97	H	0.598651	0.885958	0.600417
	H98	H	0.599200	0.114389	0.418281
	H99	H	0.416153	0.886441	0.425402
	H100	H	0.601424	0.415153	0.122054
	H101	H	0.603849	0.588536	0.898764
	H102	H	0.422802	0.588070	0.123038
	H103	H	0.421401	0.418099	0.902941
	H104	H	0.122444	0.584567	0.423538
	H105	H	0.897954	0.587618	0.604018
	H106	H	0.125427	0.408816	0.604288
	H107	H	0.899696	0.413952	0.423889
	H108	H	0.920260	0.614413	0.103360
	H109	H	0.097707	0.384387	0.104732
	H110	H	0.101085	0.614236	0.918772
	H111	H	0.922774	0.385543	0.920042
	H112	H	0.091486	0.910986	0.619757
	H113	H	0.102773	0.084406	0.399225
	H114	H	0.924469	0.092133	0.622718
	H115	H	0.927046	0.909023	0.401504
	H116	H	0.622297	0.087000	0.922219
	H117	H	0.396602	0.090444	0.103666
	H118	H	0.624250	0.910692	0.104795
	H119	H	0.400913	0.913331	0.927770
	C120	C	0.389943	0.008264	0.631061
	C121	C	0.631199	0.990951	0.632526
	C122	C	0.631483	0.008667	0.389407
	C123	C	0.389152	0.991420	0.388921
	C124	C	0.633207	0.377976	0.019898
	C125	C	0.632161	0.621151	1.002824
	C126	C	0.388549	0.621033	0.020315
	C127	C	0.389432	0.378042	1.003605
	C128	C	0.019587	0.620436	0.390715
	C129	C	1.002396	0.620905	0.634003
	C130	C	0.019651	0.378329	0.633338
	C131	C	1.003021	0.379169	0.390441
	C132	C	0.889533	0.508444	0.132932
	C133	C	0.131785	0.490816	0.132670
	C134	C	0.132435	0.507671	0.890008
	C135	C	0.890433	0.491108	0.890870
	C136	C	0.133001	0.878094	0.519327
	C137	C	0.131489	0.120829	0.502620
	C138	C	0.887826	0.121901	0.519688
	C139	C	0.889152	0.878539	0.503361
	C140	C	0.518446	0.120316	0.889494
	C141	C	0.502691	0.120280	0.132034
	C142	C	0.518321	0.877945	0.133427
	C143	C	0.501505	0.878064	0.889480
	C144	C	0.384606	0.890452	0.692943
	C145	C	0.635226	0.108746	0.694657
	C146	C	0.634196	0.889221	0.330115
	C147	C	0.385256	0.110041	0.327562
	C148	C	0.694667	0.374293	0.902774
	C149	C	0.692687	0.624096	0.120352
	C150	C	0.327982	0.624181	0.902756
	C151	C	0.328080	0.373854	0.120678
	C152	C	0.900918	0.680712	0.389577
	C153	C	0.120927	0.680971	0.635552
	C154	C	0.900509	0.319776	0.633935
	C155	C	0.119837	0.316021	0.386101
	C156	C	0.901751	0.375822	0.693786
	C157	C	0.120401	0.624090	0.694357
	C158	C	0.902088	0.625190	0.329530
	C159	C	0.119443	0.372610	0.327267
	C160	C	0.387182	0.680991	0.902115
	C161	C	0.633588	0.681076	0.120980
	C162	C	0.635812	0.317125	0.902322
	C163	C	0.387697	0.317413	0.121265
	C164	C	0.691218	0.889206	0.388268
	C165	C	0.691156	0.109974	0.635332
	C166	C	0.327330	0.890436	0.635069
	C167	C	0.326659	0.109503	0.384246
	C168	C	0.887031	0.389716	0.193407
	C169	C	0.134988	0.609715	0.193263
	C170	C	0.136500	0.389042	0.829239
	C171	C	0.888163	0.610309	0.830934
	C172	C	0.193961	0.873953	0.402189
	C173	C	0.194235	0.125811	0.619074
	C174	C	0.828984	0.123855	0.401495
	C175	C	0.829913	0.877060	0.621457
	C176	C	0.400403	0.181981	0.887226
	C177	C	0.621126	0.180228	0.133715
	C178	C	0.398904	0.819497	0.133693
	C179	C	0.620352	0.818731	0.888081
	C180	C	0.399933	0.875628	0.193171
	C181	C	0.620890	0.123067	0.192127
	C182	C	0.400551	0.125106	0.828513
	C183	C	0.618790	0.873938	0.827782
	C184	C	0.887178	0.181807	0.401588
	C185	C	0.133874	0.181462	0.620475
	C186	C	0.136483	0.815460	0.402709
	C187	C	0.889426	0.820317	0.621972
	C188	C	0.193940	0.388941	0.886918
	C189	C	0.191686	0.610389	0.135099
	C190	C	0.830087	0.389063	0.134987
	C191	C	0.831130	0.610829	0.889052
	C192	C	0.416904	0.090287	0.604897
	C193	C	0.605722	0.908481	0.606424
	C194	C	0.606456	0.091924	0.413563
	C195	C	0.415093	0.908826	0.414534
	C196	C	0.607513	0.403967	0.101511
	C197	C	0.607850	0.596295	0.920758
	C198	C	0.413370	0.595364	0.102151
	C199	C	0.415052	0.404409	0.921779
	C200	C	0.101848	0.594346	0.415769
	C201	C	0.919889	0.595923	0.609465
	C202	C	0.102446	0.403370	0.608624
	C203	C	0.921347	0.406413	0.416614
	C204	C	0.914902	0.591506	0.107840
	C205	C	0.106046	0.408244	0.106847
	C206	C	0.105802	0.589888	0.916146
	C207	C	0.915835	0.408125	0.915926
	C208	C	0.107323	0.904575	0.600827
	C209	C	0.105242	0.094455	0.421533
	C210	C	0.912055	0.096702	0.601883
	C211	C	0.913434	0.903353	0.420744
	C212	C	0.600217	0.093538	0.914957
	C213	C	0.420075	0.094905	0.107080
	C214	C	0.601063	0.902898	0.108949
	C215	C	0.419311	0.904247	0.914701
	Zn216	Zn	0.509702	-0.000374	0.760551
	Zn217	Zn	0.510323	-0.000044	0.261358
	Zn218	Zn	0.761873	0.499898	0.011310
	Zn219	Zn	0.259667	0.499100	0.012104
	Zn220	Zn	0.010931	0.749169	0.511827
	Zn221	Zn	0.010472	0.250351	0.511151
	Zn222	Zn	0.011396	0.499157	0.762552
	Zn223	Zn	0.011242	0.499690	0.261211
	Zn224	Zn	0.510179	0.750014	0.011412
	Zn225	Zn	0.511306	0.248952	0.010790
	Zn226	Zn	0.759241	-0.000491	0.511130
	Zn227	Zn	0.261474	0.000201	0.510477
	N228	N	0.423143	0.964546	0.690291
	N229	N	0.598723	0.033685	0.692968
	N230	N	0.597840	0.964582	0.330670
	N231	N	0.423262	0.035411	0.330231
	N232	N	0.693303	0.411291	0.977081
	N233	N	0.691865	0.587372	0.046109
	N234	N	0.328592	0.587656	0.977231
	N235	N	0.329287	0.411035	0.046477
	N236	N	0.975124	0.677926	0.426981
	N237	N	0.046498	0.679261	0.598750
	N238	N	0.975090	0.321176	0.597195
	N239	N	0.046583	0.320283	0.425029
	N240	N	0.977007	0.411266	0.693565
	N241	N	0.045761	0.587501	0.693483
	N242	N	0.976964	0.588672	0.330101
	N243	N	0.045730	0.411357	0.329966
	N244	N	0.424024	0.679269	0.976244
	N245	N	0.596483	0.679286	0.046979
	N246	N	0.598519	0.319077	0.976076
	N247	N	0.425188	0.319972	0.047319
	N248	N	0.689810	0.964442	0.424436
	N249	N	0.688890	0.035602	0.597307
	N250	N	0.330629	0.964794	0.597198
	N251	N	0.328797	0.034797	0.421566
	N252	N	0.923236	0.465187	0.192371
	N253	N	0.098661	0.534344	0.192162
	N254	N	0.099216	0.463960	0.830817
	N255	N	0.924002	0.534722	0.831675
	N256	N	0.192047	0.911984	0.475749
	N257	N	0.193019	0.089010	0.544839
	N258	N	0.828769	0.087600	0.476067
	N259	N	0.829616	0.912461	0.546355
	N260	N	0.474713	0.179281	0.924376
	N261	N	0.546631	0.178734	0.097004
	N262	N	0.473870	0.820545	0.097449
	N263	N	0.546379	0.821166	0.925841
	N264	N	0.475189	0.911045	0.193270
	N265	N	0.546042	0.086633	0.191142
	N266	N	0.475106	0.087666	0.829559
	N267	N	0.543657	0.909832	0.828255
	N268	N	0.922847	0.180759	0.476140
	N269	N	0.095506	0.178650	0.547180
	N270	N	0.099452	0.817523	0.476854
	N271	N	0.925445	0.821180	0.547640
	N272	N	0.191605	0.463824	0.924066
	N273	N	0.189739	0.535465	0.097980
	N274	N	0.831395	0.464193	0.098319
	N275	N	0.832612	0.535739	0.925705
	O276	O	0.534512	0.644021	0.508431
	H277	H	0.518816	0.642573	0.506229
	H278	H	0.546061	0.646975	0.509396
	O279	O	0.570413	0.361237	0.398334
	H280	H	0.568800	0.372648	0.383044
	H281	H	0.562154	0.359262	0.388081
	O282	O	0.527304	0.709354	0.720242
	H283	H	0.527705	0.711617	0.694223
	H284	H	0.536837	0.733287	0.740232
	O285	O	0.689247	0.312004	0.328832
	H286	H	0.695996	0.302936	0.323202
	H287	H	0.662312	0.304254	0.346678
	O288	O	-0.113482	0.045396	0.016899
	H289	H	-0.111315	0.053349	0.030822
	H290	H	-0.105948	0.047288	-0.003724
	O291	O	1.132057	0.811096	-0.010479
	H292	H	1.131223	0.804151	-0.003492
	H293	H	1.133644	0.820471	-0.025382
	O294	O	0.002347	1.076302	0.179294
	H295	H	0.014396	1.051846	0.178934
	H296	H	0.002016	1.071864	0.180235
	O297	O	0.810676	0.799792	0.212764
	H298	H	0.792810	0.776498	0.226273
	H299	H	0.801604	0.820095	0.203707
	O300	O	0.635084	0.478948	0.478697
	H301	H	0.627222	0.479514	0.491140
	H302	H	0.647255	0.470301	0.468826
	O303	O	0.399295	0.431433	0.712807
	H304	H	0.403513	0.432649	0.719860
	H305	H	0.406821	0.446373	0.689056
	O306	O	0.215586	0.983544	0.801428
	H307	H	0.228648	0.975233	0.779603
	H308	H	0.195036	0.986576	0.803850
	O309	O	0.543695	0.516753	0.360330
	H310	H	0.543647	0.522987	0.377150
	H311	H	0.529786	0.532105	0.358031
	O312	O	0.305801	0.472064	0.333706
	H313	H	0.289945	0.464821	0.322237
	H314	H	0.311345	0.491506	0.350410
	O315	O	-0.015291	0.216042	0.797674
	H316	H	-0.028812	0.230773	0.793526
	H317	H	-0.022116	0.234794	0.794739
	O318	O	-0.406339	1.629434	0.377026
	H319	H	-0.405940	1.625905	0.384307
	H320	H	-0.399790	1.631624	0.359002
	O321	O	0.193066	1.178705	0.069210
	H322	H	0.187228	1.179486	0.049369
	H323	H	0.200343	1.179264	0.069442
	O324	O	1.008861	0.215546	1.077773
	H325	H	1.024054	0.208426	1.087129
	H326	H	1.013702	0.218210	1.088719
	O327	O	0.802714	-0.008988	1.017969
	H328	H	0.796702	-0.008924	1.031886
	H329	H	0.800504	-0.006849	1.024242
	O330	O	1.037259	-0.160973	-0.209591
	H331	H	1.078791	-0.159957	-0.212999
	H332	H	1.043356	-0.176308	-0.226748
	O333	O	0.703849	0.693738	0.704870
	H334	H	0.707391	0.703401	0.710211
	H335	H	0.692698	0.675591	0.707699
	O336	O	1.063974	-0.064700	0.929402
	H337	H	1.066838	-0.087715	0.925167
	H338	H	1.055225	-0.063542	0.940481
	O339	O	0.103999	-0.096267	0.212131
	H340	H	0.093205	-0.092961	0.191349
	H341	H	0.091070	-0.128480	0.208062
	O342	O	0.402280	0.304605	0.569668
	H343	H	0.395476	0.298248	0.532453
	H344	H	0.400816	0.325566	0.570716
	O345	O	-0.063970	-0.056891	-0.181627
	H346	H	-0.063265	-0.040095	-0.178195
	H347	H	-0.072539	-0.060021	-0.183586
	O348	O	1.093132	-0.182377	0.837193
	H349	H	1.113637	-0.167283	0.836068
	H350	H	1.108059	-0.189529	0.854557
	O351	O	0.871652	1.169246	0.173361
	H352	H	0.910337	1.166019	0.179074
	H353	H	0.876515	1.154714	0.161053
	O354	O	0.695409	0.721532	0.522534
	H355	H	0.702908	0.735874	0.543570
	H356	H	0.701874	0.719413	0.520989
	O357	O	0.833829	1.123381	0.975746
	H358	H	0.830836	1.120413	0.979096
	H359	H	0.838690	1.126141	0.993566
	O360	O	0.295516	0.717042	0.482676
	H361	H	0.292090	0.699241	0.498855
	H362	H	0.268241	0.740509	0.482084
	O363	O	0.447758	0.435541	0.353551
	H364	H	0.442882	0.448956	0.354660
	H365	H	0.453590	0.445628	0.347676
	O366	O	0.978509	-0.210637	1.174224
	H367	H	0.979556	-0.235669	1.188819
	H368	H	0.949195	-0.204019	1.161409
	O369	O	0.156577	0.998686	0.063158
	H370	H	0.146125	1.014372	0.057911
	H371	H	0.164582	1.005824	0.067414
	O372	O	0.329958	0.680574	0.323463
	H373	H	0.345726	0.687239	0.352600
	H374	H	0.319730	0.658070	0.326617
	O375	O	0.021289	0.923852	0.993332
	H376	H	0.020328	0.926274	0.991388
	H377	H	0.011858	0.921757	1.003737
	O378	O	0.653136	0.642998	0.317274
	H379	H	0.639654	0.633454	0.327318
	H380	H	0.646678	0.630091	0.321102
	O381	O	0.947960	-0.063546	0.137914
	H382	H	0.949512	-0.082304	0.130151
	H383	H	0.944176	-0.074226	0.123863
	O384	O	-0.303072	0.290235	1.502192
	H385	H	-0.299153	0.271798	1.513960
	H386	H	-0.301137	0.275352	1.493311
	O387	O	0.103243	1.196951	0.979155
	H388	H	0.088933	1.198204	0.963095
	H389	H	0.106310	1.181358	0.990210
	O390	O	0.709812	0.575551	0.681648
	H391	H	0.720243	0.557256	0.680390
	H392	H	0.717325	0.572953	0.677562
	O393	O	1.220835	1.027109	0.225389
	H394	H	1.226934	1.012947	0.244858
	H395	H	1.219805	1.005592	0.230523
	O396	O	0.371873	0.572656	0.664776
	H397	H	0.370218	0.556971	0.648832
	H398	H	0.395209	0.568967	0.657124
	O399	O	0.327425	0.498799	0.556881
	H400	H	0.320998	0.497998	0.545389
	H401	H	0.331838	0.480886	0.561273
	O402	O	-0.200833	0.166431	0.874079
	H403	H	-0.201267	0.185310	0.895995
	H404	H	-0.223523	0.174952	0.867653
	O405	O	0.185903	0.035962	-0.033685
	H406	H	0.167572	0.025446	-0.046802
	H407	H	0.181727	0.035658	-0.048631
	O408	O	0.621066	0.479691	0.537764
	H409	H	0.625150	0.484050	0.523473
	H410	H	0.624878	0.487205	0.538058
	O411	O	0.215979	0.791831	-0.098990
	H412	H	0.233109	0.783535	-0.094331
	H413	H	0.223701	0.793662	-0.095960
	O414	O	0.498142	0.285022	0.723096
	H415	H	0.483741	0.264914	0.749593
	H416	H	0.456034	0.296960	0.716236
	O417	O	0.842519	0.080606	0.841340
	H418	H	0.843399	0.093185	0.848376
	H419	H	0.836250	0.083190	0.851306
	O420	O	0.728969	0.488808	0.488688
	H421	H	0.743408	0.499038	0.484865
	H422	H	0.722842	0.492950	0.474433
	O423	O	-0.195410	0.971195	0.214323
	H424	H	-0.186654	0.963421	0.221487
	H425	H	-0.215224	0.979314	0.217017
	O426	O	1.052137	0.974448	0.947294
	H427	H	1.053057	0.959063	0.948247
	H428	H	1.054796	0.970986	0.940739
	O429	O	0.418610	0.657957	0.557010
	H430	H	0.417865	0.650799	0.554723
	H431	H	0.412368	0.648306	0.557944
	O432	O	0.662195	0.351171	0.697116
	H433	H	0.640842	0.350907	0.688550
	H434	H	0.662847	0.367353	0.687248
	O435	O	-0.133938	0.011037	-0.161325
	H436	H	-0.152043	0.010572	-0.176539
	H437	H	-0.140441	0.041150	-0.159295
	O438	O	1.354379	0.343053	0.392875
	H439	H	1.358948	0.346707	0.369993
	H440	H	1.370023	0.327243	0.409165
	O441	O	-0.122071	-0.144099	0.017971
	H442	H	-0.123240	-0.156131	0.012732
	H443	H	-0.133742	-0.142612	0.005928
	O444	O	0.660466	0.400655	0.297068
	H445	H	0.670727	0.388431	0.295509
	H446	H	0.669028	0.379422	0.275459
	O447	O	0.559313	0.499875	0.631492
	H448	H	0.572092	0.502145	0.636120
	H449	H	0.555907	0.481310	0.629340
	O450	O	0.520385	0.717208	0.352402
	H451	H	0.492730	0.714018	0.358241
	H452	H	0.523853	0.731141	0.349486
	O453	O	0.301238	0.290477	0.496344
	H454	H	0.299201	0.278048	0.490509
	H455	H	0.306428	0.271771	0.469461
	O456	O	0.531767	0.312713	0.538901
	H457	H	0.530081	0.309090	0.561957
	H458	H	0.530575	0.314519	0.532061
	O459	O	0.124997	0.190994	0.200380
	H460	H	0.135826	0.195907	0.181171
	H461	H	0.132222	0.151506	0.206728
	O462	O	0.298618	0.479997	0.721839
	H463	H	0.299399	0.483555	0.736182
	H464	H	0.303449	0.484851	0.736258
	O465	O	1.336428	-0.448683	-0.490668
	H466	H	1.344641	-0.466162	-0.480313
	H467	H	1.335723	-0.455601	-0.501968
