data_Molecule from HDF5

_cell_length_a		16.248137
_cell_length_b		16.465860
_cell_length_c		16.242985
_cell_angle_alpha	90.354281
_cell_angle_beta	90.228746
_cell_angle_gamma	90.294963
_symmetry_space_group_name_H-M	'P 1'
_symmetry_Int_Tables_number		1

loop_
	_symmetry_equiv_pos_as_xyz
	x,y,z

loop_
	_atom_site_label
	_atom_site_type_symbol
	_atom_site_fract_x
	_atom_site_fract_y
	_atom_site_fract_z
	H0	H	0.400561	0.841993	0.718152
	H1	H	0.606200	0.162159	0.719193
	H2	H	0.601862	0.842095	0.281480
	H3	H	0.400977	0.162814	0.282973
	H4	H	0.718624	0.405944	0.836081
	H5	H	0.724585	0.605121	0.163129
	H6	H	0.290401	0.601324	0.838125
	H7	H	0.290779	0.403925	0.163120
	H8	H	0.840171	0.716441	0.397834
	H9	H	0.165349	0.723638	0.604276
	H10	H	0.843380	0.282531	0.604299
	H11	H	0.165861	0.283281	0.396929
	H12	H	0.842759	0.400669	0.716743
	H13	H	0.168724	0.603197	0.715719
	H14	H	0.841936	0.599769	0.282399
	H15	H	0.169569	0.404804	0.286612
	H16	H	0.404544	0.718534	0.839029
	H17	H	0.610998	0.723631	0.162797
	H18	H	0.610094	0.283218	0.839646
	H19	H	0.403160	0.285259	0.162244
	H20	H	0.717420	0.840219	0.398296
	H21	H	0.723985	0.160648	0.605441
	H22	H	0.286384	0.840503	0.598192
	H23	H	0.285106	0.162237	0.398905
	H24	H	0.904001	0.341278	0.215596
	H25	H	0.108651	0.663025	0.219265
	H26	H	0.107539	0.342067	0.780081
	H27	H	0.904056	0.662910	0.782228
	H28	H	0.216320	0.902068	0.335892
	H29	H	0.219049	0.101864	0.662673
	H30	H	0.786194	0.097538	0.336655
	H31	H	0.786837	0.900966	0.663276
	H32	H	0.345122	0.222048	0.896392
	H33	H	0.666867	0.223728	0.107823
	H34	H	0.345129	0.782237	0.104120
	H35	H	0.668031	0.786440	0.897788
	H36	H	0.340354	0.903964	0.212294
	H37	H	0.666664	0.106053	0.221173
	H38	H	0.342347	0.101300	0.785665
	H39	H	0.666896	0.902340	0.782506
	H40	H	0.897846	0.219494	0.337798
	H41	H	0.106322	0.220335	0.662203
	H42	H	0.104410	0.784018	0.337994
	H43	H	0.900460	0.783920	0.662258
	H44	H	0.224425	0.342108	0.897212
	H45	H	0.224504	0.663062	0.102126
	H46	H	0.786528	0.342478	0.100737
	H47	H	0.789272	0.663180	0.899199
	H48	H	0.408483	0.117754	0.594980
	H49	H	0.588410	0.888440	0.591566
	H50	H	0.597873	0.115035	0.418010
	H51	H	0.409527	0.887231	0.406212
	H52	H	0.596335	0.415216	0.114413
	H53	H	0.594164	0.591766	0.887320
	H54	H	0.423174	0.596079	0.116004
	H55	H	0.413986	0.402959	0.882271
	H56	H	0.116946	0.595368	0.418022
	H57	H	0.886941	0.602053	0.587483
	H58	H	0.124171	0.400008	0.590558
	H59	H	0.887994	0.403226	0.410210
	H60	H	0.114992	0.414224	0.578679
	H61	H	0.893432	0.587263	0.584881
	H62	H	0.119623	0.589838	0.406338
	H63	H	0.891897	0.414453	0.411545
	H64	H	0.413627	0.598945	0.119133
	H65	H	0.594634	0.600296	0.883957
	H66	H	0.595278	0.410885	0.115889
	H67	H	0.410996	0.417803	0.884345
	H68	H	0.598134	0.118150	0.405802
	H69	H	0.595769	0.887719	0.587276
	H70	H	0.413606	0.116919	0.594887
	H71	H	0.410744	0.886809	0.406175
	H72	H	0.924830	0.612907	0.088700
	H73	H	0.097331	0.388026	0.091880
	H74	H	0.101580	0.617031	0.909391
	H75	H	0.911925	0.385581	0.901118
	H76	H	0.098845	0.912183	0.616665
	H77	H	0.092861	0.083588	0.386894
	H78	H	0.916570	0.094189	0.613345
	H79	H	0.912608	0.904334	0.383684
	H80	H	0.618153	0.087569	0.914469
	H81	H	0.389389	0.096649	0.087392
	H82	H	0.615505	0.920081	0.081500
	H83	H	0.390471	0.910445	0.910667
	H84	H	0.622564	0.919775	0.103342
	H85	H	0.390465	0.093175	0.090935
	H86	H	0.623116	0.093054	0.905057
	H87	H	0.389145	0.909029	0.909705
	H88	H	0.913798	0.096014	0.616079
	H89	H	0.084425	0.098697	0.385051
	H90	H	0.090255	0.915668	0.612930
	H91	H	0.906286	0.908446	0.383309
	H92	H	0.096934	0.617094	0.905513
	H93	H	0.099763	0.387295	0.090876
	H94	H	0.908764	0.617147	0.085637
	H95	H	0.919815	0.391174	0.910167
	H96	H	0.411265	0.115871	0.590243
	H97	H	0.595316	0.885239	0.595785
	H98	H	0.587878	0.114435	0.410599
	H99	H	0.409803	0.887932	0.406749
	H100	H	0.598755	0.413296	0.117265
	H101	H	0.601794	0.595051	0.883222
	H102	H	0.415193	0.589182	0.115842
	H103	H	0.424714	0.411989	0.888127
	H104	H	0.123213	0.602498	0.408258
	H105	H	0.887022	0.590355	0.599447
	H106	H	0.119923	0.419431	0.597915
	H107	H	0.887260	0.410937	0.401409
	H108	H	0.915604	0.619531	0.101079
	H109	H	0.099590	0.387419	0.093644
	H110	H	0.096613	0.614556	0.910759
	H111	H	0.907749	0.388114	0.912285
	H112	H	0.091376	0.906762	0.617361
	H113	H	0.101365	0.097173	0.380042
	H114	H	0.913045	0.091997	0.614658
	H115	H	0.912195	0.912180	0.385631
	H116	H	0.621277	0.098244	0.915159
	H117	H	0.388363	0.097294	0.092322
	H118	H	0.624440	0.900901	0.090401
	H119	H	0.389537	0.908669	0.911871
	C120	C	0.381115	0.010426	0.622196
	C121	C	0.625031	0.992756	0.622689
	C122	C	0.623602	0.010021	0.379929
	C123	C	0.380329	0.993693	0.377113
	C124	C	0.626942	0.382396	0.008859
	C125	C	0.628628	0.626178	0.991990
	C126	C	0.385963	0.624319	0.009781
	C127	C	0.385532	0.381227	0.992105
	C128	C	0.012534	0.623900	0.379257
	C129	C	0.996121	0.624256	0.621552
	C130	C	0.013150	0.380599	0.620496
	C131	C	0.996714	0.380508	0.378182
	C132	C	0.884771	0.510718	0.121289
	C133	C	0.128501	0.493968	0.122202
	C134	C	0.128489	0.510331	0.877797
	C135	C	0.883719	0.494301	0.877756
	C136	C	0.123471	0.881325	0.508285
	C137	C	0.124508	0.123710	0.491055
	C138	C	0.882051	0.122940	0.507861
	C139	C	0.880533	0.879086	0.491428
	C140	C	0.513836	0.123316	0.880349
	C141	C	0.496423	0.125862	0.122799
	C142	C	0.513549	0.882528	0.121228
	C143	C	0.496652	0.880261	0.879334
	C144	C	0.381210	0.889723	0.679051
	C145	C	0.626130	0.113714	0.680955
	C146	C	0.621885	0.889583	0.320857
	C147	C	0.381179	0.114404	0.321062
	C148	C	0.681796	0.384490	0.885581
	C149	C	0.686167	0.625332	0.114311
	C150	C	0.328653	0.621833	0.887056
	C151	C	0.328621	0.383080	0.114385
	C152	C	0.889375	0.678407	0.378939
	C153	C	0.117492	0.683319	0.622495
	C154	C	0.891740	0.321849	0.622487
	C155	C	0.118111	0.322890	0.378088
	C156	C	0.891578	0.380605	0.678748
	C157	C	0.119269	0.623327	0.677865
	C158	C	0.890084	0.620189	0.321604
	C159	C	0.119891	0.383214	0.323173
	C160	C	0.385379	0.680157	0.887634
	C161	C	0.629689	0.684054	0.114169
	C162	C	0.627902	0.323652	0.887239
	C163	C	0.384525	0.324123	0.113752
	C164	C	0.679588	0.888831	0.378747
	C165	C	0.684503	0.112922	0.624086
	C166	C	0.324155	0.889150	0.619711
	C167	C	0.323755	0.114357	0.379047
	C168	C	0.884316	0.389687	0.177530
	C169	C	0.127806	0.615028	0.179754
	C170	C	0.127674	0.389988	0.819265
	C171	C	0.884596	0.614733	0.820632
	C172	C	0.179062	0.882266	0.385139
	C173	C	0.181085	0.122324	0.613725
	C174	C	0.824053	0.119256	0.385563
	C175	C	0.824602	0.880833	0.614241
	C176	C	0.392944	0.181968	0.878318
	C177	C	0.618237	0.184546	0.125916
	C178	C	0.392524	0.822681	0.121964
	C179	C	0.618910	0.824087	0.878389
	C180	C	0.390208	0.883305	0.175816
	C181	C	0.617876	0.125978	0.182287
	C182	C	0.391478	0.121899	0.823113
	C183	C	0.618404	0.881731	0.820959
	C184	C	0.879802	0.179807	0.386012
	C185	C	0.125053	0.181271	0.613278
	C186	C	0.123067	0.823476	0.386075
	C187	C	0.881098	0.822650	0.613755
	C188	C	0.185827	0.390019	0.877658
	C189	C	0.185841	0.614967	0.122020
	C190	C	0.825992	0.390278	0.120181
	C191	C	0.827522	0.615077	0.879103
	C192	C	0.404427	0.094814	0.599924
	C193	C	0.600286	0.909056	0.598611
	C194	C	0.601292	0.093982	0.404340
	C195	C	0.403304	0.909183	0.399710
	C196	C	0.603624	0.406302	0.093858
	C197	C	0.604127	0.602516	0.906895
	C198	C	0.410094	0.601326	0.094845
	C199	C	0.409559	0.404184	0.907079
	C200	C	0.097757	0.602412	0.403760
	C201	C	0.911157	0.600214	0.597597
	C202	C	0.097775	0.404474	0.595988
	C203	C	0.911242	0.402923	0.401096
	C204	C	0.909194	0.594842	0.098477
	C205	C	0.105573	0.409698	0.098915
	C206	C	0.105197	0.594365	0.901730
	C207	C	0.906567	0.410206	0.901015
	C208	C	0.100167	0.904834	0.593616
	C209	C	0.100069	0.100125	0.405943
	C210	C	0.907187	0.100658	0.592632
	C211	C	0.903776	0.901566	0.406409
	C212	C	0.598771	0.099912	0.904605
	C213	C	0.411559	0.102612	0.097655
	C214	C	0.598773	0.906634	0.098379
	C215	C	0.411685	0.902870	0.903742
	Zn216	Zn	0.504138	0.001925	0.751589
	Zn217	Zn	0.502950	0.003357	0.249469
	Zn218	Zn	0.755196	0.503094	0.000485
	Zn219	Zn	0.257628	0.502563	0.000621
	Zn220	Zn	0.003166	0.753176	0.500251
	Zn221	Zn	0.003993	0.252166	0.499147
	Zn222	Zn	0.005469	0.502305	0.748809
	Zn223	Zn	0.006111	0.501853	0.250420
	Zn224	Zn	0.506595	0.753340	0.001242
	Zn225	Zn	0.506758	0.252734	0.000695
	Zn226	Zn	0.753129	0.000308	0.501033
	Zn227	Zn	0.252100	0.001951	0.499358
	N228	N	0.415922	0.966089	0.680633
	N229	N	0.589689	0.038118	0.680270
	N230	N	0.587755	0.965891	0.321420
	N231	N	0.415346	0.038364	0.319655
	N232	N	0.681436	0.420215	0.962322
	N233	N	0.685614	0.590049	0.037474
	N234	N	0.328931	0.587549	0.964085
	N235	N	0.329013	0.417825	0.037618
	N236	N	0.966508	0.680833	0.414176
	N237	N	0.039942	0.684099	0.588280
	N238	N	0.968299	0.321810	0.586710
	N239	N	0.040433	0.321060	0.411394
	N240	N	0.967991	0.416660	0.677401
	N241	N	0.042703	0.587336	0.677429
	N242	N	0.967618	0.587247	0.321382
	N243	N	0.043358	0.418348	0.323250
	N244	N	0.420389	0.681631	0.964828
	N245	N	0.594645	0.684811	0.037006
	N246	N	0.594560	0.322146	0.964918
	N247	N	0.419218	0.322788	0.036655
	N248	N	0.680757	0.964570	0.414750
	N249	N	0.683934	0.036900	0.588724
	N250	N	0.323785	0.965198	0.585334
	N251	N	0.323059	0.038011	0.413168
	N252	N	0.920296	0.465573	0.178384
	N253	N	0.092977	0.538880	0.180145
	N254	N	0.092770	0.465744	0.819370
	N255	N	0.919130	0.538557	0.819799
	N256	N	0.179266	0.917675	0.462130
	N257	N	0.181019	0.087363	0.536761
	N258	N	0.825409	0.084805	0.462465
	N259	N	0.823978	0.914846	0.537341
	N260	N	0.469942	0.182730	0.913444
	N261	N	0.541662	0.184809	0.089593
	N262	N	0.470332	0.822016	0.088744
	N263	N	0.542059	0.823032	0.913882
	N264	N	0.466328	0.919965	0.175417
	N265	N	0.541182	0.090248	0.180514
	N266	N	0.467800	0.086090	0.824294
	N267	N	0.541412	0.915936	0.821299
	N268	N	0.914983	0.182512	0.463207
	N269	N	0.090453	0.182265	0.535764
	N270	N	0.089449	0.822640	0.463602
	N271	N	0.915293	0.821292	0.536438
	N272	N	0.186488	0.466102	0.913136
	N273	N	0.186586	0.538795	0.086997
	N274	N	0.826148	0.466569	0.086121
	N275	N	0.826814	0.539260	0.913991
	O276	O	-0.093340	0.071770	-0.023365
	H277	H	-0.087161	0.068609	-0.017546
	H278	H	-0.105680	0.080798	-0.026263
	O279	O	-0.370997	0.359382	-0.394109
	H280	H	-0.372851	0.360935	-0.384996
	H281	H	-0.371718	0.356281	-0.402028
	O282	O	0.936329	0.027348	0.094654
	H283	H	0.950545	0.029670	0.103157
	H284	H	0.926529	0.036372	0.081618
	O285	O	0.021091	1.024394	-0.089977
	H286	H	0.038562	1.014673	-0.086125
	H287	H	0.035550	1.023993	-0.107016
	O288	O	0.435210	0.658852	0.535304
	H289	H	0.437560	0.661089	0.543057
	H290	H	0.443176	0.661378	0.539054
	O291	O	0.534185	0.502797	0.585461
	H292	H	0.531181	0.495191	0.599233
	H293	H	0.544296	0.510007	0.592093
	O294	O	0.875515	1.038711	0.960600
	H295	H	0.868052	1.042130	0.962963
	H296	H	0.867691	1.029120	0.945674
	O297	O	-0.088563	0.050276	-0.008821
	H298	H	-0.088622	0.065402	-0.002597
	H299	H	-0.086751	0.055540	-0.023364
	O300	O	0.514908	0.423217	0.400874
	H301	H	0.519742	0.423266	0.394608
	H302	H	0.516445	0.418618	0.393418
	O303	O	-0.496505	0.408679	1.549138
	H304	H	-0.490225	0.397253	1.554301
	H305	H	-0.484114	0.417179	1.536635
	O306	O	0.436244	0.620228	0.478258
	H307	H	0.444656	0.618783	0.475419
	H308	H	0.440954	0.617198	0.484881
	O309	O	1.201474	0.042877	0.115700
	H310	H	1.203150	0.059862	0.107810
	H311	H	1.212524	0.032344	0.123648
	O312	O	0.125864	-0.123457	1.101096
	H313	H	0.121845	-0.118389	1.107402
	H314	H	0.110176	-0.124485	1.123100
	O315	O	0.083038	1.077473	0.872814
	H316	H	0.077605	1.066055	0.876257
	H317	H	0.098510	1.061814	0.872928
	O318	O	0.619570	0.429644	0.431799
	H319	H	0.625907	0.430517	0.439752
	H320	H	0.611579	0.442391	0.436574
	O321	O	0.494865	0.610393	0.455447
	H322	H	0.504148	0.612551	0.461656
	H323	H	0.492341	0.608743	0.459736
	O324	O	0.616027	0.307114	0.534033
	H325	H	0.630482	0.298489	0.533819
	H326	H	0.610396	0.308849	0.525940
	O327	O	-0.488144	1.420412	1.328688
	H328	H	-0.480431	1.418181	1.333201
	H329	H	-0.488724	1.427205	1.317010
	O330	O	0.490234	0.540279	0.573074
	H331	H	0.484593	0.531773	0.577995
	H332	H	0.490425	0.544182	0.571793
	O333	O	0.029438	0.966195	1.090242
	H334	H	0.041157	0.952525	1.078278
	H335	H	0.030090	0.974565	1.095877
	O336	O	0.594186	0.559715	0.473870
	H337	H	0.597773	0.566218	0.489703
	H338	H	0.603956	0.546433	0.473544
	O339	O	1.143986	1.202769	0.045718
	H340	H	1.151966	1.195740	0.036333
	H341	H	1.162628	1.210523	0.041470
	O342	O	0.939324	0.111172	0.163691
	H343	H	0.943132	0.119962	0.163505
	H344	H	0.943415	0.123490	0.164189
	O345	O	0.534766	0.485121	0.411819
	H346	H	0.532396	0.467976	0.410771
	H347	H	0.534688	0.500342	0.416665
	O348	O	0.634127	0.572094	0.653971
	H349	H	0.636954	0.564615	0.653055
	H350	H	0.639209	0.571208	0.655460
	O351	O	1.057261	1.153453	0.179268
	H352	H	1.059179	1.164004	0.164398
	H353	H	1.061323	1.165484	0.176736
	O354	O	0.942825	0.164775	0.945910
	H355	H	0.929765	0.158551	0.932110
	H356	H	0.955136	0.154329	0.935483
	O357	O	0.649493	0.441193	0.391965
	H358	H	0.653135	0.432074	0.381793
	H359	H	0.652492	0.451321	0.397289
	O360	O	0.003300	-0.073068	-0.014131
	H361	H	-0.004156	-0.059932	0.006145
	H362	H	0.003838	-0.074811	-0.010663
	O363	O	0.417970	0.602993	0.387782
	H364	H	0.415956	0.593410	0.393968
	H365	H	0.420964	0.608408	0.385104
	O366	O	0.913089	0.963947	0.891724
	H367	H	0.902789	0.969901	0.899599
	H368	H	0.925922	0.953968	0.882315
	O369	O	1.034066	-0.035498	-0.141600
	H370	H	1.031455	-0.054682	-0.136279
	H371	H	1.049055	-0.027337	-0.133006
	O372	O	0.450610	0.459865	0.570682
	H373	H	0.451811	0.460705	0.561266
	H374	H	0.467657	0.457462	0.559278
	O375	O	0.489763	0.508565	0.569140
	H376	H	0.500370	0.502643	0.563131
	H377	H	0.480751	0.516136	0.569682
	O378	O	0.413879	0.371765	0.458222
	H379	H	0.408786	0.370064	0.453479
	H380	H	0.422520	0.366167	0.450763
	O381	O	0.349841	0.411236	0.672060
	H382	H	0.351842	0.409667	0.667242
	H383	H	0.332057	0.416698	0.679516
	O384	O	0.136184	0.915560	-0.054445
	H385	H	0.124083	0.914863	-0.047532
	H386	H	0.131136	0.911552	-0.050840
	O387	O	0.923790	-0.036027	0.939537
	H388	H	0.914776	-0.028578	0.927030
	H389	H	0.932319	-0.048677	0.946893
	O390	O	-0.075437	0.896866	0.050710
	H391	H	-0.079540	0.894915	0.054620
	H392	H	-0.075353	0.886990	0.058500
	O393	O	1.158521	0.920226	-0.161275
	H394	H	1.174252	0.910853	-0.161200
	H395	H	1.155335	0.907131	-0.167077
	O396	O	0.449768	0.393136	0.506828
	H397	H	0.430988	0.408294	0.499936
	H398	H	0.468189	0.396191	0.493403
	O399	O	-0.012311	0.909140	0.918610
	H400	H	-0.001278	0.906572	0.932263
	H401	H	-0.009056	0.905592	0.922142
	O402	O	1.045404	0.841353	1.001609
	H403	H	1.051669	0.834372	0.999270
	H404	H	1.033630	0.861279	1.015070
	O405	O	0.464177	0.509503	0.604520
	H406	H	0.455989	0.493146	0.609603
	H407	H	0.452704	0.503840	0.609269
