data_Molecule from HDF5

_cell_length_a		16.276712
_cell_length_b		16.226859
_cell_length_c		16.357928
_cell_angle_alpha	89.945968
_cell_angle_beta	89.993752
_cell_angle_gamma	89.718077
_symmetry_space_group_name_H-M	'P 1'
_symmetry_Int_Tables_number		1

loop_
	_symmetry_equiv_pos_as_xyz
	x,y,z

loop_
	_atom_site_label
	_atom_site_type_symbol
	_atom_site_fract_x
	_atom_site_fract_y
	_atom_site_fract_z
	H0	H	0.397773	0.836826	0.716409
	H1	H	0.595979	0.163724	0.716741
	H2	H	0.600222	0.836984	0.286029
	H3	H	0.397274	0.163874	0.285630
	H4	H	0.714663	0.400328	0.837185
	H5	H	0.714048	0.598280	0.163383
	H6	H	0.282702	0.601152	0.837531
	H7	H	0.282243	0.399546	0.162592
	H8	H	0.834406	0.716744	0.401392
	H9	H	0.161772	0.714398	0.598151
	H10	H	0.833824	0.289091	0.599239
	H11	H	0.160670	0.285241	0.402133
	H12	H	0.834989	0.402765	0.716572
	H13	H	0.161168	0.599754	0.714856
	H14	H	0.834570	0.601878	0.285467
	H15	H	0.160611	0.399086	0.285201
	H16	H	0.399395	0.716944	0.837735
	H17	H	0.597381	0.714487	0.163599
	H18	H	0.597827	0.284586	0.837260
	H19	H	0.401586	0.286158	0.163918
	H20	H	0.713367	0.837434	0.403720
	H21	H	0.709945	0.165355	0.599313
	H22	H	0.283816	0.836918	0.599006
	H23	H	0.283250	0.164324	0.401973
	H24	H	0.898659	0.337940	0.217320
	H25	H	0.098390	0.665001	0.215179
	H26	H	0.098442	0.337127	0.785005
	H27	H	0.899182	0.665420	0.786362
	H28	H	0.214168	0.900817	0.337600
	H29	H	0.212634	0.099285	0.663153
	H30	H	0.782211	0.101118	0.338152
	H31	H	0.783108	0.901952	0.664310
	H32	H	0.334358	0.215346	0.903737
	H33	H	0.663403	0.211900	0.097174
	H34	H	0.334960	0.786310	0.098721
	H35	H	0.662186	0.786195	0.902667
	H36	H	0.334843	0.901444	0.215338
	H37	H	0.662001	0.098062	0.215114
	H38	H	0.334177	0.101785	0.785814
	H39	H	0.660588	0.898690	0.784256
	H40	H	0.897502	0.218077	0.338423
	H41	H	0.095220	0.215363	0.663621
	H42	H	0.096162	0.786458	0.337258
	H43	H	0.900617	0.786335	0.663873
	H44	H	0.212055	0.336510	0.902704
	H45	H	0.212475	0.664766	0.097884
	H46	H	0.786336	0.336207	0.098696
	H47	H	0.783628	0.664785	0.901840
	H48	H	0.410371	0.114209	0.587637
	H49	H	0.596978	0.882226	0.594934
	H50	H	0.593584	0.118578	0.410846
	H51	H	0.413845	0.885690	0.406395
	H52	H	0.591019	0.402826	0.116552
	H53	H	0.595809	0.581920	0.887020
	H54	H	0.410196	0.602068	0.117053
	H55	H	0.404058	0.413238	0.885620
	H56	H	0.118191	0.605741	0.406530
	H57	H	0.881003	0.594787	0.592475
	H58	H	0.114447	0.413785	0.597634
	H59	H	0.880788	0.400150	0.414613
	H60	H	0.116335	0.401898	0.596645
	H61	H	0.881734	0.592599	0.594259
	H62	H	0.110252	0.589021	0.417864
	H63	H	0.885886	0.420706	0.412652
	H64	H	0.395369	0.592055	0.118657
	H65	H	0.579986	0.594291	0.888329
	H66	H	0.597540	0.406481	0.117149
	H67	H	0.411697	0.405277	0.886052
	H68	H	0.589396	0.119751	0.402280
	H69	H	0.585738	0.883173	0.598326
	H70	H	0.395727	0.119968	0.591591
	H71	H	0.404889	0.884337	0.414662
	H72	H	0.902579	0.616832	0.088148
	H73	H	0.089904	0.383105	0.097931
	H74	H	0.094458	0.618737	0.907492
	H75	H	0.916549	0.386391	0.906012
	H76	H	0.099448	0.913471	0.616927
	H77	H	0.084325	0.086030	0.389523
	H78	H	0.898628	0.087706	0.616379
	H79	H	0.907170	0.911975	0.386930
	H80	H	0.614068	0.093229	0.910159
	H81	H	0.384069	0.087010	0.096051
	H82	H	0.615061	0.910588	0.098528
	H83	H	0.375997	0.894341	0.904420
	H84	H	0.616929	0.902728	0.094778
	H85	H	0.378892	0.097425	0.099521
	H86	H	0.612279	0.087685	0.908944
	H87	H	0.387481	0.910474	0.924561
	H88	H	0.912297	0.095940	0.614197
	H89	H	0.086533	0.103216	0.382838
	H90	H	0.082336	0.910303	0.613045
	H91	H	0.906217	0.905440	0.384955
	H92	H	0.089254	0.618636	0.903607
	H93	H	0.086656	0.386360	0.091664
	H94	H	0.903022	0.619764	0.097030
	H95	H	0.902228	0.385226	0.917094
	H96	H	0.407724	0.119027	0.602650
	H97	H	0.589412	0.886042	0.587737
	H98	H	0.584277	0.116036	0.409909
	H99	H	0.402727	0.881557	0.403452
	H100	H	0.591492	0.409598	0.114193
	H101	H	0.597939	0.601538	0.880126
	H102	H	0.410241	0.584897	0.111589
	H103	H	0.401654	0.403392	0.882119
	H104	H	0.115259	0.586161	0.396624
	H105	H	0.880643	0.594957	0.594714
	H106	H	0.112745	0.407740	0.587045
	H107	H	0.878238	0.410461	0.397196
	H108	H	0.910902	0.615925	0.092220
	H109	H	0.094660	0.383979	0.091587
	H110	H	0.089165	0.616160	0.910371
	H111	H	0.901290	0.380175	0.899746
	H112	H	0.092999	0.898137	0.619381
	H113	H	0.100703	0.091329	0.382319
	H114	H	0.898981	0.103087	0.621160
	H115	H	0.900228	0.910018	0.384108
	H116	H	0.615341	0.091914	0.904978
	H117	H	0.382558	0.096336	0.088319
	H118	H	0.612617	0.909063	0.090402
	H119	H	0.382489	0.921360	0.898674
	C120	C	0.376212	0.009252	0.622526
	C121	C	0.619067	0.992223	0.622612
	C122	C	0.619366	0.009555	0.379241
	C123	C	0.377148	0.991847	0.379301
	C124	C	0.621828	0.377427	0.008468
	C125	C	0.620455	0.621609	0.992535
	C126	C	0.376484	0.622396	0.008302
	C127	C	0.377441	0.378930	0.992121
	C128	C	0.006224	0.622992	0.378565
	C129	C	0.989583	0.622478	0.621805
	C130	C	0.006463	0.379967	0.622526
	C131	C	0.989462	0.380430	0.379333
	C132	C	0.877126	0.509298	0.121715
	C133	C	0.119879	0.492500	0.122133
	C134	C	0.119862	0.509468	0.878557
	C135	C	0.877462	0.492660	0.879101
	C136	C	0.120141	0.878652	0.508711
	C137	C	0.118624	0.122197	0.492525
	C138	C	0.874960	0.124072	0.509516
	C139	C	0.876139	0.880068	0.492857
	C140	C	0.506243	0.121205	0.879596
	C141	C	0.490137	0.121892	0.122718
	C142	C	0.506929	0.878316	0.123355
	C143	C	0.489624	0.878980	0.879580
	C144	C	0.378231	0.885756	0.677963
	C145	C	0.616577	0.115056	0.678471
	C146	C	0.618840	0.886053	0.324535
	C147	C	0.377884	0.115133	0.324021
	C148	C	0.676616	0.380073	0.885924
	C149	C	0.675820	0.618801	0.114818
	C150	C	0.320753	0.621075	0.886139
	C151	C	0.321386	0.380174	0.114463
	C152	C	0.883221	0.678834	0.381025
	C153	C	0.112674	0.677016	0.618813
	C154	C	0.883113	0.325816	0.619913
	C155	C	0.112077	0.323927	0.381856
	C156	C	0.883577	0.382381	0.678164
	C157	C	0.112275	0.620361	0.677250
	C158	C	0.883295	0.621655	0.323432
	C159	C	0.112069	0.380697	0.323780
	C160	C	0.378709	0.678826	0.886244
	C161	C	0.617980	0.676648	0.114947
	C162	C	0.618632	0.322556	0.885933
	C163	C	0.380627	0.323871	0.115080
	C164	C	0.675215	0.886183	0.383015
	C165	C	0.673081	0.115920	0.620126
	C166	C	0.321485	0.885684	0.619742
	C167	C	0.321311	0.115393	0.382005
	C168	C	0.879455	0.386470	0.178124
	C169	C	0.118037	0.615880	0.177204
	C170	C	0.118239	0.385977	0.823264
	C171	C	0.878919	0.616225	0.824019
	C172	C	0.175745	0.880671	0.386177
	C173	C	0.174601	0.120030	0.614748
	C174	C	0.819684	0.121786	0.386927
	C175	C	0.821097	0.881728	0.615514
	C176	C	0.383233	0.177460	0.882524
	C177	C	0.613862	0.175148	0.118483
	C178	C	0.383963	0.823469	0.120061
	C179	C	0.613011	0.823474	0.881743
	C180	C	0.383785	0.880847	0.177893
	C181	C	0.613232	0.118862	0.177349
	C182	C	0.383126	0.120639	0.824368
	C183	C	0.611978	0.879530	0.823039
	C184	C	0.877253	0.179670	0.386937
	C185	C	0.116231	0.177579	0.615051
	C186	C	0.116832	0.824159	0.386050
	C187	C	0.879606	0.824449	0.615384
	C188	C	0.174999	0.385653	0.881473
	C189	C	0.175142	0.615796	0.119242
	C190	C	0.823033	0.385699	0.119431
	C191	C	0.821904	0.616183	0.881695
	C192	C	0.398083	0.095500	0.600427
	C193	C	0.597224	0.906221	0.600142
	C194	C	0.595928	0.095789	0.401241
	C195	C	0.400317	0.906088	0.401674
	C196	C	0.599795	0.399666	0.094018
	C197	C	0.597757	0.599214	0.907045
	C198	C	0.398789	0.599490	0.093662
	C199	C	0.399273	0.400993	0.906782
	C200	C	0.092106	0.600365	0.400483
	C201	C	0.903352	0.600603	0.600066
	C202	C	0.092389	0.401511	0.600384
	C203	C	0.903617	0.403457	0.401562
	C204	C	0.899107	0.595485	0.099141
	C205	C	0.097342	0.406753	0.100144
	C206	C	0.097621	0.595522	0.900674
	C207	C	0.900036	0.406278	0.901131
	C208	C	0.098234	0.900956	0.594165
	C209	C	0.096865	0.100157	0.407122
	C210	C	0.896743	0.101895	0.594987
	C211	C	0.897954	0.902500	0.407432
	C212	C	0.591859	0.097846	0.901666
	C213	C	0.404043	0.099976	0.101090
	C214	C	0.592750	0.900756	0.101175
	C215	C	0.403991	0.901908	0.902470
	Zn216	Zn	0.497455	0.000202	0.750936
	Zn217	Zn	0.498270	0.000480	0.251301
	Zn218	Zn	0.749482	0.500318	-0.000009
	Zn219	Zn	0.247791	0.500565	0.000578
	Zn220	Zn	-0.002196	0.750552	0.500315
	Zn221	Zn	-0.002762	0.251971	0.500955
	Zn222	Zn	-0.002041	0.501141	0.750878
	Zn223	Zn	-0.001845	0.501749	0.250695
	Zn224	Zn	0.498769	0.750470	0.000604
	Zn225	Zn	0.498838	0.249980	0.000704
	Zn226	Zn	0.747000	0.001566	0.500971
	Zn227	Zn	0.248526	0.000497	0.500324
	N228	N	0.411398	0.963571	0.679843
	N229	N	0.583735	0.037209	0.680136
	N230	N	0.584902	0.963936	0.322150
	N231	N	0.412046	0.037506	0.322305
	N232	N	0.678576	0.413585	0.963061
	N233	N	0.677398	0.585386	0.037577
	N234	N	0.319453	0.586591	0.963136
	N235	N	0.319179	0.413777	0.037111
	N236	N	0.960611	0.679688	0.414624
	N237	N	0.035251	0.678363	0.585147
	N238	N	0.960491	0.324179	0.585915
	N239	N	0.034773	0.323535	0.415535
	N240	N	0.961182	0.415528	0.679676
	N241	N	0.034710	0.586861	0.678923
	N242	N	0.960796	0.587597	0.321695
	N243	N	0.034562	0.415238	0.322111
	N244	N	0.412460	0.679839	0.963275
	N245	N	0.584243	0.678373	0.037793
	N246	N	0.585145	0.320850	0.963177
	N247	N	0.414662	0.323040	0.038161
	N248	N	0.675533	0.964033	0.416437
	N249	N	0.674831	0.038397	0.586021
	N250	N	0.320149	0.963353	0.585817
	N251	N	0.320732	0.037778	0.415825
	N252	N	0.912391	0.464330	0.179502
	N253	N	0.084494	0.538275	0.179282
	N254	N	0.084684	0.463899	0.821385
	N255	N	0.912849	0.538443	0.822551
	N256	N	0.177907	0.913988	0.463426
	N257	N	0.176015	0.086177	0.537677
	N258	N	0.818149	0.087913	0.464168
	N259	N	0.819096	0.915841	0.538564
	N260	N	0.460599	0.177627	0.916528
	N261	N	0.536283	0.177079	0.085185
	N262	N	0.461386	0.822075	0.086562
	N263	N	0.535962	0.823059	0.916416
	N264	N	0.461265	0.914339	0.179976
	N265	N	0.535325	0.086494	0.180015
	N266	N	0.460697	0.086694	0.822143
	N267	N	0.534433	0.913322	0.821696
	N268	N	0.910782	0.181413	0.464039
	N269	N	0.082248	0.179174	0.538102
	N270	N	0.083434	0.822491	0.463249
	N271	N	0.912888	0.823072	0.537982
	N272	N	0.175920	0.463233	0.915495
	N273	N	0.176258	0.538269	0.085533
	N274	N	0.821678	0.463103	0.084870
	N275	N	0.820798	0.538252	0.914981
	O276	O	0.471066	0.491704	0.473712
	H277	H	0.479522	0.492354	0.483724
	H278	H	0.470969	0.491948	0.474404
	O279	O	0.550114	0.468348	0.501545
	H280	H	0.546325	0.467685	0.501757
	H281	H	0.559181	0.456099	0.493687
	O282	O	0.506664	0.489892	0.513259
	H283	H	0.506230	0.488898	0.510597
	H284	H	0.511168	0.494571	0.520520
	O285	O	-0.008139	1.011234	0.988800
	H286	H	-0.004809	1.013838	0.990168
	H287	H	-0.007432	1.012368	0.990218
	O288	O	0.431726	0.486336	0.435264
	H289	H	0.439794	0.489577	0.429112
	H290	H	0.435098	0.500230	0.435225
	O291	O	0.025062	-0.066310	1.019908
	H292	H	0.021418	-0.067862	1.012386
	H293	H	0.027514	-0.071581	1.021879
	O294	O	0.459530	0.538537	0.460208
	H295	H	0.449234	0.524616	0.450195
	H296	H	0.450138	0.538469	0.464575
	O297	O	0.501594	0.519832	0.473116
	H298	H	0.510794	0.516094	0.474558
	H299	H	0.495392	0.515264	0.477969
	O300	O	0.503324	0.542930	0.419975
	H301	H	0.510945	0.540270	0.421336
	H302	H	0.505412	0.554776	0.404246
	O303	O	0.481631	0.528825	0.465539
	H304	H	0.483170	0.525867	0.472878
	H305	H	0.486066	0.527666	0.468087
	O306	O	0.967807	0.073219	1.032037
	H307	H	0.969333	0.067545	1.026964
	H308	H	0.963550	0.070217	1.036551
	O309	O	0.493252	0.490978	0.473609
	H310	H	0.493115	0.488521	0.471414
	H311	H	0.487709	0.493591	0.467567
	O312	O	0.472536	0.525907	0.428793
	H313	H	0.473977	0.534011	0.424397
	H314	H	0.451740	0.532509	0.423878
	O315	O	0.962295	0.036219	0.953356
	H316	H	0.964431	0.035733	0.958648
	H317	H	0.965558	0.041393	0.951523
	O318	O	0.003210	0.011325	0.005492
	H319	H	0.000491	0.013313	0.012164
	H320	H	0.002919	0.012532	0.004411
	O321	O	0.492235	0.514914	0.481559
	H322	H	0.487502	0.513133	0.483243
	H323	H	0.490800	0.524185	0.479949
	O324	O	0.998414	0.045946	0.002676
	H325	H	0.992240	0.051033	0.000714
	H326	H	0.995538	0.054561	0.000180
	O327	O	0.972235	1.067801	-0.017583
	H328	H	0.982667	1.062918	-0.020067
	H329	H	0.976363	1.069187	-0.027557
	O330	O	0.532496	0.532290	0.529620
	H331	H	0.537829	0.527746	0.522023
	H332	H	0.535906	0.533563	0.526964
	O333	O	0.523235	0.446434	0.505428
	H334	H	0.531713	0.453793	0.514819
	H335	H	0.517249	0.433707	0.507693
