data_Molecule from HDF5

_cell_length_a		16.340729
_cell_length_b		16.466808
_cell_length_c		16.329110
_cell_angle_alpha	89.785063
_cell_angle_beta	89.895248
_cell_angle_gamma	90.066100
_symmetry_space_group_name_H-M	'P 1'
_symmetry_Int_Tables_number		1

loop_
	_symmetry_equiv_pos_as_xyz
	x,y,z

loop_
	_atom_site_label
	_atom_site_type_symbol
	_atom_site_fract_x
	_atom_site_fract_y
	_atom_site_fract_z
	H0	H	0.395977	0.853183	0.723022
	H1	H	0.602766	0.173174	0.723287
	H2	H	0.603372	0.852829	0.284906
	H3	H	0.399149	0.172704	0.284606
	H4	H	0.722942	0.410057	0.844591
	H5	H	0.721514	0.615872	0.165757
	H6	H	0.286028	0.613803	0.842731
	H7	H	0.284526	0.411182	0.166354
	H8	H	0.839804	0.734993	0.398301
	H9	H	0.160958	0.734295	0.606370
	H10	H	0.839693	0.293374	0.611485
	H11	H	0.160667	0.296154	0.401588
	H12	H	0.840189	0.410359	0.727116
	H13	H	0.162035	0.616761	0.721260
	H14	H	0.839811	0.618051	0.284924
	H15	H	0.162702	0.414944	0.288077
	H16	H	0.396965	0.733423	0.844764
	H17	H	0.611244	0.737729	0.162573
	H18	H	0.607745	0.292753	0.843986
	H19	H	0.399939	0.292895	0.165334
	H20	H	0.722860	0.855116	0.398024
	H21	H	0.718647	0.173452	0.607297
	H22	H	0.279961	0.853473	0.605840
	H23	H	0.283446	0.174285	0.401840
	H24	H	0.898072	0.356210	0.227170
	H25	H	0.104797	0.675286	0.222904
	H26	H	0.105090	0.355349	0.785950
	H27	H	0.899625	0.674362	0.787695
	H28	H	0.216728	0.914663	0.341361
	H29	H	0.215450	0.112581	0.666368
	H30	H	0.781089	0.119040	0.342358
	H31	H	0.780057	0.912211	0.664408
	H32	H	0.341699	0.233288	0.899674
	H33	H	0.661053	0.231928	0.108922
	H34	H	0.339756	0.792348	0.106188
	H35	H	0.661001	0.794199	0.899589
	H36	H	0.337706	0.909982	0.220836
	H37	H	0.660939	0.113140	0.222117
	H38	H	0.337725	0.110965	0.790578
	H39	H	0.660269	0.911103	0.783822
	H40	H	0.897430	0.235555	0.344023
	H41	H	0.102440	0.231434	0.665831
	H42	H	0.103823	0.795479	0.342870
	H43	H	0.894070	0.794363	0.664340
	H44	H	0.219639	0.353986	0.904112
	H45	H	0.221468	0.675129	0.105887
	H46	H	0.781862	0.355572	0.111542
	H47	H	0.781273	0.672524	0.900796
	H48	H	0.412441	0.125785	0.594646
	H49	H	0.583385	0.903135	0.593069
	H50	H	0.585012	0.124381	0.412988
	H51	H	0.403265	0.895615	0.407255
	H52	H	0.585809	0.418086	0.118218
	H53	H	0.596208	0.603793	0.889598
	H54	H	0.412344	0.607326	0.120029
	H55	H	0.416709	0.423620	0.891650
	H56	H	0.113235	0.612551	0.425687
	H57	H	0.887162	0.605601	0.589504
	H58	H	0.111999	0.423509	0.588248
	H59	H	0.885455	0.427485	0.410043
	H60	H	0.113755	0.428438	0.599464
	H61	H	0.887363	0.600141	0.598225
	H62	H	0.111200	0.594726	0.414351
	H63	H	0.885389	0.419938	0.418059
	H64	H	0.409122	0.600650	0.119702
	H65	H	0.589930	0.595651	0.894580
	H66	H	0.596236	0.418663	0.121380
	H67	H	0.411463	0.416935	0.887739
	H68	H	0.591412	0.125910	0.415868
	H69	H	0.591299	0.901700	0.587724
	H70	H	0.402283	0.127790	0.592423
	H71	H	0.413582	0.900517	0.411750
	H72	H	0.908981	0.628355	0.090565
	H73	H	0.098250	0.402888	0.088911
	H74	H	0.103656	0.632711	0.909192
	H75	H	0.915118	0.402942	0.920773
	H76	H	0.085089	0.920009	0.617474
	H77	H	0.089887	0.101077	0.391205
	H78	H	0.906105	0.107177	0.620983
	H79	H	0.909850	0.925696	0.390400
	H80	H	0.612712	0.097195	0.916044
	H81	H	0.388711	0.103440	0.086257
	H82	H	0.613820	0.923454	0.092078
	H83	H	0.386593	0.926665	0.913609
	H84	H	0.613456	0.924131	0.093466
	H85	H	0.387113	0.097698	0.096457
	H86	H	0.617808	0.102590	0.905689
	H87	H	0.384767	0.917719	0.911671
	H88	H	0.907516	0.098776	0.617189
	H89	H	0.085534	0.111021	0.389062
	H90	H	0.093417	0.922020	0.619693
	H91	H	0.912054	0.926004	0.390210
	H92	H	0.086336	0.628495	0.906745
	H93	H	0.095540	0.398747	0.105200
	H94	H	0.910494	0.629938	0.097496
	H95	H	0.908106	0.399531	0.916903
	H96	H	0.406437	0.129983	0.601837
	H97	H	0.591055	0.898846	0.597377
	H98	H	0.590205	0.127379	0.409493
	H99	H	0.403931	0.899204	0.418591
	H100	H	0.590986	0.427715	0.117052
	H101	H	0.585539	0.605873	0.891671
	H102	H	0.415962	0.601773	0.117171
	H103	H	0.408221	0.425463	0.889818
	H104	H	0.119000	0.612064	0.405454
	H105	H	0.883205	0.609538	0.598521
	H106	H	0.116076	0.417181	0.597542
	H107	H	0.889037	0.429890	0.420287
	H108	H	0.915481	0.626143	0.093543
	H109	H	0.083267	0.404737	0.095947
	H110	H	0.093485	0.626225	0.922562
	H111	H	0.915485	0.400309	0.912289
	H112	H	0.087571	0.927900	0.615915
	H113	H	0.096342	0.109029	0.386800
	H114	H	0.913861	0.105608	0.616358
	H115	H	0.911158	0.924202	0.389740
	H116	H	0.616852	0.109277	0.916496
	H117	H	0.383910	0.109065	0.095593
	H118	H	0.613814	0.922227	0.093596
	H119	H	0.386418	0.920008	0.920449
	C120	C	0.376881	0.021653	0.626085
	C121	C	0.620054	1.006224	0.624684
	C122	C	0.621276	0.021134	0.381406
	C123	C	0.377418	1.004486	0.381898
	C124	C	0.623756	0.390334	0.013206
	C125	C	0.622893	0.633807	0.997265
	C126	C	0.381237	0.633840	0.012750
	C127	C	0.380913	0.391038	0.996323
	C128	C	0.008651	0.637353	0.382843
	C129	C	0.992310	0.636055	0.625620
	C130	C	0.008089	0.392194	0.627219
	C131	C	0.992775	0.394878	0.384877
	C132	C	0.880258	0.522953	0.126661
	C133	C	0.124188	0.506933	0.127246
	C134	C	0.124095	0.523158	0.882925
	C135	C	0.880634	0.505766	0.884447
	C136	C	0.120131	0.893312	0.511316
	C137	C	0.121142	0.136268	0.495778
	C138	C	0.878234	0.136032	0.512093
	C139	C	0.878754	0.893736	0.495752
	C140	C	0.509365	0.133734	0.882640
	C141	C	0.492716	0.133307	0.124327
	C142	C	0.507970	0.891150	0.124831
	C143	C	0.491530	0.891135	0.882682
	C144	C	0.376732	0.901106	0.683834
	C145	C	0.621274	0.125634	0.683721
	C146	C	0.622805	0.901015	0.323343
	C147	C	0.378749	0.124916	0.323425
	C148	C	0.683534	0.390249	0.892577
	C149	C	0.682267	0.634962	0.117496
	C150	C	0.323966	0.633688	0.891337
	C151	C	0.323405	0.391382	0.117820
	C152	C	0.888116	0.695754	0.380396
	C153	C	0.113063	0.694652	0.625390
	C154	C	0.887762	0.332960	0.629744
	C155	C	0.112962	0.335924	0.383161
	C156	C	0.887895	0.391121	0.687373
	C157	C	0.113501	0.636108	0.682631
	C158	C	0.888170	0.637436	0.323736
	C159	C	0.114025	0.395291	0.326932
	C160	C	0.379272	0.693097	0.892295
	C161	C	0.627157	0.695499	0.115933
	C162	C	0.626094	0.332083	0.892325
	C163	C	0.380776	0.332654	0.117462
	C164	C	0.682209	0.902197	0.379674
	C165	C	0.678783	0.125942	0.625675
	C166	C	0.319046	0.901395	0.625478
	C167	C	0.321431	0.125777	0.381762
	C168	C	0.879384	0.403528	0.187022
	C169	C	0.124593	0.627362	0.184330
	C170	C	0.123772	0.402798	0.825534
	C171	C	0.879859	0.625929	0.826005
	C172	C	0.178378	0.894148	0.390093
	C173	C	0.177485	0.133504	0.617787
	C174	C	0.820581	0.137352	0.390750
	C175	C	0.819295	0.892876	0.616302
	C176	C	0.389150	0.193007	0.881656
	C177	C	0.613118	0.191690	0.126467
	C178	C	0.387573	0.832078	0.125272
	C179	C	0.612890	0.833329	0.880653
	C180	C	0.386631	0.890514	0.182353
	C181	C	0.613062	0.132713	0.183085
	C182	C	0.387127	0.132430	0.827067
	C183	C	0.612379	0.891395	0.823291
	C184	C	0.878079	0.195706	0.391679
	C185	C	0.121006	0.192326	0.617532
	C186	C	0.121796	0.835141	0.390629
	C187	C	0.876327	0.834389	0.616307
	C188	C	0.181111	0.402191	0.884038
	C189	C	0.182516	0.627156	0.125888
	C190	C	0.821660	0.403145	0.129419
	C191	C	0.821238	0.625317	0.882817
	C192	C	0.400375	0.105913	0.603020
	C193	C	0.595559	0.922932	0.600000
	C194	C	0.596130	0.104143	0.405713
	C195	C	0.400264	0.920393	0.405682
	C196	C	0.598456	0.414528	0.096856
	C197	C	0.597547	0.608949	0.913716
	C198	C	0.405547	0.610027	0.097084
	C199	C	0.404881	0.415031	0.911852
	C200	C	0.092833	0.613251	0.407826
	C201	C	0.907804	0.611971	0.602216
	C202	C	0.091987	0.416119	0.602400
	C203	C	0.908590	0.418739	0.409244
	C204	C	0.904553	0.606278	0.101272
	C205	C	0.099559	0.423683	0.103586
	C206	C	0.101249	0.606963	0.906103
	C207	C	0.905694	0.422649	0.909411
	C208	C	0.095687	0.916585	0.595880
	C209	C	0.097619	0.113602	0.410951
	C210	C	0.902231	0.111089	0.596195
	C211	C	0.903867	0.918254	0.411861
	C212	C	0.593866	0.109942	0.905904
	C213	C	0.408258	0.109968	0.099761
	C214	C	0.591950	0.915917	0.100128
	C215	C	0.407725	0.914636	0.907808
	Zn216	Zn	0.499427	0.012753	0.754307
	Zn217	Zn	0.499301	0.012157	0.253226
	Zn218	Zn	0.751696	0.513170	0.005510
	Zn219	Zn	0.252946	0.513899	0.004731
	Zn220	Zn	-0.000744	0.764267	0.504214
	Zn221	Zn	-0.000098	0.264657	0.505170
	Zn222	Zn	0.001055	0.514840	0.755214
	Zn223	Zn	0.001071	0.515799	0.255674
	Zn224	Zn	0.501663	0.762267	0.003639
	Zn225	Zn	0.502040	0.262288	0.003641
	Zn226	Zn	0.749487	0.014735	0.503140
	Zn227	Zn	0.248798	0.014634	0.503733
	N228	N	0.412042	0.976983	0.684374
	N229	N	0.585431	0.050031	0.683258
	N230	N	0.585697	0.975927	0.324235
	N231	N	0.412642	0.048466	0.323084
	N232	N	0.682433	0.425766	0.968722
	N233	N	0.679492	0.597251	0.042643
	N234	N	0.325231	0.597551	0.967264
	N235	N	0.323368	0.426829	0.041526
	N236	N	0.964173	0.695812	0.416257
	N237	N	0.036440	0.694686	0.590803
	N238	N	0.963454	0.333538	0.593045
	N239	N	0.036621	0.335547	0.418363
	N240	N	0.963708	0.427403	0.685928
	N241	N	0.037438	0.600354	0.682874
	N242	N	0.964352	0.602016	0.325099
	N243	N	0.038150	0.431339	0.327762
	N244	N	0.414294	0.693277	0.968817
	N245	N	0.590882	0.694821	0.040041
	N246	N	0.589868	0.331882	0.968342
	N247	N	0.415745	0.332320	0.040830
	N248	N	0.681435	0.977829	0.415013
	N249	N	0.678056	0.050657	0.589495
	N250	N	0.319231	0.977250	0.590246
	N251	N	0.320373	0.049965	0.417225
	N252	N	0.915151	0.479120	0.185321
	N253	N	0.088938	0.551776	0.185360
	N254	N	0.089167	0.478836	0.824581
	N255	N	0.915971	0.550666	0.826971
	N256	N	0.177379	0.929546	0.466288
	N257	N	0.177804	0.099625	0.541013
	N258	N	0.820642	0.101065	0.466698
	N259	N	0.820578	0.929036	0.540286
	N260	N	0.466155	0.194130	0.915230
	N261	N	0.537271	0.191787	0.090369
	N262	N	0.464119	0.832263	0.090385
	N263	N	0.536846	0.832977	0.916868
	N264	N	0.462665	0.926444	0.182378
	N265	N	0.536979	0.097101	0.181785
	N266	N	0.462942	0.096319	0.827495
	N267	N	0.536040	0.926374	0.824354
	N268	N	0.913143	0.194972	0.468094
	N269	N	0.086759	0.194192	0.540681
	N270	N	0.086347	0.834511	0.467109
	N271	N	0.912312	0.834772	0.540146
	N272	N	0.181677	0.478020	0.918815
	N273	N	0.182631	0.551116	0.091571
	N274	N	0.822122	0.478352	0.092630
	N275	N	0.821263	0.549362	0.918092
	O276	O	0.881015	0.081999	0.830858
	H277	H	0.881060	0.071905	0.842832
	H278	H	0.874351	0.068876	0.823173
	O279	O	0.490216	0.431284	0.617715
	H280	H	0.477481	0.409657	0.622233
	H281	H	0.491222	0.432698	0.632543
	O282	O	0.450344	0.412981	0.389228
	H283	H	0.430984	0.407613	0.396103
	H284	H	0.453111	0.439114	0.391489
	O285	O	0.940982	-0.152834	-0.022756
	H286	H	0.951787	-0.147813	-0.032159
	H287	H	0.940450	-0.151367	-0.042724
	O288	O	-0.033139	0.127658	0.957910
	H289	H	-0.031930	0.129647	0.977309
	H290	H	-0.033486	0.108998	0.957061
	O291	O	0.691960	0.702273	0.693253
	H292	H	0.685593	0.687273	0.698926
	H293	H	0.674410	0.688145	0.690143
	O294	O	0.302062	0.583652	0.602522
	H295	H	0.306016	0.558484	0.587414
	H296	H	0.285787	0.596381	0.603859
	O297	O	0.846404	1.182783	1.026100
	H298	H	0.839160	1.193099	1.029723
	H299	H	0.837524	1.183217	1.026117
	O300	O	0.052677	-0.076706	-0.055703
	H301	H	0.040932	-0.069845	-0.054952
	H302	H	0.055576	-0.064894	-0.055618
	O303	O	0.684686	0.343434	0.407847
	H304	H	0.675658	0.353310	0.388464
	H305	H	0.673243	0.335624	0.402150
	O306	O	1.139049	0.003775	-0.051293
	H307	H	1.135028	-0.000097	-0.046906
	H308	H	1.142519	-0.006990	-0.063758
	O309	O	0.415606	0.681884	0.616173
	H310	H	0.421699	0.677559	0.621306
	H311	H	0.413857	0.686720	0.592263
	O312	O	1.030454	1.076828	0.129978
	H313	H	1.046703	1.088696	0.133511
	H314	H	1.036759	1.089115	0.137010
	O315	O	0.411298	0.613623	0.427403
	H316	H	0.414019	0.613005	0.410063
	H317	H	0.413712	0.609618	0.419333
	O318	O	0.366439	0.413857	0.568431
	H319	H	0.365739	0.414290	0.578984
	H320	H	0.359560	0.403948	0.576452
	O321	O	0.999343	-0.067202	0.907424
	H322	H	0.996476	-0.056337	0.917059
	H323	H	1.000382	-0.048526	0.905724
	O324	O	0.119978	-0.013836	1.008950
	H325	H	0.123708	-0.028315	1.024635
	H326	H	0.127492	-0.008523	1.010850
	O327	O	0.704429	0.513143	0.544718
	H328	H	0.716792	0.514568	0.544612
	H329	H	0.708888	0.508324	0.550809
	O330	O	0.444186	0.639328	0.375921
	H331	H	0.455696	0.637918	0.370714
	H332	H	0.444555	0.653261	0.385052
	O333	O	0.437665	0.396431	0.396211
	H334	H	0.427839	0.404552	0.408886
	H335	H	0.447076	0.404543	0.394424
	O336	O	0.687240	0.443557	0.352039
	H337	H	0.692911	0.452529	0.341938
	H338	H	0.670432	0.437775	0.361543
	O339	O	1.076457	0.216309	1.101215
	H340	H	1.092575	0.225824	1.115510
	H341	H	1.085281	0.217835	1.099100
	O342	O	-0.301864	0.694116	0.539879
	H343	H	-0.308279	0.693719	0.560471
	H344	H	-0.292159	0.700028	0.541958
	O345	O	-0.110890	1.092529	1.059648
	H346	H	-0.108435	1.102406	1.070170
	H347	H	-0.098666	1.099627	1.074908
	O348	O	-0.509824	0.587791	-0.389190
	H349	H	-0.521717	0.590239	-0.385753
	H350	H	-0.508478	0.607097	-0.400955
	O351	O	-0.180036	-0.064939	0.179213
	H352	H	-0.175774	-0.047630	0.195310
	H353	H	-0.183937	-0.062039	0.174700
	O354	O	1.506937	1.627851	0.334305
	H355	H	1.517280	1.638448	0.336725
	H356	H	1.514866	1.626664	0.344595
	O357	O	0.049107	0.868070	0.090405
	H358	H	0.052802	0.873547	0.093331
	H359	H	0.045936	0.859489	0.103890
	O360	O	0.469160	0.451412	0.688817
	H361	H	0.467773	0.455605	0.677386
	H362	H	0.469681	0.455709	0.682090
	O363	O	0.674230	0.365312	0.503487
	H364	H	0.670016	0.372528	0.481339
	H365	H	0.686288	0.350939	0.499945
	O366	O	0.541439	0.564444	0.470876
	H367	H	0.534196	0.554823	0.485686
	H368	H	0.542464	0.565071	0.468517
	O369	O	0.483873	0.472061	0.621434
	H370	H	0.487848	0.490599	0.631355
	H371	H	0.481558	0.476995	0.630281
	O372	O	0.350030	0.548434	0.433278
	H373	H	0.353140	0.542275	0.443321
	H374	H	0.349077	0.549101	0.422496
	O375	O	0.383346	0.648844	0.371076
	H376	H	0.387237	0.658069	0.362117
	H377	H	0.371486	0.649342	0.367740
	O378	O	0.641381	0.507449	0.426888
	H379	H	0.644249	0.489716	0.411125
	H380	H	0.642695	0.510503	0.446079
	O381	O	0.345462	0.422096	0.532161
	H382	H	0.327844	0.406607	0.524433
	H383	H	0.354892	0.417142	0.556901
	O384	O	0.084625	1.179209	1.121073
	H385	H	0.093288	1.178220	1.136805
	H386	H	0.072366	1.185650	1.099443
	O387	O	1.114772	1.046626	0.179807
	H388	H	1.115881	1.043029	0.174180
	H389	H	1.115555	1.063579	0.183352
	O390	O	0.468720	0.335237	0.500987
	H391	H	0.464323	0.330821	0.497515
	H392	H	0.477031	0.333915	0.513439
	O393	O	0.979533	0.107290	1.028048
	H394	H	0.971684	0.112470	1.032233
	H395	H	0.968438	0.103360	1.026780
	O396	O	0.057159	-0.169803	-0.125939
	H397	H	0.065280	-0.168019	-0.125044
	H398	H	0.061920	-0.177778	-0.142251
	O399	O	0.924907	0.098631	0.112968
	H400	H	0.907190	0.086116	0.120189
	H401	H	0.931893	0.106068	0.104017
	O402	O	0.510606	0.695219	1.498075
	H403	H	0.520602	0.696771	1.499686
	H404	H	0.509129	0.695169	1.491369
	O405	O	-0.133652	-0.008057	-0.163733
	H406	H	-0.126060	-0.016415	-0.172541
	H407	H	-0.121107	-0.006104	-0.138613
	O408	O	0.961526	1.103277	0.904407
	H409	H	0.953619	1.115138	0.880259
	H410	H	0.935534	1.095197	0.908128
	O411	O	1.341362	0.325550	-0.385940
	H412	H	1.334688	0.328164	-0.364120
	H413	H	1.357831	0.320035	-0.379256
	O414	O	-0.171679	-0.062185	1.031003
	H415	H	-0.172239	-0.049671	1.023867
	H416	H	-0.175306	-0.080516	1.008510
	O417	O	1.017445	-0.089309	0.904859
	H418	H	1.019478	-0.083337	0.904685
	H419	H	1.033731	-0.095215	0.883740
	O420	O	0.142417	1.147468	0.095606
	H421	H	0.133684	1.144300	0.091381
	H422	H	0.139418	1.140557	0.085391
	O423	O	0.916464	-0.184459	0.127874
	H424	H	0.900908	-0.185924	0.143065
	H425	H	0.909416	-0.193482	0.141519
	O426	O	0.118785	0.050927	0.876522
	H427	H	0.106819	0.057554	0.896551
	H428	H	0.121331	0.044014	0.876327
	O429	O	0.445140	0.389951	0.692886
	H430	H	0.453820	0.390821	0.697940
	H431	H	0.443839	0.387340	0.692409
