data_Molecule from HDF5

_cell_length_a		16.401317
_cell_length_b		16.514784
_cell_length_c		16.601557
_cell_angle_alpha	89.927473
_cell_angle_beta	89.991247
_cell_angle_gamma	89.846689
_symmetry_space_group_name_H-M	'P 1'
_symmetry_Int_Tables_number		1

loop_
	_symmetry_equiv_pos_as_xyz
	x,y,z

loop_
	_atom_site_label
	_atom_site_type_symbol
	_atom_site_fract_x
	_atom_site_fract_y
	_atom_site_fract_z
	H0	H	0.403842	0.836709	0.759067
	H1	H	0.619192	0.147818	0.756471
	H2	H	0.617385	0.834092	0.313907
	H3	H	0.401275	0.147381	0.307800
	H4	H	0.732322	0.389819	0.877222
	H5	H	0.734433	0.594876	0.192575
	H6	H	0.292997	0.595966	0.876907
	H7	H	0.287845	0.382493	0.190432
	H8	H	0.856133	0.714754	0.427725
	H9	H	0.172597	0.710692	0.636338
	H10	H	0.855375	0.272003	0.638347
	H11	H	0.170475	0.266016	0.425114
	H12	H	0.855251	0.388698	0.754815
	H13	H	0.171788	0.597161	0.755004
	H14	H	0.855683	0.598753	0.312440
	H15	H	0.170344	0.380559	0.307980
	H16	H	0.409471	0.713113	0.878404
	H17	H	0.621009	0.714417	0.191707
	H18	H	0.619684	0.268968	0.879532
	H19	H	0.406332	0.268368	0.190794
	H20	H	0.732416	0.833417	0.431362
	H21	H	0.730992	0.150298	0.635476
	H22	H	0.291282	0.835478	0.639054
	H23	H	0.289210	0.149136	0.427248
	H24	H	0.905821	0.336994	0.259361
	H25	H	0.120192	0.649442	0.256090
	H26	H	0.119438	0.335274	0.811713
	H27	H	0.907079	0.649833	0.812457
	H28	H	0.236500	0.886640	0.376241
	H29	H	0.236809	0.098363	0.690688
	H30	H	0.794374	0.095198	0.375916
	H31	H	0.792182	0.887836	0.690749
	H32	H	0.354835	0.216221	0.927408
	H33	H	0.670498	0.211259	0.139017
	H34	H	0.354444	0.768394	0.141109
	H35	H	0.670722	0.771471	0.930440
	H36	H	0.353992	0.883957	0.257355
	H37	H	0.669305	0.097117	0.256475
	H38	H	0.355618	0.101731	0.809805
	H39	H	0.669608	0.886357	0.813134
	H40	H	0.909274	0.214071	0.377445
	H41	H	0.121427	0.215915	0.690432
	H42	H	0.123146	0.767244	0.378147
	H43	H	0.908736	0.770581	0.690341
	H44	H	0.234707	0.334038	0.928654
	H45	H	0.234338	0.649544	0.138138
	H46	H	0.794622	0.334016	0.138762
	H47	H	0.793506	0.650584	0.932002
	H48	H	0.430633	0.100910	0.618682
	H49	H	0.601100	0.878473	0.627396
	H50	H	0.598399	0.105176	0.438870
	H51	H	0.419775	0.878295	0.446180
	H52	H	0.601038	0.400133	0.147002
	H53	H	0.602705	0.575324	0.925504
	H54	H	0.430271	0.578675	0.143716
	H55	H	0.419424	0.407987	0.923075
	H56	H	0.127041	0.583871	0.449264
	H57	H	0.901438	0.574272	0.626240
	H58	H	0.125248	0.409462	0.623127
	H59	H	0.900917	0.401269	0.445840
	H60	H	0.128483	0.402033	0.626548
	H61	H	0.896149	0.587177	0.628690
	H62	H	0.123557	0.573570	0.447837
	H63	H	0.905247	0.406322	0.451185
	H64	H	0.422953	0.584754	0.147742
	H65	H	0.597280	0.588068	0.923540
	H66	H	0.605375	0.400422	0.148380
	H67	H	0.431346	0.408245	0.927631
	H68	H	0.599003	0.102590	0.447319
	H69	H	0.599438	0.879983	0.622863
	H70	H	0.422528	0.104174	0.620117
	H71	H	0.428684	0.879975	0.439463
	H72	H	0.926903	0.603833	0.122497
	H73	H	0.099650	0.380404	0.122352
	H74	H	0.104901	0.605756	0.943630
	H75	H	0.927396	0.381803	0.946175
	H76	H	0.092545	0.904888	0.639964
	H77	H	0.102445	0.077890	0.423717
	H78	H	0.927695	0.081727	0.644519
	H79	H	0.924567	0.900952	0.421393
	H80	H	0.626993	0.079886	0.938039
	H81	H	0.399463	0.078121	0.123175
	H82	H	0.622784	0.907425	0.125244
	H83	H	0.399878	0.910792	0.942660
	H84	H	0.626764	0.900566	0.127199
	H85	H	0.399446	0.081169	0.120374
	H86	H	0.625040	0.085731	0.950239
	H87	H	0.395779	0.897594	0.943303
	H88	H	0.919829	0.088887	0.649749
	H89	H	0.097920	0.077920	0.424983
	H90	H	0.103321	0.893986	0.648177
	H91	H	0.922278	0.901583	0.420673
	H92	H	0.100169	0.604217	0.941428
	H93	H	0.099129	0.380762	0.122743
	H94	H	0.923088	0.604671	0.122395
	H95	H	0.920150	0.378707	0.944581
	H96	H	0.428143	0.104871	0.626251
	H97	H	0.604150	0.878614	0.623840
	H98	H	0.605956	0.106317	0.442940
	H99	H	0.428917	0.883225	0.450136
	H100	H	0.603784	0.403204	0.145984
	H101	H	0.609956	0.585204	0.919389
	H102	H	0.421208	0.575058	0.145979
	H103	H	0.427013	0.397666	0.922189
	H104	H	0.128578	0.578904	0.439764
	H105	H	0.901450	0.583955	0.615679
	H106	H	0.125968	0.402432	0.617852
	H107	H	0.902879	0.409197	0.443752
	H108	H	0.924865	0.605608	0.125723
	H109	H	0.099680	0.381237	0.121608
	H110	H	0.100858	0.603161	0.946365
	H111	H	0.926232	0.378944	0.938571
	H112	H	0.108529	0.909857	0.644677
	H113	H	0.099642	0.082046	0.423752
	H114	H	0.916901	0.078043	0.646687
	H115	H	0.924208	0.903393	0.421459
	H116	H	0.621502	0.072594	0.947944
	H117	H	0.400785	0.077183	0.119336
	H118	H	0.623189	0.901691	0.119591
	H119	H	0.401894	0.903858	0.954316
	C120	C	0.392253	0.000677	0.655226
	C121	C	0.633933	0.983080	0.655897
	C122	C	0.633365	0.000234	0.412200
	C123	C	0.391064	0.983502	0.411922
	C124	C	0.635348	0.369968	0.043400
	C125	C	0.635301	0.614227	1.026841
	C126	C	0.392078	0.612428	0.042837
	C127	C	0.391742	0.370742	1.027027
	C128	C	0.022122	0.612570	0.413009
	C129	C	1.004905	0.613283	0.655147
	C130	C	0.021789	0.372161	0.654688
	C131	C	1.006399	0.371040	0.412552
	C132	C	0.892169	0.501206	0.156212
	C133	C	0.133798	0.484040	0.155300
	C134	C	0.134612	0.500270	0.912006
	C135	C	0.891787	0.483955	0.911855
	C136	C	0.135206	0.870494	0.541177
	C137	C	0.134386	0.113428	0.526776
	C138	C	0.890931	0.114168	0.542529
	C139	C	0.891582	0.870056	0.525118
	C140	C	0.520768	0.113571	0.912302
	C141	C	0.503924	0.111839	0.154484
	C142	C	0.520289	0.869758	0.156730
	C143	C	0.503605	0.871458	0.914231
	C144	C	0.387059	0.883310	0.717510
	C145	C	0.636837	0.101203	0.715753
	C146	C	0.635738	0.881401	0.353350
	C147	C	0.385333	0.100833	0.349329
	C148	C	0.693738	0.369779	0.924873
	C149	C	0.695098	0.614646	0.144945
	C150	C	0.332598	0.614383	0.924470
	C151	C	0.329392	0.366070	0.143727
	C152	C	0.903524	0.674088	0.409912
	C153	C	0.124786	0.672109	0.656164
	C154	C	0.902753	0.311951	0.657025
	C155	C	0.123527	0.307433	0.407839
	C156	C	0.902644	0.369759	0.714770
	C157	C	0.124191	0.615557	0.715012
	C158	C	0.903221	0.616271	0.352543
	C159	C	0.123390	0.364801	0.349606
	C160	C	0.390400	0.672746	0.924974
	C161	C	0.638248	0.673962	0.144634
	C162	C	0.637592	0.309977	0.925886
	C163	C	0.388400	0.308890	0.144030
	C164	C	0.692739	0.881075	0.412041
	C165	C	0.692200	0.102385	0.655464
	C166	C	0.331206	0.882512	0.657796
	C167	C	0.329493	0.101793	0.408868
	C168	C	0.888535	0.383293	0.217747
	C169	C	0.137560	0.602127	0.215709
	C170	C	0.137446	0.382225	0.851832
	C171	C	0.889173	0.602752	0.852520
	C172	C	0.196278	0.868252	0.423574
	C173	C	0.196483	0.116796	0.643761
	C174	C	0.833185	0.114532	0.423392
	C175	C	0.831893	0.868756	0.643398
	C176	C	0.402468	0.175736	0.909368
	C177	C	0.622796	0.171718	0.157450
	C178	C	0.401660	0.808650	0.159297
	C179	C	0.622802	0.811272	0.911989
	C180	C	0.401496	0.866217	0.217219
	C181	C	0.622267	0.114551	0.215493
	C182	C	0.402409	0.118454	0.851068
	C183	C	0.622567	0.868562	0.853759
	C184	C	0.890393	0.173504	0.424285
	C185	C	0.138704	0.175138	0.643603
	C186	C	0.139583	0.808954	0.424137
	C187	C	0.889756	0.810221	0.643138
	C188	C	0.194630	0.381606	0.910384
	C189	C	0.194442	0.602220	0.157083
	C190	C	0.833242	0.381872	0.157689
	C191	C	0.832702	0.603109	0.911905
	C192	C	0.419345	0.082076	0.629127
	C193	C	0.608660	0.900403	0.631625
	C194	C	0.608216	0.083015	0.436181
	C195	C	0.418029	0.901922	0.437954
	C196	C	0.610465	0.394160	0.125712
	C197	C	0.610406	0.589972	0.944378
	C198	C	0.417465	0.586869	0.124594
	C199	C	0.418460	0.397056	0.945488
	C200	C	0.104864	0.586217	0.438455
	C201	C	0.921570	0.588821	0.630657
	C202	C	0.104906	0.397461	0.629721
	C203	C	0.924270	0.398026	0.439324
	C204	C	0.917741	0.583226	0.131144
	C205	C	0.107311	0.402250	0.129748
	C206	C	0.109290	0.583033	0.936692
	C207	C	0.917327	0.401305	0.936182
	C208	C	0.108934	0.895796	0.622972
	C209	C	0.107597	0.086861	0.445449
	C210	C	0.914712	0.089892	0.625327
	C211	C	0.916520	0.894814	0.442754
	C212	C	0.603143	0.086887	0.937909
	C213	C	0.421236	0.086093	0.128263
	C214	C	0.602873	0.895778	0.131310
	C215	C	0.420787	0.897156	0.939485
	Zn216	Zn	0.512104	-0.008128	0.784820
	Zn217	Zn	0.511617	-0.008182	0.283792
	Zn218	Zn	0.764291	0.491915	0.034365
	Zn219	Zn	0.262263	0.491494	0.034246
	Zn220	Zn	0.014115	0.740954	0.533433
	Zn221	Zn	0.013710	0.242795	0.534506
	Zn222	Zn	0.013433	0.492409	0.783417
	Zn223	Zn	0.013810	0.492566	0.284331
	Zn224	Zn	0.512656	0.742504	0.035456
	Zn225	Zn	0.513108	0.241352	0.034583
	Zn226	Zn	0.762152	-0.007886	0.533484
	Zn227	Zn	0.263837	-0.007645	0.534071
	N228	N	0.424080	0.957795	0.716183
	N229	N	0.601326	0.026073	0.716018
	N230	N	0.599673	0.956638	0.353193
	N231	N	0.422688	0.026211	0.350983
	N232	N	0.692730	0.406009	0.999124
	N233	N	0.693408	0.578146	0.070596
	N234	N	0.333321	0.577874	0.998851
	N235	N	0.331372	0.403661	0.069841
	N236	N	0.978568	0.672023	0.446663
	N237	N	0.049513	0.671035	0.619898
	N238	N	0.977918	0.313283	0.620390
	N239	N	0.049703	0.311349	0.446555
	N240	N	0.977823	0.406199	0.713546
	N241	N	0.048608	0.580048	0.714733
	N242	N	0.978113	0.578697	0.354356
	N243	N	0.049341	0.403774	0.352495
	N244	N	0.426510	0.671905	0.999615
	N245	N	0.602069	0.673966	0.069973
	N246	N	0.602104	0.309829	1.000737
	N247	N	0.426300	0.311516	0.070239
	N248	N	0.691517	0.955961	0.447830
	N249	N	0.690683	0.027827	0.618885
	N250	N	0.334245	0.956300	0.619726
	N251	N	0.333035	0.028032	0.447154
	N252	N	0.924507	0.458318	0.217013
	N253	N	0.100822	0.527397	0.214726
	N254	N	0.101038	0.457179	0.852737
	N255	N	0.925239	0.527651	0.852525
	N256	N	0.193697	0.905898	0.497399
	N257	N	0.194082	0.079307	0.569878
	N258	N	0.833102	0.078572	0.498080
	N259	N	0.832697	0.905051	0.568914
	N260	N	0.477102	0.172746	0.946889
	N261	N	0.548001	0.170130	0.120256
	N262	N	0.476538	0.810994	0.122326
	N263	N	0.547961	0.813030	0.948794
	N264	N	0.476295	0.903398	0.215747
	N265	N	0.547267	0.077915	0.213538
	N266	N	0.477013	0.080576	0.852823
	N267	N	0.547348	0.905419	0.854985
	N268	N	0.925308	0.173536	0.499455
	N269	N	0.101159	0.173144	0.569653
	N270	N	0.102463	0.810270	0.498289
	N271	N	0.926162	0.810850	0.568597
	N272	N	0.192933	0.456154	0.947062
	N273	N	0.192417	0.527763	0.120424
	N274	N	0.835285	0.456072	0.120066
	N275	N	0.834408	0.528348	0.948255
	O276	O	0.359581	0.435248	0.422197
	H277	H	0.356549	0.445637	0.414237
	H278	H	0.355174	0.460675	0.432760
	O279	O	0.350599	0.678888	0.699297
	H280	H	0.360629	0.675342	0.669962
	H281	H	0.336386	0.678454	0.703587
	O282	O	0.689954	0.682610	0.720541
	H283	H	0.661567	0.679162	0.727938
	H284	H	0.680203	0.698575	0.738228
	O285	O	0.213757	1.191593	0.115213
	H286	H	0.199939	1.192090	0.101898
	H287	H	0.207030	1.211092	0.107490
	O288	O	0.031259	-0.104668	0.241833
	H289	H	0.038664	-0.093187	0.229702
	H290	H	0.036185	-0.088598	0.242895
	O291	O	1.039482	1.063648	0.080731
	H292	H	1.039286	1.051833	0.090877
	H293	H	1.049775	1.062016	0.075087
	O294	O	-0.096470	0.823317	-0.095213
	H295	H	-0.086506	0.840430	-0.083615
	H296	H	-0.085679	0.828991	-0.072384
	O297	O	1.214753	0.797156	-0.167129
	H298	H	1.171968	0.797870	-0.173626
	H299	H	1.216638	0.816743	-0.180186
	O300	O	0.382274	0.398170	0.645640
	H301	H	0.381361	0.392024	0.636889
	H302	H	0.380669	0.418487	0.652011
	O303	O	0.498752	0.564260	0.508719
	H304	H	0.490064	0.571052	0.497963
	H305	H	0.510159	0.569600	0.513088
	O306	O	0.048502	0.780769	0.815416
	H307	H	0.037640	0.768745	0.817363
	H308	H	0.028171	0.774011	0.813309
	O309	O	0.525539	0.524180	0.383101
	H310	H	0.525399	0.545748	0.386419
	H311	H	0.540705	0.527746	0.384234
	O312	O	0.368970	0.276551	0.518304
	H313	H	0.383431	0.288871	0.514702
	H314	H	0.354669	0.271734	0.498983
	O315	O	-0.166766	-0.122722	1.055557
	H316	H	-0.174950	-0.112555	1.051175
	H317	H	-0.167865	-0.111614	1.055978
	O318	O	-1.022978	1.921837	0.031175
	H319	H	-1.020680	1.934202	0.023340
	H320	H	-1.015286	1.922514	0.040706
	O321	O	-0.337187	1.327701	-0.259336
	H322	H	-0.345163	1.345956	-0.286972
	H323	H	-0.354535	1.313246	-0.261003
	O324	O	1.081408	0.206309	1.049759
	H325	H	1.061896	0.202231	1.054607
	H326	H	1.082697	0.210003	1.062716
	O327	O	0.785740	-0.270484	0.662866
	H328	H	0.780258	-0.277149	0.698048
	H329	H	0.811961	-0.241370	0.671007
	O330	O	1.220735	0.016656	-0.066427
	H331	H	1.226186	0.027861	-0.050006
	H332	H	1.231330	0.020583	-0.074544
	O333	O	0.719614	0.477002	0.350211
	H334	H	0.715818	0.477772	0.348257
	H335	H	0.731978	0.485840	0.344074
	O336	O	1.550521	-0.651850	0.576910
	H337	H	1.587829	-0.652088	0.577544
	H338	H	1.544925	-0.644194	0.571319
	O339	O	0.642414	-0.463195	-0.524013
	H340	H	0.659037	-0.460748	-0.528381
	H341	H	0.645288	-0.454781	-0.519126
	O342	O	0.922504	1.106297	0.011062
	H343	H	0.927252	1.109886	0.011536
	H344	H	0.918726	1.113038	0.011824
	O345	O	-0.470522	0.619165	-0.570237
	H346	H	-0.440872	0.627064	-0.553681
	H347	H	-0.475471	0.617167	-0.591354
	O348	O	0.914229	-0.222473	1.179910
	H349	H	0.907716	-0.222730	1.186070
	H350	H	0.918492	-0.219884	1.186564
	O351	O	1.705585	1.630637	-0.554002
	H352	H	1.701063	1.634490	-0.544174
	H353	H	1.713472	1.646883	-0.545796
	O354	O	0.492977	0.457765	0.746864
	H355	H	0.480975	0.439943	0.738608
	H356	H	0.489730	0.444992	0.738353
	O357	O	1.023658	1.199471	1.237816
	H358	H	1.022181	1.210031	1.247188
	H359	H	1.040659	1.194212	1.240391
	O360	O	0.448943	0.295845	0.599212
	H361	H	0.439391	0.290199	0.588382
	H362	H	0.461852	0.286669	0.577816
	O363	O	0.701195	0.536339	0.694728
	H364	H	0.694221	0.542416	0.711357
	H365	H	0.697705	0.553313	0.693887
	O366	O	0.813858	0.181944	1.221942
	H367	H	0.786098	0.191613	1.230205
	H368	H	0.831289	0.180126	1.207430
	O369	O	-0.898094	0.817364	-0.817022
	H370	H	-0.879547	0.807978	-0.798695
	H371	H	-0.920451	0.814176	-0.813822
	O372	O	0.232929	0.774267	0.006325
	H373	H	0.249042	0.754466	-0.003634
	H374	H	0.237340	0.770291	-0.032661
	O375	O	-0.196392	0.996240	1.195157
	H376	H	-0.202467	1.013124	1.199569
	H377	H	-0.195947	0.982494	1.210732
	O378	O	0.315059	0.692209	0.499432
	H379	H	0.303330	0.707627	0.514138
	H380	H	0.328539	0.691275	0.497913
	O381	O	0.799868	0.013826	0.059876
	H382	H	0.802689	0.016064	0.052591
	H383	H	0.796312	0.009423	0.084381
	O384	O	-0.178418	0.208107	2.015207
	H385	H	-0.188978	0.218492	2.001329
	H386	H	-0.186452	0.203257	2.015838
	O387	O	0.095563	1.002149	1.249463
	H388	H	0.110921	0.979303	1.228055
	H389	H	0.112344	1.011489	1.272354
	O390	O	1.104096	0.907451	0.933961
	H391	H	1.122879	0.905763	0.934244
	H392	H	1.118288	0.918662	0.945967
	O393	O	1.444010	0.286152	0.745314
	H394	H	1.433286	0.287676	0.713162
	H395	H	1.449217	0.267883	0.767530
	O396	O	0.332736	0.497595	0.438309
	H397	H	0.338187	0.492374	0.434880
	H398	H	0.320906	0.492725	0.452442
	O399	O	0.451787	0.707456	0.627027
	H400	H	0.459961	0.704596	0.632452
	H401	H	0.454941	0.715008	0.629942
	O402	O	0.071678	0.129603	0.825172
	H403	H	0.055838	0.128739	0.812190
	H404	H	0.076756	0.118212	0.823025
	O405	O	-0.044080	-0.064630	-0.189495
	H406	H	-0.038532	-0.046504	-0.189742
	H407	H	-0.045714	-0.069786	-0.183005
	O408	O	0.192960	0.115537	0.222103
	H409	H	0.201036	0.123958	0.193084
	H410	H	0.204781	0.088067	0.225815
	O411	O	-0.179354	0.796604	0.229820
	H412	H	-0.163685	0.802208	0.218507
	H413	H	-0.174138	0.793541	0.205645
	O414	O	0.725192	0.408649	0.606442
	H415	H	0.726813	0.421709	0.602833
	H416	H	0.721230	0.408201	0.604061
	O417	O	0.882569	0.108242	1.224965
	H418	H	0.881456	0.091929	1.215098
	H419	H	0.901416	0.105157	1.218907
	O420	O	0.494257	0.312284	0.428456
	H421	H	0.497750	0.325829	0.430791
	H422	H	0.515336	0.314834	0.424412
	O423	O	0.133544	1.000146	-0.115297
	H424	H	0.128582	0.998186	-0.116154
	H425	H	0.135829	1.001008	-0.104163
	O426	O	1.388513	1.613110	0.314513
	H427	H	1.355788	1.616694	0.296182
	H428	H	1.400302	1.618942	0.300667
	O429	O	0.731861	0.270402	0.499803
	H430	H	0.757166	0.258904	0.492136
	H431	H	0.740841	0.270688	0.474807
	O432	O	0.542577	0.634272	0.715892
	H433	H	0.533025	0.607369	0.717873
	H434	H	0.533303	0.643497	0.737106
	O435	O	-0.603080	0.456617	0.659370
	H436	H	-0.606010	0.458514	0.657981
	H437	H	-0.611048	0.454974	0.651176
	O438	O	1.301830	0.522168	0.624074
	H439	H	1.306867	0.512616	0.620712
	H440	H	1.297399	0.519015	0.626663
	O441	O	0.230783	-0.070369	0.098508
	H442	H	0.231485	-0.068805	0.083330
	H443	H	0.232439	-0.092083	0.081253
	O444	O	0.838483	0.160298	-0.141922
	H445	H	0.827277	0.172180	-0.149659
	H446	H	0.851559	0.171328	-0.136954
	O447	O	0.525633	0.532616	0.320598
	H448	H	0.519314	0.548137	0.316369
	H449	H	0.524865	0.532040	0.309911
	O450	O	0.320201	0.654641	0.355953
	H451	H	0.330687	0.660773	0.371369
	H452	H	0.305823	0.621740	0.349994
	O453	O	0.505876	0.428679	0.679748
	H454	H	0.508813	0.439460	0.662987
	H455	H	0.517219	0.411017	0.678854
	O456	O	0.631554	0.292587	0.331616
	H457	H	0.612224	0.287710	0.332979
	H458	H	0.625294	0.306878	0.341087
	O459	O	0.053273	-0.102627	-0.014243
	H460	H	0.043937	-0.099891	-0.004272
	H461	H	0.058801	-0.084754	-0.002230
	O462	O	1.024780	0.200341	-0.122150
	H463	H	1.019780	0.194227	-0.135712
	H464	H	1.004423	0.204814	-0.127458
	O465	O	0.807307	0.021673	-0.174527
	H466	H	0.810140	0.040628	-0.170336
	H467	H	0.790631	0.027416	-0.192593
