data_Molecule from HDF5

_cell_length_a		16.125117
_cell_length_b		16.349424
_cell_length_c		16.286679
_cell_angle_alpha	89.545224
_cell_angle_beta	89.909191
_cell_angle_gamma	89.654838
_symmetry_space_group_name_H-M	'P 1'
_symmetry_Int_Tables_number		1

loop_
	_symmetry_equiv_pos_as_xyz
	x,y,z

loop_
	_atom_site_label
	_atom_site_type_symbol
	_atom_site_fract_x
	_atom_site_fract_y
	_atom_site_fract_z
	H0	H	0.392374	0.837920	0.718701
	H1	H	0.591856	0.162812	0.716218
	H2	H	0.593451	0.836008	0.285293
	H3	H	0.390178	0.161583	0.281730
	H4	H	0.707091	0.402586	0.837622
	H5	H	0.703800	0.593787	0.166295
	H6	H	0.277845	0.599044	0.837935
	H7	H	0.279594	0.401513	0.165127
	H8	H	0.828150	0.718547	0.401446
	H9	H	0.157011	0.713296	0.600077
	H10	H	0.828638	0.284473	0.604094
	H11	H	0.156826	0.286522	0.403830
	H12	H	0.827708	0.401296	0.717256
	H13	H	0.158033	0.597775	0.714361
	H14	H	0.826905	0.602135	0.286773
	H15	H	0.157261	0.402105	0.289220
	H16	H	0.388384	0.719931	0.840020
	H17	H	0.592550	0.714031	0.164574
	H18	H	0.593304	0.285114	0.836786
	H19	H	0.390381	0.280836	0.162420
	H20	H	0.710282	0.836556	0.402675
	H21	H	0.704524	0.164701	0.595679
	H22	H	0.279405	0.836283	0.599705
	H23	H	0.277470	0.163816	0.402115
	H24	H	0.891105	0.338009	0.221677
	H25	H	0.090560	0.663789	0.215624
	H26	H	0.094090	0.337853	0.786473
	H27	H	0.889958	0.662821	0.784338
	H28	H	0.205052	0.905371	0.336472
	H29	H	0.204640	0.094603	0.665499
	H30	H	0.779604	0.100617	0.336228
	H31	H	0.779256	0.903699	0.665484
	H32	H	0.328745	0.217254	0.897330
	H33	H	0.656909	0.210439	0.097541
	H34	H	0.327121	0.785670	0.102023
	H35	H	0.655736	0.782196	0.900588
	H36	H	0.327189	0.900110	0.215896
	H37	H	0.656194	0.096099	0.213311
	H38	H	0.326805	0.098665	0.786827
	H39	H	0.657629	0.899856	0.786737
	H40	H	0.891214	0.220736	0.338993
	H41	H	0.092415	0.213580	0.664477
	H42	H	0.094540	0.784319	0.338503
	H43	H	0.891020	0.783032	0.664764
	H44	H	0.207438	0.336855	0.904571
	H45	H	0.206162	0.663301	0.098522
	H46	H	0.777099	0.335639	0.103230
	H47	H	0.775038	0.663100	0.903554
	H48	H	0.404781	0.111892	0.587900
	H49	H	0.579086	0.886842	0.593690
	H50	H	0.570724	0.113039	0.398257
	H51	H	0.396227	0.881958	0.406008
	H52	H	0.586699	0.409852	0.116154
	H53	H	0.583737	0.586399	0.886826
	H54	H	0.394278	0.589354	0.118347
	H55	H	0.402982	0.398900	0.882586
	H56	H	0.108143	0.598294	0.419111
	H57	H	0.879632	0.585366	0.588204
	H58	H	0.109623	0.405426	0.591796
	H59	H	0.878835	0.415215	0.419144
	H60	H	0.109323	0.408984	0.595796
	H61	H	0.872471	0.591607	0.602533
	H62	H	0.106170	0.581054	0.407602
	H63	H	0.874040	0.414909	0.404172
	H64	H	0.403367	0.590797	0.116379
	H65	H	0.576810	0.593950	0.887538
	H66	H	0.574696	0.401165	0.115236
	H67	H	0.390973	0.409363	0.881783
	H68	H	0.586281	0.111299	0.419387
	H69	H	0.589503	0.885413	0.589427
	H70	H	0.389710	0.118123	0.590170
	H71	H	0.403242	0.883969	0.405183
	H72	H	0.907432	0.613812	0.101225
	H73	H	0.080519	0.385395	0.098459
	H74	H	0.082763	0.617340	0.903279
	H75	H	0.894813	0.383375	0.913361
	H76	H	0.079007	0.909453	0.614666
	H77	H	0.088811	0.098371	0.382409
	H78	H	0.903441	0.095271	0.617233
	H79	H	0.907662	0.907314	0.386383
	H80	H	0.610976	0.091915	0.903200
	H81	H	0.374361	0.085254	0.096752
	H82	H	0.609388	0.896902	0.082966
	H83	H	0.375974	0.912085	0.910318
	H84	H	0.604196	0.916900	0.089428
	H85	H	0.370799	0.099880	0.093412
	H86	H	0.610235	0.095040	0.909479
	H87	H	0.374423	0.909423	0.905774
	H88	H	0.895588	0.096107	0.619611
	H89	H	0.085084	0.090244	0.386121
	H90	H	0.084161	0.897904	0.619819
	H91	H	0.898471	0.906185	0.383437
	H92	H	0.080114	0.615201	0.909619
	H93	H	0.086278	0.385100	0.093171
	H94	H	0.898733	0.611429	0.082869
	H95	H	0.900751	0.382137	0.902834
	H96	H	0.400316	0.117907	0.602811
	H97	H	0.588306	0.882318	0.599683
	H98	H	0.595312	0.120963	0.396299
	H99	H	0.400506	0.885615	0.411548
	H100	H	0.587522	0.395223	0.120236
	H101	H	0.586101	0.595851	0.884024
	H102	H	0.397964	0.597827	0.120202
	H103	H	0.405366	0.413894	0.887410
	H104	H	0.114418	0.598298	0.398673
	H105	H	0.873463	0.601011	0.588445
	H106	H	0.111836	0.403437	0.596574
	H107	H	0.872854	0.402147	0.413799
	H108	H	0.887699	0.619872	0.098807
	H109	H	0.088238	0.382595	0.100643
	H110	H	0.087176	0.616610	0.908590
	H111	H	0.906180	0.387705	0.911599
	H112	H	0.092354	0.907705	0.618717
	H113	H	0.079272	0.097445	0.385382
	H114	H	0.897743	0.089707	0.615808
	H115	H	0.901302	0.914414	0.386711
	H116	H	0.608112	0.087990	0.908354
	H117	H	0.377146	0.089763	0.082978
	H118	H	0.613413	0.902544	0.103177
	H119	H	0.374712	0.906121	0.910508
	C120	C	0.370118	0.008476	0.622823
	C121	C	0.613738	0.992489	0.622097
	C122	C	0.614668	0.007532	0.376883
	C123	C	0.370144	0.991281	0.378150
	C124	C	0.613719	0.375773	0.009195
	C125	C	0.611884	0.619984	0.993900
	C126	C	0.369648	0.622110	0.010175
	C127	C	0.370720	0.377957	0.991797
	C128	C	0.000800	0.622586	0.379494
	C129	C	0.984133	0.620547	0.621909
	C130	C	0.001206	0.377618	0.624248
	C131	C	0.983816	0.380858	0.382491
	C132	C	0.869398	0.507542	0.124384
	C133	C	0.113707	0.492222	0.124443
	C134	C	0.113310	0.508349	0.879496
	C135	C	0.869827	0.491734	0.879742
	C136	C	0.114494	0.877665	0.509630
	C137	C	0.113140	0.121869	0.492795
	C138	C	0.870596	0.123403	0.509410
	C139	C	0.872083	0.879405	0.493185
	C140	C	0.500945	0.121091	0.878271
	C141	C	0.483081	0.119474	0.120207
	C142	C	0.500287	0.877332	0.121888
	C143	C	0.483630	0.878573	0.879725
	C144	C	0.372444	0.886262	0.679707
	C145	C	0.611299	0.114774	0.677123
	C146	C	0.613292	0.884540	0.323179
	C147	C	0.371012	0.113411	0.321176
	C148	C	0.669647	0.380805	0.886430
	C149	C	0.666793	0.615620	0.117070
	C150	C	0.314662	0.620178	0.887001
	C151	C	0.316339	0.380131	0.115594
	C152	C	0.877005	0.679935	0.381119
	C153	C	0.108221	0.675357	0.620290
	C154	C	0.877514	0.322634	0.623230
	C155	C	0.107799	0.324686	0.383631
	C156	C	0.877213	0.380858	0.679475
	C157	C	0.108418	0.617967	0.677070
	C158	C	0.876414	0.621983	0.324307
	C159	C	0.107791	0.381925	0.326699
	C160	C	0.369536	0.680232	0.888101
	C161	C	0.611313	0.675326	0.116171
	C162	C	0.613164	0.322360	0.885863
	C163	C	0.371845	0.320364	0.114179
	C164	C	0.671387	0.885083	0.381388
	C165	C	0.667354	0.115646	0.617341
	C166	C	0.316505	0.885304	0.620234
	C167	C	0.314913	0.114537	0.381124
	C168	C	0.871310	0.385965	0.182301
	C169	C	0.111383	0.614696	0.178700
	C170	C	0.113174	0.386288	0.824794
	C171	C	0.870332	0.614204	0.823166
	C172	C	0.168829	0.882885	0.386062
	C173	C	0.167547	0.116598	0.616372
	C174	C	0.816267	0.121516	0.385689
	C175	C	0.816306	0.882147	0.616373
	C176	C	0.377335	0.177999	0.878730
	C177	C	0.607404	0.173395	0.118011
	C178	C	0.376221	0.822963	0.121294
	C179	C	0.607133	0.821296	0.881040
	C180	C	0.376398	0.879902	0.178073
	C181	C	0.607240	0.116105	0.175313
	C182	C	0.376547	0.119242	0.823516
	C183	C	0.607865	0.879579	0.824165
	C184	C	0.871701	0.181140	0.387029
	C185	C	0.112167	0.175958	0.615742
	C186	C	0.113552	0.822907	0.386882
	C187	C	0.872232	0.822347	0.615939
	C188	C	0.169689	0.385860	0.883471
	C189	C	0.168554	0.614764	0.120028
	C190	C	0.814745	0.384779	0.123237
	C191	C	0.813146	0.614435	0.882394
	C192	C	0.391736	0.093871	0.600336
	C193	C	0.591908	0.906979	0.600682
	C194	C	0.591167	0.092880	0.398202
	C195	C	0.393192	0.905859	0.400839
	C196	C	0.590003	0.396205	0.094994
	C197	C	0.589025	0.598351	0.908212
	C198	C	0.392034	0.599347	0.096106
	C199	C	0.393148	0.400769	0.906064
	C200	C	0.087012	0.599397	0.401816
	C201	C	0.897660	0.598985	0.599520
	C202	C	0.087691	0.399584	0.601257
	C203	C	0.897604	0.403997	0.405526
	C204	C	0.891446	0.592864	0.100890
	C205	C	0.091581	0.406485	0.103358
	C206	C	0.090149	0.594084	0.900794
	C207	C	0.893581	0.406577	0.902483
	C208	C	0.091783	0.898745	0.595476
	C209	C	0.090724	0.101341	0.406740
	C210	C	0.892580	0.100448	0.595202
	C211	C	0.895809	0.902466	0.407593
	C212	C	0.587504	0.098268	0.900526
	C213	C	0.396598	0.097977	0.097719
	C214	C	0.586690	0.899142	0.098680
	C215	C	0.397292	0.902297	0.902129
	Zn216	Zn	0.492207	0.000126	0.751452
	Zn217	Zn	0.491553	-0.001691	0.248416
	Zn218	Zn	0.740666	0.498874	0.002509
	Zn219	Zn	0.242081	0.500178	0.001516
	Zn220	Zn	-0.007260	0.749315	0.501698
	Zn221	Zn	-0.007621	0.251119	0.501787
	Zn222	Zn	-0.007384	0.500294	0.750384
	Zn223	Zn	-0.008688	0.500493	0.253120
	Zn224	Zn	0.491313	0.749778	0.001568
	Zn225	Zn	0.491948	0.248108	-0.000875
	Zn226	Zn	0.743291	0.000960	0.500061
	Zn227	Zn	0.241457	0.000170	0.500948
	N228	N	0.405259	0.963637	0.681219
	N229	N	0.578900	0.037092	0.680336
	N230	N	0.578777	0.961762	0.320202
	N231	N	0.404678	0.035970	0.319282
	N232	N	0.670380	0.412888	0.964182
	N233	N	0.667009	0.581907	0.040065
	N234	N	0.314600	0.584777	0.963851
	N235	N	0.315234	0.415124	0.038608
	N236	N	0.955164	0.680524	0.414660
	N237	N	0.030064	0.676857	0.586284
	N238	N	0.955782	0.320572	0.589658
	N239	N	0.029801	0.323905	0.417667
	N240	N	0.955215	0.414325	0.680239
	N241	N	0.030275	0.584790	0.678261
	N242	N	0.954222	0.587117	0.323083
	N243	N	0.029607	0.416371	0.325938
	N244	N	0.403015	0.681480	0.965688
	N245	N	0.577940	0.678209	0.038308
	N246	N	0.579014	0.319042	0.963353
	N247	N	0.404810	0.318786	0.036103
	N248	N	0.672270	0.962533	0.413960
	N249	N	0.669161	0.038557	0.583931
	N250	N	0.314717	0.962224	0.585595
	N251	N	0.314264	0.037531	0.415736
	N252	N	0.904445	0.463359	0.183187
	N253	N	0.078012	0.537464	0.181591
	N254	N	0.078871	0.463434	0.822279
	N255	N	0.904752	0.536967	0.821366
	N256	N	0.169682	0.915838	0.463372
	N257	N	0.168607	0.083901	0.538739
	N258	N	0.815162	0.086433	0.462757
	N259	N	0.815967	0.916631	0.538983
	N260	N	0.455638	0.179353	0.911905
	N261	N	0.529237	0.175421	0.084126
	N262	N	0.454316	0.821280	0.087153
	N263	N	0.528847	0.820393	0.914542
	N264	N	0.454619	0.913092	0.178477
	N265	N	0.529013	0.083363	0.176793
	N266	N	0.454508	0.084525	0.823034
	N267	N	0.529941	0.914499	0.823202
	N268	N	0.904424	0.182539	0.464965
	N269	N	0.078686	0.179207	0.538040
	N270	N	0.080532	0.819468	0.464894
	N271	N	0.906001	0.820458	0.538261
	N272	N	0.169659	0.462883	0.917096
	N273	N	0.170041	0.537503	0.087076
	N274	N	0.813411	0.461462	0.087976
	N275	N	0.812546	0.537247	0.916732
	O276	O	-0.001199	-0.009273	0.024964
	H277	H	-0.004273	-0.014812	0.037444
	H278	H	-0.004466	-0.009980	0.020167
	O279	O	0.518852	0.543987	0.361986
	H280	H	0.512649	0.539939	0.366675
	H281	H	0.522791	0.538974	0.359504
	O282	O	0.433234	0.459045	0.474172
	H283	H	0.425880	0.472038	0.473815
	H284	H	0.438117	0.463566	0.466847
	O285	O	-0.093325	0.871000	0.996712
	H286	H	-0.078612	0.871974	1.001605
	H287	H	-0.100685	0.861594	0.999550
	O288	O	0.447068	0.506717	0.544714
	H289	H	0.452218	0.512702	0.549227
	H290	H	0.453450	0.504349	0.540742
	O291	O	1.030910	0.961859	0.998773
	H292	H	1.041388	0.961086	0.998223
	H293	H	1.014485	0.960082	1.005700
	O294	O	1.004556	1.116680	0.928023
	H295	H	1.014752	1.122178	0.926698
	H296	H	0.999181	1.106132	0.930320
	O297	O	0.951089	-0.074684	1.112270
	H298	H	0.958323	-0.071348	1.115685
	H299	H	0.938241	-0.063121	1.121807
	O300	O	0.531965	0.497820	0.513466
	H301	H	0.536553	0.515355	0.528562
	H302	H	0.523328	0.498241	0.513435
	O303	O	1.013579	0.023077	0.043142
	H304	H	0.999177	0.019579	0.032997
	H305	H	1.012623	0.028725	0.032977
	O306	O	-0.008360	1.051829	1.026577
	H307	H	-0.008174	1.066577	1.031246
	H308	H	-0.006947	1.046459	1.026217
	O309	O	0.557128	0.545846	0.459343
	H310	H	0.568322	0.540038	0.475523
	H311	H	0.567370	0.539510	0.469048
	O312	O	1.019094	-0.037816	0.992181
	H313	H	1.026923	-0.034153	0.991187
	H314	H	1.008578	-0.027672	1.003295
	O315	O	0.563152	0.432280	0.492731
	H316	H	0.556953	0.430913	0.489832
	H317	H	0.570174	0.425986	0.498959
	O318	O	0.412301	0.578453	0.520622
	H319	H	0.413574	0.571483	0.519648
	H320	H	0.407763	0.583429	0.518297
	O321	O	0.885619	1.130066	0.894509
	H322	H	0.886951	1.130753	0.890320
	H323	H	0.877195	1.134205	0.890288
	O324	O	0.536716	0.589148	0.505563
	H325	H	0.532082	0.595501	0.502054
	H326	H	0.531211	0.589996	0.495495
	O327	O	0.482604	0.579878	0.529360
	H328	H	0.483494	0.587097	0.532002
	H329	H	0.477725	0.571917	0.536573
	O330	O	0.931310	0.017296	1.054991
	H331	H	0.931602	0.022910	1.051040
	H332	H	0.929779	0.020202	1.051132
	O333	O	0.963797	1.038655	-0.060523
	H334	H	0.965456	1.038482	-0.067977
	H335	H	0.958802	1.030050	-0.055040
	O336	O	0.641339	0.519453	0.636898
	H337	H	0.636393	0.517555	0.634946
	H338	H	0.644925	0.519156	0.655200
	O339	O	0.525223	0.535165	0.601535
	H340	H	0.510062	0.531752	0.609841
	H341	H	0.532518	0.537197	0.607742
	O342	O	0.047009	1.004809	0.069193
	H343	H	0.053859	1.003502	0.081363
	H344	H	0.046474	1.012762	0.063010
	O345	O	-0.033888	0.000402	-0.078963
	H346	H	-0.022651	-0.001173	-0.086928
	H347	H	-0.041974	-0.000777	-0.076241
	O348	O	0.452802	0.432968	0.515652
	H349	H	0.458832	0.429045	0.505780
	H350	H	0.448937	0.426911	0.507657
	O351	O	0.510954	0.537224	0.545550
	H352	H	0.508156	0.532027	0.539527
	H353	H	0.504130	0.540967	0.541886
	O354	O	0.858374	1.039996	-0.034092
	H355	H	0.859067	1.038883	-0.031808
	H356	H	0.863631	1.041751	-0.032743
	O357	O	-0.000233	0.021937	1.051693
	H358	H	0.003682	0.025593	1.051179
	H359	H	0.006503	0.026666	1.058567
	O360	O	0.050168	0.043824	-0.027755
	H361	H	0.043994	0.037427	-0.031040
	H362	H	0.053017	0.037870	-0.034256
	O363	O	0.494644	0.530313	0.460075
	H364	H	0.501214	0.534245	0.465769
	H365	H	0.498333	0.537254	0.452150
	O366	O	-0.085517	-0.100929	1.104835
	H367	H	-0.084829	-0.120811	1.119144
	H368	H	-0.089859	-0.106356	1.095184
	O369	O	1.546293	0.466606	-0.553699
	H370	H	1.541652	0.462137	-0.560193
	H371	H	1.555697	0.475868	-0.559572
