data_Molecule from HDF5

_cell_length_a		16.349277
_cell_length_b		16.285340
_cell_length_c		16.389678
_cell_angle_alpha	89.946480
_cell_angle_beta	90.353239
_cell_angle_gamma	89.994546
_symmetry_space_group_name_H-M	'P 1'
_symmetry_Int_Tables_number		1

loop_
	_symmetry_equiv_pos_as_xyz
	x,y,z

loop_
	_atom_site_label
	_atom_site_type_symbol
	_atom_site_fract_x
	_atom_site_fract_y
	_atom_site_fract_z
	H0	H	0.380173	0.817320	0.718920
	H1	H	0.591043	0.138095	0.720153
	H2	H	0.584829	0.814180	0.285542
	H3	H	0.383272	0.138664	0.280348
	H4	H	0.704539	0.370126	0.839527
	H5	H	0.705806	0.580425	0.159176
	H6	H	0.263067	0.581103	0.840376
	H7	H	0.268999	0.375225	0.161624
	H8	H	0.822737	0.695792	0.395715
	H9	H	0.146311	0.694643	0.600448
	H10	H	0.822985	0.259899	0.599329
	H11	H	0.145985	0.259991	0.397937
	H12	H	0.824617	0.371431	0.718965
	H13	H	0.143942	0.582562	0.719966
	H14	H	0.823352	0.581324	0.277417
	H15	H	0.145999	0.376532	0.282065
	H16	H	0.380896	0.695682	0.839942
	H17	H	0.587059	0.693511	0.161029
	H18	H	0.587253	0.255728	0.839849
	H19	H	0.385243	0.260158	0.161490
	H20	H	0.701561	0.815292	0.399261
	H21	H	0.703429	0.138852	0.601592
	H22	H	0.266343	0.817029	0.600736
	H23	H	0.266751	0.139135	0.394715
	H24	H	0.880097	0.316306	0.217919
	H25	H	0.086219	0.637956	0.216795
	H26	H	0.087206	0.315612	0.780567
	H27	H	0.876879	0.637533	0.777445
	H28	H	0.202055	0.875301	0.338128
	H29	H	0.206074	0.083195	0.658397
	H30	H	0.763262	0.080783	0.339309
	H31	H	0.767381	0.874956	0.660292
	H32	H	0.323997	0.195278	0.896740
	H33	H	0.645924	0.196560	0.104439
	H34	H	0.323870	0.759598	0.099595
	H35	H	0.645897	0.757893	0.898183
	H36	H	0.323965	0.874088	0.216642
	H37	H	0.646598	0.078603	0.219080
	H38	H	0.325661	0.082442	0.778052
	H39	H	0.645318	0.872161	0.780588
	H40	H	0.879671	0.196742	0.338370
	H41	H	0.087624	0.196335	0.659755
	H42	H	0.084811	0.759893	0.337825
	H43	H	0.880939	0.756999	0.659201
	H44	H	0.202359	0.315202	0.898095
	H45	H	0.203400	0.637879	0.104290
	H46	H	0.766457	0.315123	0.101409
	H47	H	0.762791	0.636757	0.893728
	H48	H	0.396333	0.091820	0.587457
	H49	H	0.577971	0.860287	0.595015
	H50	H	0.574486	0.091427	0.410882
	H51	H	0.393030	0.859868	0.399035
	H52	H	0.579859	0.387666	0.113210
	H53	H	0.573333	0.574398	0.883948
	H54	H	0.398851	0.567092	0.113242
	H55	H	0.394770	0.383702	0.885157
	H56	H	0.098146	0.577747	0.416856
	H57	H	0.869932	0.570582	0.584625
	H58	H	0.099232	0.385136	0.588213
	H59	H	0.869872	0.385952	0.405170
	H60	H	0.096644	0.391195	0.587702
	H61	H	0.871623	0.562065	0.586928
	H62	H	0.093674	0.556177	0.410892
	H63	H	0.869551	0.386865	0.408264
	H64	H	0.391890	0.572935	0.116894
	H65	H	0.579484	0.560688	0.884957
	H66	H	0.574242	0.389084	0.111638
	H67	H	0.388231	0.386365	0.884279
	H68	H	0.576933	0.093102	0.408181
	H69	H	0.570000	0.864332	0.590969
	H70	H	0.395601	0.093101	0.589208
	H71	H	0.401123	0.865267	0.412270
	H72	H	0.896352	0.589422	0.083779
	H73	H	0.075514	0.362235	0.087325
	H74	H	0.081930	0.593625	0.911986
	H75	H	0.899853	0.364092	0.909174
	H76	H	0.073664	0.882781	0.613133
	H77	H	0.072582	0.062393	0.386960
	H78	H	0.895113	0.067429	0.613157
	H79	H	0.900454	0.889546	0.388647
	H80	H	0.596994	0.061339	0.912462
	H81	H	0.371073	0.065528	0.093364
	H82	H	0.601471	0.888949	0.099348
	H83	H	0.367461	0.873610	0.911712
	H84	H	0.602329	0.877695	0.092986
	H85	H	0.369345	0.071173	0.089893
	H86	H	0.600344	0.066488	0.906267
	H87	H	0.376647	0.895452	0.918062
	H88	H	0.896041	0.068971	0.613073
	H89	H	0.070610	0.074101	0.383751
	H90	H	0.080576	0.888697	0.614040
	H91	H	0.891089	0.879979	0.382230
	H92	H	0.070037	0.593068	0.901683
	H93	H	0.079833	0.359107	0.092813
	H94	H	0.891114	0.593262	0.088698
	H95	H	0.893236	0.362699	0.912435
	H96	H	0.397896	0.092030	0.589147
	H97	H	0.577937	0.863078	0.585175
	H98	H	0.572830	0.093157	0.406502
	H99	H	0.384733	0.860573	0.413620
	H100	H	0.575182	0.384154	0.114112
	H101	H	0.565540	0.562896	0.889607
	H102	H	0.390005	0.563803	0.115030
	H103	H	0.393820	0.390272	0.887195
	H104	H	0.103811	0.570755	0.395830
	H105	H	0.867960	0.567279	0.592349
	H106	H	0.099554	0.389219	0.593432
	H107	H	0.869355	0.388883	0.406177
	H108	H	0.898498	0.591589	0.091096
	H109	H	0.072651	0.361325	0.094229
	H110	H	0.067920	0.586652	0.916324
	H111	H	0.894152	0.361103	0.905329
	H112	H	0.072007	0.891374	0.610920
	H113	H	0.081970	0.069516	0.382231
	H114	H	0.894237	0.068877	0.612991
	H115	H	0.886737	0.893873	0.385034
	H116	H	0.599470	0.069876	0.914524
	H117	H	0.373461	0.065680	0.086939
	H118	H	0.597561	0.888522	0.087395
	H119	H	0.368053	0.892120	0.895716
	C120	C	0.364479	-0.013684	0.620026
	C121	C	0.606720	0.968946	0.621580
	C122	C	0.605590	-0.014534	0.378722
	C123	C	0.362806	0.968513	0.377000
	C124	C	0.606737	0.354958	0.007642
	C125	C	0.605489	0.597207	0.991807
	C126	C	0.362049	0.598968	0.009074
	C127	C	0.362874	0.355899	0.991943
	C128	C	-0.007694	0.599566	0.376080
	C129	C	0.975823	0.598651	0.620226
	C130	C	-0.007523	0.356511	0.620216
	C131	C	0.976097	0.356428	0.376756
	C132	C	0.863845	0.485208	0.119138
	C133	C	0.106199	0.468099	0.121473
	C134	C	0.104989	0.484971	0.878989
	C135	C	0.862382	0.468082	0.876400
	C136	C	0.105526	0.856720	0.506656
	C137	C	0.106503	0.099826	0.490398
	C138	C	0.862983	0.099350	0.507252
	C139	C	0.862611	0.856074	0.490939
	C140	C	0.493469	0.098311	0.878643
	C141	C	0.477335	0.098149	0.121698
	C142	C	0.493857	0.854951	0.122417
	C143	C	0.476559	0.855289	0.878034
	C144	C	0.362427	0.865462	0.679084
	C145	C	0.608662	0.090001	0.680216
	C146	C	0.605223	0.863279	0.322680
	C147	C	0.363188	0.090133	0.319162
	C148	C	0.665061	0.352414	0.887437
	C149	C	0.665793	0.598823	0.111610
	C150	C	0.302906	0.599855	0.888388
	C151	C	0.306950	0.355793	0.113391
	C152	C	0.871075	0.657331	0.375713
	C153	C	0.097274	0.656550	0.620455
	C154	C	0.871491	0.298038	0.619589
	C155	C	0.097609	0.298733	0.377960
	C156	C	0.872274	0.353860	0.679068
	C157	C	0.096133	0.600933	0.680110
	C158	C	0.871602	0.599993	0.317094
	C159	C	0.097612	0.356715	0.320448
	C160	C	0.361333	0.656973	0.888188
	C161	C	0.606683	0.655357	0.112542
	C162	C	0.606905	0.295130	0.887583
	C163	C	0.364809	0.298363	0.113046
	C164	C	0.663218	0.863893	0.379474
	C165	C	0.665071	0.090392	0.621561
	C166	C	0.305390	0.865397	0.620442
	C167	C	0.305208	0.090444	0.375922
	C168	C	0.861811	0.364200	0.178350
	C169	C	0.105715	0.589753	0.178371
	C170	C	0.106044	0.363774	0.820021
	C171	C	0.859266	0.588958	0.816833
	C172	C	0.162926	0.856214	0.386224
	C173	C	0.165981	0.101218	0.610674
	C174	C	0.802909	0.099992	0.387178
	C175	C	0.805953	0.855837	0.612164
	C176	C	0.372482	0.156480	0.877567
	C177	C	0.597885	0.156874	0.122896
	C178	C	0.372358	0.797995	0.120339
	C179	C	0.597561	0.796612	0.878671
	C180	C	0.372326	0.855169	0.178417
	C181	C	0.598242	0.098291	0.180168
	C182	C	0.373307	0.100443	0.818394
	C183	C	0.597188	0.853664	0.819961
	C184	C	0.861055	0.157510	0.386557
	C185	C	0.107021	0.157657	0.611317
	C186	C	0.104557	0.798906	0.386035
	C187	C	0.862287	0.796819	0.611464
	C188	C	0.163058	0.363433	0.878925
	C189	C	0.164080	0.589436	0.122198
	C190	C	0.805400	0.363769	0.120362
	C191	C	0.802347	0.588709	0.874823
	C192	C	0.389357	0.070610	0.595673
	C193	C	0.582369	0.884435	0.597419
	C194	C	0.581796	0.070505	0.401768
	C195	C	0.386205	0.883835	0.401170
	C196	C	0.583332	0.379888	0.091272
	C197	C	0.580233	0.573028	0.907994
	C198	C	0.386509	0.574916	0.093083
	C199	C	0.385461	0.379931	0.907577
	C200	C	0.076626	0.575383	0.400696
	C201	C	0.891803	0.573971	0.595248
	C202	C	0.076465	0.381361	0.596564
	C203	C	0.891685	0.380262	0.399776
	C204	C	0.888223	0.569521	0.094804
	C205	C	0.082774	0.383010	0.098081
	C206	C	0.080362	0.569357	0.902997
	C207	C	0.888238	0.384461	0.901675
	C208	C	0.082160	0.880538	0.590896
	C209	C	0.082098	0.075524	0.406105
	C210	C	0.887914	0.075460	0.591242
	C211	C	0.886048	0.880561	0.407180
	C212	C	0.577223	0.073252	0.903717
	C213	C	0.392923	0.074147	0.097295
	C214	C	0.578468	0.878255	0.099725
	C215	C	0.392564	0.879836	0.901577
	Zn216	Zn	0.485779	-0.022328	0.749558
	Zn217	Zn	0.485176	-0.023717	0.250286
	Zn218	Zn	0.735335	0.476203	-0.001150
	Zn219	Zn	0.233786	0.476487	0.000535
	Zn220	Zn	-0.016103	0.727275	0.499052
	Zn221	Zn	-0.015594	0.228041	0.498726
	Zn222	Zn	-0.015691	0.477440	0.748838
	Zn223	Zn	-0.016072	0.476878	0.247751
	Zn224	Zn	0.484947	0.727070	0.000004
	Zn225	Zn	0.484799	0.227098	-0.000249
	Zn226	Zn	0.733920	-0.022924	0.499882
	Zn227	Zn	0.235090	-0.021451	0.498160
	N228	N	0.398476	0.941638	0.678871
	N229	N	0.573228	0.013504	0.680392
	N230	N	0.570185	0.939988	0.322129
	N231	N	0.397993	0.013361	0.319512
	N232	N	0.665171	0.388835	0.963019
	N233	N	0.665021	0.563486	0.035503
	N234	N	0.302926	0.564789	0.964709
	N235	N	0.305496	0.390837	0.036995
	N236	N	0.947026	0.656980	0.411822
	N237	N	0.021230	0.655471	0.584085
	N238	N	0.947285	0.299484	0.583613
	N239	N	0.020989	0.298191	0.411994
	N240	N	0.948321	0.389711	0.679359
	N241	N	0.019626	0.566001	0.680265
	N242	N	0.948157	0.564844	0.317270
	N243	N	0.020992	0.391442	0.319335
	N244	N	0.397239	0.656843	0.964191
	N245	N	0.569859	0.654579	0.036888
	N246	N	0.571557	0.296514	0.963323
	N247	N	0.398747	0.298268	0.036520
	N248	N	0.663656	0.940974	0.413586
	N249	N	0.663989	0.014102	0.585845
	N250	N	0.306350	0.941649	0.584551
	N251	N	0.304694	0.013732	0.411266
	N252	N	0.897381	0.440656	0.178041
	N253	N	0.070566	0.513192	0.178172
	N254	N	0.070596	0.440438	0.820076
	N255	N	0.895928	0.512964	0.817703
	N256	N	0.163719	0.891468	0.462311
	N257	N	0.165886	0.066105	0.534291
	N258	N	0.803740	0.064686	0.463451
	N259	N	0.805800	0.891802	0.536265
	N260	N	0.448159	0.155163	0.914434
	N261	N	0.521582	0.156757	0.086964
	N262	N	0.448845	0.797794	0.086101
	N263	N	0.521589	0.797605	0.913992
	N264	N	0.448914	0.889939	0.179764
	N265	N	0.522255	0.062454	0.179306
	N266	N	0.449682	0.064968	0.818956
	N267	N	0.520998	0.889530	0.819525
	N268	N	0.897912	0.156990	0.462076
	N269	N	0.070809	0.156881	0.535393
	N270	N	0.069450	0.799241	0.462077
	N271	N	0.896790	0.796849	0.535245
	N272	N	0.162558	0.439760	0.914767
	N273	N	0.164491	0.512560	0.087538
	N274	N	0.806599	0.440007	0.084251
	N275	N	0.803970	0.512586	0.910920
	O276	O	0.566602	0.526385	0.689488
	H277	H	0.560375	0.521526	0.686030
	H278	H	0.559517	0.516931	0.686586
	O279	O	0.456539	0.583864	0.520254
	H280	H	0.460869	0.573779	0.507183
	H281	H	0.461922	0.588676	0.510914
	O282	O	0.942296	0.062627	0.981453
	H283	H	0.928081	0.058538	0.988660
	H284	H	0.935822	0.063416	0.977764
	O285	O	0.572453	0.556743	0.412007
	H286	H	0.572934	0.568436	0.427576
	H287	H	0.581845	0.551131	0.416609
	O288	O	0.995651	1.009059	1.029461
	H289	H	0.991022	1.023258	1.029095
	H290	H	0.999161	1.010268	1.023270
	O291	O	0.080085	1.066645	0.136171
	H292	H	0.081899	1.054024	0.139758
	H293	H	0.082486	1.067064	0.129523
	O294	O	0.336535	0.438486	0.619132
	H295	H	0.333355	0.448041	0.614403
	H296	H	0.336771	0.438548	0.631950
	O297	O	0.350098	0.542643	0.576046
	H298	H	0.349830	0.539696	0.565351
	H299	H	0.346003	0.559735	0.573837
	O300	O	0.477974	0.432546	0.435329
	H301	H	0.474286	0.418678	0.437980
	H302	H	0.478341	0.438587	0.440259
	O303	O	0.381071	0.512838	0.404395
	H304	H	0.381687	0.509275	0.387247
	H305	H	0.368755	0.505956	0.391843
	O306	O	0.407569	0.507805	0.428316
	H307	H	0.424182	0.502376	0.426620
	H308	H	0.406690	0.503623	0.412443
	O309	O	0.845810	0.940460	0.074965
	H310	H	0.852810	0.948060	0.090784
	H311	H	0.836832	0.941698	0.078328
	O312	O	-0.066217	-0.091378	-0.172666
	H313	H	-0.067350	-0.098848	-0.177456
	H314	H	-0.062865	-0.091900	-0.165165
	O315	O	0.316038	0.615942	0.358031
	H316	H	0.315744	0.596163	0.355747
	H317	H	0.307192	0.622349	0.347175
	O318	O	-0.034152	0.864455	1.064139
	H319	H	-0.012960	0.872558	1.066023
	H320	H	-0.040151	0.874350	1.056623
	O321	O	0.649384	0.482473	0.586191
	H322	H	0.654812	0.488110	0.607525
	H323	H	0.646298	0.486004	0.580614
	O324	O	-0.068675	1.113594	-0.124608
	H325	H	-0.071737	1.111379	-0.123910
	H326	H	-0.064145	1.108950	-0.111770
	O327	O	0.342441	0.533018	0.602434
	H328	H	0.335636	0.543152	0.586591
	H329	H	0.334005	0.542720	0.602272
	O330	O	-0.864403	0.817882	1.826069
	H331	H	-0.862509	0.810471	1.846775
	H332	H	-0.875751	0.837764	1.824015
	O333	O	-0.078688	-0.119572	0.953393
	H334	H	-0.080389	-0.118102	0.952813
	H335	H	-0.075238	-0.107529	0.962082
	O336	O	0.598303	0.447371	0.362590
	H337	H	0.603362	0.444323	0.373849
	H338	H	0.612513	0.456196	0.354688
	O339	O	0.956535	-0.082609	-0.097330
	H340	H	0.962458	-0.077241	-0.099402
	H341	H	0.957368	-0.104127	-0.103629
	O342	O	-0.072096	0.001994	0.129422
	H343	H	-0.062834	-0.006162	0.128650
	H344	H	-0.064889	0.021774	0.148301
	O345	O	1.443073	0.381694	0.388922
	H346	H	1.446872	0.385472	0.378875
	H347	H	1.448141	0.379825	0.391455
	O348	O	1.396406	1.320676	0.615874
	H349	H	1.385427	1.314228	0.617125
	H350	H	1.403695	1.325974	0.616168
	O351	O	0.408761	0.369929	0.499073
	H352	H	0.431828	0.371974	0.496254
	H353	H	0.410303	0.357643	0.512442
	O354	O	0.946112	0.051786	1.055066
	H355	H	0.941324	0.044784	1.054062
	H356	H	0.933502	0.055176	1.056974
	O357	O	0.576809	0.320557	0.459031
	H358	H	0.576808	0.325714	0.458260
	H359	H	0.578033	0.316343	0.468783
	O360	O	0.620236	0.662629	0.688301
	H361	H	0.595410	0.666000	0.705520
	H362	H	0.599834	0.640659	0.689422
	O363	O	0.176909	1.065270	1.187832
	H364	H	0.188407	1.053555	1.181054
	H365	H	0.174635	1.059852	1.184653
	O366	O	1.062546	0.990085	-0.092857
	H367	H	1.049124	0.981296	-0.096649
	H368	H	1.062926	0.981606	-0.101280
	O369	O	0.086676	0.997165	0.120261
	H370	H	0.085197	0.994120	0.114519
	H371	H	0.084164	0.987280	0.121563
	O372	O	0.825353	0.100301	-0.077759
	H373	H	0.813935	0.109202	-0.083625
	H374	H	0.825972	0.091433	-0.090758
	O375	O	0.442323	0.286328	0.612217
	H376	H	0.430943	0.283943	0.606039
	H377	H	0.452171	0.279100	0.605460
	O378	O	1.506638	1.367195	0.373804
	H379	H	1.514176	1.356247	0.377875
	H380	H	1.512756	1.364724	0.380566
	O381	O	0.897741	-0.100492	0.173926
	H382	H	0.903208	-0.099138	0.175234
	H383	H	0.909490	-0.095070	0.177486
	O384	O	0.917448	1.098029	-0.038578
	H385	H	0.925178	1.106808	-0.040611
	H386	H	0.925974	1.105045	-0.042143
	O387	O	0.113005	-0.120858	0.098895
	H388	H	0.098936	-0.105891	0.095085
	H389	H	0.105362	-0.119707	0.090230
	O390	O	-0.051086	0.886061	-0.155076
	H391	H	-0.057321	0.879174	-0.169117
	H392	H	-0.050602	0.896619	-0.154583
	O393	O	1.103787	0.858532	0.964853
	H394	H	1.102764	0.866584	0.970738
	H395	H	1.109926	0.843501	0.963799
	O396	O	0.513303	0.554533	0.466249
	H397	H	0.503595	0.559837	0.468085
	H398	H	0.505520	0.562651	0.463176
	O399	O	0.010189	0.863513	1.159483
	H400	H	0.015868	0.860151	1.162907
	H401	H	-0.001754	0.872396	1.167082
	O402	O	0.641381	0.622496	0.537576
	H403	H	0.644596	0.616491	0.571513
	H404	H	0.651926	0.637355	0.541446
	O405	O	1.112930	1.097549	-0.060797
	H406	H	1.122682	1.108109	-0.072786
	H407	H	1.092763	1.098511	-0.069358
	O408	O	1.545006	0.567121	0.611828
	H409	H	1.539218	0.581803	0.598511
	H410	H	1.549048	0.577419	0.625918
	O411	O	0.992820	0.063441	0.871004
	H412	H	0.993056	0.043175	0.873413
	H413	H	0.989882	0.058503	0.880280
	O414	O	0.578731	0.418651	0.409725
	H415	H	0.567897	0.417409	0.412456
	H416	H	0.587725	0.433448	0.415338
	O417	O	0.548936	0.520241	0.570122
	H418	H	0.545734	0.528724	0.563653
	H419	H	0.536160	0.514221	0.571378
