data_Molecule from HDF5

_cell_length_a		16.353196
_cell_length_b		16.292838
_cell_length_c		16.323900
_cell_angle_alpha	89.986454
_cell_angle_beta	89.998179
_cell_angle_gamma	89.992882
_symmetry_space_group_name_H-M	'P 1'
_symmetry_Int_Tables_number		1

loop_
	_symmetry_equiv_pos_as_xyz
	x,y,z

loop_
	_atom_site_label
	_atom_site_type_symbol
	_atom_site_fract_x
	_atom_site_fract_y
	_atom_site_fract_z
	H0	H	0.401141	0.836982	0.715420
	H1	H	0.597230	0.163736	0.713501
	H2	H	0.597426	0.836544	0.285702
	H3	H	0.401979	0.164037	0.286294
	H4	H	0.714856	0.401872	0.836582
	H5	H	0.715078	0.599061	0.163599
	H6	H	0.285031	0.598925	0.836910
	H7	H	0.285469	0.401997	0.163065
	H8	H	0.836824	0.714832	0.401707
	H9	H	0.163087	0.713841	0.597109
	H10	H	0.836908	0.285577	0.598454
	H11	H	0.162914	0.285058	0.401899
	H12	H	0.837205	0.401452	0.715381
	H13	H	0.162496	0.597205	0.714044
	H14	H	0.837181	0.598813	0.285197
	H15	H	0.163709	0.402221	0.285780
	H16	H	0.402045	0.714805	0.836615
	H17	H	0.596766	0.713214	0.164179
	H18	H	0.598228	0.286439	0.836495
	H19	H	0.404542	0.288575	0.164062
	H20	H	0.714367	0.836610	0.401751
	H21	H	0.714818	0.162899	0.598958
	H22	H	0.287686	0.835361	0.596236
	H23	H	0.285130	0.162873	0.401782
	H24	H	0.903411	0.336052	0.213811
	H25	H	0.097859	0.663931	0.213710
	H26	H	0.098310	0.336023	0.785588
	H27	H	0.903754	0.664035	0.786638
	H28	H	0.214369	0.901123	0.336700
	H29	H	0.214345	0.098072	0.663058
	H30	H	0.784564	0.098334	0.337446
	H31	H	0.784895	0.900921	0.663115
	H32	H	0.336958	0.214600	0.902920
	H33	H	0.663616	0.213125	0.096897
	H34	H	0.337417	0.784945	0.099290
	H35	H	0.663437	0.785724	0.902104
	H36	H	0.337070	0.901993	0.214691
	H37	H	0.663039	0.097622	0.214388
	H38	H	0.336766	0.098291	0.785913
	H39	H	0.663314	0.901676	0.785563
	H40	H	0.901415	0.213849	0.336194
	H41	H	0.097231	0.213162	0.663278
	H42	H	0.096738	0.786705	0.336045
	H43	H	0.902178	0.786349	0.663295
	H44	H	0.213877	0.335783	0.902469
	H45	H	0.214664	0.663555	0.097899
	H46	H	0.786484	0.336563	0.098072
	H47	H	0.786483	0.663648	0.902312
	H48	H	0.400521	0.119118	0.598078
	H49	H	0.589236	0.886233	0.586621
	H50	H	0.594887	0.119289	0.398295
	H51	H	0.412039	0.883186	0.401154
	H52	H	0.592147	0.410227	0.115108
	H53	H	0.595575	0.593454	0.883630
	H54	H	0.408888	0.595638	0.117075
	H55	H	0.408067	0.398610	0.881520
	H56	H	0.112478	0.594450	0.416334
	H57	H	0.882337	0.600570	0.592362
	H58	H	0.117057	0.403012	0.595351
	H59	H	0.882952	0.405236	0.402600
	H60	H	0.115180	0.406259	0.589356
	H61	H	0.886277	0.589647	0.588929
	H62	H	0.114600	0.584633	0.401921
	H63	H	0.884450	0.404352	0.409115
	H64	H	0.403812	0.593028	0.116537
	H65	H	0.592868	0.592203	0.885177
	H66	H	0.592407	0.402452	0.117260
	H67	H	0.398505	0.409643	0.881760
	H68	H	0.584135	0.113609	0.409451
	H69	H	0.600152	0.881383	0.592816
	H70	H	0.413172	0.115219	0.596203
	H71	H	0.406906	0.885837	0.413083
	H72	H	0.905016	0.615321	0.087846
	H73	H	0.100481	0.381827	0.093071
	H74	H	0.094666	0.616782	0.907506
	H75	H	0.907139	0.385394	0.912128
	H76	H	0.091184	0.906841	0.615306
	H77	H	0.099635	0.098114	0.380097
	H78	H	0.906020	0.088450	0.615704
	H79	H	0.912459	0.903447	0.384879
	H80	H	0.619965	0.095441	0.896322
	H81	H	0.383024	0.097572	0.093166
	H82	H	0.617264	0.900896	0.091612
	H83	H	0.384638	0.903089	0.912494
	H84	H	0.613135	0.911557	0.089705
	H85	H	0.384087	0.091644	0.092972
	H86	H	0.615438	0.100888	0.914544
	H87	H	0.386821	0.913293	0.908423
	H88	H	0.910432	0.095888	0.616035
	H89	H	0.095343	0.083519	0.385114
	H90	H	0.094715	0.903754	0.617432
	H91	H	0.900749	0.904124	0.380842
	H92	H	0.093374	0.616689	0.904246
	H93	H	0.089375	0.383230	0.099588
	H94	H	0.903023	0.618927	0.097352
	H95	H	0.901396	0.380868	0.905075
	H96	H	0.404552	0.114615	0.585937
	H97	H	0.588702	0.883024	0.599669
	H98	H	0.599668	0.116398	0.413745
	H99	H	0.399498	0.880199	0.403709
	H100	H	0.598972	0.407186	0.117204
	H101	H	0.592748	0.594817	0.883440
	H102	H	0.408250	0.590140	0.114561
	H103	H	0.412190	0.411839	0.886812
	H104	H	0.119941	0.601232	0.401363
	H105	H	0.882117	0.590986	0.600021
	H106	H	0.115136	0.409782	0.595606
	H107	H	0.885114	0.410568	0.406095
	H108	H	0.912995	0.615296	0.094378
	H109	H	0.090100	0.386517	0.086813
	H110	H	0.091512	0.615025	0.907078
	H111	H	0.910255	0.383364	0.903152
	H112	H	0.095811	0.908032	0.616403
	H113	H	0.085005	0.095265	0.385364
	H114	H	0.902266	0.095166	0.617942
	H115	H	0.906072	0.914338	0.385819
	H116	H	0.612080	0.082803	0.908683
	H117	H	0.382894	0.094388	0.097797
	H118	H	0.617341	0.908783	0.100012
	H119	H	0.382678	0.905585	0.901935
	C120	C	0.378323	0.007998	0.621201
	C121	C	0.621133	0.991586	0.621344
	C122	C	0.621228	0.008312	0.378651
	C123	C	0.378255	0.991502	0.378139
	C124	C	0.622265	0.378610	0.008291
	C125	C	0.621929	0.621766	0.992244
	C126	C	0.378777	0.621264	0.007931
	C127	C	0.378674	0.378955	0.991552
	C128	C	0.007932	0.621782	0.378308
	C129	C	0.991212	0.621612	0.621393
	C130	C	0.007954	0.378213	0.621646
	C131	C	0.992079	0.378550	0.377890
	C132	C	0.878863	0.508383	0.121676
	C133	C	0.121790	0.491783	0.121664
	C134	C	0.121293	0.507773	0.878451
	C135	C	0.878662	0.491686	0.878618
	C136	C	0.121692	0.878093	0.508205
	C137	C	0.121802	0.121122	0.491372
	C138	C	0.878123	0.121540	0.508323
	C139	C	0.877806	0.878343	0.491704
	C140	C	0.508286	0.121796	0.878321
	C141	C	0.491710	0.121996	0.122149
	C142	C	0.508340	0.878651	0.122235
	C143	C	0.492198	0.878377	0.878380
	C144	C	0.381204	0.885010	0.676424
	C145	C	0.617961	0.114889	0.675714
	C146	C	0.618422	0.885295	0.323544
	C147	C	0.381157	0.114854	0.323613
	C148	C	0.676640	0.381875	0.885164
	C149	C	0.676664	0.619061	0.115011
	C150	C	0.323552	0.618861	0.885401
	C151	C	0.323598	0.381454	0.114474
	C152	C	0.885528	0.677262	0.380832
	C153	C	0.114351	0.675758	0.617878
	C154	C	0.885351	0.323672	0.618683
	C155	C	0.114434	0.322982	0.381027
	C156	C	0.885486	0.381169	0.676736
	C157	C	0.114122	0.618059	0.676044
	C158	C	0.885531	0.619217	0.323468
	C159	C	0.114905	0.381359	0.323576
	C160	C	0.381759	0.676370	0.885212
	C161	C	0.618452	0.676177	0.115209
	C162	C	0.618833	0.324403	0.885019
	C163	C	0.382703	0.325203	0.115145
	C164	C	0.676256	0.885404	0.381264
	C165	C	0.676410	0.114471	0.618898
	C166	C	0.324219	0.884656	0.617988
	C167	C	0.323330	0.114483	0.381015
	C168	C	0.882332	0.384940	0.176242
	C169	C	0.119075	0.614920	0.176388
	C170	C	0.118572	0.384622	0.824007
	C171	C	0.882201	0.615086	0.824148
	C172	C	0.176257	0.880942	0.385246
	C173	C	0.176898	0.118706	0.614177
	C174	C	0.822734	0.119074	0.385698
	C175	C	0.822653	0.880484	0.614377
	C176	C	0.385430	0.176235	0.881949
	C177	C	0.614826	0.175904	0.118293
	C178	C	0.385764	0.823727	0.119293
	C179	C	0.614906	0.823838	0.881583
	C180	C	0.385658	0.881435	0.176909
	C181	C	0.614584	0.118682	0.176703
	C182	C	0.385370	0.118748	0.823686
	C183	C	0.614711	0.881302	0.823426
	C184	C	0.881097	0.176103	0.385284
	C185	C	0.118443	0.175813	0.614260
	C186	C	0.117677	0.824200	0.384991
	C187	C	0.881343	0.823987	0.614609
	C188	C	0.176220	0.384670	0.881754
	C189	C	0.176922	0.614870	0.118703
	C190	C	0.823963	0.385352	0.119196
	C191	C	0.824137	0.614993	0.881585
	C192	C	0.399754	0.094095	0.599729
	C193	C	0.599059	0.905746	0.599395
	C194	C	0.599279	0.094337	0.400572
	C195	C	0.399803	0.905242	0.399471
	C196	C	0.600732	0.400143	0.094210
	C197	C	0.600249	0.599898	0.906198
	C198	C	0.400585	0.599241	0.094084
	C199	C	0.399992	0.400304	0.905699
	C200	C	0.093614	0.599861	0.400143
	C201	C	0.905512	0.600169	0.600082
	C202	C	0.093761	0.399835	0.599758
	C203	C	0.906186	0.400419	0.399585
	C204	C	0.900717	0.594372	0.099756
	C205	C	0.099782	0.405817	0.099727
	C206	C	0.099567	0.593898	0.899998
	C207	C	0.900041	0.405528	0.900300
	C208	C	0.100200	0.899757	0.594181
	C209	C	0.099807	0.098699	0.405431
	C210	C	0.899795	0.099708	0.594377
	C211	C	0.899968	0.900732	0.405899
	C212	C	0.593813	0.099724	0.900142
	C213	C	0.405596	0.100922	0.100956
	C214	C	0.593900	0.900648	0.100272
	C215	C	0.406855	0.900639	0.900933
	Zn216	Zn	0.500050	-0.000038	0.749575
	Zn217	Zn	0.500097	0.000450	0.250277
	Zn218	Zn	0.750447	0.500377	0.000435
	Zn219	Zn	0.249845	0.499835	-0.000071
	Zn220	Zn	-0.000515	0.750289	0.499852
	Zn221	Zn	-0.000168	0.249517	0.499865
	Zn222	Zn	-0.000368	0.499449	0.750019
	Zn223	Zn	0.000215	0.500167	0.249878
	Zn224	Zn	0.500207	0.749984	0.000354
	Zn225	Zn	0.500373	0.250437	0.000165
	Zn226	Zn	0.749641	-0.000098	0.500153
	Zn227	Zn	0.249860	-0.000345	0.499496
	N228	N	0.414025	0.962686	0.678626
	N229	N	0.584330	0.037422	0.677275
	N230	N	0.584946	0.962770	0.321968
	N231	N	0.414635	0.037423	0.321775
	N232	N	0.679089	0.414718	0.962767
	N233	N	0.678890	0.585994	0.037428
	N234	N	0.321598	0.585587	0.962821
	N235	N	0.321141	0.414307	0.036837
	N236	N	0.962705	0.678856	0.414364
	N237	N	0.037029	0.678198	0.584870
	N238	N	0.962509	0.321859	0.585109
	N239	N	0.037103	0.321344	0.414270
	N240	N	0.962762	0.414368	0.678547
	N241	N	0.036619	0.585021	0.678253
	N242	N	0.962575	0.585407	0.321900
	N243	N	0.037658	0.414986	0.321537
	N244	N	0.415660	0.677609	0.962497
	N245	N	0.584994	0.677705	0.037846
	N246	N	0.585453	0.322422	0.962492
	N247	N	0.416135	0.323300	0.037758
	N248	N	0.677944	0.962940	0.414904
	N249	N	0.678220	0.036863	0.585695
	N250	N	0.322374	0.962169	0.584333
	N251	N	0.321204	0.036773	0.413935
	N252	N	0.915823	0.462422	0.177837
	N253	N	0.085434	0.537408	0.178157
	N254	N	0.085279	0.462200	0.821630
	N255	N	0.915124	0.537367	0.822010
	N256	N	0.178595	0.913766	0.462800
	N257	N	0.178678	0.085288	0.536717
	N258	N	0.821036	0.085632	0.463129
	N259	N	0.820543	0.913780	0.536869
	N260	N	0.462719	0.178199	0.915184
	N261	N	0.537490	0.177894	0.085014
	N262	N	0.462980	0.821773	0.085918
	N263	N	0.537662	0.821903	0.914953
	N264	N	0.463011	0.914834	0.178812
	N265	N	0.536998	0.085907	0.179009
	N266	N	0.462809	0.085506	0.821350
	N267	N	0.537461	0.914814	0.821613
	N268	N	0.914519	0.177887	0.462694
	N269	N	0.084828	0.177314	0.536896
	N270	N	0.084270	0.822481	0.462353
	N271	N	0.914903	0.822688	0.537340
	N272	N	0.178031	0.462407	0.914847
	N273	N	0.178589	0.537359	0.085388
	N274	N	0.821931	0.462992	0.085912
	N275	N	0.821963	0.537375	0.914892
