data_Molecule from HDF5

_cell_length_a		16.338638
_cell_length_b		16.241947
_cell_length_c		16.276214
_cell_angle_alpha	89.665716
_cell_angle_beta	90.040525
_cell_angle_gamma	89.939476
_symmetry_space_group_name_H-M	'P 1'
_symmetry_Int_Tables_number		1

loop_
	_symmetry_equiv_pos_as_xyz
	x,y,z

loop_
	_atom_site_label
	_atom_site_type_symbol
	_atom_site_fract_x
	_atom_site_fract_y
	_atom_site_fract_z
	H0	H	0.403597	0.827717	0.718705
	H1	H	0.599275	0.156973	0.716597
	H2	H	0.599450	0.826932	0.289663
	H3	H	0.402613	0.155326	0.287630
	H4	H	0.716879	0.393625	0.838694
	H5	H	0.717766	0.589838	0.165844
	H6	H	0.285194	0.593933	0.839559
	H7	H	0.286829	0.391083	0.166180
	H8	H	0.837714	0.706544	0.402530
	H9	H	0.163852	0.706549	0.600809
	H10	H	0.838027	0.276406	0.601311
	H11	H	0.165084	0.277791	0.406518
	H12	H	0.838547	0.391353	0.718854
	H13	H	0.163765	0.590805	0.717829
	H14	H	0.838861	0.591170	0.285139
	H15	H	0.164731	0.391540	0.287775
	H16	H	0.404965	0.706405	0.838308
	H17	H	0.599686	0.703441	0.167418
	H18	H	0.600527	0.277838	0.838956
	H19	H	0.405265	0.277153	0.167064
	H20	H	0.715426	0.827669	0.404691
	H21	H	0.715973	0.155710	0.601133
	H22	H	0.286152	0.827638	0.604350
	H23	H	0.287801	0.156020	0.403862
	H24	H	0.905139	0.326703	0.216667
	H25	H	0.100437	0.655207	0.216106
	H26	H	0.100660	0.327839	0.788911
	H27	H	0.902256	0.655109	0.786565
	H28	H	0.217568	0.892568	0.339824
	H29	H	0.215542	0.088744	0.666200
	H30	H	0.786027	0.091873	0.338634
	H31	H	0.785605	0.890465	0.665740
	H32	H	0.338614	0.208521	0.904198
	H33	H	0.665761	0.204431	0.100446
	H34	H	0.337977	0.775305	0.101909
	H35	H	0.665256	0.778587	0.907079
	H36	H	0.337310	0.893241	0.218205
	H37	H	0.665225	0.087937	0.217218
	H38	H	0.337002	0.090808	0.789678
	H39	H	0.664585	0.892727	0.789338
	H40	H	0.903372	0.207150	0.339053
	H41	H	0.097696	0.202678	0.667603
	H42	H	0.099021	0.778324	0.338602
	H43	H	0.902618	0.775212	0.665929
	H44	H	0.217785	0.328505	0.903225
	H45	H	0.216518	0.655540	0.099710
	H46	H	0.787595	0.327305	0.102251
	H47	H	0.786766	0.654997	0.902171
	H48	H	0.404587	0.109315	0.596069
	H49	H	0.589912	0.878956	0.591167
	H50	H	0.596506	0.109231	0.406362
	H51	H	0.408520	0.873862	0.408107
	H52	H	0.594363	0.386568	0.121164
	H53	H	0.603710	0.588975	0.882707
	H54	H	0.405293	0.584518	0.120514
	H55	H	0.406243	0.399160	0.886479
	H56	H	0.117001	0.588509	0.414499
	H57	H	0.885015	0.583848	0.595106
	H58	H	0.118292	0.390594	0.595183
	H59	H	0.885518	0.398335	0.409512
	H60	H	0.114482	0.402215	0.590915
	H61	H	0.886067	0.583569	0.592978
	H62	H	0.114419	0.578627	0.410172
	H63	H	0.885891	0.400111	0.410120
	H64	H	0.408872	0.577871	0.116757
	H65	H	0.595211	0.576537	0.889102
	H66	H	0.605394	0.402701	0.120786
	H67	H	0.409281	0.402959	0.887539
	H68	H	0.587881	0.106245	0.408269
	H69	H	0.598537	0.874200	0.596170
	H70	H	0.409090	0.108534	0.598197
	H71	H	0.411011	0.876835	0.413344
	H72	H	0.911861	0.609738	0.104300
	H73	H	0.082771	0.376818	0.101629
	H74	H	0.103225	0.608888	0.916276
	H75	H	0.911576	0.374277	0.905505
	H76	H	0.095602	0.904860	0.617064
	H77	H	0.090399	0.092030	0.385253
	H78	H	0.903911	0.084300	0.620053
	H79	H	0.907889	0.895291	0.385323
	H80	H	0.620207	0.092753	0.909686
	H81	H	0.385753	0.086807	0.093344
	H82	H	0.618193	0.893074	0.097204
	H83	H	0.384919	0.902712	0.904989
	H84	H	0.615193	0.899907	0.093546
	H85	H	0.386461	0.081416	0.095446
	H86	H	0.612283	0.080494	0.917694
	H87	H	0.382978	0.891518	0.910033
	H88	H	0.907403	0.080278	0.617981
	H89	H	0.103307	0.085301	0.383137
	H90	H	0.087742	0.894984	0.617927
	H91	H	0.902425	0.901475	0.385132
	H92	H	0.094212	0.611745	0.898801
	H93	H	0.098316	0.378258	0.081899
	H94	H	0.916041	0.603783	0.086664
	H95	H	0.911526	0.376722	0.915776
	H96	H	0.409098	0.107177	0.593018
	H97	H	0.589349	0.875314	0.601742
	H98	H	0.594279	0.106465	0.415761
	H99	H	0.406173	0.874882	0.413917
	H100	H	0.586698	0.403863	0.114197
	H101	H	0.587880	0.590516	0.886912
	H102	H	0.413183	0.584849	0.117726
	H103	H	0.411475	0.398170	0.886486
	H104	H	0.118582	0.586743	0.403980
	H105	H	0.886377	0.581437	0.594500
	H106	H	0.117817	0.400829	0.603420
	H107	H	0.885308	0.399560	0.408452
	H108	H	0.898774	0.610015	0.090937
	H109	H	0.106555	0.368983	0.103944
	H110	H	0.084261	0.603351	0.914481
	H111	H	0.903592	0.372808	0.910902
	H112	H	0.099793	0.893735	0.622157
	H113	H	0.093125	0.077933	0.388983
	H114	H	0.909345	0.085229	0.618173
	H115	H	0.909987	0.902677	0.387819
	H116	H	0.617594	0.077974	0.902056
	H117	H	0.384561	0.086011	0.098861
	H118	H	0.617543	0.900182	0.102185
	H119	H	0.387990	0.901080	0.916417
	C120	C	0.379508	-0.000102	0.625172
	C121	C	0.621869	0.984172	0.624665
	C122	C	0.621981	-0.000485	0.381981
	C123	C	0.379679	0.983308	0.382136
	C124	C	0.624144	0.369613	0.010665
	C125	C	0.623880	0.613254	0.994704
	C126	C	0.380348	0.612577	0.010729
	C127	C	0.380632	0.370501	0.994914
	C128	C	0.009385	0.613380	0.380340
	C129	C	0.993071	0.612433	0.623342
	C130	C	0.009386	0.369183	0.625052
	C131	C	0.993247	0.369865	0.381132
	C132	C	0.880802	0.499400	0.123314
	C133	C	0.124168	0.482935	0.123901
	C134	C	0.122935	0.500114	0.881173
	C135	C	0.880241	0.482907	0.881227
	C136	C	0.122899	0.869713	0.511053
	C137	C	0.123056	0.112962	0.494436
	C138	C	0.878760	0.113182	0.510489
	C139	C	0.878714	0.869756	0.494215
	C140	C	0.509247	0.113677	0.880865
	C141	C	0.493687	0.112737	0.124499
	C142	C	0.509035	0.868718	0.125968
	C143	C	0.493287	0.870230	0.882194
	C144	C	0.382357	0.876729	0.681058
	C145	C	0.619687	0.107695	0.678988
	C146	C	0.619867	0.876083	0.327275
	C147	C	0.382057	0.106643	0.325886
	C148	C	0.678999	0.372907	0.887564
	C149	C	0.679250	0.609811	0.117401
	C150	C	0.324323	0.612913	0.887870
	C151	C	0.325148	0.371387	0.117427
	C152	C	0.886943	0.669141	0.381975
	C153	C	0.115137	0.668693	0.621652
	C154	C	0.886687	0.313929	0.622440
	C155	C	0.116261	0.314907	0.384766
	C156	C	0.887142	0.370954	0.681069
	C157	C	0.115337	0.610472	0.679296
	C158	C	0.887289	0.611466	0.323837
	C159	C	0.116060	0.371689	0.326064
	C160	C	0.383477	0.668796	0.887460
	C161	C	0.620796	0.666850	0.117948
	C162	C	0.621209	0.315261	0.887723
	C163	C	0.383921	0.314607	0.117878
	C164	C	0.677440	0.876364	0.384401
	C165	C	0.677679	0.107026	0.621671
	C166	C	0.324109	0.876704	0.624019
	C167	C	0.325051	0.106826	0.383891
	C168	C	0.884221	0.375759	0.178873
	C169	C	0.121185	0.606374	0.178321
	C170	C	0.120885	0.376675	0.826559
	C171	C	0.882257	0.606403	0.825023
	C172	C	0.179204	0.872076	0.388379
	C173	C	0.177412	0.109463	0.617752
	C174	C	0.823665	0.111873	0.387805
	C175	C	0.823689	0.870612	0.617103
	C176	C	0.386733	0.169632	0.883724
	C177	C	0.616804	0.166996	0.121414
	C178	C	0.386706	0.812902	0.123354
	C179	C	0.616586	0.816188	0.886063
	C180	C	0.386234	0.871590	0.180761
	C181	C	0.616444	0.109099	0.179438
	C182	C	0.386226	0.111639	0.826578
	C183	C	0.616010	0.872635	0.827313
	C184	C	0.882284	0.168896	0.387658
	C185	C	0.119229	0.166428	0.618099
	C186	C	0.120407	0.815433	0.387692
	C187	C	0.881743	0.813284	0.617168
	C188	C	0.178947	0.377000	0.883619
	C189	C	0.178900	0.606630	0.120880
	C190	C	0.825769	0.376041	0.122103
	C191	C	0.824804	0.606206	0.882253
	C192	C	0.401148	0.086047	0.602504
	C193	C	0.599282	0.898263	0.602802
	C194	C	0.599497	0.085265	0.403773
	C195	C	0.402092	0.897433	0.405080
	C196	C	0.602110	0.391360	0.096726
	C197	C	0.602038	0.591740	0.908371
	C198	C	0.402458	0.589217	0.096214
	C199	C	0.402528	0.393490	0.908923
	C200	C	0.094628	0.590998	0.402747
	C201	C	0.907834	0.589602	0.600750
	C202	C	0.094788	0.391367	0.602941
	C203	C	0.907765	0.392594	0.403084
	C204	C	0.902371	0.585682	0.100523
	C205	C	0.102596	0.397105	0.102081
	C206	C	0.100426	0.585739	0.903386
	C207	C	0.902373	0.396911	0.904201
	C208	C	0.100792	0.891336	0.596678
	C209	C	0.101692	0.091535	0.408232
	C210	C	0.900647	0.090029	0.596651
	C211	C	0.900447	0.892913	0.408314
	C212	C	0.594535	0.090729	0.903283
	C213	C	0.407819	0.091173	0.102384
	C214	C	0.594704	0.891136	0.104072
	C215	C	0.407455	0.891985	0.903853
	Zn216	Zn	0.501043	-0.008187	0.753392
	Zn217	Zn	0.500808	-0.008620	0.253789
	Zn218	Zn	0.752177	0.491137	0.002419
	Zn219	Zn	0.251936	0.491543	0.002107
	Zn220	Zn	0.000809	0.742317	0.502224
	Zn221	Zn	0.001382	0.240978	0.503174
	Zn222	Zn	0.001157	0.491412	0.753166
	Zn223	Zn	0.002038	0.491076	0.251788
	Zn224	Zn	0.501553	0.740961	0.002891
	Zn225	Zn	0.502089	0.241398	0.002675
	Zn226	Zn	0.750209	-0.008594	0.502753
	Zn227	Zn	0.251449	-0.008449	0.503227
	N228	N	0.415862	0.954257	0.681864
	N229	N	0.585743	0.030271	0.680887
	N230	N	0.585821	0.953547	0.325802
	N231	N	0.415303	0.028865	0.324748
	N232	N	0.680943	0.405723	0.965160
	N233	N	0.681155	0.577255	0.039633
	N234	N	0.322236	0.578646	0.965357
	N235	N	0.323110	0.405414	0.039834
	N236	N	0.963860	0.670475	0.416458
	N237	N	0.038286	0.669747	0.587454
	N238	N	0.963641	0.312842	0.588145
	N239	N	0.038911	0.313620	0.418199
	N240	N	0.964399	0.404545	0.682735
	N241	N	0.038170	0.576430	0.680490
	N242	N	0.964415	0.577547	0.322541
	N243	N	0.038617	0.405121	0.323703
	N244	N	0.417702	0.668639	0.964836
	N245	N	0.586866	0.668846	0.040561
	N246	N	0.587750	0.313104	0.965260
	N247	N	0.417781	0.314110	0.040614
	N248	N	0.678899	0.953992	0.417743
	N249	N	0.679400	0.029159	0.588717
	N250	N	0.322548	0.954334	0.589662
	N251	N	0.323463	0.029166	0.418172
	N252	N	0.917715	0.453541	0.179699
	N253	N	0.087788	0.528706	0.180323
	N254	N	0.086508	0.454092	0.825148
	N255	N	0.916082	0.528694	0.824275
	N256	N	0.181147	0.904890	0.466097
	N257	N	0.180167	0.077307	0.539806
	N258	N	0.821613	0.077848	0.465435
	N259	N	0.821755	0.904994	0.539787
	N260	N	0.464300	0.171070	0.916590
	N261	N	0.539391	0.169215	0.087945
	N262	N	0.464073	0.811051	0.090258
	N263	N	0.539377	0.814720	0.919569
	N264	N	0.463395	0.905489	0.182549
	N265	N	0.538846	0.076373	0.181468
	N266	N	0.463382	0.077495	0.824763
	N267	N	0.538340	0.905566	0.824771
	N268	N	0.915696	0.169913	0.465161
	N269	N	0.085892	0.168377	0.540433
	N270	N	0.086066	0.813902	0.464921
	N271	N	0.915209	0.812767	0.539627
	N272	N	0.180730	0.454844	0.916537
	N273	N	0.180782	0.528947	0.087812
	N274	N	0.823657	0.453783	0.088413
	N275	N	0.823354	0.528480	0.916246
	O276	O	0.465546	0.478151	0.394209
	H277	H	0.471058	0.476232	0.393918
	H278	H	0.458030	0.469605	0.397418
	O279	O	0.455491	0.500372	0.457938
	H280	H	0.455820	0.495531	0.452333
	H281	H	0.456114	0.514899	0.467751
	O282	O	0.458684	0.477813	0.467396
	H283	H	0.460774	0.472873	0.464818
	H284	H	0.456473	0.481543	0.461383
	O285	O	0.555635	1.520784	0.453007
	H286	H	0.549546	1.525196	0.473722
	H287	H	0.560492	1.547232	0.449053
	O288	O	0.512336	0.469462	0.534335
	H289	H	0.508240	0.468770	0.537746
	H290	H	0.513551	0.471195	0.530523
	O291	O	-0.023494	0.105266	0.992608
	H292	H	-0.028747	0.110733	0.990550
	H293	H	-0.033906	0.113290	0.993044
	O294	O	0.574031	0.464335	0.516539
	H295	H	0.574976	0.455456	0.519241
	H296	H	0.581863	0.470799	0.513270
	O297	O	0.509714	0.492465	0.506956
	H298	H	0.513710	0.488616	0.502872
	H299	H	0.520235	0.500383	0.509555
	O300	O	0.982297	1.086640	0.975683
	H301	H	0.991308	1.081675	0.987334
	H302	H	0.982622	1.085279	0.966131
	O303	O	0.517413	0.441850	0.386964
	H304	H	0.526526	0.439631	0.384220
	H305	H	0.517797	0.438840	0.382433
	O306	O	1.000928	0.053009	0.986841
	H307	H	1.005350	0.059623	0.990047
	H308	H	1.002303	0.061713	0.990042
	O309	O	0.465038	0.475074	0.536602
	H310	H	0.463233	0.473220	0.531429
	H311	H	0.449661	0.473218	0.533572
	O312	O	-0.054957	1.045267	0.986235
	H313	H	-0.054990	1.038568	0.982092
	H314	H	-0.054265	1.046551	0.978043
	O315	O	0.550858	-0.469095	0.609584
	H316	H	0.543265	-0.463349	0.605675
	H317	H	0.542938	-0.466130	0.618604
	O318	O	-0.608660	-0.465476	-0.560350
	H319	H	-0.600300	-0.471331	-0.562632
	H320	H	-0.601825	-0.467344	-0.565909
	O321	O	0.512995	0.489220	0.495756
	H322	H	0.513641	0.479891	0.499823
	H323	H	0.513594	0.493475	0.499792
	O324	O	0.414444	0.524874	0.559826
	H325	H	0.409632	0.517587	0.559851
	H326	H	0.410457	0.525503	0.556073
	O327	O	1.548353	1.507972	-0.454559
	H328	H	1.556083	1.506246	-0.449267
	H329	H	1.535122	1.505820	-0.449618
	O330	O	0.538036	0.468173	0.482925
	H331	H	0.544059	0.468107	0.487605
	H332	H	0.535080	0.468733	0.474663
	O333	O	0.469552	0.507858	0.496993
	H334	H	0.473943	0.504939	0.485060
	H335	H	0.464756	0.512541	0.494504
