data_Molecule from HDF5

_cell_length_a		16.563312
_cell_length_b		16.646174
_cell_length_c		16.431113
_cell_angle_alpha	89.948370
_cell_angle_beta	89.967545
_cell_angle_gamma	89.950698
_symmetry_space_group_name_H-M	'P 1'
_symmetry_Int_Tables_number		1

loop_
	_symmetry_equiv_pos_as_xyz
	x,y,z

loop_
	_atom_site_label
	_atom_site_type_symbol
	_atom_site_fract_x
	_atom_site_fract_y
	_atom_site_fract_z
	H0	H	0.417508	0.831064	0.716758
	H1	H	0.620359	0.145201	0.717247
	H2	H	0.620910	0.830862	0.277473
	H3	H	0.416304	0.146141	0.279783
	H4	H	0.739271	0.382758	0.840777
	H5	H	0.741820	0.595967	0.154201
	H6	H	0.298919	0.590334	0.840389
	H7	H	0.299157	0.385021	0.156643
	H8	H	0.859595	0.709526	0.392723
	H9	H	0.174405	0.706535	0.600788
	H10	H	0.861517	0.263404	0.606451
	H11	H	0.171976	0.266294	0.392936
	H12	H	0.860206	0.382291	0.720010
	H13	H	0.175190	0.587695	0.715128
	H14	H	0.857892	0.591326	0.278354
	H15	H	0.173222	0.387145	0.279459
	H16	H	0.413896	0.707526	0.840941
	H17	H	0.625176	0.710994	0.154739
	H18	H	0.623766	0.266460	0.841324
	H19	H	0.413367	0.266983	0.155620
	H20	H	0.739739	0.831636	0.391470
	H21	H	0.740141	0.144471	0.602404
	H22	H	0.300127	0.831067	0.599883
	H23	H	0.299026	0.145318	0.396467
	H24	H	0.911963	0.330483	0.218895
	H25	H	0.117646	0.643583	0.216690
	H26	H	0.120036	0.330712	0.777474
	H27	H	0.914655	0.643962	0.778189
	H28	H	0.235811	0.886667	0.338538
	H29	H	0.235748	0.089620	0.656812
	H30	H	0.794668	0.095661	0.340498
	H31	H	0.795230	0.882936	0.654744
	H32	H	0.362275	0.211472	0.890181
	H33	H	0.673694	0.212921	0.106000
	H34	H	0.361078	0.768367	0.102322
	H35	H	0.671946	0.763610	0.889922
	H36	H	0.359576	0.887253	0.216074
	H37	H	0.675089	0.094342	0.220202
	H38	H	0.361144	0.091655	0.777888
	H39	H	0.675020	0.884814	0.778062
	H40	H	0.909706	0.211527	0.341228
	H41	H	0.121977	0.208721	0.655384
	H42	H	0.120241	0.769416	0.339230
	H43	H	0.913231	0.767597	0.654870
	H44	H	0.237340	0.330405	0.893833
	H45	H	0.237204	0.642632	0.101992
	H46	H	0.793414	0.332040	0.104611
	H47	H	0.794811	0.642548	0.892291
	H48	H	0.427636	0.102007	0.592548
	H49	H	0.599707	0.878371	0.589582
	H50	H	0.614996	0.101585	0.409996
	H51	H	0.425426	0.873926	0.403934
	H52	H	0.602963	0.396521	0.110878
	H53	H	0.601851	0.578878	0.885181
	H54	H	0.426919	0.576861	0.112559
	H55	H	0.429260	0.395878	0.883928
	H56	H	0.130969	0.582730	0.403715
	H57	H	0.904393	0.579950	0.584827
	H58	H	0.127553	0.402082	0.587037
	H59	H	0.904035	0.405553	0.403392
	H60	H	0.129010	0.394263	0.586528
	H61	H	0.904708	0.576571	0.587441
	H62	H	0.127907	0.580343	0.410774
	H63	H	0.899746	0.389204	0.407987
	H64	H	0.428608	0.580403	0.113418
	H65	H	0.608988	0.575616	0.885619
	H66	H	0.609089	0.403912	0.110453
	H67	H	0.425343	0.398456	0.883621
	H68	H	0.603277	0.099849	0.402741
	H69	H	0.610097	0.879060	0.577885
	H70	H	0.428919	0.099733	0.584431
	H71	H	0.430633	0.876881	0.407244
	H72	H	0.927707	0.598704	0.085430
	H73	H	0.114515	0.373037	0.086364
	H74	H	0.107615	0.598676	0.908141
	H75	H	0.926353	0.377177	0.915291
	H76	H	0.112459	0.894409	0.613500
	H77	H	0.106397	0.073748	0.386817
	H78	H	0.931208	0.069901	0.607534
	H79	H	0.928814	0.901290	0.385387
	H80	H	0.628033	0.076886	0.914715
	H81	H	0.407936	0.077314	0.083605
	H82	H	0.632931	0.895130	0.092011
	H83	H	0.405316	0.898850	0.907000
	H84	H	0.629787	0.895121	0.079916
	H85	H	0.407183	0.076200	0.088807
	H86	H	0.630370	0.074698	0.906026
	H87	H	0.404193	0.896391	0.909845
	H88	H	0.934687	0.076977	0.608508
	H89	H	0.103457	0.081323	0.384674
	H90	H	0.109209	0.900899	0.611153
	H91	H	0.930581	0.898174	0.385323
	H92	H	0.110728	0.600064	0.907652
	H93	H	0.105424	0.372986	0.094317
	H94	H	0.928657	0.597776	0.086233
	H95	H	0.925856	0.373588	0.906854
	H96	H	0.420756	0.101761	0.586872
	H97	H	0.614007	0.873289	0.591724
	H98	H	0.604114	0.095750	0.415814
	H99	H	0.424618	0.875637	0.410943
	H100	H	0.599941	0.404270	0.107035
	H101	H	0.602384	0.572126	0.888662
	H102	H	0.424319	0.579923	0.113956
	H103	H	0.429233	0.400286	0.885440
	H104	H	0.128652	0.575122	0.404631
	H105	H	0.903200	0.580471	0.588597
	H106	H	0.125639	0.398185	0.580442
	H107	H	0.907030	0.399855	0.419594
	H108	H	0.928439	0.597481	0.084800
	H109	H	0.103687	0.377754	0.083222
	H110	H	0.108550	0.599522	0.904941
	H111	H	0.933559	0.377471	0.909403
	H112	H	0.105389	0.894681	0.612007
	H113	H	0.111312	0.079256	0.382717
	H114	H	0.927037	0.076277	0.610484
	H115	H	0.927342	0.898692	0.383190
	H116	H	0.631885	0.082916	0.909365
	H117	H	0.405521	0.080950	0.086628
	H118	H	0.628266	0.905756	0.086815
	H119	H	0.406722	0.899802	0.910244
	C120	C	0.395727	-0.002763	0.619638
	C121	C	0.639797	0.980212	0.618645
	C122	C	0.639566	-0.003984	0.376277
	C123	C	0.396649	0.979933	0.376855
	C124	C	0.637457	0.368108	0.006138
	C125	C	0.638351	0.609196	0.989730
	C126	C	0.395793	0.609307	0.007854
	C127	C	0.396377	0.366438	0.989279
	C128	C	0.024769	0.609975	0.375452
	C129	C	1.008505	0.608804	0.617946
	C130	C	0.024667	0.365832	0.618571
	C131	C	1.007138	0.366467	0.377417
	C132	C	0.895033	0.495327	0.119135
	C133	C	0.138422	0.478342	0.119525
	C134	C	0.139372	0.495526	0.875758
	C135	C	0.896200	0.478896	0.877081
	C136	C	0.138947	0.866701	0.506475
	C137	C	0.138644	0.109232	0.489296
	C138	C	0.897174	0.107971	0.505340
	C139	C	0.896445	0.867222	0.488826
	C140	C	0.526499	0.110247	0.877258
	C141	C	0.510102	0.110458	0.119315
	C142	C	0.526331	0.867579	0.118337
	C143	C	0.509047	0.866567	0.876441
	C144	C	0.397322	0.878374	0.677491
	C145	C	0.640633	0.098225	0.678007
	C146	C	0.640238	0.878122	0.316767
	C147	C	0.397112	0.098791	0.319286
	C148	C	0.698823	0.364762	0.887903
	C149	C	0.700612	0.613384	0.107241
	C150	C	0.337937	0.609493	0.887965
	C151	C	0.338037	0.365691	0.108874
	C152	C	0.906469	0.669418	0.374240
	C153	C	0.127051	0.667159	0.619442
	C154	C	0.907770	0.304637	0.623316
	C155	C	0.125412	0.307075	0.374705
	C156	C	0.907210	0.363694	0.679773
	C157	C	0.127542	0.608081	0.676214
	C158	C	0.905615	0.610467	0.317521
	C159	C	0.125965	0.366680	0.318444
	C160	C	0.394867	0.667911	0.888421
	C161	C	0.642842	0.670992	0.107365
	C162	C	0.641619	0.306817	0.888278
	C163	C	0.395096	0.307299	0.108493
	C164	C	0.699327	0.878604	0.373648
	C165	C	0.699606	0.097896	0.620771
	C166	C	0.338694	0.878315	0.619996
	C167	C	0.338609	0.098471	0.377011
	C168	C	0.893096	0.377768	0.179284
	C169	C	0.138004	0.596417	0.177959
	C170	C	0.139305	0.377705	0.817036
	C171	C	0.895072	0.596794	0.817377
	C172	C	0.196633	0.867121	0.386406
	C173	C	0.196733	0.109347	0.609045
	C174	C	0.835645	0.112234	0.387408
	C175	C	0.835751	0.864579	0.607470
	C176	C	0.409008	0.170521	0.873404
	C177	C	0.627015	0.171957	0.123189
	C178	C	0.407806	0.808663	0.120641
	C179	C	0.626101	0.805433	0.873028
	C180	C	0.407209	0.867708	0.177043
	C181	C	0.627682	0.113123	0.180336
	C182	C	0.408385	0.111186	0.817186
	C183	C	0.627428	0.865497	0.817270
	C184	C	0.892675	0.170190	0.387871
	C185	C	0.140070	0.168222	0.608424
	C186	C	0.139264	0.808984	0.386663
	C187	C	0.894374	0.807517	0.607882
	C188	C	0.197705	0.377512	0.874873
	C189	C	0.197228	0.595961	0.120993
	C190	C	0.834374	0.378258	0.122054
	C191	C	0.835766	0.596106	0.874137
	C192	C	0.418940	0.079630	0.595078
	C193	C	0.615046	0.898247	0.593534
	C194	C	0.614681	0.077860	0.401966
	C195	C	0.420074	0.897233	0.400653
	C196	C	0.611499	0.394214	0.088106
	C197	C	0.611782	0.582999	0.907920
	C198	C	0.419747	0.585722	0.091594
	C199	C	0.420909	0.391125	0.906200
	C200	C	0.107588	0.586333	0.399435
	C201	C	0.925562	0.585532	0.593827
	C202	C	0.106192	0.391083	0.592026
	C203	C	0.925032	0.391135	0.402893
	C204	C	0.920797	0.576773	0.093141
	C205	C	0.114787	0.395977	0.095217
	C206	C	0.115882	0.577930	0.900042
	C207	C	0.921296	0.397312	0.902986
	C208	C	0.115594	0.889879	0.590396
	C209	C	0.114096	0.085008	0.406296
	C210	C	0.923531	0.081790	0.587475
	C211	C	0.921963	0.892188	0.405993
	C212	C	0.608643	0.085291	0.902745
	C213	C	0.428345	0.085280	0.093738
	C214	C	0.608648	0.891803	0.093378
	C215	C	0.426739	0.891323	0.901674
	Zn216	Zn	0.518227	-0.011219	0.747898
	Zn217	Zn	0.518206	-0.011884	0.247417
	Zn218	Zn	0.766717	0.487671	-0.001782
	Zn219	Zn	0.268210	0.487140	-0.001999
	Zn220	Zn	0.017170	0.738228	0.497142
	Zn221	Zn	0.016512	0.237034	0.498140
	Zn222	Zn	0.016632	0.487108	0.746982
	Zn223	Zn	0.015530	0.487164	0.248137
	Zn224	Zn	0.517259	0.737821	-0.001730
	Zn225	Zn	0.517790	0.239135	-0.002135
	Zn226	Zn	0.768475	-0.011580	0.497454
	Zn227	Zn	0.266745	-0.012037	0.497996
	N228	N	0.431647	0.953510	0.677826
	N229	N	0.604430	0.024026	0.677037
	N230	N	0.604291	0.952501	0.317864
	N231	N	0.432094	0.023981	0.318769
	N232	N	0.696442	0.402128	0.962256
	N233	N	0.698063	0.575589	0.033117
	N234	N	0.338300	0.573938	0.963359
	N235	N	0.338701	0.401609	0.033711
	N236	N	0.981731	0.669539	0.409334
	N237	N	0.051838	0.667933	0.584203
	N238	N	0.981795	0.305906	0.586013
	N239	N	0.050294	0.306545	0.410160
	N240	N	0.980941	0.401223	0.676939
	N241	N	0.052690	0.572720	0.675652
	N242	N	0.980261	0.574388	0.317890
	N243	N	0.051453	0.402727	0.319943
	N244	N	0.429914	0.668174	0.964186
	N245	N	0.604681	0.668551	0.033212
	N246	N	0.604309	0.308663	0.962887
	N247	N	0.430361	0.307558	0.032822
	N248	N	0.699106	0.952976	0.409725
	N249	N	0.699332	0.023330	0.585046
	N250	N	0.337535	0.953228	0.584953
	N251	N	0.337725	0.023304	0.411639
	N252	N	0.930021	0.451539	0.177456
	N253	N	0.102329	0.522160	0.177419
	N254	N	0.103963	0.452204	0.817239
	N255	N	0.931681	0.522756	0.818815
	N256	N	0.196649	0.902109	0.461951
	N257	N	0.195904	0.073378	0.533956
	N258	N	0.838604	0.073931	0.461393
	N259	N	0.836956	0.900803	0.532370
	N260	N	0.483482	0.170130	0.909777
	N261	N	0.552756	0.170695	0.086305
	N262	N	0.482907	0.808098	0.085070
	N263	N	0.551189	0.805709	0.908871
	N264	N	0.481957	0.903475	0.175838
	N265	N	0.553986	0.075672	0.178227
	N266	N	0.482530	0.074270	0.819263
	N267	N	0.553605	0.902792	0.819323
	N268	N	0.930519	0.167528	0.462182
	N269	N	0.104788	0.168438	0.532759
	N270	N	0.104226	0.808350	0.462404
	N271	N	0.931304	0.809057	0.533101
	N272	N	0.198124	0.452049	0.910367
	N273	N	0.197786	0.521517	0.085532
	N274	N	0.835375	0.452549	0.085658
	N275	N	0.836294	0.521693	0.910217
	O276	O	1.464836	1.517186	-0.293225
	H277	H	1.474797	1.514883	-0.304854
	H278	H	1.464610	1.514170	-0.296682
	O279	O	-0.172940	-0.043209	0.981554
	H280	H	-0.163075	-0.038468	0.959080
	H281	H	-0.175406	-0.073883	0.992454
	O282	O	0.586572	0.565244	0.304585
	H283	H	0.586361	0.563711	0.311940
	H284	H	0.565367	0.580970	0.304948
	O285	O	0.533840	1.333694	0.542486
	H286	H	0.534954	1.340219	0.530201
	H287	H	0.539373	1.317675	0.549185
	O288	O	0.807816	-0.216213	1.008726
	H289	H	0.796200	-0.216445	1.026369
	H290	H	0.825515	-0.228611	1.014236
	O291	O	0.809826	1.149357	0.787862
	H292	H	0.814272	1.145601	0.804144
	H293	H	0.798514	1.173758	0.781275
	O294	O	-0.200820	-0.003585	-0.180938
	H295	H	-0.196163	0.023581	-0.177806
	H296	H	-0.218003	0.013247	-0.197847
	O297	O	0.960937	0.121683	0.123642
	H298	H	0.973970	0.120447	0.110404
	H299	H	0.955259	0.109659	0.116505
	O300	O	0.026506	-0.225607	0.038269
	H301	H	0.034073	-0.221967	0.031406
	H302	H	0.047035	-0.234636	0.030316
	O303	O	-0.520732	0.441057	-0.715294
	H304	H	-0.499793	0.442203	-0.725587
	H305	H	-0.520908	0.433305	-0.717545
	O306	O	0.820169	-0.205225	0.190387
	H307	H	0.812164	-0.201646	0.187264
	H308	H	0.852677	-0.221526	0.199189
	O309	O	0.063722	0.968027	0.897327
	H310	H	0.091914	0.971832	0.904999
	H311	H	0.059756	0.950194	0.881232
	O312	O	0.722864	0.695954	0.702152
	H313	H	0.745830	0.719548	0.699872
	H314	H	0.722538	0.710670	0.696711
	O315	O	0.224473	0.197873	0.206751
	H316	H	0.252691	0.231973	0.241432
	H317	H	0.175847	0.204692	0.209715
	O318	O	0.795047	0.957780	0.217086
	H319	H	0.789401	0.957100	0.226541
	H320	H	0.778623	0.933798	0.233725
	O321	O	-0.031414	0.936649	0.783993
	H322	H	-0.041459	0.954318	0.785275
	H323	H	-0.030703	0.932412	0.780780
	O324	O	1.166241	-0.108817	1.035209
	H325	H	1.176496	-0.109541	1.034267
	H326	H	1.170288	-0.107679	1.019857
	O327	O	0.330309	0.680016	0.684407
	H328	H	0.351890	0.661833	0.668505
	H329	H	0.348124	0.660464	0.667234
	O330	O	0.027094	1.073042	-0.190784
	H331	H	0.019885	1.071631	-0.189786
	H332	H	0.028202	1.077428	-0.182115
	O333	O	0.155740	-0.174314	0.171117
	H334	H	0.151924	-0.157594	0.152483
	H335	H	0.141667	-0.163514	0.165350
	O336	O	0.027352	1.091151	1.026324
	H337	H	0.027159	1.087169	1.039476
	H338	H	0.033336	1.075342	1.002895
	O339	O	0.314362	0.280986	0.696736
	H340	H	0.328627	0.283434	0.680199
	H341	H	0.296765	0.253319	0.722506
	O342	O	0.003151	0.956746	0.127082
	H343	H	-0.008644	0.959761	0.133298
	H344	H	0.021267	0.943243	0.112911
	O345	O	0.329261	0.444577	0.296784
	H346	H	0.328083	0.429127	0.319069
	H347	H	0.335781	0.441364	0.291380
	O348	O	-0.047134	1.184858	0.811741
	H349	H	-0.046555	1.196958	0.809536
	H350	H	-0.056486	1.185736	0.820638
	O351	O	0.550750	0.664654	1.393520
	H352	H	0.536281	0.649170	1.390129
	H353	H	0.525246	0.665401	1.391765
	O354	O	1.100940	-0.022536	1.149404
	H355	H	1.101781	-0.018676	1.153136
	H356	H	1.087225	-0.032492	1.151998
	O357	O	0.723208	0.503089	0.362186
	H358	H	0.726448	0.518096	0.358367
	H359	H	0.709689	0.508224	0.346936
	O360	O	0.466814	0.296676	0.676196
	H361	H	0.467315	0.309074	0.681416
	H362	H	0.463201	0.294747	0.695020
	O363	O	0.727974	0.689851	0.535386
	H364	H	0.719655	0.688947	0.524401
	H365	H	0.738608	0.710348	0.528553
	O366	O	0.304920	0.455202	0.712836
	H367	H	0.291031	0.430364	0.717862
	H368	H	0.303802	0.443683	0.724325
	O369	O	0.000330	0.092301	0.967929
	H370	H	0.004921	0.086780	0.959179
	H371	H	0.005243	0.093087	0.980858
	O372	O	-0.017674	0.803994	1.173182
	H373	H	-0.012945	0.817068	1.181809
	H374	H	-0.005551	0.795668	1.184909
	O375	O	0.995937	-0.216968	-0.076164
	H376	H	1.006346	-0.213377	-0.087945
	H377	H	1.002426	-0.225267	-0.083094
	O378	O	0.543487	0.424872	0.585135
	H379	H	0.536152	0.427106	0.580955
	H380	H	0.553324	0.444343	0.586237
	O381	O	-0.279897	1.381268	-0.706316
	H382	H	-0.268743	1.392951	-0.709793
	H383	H	-0.273336	1.373484	-0.698570
	O384	O	0.548646	0.704167	0.709097
	H385	H	0.551667	0.709006	0.726294
	H386	H	0.570668	0.703702	0.719178
	O387	O	0.328535	1.287112	1.529301
	H388	H	0.336488	1.285338	1.539636
	H389	H	0.326533	1.274175	1.539282
	O390	O	-0.771383	0.863076	0.792661
	H391	H	-0.754704	0.855377	0.778243
	H392	H	-0.783112	0.875207	0.792426
	O393	O	1.058453	-0.157700	-0.209650
	H394	H	1.044068	-0.158551	-0.223426
	H395	H	1.068581	-0.170747	-0.220125
	O396	O	0.683666	0.534265	0.458516
	H397	H	0.697624	0.532038	0.454710
	H398	H	0.678941	0.530944	0.467892
	O399	O	0.658411	0.295467	0.650780
	H400	H	0.654671	0.303105	0.645871
	H401	H	0.642563	0.302627	0.646642
	O402	O	1.239363	-0.002341	0.855266
	H403	H	1.256314	-0.004553	0.854159
	H404	H	1.237495	-0.010751	0.870264
	O405	O	-0.002765	0.075091	0.021964
	H406	H	0.009715	0.080371	0.020171
	H407	H	0.009361	0.072029	0.013534
	O408	O	0.830011	0.800323	0.813038
	H409	H	0.848576	0.822487	0.829292
	H410	H	0.841144	0.809176	0.841771
	O411	O	1.433948	0.658680	-0.470609
	H412	H	1.425365	0.666237	-0.457830
	H413	H	1.428374	0.664378	-0.458595
	O414	O	0.348021	-0.446844	0.503396
	H415	H	0.335985	-0.447517	0.505682
	H416	H	0.349730	-0.440517	0.496521
	O417	O	0.228899	-0.227184	0.881700
	H418	H	0.236886	-0.194651	0.868392
	H419	H	0.255698	-0.250263	0.851482
	O420	O	1.241717	0.207469	1.031248
	H421	H	1.264599	0.226058	1.043709
	H422	H	1.246076	0.210062	1.062034
	O423	O	1.280842	0.729937	0.258314
	H424	H	1.250385	0.747712	0.230294
	H425	H	1.272216	0.704302	0.247681
	O426	O	0.487787	0.703959	0.284702
	H427	H	0.461111	0.705625	0.290631
	H428	H	0.478926	0.721777	0.267301
	O429	O	0.689585	0.340197	0.521109
	H430	H	0.675913	0.345906	0.537801
	H431	H	0.708698	0.360670	0.528535
	O432	O	1.165298	-0.024040	1.025360
	H433	H	1.164340	-0.017247	1.029390
	H434	H	1.167723	-0.027389	1.034475
	O435	O	0.433521	0.619313	0.421958
	H436	H	0.427346	0.628338	0.409026
	H437	H	0.451918	0.614253	0.424782
	O438	O	0.318665	0.688096	0.487279
	H439	H	0.309603	0.708089	0.470954
	H440	H	0.316936	0.685162	0.459009
	O441	O	1.235695	1.025912	0.215483
	H442	H	1.254385	1.041516	0.237065
	H443	H	1.238827	1.062088	0.218410
	O444	O	0.308012	0.459867	0.461047
	H445	H	0.306890	0.442422	0.472050
	H446	H	0.310386	0.479107	0.483490
	O447	O	0.191922	0.174803	0.822436
	H448	H	0.189939	0.154446	0.848792
	H449	H	0.160980	0.162311	0.827120
	O450	O	0.635283	0.277557	0.377715
	H451	H	0.646540	0.276234	0.381507
	H452	H	0.651729	0.274394	0.383559
	O453	O	0.515272	0.277701	0.367218
	H454	H	0.523569	0.271771	0.354070
	H455	H	0.530758	0.274881	0.364208
	O456	O	0.737098	1.519051	0.717891
	H457	H	0.743971	1.543161	0.728813
	H458	H	0.751442	1.543112	0.732500
	O459	O	0.716896	0.354239	0.429171
	H460	H	0.729127	0.353336	0.428999
	H461	H	0.728916	0.357575	0.460385
	O462	O	0.540597	0.539251	0.437615
	H463	H	0.545998	0.533147	0.440766
	H464	H	0.534931	0.547587	0.430401
	O465	O	0.317187	0.357574	0.322141
	H466	H	0.331592	0.370435	0.339026
	H467	H	0.322362	0.374659	0.336126
	O468	O	-0.113430	1.067365	0.106357
	H469	H	-0.122770	1.055444	0.113321
	H470	H	-0.104158	1.058939	0.089526
	O471	O	0.558060	0.536109	0.602278
	H472	H	0.563466	0.523624	0.602625
	H473	H	0.557830	0.538330	0.594233
	O474	O	1.052068	1.198353	0.211260
	H475	H	1.039711	1.210218	0.224334
	H476	H	1.031594	1.187100	0.206836
	O477	O	-0.190591	0.195203	0.994831
	H478	H	-0.199410	0.196819	1.002757
	H479	H	-0.203334	0.183307	1.006824
