data_Molecule from HDF5

_cell_length_a		16.602765
_cell_length_b		16.658514
_cell_length_c		16.557096
_cell_angle_alpha	90.010690
_cell_angle_beta	90.022542
_cell_angle_gamma	89.905005
_symmetry_space_group_name_H-M	'P 1'
_symmetry_Int_Tables_number		1

loop_
	_symmetry_equiv_pos_as_xyz
	x,y,z

loop_
	_atom_site_label
	_atom_site_type_symbol
	_atom_site_fract_x
	_atom_site_fract_y
	_atom_site_fract_z
	H0	H	0.421805	0.840539	0.708413
	H1	H	0.628188	0.153304	0.706030
	H2	H	0.628160	0.838941	0.268710
	H3	H	0.418659	0.150757	0.264605
	H4	H	0.746040	0.391015	0.832641
	H5	H	0.745558	0.598094	0.145265
	H6	H	0.307114	0.597997	0.830411
	H7	H	0.304089	0.390448	0.144277
	H8	H	0.871028	0.719079	0.380222
	H9	H	0.182086	0.715370	0.592672
	H10	H	0.869859	0.274012	0.591847
	H11	H	0.178659	0.268691	0.375833
	H12	H	0.869267	0.391022	0.707722
	H13	H	0.182382	0.597691	0.707012
	H14	H	0.871091	0.602680	0.263683
	H15	H	0.180282	0.386706	0.262081
	H16	H	0.421150	0.715691	0.830876
	H17	H	0.630528	0.716618	0.143385
	H18	H	0.629675	0.274674	0.832159
	H19	H	0.419069	0.273828	0.144463
	H20	H	0.745791	0.839527	0.384124
	H21	H	0.744281	0.153051	0.589134
	H22	H	0.302984	0.841700	0.594491
	H23	H	0.300283	0.149205	0.378170
	H24	H	0.921635	0.340253	0.210336
	H25	H	0.130210	0.651659	0.208220
	H26	H	0.126072	0.338230	0.770557
	H27	H	0.923165	0.652031	0.769540
	H28	H	0.246360	0.890279	0.330979
	H29	H	0.246191	0.099932	0.642772
	H30	H	0.805658	0.098931	0.329189
	H31	H	0.808748	0.894981	0.644937
	H32	H	0.367955	0.212601	0.885732
	H33	H	0.681908	0.215214	0.091694
	H34	H	0.369921	0.773925	0.093076
	H35	H	0.683353	0.775940	0.885057
	H36	H	0.369990	0.890116	0.209153
	H37	H	0.683010	0.098018	0.206513
	H38	H	0.369234	0.097668	0.768025
	H39	H	0.684670	0.893812	0.771304
	H40	H	0.921351	0.215978	0.329442
	H41	H	0.130888	0.216911	0.642547
	H42	H	0.130988	0.774124	0.331187
	H43	H	0.923744	0.777891	0.644628
	H44	H	0.244806	0.339237	0.885571
	H45	H	0.246354	0.651457	0.091011
	H46	H	0.805612	0.338630	0.093064
	H47	H	0.806370	0.651918	0.885816
	H48	H	0.442154	0.106072	0.579519
	H49	H	0.619938	0.883054	0.577986
	H50	H	0.618100	0.108346	0.398661
	H51	H	0.431135	0.881819	0.396409
	H52	H	0.612375	0.405626	0.100332
	H53	H	0.617998	0.584955	0.875070
	H54	H	0.432964	0.587715	0.101663
	H55	H	0.430230	0.403649	0.873461
	H56	H	0.135715	0.582234	0.401359
	H57	H	0.911375	0.589230	0.579817
	H58	H	0.136172	0.411799	0.578895
	H59	H	0.913965	0.403572	0.400072
	H60	H	0.140134	0.401326	0.580630
	H61	H	0.912383	0.588878	0.576866
	H62	H	0.137797	0.584351	0.396636
	H63	H	0.919840	0.411002	0.406690
	H64	H	0.436485	0.579356	0.098051
	H65	H	0.615051	0.584539	0.876606
	H66	H	0.615053	0.403137	0.101407
	H67	H	0.437298	0.411238	0.878455
	H68	H	0.615563	0.108127	0.394461
	H69	H	0.620119	0.882594	0.581510
	H70	H	0.436634	0.104700	0.570390
	H71	H	0.443349	0.885836	0.394473
	H72	H	0.937399	0.607977	0.082130
	H73	H	0.113670	0.387416	0.070308
	H74	H	0.119178	0.610346	0.892309
	H75	H	0.935717	0.383028	0.898297
	H76	H	0.116157	0.904194	0.600537
	H77	H	0.108935	0.089695	0.374286
	H78	H	0.932702	0.090876	0.600619
	H79	H	0.938269	0.907761	0.375771
	H80	H	0.640200	0.089512	0.897747
	H81	H	0.409985	0.095922	0.075833
	H82	H	0.639069	0.902153	0.077388
	H83	H	0.414048	0.904780	0.898125
	H84	H	0.635164	0.907167	0.072346
	H85	H	0.418285	0.080324	0.068007
	H86	H	0.637711	0.084300	0.900867
	H87	H	0.414105	0.905793	0.898018
	H88	H	0.933185	0.080580	0.597966
	H89	H	0.120141	0.081026	0.373902
	H90	H	0.115919	0.908053	0.599165
	H91	H	0.937347	0.904134	0.373373
	H92	H	0.113579	0.607054	0.895635
	H93	H	0.118293	0.382655	0.076693
	H94	H	0.941334	0.602806	0.073025
	H95	H	0.933087	0.382684	0.897034
	H96	H	0.431751	0.109289	0.579480
	H97	H	0.617663	0.883354	0.580041
	H98	H	0.613446	0.106898	0.398635
	H99	H	0.437636	0.887813	0.405995
	H100	H	0.615619	0.407061	0.101137
	H101	H	0.615697	0.587288	0.874565
	H102	H	0.442529	0.586882	0.098960
	H103	H	0.441388	0.400130	0.876034
	H104	H	0.137427	0.587504	0.400910
	H105	H	0.913403	0.586526	0.579527
	H106	H	0.135264	0.403778	0.570526
	H107	H	0.916552	0.413995	0.395616
	H108	H	0.930739	0.606621	0.073024
	H109	H	0.109521	0.385431	0.078045
	H110	H	0.119789	0.608162	0.899724
	H111	H	0.935553	0.382719	0.895546
	H112	H	0.112412	0.905472	0.599520
	H113	H	0.107345	0.076280	0.378304
	H114	H	0.941479	0.087223	0.596988
	H115	H	0.934621	0.906974	0.374084
	H116	H	0.638145	0.084194	0.894354
	H117	H	0.411686	0.079429	0.086369
	H118	H	0.637598	0.909370	0.080236
	H119	H	0.414122	0.905391	0.897340
	C120	C	0.404895	0.004001	0.608524
	C121	C	0.649030	0.987122	0.609887
	C122	C	0.646769	0.004142	0.366278
	C123	C	0.403885	0.987044	0.365475
	C124	C	0.646377	0.373660	-0.002755
	C125	C	0.647367	0.616684	0.979645
	C126	C	0.405263	0.616350	-0.003935
	C127	C	0.403912	0.373400	0.979449
	C128	C	0.034218	0.617262	0.366535
	C129	C	1.016642	0.617668	0.609577
	C130	C	0.033884	0.373541	0.608759
	C131	C	1.018199	0.375108	0.366545
	C132	C	0.904594	0.503291	0.109230
	C133	C	0.146294	0.487921	0.107550
	C134	C	0.147465	0.504487	0.865706
	C135	C	0.903835	0.486648	0.866596
	C136	C	0.147169	0.873812	0.496204
	C137	C	0.145509	0.115675	0.478347
	C138	C	0.904086	0.117515	0.494739
	C139	C	0.905380	0.875145	0.478365
	C140	C	0.534578	0.116554	0.866582
	C141	C	0.517030	0.116641	0.108912
	C142	C	0.534102	0.873938	0.108928
	C143	C	0.517833	0.874247	0.866828
	C144	C	0.403178	0.887272	0.668534
	C145	C	0.647886	0.105822	0.667175
	C146	C	0.647659	0.886142	0.307906
	C147	C	0.400588	0.103645	0.304517
	C148	C	0.706057	0.372186	0.879323
	C149	C	0.706162	0.617677	0.097887
	C150	C	0.346173	0.617405	0.877777
	C151	C	0.343852	0.371564	0.097213
	C152	C	0.917673	0.678687	0.362393
	C153	C	0.134896	0.675734	0.610926
	C154	C	0.916620	0.313973	0.610493
	C155	C	0.133233	0.311133	0.360237
	C156	C	0.916297	0.372156	0.667985
	C157	C	0.135050	0.617274	0.667908
	C158	C	0.917722	0.620627	0.304719
	C159	C	0.133970	0.369656	0.303375
	C160	C	0.403268	0.675630	0.877826
	C161	C	0.649040	0.676168	0.097339
	C162	C	0.648438	0.314474	0.879158
	C163	C	0.400837	0.313200	0.097095
	C164	C	0.705955	0.886432	0.365343
	C165	C	0.705470	0.105908	0.608857
	C166	C	0.344184	0.887889	0.611704
	C167	C	0.341740	0.103019	0.361253
	C168	C	0.902709	0.386621	0.170076
	C169	C	0.148376	0.605212	0.167462
	C170	C	0.146445	0.385545	0.808981
	C171	C	0.903826	0.604919	0.808765
	C172	C	0.206642	0.871837	0.378115
	C173	C	0.206074	0.118268	0.595937
	C174	C	0.845253	0.118306	0.376334
	C175	C	0.847536	0.875415	0.597342
	C176	C	0.415623	0.174012	0.866285
	C177	C	0.635013	0.175332	0.110189
	C178	C	0.416804	0.814192	0.111092
	C179	C	0.636311	0.815796	0.866333
	C180	C	0.416491	0.872147	0.168623
	C181	C	0.635493	0.117155	0.167403
	C182	C	0.416199	0.116663	0.807981
	C183	C	0.636911	0.874418	0.809575
	C184	C	0.902940	0.176091	0.376418
	C185	C	0.148786	0.176443	0.595634
	C186	C	0.149263	0.814047	0.378244
	C187	C	0.904575	0.817120	0.597254
	C188	C	0.205268	0.386077	0.866004
	C189	C	0.206323	0.604969	0.109530
	C190	C	0.845208	0.385824	0.111710
	C191	C	0.845518	0.604570	0.866392
	C192	C	0.429548	0.085669	0.583584
	C193	C	0.626046	0.904653	0.586635
	C194	C	0.622493	0.086333	0.390282
	C195	C	0.429954	0.906121	0.391684
	C196	C	0.621353	0.398144	0.079460
	C197	C	0.623098	0.592495	0.896974
	C198	C	0.430122	0.591748	0.078053
	C199	C	0.429293	0.398054	0.897438
	C200	C	0.115773	0.591809	0.392287
	C201	C	0.933962	0.594703	0.585603
	C202	C	0.115845	0.398665	0.583892
	C203	C	0.937746	0.402027	0.393448
	C204	C	0.929369	0.584703	0.083457
	C205	C	0.121110	0.406393	0.082181
	C206	C	0.124152	0.587163	0.889252
	C207	C	0.927795	0.404163	0.890162
	C208	C	0.122134	0.898715	0.578254
	C209	C	0.119583	0.089673	0.396627
	C210	C	0.928772	0.093091	0.577046
	C211	C	0.929752	0.899267	0.395998
	C212	C	0.617098	0.092900	0.890807
	C213	C	0.434705	0.092248	0.084068
	C214	C	0.615958	0.899027	0.083824
	C215	C	0.435354	0.898360	0.890864
	Zn216	Zn	0.526654	-0.004605	0.737786
	Zn217	Zn	0.525619	-0.004565	0.237122
	Zn218	Zn	0.774766	0.494622	-0.011170
	Zn219	Zn	0.276649	0.495242	-0.012361
	Zn220	Zn	0.026051	0.745874	0.487734
	Zn221	Zn	0.025548	0.245513	0.486364
	Zn222	Zn	0.025452	0.495205	0.737338
	Zn223	Zn	0.026599	0.495536	0.237869
	Zn224	Zn	0.526317	0.745067	-0.012188
	Zn225	Zn	0.525247	0.245446	-0.011938
	Zn226	Zn	0.776413	-0.003729	0.486574
	Zn227	Zn	0.275211	-0.004646	0.487157
	N228	N	0.440369	0.960688	0.666757
	N229	N	0.613671	0.030835	0.668166
	N230	N	0.611698	0.960441	0.308200
	N231	N	0.438396	0.030419	0.306855
	N232	N	0.705003	0.408173	0.953867
	N233	N	0.705344	0.581421	0.023568
	N234	N	0.347050	0.581343	0.952302
	N235	N	0.345394	0.408165	0.022936
	N236	N	0.991259	0.676711	0.400078
	N237	N	0.060195	0.676342	0.575320
	N238	N	0.990878	0.314644	0.574200
	N239	N	0.060296	0.314498	0.398912
	N240	N	0.990329	0.408599	0.667018
	N241	N	0.060443	0.581882	0.667340
	N242	N	0.991415	0.583195	0.306958
	N243	N	0.061669	0.409107	0.307303
	N244	N	0.439219	0.675467	0.952452
	N245	N	0.613516	0.675712	0.022535
	N246	N	0.612115	0.315138	0.953572
	N247	N	0.437630	0.314151	0.022727
	N248	N	0.705900	0.961054	0.400507
	N249	N	0.706705	0.030997	0.574345
	N250	N	0.345183	0.961482	0.574905
	N251	N	0.343601	0.029488	0.398652
	N252	N	0.938823	0.460645	0.168723
	N253	N	0.111975	0.531312	0.166474
	N254	N	0.111584	0.460296	0.808375
	N255	N	0.939199	0.530427	0.808537
	N256	N	0.205650	0.908193	0.452520
	N257	N	0.204209	0.081119	0.521883
	N258	N	0.845681	0.082659	0.450988
	N259	N	0.847762	0.910795	0.522362
	N260	N	0.490322	0.174395	0.901892
	N261	N	0.560218	0.175299	0.074728
	N262	N	0.490984	0.815140	0.074536
	N263	N	0.561219	0.815397	0.901328
	N264	N	0.490497	0.908547	0.167360
	N265	N	0.560856	0.081466	0.166995
	N266	N	0.491248	0.081985	0.807862
	N267	N	0.562193	0.909903	0.809545
	N268	N	0.938353	0.175995	0.451269
	N269	N	0.112073	0.175055	0.521459
	N270	N	0.113148	0.815003	0.452866
	N271	N	0.939537	0.816418	0.522201
	N272	N	0.206310	0.461087	0.900270
	N273	N	0.205192	0.530962	0.073061
	N274	N	0.846178	0.459491	0.074566
	N275	N	0.845174	0.529828	0.901452
	O276	O	-0.107695	0.878541	-0.037653
	H277	H	-0.107577	0.890455	-0.040267
	H278	H	-0.125069	0.867702	-0.016628
	O279	O	0.632318	0.482163	0.394475
	H280	H	0.632159	0.494318	0.407067
	H281	H	0.640732	0.485842	0.397408
	O282	O	1.048162	0.066112	0.814808
	H283	H	1.039655	0.066364	0.804244
	H284	H	1.029681	0.062125	0.811975
	O285	O	0.060491	1.032013	1.009397
	H286	H	0.060225	1.014006	1.010235
	H287	H	0.057976	1.043355	1.014100
	O288	O	0.614808	0.474412	0.690100
	H289	H	0.613523	0.482613	0.695866
	H290	H	0.617927	0.488267	0.696895
	O291	O	0.373201	0.322471	0.323979
	H292	H	0.365691	0.345812	0.331674
	H293	H	0.388608	0.327911	0.345051
	O294	O	0.729596	0.425508	0.564635
	H295	H	0.734097	0.423191	0.561243
	H296	H	0.732941	0.434960	0.576974
	O297	O	0.449753	0.333147	0.519818
	H298	H	0.451767	0.347438	0.524227
	H299	H	0.452971	0.327524	0.530219
	O300	O	-0.474339	0.353395	0.416444
	H301	H	-0.477155	0.355788	0.420732
	H302	H	-0.470153	0.369705	0.425219
	O303	O	0.304973	0.459587	0.710998
	H304	H	0.284336	0.461493	0.719521
	H305	H	0.303785	0.450724	0.712139
	O306	O	0.312708	0.700990	0.312598
	H307	H	0.322865	0.695656	0.328289
	H308	H	0.295890	0.727830	0.290839
	O309	O	0.741642	0.595038	0.705273
	H310	H	0.756388	0.620052	0.725103
	H311	H	0.729134	0.616123	0.716310
	O312	O	0.564534	0.715057	0.705389
	H313	H	0.573748	0.719966	0.707274
	H314	H	0.552258	0.720057	0.723801
	O315	O	0.801684	1.032649	0.761851
	H316	H	0.773201	1.047049	0.733201
	H317	H	0.802933	1.072991	0.764658
	O318	O	0.312863	0.285185	0.699456
	H319	H	0.279288	0.253949	0.731341
	H320	H	0.320051	0.307278	0.689825
	O321	O	-0.099478	1.125058	1.071872
	H322	H	-0.079375	1.112044	1.074622
	H323	H	-0.102717	1.139221	1.079749
	O324	O	0.809342	1.215157	-0.051233
	H325	H	0.812579	1.211666	-0.027288
	H326	H	0.793748	1.227768	-0.035998
	O327	O	-0.051324	-0.173673	1.090378
	H328	H	-0.027099	-0.179946	1.094944
	H329	H	-0.063842	-0.193888	1.101615
	O330	O	0.329665	0.643262	0.475920
	H331	H	0.338487	0.638871	0.461603
	H332	H	0.327161	0.640006	0.478627
	O333	O	0.227603	0.794876	0.788591
	H334	H	0.242525	0.800524	0.795966
	H335	H	0.214486	0.786178	0.783731
	O336	O	0.720932	0.462269	0.305394
	H337	H	0.727790	0.458864	0.303545
	H338	H	0.732026	0.457508	0.301031
	O339	O	0.982077	-0.017282	1.091925
	H340	H	0.964418	-0.017385	1.095218
	H341	H	0.978471	-0.034491	1.092269
	O342	O	0.175415	-0.153287	0.178889
	H343	H	0.166255	-0.124311	0.172123
	H344	H	0.163320	-0.141591	0.158262
	O345	O	0.239347	0.996515	0.836809
	H346	H	0.240554	0.988703	0.822914
	H347	H	0.239928	0.976942	0.836347
	O348	O	0.337426	0.508579	0.265161
	H349	H	0.340519	0.542729	0.258835
	H350	H	0.321564	0.514066	0.251700
	O351	O	0.560470	0.492055	0.621502
	H352	H	0.564728	0.500561	0.616871
	H353	H	0.560267	0.470550	0.633617
	O354	O	0.012137	-0.138591	0.959757
	H355	H	0.021983	-0.138807	0.961557
	H356	H	0.017028	-0.135965	0.951601
	O357	O	0.752569	0.545554	0.495956
	H358	H	0.756574	0.531972	0.480518
	H359	H	0.739919	0.540047	0.524827
	O360	O	0.526280	0.703029	0.421408
	H361	H	0.512626	0.703155	0.416761
	H362	H	0.530121	0.699430	0.423539
	O363	O	0.052073	-0.214455	-0.225369
	H364	H	0.050979	-0.218057	-0.218221
	H365	H	0.053801	-0.216328	-0.242019
	O366	O	0.484717	0.585346	0.682720
	H367	H	0.468595	0.594824	0.682189
	H368	H	0.487508	0.567225	0.678983
	O369	O	0.806510	-0.037372	0.209772
	H370	H	0.782712	-0.050256	0.232812
	H371	H	0.807853	-0.064147	0.208556
	O372	O	1.016658	1.135085	-0.179584
	H373	H	1.014256	1.149255	-0.188693
	H374	H	0.996592	1.122439	-0.179184
	O375	O	1.237005	-0.035500	0.104205
	H376	H	1.229153	-0.017724	0.108733
	H377	H	1.243057	-0.031855	0.121068
	O378	O	-0.154730	-0.189617	0.800175
	H379	H	-0.141430	-0.178919	0.822964
	H380	H	-0.142366	-0.177607	0.812524
	O381	O	0.244770	0.779559	0.957411
	H382	H	0.259990	0.769708	0.964151
	H383	H	0.247011	0.778687	0.949506
	O384	O	1.043563	-0.028729	1.100677
	H385	H	1.049930	-0.026445	1.086268
	H386	H	1.050034	-0.024127	1.110505
	O387	O	1.085553	1.138013	-0.098437
	H388	H	1.078826	1.147939	-0.090891
	H389	H	1.069832	1.133139	-0.089692
	O390	O	0.488206	0.271793	0.714651
	H391	H	0.480024	0.253536	0.718907
	H392	H	0.465900	0.258405	0.725928
	O393	O	0.511613	0.569887	0.455292
	H394	H	0.503564	0.566394	0.445819
	H395	H	0.501114	0.579642	0.465660
	O396	O	0.023654	0.981364	1.080879
	H397	H	0.030236	0.982091	1.092587
	H398	H	0.028379	0.970734	1.071664
	O399	O	-0.022554	-0.085605	1.193675
	H400	H	-0.001645	-0.083387	1.186522
	H401	H	-0.032902	-0.092445	1.200547
	O402	O	0.741498	0.282180	0.365351
	H403	H	0.755536	0.268906	0.351926
	H404	H	0.724500	0.272962	0.346368
	O405	O	0.946996	0.116303	0.952181
	H406	H	0.929107	0.124514	0.937450
	H407	H	0.939193	0.090795	0.954758
	O408	O	0.216486	0.201733	0.123215
	H409	H	0.230754	0.212656	0.116157
	H410	H	0.208036	0.206507	0.115623
	O411	O	0.619425	0.364386	0.271536
	H412	H	0.610663	0.390043	0.270595
	H413	H	0.598695	0.346062	0.277079
	O414	O	0.432331	0.726469	0.484579
	H415	H	0.432188	0.713597	0.485974
	H416	H	0.415015	0.733403	0.483674
	O417	O	-0.123573	0.197814	0.781373
	H418	H	-0.142808	0.220009	0.760627
	H419	H	-0.121064	0.205702	0.825265
	O420	O	0.024710	0.885420	1.171640
	H421	H	0.021004	0.884302	1.176787
	H422	H	0.012394	0.888204	1.174016
	O423	O	0.210939	0.183843	0.800263
	H424	H	0.190680	0.170366	0.821738
	H425	H	0.193234	0.160423	0.811865
	O426	O	0.579045	0.494693	0.428221
	H427	H	0.590620	0.495238	0.449858
	H428	H	0.558206	0.513626	0.432301
	O429	O	1.090247	0.869094	0.957179
	H430	H	1.090938	0.863003	0.951281
	H431	H	1.091458	0.855761	0.967187
	O432	O	0.303344	0.273121	0.512029
	H433	H	0.293094	0.263642	0.525910
	H434	H	0.304021	0.264258	0.521548
	O435	O	-0.233660	0.738770	0.248939
	H436	H	-0.250224	0.723418	0.263581
	H437	H	-0.245226	0.722645	0.241999
	O438	O	-0.246810	0.270452	-0.280257
	H439	H	-0.262830	0.293527	-0.270472
	H440	H	-0.245375	0.280526	-0.299261
	O441	O	0.241477	0.088568	0.143104
	H442	H	0.245886	0.113649	0.144580
	H443	H	0.262714	0.096944	0.152751
	O444	O	0.471785	0.700689	0.280508
	H445	H	0.485791	0.712308	0.281642
	H446	H	0.461164	0.702370	0.285220
	O447	O	-0.187630	0.781292	1.021953
	H448	H	-0.199848	0.778484	1.040034
	H449	H	-0.188492	0.771307	1.016000
	O450	O	0.151818	1.098407	0.905145
	H451	H	0.134999	1.100187	0.908032
	H452	H	0.146721	1.098729	0.891035
	O453	O	-0.171836	0.096878	1.086070
	H454	H	-0.170427	0.089940	1.101526
	H455	H	-0.153949	0.098732	1.080677
	O456	O	0.100572	0.190059	1.182069
	H457	H	0.099275	0.189581	1.177312
	H458	H	0.096203	0.196261	1.179035
	O459	O	0.634237	0.348220	0.530438
	H460	H	0.648478	0.332008	0.526212
	H461	H	0.642977	0.346394	0.525978
	O462	O	0.564058	0.276825	0.270177
	H463	H	0.550471	0.256805	0.254585
	H464	H	0.544469	0.270316	0.292602
	O465	O	1.021835	-0.045638	-0.194755
	H466	H	1.010478	-0.043860	-0.211721
	H467	H	1.011305	-0.039688	-0.191938
	O468	O	0.330328	0.517558	0.566643
	H469	H	0.326155	0.509581	0.566831
	H470	H	0.338400	0.504674	0.555519
	O471	O	0.482927	0.361446	0.456611
	H472	H	0.482652	0.364608	0.467751
	H473	H	0.483015	0.363416	0.445356
	O474	O	0.504491	0.452408	0.451811
	H475	H	0.495973	0.460052	0.461215
	H476	H	0.494801	0.464488	0.467752
	O477	O	0.348475	0.452882	1.412525
	H478	H	0.359212	0.456070	1.406984
	H479	H	0.346855	0.435558	1.408171
	O480	O	0.652653	0.610197	0.294483
	H481	H	0.651228	0.590455	0.300839
	H482	H	0.648182	0.600184	0.306389
	O483	O	0.343311	0.678492	0.669905
	H484	H	0.358349	0.657948	0.655767
	H485	H	0.338695	0.677954	0.658339
	O486	O	0.689120	0.687399	0.471259
	H487	H	0.700029	0.688141	0.465380
	H488	H	0.698123	0.683245	0.461536
	O489	O	0.737423	0.704005	-0.371244
	H490	H	0.749907	0.724081	-0.374091
	H491	H	0.734589	0.713599	-0.371822
