data_Molecule from HDF5

_cell_length_a		16.358702
_cell_length_b		16.286974
_cell_length_c		16.229660
_cell_angle_alpha	90.032503
_cell_angle_beta	90.161088
_cell_angle_gamma	89.882646
_symmetry_space_group_name_H-M	'P 1'
_symmetry_Int_Tables_number		1

loop_
	_symmetry_equiv_pos_as_xyz
	x,y,z

loop_
	_atom_site_label
	_atom_site_type_symbol
	_atom_site_fract_x
	_atom_site_fract_y
	_atom_site_fract_z
	H0	H	0.403236	0.831680	0.711145
	H1	H	0.597232	0.159087	0.709435
	H2	H	0.597749	0.830728	0.283413
	H3	H	0.403672	0.159407	0.283818
	H4	H	0.713810	0.396118	0.833254
	H5	H	0.715117	0.595795	0.160133
	H6	H	0.284158	0.595386	0.832830
	H7	H	0.284385	0.397220	0.160637
	H8	H	0.837468	0.711585	0.396340
	H9	H	0.162957	0.709239	0.597257
	H10	H	0.836146	0.280034	0.595438
	H11	H	0.161545	0.278751	0.397589
	H12	H	0.835765	0.398411	0.710154
	H13	H	0.163037	0.592396	0.712245
	H14	H	0.835840	0.592188	0.283529
	H15	H	0.161142	0.396058	0.282150
	H16	H	0.401284	0.709258	0.832152
	H17	H	0.595642	0.707402	0.160984
	H18	H	0.596953	0.282051	0.832733
	H19	H	0.400692	0.281439	0.161324
	H20	H	0.716308	0.832192	0.397113
	H21	H	0.715607	0.157814	0.596525
	H22	H	0.286216	0.831662	0.595752
	H23	H	0.282337	0.157798	0.395165
	H24	H	0.900599	0.331378	0.210079
	H25	H	0.096559	0.659774	0.212028
	H26	H	0.095516	0.331007	0.784822
	H27	H	0.902383	0.659175	0.782964
	H28	H	0.215129	0.894517	0.333556
	H29	H	0.214091	0.093276	0.661444
	H30	H	0.783768	0.094150	0.333988
	H31	H	0.786564	0.897121	0.660838
	H32	H	0.337570	0.211405	0.896125
	H33	H	0.662346	0.210947	0.096926
	H34	H	0.336745	0.781643	0.094482
	H35	H	0.662494	0.778907	0.897508
	H36	H	0.337192	0.897678	0.211558
	H37	H	0.663403	0.092757	0.210810
	H38	H	0.336922	0.093112	0.781184
	H39	H	0.663539	0.896935	0.782950
	H40	H	0.901162	0.207304	0.332796
	H41	H	0.098381	0.208550	0.661459
	H42	H	0.098754	0.779282	0.333675
	H43	H	0.903720	0.781859	0.661697
	H44	H	0.215162	0.332563	0.897067
	H45	H	0.214810	0.659016	0.097736
	H46	H	0.783723	0.332437	0.094993
	H47	H	0.784758	0.659742	0.897728
	H48	H	0.409813	0.110540	0.589723
	H49	H	0.588638	0.880212	0.586742
	H50	H	0.589792	0.113319	0.394930
	H51	H	0.408645	0.881750	0.411203
	H52	H	0.596960	0.398542	0.116134
	H53	H	0.592813	0.583454	0.880869
	H54	H	0.412922	0.581429	0.109268
	H55	H	0.409248	0.412975	0.884051
	H56	H	0.118109	0.591494	0.400173
	H57	H	0.888299	0.580571	0.583194
	H58	H	0.113010	0.408597	0.590097
	H59	H	0.883637	0.403041	0.403283
	H60	H	0.118025	0.398096	0.598674
	H61	H	0.881408	0.586867	0.599839
	H62	H	0.114095	0.588578	0.411960
	H63	H	0.881127	0.398893	0.400772
	H64	H	0.409710	0.598788	0.115976
	H65	H	0.587314	0.590111	0.879406
	H66	H	0.594808	0.410053	0.111966
	H67	H	0.413144	0.395256	0.879611
	H68	H	0.588147	0.109068	0.410549
	H69	H	0.600110	0.877637	0.586136
	H70	H	0.406534	0.110413	0.585231
	H71	H	0.400064	0.876572	0.402499
	H72	H	0.909082	0.609842	0.085654
	H73	H	0.091527	0.379517	0.090798
	H74	H	0.088195	0.612442	0.899692
	H75	H	0.907911	0.379970	0.903434
	H76	H	0.091164	0.901664	0.613489
	H77	H	0.097591	0.086374	0.379178
	H78	H	0.908555	0.087134	0.613751
	H79	H	0.913143	0.907259	0.383080
	H80	H	0.613430	0.082813	0.906070
	H81	H	0.384013	0.085343	0.094223
	H82	H	0.618264	0.902689	0.098430
	H83	H	0.386169	0.905612	0.905351
	H84	H	0.617187	0.892829	0.086473
	H85	H	0.382487	0.094579	0.089203
	H86	H	0.618820	0.089849	0.896249
	H87	H	0.383807	0.903449	0.899584
	H88	H	0.906617	0.089630	0.615221
	H89	H	0.089475	0.081530	0.382612
	H90	H	0.095536	0.899662	0.615224
	H91	H	0.908802	0.894812	0.378083
	H92	H	0.090102	0.610353	0.910715
	H93	H	0.089841	0.381687	0.086961
	H94	H	0.900991	0.612744	0.088346
	H95	H	0.903635	0.378995	0.905703
	H96	H	0.404191	0.113829	0.590534
	H97	H	0.594643	0.876401	0.596183
	H98	H	0.603285	0.113605	0.405216
	H99	H	0.412351	0.879181	0.398513
	H100	H	0.585887	0.402076	0.112480
	H101	H	0.595901	0.590806	0.877132
	H102	H	0.396041	0.586185	0.116209
	H103	H	0.396372	0.401269	0.876507
	H104	H	0.113467	0.579957	0.402775
	H105	H	0.883112	0.598476	0.584798
	H106	H	0.114949	0.394718	0.584846
	H107	H	0.882659	0.398395	0.406274
	H108	H	0.907652	0.612325	0.095001
	H109	H	0.094076	0.379757	0.087667
	H110	H	0.098415	0.613891	0.904082
	H111	H	0.904397	0.377323	0.900819
	H112	H	0.095518	0.904388	0.613556
	H113	H	0.088970	0.091350	0.380660
	H114	H	0.905267	0.086808	0.615084
	H115	H	0.900127	0.905357	0.379405
	H116	H	0.615994	0.095549	0.908705
	H117	H	0.386272	0.085924	0.084051
	H118	H	0.612507	0.907284	0.085160
	H119	H	0.384664	0.899860	0.905314
	C120	C	0.378673	0.003610	0.617788
	C121	C	0.622226	0.986201	0.618306
	C122	C	0.621985	0.003489	0.375341
	C123	C	0.378251	0.986852	0.374878
	C124	C	0.620672	0.374661	0.005046
	C125	C	0.620450	0.616579	0.987875
	C126	C	0.377632	0.617228	0.005131
	C127	C	0.377580	0.374288	0.988633
	C128	C	0.007574	0.615824	0.375910
	C129	C	0.992134	0.616481	0.618395
	C130	C	0.007326	0.372865	0.618805
	C131	C	0.990057	0.371747	0.374789
	C132	C	0.877202	0.503768	0.118141
	C133	C	0.120777	0.487799	0.118562
	C134	C	0.120773	0.504075	0.875857
	C135	C	0.877104	0.487182	0.874555
	C136	C	0.122129	0.872703	0.505942
	C137	C	0.121317	0.115935	0.489120
	C138	C	0.878311	0.115907	0.505767
	C139	C	0.879399	0.873930	0.488524
	C140	C	0.508109	0.117458	0.874775
	C141	C	0.491853	0.117061	0.118152
	C142	C	0.508542	0.873386	0.118395
	C143	C	0.492335	0.873598	0.874821
	C144	C	0.381741	0.880455	0.673385
	C145	C	0.618708	0.109860	0.672571
	C146	C	0.618865	0.880062	0.320737
	C147	C	0.381779	0.110291	0.320431
	C148	C	0.675427	0.376381	0.881794
	C149	C	0.676249	0.614884	0.111301
	C150	C	0.321949	0.615486	0.881831
	C151	C	0.322503	0.376657	0.111801
	C152	C	0.885681	0.672404	0.377187
	C153	C	0.114532	0.671031	0.616882
	C154	C	0.884761	0.318110	0.615932
	C155	C	0.112826	0.316659	0.377066
	C156	C	0.884543	0.376852	0.673009
	C157	C	0.114617	0.612830	0.674056
	C158	C	0.884609	0.613152	0.321048
	C159	C	0.112576	0.374500	0.319307
	C160	C	0.380323	0.671835	0.881283
	C161	C	0.617212	0.670699	0.111799
	C162	C	0.617663	0.319416	0.881842
	C163	C	0.380647	0.319545	0.112197
	C164	C	0.677374	0.880521	0.377577
	C165	C	0.677141	0.109317	0.616180
	C166	C	0.323847	0.880485	0.616077
	C167	C	0.321860	0.109382	0.376173
	C168	C	0.880121	0.380527	0.172804
	C169	C	0.117921	0.610575	0.174576
	C170	C	0.116951	0.380197	0.822104
	C171	C	0.881004	0.610652	0.820414
	C172	C	0.177146	0.874501	0.382385
	C173	C	0.176666	0.113979	0.612368
	C174	C	0.822565	0.114014	0.382502
	C175	C	0.824573	0.876235	0.612110
	C176	C	0.385944	0.172672	0.876301
	C177	C	0.614092	0.172512	0.116467
	C178	C	0.385521	0.819101	0.115280
	C179	C	0.614284	0.817668	0.877411
	C180	C	0.385701	0.876465	0.173413
	C181	C	0.614641	0.113654	0.173061
	C182	C	0.385780	0.114241	0.819089
	C183	C	0.614804	0.876309	0.820457
	C184	C	0.880786	0.170282	0.382083
	C185	C	0.118799	0.171135	0.612319
	C186	C	0.119376	0.817289	0.382395
	C187	C	0.882750	0.819221	0.612484
	C188	C	0.176646	0.381231	0.877660
	C189	C	0.176399	0.610565	0.117489
	C190	C	0.821833	0.381149	0.115700
	C191	C	0.822498	0.610615	0.877256
	C192	C	0.400472	0.089244	0.595182
	C193	C	0.600710	0.900294	0.596202
	C194	C	0.600099	0.089743	0.397194
	C195	C	0.400462	0.901234	0.397299
	C196	C	0.598989	0.397109	0.091279
	C197	C	0.598551	0.594454	0.901477
	C198	C	0.399739	0.595312	0.091551
	C199	C	0.399697	0.396520	0.902464
	C200	C	0.093028	0.593244	0.398342
	C201	C	0.906451	0.594873	0.595910
	C202	C	0.093162	0.394212	0.597450
	C203	C	0.904646	0.393831	0.396706
	C204	C	0.899149	0.589529	0.096004
	C205	C	0.098382	0.402417	0.095342
	C206	C	0.098574	0.590067	0.898185
	C207	C	0.898894	0.401039	0.896878
	C208	C	0.100349	0.895215	0.591734
	C209	C	0.098731	0.093159	0.403031
	C210	C	0.900271	0.094154	0.592238
	C211	C	0.900928	0.895954	0.402594
	C212	C	0.594082	0.095679	0.897173
	C213	C	0.406263	0.095081	0.095789
	C214	C	0.593975	0.894742	0.096653
	C215	C	0.406867	0.896361	0.896883
	Zn216	Zn	0.500687	-0.004785	0.745739
	Zn217	Zn	0.500099	-0.004844	0.246707
	Zn218	Zn	0.748660	0.495724	-0.003683
	Zn219	Zn	0.248906	0.496286	-0.003156
	Zn220	Zn	0.000417	0.745493	0.497329
	Zn221	Zn	-0.000892	0.243368	0.497129
	Zn222	Zn	-0.000540	0.495543	0.747469
	Zn223	Zn	-0.001189	0.494906	0.247054
	Zn224	Zn	0.499591	0.744632	-0.003620
	Zn225	Zn	0.499674	0.246099	-0.002830
	Zn226	Zn	0.750545	-0.004843	0.497099
	Zn227	Zn	0.249643	-0.005076	0.496961
	N228	N	0.415094	0.957950	0.674685
	N229	N	0.585148	0.032548	0.673878
	N230	N	0.584937	0.957593	0.319439
	N231	N	0.416020	0.033147	0.319625
	N232	N	0.677427	0.410019	0.959306
	N233	N	0.678404	0.581991	0.033157
	N234	N	0.319914	0.582414	0.959819
	N235	N	0.320410	0.409939	0.033946
	N236	N	0.963115	0.674058	0.410630
	N237	N	0.037317	0.673418	0.583157
	N238	N	0.962156	0.315419	0.583049
	N239	N	0.035660	0.314565	0.410739
	N240	N	0.961812	0.410147	0.675004
	N241	N	0.037324	0.579594	0.675096
	N242	N	0.961437	0.578652	0.320202
	N243	N	0.035413	0.407925	0.317866
	N244	N	0.414079	0.673190	0.959113
	N245	N	0.583248	0.671645	0.034157
	N246	N	0.584121	0.318390	0.959562
	N247	N	0.413945	0.317671	0.034376
	N248	N	0.679594	0.958226	0.410634
	N249	N	0.679550	0.031448	0.583077
	N250	N	0.321771	0.958005	0.582284
	N251	N	0.319345	0.031692	0.409191
	N252	N	0.914263	0.457692	0.174208
	N253	N	0.083831	0.533350	0.175281
	N254	N	0.083037	0.457509	0.820804
	N255	N	0.914245	0.533178	0.818941
	N256	N	0.179234	0.908248	0.460160
	N257	N	0.178171	0.080312	0.534577
	N258	N	0.820958	0.081077	0.460423
	N259	N	0.822307	0.909647	0.534257
	N260	N	0.463073	0.174792	0.910148
	N261	N	0.536842	0.174556	0.082889
	N262	N	0.462793	0.816839	0.081795
	N263	N	0.536997	0.815943	0.910469
	N264	N	0.462820	0.909463	0.175347
	N265	N	0.537365	0.080096	0.174525
	N266	N	0.462922	0.080277	0.818307
	N267	N	0.537978	0.910670	0.819123
	N268	N	0.914933	0.171401	0.459761
	N269	N	0.085070	0.172327	0.534646
	N270	N	0.086165	0.816034	0.460070
	N271	N	0.916128	0.817717	0.534834
	N272	N	0.178809	0.459167	0.910464
	N273	N	0.178262	0.533111	0.083518
	N274	N	0.820043	0.458603	0.082378
	N275	N	0.820128	0.532665	0.910446
	O276	O	1.052474	1.041099	0.062621
	H277	H	1.063459	1.038171	0.057372
	H278	H	1.059989	1.032759	0.069483
	O279	O	0.046733	0.094817	0.050944
	H280	H	0.047245	0.098193	0.042985
	H281	H	0.051268	0.095119	0.050881
	O282	O	0.094075	0.107501	1.139876
	H283	H	0.095371	0.121139	1.156681
	H284	H	0.086835	0.109592	1.133677
	O285	O	0.410951	0.518806	0.460391
	H286	H	0.412887	0.524216	0.456962
	H287	H	0.408932	0.521464	0.454303
	O288	O	0.455190	0.479735	0.499179
	H289	H	0.452489	0.479588	0.496287
	H290	H	0.455542	0.475021	0.498248
	O291	O	0.463923	0.426601	0.516254
	H292	H	0.456708	0.424691	0.527013
	H293	H	0.457120	0.422151	0.525479
	O294	O	0.104625	0.023211	0.064163
	H295	H	0.116983	0.036470	0.069526
	H296	H	0.095434	0.027033	0.064532
	O297	O	0.465842	0.545573	0.502670
	H298	H	0.470990	0.548102	0.491656
	H299	H	0.458782	0.551588	0.505872
	O300	O	0.041636	1.101676	1.040628
	H301	H	0.048921	1.105329	1.048654
	H302	H	0.032917	1.098428	1.038834
	O303	O	0.477254	0.508790	0.469404
	H304	H	0.481671	0.506255	0.461667
	H305	H	0.468407	0.504149	0.474819
	O306	O	0.025757	0.019010	1.009034
	H307	H	0.022841	0.006645	1.015420
	H308	H	0.022126	0.018969	1.001101
	O309	O	1.094389	0.977750	1.053890
	H310	H	1.097408	0.981589	1.054351
	H311	H	1.091606	0.983575	1.056748
	O312	O	0.428313	0.496000	0.470947
	H313	H	0.432366	0.493840	0.473208
	H314	H	0.425988	0.496751	0.472322
	O315	O	0.452306	0.477638	0.534587
	H316	H	0.456052	0.478980	0.546131
	H317	H	0.448863	0.487934	0.532807
	O318	O	0.092607	1.015379	0.005004
	H319	H	0.100089	1.020762	0.017313
	H320	H	0.101968	1.022630	0.013675
	O321	O	1.006918	1.045560	0.046527
	H322	H	1.003196	1.047148	0.040884
	H323	H	1.003760	1.036760	0.042523
