data_Molecule from HDF5

_cell_length_a		16.174972
_cell_length_b		16.335482
_cell_length_c		16.317366
_cell_angle_alpha	89.865611
_cell_angle_beta	89.616571
_cell_angle_gamma	89.266542
_symmetry_space_group_name_H-M	'P 1'
_symmetry_Int_Tables_number		1

loop_
	_symmetry_equiv_pos_as_xyz
	x,y,z

loop_
	_atom_site_label
	_atom_site_type_symbol
	_atom_site_fract_x
	_atom_site_fract_y
	_atom_site_fract_z
	H0	H	0.392051	0.839798	0.716619
	H1	H	0.591966	0.163065	0.715563
	H2	H	0.597105	0.838549	0.284108
	H3	H	0.391298	0.163132	0.279740
	H4	H	0.716337	0.399188	0.838120
	H5	H	0.705430	0.594707	0.165221
	H6	H	0.280756	0.600453	0.837091
	H7	H	0.280473	0.399682	0.163199
	H8	H	0.830511	0.720621	0.403570
	H9	H	0.158878	0.717774	0.600676
	H10	H	0.829766	0.290726	0.604521
	H11	H	0.156728	0.284570	0.400616
	H12	H	0.831666	0.405612	0.719944
	H13	H	0.160137	0.601285	0.715176
	H14	H	0.830933	0.606260	0.286058
	H15	H	0.158510	0.401749	0.286933
	H16	H	0.393760	0.719127	0.837730
	H17	H	0.596101	0.717470	0.161803
	H18	H	0.601538	0.282535	0.837236
	H19	H	0.395723	0.281112	0.160965
	H20	H	0.715671	0.841302	0.397246
	H21	H	0.702216	0.167104	0.594050
	H22	H	0.278801	0.839503	0.599854
	H23	H	0.277566	0.165151	0.399879
	H24	H	0.896761	0.339846	0.220911
	H25	H	0.094521	0.664603	0.216308
	H26	H	0.100522	0.339993	0.782413
	H27	H	0.893022	0.664426	0.787148
	H28	H	0.211969	0.901124	0.337789
	H29	H	0.207966	0.101571	0.662556
	H30	H	0.780747	0.103992	0.335239
	H31	H	0.778319	0.908906	0.663103
	H32	H	0.334166	0.222732	0.897068
	H33	H	0.660148	0.210680	0.097116
	H34	H	0.331748	0.786951	0.099487
	H35	H	0.658816	0.781406	0.896419
	H36	H	0.332816	0.899254	0.217500
	H37	H	0.659030	0.096969	0.212422
	H38	H	0.330177	0.103728	0.786362
	H39	H	0.657952	0.897527	0.780156
	H40	H	0.890913	0.224402	0.338340
	H41	H	0.090992	0.217136	0.662940
	H42	H	0.098326	0.783691	0.339735
	H43	H	0.891444	0.788294	0.663611
	H44	H	0.214773	0.338037	0.901275
	H45	H	0.209541	0.664284	0.098503
	H46	H	0.785235	0.336093	0.101137
	H47	H	0.777315	0.662256	0.903354
	H48	H	0.395577	0.119443	0.591904
	H49	H	0.588550	0.885368	0.592700
	H50	H	0.582049	0.115969	0.406409
	H51	H	0.395950	0.883077	0.405368
	H52	H	0.589065	0.410312	0.114035
	H53	H	0.585094	0.586434	0.886440
	H54	H	0.408393	0.598666	0.116455
	H55	H	0.412507	0.414221	0.887731
	H56	H	0.109365	0.598688	0.420191
	H57	H	0.877424	0.592339	0.602658
	H58	H	0.114739	0.401437	0.595697
	H59	H	0.877188	0.410815	0.413601
	H60	H	0.108184	0.408358	0.582737
	H61	H	0.876612	0.603735	0.593798
	H62	H	0.108023	0.581040	0.407082
	H63	H	0.878668	0.418551	0.410729
	H64	H	0.396359	0.596224	0.118472
	H65	H	0.584206	0.594528	0.885135
	H66	H	0.582881	0.399119	0.115677
	H67	H	0.409719	0.405337	0.883808
	H68	H	0.589965	0.119812	0.403760
	H69	H	0.582467	0.887699	0.588437
	H70	H	0.402643	0.118550	0.596264
	H71	H	0.410474	0.886196	0.401322
	H72	H	0.899653	0.615801	0.091728
	H73	H	0.096776	0.384003	0.092904
	H74	H	0.086408	0.615692	0.909878
	H75	H	0.905226	0.386613	0.917079
	H76	H	0.086264	0.904323	0.617833
	H77	H	0.082344	0.098249	0.384448
	H78	H	0.902581	0.100001	0.614589
	H79	H	0.909867	0.905821	0.384747
	H80	H	0.612015	0.091032	0.907570
	H81	H	0.379458	0.085732	0.094864
	H82	H	0.608416	0.913139	0.084486
	H83	H	0.381421	0.913505	0.913495
	H84	H	0.615587	0.908432	0.098582
	H85	H	0.375413	0.099996	0.091363
	H86	H	0.611145	0.085731	0.905313
	H87	H	0.376971	0.912250	0.901700
	H88	H	0.893409	0.102587	0.618530
	H89	H	0.087232	0.094944	0.384085
	H90	H	0.090483	0.916054	0.616162
	H91	H	0.898304	0.911164	0.382254
	H92	H	0.088987	0.616856	0.908086
	H93	H	0.085216	0.384834	0.101653
	H94	H	0.897597	0.617755	0.095698
	H95	H	0.904117	0.382263	0.902614
	H96	H	0.401990	0.114936	0.588844
	H97	H	0.588830	0.886985	0.585425
	H98	H	0.583210	0.119408	0.397696
	H99	H	0.405296	0.889989	0.415811
	H100	H	0.595874	0.399638	0.119429
	H101	H	0.591815	0.590859	0.883792
	H102	H	0.403880	0.587748	0.113086
	H103	H	0.402949	0.413290	0.883871
	H104	H	0.116202	0.599807	0.399181
	H105	H	0.882732	0.592277	0.588426
	H106	H	0.110144	0.417481	0.595736
	H107	H	0.875238	0.412377	0.405604
	H108	H	0.902115	0.617220	0.094984
	H109	H	0.083581	0.389082	0.087942
	H110	H	0.085308	0.616621	0.906913
	H111	H	0.917403	0.388178	0.907844
	H112	H	0.079031	0.912667	0.613496
	H113	H	0.082240	0.091984	0.385276
	H114	H	0.895154	0.092687	0.614806
	H115	H	0.908405	0.918047	0.387642
	H116	H	0.612845	0.090079	0.901296
	H117	H	0.381756	0.091265	0.081042
	H118	H	0.614260	0.898163	0.086229
	H119	H	0.376487	0.902471	0.909770
	C120	C	0.370850	0.010402	0.621559
	C121	C	0.614276	0.994004	0.618090
	C122	C	0.616574	0.011049	0.374865
	C123	C	0.372568	0.993291	0.377013
	C124	C	0.620681	0.374637	0.008992
	C125	C	0.616061	0.619695	0.992570
	C126	C	0.373486	0.623512	0.008387
	C127	C	0.377380	0.380125	0.992061
	C128	C	0.003061	0.624470	0.379817
	C129	C	0.987151	0.624483	0.623334
	C130	C	0.002999	0.381462	0.622594
	C131	C	0.985606	0.382788	0.380771
	C132	C	0.873251	0.509302	0.123883
	C133	C	0.117087	0.493383	0.122561
	C134	C	0.118663	0.509601	0.878346
	C135	C	0.876274	0.492647	0.880795
	C136	C	0.116274	0.880610	0.508950
	C137	C	0.113069	0.123732	0.491825
	C138	C	0.869384	0.127815	0.508212
	C139	C	0.873563	0.882831	0.492308
	C140	C	0.503820	0.121611	0.876710
	C141	C	0.487161	0.120272	0.118670
	C142	C	0.504426	0.878700	0.119961
	C143	C	0.486217	0.878134	0.876893
	C144	C	0.372487	0.888228	0.678121
	C145	C	0.611547	0.115471	0.675590
	C146	C	0.616980	0.887719	0.321046
	C147	C	0.372426	0.115097	0.319591
	C148	C	0.678216	0.377917	0.886745
	C149	C	0.669462	0.616227	0.115577
	C150	C	0.317784	0.621602	0.886151
	C151	C	0.319460	0.380210	0.114386
	C152	C	0.879606	0.682052	0.382498
	C153	C	0.110148	0.679932	0.621118
	C154	C	0.879149	0.328281	0.623016
	C155	C	0.108173	0.324062	0.381354
	C156	C	0.880364	0.384999	0.680824
	C157	C	0.110797	0.621936	0.678088
	C158	C	0.879791	0.625111	0.324311
	C159	C	0.109011	0.382000	0.324503
	C160	C	0.374099	0.680542	0.886458
	C161	C	0.615004	0.677462	0.113910
	C162	C	0.621356	0.319612	0.886487
	C163	C	0.376950	0.321485	0.113442
	C164	C	0.675811	0.889131	0.377212
	C165	C	0.666409	0.117482	0.615130
	C166	C	0.316122	0.888228	0.619911
	C167	C	0.315731	0.116081	0.379236
	C168	C	0.876260	0.387643	0.181776
	C169	C	0.114225	0.615977	0.177645
	C170	C	0.119715	0.388134	0.821245
	C171	C	0.874514	0.615368	0.825310
	C172	C	0.173913	0.881287	0.386838
	C173	C	0.169656	0.121854	0.613916
	C174	C	0.816613	0.125374	0.384955
	C175	C	0.816199	0.887011	0.614571
	C176	C	0.382078	0.182254	0.878064
	C177	C	0.611011	0.173889	0.116992
	C178	C	0.381003	0.823845	0.119658
	C179	C	0.609615	0.820605	0.876908
	C180	C	0.381371	0.880061	0.177909
	C181	C	0.610300	0.117522	0.174687
	C182	C	0.379974	0.122739	0.823162
	C183	C	0.609090	0.878352	0.819203
	C184	C	0.871500	0.185254	0.386547
	C185	C	0.111161	0.179109	0.614343
	C186	C	0.117673	0.822441	0.387841
	C187	C	0.872605	0.826973	0.614705
	C188	C	0.176247	0.387034	0.880401
	C189	C	0.171659	0.615778	0.119188
	C190	C	0.820938	0.385756	0.122076
	C191	C	0.816737	0.614423	0.882995
	C192	C	0.393520	0.095470	0.598889
	C193	C	0.592800	0.908871	0.595376
	C194	C	0.592053	0.096197	0.396416
	C195	C	0.396769	0.908397	0.400428
	C196	C	0.596367	0.396484	0.094220
	C197	C	0.593698	0.596963	0.907046
	C198	C	0.396303	0.600878	0.093856
	C199	C	0.401455	0.404014	0.907205
	C200	C	0.088951	0.600281	0.402262
	C201	C	0.901208	0.602546	0.601335
	C202	C	0.088807	0.402715	0.598303
	C203	C	0.899343	0.406865	0.403386
	C204	C	0.893856	0.594569	0.100957
	C205	C	0.095005	0.408151	0.100668
	C206	C	0.094097	0.594522	0.901576
	C207	C	0.901575	0.407771	0.902835
	C208	C	0.092088	0.904161	0.593933
	C209	C	0.090419	0.101546	0.406548
	C210	C	0.890763	0.104984	0.593880
	C211	C	0.898319	0.905098	0.407105
	C212	C	0.589604	0.096393	0.898346
	C213	C	0.401215	0.098765	0.095813
	C214	C	0.590280	0.900425	0.096659
	C215	C	0.400483	0.902392	0.900933
	Zn216	Zn	0.493461	0.000517	0.748742
	Zn217	Zn	0.494747	0.000627	0.247293
	Zn218	Zn	0.746049	0.498819	0.001333
	Zn219	Zn	0.246750	0.500594	0.000810
	Zn220	Zn	-0.004685	0.752399	0.501468
	Zn221	Zn	-0.007789	0.254061	0.500950
	Zn222	Zn	-0.003707	0.502503	0.750551
	Zn223	Zn	-0.005211	0.502711	0.251921
	Zn224	Zn	0.495803	0.750939	-0.000583
	Zn225	Zn	0.497391	0.248433	-0.001406
	Zn226	Zn	0.743656	0.004448	0.497485
	Zn227	Zn	0.243398	0.002534	0.499824
	N228	N	0.405887	0.965238	0.679519
	N229	N	0.579862	0.037722	0.677738
	N230	N	0.580951	0.964377	0.319329
	N231	N	0.407267	0.037837	0.318323
	N232	N	0.678079	0.411177	0.963975
	N233	N	0.669926	0.580894	0.039122
	N234	N	0.317347	0.586881	0.962944
	N235	N	0.320221	0.416413	0.038066
	N236	N	0.957447	0.682024	0.416135
	N237	N	0.032162	0.681953	0.588000
	N238	N	0.956493	0.325777	0.587424
	N239	N	0.030136	0.324612	0.415617
	N240	N	0.958425	0.417199	0.680862
	N241	N	0.033223	0.588548	0.679855
	N242	N	0.957536	0.590076	0.322644
	N243	N	0.031813	0.417967	0.324428
	N244	N	0.408052	0.681833	0.963603
	N245	N	0.582410	0.679504	0.036238
	N246	N	0.586080	0.317699	0.963467
	N247	N	0.412213	0.321425	0.036571
	N248	N	0.675737	0.966683	0.410003
	N249	N	0.668205	0.040997	0.580184
	N250	N	0.314989	0.965161	0.585474
	N251	N	0.315792	0.039414	0.414332
	N252	N	0.907751	0.465342	0.183189
	N253	N	0.081014	0.538725	0.180148
	N254	N	0.084707	0.465366	0.819827
	N255	N	0.910897	0.538905	0.823850
	N256	N	0.173052	0.916780	0.463299
	N257	N	0.170937	0.088086	0.536823
	N258	N	0.815080	0.090437	0.461708
	N259	N	0.816789	0.920840	0.537340
	N260	N	0.460166	0.181509	0.910658
	N261	N	0.533383	0.175744	0.082815
	N262	N	0.458516	0.822848	0.084165
	N263	N	0.532276	0.820446	0.911923
	N264	N	0.459088	0.913226	0.178414
	N265	N	0.532463	0.084800	0.175741
	N266	N	0.456856	0.085824	0.821905
	N267	N	0.531142	0.913512	0.819045
	N268	N	0.903573	0.186865	0.464365
	N269	N	0.076716	0.180364	0.537472
	N270	N	0.082459	0.822245	0.464708
	N271	N	0.907658	0.824374	0.537721
	N272	N	0.175595	0.463559	0.915211
	N273	N	0.173561	0.538657	0.085727
	N274	N	0.818711	0.462300	0.086792
	N275	N	0.817611	0.537100	0.916652
	O276	O	1.101053	-0.107567	0.925448
	H277	H	1.119831	-0.119006	0.939170
	H278	H	1.094767	-0.096393	0.940861
	O279	O	0.500143	0.491690	0.400472
	H280	H	0.494160	0.494109	0.392272
	H281	H	0.488128	0.501888	0.396737
	O282	O	0.477351	0.465502	0.461477
	H283	H	0.486807	0.470740	0.457775
	H284	H	0.473260	0.462564	0.464779
	O285	O	0.596764	0.421719	0.481054
	H286	H	0.600301	0.423563	0.487659
	H287	H	0.589523	0.418316	0.471176
	O288	O	0.429827	0.588524	0.441971
	H289	H	0.421301	0.583437	0.448147
	H290	H	0.425652	0.588072	0.441835
	O291	O	0.042850	0.087227	0.887060
	H292	H	0.037519	0.084039	0.879501
	H293	H	0.039748	0.081823	0.877378
	O294	O	0.949669	0.890521	-0.078990
	H295	H	0.961900	0.885645	-0.079120
	H296	H	0.962123	0.876706	-0.086624
	O297	O	1.002816	0.983215	0.009553
	H298	H	1.011788	0.993234	0.004107
	H299	H	1.004186	0.972668	0.008467
	O300	O	0.504126	0.627739	0.520254
	H301	H	0.521183	0.636086	0.532556
	H302	H	0.510027	0.622372	0.516481
	O303	O	0.423685	0.502328	0.426490
	H304	H	0.421058	0.510379	0.419732
	H305	H	0.413801	0.502414	0.438162
	O306	O	0.567035	0.619242	0.567266
	H307	H	0.573247	0.618351	0.560388
	H308	H	0.566436	0.615470	0.567943
	O309	O	0.478635	0.420527	0.443527
	H310	H	0.472228	0.427773	0.439935
	H311	H	0.473686	0.422628	0.454124
	O312	O	0.910177	0.935845	0.950165
	H313	H	0.903169	0.934450	0.942313
	H314	H	0.908826	0.912646	0.962825
	O315	O	1.114145	0.947275	0.076931
	H316	H	1.106928	0.961802	0.080035
	H317	H	1.123392	0.952429	0.096910
	O318	O	0.460389	0.471603	0.491950
	H319	H	0.450513	0.467124	0.486742
	H320	H	0.442200	0.468616	0.495290
	O321	O	0.427512	0.600757	0.372491
	H322	H	0.432588	0.610854	0.372507
	H323	H	0.411072	0.609276	0.370099
	O324	O	-0.045520	0.874576	1.027061
	H325	H	-0.036546	0.872252	1.030370
	H326	H	-0.050186	0.879423	1.035426
	O327	O	-0.112959	1.089183	0.869620
	H328	H	-0.119199	1.084506	0.865120
	H329	H	-0.113970	1.096371	0.868231
	O330	O	0.054555	0.113146	0.092638
	H331	H	0.045445	0.121758	0.086628
	H332	H	0.037215	0.115369	0.083406
	O333	O	0.366151	0.555677	0.598496
	H334	H	0.368647	0.543150	0.602149
	H335	H	0.370360	0.563691	0.589424
	O336	O	-0.050012	-0.107565	0.027658
	H337	H	-0.043230	-0.107831	0.032846
	H338	H	-0.052407	-0.102085	0.021254
	O339	O	0.007498	0.157177	0.062351
	H340	H	0.007201	0.165268	0.073353
	H341	H	-0.006576	0.140348	0.062844
	O342	O	0.488406	0.416150	0.533395
	H343	H	0.499307	0.397713	0.538588
	H344	H	0.492849	0.410215	0.524213
	O345	O	0.050132	0.971316	1.056964
	H346	H	0.056615	0.973311	1.044504
	H347	H	0.058498	0.979555	1.067831
	O348	O	0.493990	0.375055	0.605374
	H349	H	0.489584	0.373453	0.604719
	H350	H	0.492573	0.372007	0.603524
	O351	O	0.589165	0.451356	0.565506
	H352	H	0.590292	0.440473	0.573024
	H353	H	0.592677	0.450153	0.566390
	O354	O	-0.113550	0.923412	0.114629
	H355	H	-0.118855	0.920929	0.118808
	H356	H	-0.107899	0.920929	0.115927
	O357	O	0.461954	0.477851	0.550211
	H358	H	0.470539	0.482121	0.533802
	H359	H	0.459399	0.481348	0.551959
	O360	O	0.997861	0.099482	1.003409
	H361	H	0.991452	0.104858	1.005997
	H362	H	0.992205	0.102210	1.001347
	O363	O	0.577326	0.462055	0.528575
	H364	H	0.566697	0.453796	0.533451
	H365	H	0.581398	0.462669	0.526932
	O366	O	0.447405	0.576884	0.589199
	H367	H	0.446544	0.569526	0.592560
	H368	H	0.447577	0.570765	0.599301
	O369	O	1.044356	0.056476	-0.137919
	H370	H	1.036437	0.055116	-0.144432
	H371	H	1.047394	0.036430	-0.143811
	O372	O	0.517660	0.519951	0.595464
	H373	H	0.524062	0.532427	0.597640
	H374	H	0.507539	0.516946	0.594243
	O375	O	1.044503	0.056590	0.920352
	H376	H	1.040795	0.050984	0.916265
	H377	H	1.047074	0.045749	0.927930
	O378	O	-0.060247	1.095695	-0.012182
	H379	H	-0.063734	1.093185	-0.023586
	H380	H	-0.062602	1.097688	-0.033212
	O381	O	0.598070	0.655330	0.567458
	H382	H	0.607780	0.654946	0.576396
	H383	H	0.610228	0.650891	0.563160
	O384	O	1.012383	0.920959	0.082668
	H385	H	1.003790	0.922476	0.076221
	H386	H	1.017422	0.909316	0.090303
	O387	O	1.085371	-0.089709	0.990758
	H388	H	1.088863	-0.077749	1.001366
	H389	H	1.083542	-0.072715	0.994836
	O390	O	0.949810	1.124473	0.065757
	H391	H	0.948210	1.122889	0.062000
	H392	H	0.934025	1.126873	0.063026
	O393	O	0.533454	0.430165	0.372317
	H394	H	0.538664	0.424894	0.376781
	H395	H	0.528984	0.437623	0.351725
