data_Molecule from HDF5

_cell_length_a		16.274748
_cell_length_b		16.242394
_cell_length_c		16.291575
_cell_angle_alpha	89.975991
_cell_angle_beta	90.218609
_cell_angle_gamma	89.797349
_symmetry_space_group_name_H-M	'P 1'
_symmetry_Int_Tables_number		1

loop_
	_symmetry_equiv_pos_as_xyz
	x,y,z

loop_
	_atom_site_label
	_atom_site_type_symbol
	_atom_site_fract_x
	_atom_site_fract_y
	_atom_site_fract_z
	H0	H	0.404325	0.834252	0.709668
	H1	H	0.600823	0.162751	0.708880
	H2	H	0.603273	0.834709	0.279850
	H3	H	0.402578	0.161894	0.280173
	H4	H	0.717280	0.399206	0.830497
	H5	H	0.718586	0.598076	0.157676
	H6	H	0.286032	0.598452	0.831573
	H7	H	0.288888	0.400584	0.158771
	H8	H	0.838633	0.713652	0.395326
	H9	H	0.166458	0.711861	0.595320
	H10	H	0.837741	0.284078	0.591550
	H11	H	0.166031	0.282328	0.397713
	H12	H	0.838233	0.398403	0.708820
	H13	H	0.166079	0.595189	0.711244
	H14	H	0.838808	0.596148	0.279666
	H15	H	0.166976	0.398234	0.282221
	H16	H	0.403755	0.712212	0.830335
	H17	H	0.601900	0.713385	0.158393
	H18	H	0.601028	0.282998	0.830799
	H19	H	0.404161	0.283747	0.158060
	H20	H	0.717950	0.834279	0.396715
	H21	H	0.717135	0.161839	0.594691
	H22	H	0.288973	0.833558	0.593358
	H23	H	0.286335	0.161458	0.395354
	H24	H	0.904960	0.333502	0.208691
	H25	H	0.102256	0.660956	0.211308
	H26	H	0.102064	0.333565	0.782219
	H27	H	0.902887	0.660887	0.778166
	H28	H	0.216969	0.897387	0.331327
	H29	H	0.217796	0.095876	0.657797
	H30	H	0.785961	0.097222	0.331444
	H31	H	0.788609	0.898632	0.658979
	H32	H	0.338731	0.213900	0.895916
	H33	H	0.666586	0.211357	0.093107
	H34	H	0.338372	0.783665	0.092362
	H35	H	0.665929	0.782670	0.895996
	H36	H	0.338728	0.899270	0.209255
	H37	H	0.665376	0.098107	0.211384
	H38	H	0.338531	0.097438	0.780112
	H39	H	0.666688	0.899698	0.781421
	H40	H	0.902703	0.211693	0.331066
	H41	H	0.101043	0.211544	0.658666
	H42	H	0.100993	0.782592	0.331233
	H43	H	0.904549	0.782515	0.658848
	H44	H	0.217666	0.334483	0.897517
	H45	H	0.216316	0.662858	0.094389
	H46	H	0.788439	0.334285	0.093276
	H47	H	0.787786	0.662262	0.894565
	H48	H	0.412737	0.113896	0.588426
	H49	H	0.588998	0.881349	0.594198
	H50	H	0.584612	0.111884	0.401914
	H51	H	0.413554	0.880988	0.396804
	H52	H	0.588580	0.394072	0.110651
	H53	H	0.591934	0.589280	0.880096
	H54	H	0.407477	0.595624	0.112557
	H55	H	0.407148	0.403064	0.876543
	H56	H	0.120346	0.590085	0.397607
	H57	H	0.888336	0.587052	0.583513
	H58	H	0.117782	0.403286	0.585460
	H59	H	0.884189	0.409958	0.391437
	H60	H	0.118193	0.406695	0.591090
	H61	H	0.886570	0.588229	0.589520
	H62	H	0.118934	0.593322	0.406038
	H63	H	0.882941	0.393437	0.402087
	H64	H	0.406829	0.586704	0.110505
	H65	H	0.594560	0.597154	0.876831
	H66	H	0.610197	0.405504	0.114595
	H67	H	0.406503	0.409805	0.878767
	H68	H	0.598866	0.112742	0.411974
	H69	H	0.593941	0.885008	0.579336
	H70	H	0.407600	0.113747	0.583314
	H71	H	0.412818	0.883604	0.407560
	H72	H	0.903781	0.612710	0.075498
	H73	H	0.093418	0.383524	0.084956
	H74	H	0.095413	0.615196	0.904003
	H75	H	0.903919	0.379047	0.902157
	H76	H	0.096865	0.907762	0.610335
	H77	H	0.085106	0.089966	0.381355
	H78	H	0.914020	0.088205	0.609514
	H79	H	0.903183	0.898726	0.375508
	H80	H	0.619111	0.088392	0.897797
	H81	H	0.386384	0.091898	0.084193
	H82	H	0.616773	0.909812	0.086290
	H83	H	0.384987	0.902603	0.904268
	H84	H	0.619683	0.905366	0.092744
	H85	H	0.386118	0.089441	0.089432
	H86	H	0.621319	0.095859	0.901094
	H87	H	0.388292	0.910836	0.903009
	H88	H	0.909055	0.096650	0.612850
	H89	H	0.098037	0.098304	0.374815
	H90	H	0.093206	0.903509	0.611048
	H91	H	0.905666	0.914214	0.380652
	H92	H	0.092995	0.614386	0.899853
	H93	H	0.101669	0.380308	0.086436
	H94	H	0.904286	0.619784	0.098328
	H95	H	0.913435	0.380495	0.896469
	H96	H	0.405397	0.116464	0.590710
	H97	H	0.604569	0.878653	0.589949
	H98	H	0.599508	0.118676	0.395584
	H99	H	0.404440	0.879408	0.402978
	H100	H	0.590843	0.418828	0.105516
	H101	H	0.600405	0.589651	0.877457
	H102	H	0.415157	0.592189	0.109812
	H103	H	0.412928	0.406286	0.879716
	H104	H	0.117183	0.585239	0.404603
	H105	H	0.886796	0.592292	0.585168
	H106	H	0.119828	0.400635	0.590094
	H107	H	0.890881	0.410349	0.409676
	H108	H	0.923628	0.610712	0.088214
	H109	H	0.095959	0.379940	0.093164
	H110	H	0.090989	0.613805	0.903934
	H111	H	0.912491	0.384024	0.907505
	H112	H	0.099254	0.902905	0.612038
	H113	H	0.100401	0.081692	0.378745
	H114	H	0.904078	0.087972	0.612338
	H115	H	0.917853	0.902968	0.380827
	H116	H	0.617486	0.090189	0.906309
	H117	H	0.384675	0.094920	0.088185
	H118	H	0.618608	0.902324	0.083934
	H119	H	0.384864	0.906402	0.896267
	C120	C	0.380931	0.006420	0.616095
	C121	C	0.624403	0.990113	0.616850
	C122	C	0.624071	0.006276	0.373818
	C123	C	0.380734	0.989467	0.373341
	C124	C	0.625125	0.376597	0.002357
	C125	C	0.624755	0.620790	0.986086
	C126	C	0.380577	0.620415	0.002939
	C127	C	0.380535	0.377554	0.986443
	C128	C	0.010876	0.619114	0.373392
	C129	C	0.994548	0.618498	0.616392
	C130	C	0.010187	0.375205	0.616631
	C131	C	0.994221	0.375724	0.372879
	C132	C	0.881928	0.506191	0.115881
	C133	C	0.125057	0.489949	0.117010
	C134	C	0.123282	0.506357	0.873981
	C135	C	0.880864	0.489188	0.872712
	C136	C	0.124666	0.875724	0.502981
	C137	C	0.123435	0.118805	0.486282
	C138	C	0.879923	0.119843	0.503538
	C139	C	0.880960	0.876377	0.487239
	C140	C	0.511004	0.120180	0.873054
	C141	C	0.493742	0.120400	0.116605
	C142	C	0.510407	0.876832	0.116043
	C143	C	0.494467	0.877422	0.873229
	C144	C	0.383754	0.883197	0.671701
	C145	C	0.621401	0.113582	0.671350
	C146	C	0.622505	0.883388	0.318210
	C147	C	0.382232	0.112785	0.317885
	C148	C	0.679647	0.378951	0.879393
	C149	C	0.680450	0.618236	0.109191
	C150	C	0.324467	0.618692	0.880147
	C151	C	0.326249	0.380000	0.109579
	C152	C	0.887523	0.674835	0.375420
	C153	C	0.117563	0.673901	0.615373
	C154	C	0.886705	0.321345	0.612611
	C155	C	0.117256	0.320117	0.376431
	C156	C	0.887065	0.378185	0.670891
	C157	C	0.117326	0.616021	0.672952
	C158	C	0.887612	0.616867	0.317501
	C159	C	0.117716	0.377973	0.319288
	C160	C	0.383000	0.675144	0.879566
	C161	C	0.622463	0.675529	0.109242
	C162	C	0.621843	0.321163	0.879522
	C163	C	0.383718	0.321855	0.109383
	C164	C	0.679632	0.883039	0.376342
	C165	C	0.679378	0.113087	0.614719
	C166	C	0.326941	0.882622	0.613436
	C167	C	0.324744	0.112672	0.375301
	C168	C	0.884270	0.382720	0.171141
	C169	C	0.122245	0.612553	0.172882
	C170	C	0.122125	0.382792	0.819392
	C171	C	0.882955	0.612558	0.816866
	C172	C	0.179352	0.877401	0.380293
	C173	C	0.179214	0.116299	0.609241
	C174	C	0.824273	0.117266	0.380106
	C175	C	0.826520	0.878441	0.610261
	C176	C	0.387404	0.175526	0.875631
	C177	C	0.617220	0.174681	0.114267
	C178	C	0.387271	0.821581	0.113257
	C179	C	0.617215	0.821009	0.875704
	C180	C	0.387353	0.879055	0.171123
	C181	C	0.616686	0.117877	0.172666
	C182	C	0.387552	0.118021	0.817839
	C183	C	0.617590	0.879088	0.818599
	C184	C	0.881905	0.174516	0.379991
	C185	C	0.121182	0.173720	0.609556
	C186	C	0.121779	0.820247	0.380226
	C187	C	0.884212	0.820834	0.610222
	C188	C	0.179797	0.383341	0.876751
	C189	C	0.178975	0.613497	0.114727
	C190	C	0.826895	0.382878	0.113399
	C191	C	0.825564	0.613094	0.874399
	C192	C	0.402264	0.092333	0.594029
	C193	C	0.602342	0.903814	0.594550
	C194	C	0.601039	0.092273	0.396447
	C195	C	0.403547	0.903600	0.395779
	C196	C	0.603067	0.399365	0.088111
	C197	C	0.602419	0.598504	0.900343
	C198	C	0.403202	0.598113	0.088787
	C199	C	0.402530	0.399843	0.900622
	C200	C	0.096570	0.596231	0.395922
	C201	C	0.909280	0.595834	0.592901
	C202	C	0.096389	0.397012	0.595199
	C203	C	0.908249	0.398165	0.394643
	C204	C	0.904079	0.592127	0.093700
	C205	C	0.103413	0.403618	0.094714
	C206	C	0.100018	0.592320	0.896124
	C207	C	0.903176	0.403389	0.895272
	C208	C	0.102863	0.898084	0.588906
	C209	C	0.100995	0.096588	0.400569
	C210	C	0.902330	0.097711	0.589120
	C211	C	0.902543	0.898633	0.401350
	C212	C	0.596970	0.097983	0.895222
	C213	C	0.407946	0.098634	0.094054
	C214	C	0.596041	0.899176	0.094126
	C215	C	0.408210	0.900029	0.894865
	Zn216	Zn	0.502969	-0.001351	0.744563
	Zn217	Zn	0.501981	-0.001810	0.245130
	Zn218	Zn	0.753489	0.498383	-0.005521
	Zn219	Zn	0.252074	0.499603	-0.005142
	Zn220	Zn	0.002698	0.747932	0.495220
	Zn221	Zn	0.001698	0.247816	0.494746
	Zn222	Zn	0.002131	0.496914	0.744937
	Zn223	Zn	0.002875	0.497267	0.244775
	Zn224	Zn	0.502006	0.748314	-0.005714
	Zn225	Zn	0.502498	0.248403	-0.005547
	Zn226	Zn	0.752327	-0.001813	0.495696
	Zn227	Zn	0.252499	-0.002455	0.494678
	N228	N	0.417060	0.960893	0.673175
	N229	N	0.588065	0.035903	0.672771
	N230	N	0.588701	0.961189	0.316604
	N231	N	0.416290	0.035073	0.316443
	N232	N	0.681685	0.412794	0.956799
	N233	N	0.682254	0.584834	0.031528
	N234	N	0.322824	0.585465	0.957983
	N235	N	0.324245	0.413709	0.032124
	N236	N	0.965108	0.676521	0.409108
	N237	N	0.040239	0.675549	0.580744
	N238	N	0.964306	0.319470	0.579782
	N239	N	0.039369	0.318682	0.409142
	N240	N	0.965056	0.411000	0.673528
	N241	N	0.039912	0.582553	0.673914
	N242	N	0.965174	0.582639	0.316467
	N243	N	0.040127	0.411895	0.317025
	N244	N	0.417039	0.676401	0.956909
	N245	N	0.588543	0.677036	0.031881
	N246	N	0.588711	0.319541	0.957022
	N247	N	0.417005	0.320296	0.031726
	N248	N	0.680782	0.960604	0.410198
	N249	N	0.680891	0.035396	0.581024
	N250	N	0.324998	0.960367	0.579562
	N251	N	0.323909	0.035191	0.409106
	N252	N	0.917794	0.460298	0.172548
	N253	N	0.089192	0.534661	0.174200
	N254	N	0.087764	0.460302	0.817341
	N255	N	0.916558	0.534700	0.815627
	N256	N	0.181141	0.911266	0.457649
	N257	N	0.180673	0.082948	0.531706
	N258	N	0.822880	0.084005	0.457789
	N259	N	0.824368	0.912226	0.532684
	N260	N	0.465074	0.177013	0.909144
	N261	N	0.539823	0.176415	0.080018
	N262	N	0.464765	0.820076	0.079781
	N263	N	0.539579	0.819859	0.908904
	N264	N	0.464808	0.912764	0.173031
	N265	N	0.539015	0.084826	0.174344
	N266	N	0.465298	0.084308	0.816205
	N267	N	0.540264	0.913592	0.817106
	N268	N	0.915910	0.176285	0.457441
	N269	N	0.087358	0.175634	0.531944
	N270	N	0.088380	0.818988	0.457685
	N271	N	0.917358	0.819608	0.532700
	N272	N	0.180349	0.461101	0.910186
	N273	N	0.180757	0.536174	0.080796
	N274	N	0.825066	0.460783	0.079940
	N275	N	0.824374	0.535684	0.908672
	O276	O	1.058463	1.010223	-0.005838
	H277	H	1.060476	1.007910	-0.002888
	H278	H	1.047407	1.014721	-0.014055
	O279	O	0.030336	-0.074056	1.027062
	H280	H	0.024322	-0.075029	1.033289
	H281	H	0.026235	-0.066696	1.022922
	O282	O	-0.065492	-0.024889	-0.097714
	H283	H	-0.071303	-0.027753	-0.095312
	H284	H	-0.054124	-0.028529	-0.097974
	O285	O	0.500985	0.502340	0.476051
	H286	H	0.503791	0.503047	0.481076
	H287	H	0.497691	0.501571	0.482838
	O288	O	0.079655	-0.005780	-0.055798
	H289	H	0.078461	-0.000457	-0.056617
	H290	H	0.087536	-0.002029	-0.050572
	O291	O	0.018959	0.991637	0.010456
	H292	H	0.013987	0.994086	0.003746
	H293	H	0.017023	0.982655	0.011219
	O294	O	-0.008081	0.941654	0.010519
	H295	H	-0.010940	0.939459	0.019019
	H296	H	-0.004697	0.937992	0.010609
	O297	O	0.515681	0.534785	0.434326
	H298	H	0.518448	0.529933	0.428991
	H299	H	0.531499	0.526704	0.435791
	O300	O	0.575213	0.488593	0.523362
	H301	H	0.573478	0.499626	0.519888
	H302	H	0.577698	0.488159	0.520611
	O303	O	1.029916	-0.029722	0.985448
	H304	H	1.028446	-0.031820	0.987492
	H305	H	1.025276	-0.031209	0.978253
	O306	O	-0.059180	0.982741	1.026151
	H307	H	-0.049885	0.975848	1.020361
	H308	H	-0.068942	0.987393	1.026446
	O309	O	-0.017798	1.019994	0.967508
	H310	H	-0.011636	1.029988	0.968407
	H311	H	-0.013119	1.013084	0.959660
	O312	O	-0.006562	0.042830	1.057968
	H313	H	-0.013214	0.046916	1.057986
	H314	H	-0.002660	0.029979	1.064071
	O315	O	0.525093	0.586198	0.521610
	H316	H	0.507825	0.597827	0.521472
	H317	H	0.525246	0.573342	0.528099
	O318	O	-0.050268	-0.057655	1.046674
	H319	H	-0.050849	-0.056315	1.050369
	H320	H	-0.052884	-0.060817	1.046813
	O321	O	0.428329	0.480044	0.504321
	H322	H	0.428850	0.474443	0.497547
	H323	H	0.415684	0.491496	0.504643
	O324	O	0.946844	0.050564	0.986019
	H325	H	0.942768	0.044684	0.979128
	H326	H	0.953782	0.056575	0.985237
	O327	O	1.024638	1.008711	0.999743
	H328	H	1.022326	1.007473	1.002620
	H329	H	1.025198	1.014027	1.013431
	O330	O	0.517790	0.538609	0.497658
	H331	H	0.512076	0.547518	0.502513
	H332	H	0.516356	0.537119	0.489601
	O333	O	0.493080	0.495373	0.415567
	H334	H	0.500166	0.486138	0.414790
	H335	H	0.496252	0.501244	0.405962
	O336	O	0.506258	0.477089	0.501589
	H337	H	0.505591	0.475894	0.505423
	H338	H	0.512382	0.469473	0.500163
	O339	O	0.482328	0.513546	0.453686
	H340	H	0.480286	0.502617	0.450246
	H341	H	0.485965	0.519657	0.453878
	O342	O	0.513855	0.531593	0.525766
	H343	H	0.507482	0.521935	0.525413
	H344	H	0.510041	0.524394	0.525548
	O345	O	0.608630	0.456252	0.565809
	H346	H	0.601552	0.471723	0.566802
	H347	H	0.631021	0.451137	0.573192
