data_Molecule from HDF5

_cell_length_a		16.281292
_cell_length_b		16.351937
_cell_length_c		16.275115
_cell_angle_alpha	89.854557
_cell_angle_beta	89.871779
_cell_angle_gamma	90.015738
_symmetry_space_group_name_H-M	'P 1'
_symmetry_Int_Tables_number		1

loop_
	_symmetry_equiv_pos_as_xyz
	x,y,z

loop_
	_atom_site_label
	_atom_site_type_symbol
	_atom_site_fract_x
	_atom_site_fract_y
	_atom_site_fract_z
	H0	H	0.400339	0.851364	0.717333
	H1	H	0.598004	0.177510	0.715366
	H2	H	0.598506	0.851538	0.287303
	H3	H	0.401260	0.178099	0.285832
	H4	H	0.714674	0.415948	0.838671
	H5	H	0.712387	0.611453	0.166163
	H6	H	0.286291	0.612784	0.838345
	H7	H	0.285175	0.416504	0.165754
	H8	H	0.835196	0.729830	0.403448
	H9	H	0.163628	0.729347	0.600202
	H10	H	0.836677	0.298986	0.603442
	H11	H	0.163785	0.301317	0.403833
	H12	H	0.835793	0.418681	0.716392
	H13	H	0.162775	0.614285	0.716965
	H14	H	0.835782	0.613536	0.287870
	H15	H	0.164030	0.418430	0.288614
	H16	H	0.401050	0.730187	0.838930
	H17	H	0.597533	0.728738	0.165516
	H18	H	0.597622	0.301393	0.838337
	H19	H	0.399717	0.298540	0.165006
	H20	H	0.715471	0.851598	0.403133
	H21	H	0.713112	0.178060	0.598073
	H22	H	0.283801	0.852067	0.601310
	H23	H	0.284907	0.178159	0.403053
	H24	H	0.901322	0.351278	0.217809
	H25	H	0.098665	0.677631	0.216144
	H26	H	0.097674	0.352370	0.787002
	H27	H	0.900364	0.677771	0.787371
	H28	H	0.214744	0.917070	0.338722
	H29	H	0.213403	0.112856	0.666312
	H30	H	0.784959	0.115198	0.337875
	H31	H	0.786174	0.917282	0.666428
	H32	H	0.336082	0.229100	0.902717
	H33	H	0.663421	0.228602	0.099493
	H34	H	0.336278	0.798565	0.103229
	H35	H	0.662616	0.798657	0.901543
	H36	H	0.335982	0.917374	0.216365
	H37	H	0.663716	0.112199	0.214819
	H38	H	0.335934	0.112216	0.787844
	H39	H	0.663415	0.916783	0.787083
	H40	H	0.900717	0.231633	0.338660
	H41	H	0.097781	0.229079	0.665913
	H42	H	0.099464	0.800797	0.338498
	H43	H	0.899628	0.798975	0.665134
	H44	H	0.213890	0.351553	0.902939
	H45	H	0.213737	0.677255	0.099875
	H46	H	0.783943	0.351505	0.102388
	H47	H	0.784483	0.677703	0.904469
	H48	H	0.403120	0.130034	0.591078
	H49	H	0.598153	0.896756	0.596054
	H50	H	0.583398	0.127344	0.407644
	H51	H	0.406537	0.899361	0.409409
	H52	H	0.594528	0.422319	0.119058
	H53	H	0.591723	0.603844	0.886616
	H54	H	0.403516	0.608822	0.119646
	H55	H	0.416056	0.421186	0.888148
	H56	H	0.113162	0.611213	0.420855
	H57	H	0.883683	0.609439	0.590723
	H58	H	0.114344	0.420524	0.589749
	H59	H	0.884101	0.417842	0.415103
	H60	H	0.115500	0.426801	0.596244
	H61	H	0.883809	0.604461	0.596551
	H62	H	0.113153	0.597903	0.404912
	H63	H	0.885802	0.427817	0.411382
	H64	H	0.406166	0.604023	0.117804
	H65	H	0.589673	0.609448	0.885971
	H66	H	0.588381	0.422576	0.117555
	H67	H	0.401854	0.413674	0.880867
	H68	H	0.597869	0.129051	0.417022
	H69	H	0.591354	0.897382	0.599155
	H70	H	0.405175	0.132341	0.599662
	H71	H	0.408038	0.900017	0.409863
	H72	H	0.904085	0.631749	0.100145
	H73	H	0.086317	0.401586	0.091996
	H74	H	0.090030	0.631048	0.906055
	H75	H	0.901850	0.396018	0.906027
	H76	H	0.094510	0.927091	0.617871
	H77	H	0.085762	0.112839	0.386200
	H78	H	0.901090	0.103855	0.618356
	H79	H	0.904911	0.927007	0.386004
	H80	H	0.613758	0.104993	0.911719
	H81	H	0.383251	0.108890	0.095220
	H82	H	0.615780	0.913554	0.089696
	H83	H	0.384856	0.918273	0.916315
	H84	H	0.612181	0.928265	0.089687
	H85	H	0.383646	0.106851	0.093523
	H86	H	0.617394	0.107789	0.902491
	H87	H	0.385978	0.929900	0.909423
	H88	H	0.911510	0.105057	0.615098
	H89	H	0.100416	0.113924	0.382896
	H90	H	0.084990	0.922205	0.616472
	H91	H	0.912052	0.922309	0.387179
	H92	H	0.091760	0.628847	0.913351
	H93	H	0.098947	0.397374	0.092416
	H94	H	0.910985	0.628603	0.094621
	H95	H	0.912095	0.399972	0.906849
	H96	H	0.411284	0.128748	0.594437
	H97	H	0.592160	0.899765	0.592016
	H98	H	0.597930	0.134031	0.399951
	H99	H	0.406810	0.899866	0.410343
	H100	H	0.590757	0.417020	0.118945
	H101	H	0.595476	0.607949	0.884685
	H102	H	0.409582	0.609474	0.118323
	H103	H	0.401542	0.430256	0.887337
	H104	H	0.120419	0.616904	0.402003
	H105	H	0.881811	0.612136	0.597980
	H106	H	0.117913	0.418453	0.597385
	H107	H	0.881715	0.419921	0.404773
	H108	H	0.902218	0.629840	0.090908
	H109	H	0.091833	0.396744	0.103264
	H110	H	0.097617	0.631915	0.908725
	H111	H	0.905716	0.400458	0.915229
	H112	H	0.093541	0.916218	0.620761
	H113	H	0.094248	0.100563	0.387892
	H114	H	0.906065	0.113845	0.620131
	H115	H	0.904978	0.918245	0.384537
	H116	H	0.617534	0.114104	0.910382
	H117	H	0.383012	0.106549	0.095555
	H118	H	0.618166	0.922007	0.102136
	H119	H	0.380869	0.918851	0.903479
	C120	C	0.377829	0.022842	0.623956
	C121	C	0.621384	1.006162	0.623099
	C122	C	0.622187	0.022793	0.379587
	C123	C	0.378386	1.007291	0.380704
	C124	C	0.620451	0.393208	0.010401
	C125	C	0.620531	0.635763	0.993745
	C126	C	0.377792	0.636131	0.010480
	C127	C	0.377614	0.392731	0.993675
	C128	C	0.007528	0.637471	0.380377
	C129	C	0.991358	0.637035	0.623510
	C130	C	0.008003	0.393398	0.623723
	C131	C	0.991735	0.393717	0.381290
	C132	C	0.877357	0.522297	0.124282
	C133	C	0.121114	0.506276	0.124029
	C134	C	0.121327	0.523223	0.880475
	C135	C	0.877986	0.506364	0.880897
	C136	C	0.120386	0.893748	0.510303
	C137	C	0.121755	0.137289	0.493752
	C138	C	0.877876	0.136829	0.509619
	C139	C	0.878303	0.893606	0.493887
	C140	C	0.508017	0.136843	0.879555
	C141	C	0.491381	0.136041	0.122883
	C142	C	0.507854	0.892635	0.123480
	C143	C	0.491619	0.893317	0.880633
	C144	C	0.380116	0.900193	0.679324
	C145	C	0.618113	0.129089	0.677262
	C146	C	0.619503	0.900095	0.324836
	C147	C	0.381208	0.129679	0.324848
	C148	C	0.676326	0.395900	0.887397
	C149	C	0.675239	0.632790	0.117070
	C150	C	0.323174	0.633782	0.887324
	C151	C	0.322817	0.395353	0.116807
	C152	C	0.884372	0.692409	0.382929
	C153	C	0.114445	0.692288	0.621201
	C154	C	0.885312	0.337457	0.623073
	C155	C	0.114984	0.338975	0.383374
	C156	C	0.884890	0.396806	0.679255
	C157	C	0.114177	0.634617	0.678652
	C158	C	0.884439	0.634255	0.325750
	C159	C	0.115099	0.397411	0.326481
	C160	C	0.380202	0.691988	0.887505
	C161	C	0.618211	0.691089	0.116753
	C162	C	0.618783	0.338572	0.887243
	C163	C	0.379868	0.337085	0.116506
	C164	C	0.677041	0.900024	0.382730
	C165	C	0.675668	0.129214	0.619373
	C166	C	0.321918	0.900423	0.622101
	C167	C	0.323346	0.129751	0.383020
	C168	C	0.880704	0.399982	0.179810
	C169	C	0.118589	0.628871	0.178648
	C170	C	0.118485	0.400802	0.824939
	C171	C	0.880174	0.629160	0.825655
	C172	C	0.176684	0.896451	0.387477
	C173	C	0.175687	0.133508	0.617331
	C174	C	0.822859	0.135128	0.386952
	C175	C	0.823060	0.896280	0.616993
	C176	C	0.385092	0.191612	0.882080
	C177	C	0.614551	0.190820	0.120087
	C178	C	0.385003	0.837204	0.122368
	C179	C	0.614234	0.837340	0.881959
	C180	C	0.384979	0.895712	0.179146
	C181	C	0.614723	0.132788	0.177179
	C182	C	0.384904	0.133428	0.825058
	C183	C	0.614644	0.895984	0.825117
	C184	C	0.880634	0.192725	0.387071
	C185	C	0.118246	0.191235	0.617207
	C186	C	0.119431	0.838721	0.387401
	C187	C	0.879915	0.837991	0.616706
	C188	C	0.176083	0.400299	0.882764
	C189	C	0.176339	0.628667	0.121070
	C190	C	0.822380	0.399917	0.122454
	C191	C	0.822337	0.629021	0.883437
	C192	C	0.399993	0.108275	0.601539
	C193	C	0.600038	0.920254	0.602088
	C194	C	0.599801	0.107995	0.401660
	C195	C	0.400407	0.921829	0.403346
	C196	C	0.597987	0.414531	0.096383
	C197	C	0.598573	0.613784	0.907977
	C198	C	0.399896	0.613917	0.096351
	C199	C	0.399929	0.415106	0.907510
	C200	C	0.093486	0.615323	0.402861
	C201	C	0.905277	0.615092	0.601468
	C202	C	0.093720	0.415449	0.601101
	C203	C	0.906044	0.415470	0.403810
	C204	C	0.899205	0.607927	0.101764
	C205	C	0.098993	0.420727	0.102197
	C206	C	0.099552	0.608580	0.902796
	C207	C	0.900220	0.420966	0.902953
	C208	C	0.097660	0.915571	0.596043
	C209	C	0.099996	0.115524	0.407878
	C210	C	0.899856	0.114162	0.595744
	C211	C	0.900832	0.915925	0.408015
	C212	C	0.593960	0.115198	0.901608
	C213	C	0.405410	0.113997	0.101078
	C214	C	0.593337	0.914624	0.100407
	C215	C	0.406172	0.915671	0.903318
	Zn216	Zn	0.499684	0.014610	0.751886
	Zn217	Zn	0.499851	0.014366	0.251526
	Zn218	Zn	0.748868	0.514049	0.002465
	Zn219	Zn	0.249785	0.514218	0.002289
	Zn220	Zn	-0.000446	0.765532	0.502234
	Zn221	Zn	0.000081	0.264772	0.502194
	Zn222	Zn	-0.000167	0.515481	0.751771
	Zn223	Zn	-0.000480	0.515161	0.252640
	Zn224	Zn	0.499568	0.764105	0.001740
	Zn225	Zn	0.499585	0.264413	0.001640
	Zn226	Zn	0.749845	0.014839	0.501683
	Zn227	Zn	0.249274	0.015135	0.502301
	N228	N	0.414000	0.977285	0.680790
	N229	N	0.585236	0.051473	0.679896
	N230	N	0.586097	0.977452	0.322618
	N231	N	0.414707	0.052410	0.323436
	N232	N	0.677523	0.429054	0.965072
	N233	N	0.676995	0.599226	0.039722
	N234	N	0.321550	0.599762	0.964858
	N235	N	0.321505	0.429135	0.039422
	N236	N	0.962029	0.694314	0.416197
	N237	N	0.036931	0.693856	0.587597
	N238	N	0.962757	0.335309	0.589197
	N239	N	0.037309	0.336578	0.416768
	N240	N	0.962106	0.430963	0.679600
	N241	N	0.036676	0.601226	0.680320
	N242	N	0.961997	0.600946	0.323816
	N243	N	0.037604	0.430734	0.325093
	N244	N	0.413428	0.693427	0.964983
	N245	N	0.585123	0.693004	0.039130
	N246	N	0.584532	0.336889	0.964542
	N247	N	0.413066	0.335221	0.038628
	N248	N	0.678759	0.977118	0.416170
	N249	N	0.677656	0.052006	0.586460
	N250	N	0.320550	0.977515	0.588187
	N251	N	0.321629	0.052736	0.417069
	N252	N	0.914235	0.477261	0.181015
	N253	N	0.084964	0.551640	0.180605
	N254	N	0.085057	0.477955	0.823675
	N255	N	0.913988	0.552006	0.824041
	N256	N	0.177415	0.930108	0.464917
	N257	N	0.177975	0.100764	0.539571
	N258	N	0.821583	0.100704	0.464086
	N259	N	0.822233	0.930503	0.539532
	N260	N	0.462751	0.193653	0.915393
	N261	N	0.536782	0.192859	0.087022
	N262	N	0.462329	0.835193	0.088252
	N263	N	0.536668	0.835632	0.915794
	N264	N	0.462268	0.929382	0.179912
	N265	N	0.537284	0.099142	0.178808
	N266	N	0.462473	0.100246	0.823266
	N267	N	0.537524	0.930122	0.824106
	N268	N	0.913909	0.194128	0.464632
	N269	N	0.085415	0.193678	0.539288
	N270	N	0.085320	0.836703	0.464664
	N271	N	0.913368	0.836159	0.539169
	N272	N	0.178294	0.477399	0.916397
	N273	N	0.177944	0.551427	0.087783
	N274	N	0.820183	0.477058	0.088768
	N275	N	0.820893	0.551869	0.917348
	O276	O	0.472456	0.472619	0.518084
	H277	H	0.477211	0.476806	0.522464
	H278	H	0.478633	0.476962	0.525262
	O279	O	-0.054271	-0.049636	0.018089
	H280	H	-0.061940	-0.049744	0.004872
	H281	H	-0.043423	-0.057726	0.019691
	O282	O	0.956241	-0.029756	1.058573
	H283	H	0.953208	-0.041544	1.052849
	H284	H	0.956563	-0.023712	1.061836
	O285	O	0.503299	0.488144	0.520891
	H286	H	0.513503	0.483839	0.520263
	H287	H	0.503879	0.485469	0.519032
	O288	O	1.000105	-0.056737	0.015677
	H289	H	0.994761	-0.058519	0.007915
	H290	H	1.003431	-0.058829	0.019557
	O291	O	-0.524477	0.459701	-0.523996
	H292	H	-0.528193	0.451738	-0.526802
	H293	H	-0.529812	0.455695	-0.518165
	O294	O	0.524174	0.482073	0.478472
	H295	H	0.522444	0.482311	0.470673
	H296	H	0.518923	0.488854	0.478185
	O297	O	0.005713	0.918727	0.007917
	H298	H	0.014311	0.915935	0.023095
	H299	H	-0.002320	0.913458	0.004367
	O300	O	1.010553	0.007323	1.016614
	H301	H	1.019486	0.007121	1.017013
	H302	H	1.014314	0.002941	1.012604
	O303	O	1.052834	-0.014096	0.043074
	H304	H	1.055417	-0.020895	0.052477
	H305	H	1.047972	-0.009717	0.044758
	O306	O	0.022136	0.954077	1.017000
	H307	H	0.024023	0.957095	1.014728
	H308	H	0.019035	0.960130	1.026056
	O309	O	0.453525	0.495963	0.474955
	H310	H	0.450267	0.496269	0.479677
	H311	H	0.455843	0.490023	0.466311
