data_Molecule from HDF5

_cell_length_a		16.287046
_cell_length_b		16.284182
_cell_length_c		16.251244
_cell_angle_alpha	90.164809
_cell_angle_beta	90.041906
_cell_angle_gamma	89.770377
_symmetry_space_group_name_H-M	'P 1'
_symmetry_Int_Tables_number		1

loop_
	_symmetry_equiv_pos_as_xyz
	x,y,z

loop_
	_atom_site_label
	_atom_site_type_symbol
	_atom_site_fract_x
	_atom_site_fract_y
	_atom_site_fract_z
	H0	H	0.389867	0.834025	0.714558
	H1	H	0.586330	0.161330	0.716663
	H2	H	0.585874	0.833963	0.286839
	H3	H	0.388860	0.161993	0.287947
	H4	H	0.703046	0.397463	0.836726
	H5	H	0.704146	0.597570	0.163681
	H6	H	0.273197	0.598152	0.837553
	H7	H	0.273821	0.399347	0.163821
	H8	H	0.826262	0.714983	0.401064
	H9	H	0.152788	0.713608	0.599969
	H10	H	0.825815	0.284708	0.599675
	H11	H	0.150836	0.281177	0.399780
	H12	H	0.825665	0.400450	0.715302
	H13	H	0.152934	0.597526	0.715441
	H14	H	0.826061	0.598770	0.284963
	H15	H	0.152804	0.398398	0.286517
	H16	H	0.387400	0.714622	0.837821
	H17	H	0.586407	0.711745	0.164888
	H18	H	0.587854	0.281684	0.838100
	H19	H	0.389653	0.284502	0.164948
	H20	H	0.704848	0.834398	0.401035
	H21	H	0.704083	0.160687	0.602767
	H22	H	0.274039	0.834631	0.598284
	H23	H	0.273970	0.161772	0.403812
	H24	H	0.891106	0.334439	0.214873
	H25	H	0.087390	0.661824	0.216202
	H26	H	0.088154	0.335411	0.785061
	H27	H	0.889367	0.661608	0.785845
	H28	H	0.203072	0.898672	0.336527
	H29	H	0.201875	0.097319	0.664463
	H30	H	0.772415	0.097110	0.337194
	H31	H	0.774363	0.899810	0.664394
	H32	H	0.325594	0.213611	0.902359
	H33	H	0.652151	0.213123	0.101616
	H34	H	0.325204	0.784691	0.099774
	H35	H	0.651868	0.782053	0.902052
	H36	H	0.324792	0.900479	0.214567
	H37	H	0.651500	0.097067	0.218248
	H38	H	0.325449	0.098057	0.786089
	H39	H	0.652145	0.897844	0.786153
	H40	H	0.889119	0.211864	0.335800
	H41	H	0.085651	0.213679	0.663487
	H42	H	0.087696	0.782967	0.336930
	H43	H	0.889697	0.784350	0.664577
	H44	H	0.206161	0.335882	0.898991
	H45	H	0.204110	0.661472	0.100649
	H46	H	0.776238	0.333892	0.097500
	H47	H	0.772335	0.661304	0.900464
	H48	H	0.393751	0.116108	0.597938
	H49	H	0.577753	0.885112	0.587723
	H50	H	0.583487	0.115058	0.410770
	H51	H	0.395296	0.881233	0.406447
	H52	H	0.585287	0.394576	0.121945
	H53	H	0.583816	0.587032	0.883862
	H54	H	0.394094	0.592415	0.118438
	H55	H	0.400500	0.408124	0.885704
	H56	H	0.104425	0.582231	0.403736
	H57	H	0.873488	0.592850	0.589764
	H58	H	0.103450	0.407305	0.587820
	H59	H	0.871265	0.405331	0.403489
	H60	H	0.105581	0.408498	0.594483
	H61	H	0.873284	0.588885	0.594675
	H62	H	0.109045	0.598619	0.402438
	H63	H	0.872148	0.403652	0.408307
	H64	H	0.396272	0.589514	0.116717
	H65	H	0.576921	0.589757	0.885204
	H66	H	0.591753	0.413864	0.117678
	H67	H	0.398130	0.401486	0.883150
	H68	H	0.579098	0.114374	0.406900
	H69	H	0.588649	0.879375	0.590861
	H70	H	0.397267	0.113542	0.593918
	H71	H	0.395263	0.881169	0.407828
	H72	H	0.904856	0.611933	0.094164
	H73	H	0.082519	0.383659	0.088902
	H74	H	0.077441	0.613583	0.908011
	H75	H	0.898725	0.381869	0.904815
	H76	H	0.088130	0.900629	0.620768
	H77	H	0.088393	0.091558	0.379782
	H78	H	0.886840	0.091508	0.619226
	H79	H	0.897599	0.905919	0.384030
	H80	H	0.606052	0.089038	0.903570
	H81	H	0.373392	0.091706	0.092363
	H82	H	0.603345	0.911634	0.095149
	H83	H	0.376710	0.914616	0.916502
	H84	H	0.608648	0.900985	0.100143
	H85	H	0.371149	0.091703	0.095090
	H86	H	0.605182	0.095178	0.911886
	H87	H	0.369763	0.909536	0.896428
	H88	H	0.901030	0.085413	0.613319
	H89	H	0.079409	0.082972	0.386514
	H90	H	0.084227	0.915230	0.615520
	H91	H	0.895302	0.906747	0.384094
	H92	H	0.083653	0.614314	0.911322
	H93	H	0.085718	0.380551	0.094490
	H94	H	0.891644	0.612858	0.084647
	H95	H	0.895264	0.382714	0.909879
	H96	H	0.391643	0.114908	0.592332
	H97	H	0.579042	0.880627	0.599168
	H98	H	0.577908	0.111710	0.411820
	H99	H	0.394476	0.880488	0.407526
	H100	H	0.572378	0.408657	0.113379
	H101	H	0.582038	0.594342	0.881902
	H102	H	0.397983	0.593048	0.117646
	H103	H	0.393533	0.407535	0.883661
	H104	H	0.103607	0.592688	0.417776
	H105	H	0.872130	0.594976	0.595548
	H106	H	0.105771	0.402102	0.592148
	H107	H	0.872798	0.408054	0.407400
	H108	H	0.890613	0.617706	0.100271
	H109	H	0.078816	0.382398	0.094530
	H110	H	0.082257	0.616373	0.904629
	H111	H	0.893102	0.380355	0.904383
	H112	H	0.073779	0.902897	0.614973
	H113	H	0.075426	0.095254	0.383738
	H114	H	0.900086	0.100677	0.617783
	H115	H	0.897372	0.907821	0.384881
	H116	H	0.602181	0.084693	0.911681
	H117	H	0.371938	0.094778	0.094033
	H118	H	0.603803	0.901302	0.088085
	H119	H	0.370143	0.894246	0.911647
	C120	C	0.366225	0.006826	0.622770
	C121	C	0.610113	0.989422	0.622283
	C122	C	0.609768	0.006183	0.380015
	C123	C	0.366705	0.989437	0.379540
	C124	C	0.611408	0.376233	0.009491
	C125	C	0.609827	0.619303	0.992029
	C126	C	0.366644	0.620499	0.009373
	C127	C	0.368174	0.377271	0.992198
	C128	C	-0.002471	0.619948	0.379356
	C129	C	0.981070	0.620761	0.622380
	C130	C	-0.002786	0.377568	0.620987
	C131	C	0.979968	0.376224	0.377681
	C132	C	0.867530	0.506068	0.121856
	C133	C	0.110765	0.489978	0.122078
	C134	C	0.110875	0.507024	0.878772
	C135	C	0.866868	0.489756	0.878054
	C136	C	0.110643	0.876774	0.508852
	C137	C	0.109419	0.119344	0.491613
	C138	C	0.866458	0.120929	0.508822
	C139	C	0.867826	0.877535	0.492305
	C140	C	0.497186	0.119352	0.880031
	C141	C	0.480256	0.120793	0.123218
	C142	C	0.496841	0.876771	0.122503
	C143	C	0.480320	0.876462	0.879368
	C144	C	0.369455	0.883245	0.677109
	C145	C	0.607294	0.112322	0.678763
	C146	C	0.607345	0.883061	0.324313
	C147	C	0.368566	0.112798	0.325069
	C148	C	0.665676	0.377670	0.885964
	C149	C	0.665446	0.617260	0.115041
	C150	C	0.310654	0.618840	0.886504
	C151	C	0.312440	0.379588	0.115335
	C152	C	0.874871	0.676420	0.380892
	C153	C	0.104108	0.675574	0.620143
	C154	C	0.874396	0.322826	0.619092
	C155	C	0.102659	0.319653	0.379386
	C156	C	0.874516	0.380101	0.677029
	C157	C	0.104019	0.617992	0.677827
	C158	C	0.874899	0.618540	0.323153
	C159	C	0.103437	0.377920	0.323376
	C160	C	0.367603	0.676635	0.886750
	C161	C	0.607022	0.674067	0.115714
	C162	C	0.608473	0.320133	0.886463
	C163	C	0.369947	0.322303	0.115774
	C164	C	0.666643	0.883372	0.380867
	C165	C	0.665711	0.112188	0.621720
	C166	C	0.311872	0.883361	0.619280
	C167	C	0.311541	0.112926	0.382690
	C168	C	0.870366	0.383223	0.177091
	C169	C	0.108129	0.613020	0.178143
	C170	C	0.109082	0.383944	0.823046
	C171	C	0.869056	0.612802	0.823316
	C172	C	0.165309	0.878620	0.385424
	C173	C	0.164160	0.117603	0.615272
	C174	C	0.810441	0.117859	0.385802
	C175	C	0.812435	0.879701	0.615433
	C176	C	0.374399	0.175399	0.882075
	C177	C	0.603389	0.175121	0.121520
	C178	C	0.374064	0.822057	0.120295
	C179	C	0.603161	0.820415	0.881698
	C180	C	0.373939	0.879842	0.177354
	C181	C	0.602889	0.117910	0.179727
	C182	C	0.374297	0.117886	0.824343
	C183	C	0.603258	0.877921	0.824057
	C184	C	0.868539	0.174941	0.385203
	C185	C	0.106644	0.175488	0.614802
	C186	C	0.108053	0.821228	0.385593
	C187	C	0.869739	0.822251	0.615436
	C188	C	0.167390	0.384420	0.879751
	C189	C	0.166120	0.612785	0.120553
	C190	C	0.812893	0.383076	0.118984
	C191	C	0.810624	0.612418	0.880203
	C192	C	0.387822	0.092720	0.601139
	C193	C	0.588281	0.903857	0.599201
	C194	C	0.586820	0.091712	0.403078
	C195	C	0.388655	0.903233	0.400971
	C196	C	0.589595	0.398940	0.095334
	C197	C	0.587317	0.596958	0.905885
	C198	C	0.389272	0.597975	0.095424
	C199	C	0.390761	0.399231	0.906520
	C200	C	0.083564	0.597691	0.401538
	C201	C	0.895272	0.598692	0.599881
	C202	C	0.082924	0.399609	0.598308
	C203	C	0.894230	0.399063	0.399937
	C204	C	0.889309	0.591981	0.099586
	C205	C	0.088708	0.404372	0.099294
	C206	C	0.087914	0.592615	0.901427
	C207	C	0.889351	0.403813	0.899797
	C208	C	0.088513	0.899528	0.594809
	C209	C	0.087572	0.096548	0.405623
	C210	C	0.889124	0.099030	0.594590
	C211	C	0.890260	0.900112	0.406553
	C212	C	0.582490	0.096500	0.902659
	C213	C	0.394371	0.099153	0.100503
	C214	C	0.583061	0.898230	0.100636
	C215	C	0.394354	0.899324	0.901689
	Zn216	Zn	0.488405	-0.002461	0.751004
	Zn217	Zn	0.487840	-0.001764	0.250996
	Zn218	Zn	0.738715	0.497926	-0.000028
	Zn219	Zn	0.239428	0.498209	0.000378
	Zn220	Zn	-0.010782	0.749127	0.500959
	Zn221	Zn	-0.011561	0.248882	0.499362
	Zn222	Zn	-0.010468	0.498703	0.750084
	Zn223	Zn	-0.010562	0.497986	0.250815
	Zn224	Zn	0.488455	0.748122	0.001161
	Zn225	Zn	0.489411	0.248871	0.001423
	Zn226	Zn	0.738911	-0.001603	0.501128
	Zn227	Zn	0.238462	-0.001922	0.500511
	N228	N	0.402645	0.960953	0.679430
	N229	N	0.573359	0.035114	0.679149
	N230	N	0.572732	0.960267	0.323615
	N231	N	0.402280	0.035168	0.323023
	N232	N	0.667565	0.411907	0.963453
	N233	N	0.667308	0.583969	0.037172
	N234	N	0.310097	0.584613	0.963726
	N235	N	0.311166	0.412920	0.037725
	N236	N	0.952158	0.677428	0.415095
	N237	N	0.026603	0.677430	0.586517
	N238	N	0.951687	0.321150	0.585034
	N239	N	0.024977	0.318474	0.412539
	N240	N	0.951770	0.413857	0.677894
	N241	N	0.026506	0.584634	0.679276
	N242	N	0.952204	0.584037	0.322211
	N243	N	0.026166	0.412221	0.322167
	N244	N	0.401663	0.677844	0.964203
	N245	N	0.573164	0.675538	0.038040
	N246	N	0.575445	0.318981	0.964199
	N247	N	0.404131	0.320759	0.038227
	N248	N	0.668300	0.961045	0.414713
	N249	N	0.667683	0.034842	0.587479
	N250	N	0.309609	0.961015	0.586496
	N251	N	0.310294	0.035233	0.415760
	N252	N	0.903425	0.460661	0.179242
	N253	N	0.074533	0.535672	0.179191
	N254	N	0.074692	0.461168	0.822075
	N255	N	0.902991	0.535295	0.821423
	N256	N	0.166905	0.912646	0.462934
	N257	N	0.166133	0.083543	0.537665
	N258	N	0.808939	0.085107	0.463657
	N259	N	0.811260	0.913547	0.537922
	N260	N	0.451803	0.176564	0.916057
	N261	N	0.525992	0.177245	0.087414
	N262	N	0.451573	0.820247	0.086736
	N263	N	0.525586	0.819264	0.915275
	N264	N	0.451336	0.913348	0.178633
	N265	N	0.525405	0.084734	0.180790
	N266	N	0.451428	0.083573	0.822830
	N267	N	0.525753	0.911843	0.822493
	N268	N	0.902529	0.177042	0.462686
	N269	N	0.073498	0.176776	0.536940
	N270	N	0.074808	0.819873	0.463398
	N271	N	0.903348	0.820652	0.537797
	N272	N	0.168599	0.461874	0.913594
	N273	N	0.167908	0.535298	0.086438
	N274	N	0.811164	0.460594	0.085234
	N275	N	0.809346	0.534854	0.913539
	O276	O	0.995310	1.027780	0.004345
	H277	H	1.001628	1.032020	0.001540
	H278	H	0.988265	1.016130	0.012332
	O279	O	0.574803	0.490983	0.578747
	H280	H	0.576665	0.493983	0.586736
	H281	H	0.576757	0.485267	0.568712
	O282	O	0.014724	0.020808	0.022632
	H283	H	0.018560	0.019180	0.023120
	H284	H	0.013205	0.020545	0.023990
	O285	O	0.483337	0.460913	0.612156
	H286	H	0.473891	0.455430	0.613339
	H287	H	0.489616	0.455966	0.617729
	O288	O	-0.007939	-0.002923	0.000342
	H289	H	-0.013069	-0.009690	-0.002282
	H290	H	-0.003863	0.000027	0.005208
	O291	O	0.469750	0.483676	-0.554951
	H292	H	0.465159	0.490798	-0.555468
	H293	H	0.474979	0.488063	-0.557818
	O294	O	0.023939	0.961503	-0.043304
	H295	H	0.029577	0.956434	-0.048913
	H296	H	0.021962	0.958479	-0.052094
	O297	O	0.564780	0.601299	0.499870
	H298	H	0.569266	0.607392	0.500560
	H299	H	0.560295	0.593695	0.490620
	O300	O	0.593285	0.446546	0.479521
	H301	H	0.582528	0.442424	0.475909
	H302	H	0.602035	0.442884	0.468450
	O303	O	0.972774	0.020419	1.028119
	H304	H	0.972890	0.014360	1.027087
	H305	H	0.967673	0.018235	1.031276
	O306	O	0.045995	1.013209	0.938027
	H307	H	0.049017	1.011476	0.924869
	H308	H	0.038723	1.016939	0.941706
	O309	O	0.009721	1.016701	0.929785
	H310	H	0.014337	1.015335	0.926213
	H311	H	0.006753	1.028127	0.928857
	O312	O	0.527632	0.426892	0.479459
	H313	H	0.531930	0.439817	0.474156
	H314	H	0.523364	0.423718	0.485041
	O315	O	0.504750	0.503933	0.429362
	H316	H	0.504706	0.507860	0.434192
	H317	H	0.501787	0.498052	0.435471
	O318	O	-0.015245	0.016647	1.058712
	H319	H	-0.022510	0.022439	1.067537
	H320	H	-0.010754	0.007812	1.054110
	O321	O	0.541414	0.393471	0.420311
	H322	H	0.542599	0.393896	0.421021
	H323	H	0.539394	0.381400	0.414087
	O324	O	0.946210	0.006232	0.955398
	H325	H	0.951679	-0.000072	0.942828
	H326	H	0.943642	0.005730	0.958399
	O327	O	1.014143	0.985767	1.008609
	H328	H	1.007854	0.992616	1.021495
	H329	H	1.016225	0.981662	1.018854
	O330	O	0.466796	0.503373	0.522622
	H331	H	0.459886	0.497227	0.525984
	H332	H	0.475577	0.504253	0.527283
	O333	O	1.010209	0.012370	1.001650
	H334	H	1.016532	0.018081	1.000016
	H335	H	1.012063	0.013637	0.996291
	O336	O	0.441639	0.469228	0.539540
	H337	H	0.450404	0.467322	0.530458
	H338	H	0.436899	0.468563	0.538311
	O339	O	0.518401	0.527735	0.518233
	H340	H	0.523270	0.518731	0.523670
	H341	H	0.522936	0.531834	0.523949
	O342	O	0.571070	0.484673	0.489627
	H343	H	0.579693	0.483351	0.494373
	H344	H	0.563830	0.482718	0.480271
	O345	O	0.462337	0.546099	0.577509
	H346	H	0.460274	0.542879	0.579070
	H347	H	0.471890	0.552702	0.587269
