data_Molecule from HDF5

_cell_length_a		16.277015
_cell_length_b		16.332009
_cell_length_c		16.335248
_cell_angle_alpha	90.049810
_cell_angle_beta	89.970568
_cell_angle_gamma	89.981751
_symmetry_space_group_name_H-M	'P 1'
_symmetry_Int_Tables_number		1

loop_
	_symmetry_equiv_pos_as_xyz
	x,y,z

loop_
	_atom_site_label
	_atom_site_type_symbol
	_atom_site_fract_x
	_atom_site_fract_y
	_atom_site_fract_z
	H0	H	0.401850	0.836584	0.713991
	H1	H	0.599033	0.162481	0.715392
	H2	H	0.597539	0.836933	0.286049
	H3	H	0.401981	0.163217	0.285977
	H4	H	0.713538	0.402570	0.836293
	H5	H	0.714524	0.598515	0.163232
	H6	H	0.286049	0.598221	0.836077
	H7	H	0.286166	0.402443	0.163832
	H8	H	0.836285	0.714308	0.401878
	H9	H	0.164517	0.713210	0.596900
	H10	H	0.835832	0.287540	0.596996
	H11	H	0.163505	0.285293	0.401815
	H12	H	0.836588	0.403253	0.713902
	H13	H	0.163901	0.597519	0.714083
	H14	H	0.836441	0.598565	0.285233
	H15	H	0.163506	0.401785	0.285559
	H16	H	0.401709	0.715569	0.836957
	H17	H	0.598864	0.715993	0.163393
	H18	H	0.599351	0.283628	0.836984
	H19	H	0.401529	0.284974	0.163336
	H20	H	0.714101	0.836532	0.402257
	H21	H	0.713302	0.163391	0.597792
	H22	H	0.286350	0.835647	0.596589
	H23	H	0.285957	0.163347	0.402395
	H24	H	0.901255	0.337396	0.214970
	H25	H	0.098035	0.663464	0.214868
	H26	H	0.098064	0.336833	0.786314
	H27	H	0.901762	0.663465	0.785604
	H28	H	0.213703	0.902312	0.335916
	H29	H	0.213498	0.096415	0.663443
	H30	H	0.786153	0.096981	0.336812
	H31	H	0.785458	0.902025	0.663334
	H32	H	0.336420	0.213950	0.901589
	H33	H	0.664251	0.212676	0.097928
	H34	H	0.335375	0.786930	0.097456
	H35	H	0.663296	0.785034	0.901953
	H36	H	0.335880	0.901216	0.215605
	H37	H	0.663757	0.096766	0.214318
	H38	H	0.336365	0.098243	0.784987
	H39	H	0.663679	0.900773	0.785379
	H40	H	0.901012	0.214565	0.337048
	H41	H	0.097560	0.213802	0.663624
	H42	H	0.098447	0.784765	0.336561
	H43	H	0.902131	0.785409	0.663135
	H44	H	0.214292	0.336864	0.902483
	H45	H	0.214372	0.663779	0.097942
	H46	H	0.784634	0.336809	0.098626
	H47	H	0.785548	0.663809	0.902963
	H48	H	0.410633	0.117431	0.603286
	H49	H	0.597045	0.882684	0.593496
	H50	H	0.597495	0.118819	0.401387
	H51	H	0.413489	0.886386	0.409285
	H52	H	0.598305	0.403778	0.118177
	H53	H	0.588948	0.594095	0.885354
	H54	H	0.396596	0.587222	0.116263
	H55	H	0.408286	0.407618	0.885415
	H56	H	0.113015	0.591166	0.416860
	H57	H	0.886285	0.584751	0.594601
	H58	H	0.117237	0.402011	0.590486
	H59	H	0.884083	0.402805	0.412914
	H60	H	0.115198	0.410613	0.592025
	H61	H	0.880785	0.597816	0.600765
	H62	H	0.115939	0.584640	0.399197
	H63	H	0.886195	0.414755	0.409149
	H64	H	0.417269	0.588400	0.111048
	H65	H	0.594008	0.595997	0.883173
	H66	H	0.591854	0.412947	0.114010
	H67	H	0.407879	0.404696	0.884342
	H68	H	0.588385	0.115519	0.404997
	H69	H	0.591510	0.882736	0.595856
	H70	H	0.412868	0.111406	0.585921
	H71	H	0.399969	0.883567	0.410651
	H72	H	0.904724	0.616129	0.091309
	H73	H	0.092555	0.386041	0.088216
	H74	H	0.100759	0.621106	0.898614
	H75	H	0.907622	0.384877	0.907150
	H76	H	0.097490	0.901974	0.618178
	H77	H	0.095872	0.091384	0.383503
	H78	H	0.899203	0.091811	0.618445
	H79	H	0.903931	0.913636	0.384974
	H80	H	0.613404	0.093448	0.915797
	H81	H	0.384029	0.094446	0.089893
	H82	H	0.614858	0.901721	0.084134
	H83	H	0.382325	0.910393	0.899095
	H84	H	0.612611	0.917629	0.092937
	H85	H	0.384379	0.089472	0.093944
	H86	H	0.614723	0.084020	0.903014
	H87	H	0.382515	0.899816	0.909304
	H88	H	0.911507	0.090335	0.613779
	H89	H	0.091318	0.092351	0.384775
	H90	H	0.095681	0.911047	0.615043
	H91	H	0.914517	0.905256	0.386089
	H92	H	0.082945	0.614246	0.903100
	H93	H	0.097723	0.382913	0.094388
	H94	H	0.906870	0.616654	0.095857
	H95	H	0.905919	0.383698	0.906611
	H96	H	0.396144	0.118316	0.591394
	H97	H	0.592064	0.885288	0.590452
	H98	H	0.596609	0.115565	0.411021
	H99	H	0.406061	0.881199	0.398474
	H100	H	0.586720	0.402108	0.114971
	H101	H	0.593450	0.590465	0.885376
	H102	H	0.407965	0.605674	0.119338
	H103	H	0.405700	0.407046	0.883859
	H104	H	0.120515	0.602900	0.403700
	H105	H	0.884940	0.597256	0.585874
	H106	H	0.118806	0.405585	0.598674
	H107	H	0.881243	0.405851	0.400531
	H108	H	0.909415	0.614349	0.092002
	H109	H	0.089498	0.384326	0.096108
	H110	H	0.097009	0.614348	0.916763
	H111	H	0.907213	0.384638	0.905465
	H112	H	0.088714	0.904385	0.615157
	H113	H	0.093474	0.095449	0.382576
	H114	H	0.907165	0.101601	0.617841
	H115	H	0.902600	0.900754	0.381271
	H116	H	0.619625	0.098676	0.902133
	H117	H	0.382091	0.095413	0.096427
	H118	H	0.619467	0.903135	0.101956
	H119	H	0.386831	0.913432	0.912724
	C120	C	0.378311	0.007602	0.621320
	C121	C	0.621419	0.991590	0.621498
	C122	C	0.621951	0.008482	0.378019
	C123	C	0.378542	0.991535	0.378586
	C124	C	0.621313	0.377886	0.007968
	C125	C	0.621050	0.621932	0.992433
	C126	C	0.378695	0.622145	0.007936
	C127	C	0.378940	0.378252	0.992397
	C128	C	0.008366	0.621411	0.378217
	C129	C	0.992227	0.621468	0.621558
	C130	C	0.008560	0.378615	0.621784
	C131	C	0.991791	0.378887	0.378666
	C132	C	0.878016	0.508183	0.121583
	C133	C	0.121782	0.492085	0.121651
	C134	C	0.122205	0.508748	0.878133
	C135	C	0.877924	0.492192	0.878113
	C136	C	0.121706	0.878114	0.507934
	C137	C	0.121590	0.121209	0.491664
	C138	C	0.877881	0.122267	0.508625
	C139	C	0.878770	0.878291	0.491876
	C140	C	0.508029	0.120830	0.878564
	C141	C	0.491730	0.121047	0.121669
	C142	C	0.507752	0.878693	0.121673
	C143	C	0.491727	0.878792	0.878727
	C144	C	0.381393	0.885085	0.675917
	C145	C	0.619062	0.114072	0.677151
	C146	C	0.619007	0.885511	0.323334
	C147	C	0.381631	0.114873	0.324240
	C148	C	0.675997	0.381329	0.885066
	C149	C	0.676568	0.619219	0.114639
	C150	C	0.323860	0.618942	0.885022
	C151	C	0.323847	0.381243	0.115034
	C152	C	0.885158	0.676256	0.380988
	C153	C	0.115484	0.675671	0.617841
	C154	C	0.885222	0.324446	0.618399
	C155	C	0.114927	0.323530	0.381365
	C156	C	0.885284	0.382237	0.676148
	C157	C	0.115377	0.618546	0.676195
	C158	C	0.885036	0.618902	0.323003
	C159	C	0.114929	0.381225	0.323685
	C160	C	0.380869	0.677619	0.885283
	C161	C	0.619316	0.677752	0.114548
	C162	C	0.619335	0.322350	0.885473
	C163	C	0.381181	0.322887	0.114767
	C164	C	0.676305	0.885382	0.381664
	C165	C	0.675695	0.114629	0.618590
	C166	C	0.323954	0.884607	0.617737
	C167	C	0.324001	0.114706	0.381840
	C168	C	0.880229	0.385686	0.176904
	C169	C	0.118751	0.614977	0.176527
	C170	C	0.118884	0.385522	0.823910
	C171	C	0.880969	0.614917	0.823469
	C172	C	0.176387	0.881286	0.384830
	C173	C	0.176058	0.117857	0.614691
	C174	C	0.823755	0.118396	0.385677
	C175	C	0.823794	0.881446	0.614675
	C176	C	0.385083	0.176018	0.881141
	C177	C	0.615149	0.175447	0.118725
	C178	C	0.384266	0.824192	0.118554
	C179	C	0.614753	0.823231	0.881354
	C180	C	0.384517	0.881027	0.177161
	C181	C	0.615143	0.117895	0.176348
	C182	C	0.385056	0.118772	0.823019
	C183	C	0.614903	0.880547	0.823471
	C184	C	0.880537	0.176934	0.385816
	C185	C	0.118471	0.176122	0.614580
	C186	C	0.119105	0.822933	0.385214
	C187	C	0.881415	0.823403	0.614746
	C188	C	0.176466	0.385574	0.881546
	C189	C	0.176481	0.614900	0.118604
	C190	C	0.822908	0.385527	0.118679
	C191	C	0.823212	0.614914	0.881762
	C192	C	0.400126	0.093532	0.599798
	C193	C	0.599800	0.905590	0.599775
	C194	C	0.600422	0.094369	0.399378
	C195	C	0.400193	0.905883	0.399779
	C196	C	0.598960	0.399848	0.093762
	C197	C	0.598698	0.599963	0.906564
	C198	C	0.400785	0.600367	0.093510
	C199	C	0.400770	0.400038	0.906735
	C200	C	0.094257	0.599367	0.400064
	C201	C	0.906001	0.599732	0.600055
	C202	C	0.095082	0.400086	0.600157
	C203	C	0.906010	0.401335	0.400951
	C204	C	0.900352	0.593786	0.099630
	C205	C	0.099584	0.406600	0.099575
	C206	C	0.100002	0.594398	0.899799
	C207	C	0.900220	0.406465	0.899920
	C208	C	0.100241	0.899529	0.593959
	C209	C	0.099911	0.099579	0.405804
	C210	C	0.899609	0.100911	0.594578
	C211	C	0.900682	0.899957	0.406151
	C212	C	0.593821	0.098435	0.900458
	C213	C	0.405640	0.099346	0.100059
	C214	C	0.593531	0.900946	0.099645
	C215	C	0.406001	0.901200	0.900521
	Zn216	Zn	0.500379	-0.000381	0.750267
	Zn217	Zn	0.499421	0.000179	0.250016
	Zn218	Zn	0.749394	0.499796	0.000182
	Zn219	Zn	0.250236	0.500131	-0.000209
	Zn220	Zn	0.000065	0.749515	0.499991
	Zn221	Zn	-0.000099	0.250639	0.499958
	Zn222	Zn	0.000523	0.500276	0.749941
	Zn223	Zn	-0.000144	0.499889	0.249953
	Zn224	Zn	0.499671	0.750925	0.000092
	Zn225	Zn	0.500178	0.249081	0.000074
	Zn226	Zn	0.749814	0.000276	0.500299
	Zn227	Zn	0.250193	-0.000273	0.499493
	N228	N	0.414596	0.962566	0.678110
	N229	N	0.585891	0.036636	0.678819
	N230	N	0.585786	0.962898	0.321007
	N231	N	0.414802	0.037358	0.322001
	N232	N	0.677229	0.415060	0.962322
	N233	N	0.677922	0.585527	0.037490
	N234	N	0.322559	0.585039	0.962097
	N235	N	0.322030	0.414689	0.037860
	N236	N	0.962529	0.678049	0.414535
	N237	N	0.037814	0.677494	0.584703
	N238	N	0.962935	0.322295	0.585350
	N239	N	0.037330	0.321993	0.414768
	N240	N	0.963159	0.415056	0.678375
	N241	N	0.037741	0.585473	0.678434
	N242	N	0.962772	0.585505	0.321222
	N243	N	0.037416	0.414886	0.321867
	N244	N	0.414190	0.679705	0.962680
	N245	N	0.585342	0.679287	0.037472
	N246	N	0.585863	0.320300	0.962894
	N247	N	0.414836	0.321143	0.037521
	N248	N	0.678210	0.962778	0.414895
	N249	N	0.677172	0.037540	0.584587
	N250	N	0.321901	0.961937	0.584565
	N251	N	0.322213	0.037485	0.414993
	N252	N	0.914078	0.462777	0.178473
	N253	N	0.085431	0.537629	0.178437
	N254	N	0.085864	0.463041	0.821695
	N255	N	0.914349	0.537486	0.821248
	N256	N	0.178296	0.914671	0.462168
	N257	N	0.178079	0.084532	0.537317
	N258	N	0.822033	0.085011	0.462915
	N259	N	0.822063	0.914860	0.537474
	N260	N	0.462389	0.177251	0.915023
	N261	N	0.537686	0.177083	0.085103
	N262	N	0.461705	0.822894	0.084623
	N263	N	0.537347	0.822096	0.914932
	N264	N	0.462223	0.914075	0.179219
	N265	N	0.537354	0.085009	0.178466
	N266	N	0.462576	0.085170	0.821411
	N267	N	0.537527	0.914535	0.821829
	N268	N	0.913670	0.179300	0.463261
	N269	N	0.085302	0.178271	0.537114
	N270	N	0.085753	0.821016	0.462606
	N271	N	0.914775	0.821281	0.537368
	N272	N	0.178717	0.463076	0.914556
	N273	N	0.178450	0.537522	0.085160
	N274	N	0.821535	0.462671	0.085066
	N275	N	0.821552	0.537735	0.915166
