data_Molecule from HDF5

_cell_length_a		16.268886
_cell_length_b		16.287271
_cell_length_c		16.336146
_cell_angle_alpha	90.090712
_cell_angle_beta	90.127759
_cell_angle_gamma	89.891801
_symmetry_space_group_name_H-M	'P 1'
_symmetry_Int_Tables_number		1

loop_
	_symmetry_equiv_pos_as_xyz
	x,y,z

loop_
	_atom_site_label
	_atom_site_type_symbol
	_atom_site_fract_x
	_atom_site_fract_y
	_atom_site_fract_z
	H0	H	0.400734	0.846385	0.717073
	H1	H	0.596889	0.173640	0.719207
	H2	H	0.597424	0.846863	0.288918
	H3	H	0.397346	0.173450	0.288516
	H4	H	0.711963	0.411479	0.840025
	H5	H	0.711747	0.608630	0.166783
	H6	H	0.281213	0.609625	0.840378
	H7	H	0.283502	0.411890	0.166901
	H8	H	0.834056	0.724999	0.405194
	H9	H	0.161059	0.724308	0.602157
	H10	H	0.834035	0.297063	0.600295
	H11	H	0.162183	0.296233	0.405922
	H12	H	0.834435	0.411366	0.717604
	H13	H	0.160905	0.609569	0.718686
	H14	H	0.834137	0.608706	0.289170
	H15	H	0.162177	0.412401	0.290418
	H16	H	0.397616	0.725712	0.840497
	H17	H	0.596407	0.725076	0.166745
	H18	H	0.596278	0.294795	0.840163
	H19	H	0.399317	0.294797	0.166954
	H20	H	0.711990	0.846420	0.405899
	H21	H	0.711317	0.174783	0.602083
	H22	H	0.284967	0.846339	0.600670
	H23	H	0.282665	0.174056	0.405504
	H24	H	0.901479	0.346604	0.216421
	H25	H	0.097423	0.673542	0.220188
	H26	H	0.097364	0.347884	0.787450
	H27	H	0.897089	0.674154	0.787898
	H28	H	0.211393	0.912174	0.339836
	H29	H	0.211098	0.107783	0.666825
	H30	H	0.782356	0.107421	0.340563
	H31	H	0.784649	0.914458	0.668025
	H32	H	0.334132	0.223209	0.907182
	H33	H	0.661651	0.224558	0.102071
	H34	H	0.333863	0.796530	0.100412
	H35	H	0.661744	0.795763	0.906375
	H36	H	0.333768	0.912127	0.217485
	H37	H	0.661334	0.111357	0.220669
	H38	H	0.334361	0.108814	0.789346
	H39	H	0.662184	0.911114	0.789217
	H40	H	0.897835	0.225317	0.339887
	H41	H	0.095516	0.224903	0.667229
	H42	H	0.094879	0.795451	0.340233
	H43	H	0.899317	0.795669	0.667128
	H44	H	0.211747	0.347045	0.905407
	H45	H	0.212045	0.674416	0.102504
	H46	H	0.784896	0.346520	0.099981
	H47	H	0.784412	0.674648	0.907448
	H48	H	0.405189	0.127234	0.598939
	H49	H	0.585747	0.892617	0.606031
	H50	H	0.584821	0.124073	0.414888
	H51	H	0.400824	0.889185	0.396878
	H52	H	0.596890	0.414374	0.122475
	H53	H	0.590748	0.600067	0.887917
	H54	H	0.406052	0.603107	0.118449
	H55	H	0.412662	0.422568	0.892511
	H56	H	0.114018	0.600382	0.407931
	H57	H	0.880164	0.606328	0.594349
	H58	H	0.114393	0.416258	0.596418
	H59	H	0.880117	0.409988	0.413265
	H60	H	0.113940	0.419080	0.594993
	H61	H	0.882324	0.599980	0.595003
	H62	H	0.115768	0.606979	0.410066
	H63	H	0.884786	0.424305	0.413610
	H64	H	0.405235	0.605283	0.119729
	H65	H	0.587821	0.606852	0.886648
	H66	H	0.591202	0.423836	0.116989
	H67	H	0.406322	0.406861	0.885363
	H68	H	0.595148	0.127268	0.414486
	H69	H	0.585504	0.897825	0.587803
	H70	H	0.404329	0.126241	0.595876
	H71	H	0.419118	0.898778	0.412805
	H72	H	0.904846	0.626218	0.095054
	H73	H	0.089471	0.393444	0.103994
	H74	H	0.089107	0.625705	0.913869
	H75	H	0.905779	0.395412	0.913340
	H76	H	0.090628	0.916627	0.619323
	H77	H	0.092828	0.101144	0.387302
	H78	H	0.909916	0.108905	0.619257
	H79	H	0.902348	0.918473	0.387669
	H80	H	0.616266	0.104410	0.906863
	H81	H	0.380174	0.104273	0.100519
	H82	H	0.612873	0.916977	0.091545
	H83	H	0.381607	0.921408	0.906111
	H84	H	0.613501	0.923570	0.100523
	H85	H	0.381909	0.105921	0.092914
	H86	H	0.614373	0.105046	0.914957
	H87	H	0.379732	0.913588	0.908060
	H88	H	0.899611	0.106755	0.621574
	H89	H	0.086723	0.103311	0.388330
	H90	H	0.092261	0.916524	0.620556
	H91	H	0.905951	0.917702	0.388874
	H92	H	0.093407	0.628995	0.909882
	H93	H	0.087113	0.396715	0.093311
	H94	H	0.901130	0.628441	0.097895
	H95	H	0.901806	0.392532	0.908496
	H96	H	0.401579	0.127580	0.598013
	H97	H	0.601848	0.891746	0.595844
	H98	H	0.589319	0.127940	0.405458
	H99	H	0.394821	0.894196	0.421448
	H100	H	0.585336	0.413508	0.117990
	H101	H	0.595069	0.605766	0.885518
	H102	H	0.404456	0.602789	0.119353
	H103	H	0.395100	0.421697	0.886118
	H104	H	0.113242	0.602801	0.414655
	H105	H	0.879570	0.603538	0.600667
	H106	H	0.113938	0.419115	0.598167
	H107	H	0.878841	0.417870	0.401469
	H108	H	0.905862	0.627699	0.100458
	H109	H	0.098265	0.392181	0.095920
	H110	H	0.087136	0.626893	0.907880
	H111	H	0.908633	0.394651	0.906508
	H112	H	0.091047	0.918080	0.618946
	H113	H	0.091342	0.106964	0.386586
	H114	H	0.905382	0.098976	0.617640
	H115	H	0.903849	0.915053	0.387582
	H116	H	0.613706	0.097708	0.910506
	H117	H	0.383345	0.098713	0.096299
	H118	H	0.616890	0.912899	0.100448
	H119	H	0.382617	0.918175	0.913280
	C120	C	0.376290	0.018676	0.625158
	C121	C	0.619135	1.002384	0.624952
	C122	C	0.618907	0.018468	0.382560
	C123	C	0.375950	1.002153	0.382015
	C124	C	0.619924	0.388378	0.011341
	C125	C	0.619405	0.632308	0.994866
	C126	C	0.375873	0.632231	0.011309
	C127	C	0.376106	0.388523	0.995949
	C128	C	0.006173	0.631772	0.382375
	C129	C	0.988782	0.631945	0.624960
	C130	C	0.006079	0.389413	0.624904
	C131	C	0.989749	0.388984	0.381682
	C132	C	0.876565	0.519025	0.125126
	C133	C	0.119806	0.502447	0.125774
	C134	C	0.118603	0.518933	0.882128
	C135	C	0.876357	0.502401	0.881389
	C136	C	0.119485	0.888423	0.511792
	C137	C	0.118928	0.132102	0.495332
	C138	C	0.875636	0.133008	0.511705
	C139	C	0.875960	0.888682	0.495924
	C140	C	0.506710	0.131504	0.882274
	C141	C	0.489754	0.132176	0.125792
	C142	C	0.505949	0.889146	0.125582
	C143	C	0.489639	0.888842	0.881264
	C144	C	0.379644	0.895307	0.679579
	C145	C	0.617261	0.125120	0.681117
	C146	C	0.617024	0.895376	0.327119
	C147	C	0.377776	0.124956	0.327140
	C148	C	0.674152	0.391201	0.888662
	C149	C	0.673944	0.629152	0.117915
	C150	C	0.319707	0.629825	0.889058
	C151	C	0.321601	0.391707	0.118341
	C152	C	0.882692	0.686732	0.384933
	C153	C	0.112196	0.686721	0.622826
	C154	C	0.882916	0.334455	0.621569
	C155	C	0.113283	0.334390	0.385368
	C156	C	0.883223	0.391471	0.679831
	C157	C	0.112061	0.629531	0.680417
	C158	C	0.882906	0.629103	0.327139
	C159	C	0.113072	0.391700	0.327597
	C160	C	0.377723	0.687357	0.889033
	C161	C	0.616537	0.687011	0.117877
	C162	C	0.617013	0.332847	0.888863
	C163	C	0.379167	0.333510	0.118455
	C164	C	0.674423	0.895283	0.384994
	C165	C	0.674002	0.125730	0.622748
	C166	C	0.321824	0.895464	0.622034
	C167	C	0.320299	0.125121	0.384770
	C168	C	0.880157	0.395426	0.178938
	C169	C	0.117501	0.625160	0.181626
	C170	C	0.116941	0.396338	0.826255
	C171	C	0.877360	0.625318	0.826187
	C172	C	0.174057	0.891199	0.388683
	C173	C	0.173372	0.128877	0.618251
	C174	C	0.820391	0.128939	0.388939
	C175	C	0.821977	0.892946	0.619242
	C176	C	0.382972	0.185814	0.885879
	C177	C	0.612681	0.187185	0.123318
	C178	C	0.382641	0.834546	0.121419
	C179	C	0.613261	0.833955	0.885138
	C180	C	0.382712	0.891579	0.179756
	C181	C	0.612607	0.130548	0.181747
	C182	C	0.383135	0.129120	0.827318
	C183	C	0.613266	0.891010	0.827056
	C184	C	0.877937	0.187113	0.388576
	C185	C	0.115920	0.186852	0.618333
	C186	C	0.116180	0.833364	0.388791
	C187	C	0.878643	0.833530	0.618665
	C188	C	0.173595	0.395775	0.884995
	C189	C	0.174462	0.625550	0.123212
	C190	C	0.822673	0.395436	0.121067
	C191	C	0.821411	0.625569	0.885301
	C192	C	0.397412	0.104856	0.603868
	C193	C	0.597374	0.916197	0.603004
	C194	C	0.596332	0.104224	0.405000
	C195	C	0.398275	0.916235	0.403832
	C196	C	0.597801	0.410679	0.097125
	C197	C	0.597641	0.610749	0.908958
	C198	C	0.398413	0.610151	0.096980
	C199	C	0.398186	0.410555	0.910153
	C200	C	0.092237	0.609831	0.404590
	C201	C	0.902883	0.609878	0.602901
	C202	C	0.091999	0.411623	0.602889
	C203	C	0.903436	0.410954	0.403144
	C204	C	0.897774	0.605107	0.103964
	C205	C	0.098080	0.416248	0.104004
	C206	C	0.096343	0.605127	0.904116
	C207	C	0.898676	0.416481	0.903084
	C208	C	0.097718	0.910434	0.597481
	C209	C	0.096742	0.110259	0.409545
	C210	C	0.898138	0.111326	0.597326
	C211	C	0.897796	0.910453	0.410181
	C212	C	0.592505	0.109163	0.904222
	C213	C	0.403859	0.109678	0.103234
	C214	C	0.592220	0.911338	0.103797
	C215	C	0.403643	0.911107	0.902942
	Zn216	Zn	0.498155	0.010297	0.753177
	Zn217	Zn	0.497771	0.010596	0.253748
	Zn218	Zn	0.748110	0.510601	0.002930
	Zn219	Zn	0.247204	0.510529	0.003706
	Zn220	Zn	-0.002608	0.759932	0.503936
	Zn221	Zn	-0.002150	0.261512	0.503072
	Zn222	Zn	-0.002643	0.511126	0.753188
	Zn223	Zn	-0.002143	0.510337	0.253666
	Zn224	Zn	0.497851	0.761113	0.003215
	Zn225	Zn	0.498192	0.259885	0.003578
	Zn226	Zn	0.747298	0.010583	0.504095
	Zn227	Zn	0.247713	0.010247	0.503568
	N228	N	0.412881	0.972902	0.681597
	N229	N	0.583999	0.047453	0.682561
	N230	N	0.583647	0.973125	0.325262
	N231	N	0.411534	0.047436	0.325178
	N232	N	0.676036	0.424958	0.965908
	N233	N	0.675799	0.595755	0.040471
	N234	N	0.318709	0.596024	0.966280
	N235	N	0.319883	0.425379	0.041211
	N236	N	0.960322	0.688547	0.418388
	N237	N	0.034648	0.688393	0.589092
	N238	N	0.960371	0.333221	0.588045
	N239	N	0.035512	0.332569	0.418202
	N240	N	0.960804	0.424933	0.681817
	N241	N	0.034543	0.596117	0.681898
	N242	N	0.960636	0.595615	0.325535
	N243	N	0.035146	0.424788	0.325225
	N244	N	0.411999	0.689059	0.966027
	N245	N	0.583180	0.689078	0.040383
	N246	N	0.583879	0.331164	0.966333
	N247	N	0.412431	0.331573	0.041159
	N248	N	0.675641	0.972748	0.418791
	N249	N	0.675122	0.048523	0.588491
	N250	N	0.319842	0.973059	0.588875
	N251	N	0.319383	0.047790	0.418520
	N252	N	0.912880	0.473231	0.181626
	N253	N	0.084334	0.547519	0.183385
	N254	N	0.083417	0.473980	0.824401
	N255	N	0.911107	0.547747	0.823877
	N256	N	0.176264	0.924600	0.466205
	N257	N	0.175372	0.095793	0.540904
	N258	N	0.818830	0.096143	0.466487
	N259	N	0.819940	0.926168	0.541768
	N260	N	0.460572	0.187206	0.919440
	N261	N	0.535413	0.188157	0.089117
	N262	N	0.460562	0.832677	0.088623
	N263	N	0.535588	0.832571	0.918067
	N264	N	0.460387	0.924793	0.182189
	N265	N	0.534952	0.097067	0.183546
	N266	N	0.460908	0.095910	0.825050
	N267	N	0.535479	0.924275	0.824366
	N268	N	0.911578	0.189817	0.465891
	N269	N	0.082681	0.188916	0.540618
	N270	N	0.083035	0.831627	0.466106
	N271	N	0.911673	0.831318	0.541233
	N272	N	0.174603	0.473155	0.919081
	N273	N	0.175743	0.548282	0.089166
	N274	N	0.820303	0.473158	0.088187
	N275	N	0.820597	0.548210	0.918787
	O276	O	-0.522823	-0.476757	1.475037
	H277	H	-0.519652	-0.480625	1.478072
	H278	H	-0.523111	-0.476474	1.464897
	O279	O	0.474742	0.458392	0.465157
	H280	H	0.477440	0.462881	0.467860
	H281	H	0.471703	0.451752	0.461793
	O282	O	0.469512	0.573836	0.488082
	H283	H	0.470844	0.578228	0.488232
	H284	H	0.477647	0.567507	0.483992
	O285	O	0.481880	0.504248	0.455159
	H286	H	0.476418	0.511440	0.453144
	H287	H	0.477534	0.509409	0.453392
	O288	O	0.534962	0.520143	0.445895
	H289	H	0.530531	0.515835	0.446974
	H290	H	0.529072	0.512636	0.441586
	O291	O	0.523835	0.579094	0.512447
	H292	H	0.528330	0.582276	0.509635
	H293	H	0.531557	0.580722	0.522268
	O294	O	0.507314	0.511649	0.434955
	H295	H	0.505319	0.505171	0.439995
	H296	H	0.511359	0.517822	0.428725
	O297	O	1.538454	-0.450055	-0.523419
	H298	H	1.537969	-0.446913	-0.526360
	H299	H	1.530064	-0.451689	-0.524377
