data_Molecule from HDF5

_cell_length_a		16.193217
_cell_length_b		16.230735
_cell_length_c		16.417977
_cell_angle_alpha	89.510464
_cell_angle_beta	90.228901
_cell_angle_gamma	89.315238
_symmetry_space_group_name_H-M	'P 1'
_symmetry_Int_Tables_number		1

loop_
	_symmetry_equiv_pos_as_xyz
	x,y,z

loop_
	_atom_site_label
	_atom_site_type_symbol
	_atom_site_fract_x
	_atom_site_fract_y
	_atom_site_fract_z
	H0	H	0.398200	0.844804	0.718498
	H1	H	0.601107	0.168812	0.713937
	H2	H	0.600064	0.842940	0.283248
	H3	H	0.393231	0.169303	0.281309
	H4	H	0.714671	0.407205	0.837000
	H5	H	0.713234	0.604928	0.161049
	H6	H	0.277834	0.609653	0.837693
	H7	H	0.286140	0.410770	0.162593
	H8	H	0.834977	0.721478	0.400665
	H9	H	0.164012	0.712634	0.598391
	H10	H	0.834157	0.288772	0.598805
	H11	H	0.163258	0.288867	0.405245
	H12	H	0.834453	0.401330	0.717561
	H13	H	0.161864	0.599414	0.716376
	H14	H	0.834786	0.607669	0.283102
	H15	H	0.161276	0.398864	0.283092
	H16	H	0.395057	0.725077	0.836134
	H17	H	0.594716	0.720607	0.161055
	H18	H	0.597960	0.291009	0.836332
	H19	H	0.395702	0.287312	0.159159
	H20	H	0.712888	0.840967	0.402977
	H21	H	0.713503	0.168699	0.596933
	H22	H	0.292608	0.838765	0.595633
	H23	H	0.278722	0.167048	0.397629
	H24	H	0.897460	0.341170	0.217546
	H25	H	0.096322	0.667628	0.217225
	H26	H	0.100252	0.340403	0.789312
	H27	H	0.890448	0.665203	0.777205
	H28	H	0.215481	0.902180	0.336583
	H29	H	0.214745	0.097645	0.661488
	H30	H	0.781607	0.106522	0.336772
	H31	H	0.782884	0.902724	0.660936
	H32	H	0.333568	0.226216	0.895140
	H33	H	0.660950	0.218106	0.095011
	H34	H	0.331181	0.796551	0.095841
	H35	H	0.660499	0.789005	0.899714
	H36	H	0.334363	0.906723	0.216297
	H37	H	0.659961	0.108351	0.215160
	H38	H	0.335994	0.114692	0.776398
	H39	H	0.662163	0.906512	0.785142
	H40	H	0.897048	0.223454	0.338014
	H41	H	0.099633	0.215205	0.662797
	H42	H	0.099317	0.786805	0.336812
	H43	H	0.902420	0.787595	0.661756
	H44	H	0.215998	0.343512	0.904344
	H45	H	0.206703	0.670988	0.097207
	H46	H	0.783136	0.341606	0.100284
	H47	H	0.781898	0.669690	0.899405
	H48	H	0.409584	0.121294	0.589333
	H49	H	0.586932	0.890392	0.593056
	H50	H	0.591027	0.122448	0.408950
	H51	H	0.414459	0.888820	0.399744
	H52	H	0.586128	0.413329	0.111671
	H53	H	0.581402	0.597335	0.887087
	H54	H	0.404239	0.606019	0.115129
	H55	H	0.405880	0.413408	0.883707
	H56	H	0.112704	0.592829	0.416565
	H57	H	0.880933	0.597629	0.589742
	H58	H	0.114265	0.411057	0.595877
	H59	H	0.879654	0.412471	0.402562
	H60	H	0.116080	0.407075	0.597534
	H61	H	0.883251	0.594980	0.588291
	H62	H	0.113465	0.584671	0.402724
	H63	H	0.882459	0.410974	0.413475
	H64	H	0.398327	0.601624	0.115700
	H65	H	0.589013	0.607637	0.881719
	H66	H	0.590817	0.408359	0.114352
	H67	H	0.401128	0.421009	0.883966
	H68	H	0.591444	0.124320	0.400440
	H69	H	0.592236	0.890133	0.589443
	H70	H	0.405668	0.120663	0.582248
	H71	H	0.410840	0.890925	0.410009
	H72	H	0.898078	0.625605	0.097732
	H73	H	0.095556	0.386848	0.093377
	H74	H	0.076842	0.618316	0.908338
	H75	H	0.898195	0.387650	0.915065
	H76	H	0.098710	0.896366	0.618552
	H77	H	0.090322	0.100413	0.383485
	H78	H	0.909390	0.100261	0.615238
	H79	H	0.903204	0.918361	0.385017
	H80	H	0.616681	0.105521	0.901106
	H81	H	0.380356	0.101269	0.086521
	H82	H	0.614139	0.913276	0.092278
	H83	H	0.379489	0.920726	0.899332
	H84	H	0.613563	0.912853	0.089536
	H85	H	0.381773	0.094242	0.087991
	H86	H	0.610966	0.097715	0.913689
	H87	H	0.380533	0.913681	0.908107
	H88	H	0.900007	0.094754	0.615501
	H89	H	0.091984	0.091699	0.384983
	H90	H	0.103671	0.914420	0.614321
	H91	H	0.913133	0.912834	0.385866
	H92	H	0.090851	0.622165	0.910980
	H93	H	0.088812	0.388715	0.097387
	H94	H	0.915170	0.618616	0.095889
	H95	H	0.906142	0.385113	0.898883
	H96	H	0.400846	0.123797	0.588899
	H97	H	0.592154	0.887694	0.595058
	H98	H	0.584190	0.121693	0.403737
	H99	H	0.403944	0.885951	0.403106
	H100	H	0.592752	0.414828	0.113440
	H101	H	0.594104	0.594569	0.883242
	H102	H	0.404691	0.598866	0.113291
	H103	H	0.410012	0.420892	0.886160
	H104	H	0.119055	0.600061	0.402954
	H105	H	0.881901	0.594321	0.592107
	H106	H	0.114108	0.408004	0.593592
	H107	H	0.884485	0.420980	0.408576
	H108	H	0.903215	0.618348	0.081794
	H109	H	0.089313	0.391329	0.089856
	H110	H	0.084843	0.624593	0.897209
	H111	H	0.915931	0.391881	0.912910
	H112	H	0.085024	0.908488	0.610996
	H113	H	0.084209	0.095051	0.386500
	H114	H	0.908680	0.090129	0.611657
	H115	H	0.904462	0.907849	0.382205
	H116	H	0.613087	0.090218	0.900522
	H117	H	0.378600	0.098671	0.093176
	H118	H	0.612690	0.915210	0.090825
	H119	H	0.383990	0.924431	0.908915
	C120	C	0.378390	0.013944	0.617975
	C121	C	0.620236	0.997341	0.620411
	C122	C	0.619411	0.014380	0.376618
	C123	C	0.376668	0.996383	0.375292
	C124	C	0.619353	0.383935	0.006293
	C125	C	0.617709	0.628147	0.990763
	C126	C	0.372508	0.631926	0.007626
	C127	C	0.376392	0.387265	0.990991
	C128	C	0.007043	0.624977	0.377809
	C129	C	0.990361	0.623043	0.619719
	C130	C	0.006575	0.380050	0.623779
	C131	C	0.990320	0.382829	0.379616
	C132	C	0.876195	0.513065	0.121450
	C133	C	0.118707	0.497196	0.122198
	C134	C	0.116811	0.513843	0.879124
	C135	C	0.875515	0.495835	0.877902
	C136	C	0.123555	0.878602	0.507317
	C137	C	0.119273	0.123390	0.491829
	C138	C	0.876026	0.126373	0.507663
	C139	C	0.878325	0.883083	0.491278
	C140	C	0.506049	0.129929	0.874351
	C141	C	0.488333	0.127056	0.118445
	C142	C	0.505179	0.885250	0.120157
	C143	C	0.489243	0.887743	0.876889
	C144	C	0.379938	0.892216	0.677511
	C145	C	0.619737	0.120078	0.675424
	C146	C	0.619577	0.891595	0.321559
	C147	C	0.374782	0.119847	0.319480
	C148	C	0.676018	0.386577	0.885069
	C149	C	0.674270	0.625385	0.112706
	C150	C	0.316124	0.630186	0.885820
	C151	C	0.322397	0.389118	0.113401
	C152	C	0.883929	0.683258	0.379842
	C153	C	0.114385	0.676164	0.618503
	C154	C	0.883147	0.326089	0.619911
	C155	C	0.113822	0.326330	0.383309
	C156	C	0.883472	0.381705	0.679128
	C157	C	0.113351	0.619685	0.677112
	C158	C	0.883689	0.626183	0.321922
	C159	C	0.112845	0.381311	0.322856
	C160	C	0.374372	0.687524	0.885128
	C161	C	0.615425	0.682844	0.112752
	C162	C	0.617902	0.328920	0.884820
	C163	C	0.377418	0.328304	0.111782
	C164	C	0.675345	0.890457	0.381258
	C165	C	0.676117	0.119988	0.617379
	C166	C	0.327118	0.889251	0.616640
	C167	C	0.317567	0.118578	0.377323
	C168	C	0.877431	0.390166	0.178743
	C169	C	0.116146	0.619511	0.178254
	C170	C	0.119007	0.389990	0.826007
	C171	C	0.873206	0.617603	0.817896
	C172	C	0.178047	0.881747	0.385205
	C173	C	0.176555	0.119292	0.613291
	C174	C	0.820118	0.126004	0.385344
	C175	C	0.822200	0.883683	0.612883
	C176	C	0.383099	0.187816	0.875106
	C177	C	0.611687	0.181666	0.116180
	C178	C	0.381158	0.832234	0.117198
	C179	C	0.611987	0.828806	0.879498
	C180	C	0.382618	0.887319	0.177045
	C181	C	0.611237	0.126605	0.175664
	C182	C	0.384202	0.132294	0.815799
	C183	C	0.612667	0.886986	0.822220
	C184	C	0.877271	0.184394	0.386070
	C185	C	0.119083	0.177828	0.613772
	C186	C	0.120258	0.824248	0.385400
	C187	C	0.881347	0.826345	0.613237
	C188	C	0.176480	0.391515	0.883189
	C189	C	0.171148	0.621124	0.118589
	C190	C	0.820554	0.390420	0.120563
	C191	C	0.819218	0.619732	0.878720
	C192	C	0.399333	0.099716	0.593959
	C193	C	0.597275	0.911783	0.598904
	C194	C	0.595776	0.100481	0.397961
	C195	C	0.402275	0.910674	0.397777
	C196	C	0.596593	0.405745	0.091218
	C197	C	0.594872	0.606380	0.905943
	C198	C	0.395625	0.608930	0.092647
	C199	C	0.398972	0.411458	0.906456
	C200	C	0.092798	0.599918	0.400755
	C201	C	0.904389	0.601810	0.596797
	C202	C	0.092649	0.402229	0.602177
	C203	C	0.904310	0.407637	0.401818
	C204	C	0.898725	0.598571	0.098415
	C205	C	0.097493	0.411405	0.099907
	C206	C	0.091553	0.599366	0.899565
	C207	C	0.899733	0.410326	0.901965
	C208	C	0.102111	0.900003	0.592462
	C209	C	0.095746	0.102094	0.406956
	C210	C	0.899141	0.102273	0.592125
	C211	C	0.900449	0.906275	0.406539
	C212	C	0.591593	0.105015	0.898327
	C213	C	0.402561	0.104497	0.095834
	C214	C	0.591119	0.907071	0.097392
	C215	C	0.403564	0.912502	0.899033
	Zn216	Zn	0.497900	0.008136	0.747069
	Zn217	Zn	0.497847	0.006956	0.247458
	Zn218	Zn	0.748040	0.505999	-0.000577
	Zn219	Zn	0.245833	0.507916	-0.000301
	Zn220	Zn	0.000106	0.752396	0.498964
	Zn221	Zn	-0.001713	0.254063	0.500955
	Zn222	Zn	-0.002809	0.502812	0.750257
	Zn223	Zn	-0.002047	0.503843	0.250096
	Zn224	Zn	0.495919	0.758250	-0.001710
	Zn225	Zn	0.496863	0.255485	-0.002423
	Zn226	Zn	0.747422	0.005140	0.499018
	Zn227	Zn	0.250214	0.002179	0.498334
	N228	N	0.410870	0.970872	0.678605
	N229	N	0.585627	0.042947	0.677320
	N230	N	0.585597	0.969627	0.318606
	N231	N	0.410898	0.042809	0.318162
	N232	N	0.677004	0.420078	0.961694
	N233	N	0.675921	0.592348	0.035853
	N234	N	0.314624	0.596548	0.963000
	N235	N	0.321554	0.425057	0.037229
	N236	N	0.961668	0.682460	0.413925
	N237	N	0.036957	0.678436	0.583644
	N238	N	0.960819	0.324849	0.586451
	N239	N	0.036716	0.327324	0.417857
	N240	N	0.961270	0.414756	0.681481
	N241	N	0.035139	0.587354	0.678149
	N242	N	0.961181	0.590591	0.320648
	N243	N	0.034611	0.415790	0.320410
	N244	N	0.408318	0.688801	0.961950
	N245	N	0.581221	0.684853	0.035946
	N246	N	0.583535	0.326987	0.961253
	N247	N	0.410237	0.327004	0.034580
	N248	N	0.675423	0.968062	0.414658
	N249	N	0.676447	0.042610	0.583876
	N250	N	0.325852	0.965926	0.580236
	N251	N	0.318706	0.040715	0.411215
	N252	N	0.911179	0.467395	0.179595
	N253	N	0.084657	0.541268	0.180745
	N254	N	0.082285	0.466900	0.823586
	N255	N	0.907478	0.539621	0.817165
	N256	N	0.180320	0.914799	0.462045
	N257	N	0.176840	0.086173	0.536453
	N258	N	0.819093	0.090746	0.461623
	N259	N	0.820082	0.918324	0.536132
	N260	N	0.460052	0.186659	0.910591
	N261	N	0.534364	0.182054	0.081215
	N262	N	0.458351	0.830935	0.082507
	N263	N	0.534127	0.829084	0.912635
	N264	N	0.460914	0.919318	0.179210
	N265	N	0.533462	0.093517	0.177373
	N266	N	0.461815	0.097158	0.815204
	N267	N	0.535349	0.923121	0.820651
	N268	N	0.911374	0.184730	0.463104
	N269	N	0.084217	0.180629	0.537110
	N270	N	0.087375	0.821988	0.462386
	N271	N	0.915630	0.825894	0.536720
	N272	N	0.175249	0.469439	0.915507
	N273	N	0.173131	0.543940	0.084567
	N274	N	0.819533	0.467886	0.085559
	N275	N	0.820630	0.543220	0.915256
	O276	O	0.989662	0.167534	0.955325
	H277	H	0.981719	0.179000	0.967087
	H278	H	0.984656	0.170231	0.949480
	O279	O	0.578658	0.446561	0.515221
	H280	H	0.574767	0.437765	0.522366
	H281	H	0.570212	0.454628	0.521321
	O282	O	0.553957	0.527776	0.427564
	H283	H	0.547139	0.532018	0.432003
	H284	H	0.556413	0.509772	0.438446
	O285	O	0.577942	0.366678	0.548351
	H286	H	0.575535	0.368985	0.546257
	H287	H	0.589635	0.360546	0.551914
	O288	O	0.595160	0.577780	0.540526
	H289	H	0.600796	0.584289	0.544897
	H290	H	0.591258	0.570921	0.535296
	O291	O	-0.096554	-0.095105	0.932765
	H292	H	-0.092336	-0.090715	0.922155
	H293	H	-0.088075	-0.098229	0.934389
	O294	O	0.946333	1.165269	0.056454
	H295	H	0.945213	1.161869	0.060908
	H296	H	0.950324	1.153751	0.047685
	O297	O	1.053080	0.930836	-0.068375
	H298	H	1.056609	0.927691	-0.078857
	H299	H	1.057222	0.932783	-0.076538
	O300	O	0.381918	0.589989	0.436274
	H301	H	0.378477	0.597283	0.432823
	H302	H	0.386902	0.589858	0.434264
	O303	O	0.515985	0.404526	0.554512
	H304	H	0.522884	0.399019	0.556541
	H305	H	0.511832	0.397272	0.561009
	O306	O	0.569249	0.579798	0.576257
	H307	H	0.565864	0.576737	0.578937
	H308	H	0.569119	0.592290	0.573674
	O309	O	0.627442	0.466015	0.432082
	H310	H	0.635619	0.464395	0.437670
	H311	H	0.631664	0.471588	0.430313
	O312	O	0.952496	0.922543	1.138062
	H313	H	0.949994	0.920925	1.120267
	H314	H	0.943260	0.915916	1.136983
	O315	O	0.947045	1.102534	-0.038498
	H316	H	0.924515	1.095903	-0.041252
	H317	H	0.946049	1.112691	-0.036276
	O318	O	0.534273	0.596993	0.435172
	H319	H	0.536419	0.586221	0.427860
	H320	H	0.530191	0.593974	0.439772
	O321	O	0.501001	0.421564	0.581862
	H322	H	0.506018	0.424286	0.574958
	H323	H	0.493845	0.434779	0.584045
	O324	O	-0.146008	1.093475	0.930512
	H325	H	-0.135373	1.088070	0.947039
	H326	H	-0.152955	1.096472	0.936323
	O327	O	0.003757	0.973820	0.865052
	H328	H	-0.002210	0.988602	0.854945
	H329	H	-0.001473	0.982127	0.867579
	O330	O	0.070128	-0.130192	-0.096105
	H331	H	0.075832	-0.133243	-0.100768
	H332	H	0.084060	-0.124794	-0.101842
	O333	O	0.404019	0.551848	0.416261
	H334	H	0.397217	0.547715	0.400939
	H335	H	0.404705	0.568026	0.407782
	O336	O	0.072804	-0.066206	-0.011366
	H337	H	0.079277	-0.067266	-0.010230
	H338	H	0.072768	-0.071631	-0.009097
	O339	O	-0.029092	0.029659	-0.127518
	H340	H	-0.024021	0.018633	-0.125242
	H341	H	-0.044890	0.026625	-0.136406
	O342	O	0.463145	0.514162	0.476346
	H343	H	0.462898	0.522709	0.471111
	H344	H	0.473205	0.503133	0.475378
	O345	O	-0.152576	0.938625	1.144740
	H346	H	-0.173657	0.931539	1.161334
	H347	H	-0.158144	0.916777	1.138258
	O348	O	0.585541	0.560250	0.459633
	H349	H	0.582514	0.554339	0.473652
	H350	H	0.592405	0.548153	0.460056
	O351	O	0.552873	0.522196	0.449075
	H352	H	0.555384	0.519646	0.451834
	H353	H	0.545338	0.528646	0.450913
	O354	O	-0.049127	1.100610	-0.021702
	H355	H	-0.048706	1.111667	-0.030968
	H356	H	-0.041311	1.094820	0.000968
	O357	O	-0.139694	0.045282	1.021505
	H358	H	-0.160424	0.035819	1.022539
	H359	H	-0.126929	0.035204	1.025355
	O360	O	1.016638	-0.010175	1.070004
	H361	H	1.014625	-0.002144	1.061047
	H362	H	1.020511	-0.023961	1.077008
	O363	O	0.402028	0.403123	0.523474
	H364	H	0.406527	0.394358	0.523084
	H365	H	0.398989	0.411297	0.525190
	O366	O	0.468691	0.506733	0.465748
	H367	H	0.461589	0.496733	0.463718
	H368	H	0.469928	0.505378	0.468443
	O369	O	1.148088	-0.015267	-0.142489
	H370	H	1.149616	0.001756	-0.140648
	H371	H	1.139119	-0.005466	-0.145405
	O372	O	0.427831	0.545946	0.514461
	H373	H	0.421964	0.552171	0.517340
	H374	H	0.429117	0.530308	0.523566
	O375	O	1.045103	-0.087403	1.024013
	H376	H	1.054180	-0.091002	1.024713
	H377	H	1.049800	-0.085798	1.028539
	O378	O	0.002163	0.909176	0.110745
	H379	H	0.010248	0.905316	0.100417
	H380	H	0.004482	0.906429	0.113892
	O381	O	0.474170	0.450319	0.443240
	H382	H	0.472636	0.452189	0.437425
	H383	H	0.473564	0.450116	0.446018
	O384	O	1.139738	1.072485	0.096549
	H385	H	1.144062	1.072307	0.117567
	H386	H	1.145150	1.075849	0.098719
	O387	O	1.050077	0.036900	0.959948
	H388	H	1.042160	0.041065	0.959321
	H389	H	1.063128	0.040373	0.954161
	O390	O	1.034837	0.911599	0.065016
	H391	H	1.005451	0.909802	0.069684
	H392	H	1.038009	0.914271	0.057624
	O393	O	0.417557	0.574274	0.535800
	H394	H	0.419322	0.580569	0.518650
	H395	H	0.409451	0.578505	0.523278
