data_Molecule from HDF5

_cell_length_a		16.591270
_cell_length_b		16.729317
_cell_length_c		16.650613
_cell_angle_alpha	90.150702
_cell_angle_beta	90.003095
_cell_angle_gamma	89.905983
_symmetry_space_group_name_H-M	'P 1'
_symmetry_Int_Tables_number		1

loop_
	_symmetry_equiv_pos_as_xyz
	x,y,z

loop_
	_atom_site_label
	_atom_site_type_symbol
	_atom_site_fract_x
	_atom_site_fract_y
	_atom_site_fract_z
	H0	H	0.386466	0.856761	0.714611
	H1	H	0.607717	0.158307	0.709161
	H2	H	0.608249	0.852591	0.262235
	H3	H	0.396044	0.160978	0.263981
	H4	H	0.720141	0.403622	0.829004
	H5	H	0.724995	0.614160	0.139649
	H6	H	0.277263	0.612766	0.834102
	H7	H	0.279336	0.397844	0.140872
	H8	H	0.846290	0.727627	0.381715
	H9	H	0.157799	0.728123	0.592801
	H10	H	0.847316	0.283887	0.594201
	H11	H	0.155111	0.282897	0.378701
	H12	H	0.846987	0.400897	0.709229
	H13	H	0.157778	0.612715	0.708609
	H14	H	0.846786	0.612042	0.264996
	H15	H	0.155374	0.399176	0.263573
	H16	H	0.388576	0.731543	0.835315
	H17	H	0.610007	0.731711	0.139189
	H18	H	0.606456	0.285780	0.829668
	H19	H	0.394902	0.281619	0.140211
	H20	H	0.724857	0.852686	0.378317
	H21	H	0.724290	0.158124	0.593781
	H22	H	0.275590	0.853929	0.595128
	H23	H	0.277272	0.159341	0.378100
	H24	H	0.893075	0.353058	0.210734
	H25	H	0.109182	0.659403	0.211365
	H26	H	0.107549	0.351556	0.765006
	H27	H	0.897455	0.660716	0.767107
	H28	H	0.220977	0.902447	0.328782
	H29	H	0.226198	0.113511	0.639322
	H30	H	0.781205	0.110831	0.331892
	H31	H	0.782524	0.903674	0.642039
	H32	H	0.346240	0.225733	0.881874
	H33	H	0.657919	0.226039	0.090615
	H34	H	0.346309	0.784284	0.093583
	H35	H	0.653755	0.780364	0.876031
	H36	H	0.346601	0.901007	0.207924
	H37	H	0.657454	0.111903	0.207172
	H38	H	0.345959	0.109175	0.765486
	H39	H	0.654626	0.896073	0.761865
	H40	H	0.896442	0.227576	0.332287
	H41	H	0.113660	0.233024	0.638193
	H42	H	0.107138	0.784723	0.329821
	H43	H	0.898700	0.787491	0.642230
	H44	H	0.221207	0.349823	0.883206
	H45	H	0.228178	0.657504	0.097818
	H46	H	0.778402	0.351917	0.093161
	H47	H	0.780632	0.660424	0.883117
	H48	H	0.410965	0.114595	0.567521
	H49	H	0.589635	0.894432	0.575873
	H50	H	0.588266	0.115862	0.397021
	H51	H	0.413552	0.896566	0.397351
	H52	H	0.588648	0.412852	0.097176
	H53	H	0.582866	0.596648	0.876717
	H54	H	0.411029	0.590956	0.098784
	H55	H	0.410125	0.415018	0.874108
	H56	H	0.113073	0.596255	0.401465
	H57	H	0.891719	0.592422	0.576725
	H58	H	0.112848	0.416479	0.571782
	H59	H	0.889921	0.419620	0.398140
	H60	H	0.110490	0.421487	0.573122
	H61	H	0.888856	0.599315	0.578712
	H62	H	0.112414	0.592794	0.397785
	H63	H	0.888823	0.417259	0.399087
	H64	H	0.419548	0.590468	0.094325
	H65	H	0.593009	0.595176	0.874209
	H66	H	0.593932	0.414894	0.098444
	H67	H	0.413493	0.419937	0.876813
	H68	H	0.593977	0.117651	0.398625
	H69	H	0.587278	0.896544	0.572353
	H70	H	0.414312	0.117135	0.577137
	H71	H	0.410743	0.894729	0.395823
	H72	H	0.909808	0.617063	0.076077
	H73	H	0.084997	0.398948	0.072266
	H74	H	0.087793	0.614942	0.900271
	H75	H	0.913119	0.396491	0.901869
	H76	H	0.088336	0.921380	0.595154
	H77	H	0.083614	0.098680	0.375172
	H78	H	0.915275	0.092219	0.597284
	H79	H	0.913143	0.912013	0.372220
	H80	H	0.614950	0.099565	0.897467
	H81	H	0.391049	0.094841	0.070673
	H82	H	0.611826	0.919828	0.073375
	H83	H	0.390874	0.920257	0.901722
	H84	H	0.613707	0.916646	0.074076
	H85	H	0.391789	0.091911	0.074353
	H86	H	0.612763	0.091802	0.899154
	H87	H	0.390987	0.920299	0.899409
	H88	H	0.916789	0.098236	0.598582
	H89	H	0.093773	0.093460	0.373516
	H90	H	0.086465	0.914399	0.596661
	H91	H	0.909138	0.917311	0.373641
	H92	H	0.093683	0.617055	0.900012
	H93	H	0.093066	0.395821	0.071243
	H94	H	0.917678	0.614930	0.076522
	H95	H	0.906432	0.392085	0.894630
	H96	H	0.420429	0.112488	0.570658
	H97	H	0.591965	0.894521	0.571529
	H98	H	0.591933	0.118706	0.392864
	H99	H	0.413548	0.896060	0.393855
	H100	H	0.589926	0.418583	0.096322
	H101	H	0.587552	0.587068	0.878824
	H102	H	0.417327	0.599164	0.097870
	H103	H	0.415906	0.414067	0.876208
	H104	H	0.114642	0.597540	0.396116
	H105	H	0.891506	0.598400	0.571609
	H106	H	0.114053	0.418641	0.576457
	H107	H	0.891136	0.418954	0.400430
	H108	H	0.913729	0.613976	0.069630
	H109	H	0.089028	0.395263	0.079118
	H110	H	0.090147	0.617604	0.895100
	H111	H	0.917404	0.393861	0.892187
	H112	H	0.093656	0.916636	0.597967
	H113	H	0.084969	0.088299	0.379502
	H114	H	0.910653	0.096387	0.598473
	H115	H	0.915305	0.917173	0.375666
	H116	H	0.615380	0.093517	0.892167
	H117	H	0.389688	0.095748	0.074573
	H118	H	0.611538	0.917104	0.070669
	H119	H	0.390357	0.918427	0.900123
	C120	C	0.379911	0.014467	0.606648
	C121	C	0.622349	0.996886	0.606554
	C122	C	0.623646	0.015064	0.363796
	C123	C	0.380053	0.997965	0.363459
	C124	C	0.623150	0.384209	-0.005745
	C125	C	0.621927	0.627170	0.977761
	C126	C	0.380743	0.626765	-0.004410
	C127	C	0.380569	0.383617	0.977803
	C128	C	0.010620	0.627697	0.365815
	C129	C	0.993611	0.628630	0.608398
	C130	C	0.010104	0.385901	0.607004
	C131	C	0.992535	0.385829	0.366110
	C132	C	0.879955	0.514038	0.107483
	C133	C	0.123437	0.497620	0.108939
	C134	C	0.122946	0.514152	0.865979
	C135	C	0.880163	0.496903	0.864717
	C136	C	0.122462	0.885035	0.493810
	C137	C	0.122539	0.127624	0.477539
	C138	C	0.881205	0.127619	0.495696
	C139	C	0.880919	0.884693	0.477350
	C140	C	0.511013	0.126730	0.864189
	C141	C	0.493824	0.126722	0.106039
	C142	C	0.509907	0.885264	0.106574
	C143	C	0.491997	0.884471	0.865064
	C144	C	0.371902	0.901628	0.671481
	C145	C	0.625588	0.112267	0.668412
	C146	C	0.626319	0.898730	0.302952
	C147	C	0.377873	0.114469	0.304125
	C148	C	0.681383	0.384037	0.876337
	C149	C	0.683927	0.631629	0.093634
	C150	C	0.317722	0.630474	0.880434
	C151	C	0.319895	0.380287	0.094318
	C152	C	0.893080	0.687443	0.363658
	C153	C	0.111124	0.688045	0.610580
	C154	C	0.893532	0.324780	0.611438
	C155	C	0.108712	0.324025	0.361587
	C156	C	0.893426	0.383032	0.668475
	C157	C	0.111042	0.630616	0.668241
	C158	C	0.893285	0.630035	0.305785
	C159	C	0.108959	0.381896	0.304484
	C160	C	0.373274	0.689735	0.880985
	C161	C	0.626874	0.690024	0.093151
	C162	C	0.624497	0.325699	0.876613
	C163	C	0.377272	0.322278	0.093836
	C164	C	0.684284	0.898835	0.360644
	C165	C	0.683624	0.112099	0.611018
	C166	C	0.316393	0.900170	0.611984
	C167	C	0.318786	0.113632	0.360694
	C168	C	0.875964	0.398801	0.169480
	C169	C	0.127404	0.613034	0.170963
	C170	C	0.125161	0.397715	0.805641
	C171	C	0.878805	0.614097	0.806665
	C172	C	0.181711	0.883263	0.376082
	C173	C	0.185155	0.131232	0.593134
	C174	C	0.820980	0.129684	0.378769
	C175	C	0.822200	0.884579	0.595128
	C176	C	0.393221	0.186035	0.862603
	C177	C	0.610888	0.186701	0.109120
	C178	C	0.393117	0.824772	0.110843
	C179	C	0.607483	0.821469	0.859495
	C180	C	0.393248	0.882737	0.167832
	C181	C	0.610735	0.129577	0.166692
	C182	C	0.393083	0.128289	0.804887
	C183	C	0.607761	0.878963	0.802359
	C184	C	0.878117	0.187667	0.378851
	C185	C	0.129214	0.190681	0.592624
	C186	C	0.124978	0.824891	0.376606
	C187	C	0.879824	0.826658	0.595104
	C188	C	0.181964	0.396961	0.864360
	C189	C	0.186561	0.612076	0.114613
	C190	C	0.818818	0.398379	0.111087
	C191	C	0.820725	0.613806	0.864227
	C192	C	0.407510	0.094008	0.579323
	C193	C	0.596661	0.916014	0.580684
	C194	C	0.598488	0.096212	0.388880
	C195	C	0.405427	0.916931	0.388553
	C196	C	0.598016	0.408465	0.076069
	C197	C	0.595347	0.600534	0.897429
	C198	C	0.408398	0.600605	0.076050
	C199	C	0.406172	0.409159	0.896903
	C200	C	0.092190	0.602644	0.391223
	C201	C	0.911881	0.603600	0.582966
	C202	C	0.091429	0.411460	0.581022
	C203	C	0.911165	0.411466	0.391955
	C204	C	0.906285	0.594401	0.081605
	C205	C	0.096654	0.417518	0.081847
	C206	C	0.097807	0.595423	0.891245
	C207	C	0.905258	0.415433	0.889149
	C208	C	0.096909	0.910237	0.575186
	C209	C	0.095299	0.101107	0.396952
	C210	C	0.906797	0.102757	0.576786
	C211	C	0.905438	0.908699	0.395218
	C212	C	0.593052	0.101906	0.889055
	C213	C	0.412240	0.101418	0.080472
	C214	C	0.591170	0.910464	0.080214
	C215	C	0.411768	0.911890	0.892423
	Zn216	Zn	0.501276	0.004886	0.736221
	Zn217	Zn	0.501875	0.006626	0.234640
	Zn218	Zn	0.750999	0.505777	-0.013871
	Zn219	Zn	0.252110	0.505538	-0.012616
	Zn220	Zn	0.002550	0.756286	0.486772
	Zn221	Zn	0.001780	0.256380	0.486763
	Zn222	Zn	0.002401	0.506564	0.736291
	Zn223	Zn	0.001258	0.506232	0.236840
	Zn224	Zn	0.500711	0.756499	-0.014033
	Zn225	Zn	0.502272	0.255367	-0.014418
	Zn226	Zn	0.752172	0.005914	0.485954
	Zn227	Zn	0.251103	0.006070	0.485093
	N228	N	0.410953	0.973631	0.668304
	N229	N	0.588062	0.039514	0.665905
	N230	N	0.589263	0.972048	0.304579
	N231	N	0.415277	0.041341	0.305460
	N232	N	0.681021	0.419506	0.950827
	N233	N	0.681079	0.593098	0.020896
	N234	N	0.321945	0.591861	0.952955
	N235	N	0.321652	0.417835	0.021274
	N236	N	0.967170	0.686271	0.400299
	N237	N	0.037024	0.686995	0.573976
	N238	N	0.967189	0.326265	0.573948
	N239	N	0.035235	0.326272	0.399229
	N240	N	0.966906	0.420551	0.665781
	N241	N	0.036884	0.594163	0.667036
	N242	N	0.967430	0.593535	0.306847
	N243	N	0.035491	0.419708	0.306886
	N244	N	0.412059	0.687366	0.953690
	N245	N	0.588871	0.687403	0.019998
	N246	N	0.589110	0.325474	0.951029
	N247	N	0.414518	0.324226	0.020349
	N248	N	0.682979	0.972161	0.397671
	N249	N	0.681682	0.039392	0.572961
	N250	N	0.321095	0.971583	0.571995
	N251	N	0.319987	0.040190	0.396864
	N252	N	0.913257	0.471959	0.167657
	N253	N	0.088917	0.540673	0.167578
	N254	N	0.089510	0.471758	0.806176
	N255	N	0.914801	0.540176	0.806455
	N256	N	0.180726	0.919749	0.449984
	N257	N	0.181100	0.092627	0.520361
	N258	N	0.822541	0.092963	0.452321
	N259	N	0.822393	0.919571	0.520507
	N260	N	0.467697	0.185427	0.898574
	N261	N	0.537096	0.185305	0.072118
	N262	N	0.466872	0.825898	0.073547
	N263	N	0.534272	0.824517	0.897707
	N264	N	0.466942	0.919665	0.165466
	N265	N	0.536823	0.093002	0.165122
	N266	N	0.467540	0.092382	0.805593
	N267	N	0.534735	0.917465	0.805356
	N268	N	0.914818	0.186657	0.452693
	N269	N	0.090897	0.188477	0.519655
	N270	N	0.089172	0.825518	0.451057
	N271	N	0.915322	0.826324	0.520713
	N272	N	0.181083	0.470742	0.900995
	N273	N	0.184190	0.539200	0.076487
	N274	N	0.821222	0.470989	0.073123
	N275	N	0.821231	0.539775	0.899439
	O276	O	0.101216	1.080234	-0.063763
	H277	H	0.107504	1.098851	-0.073094
	H278	H	0.104170	1.084960	-0.053924
	O279	O	0.871971	0.932206	0.958505
	H280	H	0.874297	0.932903	0.963533
	H281	H	0.860221	0.927424	0.961006
	O282	O	1.183358	-0.010920	1.153469
	H283	H	1.196225	-0.004955	1.162810
	H284	H	1.182367	0.018680	1.160585
	O285	O	0.653132	0.450943	0.436512
	H286	H	0.630349	0.445677	0.442311
	H287	H	0.662709	0.450183	0.429372
	O288	O	0.319536	0.691692	0.442674
	H289	H	0.321353	0.703329	0.453349
	H290	H	0.311844	0.696050	0.454163
	O291	O	0.338825	0.672372	0.317064
	H292	H	0.370660	0.674162	0.319635
	H293	H	0.344390	0.670920	0.343454
	O294	O	0.794342	0.217085	1.042628
	H295	H	0.804734	0.204431	1.014254
	H296	H	0.787992	0.233544	1.028600
	O297	O	0.563385	0.271895	0.545572
	H298	H	0.563170	0.268503	0.527043
	H299	H	0.564428	0.273201	0.527095
	O300	O	0.040032	0.226032	1.199128
	H301	H	0.022451	0.229027	1.196984
	H302	H	0.026080	0.231718	1.201233
	O303	O	0.431143	0.553437	0.714128
	H304	H	0.425918	0.567724	0.716503
	H305	H	0.436347	0.559483	0.708318
	O306	O	0.466717	0.540583	0.478018
	H307	H	0.462642	0.547428	0.472855
	H308	H	0.458020	0.544436	0.481678
	O309	O	0.472607	0.724158	0.266589
	H310	H	0.474671	0.722824	0.260203
	H311	H	0.486450	0.743525	0.265590
	O312	O	0.334336	0.494361	0.439465
	H313	H	0.325819	0.503550	0.430278
	H314	H	0.328977	0.511600	0.445743
	O315	O	0.717698	0.481466	1.266133
	H316	H	0.738720	0.477435	1.269771
	H317	H	0.735283	0.472564	1.268103
	O318	O	0.554573	0.523575	0.292873
	H319	H	0.561626	0.513828	0.294189
	H320	H	0.563299	0.525821	0.290581
	O321	O	-0.529262	0.534048	0.588478
	H322	H	-0.539326	0.525351	0.583993
	H323	H	-0.548284	0.547162	0.584706
	O324	O	1.201267	0.893457	-0.217375
	H325	H	1.197612	0.900853	-0.186949
	H326	H	1.206807	0.921930	-0.223921
	O327	O	-0.189694	-0.148156	1.076633
	H328	H	-0.207020	-0.164080	1.089916
	H329	H	-0.182709	-0.138732	1.095414
	O330	O	0.451110	0.443456	0.256906
	H331	H	0.458466	0.448317	0.253967
	H332	H	0.443883	0.459913	0.254259
	O333	O	0.295131	0.287377	0.512761
	H334	H	0.274922	0.284702	0.514716
	H335	H	0.294249	0.290506	0.524888
	O336	O	0.398197	0.714449	0.591449
	H337	H	0.405620	0.731556	0.602376
	H338	H	0.395445	0.727025	0.612062
	O339	O	1.217030	0.030089	0.850643
	H340	H	1.227585	0.045180	0.861595
	H341	H	1.210972	0.045474	0.848266
	O342	O	0.134661	-0.201852	0.112064
	H343	H	0.149293	-0.208894	0.135881
	H344	H	0.129710	-0.193800	0.085503
	O345	O	-0.208503	1.046036	0.771833
	H346	H	-0.213621	1.030218	0.761937
	H347	H	-0.208201	1.028624	0.781922
	O348	O	-0.145619	-0.114789	-0.044129
	H349	H	-0.148235	-0.104807	-0.030977
	H350	H	-0.153714	-0.112120	-0.038156
	O351	O	-0.052898	0.238152	1.047213
	H352	H	-0.047326	0.225549	1.032806
	H353	H	-0.063540	0.240075	1.036401
	O354	O	-0.203035	0.219738	0.780588
	H355	H	-0.228623	0.226282	0.761213
	H356	H	-0.217105	0.191220	0.767560
	O357	O	0.501861	0.693207	0.576414
	H358	H	0.517024	0.675883	0.552235
	H359	H	0.514974	0.696960	0.608650
	O360	O	0.613192	0.531681	0.651583
	H361	H	0.601814	0.516780	0.656360
	H362	H	0.603313	0.528337	0.646500
	O363	O	0.207899	-0.144082	-0.028475
	H364	H	0.204222	-0.127691	-0.033141
	H365	H	0.201243	-0.139521	-0.006928
	O366	O	0.510139	0.736909	0.706502
	H367	H	0.542579	0.726421	0.708012
	H368	H	0.529932	0.756071	0.732234
	O369	O	0.963222	-0.217071	0.201740
	H370	H	0.974703	-0.219306	0.216749
	H371	H	0.981754	-0.224115	0.202192
	O372	O	1.218745	1.209089	-0.214407
	H373	H	1.230184	1.226494	-0.223695
	H374	H	1.203288	1.216179	-0.209665
	O375	O	1.031420	-0.211484	-0.230010
	H376	H	1.050427	-0.224997	-0.232486
	H377	H	1.037860	-0.219725	-0.232037
	O378	O	0.510674	0.490306	0.391102
	H379	H	0.510287	0.490911	0.395465
	H380	H	0.518216	0.509797	0.380322
	O381	O	0.173634	0.880148	0.952671
	H382	H	0.182603	0.882011	0.955277
	H383	H	0.182060	0.894513	0.959043
	O384	O	1.010788	-0.222111	0.991972
	H385	H	1.006982	-0.225596	1.006813
	H386	H	1.017247	-0.211094	0.981171
	O387	O	1.309941	1.315163	0.299242
	H388	H	1.329763	1.343315	0.306291
	H389	H	1.323524	1.324903	0.329443
	O390	O	0.284967	0.529368	0.264987
	H391	H	0.264602	0.544331	0.244147
	H392	H	0.291394	0.545343	0.268837
	O393	O	0.725659	0.277122	0.294902
	H394	H	0.760005	0.251680	0.266607
	H395	H	0.716205	0.290762	0.303081
	O396	O	0.722842	0.305222	0.475745
	H397	H	0.734203	0.289751	0.456883
	H398	H	0.725849	0.308299	0.463845
	O399	O	-0.059865	-0.003986	1.124578
	H400	H	-0.060066	-0.013856	1.130525
	H401	H	-0.050852	-0.002980	1.129016
	O402	O	-0.042569	1.105418	0.103861
	H403	H	-0.032575	1.107144	0.095650
	H404	H	-0.039240	1.082737	0.089908
	O405	O	0.690302	-0.684787	1.672109
	H406	H	0.673297	-0.676626	1.647788
	H407	H	0.670943	-0.664171	1.655100
	O408	O	-0.108940	0.024555	0.118512
	H409	H	-0.101276	0.033157	0.102294
	H410	H	-0.110153	0.008002	0.121241
	O411	O	0.376342	0.565953	0.491916
	H412	H	0.373080	0.585196	0.487963
	H413	H	0.380631	0.580007	0.503427
	O414	O	1.055422	0.221416	0.943151
	H415	H	1.066594	0.218798	0.938745
	H416	H	1.042303	0.222596	0.947214
	O417	O	0.257403	0.752257	0.731694
	H418	H	0.260370	0.759508	0.750346
	H419	H	0.238741	0.771333	0.747781
	O420	O	0.577445	0.462469	0.628411
	H421	H	0.579974	0.459026	0.622084
	H422	H	0.556462	0.443948	0.622591
	O423	O	-0.442699	-0.286929	1.396440
	H424	H	-0.433614	-0.281393	1.393848
	H425	H	-0.435730	-0.288461	1.408505
	O426	O	0.690936	0.694347	0.295957
	H427	H	0.698302	0.678624	0.312589
	H428	H	0.671483	0.682652	0.308304
	O429	O	0.791992	0.794222	1.196865
	H430	H	0.831554	0.791896	1.193096
	H431	H	0.774550	0.773728	1.215695
	O432	O	0.447919	0.269659	0.430790
	H433	H	0.454267	0.271817	0.404566
	H434	H	0.426407	0.265673	0.428897
	O435	O	0.219764	1.216566	0.020131
	H436	H	0.218641	1.221012	0.057408
	H437	H	0.234409	1.241457	0.029563
	O438	O	-0.175152	-0.019834	0.207065
	H439	H	-0.161649	-0.033060	0.211172
	H440	H	-0.182522	-0.049036	0.222425
	O441	O	-0.021722	-0.039501	-0.240183
	H442	H	-0.003853	-0.023957	-0.242905
	H443	H	-0.002231	-0.036442	-0.245155
	O444	O	0.277810	0.472043	0.711271
	H445	H	0.293037	0.488952	0.714947
	H446	H	0.253474	0.459063	0.738184
	O447	O	0.175727	1.027289	1.186598
	H448	H	0.196328	1.047938	1.209138
	H449	H	0.169013	1.038642	1.180717
	O450	O	0.046232	1.087459	0.775835
	H451	H	0.053260	1.107443	0.770134
	H452	H	0.046133	1.101173	0.779129
	O453	O	0.301609	0.326825	0.662113
	H454	H	0.316372	0.351827	0.667047
	H455	H	0.304430	0.320533	0.651977
	O456	O	-0.172482	0.006390	0.934110
	H457	H	-0.178201	0.016418	0.952616
	H458	H	-0.159441	0.006730	0.926943
	O459	O	0.725867	0.732630	0.519165
	H460	H	0.743911	0.750360	0.540900
	H461	H	0.726819	0.744927	0.540493
	O462	O	0.832654	0.134592	0.982719
	H463	H	0.825912	0.133193	0.983214
	H464	H	0.841133	0.134819	0.980271
	O465	O	1.266126	-0.489212	0.489029
	H466	H	1.265177	-0.474091	0.508377
	H467	H	1.264127	-0.489749	0.494865
	O468	O	0.668688	0.439089	0.471290
	H469	H	0.669698	0.436372	0.471286
	H470	H	0.649256	0.439538	0.470094
	O471	O	0.716307	0.721002	0.693277
	H472	H	0.729105	0.718117	0.717573
	H473	H	0.728295	0.700994	0.703665
	O474	O	-0.029060	0.974782	0.006898
	H475	H	-0.017917	0.964889	-0.004751
	H476	H	-0.020865	0.977862	-0.000439
	O477	O	0.724945	0.542446	1.705846
	H478	H	0.743213	0.530817	1.719405
	H479	H	0.716612	0.530412	1.706667
	O480	O	0.557299	0.285027	0.267001
	H481	H	0.576530	0.285470	0.254014
	H482	H	0.558804	0.281771	0.258496
	O483	O	0.118201	0.829788	0.168892
	H484	H	0.120711	0.815133	0.161967
	H485	H	0.128878	0.824867	0.193025
	O486	O	1.641499	-0.453696	0.454748
	H487	H	1.634782	-0.455207	0.470759
	H488	H	1.640460	-0.444185	0.466893
	O489	O	1.212747	1.217353	0.193690
	H490	H	1.241625	1.249975	0.228718
	H491	H	1.161763	1.220106	0.202605
	O492	O	0.467227	0.283864	-0.293503
	H493	H	0.472742	0.286664	-0.324021
	H494	H	0.469903	0.249684	-0.264846
	O495	O	0.063678	1.004782	0.973437
	H496	H	0.059510	1.006568	0.957540
	H497	H	0.051296	0.994194	0.977036
	O498	O	0.979978	1.224343	0.764749
	H499	H	0.967836	1.248818	0.747381
	H500	H	0.945554	1.224246	0.771068
	O501	O	0.813096	0.814097	0.799545
	H502	H	0.823649	0.827837	0.815010
	H503	H	0.832841	0.829823	0.809689
