data_Molecule from HDF5

_cell_length_a		16.212111
_cell_length_b		16.281366
_cell_length_c		16.352880
_cell_angle_alpha	90.100069
_cell_angle_beta	90.037821
_cell_angle_gamma	89.831744
_symmetry_space_group_name_H-M	'P 1'
_symmetry_Int_Tables_number		1

loop_
	_symmetry_equiv_pos_as_xyz
	x,y,z

loop_
	_atom_site_label
	_atom_site_type_symbol
	_atom_site_fract_x
	_atom_site_fract_y
	_atom_site_fract_z
	H0	H	0.395992	0.841226	0.715355
	H1	H	0.595268	0.166744	0.715448
	H2	H	0.597170	0.841254	0.282881
	H3	H	0.394759	0.167565	0.283711
	H4	H	0.713377	0.404748	0.836287
	H5	H	0.711810	0.603206	0.161791
	H6	H	0.281941	0.604110	0.835472
	H7	H	0.282393	0.407715	0.162303
	H8	H	0.832701	0.719054	0.401381
	H9	H	0.160697	0.718993	0.597656
	H10	H	0.831958	0.293181	0.597183
	H11	H	0.160329	0.288640	0.401480
	H12	H	0.834418	0.404969	0.715968
	H13	H	0.160450	0.605827	0.715026
	H14	H	0.834151	0.606746	0.282404
	H15	H	0.161815	0.404785	0.286746
	H16	H	0.398258	0.720575	0.836066
	H17	H	0.596037	0.720106	0.161983
	H18	H	0.598313	0.287553	0.836995
	H19	H	0.398182	0.290142	0.161784
	H20	H	0.710969	0.840888	0.401816
	H21	H	0.708407	0.168452	0.597622
	H22	H	0.282502	0.840453	0.597195
	H23	H	0.282824	0.168661	0.404093
	H24	H	0.898432	0.341866	0.214837
	H25	H	0.098087	0.668026	0.215942
	H26	H	0.098987	0.341804	0.783244
	H27	H	0.896955	0.667674	0.783458
	H28	H	0.211884	0.904821	0.336875
	H29	H	0.209992	0.103105	0.663180
	H30	H	0.782121	0.101602	0.335583
	H31	H	0.783130	0.908065	0.662610
	H32	H	0.333497	0.220594	0.900782
	H33	H	0.661737	0.217937	0.098049
	H34	H	0.332813	0.791421	0.097379
	H35	H	0.660886	0.790346	0.900914
	H36	H	0.332859	0.905576	0.214269
	H37	H	0.660252	0.105519	0.216164
	H38	H	0.333072	0.104935	0.784326
	H39	H	0.660428	0.904056	0.784740
	H40	H	0.896266	0.220516	0.336358
	H41	H	0.094552	0.219864	0.662080
	H42	H	0.097291	0.788161	0.337267
	H43	H	0.896932	0.789899	0.661698
	H44	H	0.211743	0.341347	0.901518
	H45	H	0.208939	0.669667	0.095025
	H46	H	0.784736	0.340538	0.095787
	H47	H	0.782836	0.668061	0.900958
	H48	H	0.408761	0.115461	0.581711
	H49	H	0.587364	0.889919	0.585922
	H50	H	0.581798	0.117706	0.409486
	H51	H	0.401713	0.888283	0.406800
	H52	H	0.590509	0.417330	0.113026
	H53	H	0.588621	0.606953	0.880938
	H54	H	0.399537	0.598518	0.115877
	H55	H	0.410801	0.410533	0.884176
	H56	H	0.116345	0.605571	0.407281
	H57	H	0.878439	0.587464	0.606398
	H58	H	0.114918	0.412760	0.595918
	H59	H	0.882914	0.419842	0.409046
	H60	H	0.115173	0.408214	0.589405
	H61	H	0.875484	0.612965	0.591207
	H62	H	0.110478	0.592127	0.414818
	H63	H	0.878284	0.414115	0.398037
	H64	H	0.405582	0.596866	0.113902
	H65	H	0.598777	0.595485	0.881242
	H66	H	0.586815	0.410087	0.114060
	H67	H	0.400634	0.408933	0.881140
	H68	H	0.593203	0.121319	0.410990
	H69	H	0.596485	0.885034	0.594199
	H70	H	0.389180	0.125205	0.593147
	H71	H	0.403864	0.886763	0.402853
	H72	H	0.906673	0.624664	0.104146
	H73	H	0.076271	0.391822	0.094747
	H74	H	0.080727	0.618862	0.906471
	H75	H	0.906504	0.387703	0.903533
	H76	H	0.090477	0.906483	0.618173
	H77	H	0.086789	0.099297	0.383760
	H78	H	0.893064	0.102987	0.618553
	H79	H	0.906321	0.910560	0.383898
	H80	H	0.614502	0.099868	0.907739
	H81	H	0.379217	0.108594	0.085263
	H82	H	0.615216	0.910694	0.095468
	H83	H	0.382554	0.918243	0.909138
	H84	H	0.613869	0.910154	0.088941
	H85	H	0.384979	0.088366	0.086810
	H86	H	0.612414	0.093532	0.909280
	H87	H	0.377172	0.912599	0.900563
	H88	H	0.903291	0.090884	0.612428
	H89	H	0.091871	0.097406	0.382636
	H90	H	0.092873	0.915042	0.614916
	H91	H	0.901143	0.909677	0.381962
	H92	H	0.093670	0.620431	0.913101
	H93	H	0.097758	0.389984	0.080138
	H94	H	0.916213	0.615673	0.086853
	H95	H	0.907482	0.388718	0.907684
	H96	H	0.410850	0.122020	0.604864
	H97	H	0.584332	0.887322	0.598253
	H98	H	0.587858	0.122333	0.400070
	H99	H	0.405950	0.888798	0.405888
	H100	H	0.594605	0.410289	0.116916
	H101	H	0.584214	0.593512	0.886391
	H102	H	0.404965	0.602846	0.115476
	H103	H	0.403857	0.418073	0.884713
	H104	H	0.114885	0.591438	0.399048
	H105	H	0.887583	0.588331	0.577833
	H106	H	0.111921	0.415277	0.588973
	H107	H	0.878253	0.406938	0.408965
	H108	H	0.895200	0.622304	0.085484
	H109	H	0.098737	0.382710	0.104930
	H110	H	0.092285	0.624413	0.899516
	H111	H	0.904458	0.388045	0.906821
	H112	H	0.083979	0.912198	0.613571
	H113	H	0.087652	0.094705	0.384767
	H114	H	0.908835	0.106483	0.615335
	H115	H	0.902914	0.915400	0.383921
	H116	H	0.614091	0.095157	0.902629
	H117	H	0.376710	0.098127	0.103164
	H118	H	0.612558	0.916010	0.091630
	H119	H	0.379230	0.908124	0.910777
	C120	C	0.374843	0.012659	0.621466
	C121	C	0.617451	0.995801	0.621056
	C122	C	0.617191	0.012828	0.377935
	C123	C	0.374785	0.995963	0.377403
	C124	C	0.619613	0.383214	0.007227
	C125	C	0.619060	0.626970	0.990552
	C126	C	0.374979	0.627525	0.007347
	C127	C	0.376075	0.384081	0.991150
	C128	C	0.005825	0.626116	0.377857
	C129	C	0.988603	0.625802	0.620926
	C130	C	0.005400	0.383800	0.620351
	C131	C	0.988405	0.383585	0.377383
	C132	C	0.876614	0.513045	0.120936
	C133	C	0.119648	0.496490	0.121608
	C134	C	0.118975	0.513367	0.877220
	C135	C	0.876628	0.496049	0.877391
	C136	C	0.118430	0.882299	0.507957
	C137	C	0.117145	0.125691	0.491577
	C138	C	0.873296	0.128019	0.507693
	C139	C	0.875026	0.883305	0.490944
	C140	C	0.505669	0.125920	0.877825
	C141	C	0.488881	0.126542	0.120773
	C142	C	0.505313	0.883559	0.120816
	C143	C	0.488089	0.883475	0.878139
	C144	C	0.376592	0.889902	0.677069
	C145	C	0.615324	0.118451	0.676908
	C146	C	0.616727	0.889915	0.321360
	C147	C	0.375141	0.118929	0.321830
	C148	C	0.675106	0.384941	0.884821
	C149	C	0.674596	0.624391	0.112986
	C150	C	0.319783	0.624644	0.884414
	C151	C	0.320720	0.387081	0.113667
	C152	C	0.881937	0.681653	0.380077
	C153	C	0.111631	0.681440	0.618458
	C154	C	0.881646	0.329780	0.617953
	C155	C	0.111322	0.326731	0.380470
	C156	C	0.882600	0.385732	0.676676
	C157	C	0.111635	0.624907	0.676718
	C158	C	0.882774	0.625896	0.321212
	C159	C	0.112300	0.384699	0.323746
	C160	C	0.377416	0.682731	0.884701
	C161	C	0.616627	0.682006	0.113290
	C162	C	0.618337	0.326282	0.885395
	C163	C	0.377986	0.328604	0.113341
	C164	C	0.673209	0.889552	0.380567
	C165	C	0.671223	0.119436	0.617977
	C166	C	0.320055	0.889545	0.618230
	C167	C	0.319685	0.119629	0.381774
	C168	C	0.878573	0.390330	0.176162
	C169	C	0.117792	0.619211	0.177370
	C170	C	0.117811	0.390331	0.821993
	C171	C	0.877376	0.619023	0.821807
	C172	C	0.174146	0.884382	0.385573
	C173	C	0.172466	0.123370	0.613992
	C174	C	0.819028	0.123685	0.384547
	C175	C	0.820302	0.886596	0.613745
	C176	C	0.382402	0.182425	0.880231
	C177	C	0.612317	0.181177	0.118771
	C178	C	0.381979	0.828794	0.118184
	C179	C	0.611824	0.828261	0.880762
	C180	C	0.381974	0.885519	0.176086
	C181	C	0.611576	0.124777	0.177146
	C182	C	0.382079	0.124979	0.822395
	C183	C	0.611622	0.884800	0.822882
	C184	C	0.875635	0.182833	0.385094
	C185	C	0.114664	0.181264	0.613664
	C186	C	0.117148	0.826286	0.385884
	C187	C	0.876796	0.827822	0.613061
	C188	C	0.174481	0.390356	0.880412
	C189	C	0.172972	0.620151	0.117572
	C190	C	0.822015	0.389828	0.117132
	C191	C	0.820875	0.619282	0.880319
	C192	C	0.396715	0.098680	0.599691
	C193	C	0.595807	0.909583	0.599086
	C194	C	0.594231	0.098228	0.400167
	C195	C	0.397193	0.910236	0.398841
	C196	C	0.597250	0.405972	0.092797
	C197	C	0.596979	0.605059	0.905084
	C198	C	0.396825	0.605884	0.092766
	C199	C	0.398568	0.405954	0.905501
	C200	C	0.091609	0.603167	0.400431
	C201	C	0.902606	0.602961	0.598510
	C202	C	0.091639	0.405684	0.597979
	C203	C	0.902052	0.406716	0.399100
	C204	C	0.899407	0.598727	0.098752
	C205	C	0.097502	0.410449	0.099528
	C206	C	0.095672	0.599210	0.899594
	C207	C	0.899419	0.410341	0.899492
	C208	C	0.095715	0.904732	0.593369
	C209	C	0.095195	0.103429	0.405870
	C210	C	0.895277	0.106447	0.593343
	C211	C	0.897074	0.905270	0.405335
	C212	C	0.591513	0.102922	0.900017
	C213	C	0.402374	0.104697	0.098317
	C214	C	0.591655	0.905942	0.098636
	C215	C	0.401925	0.906268	0.900411
	Zn216	Zn	0.496384	0.003575	0.749513
	Zn217	Zn	0.496419	0.004885	0.248845
	Zn218	Zn	0.748039	0.504712	-0.001466
	Zn219	Zn	0.246527	0.505579	-0.000967
	Zn220	Zn	-0.003787	0.753987	0.499416
	Zn221	Zn	-0.003968	0.255956	0.499097
	Zn222	Zn	-0.002310	0.504806	0.748998
	Zn223	Zn	-0.001735	0.504850	0.250018
	Zn224	Zn	0.497236	0.755826	-0.000931
	Zn225	Zn	0.497739	0.254571	-0.000802
	Zn226	Zn	0.746016	0.005043	0.499469
	Zn227	Zn	0.246705	0.004243	0.499652
	N228	N	0.409864	0.967671	0.679031
	N229	N	0.582338	0.040699	0.678532
	N230	N	0.582598	0.967328	0.319789
	N231	N	0.408780	0.041283	0.319192
	N232	N	0.675912	0.419613	0.961660
	N233	N	0.676354	0.590834	0.035767
	N234	N	0.318175	0.590946	0.961544
	N235	N	0.319501	0.420686	0.036639
	N236	N	0.959283	0.682080	0.414513
	N237	N	0.033974	0.682263	0.584629
	N238	N	0.959044	0.328734	0.583418
	N239	N	0.033292	0.326258	0.413361
	N240	N	0.960680	0.418461	0.678426
	N241	N	0.034049	0.591043	0.678289
	N242	N	0.960631	0.591821	0.319795
	N243	N	0.034807	0.419167	0.321616
	N244	N	0.411206	0.684438	0.961871
	N245	N	0.582991	0.683840	0.036101
	N246	N	0.584476	0.325324	0.962566
	N247	N	0.411912	0.326785	0.036191
	N248	N	0.673742	0.966746	0.415034
	N249	N	0.672847	0.042013	0.583996
	N250	N	0.319070	0.966750	0.584286
	N251	N	0.319068	0.042278	0.415463
	N252	N	0.911679	0.467942	0.178700
	N253	N	0.085459	0.541089	0.180005
	N254	N	0.084355	0.468072	0.819818
	N255	N	0.911320	0.541504	0.819824
	N256	N	0.175155	0.918537	0.462670
	N257	N	0.174010	0.089413	0.536822
	N258	N	0.817432	0.090456	0.461778
	N259	N	0.818739	0.920306	0.536650
	N260	N	0.460142	0.183168	0.913938
	N261	N	0.534835	0.182210	0.084230
	N262	N	0.459720	0.827630	0.084458
	N263	N	0.533985	0.827092	0.914000
	N264	N	0.459769	0.918973	0.177702
	N265	N	0.533692	0.091608	0.178411
	N266	N	0.459560	0.090355	0.820867
	N267	N	0.533744	0.918585	0.821232
	N268	N	0.908535	0.185509	0.462695
	N269	N	0.080770	0.182640	0.536709
	N270	N	0.083264	0.824870	0.462967
	N271	N	0.910116	0.825924	0.535751
	N272	N	0.175171	0.467795	0.914057
	N273	N	0.174105	0.542829	0.083682
	N274	N	0.820709	0.467254	0.083478
	N275	N	0.820412	0.542020	0.914146
	O276	O	0.557114	0.532806	0.457334
	H277	H	0.554062	0.537813	0.463240
	H278	H	0.555306	0.531676	0.468263
	O279	O	0.431305	0.489466	0.529362
	H280	H	0.427713	0.484641	0.530413
	H281	H	0.439712	0.494141	0.532990
	O282	O	0.483641	0.563616	0.450654
	H283	H	0.484375	0.565200	0.438067
	H284	H	0.482564	0.563614	0.454814
	O285	O	0.083848	0.986905	1.027689
	H286	H	0.080898	0.986877	1.031703
	H287	H	0.085069	0.996701	1.027881
	O288	O	0.434322	0.464545	0.390817
	H289	H	0.429562	0.458986	0.404097
	H290	H	0.438218	0.459650	0.381295
	O291	O	0.024591	-0.022872	1.042000
	H292	H	0.023512	-0.019306	1.042265
	H293	H	0.026277	-0.025269	1.045391
	O294	O	0.467216	0.506436	0.499298
	H295	H	0.455368	0.510348	0.504051
	H296	H	0.474685	0.510104	0.496697
	O297	O	0.569468	0.372259	0.437633
	H298	H	0.575231	0.371532	0.439630
	H299	H	0.572704	0.373598	0.422487
	O300	O	0.500224	0.402032	0.540513
	H301	H	0.504879	0.401637	0.539449
	H302	H	0.507152	0.409406	0.538034
	O303	O	0.512100	0.531250	0.490729
	H304	H	0.519671	0.529639	0.499382
	H305	H	0.500091	0.523771	0.490335
	O306	O	1.059036	-0.008394	1.023172
	H307	H	1.061119	-0.003864	1.023178
	H308	H	1.058983	-0.003896	1.028900
	O309	O	0.441130	0.479466	0.499989
	H310	H	0.443046	0.474988	0.500294
	H311	H	0.437015	0.488392	0.497863
	O312	O	0.501139	0.457010	0.462696
	H313	H	0.494432	0.455279	0.458690
	H314	H	0.500062	0.468976	0.455857
	O315	O	1.034597	-0.041666	1.014666
	H316	H	1.031964	-0.053096	1.009375
	H317	H	1.036847	-0.037437	1.029355
	O318	O	-0.014391	-0.050527	0.033201
	H319	H	-0.011831	-0.052149	0.034346
	H320	H	-0.023321	-0.057791	0.033761
	O321	O	0.435718	0.440956	0.456450
	H322	H	0.436773	0.439379	0.446962
	H323	H	0.445194	0.435427	0.453508
	O324	O	1.039176	-0.050139	0.051915
	H325	H	1.045941	-0.055883	0.045380
	H326	H	1.044972	-0.046726	0.054203
	O327	O	1.004825	0.931478	0.051549
	H328	H	1.005293	0.931337	0.046395
	H329	H	1.006780	0.934598	0.048332
	O330	O	0.487515	0.574457	0.376917
	H331	H	0.482311	0.586859	0.382626
	H332	H	0.487863	0.575098	0.382028
	O333	O	0.476487	0.579409	0.524310
	H334	H	0.466721	0.570515	0.518812
	H335	H	0.477090	0.573973	0.527487
