data_Molecule from HDF5

_cell_length_a		16.325163
_cell_length_b		16.306420
_cell_length_c		16.310708
_cell_angle_alpha	90.177544
_cell_angle_beta	90.173230
_cell_angle_gamma	90.000971
_symmetry_space_group_name_H-M	'P 1'
_symmetry_Int_Tables_number		1

loop_
	_symmetry_equiv_pos_as_xyz
	x,y,z

loop_
	_atom_site_label
	_atom_site_type_symbol
	_atom_site_fract_x
	_atom_site_fract_y
	_atom_site_fract_z
	H0	H	0.405073	0.842014	0.708394
	H1	H	0.600333	0.170079	0.710128
	H2	H	0.598660	0.841427	0.281993
	H3	H	0.404380	0.169345	0.280147
	H4	H	0.716149	0.408052	0.831623
	H5	H	0.717325	0.603516	0.158830
	H6	H	0.287426	0.603105	0.831760
	H7	H	0.289463	0.409002	0.158811
	H8	H	0.839154	0.719605	0.398597
	H9	H	0.165873	0.722235	0.595588
	H10	H	0.839230	0.293614	0.591466
	H11	H	0.165561	0.290331	0.396683
	H12	H	0.839259	0.409880	0.708085
	H13	H	0.166536	0.605811	0.711428
	H14	H	0.839513	0.604310	0.281009
	H15	H	0.166593	0.407556	0.281761
	H16	H	0.403816	0.719933	0.831625
	H17	H	0.601001	0.720072	0.158751
	H18	H	0.599421	0.291972	0.831465
	H19	H	0.405295	0.291883	0.158790
	H20	H	0.716807	0.842741	0.396509
	H21	H	0.715760	0.170776	0.592848
	H22	H	0.287972	0.842611	0.591991
	H23	H	0.287861	0.169953	0.396126
	H24	H	0.905115	0.342318	0.208501
	H25	H	0.101147	0.670039	0.210183
	H26	H	0.101395	0.342079	0.780014
	H27	H	0.904629	0.670257	0.781562
	H28	H	0.216069	0.907157	0.331465
	H29	H	0.218455	0.105482	0.658219
	H30	H	0.789031	0.102798	0.330845
	H31	H	0.789142	0.908716	0.658448
	H32	H	0.339438	0.219257	0.897057
	H33	H	0.666239	0.220388	0.094241
	H34	H	0.339354	0.791940	0.092490
	H35	H	0.666253	0.791218	0.897134
	H36	H	0.339148	0.908019	0.208192
	H37	H	0.666250	0.104086	0.210236
	H38	H	0.339325	0.102622	0.780731
	H39	H	0.666432	0.907115	0.780326
	H40	H	0.904400	0.220236	0.331277
	H41	H	0.101116	0.221107	0.658723
	H42	H	0.101353	0.790027	0.332077
	H43	H	0.904862	0.792246	0.658738
	H44	H	0.217502	0.341941	0.896773
	H45	H	0.217875	0.669390	0.094389
	H46	H	0.789401	0.341659	0.091663
	H47	H	0.787174	0.668725	0.896855
	H48	H	0.409457	0.124522	0.595183
	H49	H	0.599581	0.889571	0.585276
	H50	H	0.594197	0.121993	0.400767
	H51	H	0.412929	0.891211	0.402200
	H52	H	0.595559	0.418919	0.109759
	H53	H	0.592276	0.594438	0.881718
	H54	H	0.410336	0.603568	0.112174
	H55	H	0.411875	0.398370	0.876085
	H56	H	0.123657	0.607674	0.396199
	H57	H	0.884151	0.598713	0.599301
	H58	H	0.118942	0.420255	0.593467
	H59	H	0.885971	0.408249	0.401706
	H60	H	0.122208	0.405451	0.592623
	H61	H	0.886470	0.609326	0.583686
	H62	H	0.116145	0.600690	0.413995
	H63	H	0.888709	0.415889	0.405061
	H64	H	0.405346	0.597150	0.111610
	H65	H	0.593249	0.604045	0.877829
	H66	H	0.592127	0.406541	0.111788
	H67	H	0.396250	0.416656	0.876364
	H68	H	0.597256	0.122015	0.404210
	H69	H	0.597351	0.888353	0.592243
	H70	H	0.415872	0.119166	0.586434
	H71	H	0.405094	0.890446	0.403877
	H72	H	0.901545	0.626624	0.095177
	H73	H	0.099349	0.389423	0.089014
	H74	H	0.100591	0.625697	0.897130
	H75	H	0.908209	0.387529	0.895953
	H76	H	0.098945	0.915518	0.611623
	H77	H	0.092996	0.101121	0.378938
	H78	H	0.905762	0.102031	0.612576
	H79	H	0.903736	0.915392	0.378073
	H80	H	0.620280	0.102463	0.903545
	H81	H	0.387497	0.102427	0.083020
	H82	H	0.618635	0.911668	0.087629
	H83	H	0.384103	0.906323	0.898244
	H84	H	0.618168	0.913784	0.088460
	H85	H	0.388911	0.093528	0.086719
	H86	H	0.616991	0.094904	0.904214
	H87	H	0.389298	0.912861	0.908238
	H88	H	0.909580	0.097849	0.610339
	H89	H	0.097841	0.098980	0.378667
	H90	H	0.093015	0.916806	0.609879
	H91	H	0.915136	0.915117	0.381080
	H92	H	0.086724	0.618479	0.901972
	H93	H	0.094045	0.390332	0.091364
	H94	H	0.919906	0.620203	0.092613
	H95	H	0.913798	0.391350	0.901196
	H96	H	0.404409	0.122989	0.584035
	H97	H	0.592941	0.891378	0.587404
	H98	H	0.598641	0.123452	0.399936
	H99	H	0.407637	0.888284	0.396634
	H100	H	0.604362	0.410748	0.115212
	H101	H	0.600870	0.597630	0.877768
	H102	H	0.413154	0.596261	0.109705
	H103	H	0.419034	0.420293	0.883870
	H104	H	0.117510	0.588375	0.398048
	H105	H	0.891169	0.590841	0.583157
	H106	H	0.116860	0.412683	0.580305
	H107	H	0.886337	0.415552	0.396339
	H108	H	0.907596	0.620273	0.077764
	H109	H	0.094457	0.390809	0.085533
	H110	H	0.098724	0.619544	0.912090
	H111	H	0.906081	0.389701	0.904083
	H112	H	0.095045	0.911577	0.611096
	H113	H	0.093994	0.095810	0.380373
	H114	H	0.911612	0.103162	0.611439
	H115	H	0.909603	0.905435	0.377449
	H116	H	0.619898	0.097578	0.896728
	H117	H	0.385881	0.100432	0.091876
	H118	H	0.619797	0.912553	0.089830
	H119	H	0.387108	0.918168	0.896954
	C120	C	0.381595	0.014078	0.616179
	C121	C	0.624698	0.998078	0.616821
	C122	C	0.624314	0.014064	0.373273
	C123	C	0.380604	0.998075	0.372913
	C124	C	0.624881	0.383970	0.003757
	C125	C	0.624181	0.627132	0.986857
	C126	C	0.381151	0.627120	0.003055
	C127	C	0.381074	0.383775	0.986970
	C128	C	0.011081	0.627348	0.374254
	C129	C	0.995158	0.628175	0.617498
	C130	C	0.011075	0.385389	0.616163
	C131	C	0.994776	0.384490	0.373494
	C132	C	0.881603	0.514016	0.116104
	C133	C	0.124545	0.498054	0.117104
	C134	C	0.124224	0.513753	0.874341
	C135	C	0.880933	0.497818	0.872795
	C136	C	0.124056	0.884884	0.503078
	C137	C	0.123852	0.127547	0.487166
	C138	C	0.881010	0.128497	0.503244
	C139	C	0.881380	0.884484	0.486795
	C140	C	0.511116	0.126604	0.873437
	C141	C	0.495065	0.127404	0.116525
	C142	C	0.510725	0.884424	0.116387
	C143	C	0.494940	0.884017	0.873037
	C144	C	0.384675	0.890612	0.670147
	C145	C	0.621057	0.121451	0.671734
	C146	C	0.620214	0.890753	0.319122
	C147	C	0.383576	0.120910	0.318103
	C148	C	0.678622	0.387067	0.880338
	C149	C	0.679503	0.624427	0.110205
	C150	C	0.325562	0.624063	0.880324
	C151	C	0.326845	0.387465	0.110013
	C152	C	0.888010	0.682136	0.377600
	C153	C	0.117732	0.683619	0.615469
	C154	C	0.888005	0.331154	0.612343
	C155	C	0.117146	0.328570	0.375869
	C156	C	0.887958	0.388840	0.670214
	C157	C	0.117942	0.625966	0.673211
	C158	C	0.888034	0.624862	0.319177
	C159	C	0.117586	0.386700	0.318780
	C160	C	0.383340	0.682093	0.880372
	C161	C	0.621551	0.682092	0.110078
	C162	C	0.620708	0.329508	0.880266
	C163	C	0.384397	0.329547	0.109979
	C164	C	0.678521	0.891150	0.376325
	C165	C	0.678393	0.121706	0.613543
	C166	C	0.326092	0.891155	0.612874
	C167	C	0.325590	0.121125	0.375677
	C168	C	0.884149	0.391118	0.170853
	C169	C	0.122134	0.621167	0.172380
	C170	C	0.121829	0.390790	0.818441
	C171	C	0.883923	0.621048	0.818862
	C172	C	0.178829	0.886547	0.380312
	C173	C	0.179800	0.125700	0.609708
	C174	C	0.826428	0.124356	0.379921
	C175	C	0.826675	0.887814	0.609843
	C176	C	0.388221	0.181563	0.876321
	C177	C	0.617716	0.182613	0.114847
	C178	C	0.388008	0.829904	0.112981
	C179	C	0.617619	0.829266	0.876166
	C180	C	0.387975	0.887312	0.170680
	C181	C	0.617667	0.124625	0.172183
	C182	C	0.388047	0.123755	0.818592
	C183	C	0.617632	0.886847	0.818293
	C184	C	0.883766	0.182476	0.380014
	C185	C	0.121409	0.182811	0.609963
	C186	C	0.121543	0.828567	0.380695
	C187	C	0.884462	0.830200	0.610003
	C188	C	0.179337	0.390601	0.876322
	C189	C	0.179901	0.620813	0.114569
	C190	C	0.826755	0.390819	0.112865
	C191	C	0.825848	0.620528	0.876332
	C192	C	0.403373	0.099956	0.594895
	C193	C	0.603110	0.911994	0.594770
	C194	C	0.602757	0.100379	0.395064
	C195	C	0.402230	0.912186	0.394573
	C196	C	0.603790	0.405667	0.089759
	C197	C	0.602006	0.605140	0.901345
	C198	C	0.403179	0.605415	0.088997
	C199	C	0.402691	0.405346	0.900918
	C200	C	0.096805	0.605250	0.396207
	C201	C	0.909324	0.606044	0.595317
	C202	C	0.097231	0.406673	0.594991
	C203	C	0.909055	0.406719	0.394766
	C204	C	0.903257	0.600062	0.094755
	C205	C	0.102382	0.412316	0.094946
	C206	C	0.101939	0.599130	0.897045
	C207	C	0.902880	0.411845	0.894059
	C208	C	0.102009	0.907804	0.588623
	C209	C	0.101476	0.105155	0.401478
	C210	C	0.902511	0.107322	0.589279
	C211	C	0.902851	0.905895	0.401111
	C212	C	0.596888	0.104836	0.894981
	C213	C	0.409547	0.105167	0.093937
	C214	C	0.596741	0.906178	0.094886
	C215	C	0.408979	0.905977	0.894750
	Zn216	Zn	0.503054	0.005587	0.744657
	Zn217	Zn	0.502680	0.005681	0.244798
	Zn218	Zn	0.752701	0.505640	-0.004895
	Zn219	Zn	0.252907	0.505350	-0.004661
	Zn220	Zn	0.003096	0.756294	0.495695
	Zn221	Zn	0.002726	0.256539	0.494826
	Zn222	Zn	0.003307	0.506025	0.745170
	Zn223	Zn	0.002867	0.505974	0.245280
	Zn224	Zn	0.502896	0.755567	-0.005156
	Zn225	Zn	0.503323	0.255617	-0.004812
	Zn226	Zn	0.752884	0.006529	0.495452
	Zn227	Zn	0.252386	0.006469	0.494531
	N228	N	0.418363	0.967955	0.672226
	N229	N	0.588351	0.043570	0.673758
	N230	N	0.587141	0.968228	0.317430
	N231	N	0.416994	0.043563	0.316066
	N232	N	0.681232	0.420152	0.957922
	N233	N	0.681332	0.590938	0.032576
	N234	N	0.324032	0.590775	0.957706
	N235	N	0.324729	0.420354	0.032504
	N236	N	0.965487	0.683729	0.411139
	N237	N	0.040397	0.685071	0.581558
	N238	N	0.965668	0.328840	0.579671
	N239	N	0.039935	0.327159	0.409045
	N240	N	0.965586	0.421618	0.672650
	N241	N	0.040651	0.592487	0.674719
	N242	N	0.965384	0.591536	0.317030
	N243	N	0.040399	0.420819	0.317152
	N244	N	0.417277	0.683731	0.957691
	N245	N	0.587886	0.683815	0.032813
	N246	N	0.588000	0.327538	0.957917
	N247	N	0.417450	0.327136	0.032398
	N248	N	0.681122	0.968898	0.409511
	N249	N	0.680713	0.043984	0.580265
	N250	N	0.323897	0.968912	0.580175
	N251	N	0.323612	0.043692	0.408881
	N252	N	0.917798	0.468611	0.172766
	N253	N	0.088237	0.543868	0.173951
	N254	N	0.088258	0.468294	0.817053
	N255	N	0.917652	0.543762	0.816746
	N256	N	0.180224	0.921302	0.457331
	N257	N	0.181215	0.091954	0.532288
	N258	N	0.824423	0.091503	0.457617
	N259	N	0.824631	0.920875	0.532412
	N260	N	0.465744	0.183411	0.909923
	N261	N	0.540532	0.184291	0.080833
	N262	N	0.465380	0.827992	0.079912
	N263	N	0.540327	0.827359	0.909405
	N264	N	0.465330	0.920587	0.172807
	N265	N	0.540302	0.091149	0.173582
	N266	N	0.465286	0.090411	0.816772
	N267	N	0.540151	0.920246	0.816306
	N268	N	0.917060	0.184991	0.457645
	N269	N	0.087478	0.184143	0.532695
	N270	N	0.088350	0.827479	0.458146
	N271	N	0.917753	0.827892	0.532596
	N272	N	0.180948	0.467960	0.910288
	N273	N	0.181337	0.543462	0.080840
	N274	N	0.824902	0.468322	0.079719
	N275	N	0.823716	0.542934	0.909197
	O276	O	1.029085	0.010384	0.987642
	H277	H	1.023699	0.015160	0.981393
	H278	H	1.022269	0.005629	0.983504
	O279	O	-0.004127	0.001312	0.958803
	H280	H	0.002334	0.006319	0.958526
	H281	H	-0.007501	0.000041	0.951932
	O282	O	1.030593	1.010487	-0.027908
	H283	H	1.029693	1.005380	-0.026964
	H284	H	1.030606	1.010690	-0.030098
	O285	O	0.029972	0.022584	0.975782
	H286	H	0.033730	0.025229	0.982108
	H287	H	0.039727	0.024771	0.981255
