data_Molecule from HDF5

_cell_length_a		16.287885
_cell_length_b		16.206239
_cell_length_c		16.360806
_cell_angle_alpha	90.025531
_cell_angle_beta	89.688650
_cell_angle_gamma	89.772209
_symmetry_space_group_name_H-M	'P 1'
_symmetry_Int_Tables_number		1

loop_
	_symmetry_equiv_pos_as_xyz
	x,y,z

loop_
	_atom_site_label
	_atom_site_type_symbol
	_atom_site_fract_x
	_atom_site_fract_y
	_atom_site_fract_z
	H0	H	0.400564	0.834698	0.715356
	H1	H	0.600434	0.160954	0.713238
	H2	H	0.602727	0.833567	0.282294
	H3	H	0.400369	0.160543	0.284681
	H4	H	0.719386	0.396188	0.837014
	H5	H	0.715770	0.595571	0.162016
	H6	H	0.285896	0.599210	0.836302
	H7	H	0.284813	0.398698	0.161152
	H8	H	0.836918	0.710407	0.401359
	H9	H	0.165431	0.709499	0.593458
	H10	H	0.835853	0.285583	0.595719
	H11	H	0.164359	0.280675	0.399392
	H12	H	0.839018	0.396298	0.716071
	H13	H	0.164959	0.595870	0.711535
	H14	H	0.838161	0.596705	0.283253
	H15	H	0.164334	0.395811	0.281712
	H16	H	0.403366	0.713549	0.836446
	H17	H	0.596455	0.710021	0.163268
	H18	H	0.603101	0.281903	0.836685
	H19	H	0.403717	0.284797	0.162734
	H20	H	0.715560	0.832518	0.400520
	H21	H	0.714087	0.161046	0.598198
	H22	H	0.287071	0.832849	0.597672
	H23	H	0.284929	0.159998	0.400212
	H24	H	0.902405	0.332924	0.213466
	H25	H	0.098306	0.660965	0.212393
	H26	H	0.104267	0.333202	0.782403
	H27	H	0.904047	0.661113	0.784665
	H28	H	0.216915	0.895414	0.336080
	H29	H	0.213613	0.095605	0.660642
	H30	H	0.785930	0.095028	0.335713
	H31	H	0.783959	0.896435	0.661660
	H32	H	0.338840	0.214261	0.902495
	H33	H	0.666572	0.210060	0.095327
	H34	H	0.336756	0.785432	0.097445
	H35	H	0.664790	0.783906	0.902090
	H36	H	0.338033	0.899308	0.214960
	H37	H	0.664785	0.097041	0.214345
	H38	H	0.338868	0.101038	0.784119
	H39	H	0.663850	0.897306	0.782266
	H40	H	0.902362	0.211265	0.335536
	H41	H	0.096607	0.210091	0.661253
	H42	H	0.099163	0.781911	0.335319
	H43	H	0.902096	0.781899	0.661902
	H44	H	0.217662	0.333811	0.900300
	H45	H	0.212970	0.661777	0.096771
	H46	H	0.789052	0.332057	0.096311
	H47	H	0.787225	0.661158	0.900744
	H48	H	0.404038	0.115333	0.592916
	H49	H	0.595875	0.880632	0.587411
	H50	H	0.598384	0.111097	0.419479
	H51	H	0.401919	0.878748	0.410114
	H52	H	0.595254	0.402810	0.115723
	H53	H	0.591347	0.588608	0.885387
	H54	H	0.400275	0.590915	0.116182
	H55	H	0.405179	0.410050	0.883671
	H56	H	0.114898	0.587496	0.410413
	H57	H	0.889649	0.582514	0.582120
	H58	H	0.116430	0.407899	0.588260
	H59	H	0.883164	0.407789	0.398056
	H60	H	0.118509	0.402672	0.594493
	H61	H	0.883970	0.582166	0.603277
	H62	H	0.116988	0.582823	0.401001
	H63	H	0.883325	0.397477	0.405996
	H64	H	0.408658	0.586379	0.113270
	H65	H	0.595694	0.593978	0.882769
	H66	H	0.597005	0.405085	0.116388
	H67	H	0.416691	0.410134	0.886691
	H68	H	0.600742	0.119438	0.395522
	H69	H	0.593226	0.878771	0.595945
	H70	H	0.408851	0.113703	0.592530
	H71	H	0.410429	0.877681	0.398445
	H72	H	0.898618	0.617495	0.095145
	H73	H	0.090134	0.379327	0.096457
	H74	H	0.098772	0.614408	0.907839
	H75	H	0.907260	0.381083	0.912174
	H76	H	0.096828	0.913786	0.612467
	H77	H	0.090156	0.087863	0.383688
	H78	H	0.906302	0.088829	0.614270
	H79	H	0.911880	0.901543	0.383791
	H80	H	0.623563	0.099271	0.895058
	H81	H	0.388056	0.090259	0.084561
	H82	H	0.615433	0.911791	0.091668
	H83	H	0.385197	0.905915	0.908050
	H84	H	0.620755	0.901259	0.098297
	H85	H	0.386236	0.084666	0.099493
	H86	H	0.615491	0.092907	0.918012
	H87	H	0.384617	0.907573	0.905497
	H88	H	0.905789	0.091345	0.614315
	H89	H	0.095140	0.094339	0.379959
	H90	H	0.081902	0.899406	0.611839
	H91	H	0.903756	0.901428	0.381361
	H92	H	0.093988	0.616979	0.897467
	H93	H	0.091029	0.381868	0.083777
	H94	H	0.916670	0.613344	0.097521
	H95	H	0.906400	0.377169	0.900123
	H96	H	0.406110	0.113387	0.588707
	H97	H	0.586734	0.882178	0.590406
	H98	H	0.578499	0.110598	0.403808
	H99	H	0.416009	0.882889	0.410254
	H100	H	0.594393	0.405736	0.114427
	H101	H	0.598328	0.587464	0.882650
	H102	H	0.408341	0.596423	0.115586
	H103	H	0.411900	0.399836	0.882097
	H104	H	0.119374	0.593666	0.402263
	H105	H	0.880997	0.601255	0.592017
	H106	H	0.117165	0.399652	0.586989
	H107	H	0.887520	0.409376	0.409981
	H108	H	0.908712	0.610497	0.081405
	H109	H	0.100986	0.378144	0.090338
	H110	H	0.088211	0.611800	0.906613
	H111	H	0.917605	0.381936	0.904592
	H112	H	0.101523	0.893883	0.619406
	H113	H	0.098735	0.085996	0.381669
	H114	H	0.905073	0.090107	0.614877
	H115	H	0.907138	0.908911	0.384754
	H116	H	0.614974	0.075816	0.900040
	H117	H	0.381981	0.099600	0.095930
	H118	H	0.616792	0.900183	0.085705
	H119	H	0.383569	0.904163	0.905619
	C120	C	0.377932	0.006228	0.620622
	C121	C	0.621208	0.988696	0.619784
	C122	C	0.622220	0.005254	0.377383
	C123	C	0.380000	0.988018	0.378030
	C124	C	0.624565	0.375209	0.007832
	C125	C	0.622874	0.618373	0.991371
	C126	C	0.378386	0.620167	0.007321
	C127	C	0.381139	0.377426	0.991361
	C128	C	0.009117	0.617533	0.376657
	C129	C	0.993137	0.617585	0.619605
	C130	C	0.009342	0.374892	0.619618
	C131	C	0.992397	0.374746	0.375757
	C132	C	0.879747	0.505319	0.119968
	C133	C	0.122040	0.488446	0.119158
	C134	C	0.123555	0.506136	0.876119
	C135	C	0.881190	0.488591	0.877209
	C136	C	0.122425	0.873862	0.506904
	C137	C	0.121964	0.117673	0.489671
	C138	C	0.877733	0.118690	0.506972
	C139	C	0.878471	0.874973	0.490835
	C140	C	0.510098	0.119705	0.877196
	C141	C	0.493923	0.119632	0.120929
	C142	C	0.509434	0.876299	0.120670
	C143	C	0.492149	0.876106	0.877108
	C144	C	0.380338	0.883260	0.677184
	C145	C	0.619806	0.112180	0.675013
	C146	C	0.621583	0.882134	0.321147
	C147	C	0.380600	0.111522	0.322772
	C148	C	0.680997	0.376415	0.885438
	C149	C	0.677268	0.615737	0.113733
	C150	C	0.323463	0.618973	0.884996
	C151	C	0.323829	0.379013	0.112912
	C152	C	0.886107	0.673246	0.380131
	C153	C	0.116335	0.672291	0.615035
	C154	C	0.885675	0.321547	0.616862
	C155	C	0.115550	0.318589	0.378424
	C156	C	0.887240	0.376730	0.676742
	C157	C	0.116269	0.615748	0.673672
	C158	C	0.886530	0.616560	0.321574
	C159	C	0.115461	0.375810	0.319958
	C160	C	0.382037	0.675733	0.884934
	C161	C	0.618209	0.672903	0.114202
	C162	C	0.623430	0.319519	0.885332
	C163	C	0.382898	0.322163	0.113680
	C164	C	0.677924	0.881656	0.379722
	C165	C	0.676491	0.112038	0.617659
	C166	C	0.323938	0.882227	0.618555
	C167	C	0.322827	0.110999	0.379803
	C168	C	0.882101	0.381959	0.175355
	C169	C	0.118836	0.612208	0.174515
	C170	C	0.123482	0.382401	0.820675
	C171	C	0.882918	0.611959	0.821804
	C172	C	0.178874	0.875729	0.384678
	C173	C	0.176030	0.115698	0.612208
	C174	C	0.823334	0.115805	0.384543
	C175	C	0.822484	0.876500	0.613064
	C176	C	0.387572	0.176380	0.880940
	C177	C	0.617162	0.173294	0.116989
	C178	C	0.385838	0.822493	0.118052
	C179	C	0.615655	0.821059	0.880286
	C180	C	0.386360	0.878978	0.176479
	C181	C	0.616271	0.116942	0.176116
	C182	C	0.387496	0.119636	0.822545
	C183	C	0.615165	0.877298	0.820749
	C184	C	0.881115	0.173596	0.384312
	C185	C	0.117735	0.172506	0.612423
	C186	C	0.120248	0.819246	0.384051
	C187	C	0.881176	0.819668	0.613321
	C188	C	0.180070	0.382531	0.878874
	C189	C	0.175710	0.612546	0.116813
	C190	C	0.825965	0.381443	0.117148
	C191	C	0.825614	0.612168	0.879930
	C192	C	0.399862	0.091892	0.598111
	C193	C	0.598545	0.902702	0.597733
	C194	C	0.599290	0.091372	0.399657
	C195	C	0.402845	0.902007	0.399813
	C196	C	0.602101	0.397828	0.093243
	C197	C	0.601581	0.596470	0.905665
	C198	C	0.399544	0.597838	0.092958
	C199	C	0.404493	0.399941	0.906235
	C200	C	0.094899	0.594697	0.398104
	C201	C	0.907134	0.595388	0.598555
	C202	C	0.095097	0.396887	0.596771
	C203	C	0.906829	0.398007	0.398009
	C204	C	0.901530	0.591578	0.097871
	C205	C	0.100573	0.402100	0.096643
	C206	C	0.100395	0.592019	0.897533
	C207	C	0.903727	0.402357	0.899140
	C208	C	0.100071	0.895938	0.592501
	C209	C	0.100856	0.096025	0.403850
	C210	C	0.899470	0.096562	0.592583
	C211	C	0.900978	0.897406	0.405426
	C212	C	0.595823	0.096106	0.898268
	C213	C	0.407623	0.097781	0.099464
	C214	C	0.595344	0.898030	0.098303
	C215	C	0.406500	0.899350	0.899552
	Zn216	Zn	0.500571	-0.001584	0.748365
	Zn217	Zn	0.500912	-0.002718	0.249588
	Zn218	Zn	0.752443	0.496393	-0.001251
	Zn219	Zn	0.250176	0.498028	-0.001864
	Zn220	Zn	0.000588	0.746229	0.498342
	Zn221	Zn	0.000219	0.246773	0.498075
	Zn222	Zn	0.002085	0.496486	0.748259
	Zn223	Zn	0.001021	0.496775	0.247258
	Zn224	Zn	0.500434	0.747980	-0.000572
	Zn225	Zn	0.502772	0.247974	-0.000902
	Zn226	Zn	0.749498	-0.003103	0.499608
	Zn227	Zn	0.250577	-0.003933	0.498883
	N228	N	0.413207	0.961440	0.678898
	N229	N	0.586068	0.034502	0.676718
	N230	N	0.587485	0.960039	0.319745
	N231	N	0.415678	0.034260	0.321568
	N232	N	0.681779	0.410422	0.962559
	N233	N	0.680321	0.582769	0.036320
	N234	N	0.321119	0.585062	0.962214
	N235	N	0.322581	0.412586	0.035694
	N236	N	0.963321	0.673893	0.413706
	N237	N	0.038731	0.673435	0.582142
	N238	N	0.962719	0.320352	0.581965
	N239	N	0.038204	0.317905	0.412558
	N240	N	0.965075	0.409297	0.678486
	N241	N	0.038647	0.582460	0.676734
	N242	N	0.964116	0.582769	0.319193
	N243	N	0.037989	0.409854	0.318152
	N244	N	0.415335	0.676581	0.961827
	N245	N	0.585037	0.674573	0.036887
	N246	N	0.589162	0.318546	0.962373
	N247	N	0.418124	0.321332	0.037178
	N248	N	0.678414	0.959088	0.413939
	N249	N	0.677121	0.034268	0.583847
	N250	N	0.322282	0.959490	0.584253
	N251	N	0.322364	0.033298	0.413572
	N252	N	0.915135	0.459888	0.176896
	N253	N	0.086197	0.533985	0.176067
	N254	N	0.089125	0.460156	0.818608
	N255	N	0.916840	0.534102	0.820166
	N256	N	0.180163	0.909165	0.462174
	N257	N	0.178516	0.082164	0.535018
	N258	N	0.821203	0.082300	0.461648
	N259	N	0.820789	0.910021	0.535811
	N260	N	0.464914	0.176532	0.914109
	N261	N	0.539782	0.175090	0.083656
	N262	N	0.463400	0.820519	0.084309
	N263	N	0.538387	0.820222	0.914367
	N264	N	0.464109	0.911932	0.178205
	N265	N	0.538341	0.084291	0.178640
	N266	N	0.464619	0.084938	0.820104
	N267	N	0.537195	0.910714	0.818411
	N268	N	0.914266	0.175318	0.461392
	N269	N	0.084787	0.173806	0.535141
	N270	N	0.085979	0.817939	0.460858
	N271	N	0.915259	0.818411	0.536226
	N272	N	0.180115	0.460166	0.912663
	N273	N	0.177582	0.534793	0.083008
	N274	N	0.824090	0.459283	0.083612
	N275	N	0.824375	0.534435	0.913447
	O276	O	0.519683	0.489238	0.476256
	H277	H	0.519019	0.483417	0.463963
	H278	H	0.530177	0.479280	0.475090
	O279	O	0.465740	0.429831	0.553496
	H280	H	0.463344	0.430673	0.559875
	H281	H	0.469838	0.434818	0.546610
	O282	O	0.542471	0.562564	0.529164
	H283	H	0.539139	0.563224	0.536719
	H284	H	0.547245	0.555759	0.529809
	O285	O	0.525960	1.574118	0.618538
	H286	H	0.530996	1.565935	0.615664
	H287	H	0.533547	1.584084	0.624566
	O288	O	0.425809	0.433860	0.572240
	H289	H	0.419217	0.426249	0.577726
	H290	H	0.421897	0.439463	0.564098
	O291	O	0.071224	-0.041915	0.947536
	H292	H	0.074658	-0.054240	0.937456
	H293	H	0.072159	-0.041730	0.940565
	O294	O	0.547459	0.472157	0.542266
	H295	H	0.546425	0.456060	0.530026
	H296	H	0.551517	0.472732	0.549426
	O297	O	0.450150	0.512220	0.559340
	H298	H	0.451208	0.520109	0.560332
	H299	H	0.450750	0.512348	0.546398
	O300	O	1.009817	0.962418	1.037494
	H301	H	1.005410	0.965412	1.037448
	H302	H	1.007990	0.957748	1.037657
	O303	O	0.420949	0.563842	0.481993
	H304	H	0.411806	0.562672	0.479148
	H305	H	0.408039	0.558486	0.490142
	O306	O	1.044929	0.012617	0.967764
	H307	H	1.047624	0.014452	0.974190
	H308	H	1.056029	-0.004168	0.971995
	O309	O	0.515803	0.424869	0.559116
	H310	H	0.518788	0.426457	0.567703
	H311	H	0.509418	0.415297	0.563916
	O312	O	0.008731	0.960124	0.981189
	H313	H	-0.000069	0.967227	0.975848
	H314	H	-0.002220	0.957290	0.984469
	O315	O	0.546653	-0.491940	0.584209
	H316	H	0.537893	-0.493796	0.593989
	H317	H	0.549107	-0.481355	0.579982
	O318	O	-0.522185	-0.530890	-0.619538
	H319	H	-0.521257	-0.532207	-0.631036
	H320	H	-0.521424	-0.524222	-0.617754
	O321	O	0.572061	0.423298	0.479590
	H322	H	0.572983	0.419964	0.471059
	H323	H	0.573615	0.427109	0.480610
	O324	O	0.557449	0.400102	0.463386
	H325	H	0.555160	0.405143	0.464624
	H326	H	0.556982	0.399769	0.469284
	O327	O	1.228229	1.161315	-0.255065
	H328	H	1.222046	1.161606	-0.234466
	H329	H	1.236535	1.162882	-0.264358
	O330	O	0.496771	0.484640	0.516757
	H331	H	0.508064	0.489304	0.514006
	H332	H	0.498864	0.482265	0.519780
	O333	O	0.477934	0.516234	0.463344
	H334	H	0.480514	0.516086	0.466713
	H335	H	0.478243	0.515802	0.466200
