data_Molecule from HDF5

_cell_length_a		16.363215
_cell_length_b		16.499467
_cell_length_c		16.496001
_cell_angle_alpha	90.015343
_cell_angle_beta	90.003480
_cell_angle_gamma	89.901304
_symmetry_space_group_name_H-M	'P 1'
_symmetry_Int_Tables_number		1

loop_
	_symmetry_equiv_pos_as_xyz
	x,y,z

loop_
	_atom_site_label
	_atom_site_type_symbol
	_atom_site_fract_x
	_atom_site_fract_y
	_atom_site_fract_z
	H0	H	0.381220	0.842913	0.715308
	H1	H	0.593389	0.158492	0.719877
	H2	H	0.593330	0.844297	0.272396
	H3	H	0.378615	0.157650	0.271794
	H4	H	0.709886	0.393972	0.838536
	H5	H	0.708905	0.607444	0.152488
	H6	H	0.265464	0.604060	0.837524
	H7	H	0.268523	0.398627	0.154486
	H8	H	0.826803	0.722370	0.389372
	H9	H	0.145555	0.720127	0.597767
	H10	H	0.828147	0.277492	0.604204
	H11	H	0.143034	0.279287	0.389291
	H12	H	0.830119	0.390256	0.722273
	H13	H	0.145115	0.605002	0.715093
	H14	H	0.827664	0.607572	0.273380
	H15	H	0.144224	0.396535	0.275247
	H16	H	0.378920	0.723097	0.837564
	H17	H	0.592114	0.724512	0.151357
	H18	H	0.595975	0.275565	0.838323
	H19	H	0.380444	0.278007	0.152256
	H20	H	0.709680	0.845546	0.387897
	H21	H	0.708987	0.159206	0.602619
	H22	H	0.265363	0.843002	0.598003
	H23	H	0.265557	0.159724	0.391986
	H24	H	0.879252	0.344042	0.218904
	H25	H	0.091664	0.659382	0.216755
	H26	H	0.096979	0.345355	0.769792
	H27	H	0.878795	0.656741	0.773015
	H28	H	0.206520	0.896708	0.336147
	H29	H	0.205868	0.104920	0.652907
	H30	H	0.759731	0.111341	0.338497
	H31	H	0.764438	0.897385	0.652653
	H32	H	0.327277	0.222485	0.889076
	H33	H	0.644160	0.223285	0.103502
	H34	H	0.326040	0.781410	0.098492
	H35	H	0.643877	0.779240	0.889683
	H36	H	0.326989	0.894219	0.216755
	H37	H	0.643496	0.107746	0.218818
	H38	H	0.325567	0.103624	0.777095
	H39	H	0.643684	0.895389	0.773676
	H40	H	0.874190	0.228610	0.339473
	H41	H	0.093389	0.224938	0.651641
	H42	H	0.092989	0.778441	0.336782
	H43	H	0.878504	0.778426	0.651819
	H44	H	0.208810	0.342262	0.890303
	H45	H	0.206207	0.659722	0.098379
	H46	H	0.762866	0.343389	0.103412
	H47	H	0.763229	0.656447	0.890466
	H48	H	0.390081	0.117151	0.589199
	H49	H	0.571567	0.890774	0.585533
	H50	H	0.569077	0.109613	0.414915
	H51	H	0.393840	0.885859	0.400265
	H52	H	0.584375	0.414355	0.108988
	H53	H	0.573675	0.593155	0.882246
	H54	H	0.395818	0.590973	0.108251
	H55	H	0.401052	0.411646	0.884605
	H56	H	0.098493	0.588228	0.407499
	H57	H	0.872744	0.593695	0.578970
	H58	H	0.097499	0.415664	0.582797
	H59	H	0.872271	0.415869	0.406888
	H60	H	0.098724	0.412284	0.583215
	H61	H	0.875739	0.582831	0.582175
	H62	H	0.101112	0.590183	0.402036
	H63	H	0.872169	0.413475	0.407675
	H64	H	0.398665	0.591665	0.108152
	H65	H	0.577450	0.587177	0.882638
	H66	H	0.566255	0.419674	0.101704
	H67	H	0.398555	0.408456	0.880911
	H68	H	0.577601	0.115669	0.406437
	H69	H	0.574291	0.891915	0.581538
	H70	H	0.399422	0.114329	0.589456
	H71	H	0.401592	0.889561	0.404731
	H72	H	0.892343	0.615004	0.083660
	H73	H	0.082473	0.385643	0.087515
	H74	H	0.077698	0.614172	0.903460
	H75	H	0.905269	0.389074	0.906394
	H76	H	0.072297	0.908344	0.606925
	H77	H	0.076981	0.089533	0.382004
	H78	H	0.902366	0.094437	0.606444
	H79	H	0.896806	0.914561	0.383611
	H80	H	0.597134	0.084975	0.909290
	H81	H	0.373450	0.088057	0.083018
	H82	H	0.598133	0.913685	0.080051
	H83	H	0.372019	0.912633	0.907500
	H84	H	0.598567	0.914183	0.085867
	H85	H	0.373100	0.089008	0.081420
	H86	H	0.600758	0.087910	0.901078
	H87	H	0.371255	0.912865	0.903104
	H88	H	0.893147	0.088417	0.607765
	H89	H	0.069995	0.089343	0.384113
	H90	H	0.077595	0.908853	0.608305
	H91	H	0.900242	0.912467	0.382899
	H92	H	0.071435	0.612095	0.906446
	H93	H	0.072066	0.388534	0.091067
	H94	H	0.899616	0.613358	0.089390
	H95	H	0.900978	0.390665	0.913265
	H96	H	0.394346	0.113675	0.581507
	H97	H	0.575768	0.888534	0.585534
	H98	H	0.564938	0.112979	0.402238
	H99	H	0.392931	0.889201	0.409459
	H100	H	0.568728	0.401321	0.109278
	H101	H	0.570651	0.587257	0.885253
	H102	H	0.396372	0.593352	0.109029
	H103	H	0.396261	0.412903	0.882478
	H104	H	0.100870	0.594742	0.406577
	H105	H	0.870036	0.590233	0.589609
	H106	H	0.097524	0.413138	0.579655
	H107	H	0.872785	0.415791	0.409442
	H108	H	0.899734	0.610500	0.080540
	H109	H	0.074901	0.390283	0.080417
	H110	H	0.077844	0.612131	0.910207
	H111	H	0.897592	0.386950	0.907028
	H112	H	0.074613	0.913233	0.606458
	H113	H	0.072915	0.094636	0.380987
	H114	H	0.901855	0.084274	0.602460
	H115	H	0.896556	0.910969	0.381386
	H116	H	0.600280	0.093727	0.908771
	H117	H	0.374573	0.087324	0.081400
	H118	H	0.600289	0.908940	0.083241
	H119	H	0.369797	0.909050	0.905485
	C120	C	0.363253	0.009968	0.617256
	C121	C	0.607008	0.993859	0.617399
	C122	C	0.605317	0.009431	0.374617
	C123	C	0.363472	0.992325	0.372824
	C124	C	0.607478	0.378176	0.003308
	C125	C	0.607057	0.621928	0.986990
	C126	C	0.364409	0.623071	0.003975
	C127	C	0.365990	0.379163	0.986794
	C128	C	-0.004913	0.623342	0.373116
	C129	C	0.977834	0.621414	0.615435
	C130	C	-0.005805	0.379867	0.616667
	C131	C	0.977102	0.381467	0.375061
	C132	C	0.864402	0.509322	0.117762
	C133	C	0.108170	0.493041	0.117362
	C134	C	0.109177	0.509023	0.873560
	C135	C	0.866261	0.491878	0.875197
	C136	C	0.107349	0.878834	0.502741
	C137	C	0.105979	0.122802	0.486554
	C138	C	0.863809	0.123680	0.503057
	C139	C	0.864550	0.880041	0.486439
	C140	C	0.494304	0.121647	0.874319
	C141	C	0.477781	0.121279	0.115930
	C142	C	0.494060	0.879999	0.115513
	C143	C	0.476511	0.879199	0.873290
	C144	C	0.362392	0.890547	0.675708
	C145	C	0.610908	0.111494	0.679226
	C146	C	0.610271	0.891557	0.313048
	C147	C	0.360493	0.110731	0.312395
	C148	C	0.669608	0.375223	0.885535
	C149	C	0.667956	0.624971	0.105354
	C150	C	0.304888	0.623454	0.884803
	C151	C	0.306844	0.378647	0.106166
	C152	C	0.874937	0.683067	0.370826
	C153	C	0.097641	0.680739	0.616667
	C154	C	0.875907	0.317586	0.621945
	C155	C	0.095864	0.319976	0.371559
	C156	C	0.876818	0.374070	0.680679
	C157	C	0.097680	0.623264	0.674753
	C158	C	0.875275	0.625687	0.313296
	C159	C	0.096455	0.378247	0.314858
	C160	C	0.361627	0.682265	0.884757
	C161	C	0.610208	0.683596	0.104536
	C162	C	0.612586	0.316340	0.885644
	C163	C	0.362496	0.318605	0.105204
	C164	C	0.668212	0.892100	0.370669
	C165	C	0.668321	0.112044	0.620525
	C166	C	0.304771	0.890405	0.617462
	C167	C	0.304669	0.111985	0.372405
	C168	C	0.861226	0.391103	0.178847
	C169	C	0.109804	0.612023	0.176534
	C170	C	0.113492	0.391528	0.811648
	C171	C	0.861242	0.609638	0.813610
	C172	C	0.167095	0.877659	0.383706
	C173	C	0.166416	0.124089	0.605266
	C174	C	0.800654	0.128630	0.385624
	C175	C	0.804267	0.878488	0.605158
	C176	C	0.374878	0.181899	0.871728
	C177	C	0.596533	0.182726	0.120261
	C178	C	0.374164	0.820303	0.117784
	C179	C	0.596260	0.819292	0.871139
	C180	C	0.374652	0.876865	0.176488
	C181	C	0.596233	0.125341	0.178083
	C182	C	0.373832	0.122841	0.815768
	C183	C	0.596215	0.877107	0.813695
	C184	C	0.857581	0.187203	0.386306
	C185	C	0.110151	0.183709	0.604694
	C186	C	0.110231	0.818838	0.384111
	C187	C	0.861455	0.819424	0.604678
	C188	C	0.169696	0.390397	0.871330
	C189	C	0.166949	0.612279	0.117522
	C190	C	0.803293	0.390668	0.121158
	C191	C	0.803801	0.609552	0.872046
	C192	C	0.387499	0.093242	0.593478
	C193	C	0.581297	0.911854	0.591451
	C194	C	0.578425	0.091287	0.400664
	C195	C	0.388856	0.909816	0.397591
	C196	C	0.580673	0.404297	0.085232
	C197	C	0.581435	0.596225	0.904612
	C198	C	0.389909	0.598986	0.086819
	C199	C	0.391382	0.403925	0.904120
	C200	C	0.078496	0.598178	0.398188
	C201	C	0.894511	0.596090	0.590771
	C202	C	0.076415	0.406163	0.589638
	C203	C	0.893932	0.407725	0.400746
	C204	C	0.890055	0.591400	0.091883
	C205	C	0.083479	0.409776	0.093144
	C206	C	0.082902	0.591341	0.899165
	C207	C	0.893563	0.410237	0.901225
	C208	C	0.082209	0.903374	0.585728
	C209	C	0.080406	0.098165	0.403920
	C210	C	0.891189	0.096632	0.584253
	C211	C	0.890419	0.905319	0.404256
	C212	C	0.577788	0.096110	0.899270
	C213	C	0.395203	0.095479	0.089456
	C214	C	0.577076	0.904951	0.090219
	C215	C	0.392830	0.904182	0.898208
	Zn216	Zn	0.485107	0.001109	0.746012
	Zn217	Zn	0.485747	0.000849	0.244339
	Zn218	Zn	0.736270	0.499814	-0.003960
	Zn219	Zn	0.236974	0.500602	-0.004107
	Zn220	Zn	-0.013993	0.750311	0.494715
	Zn221	Zn	-0.014587	0.252178	0.495145
	Zn222	Zn	-0.013087	0.500919	0.745225
	Zn223	Zn	-0.014247	0.501267	0.246120
	Zn224	Zn	0.485411	0.751556	-0.005292
	Zn225	Zn	0.486206	0.249509	-0.004618
	Zn226	Zn	0.735409	0.002533	0.494759
	Zn227	Zn	0.235214	0.001153	0.494571
	N228	N	0.398157	0.965886	0.675555
	N229	N	0.573632	0.036992	0.677462
	N230	N	0.571831	0.965620	0.315530
	N231	N	0.396400	0.035411	0.312493
	N232	N	0.666585	0.412881	0.959619
	N233	N	0.665837	0.587115	0.031312
	N234	N	0.306683	0.587331	0.959766
	N235	N	0.308797	0.415437	0.031491
	N236	N	0.950508	0.681870	0.407319
	N237	N	0.021953	0.679981	0.580862
	N238	N	0.949785	0.321166	0.582681
	N239	N	0.020578	0.322013	0.408319
	N240	N	0.951506	0.411961	0.677703
	N241	N	0.022038	0.587212	0.674202
	N242	N	0.950937	0.589518	0.314392
	N243	N	0.021465	0.415807	0.317008
	N244	N	0.397982	0.682207	0.959872
	N245	N	0.573119	0.681842	0.029928
	N246	N	0.574740	0.318011	0.960081
	N247	N	0.398280	0.318503	0.029885
	N248	N	0.665281	0.966409	0.408302
	N249	N	0.666316	0.037807	0.582900
	N250	N	0.305093	0.965633	0.581853
	N251	N	0.306400	0.037398	0.409211
	N252	N	0.898350	0.465760	0.176811
	N253	N	0.073805	0.536790	0.176486
	N254	N	0.076693	0.466436	0.812904
	N255	N	0.899282	0.535342	0.815332
	N256	N	0.165488	0.914142	0.458487
	N257	N	0.163878	0.086854	0.530861
	N258	N	0.804205	0.089843	0.459305
	N259	N	0.805993	0.915485	0.530581
	N260	N	0.450985	0.181432	0.907137
	N261	N	0.521674	0.180401	0.082406
	N262	N	0.449194	0.822223	0.080579
	N263	N	0.520639	0.820419	0.907240
	N264	N	0.450290	0.913263	0.175455
	N265	N	0.521566	0.087689	0.175387
	N266	N	0.449250	0.086118	0.817217
	N267	N	0.520559	0.913372	0.814804
	N268	N	0.896171	0.184180	0.460152
	N269	N	0.073130	0.182799	0.529893
	N270	N	0.073629	0.819490	0.459187
	N271	N	0.898070	0.820160	0.529739
	N272	N	0.166954	0.464451	0.909239
	N273	N	0.165968	0.537214	0.081791
	N274	N	0.804879	0.465190	0.083928
	N275	N	0.806708	0.535342	0.909471
	O276	O	0.583200	0.629522	0.282215
	H277	H	0.570461	0.634240	0.296465
	H278	H	0.582309	0.654307	0.269331
	O279	O	1.143209	0.199956	1.034291
	H280	H	1.142510	0.190640	1.007518
	H281	H	1.162225	0.207560	1.023381
	O282	O	0.334091	0.550014	0.316150
	H283	H	0.341874	0.568277	0.322113
	H284	H	0.316069	0.544947	0.295972
	O285	O	0.889043	1.063514	1.035546
	H286	H	0.889147	1.062197	1.027702
	H287	H	0.880855	1.048837	1.050083
	O288	O	1.097388	0.989145	-0.134348
	H289	H	1.100457	0.984281	-0.143438
	H290	H	1.101070	0.971423	-0.132672
	O291	O	1.003249	0.206336	0.208351
	H292	H	1.012825	0.225615	0.219650
	H293	H	1.001983	0.214682	0.187905
	O294	O	0.459859	-0.328330	1.357802
	H295	H	0.473326	-0.331798	1.367404
	H296	H	0.488076	-0.309833	1.360189
	O297	O	0.291065	0.359711	0.641403
	H298	H	0.275548	0.386420	0.645151
	H299	H	0.290333	0.355687	0.612665
	O300	O	0.490370	0.558942	0.524072
	H301	H	0.498220	0.556464	0.515315
	H302	H	0.497080	0.571080	0.519550
	O303	O	0.298635	0.656582	0.430691
	H304	H	0.301727	0.656416	0.442597
	H305	H	0.296106	0.654047	0.428371
	O306	O	-0.051922	0.836575	1.177376
	H307	H	-0.041345	0.835123	1.197748
	H308	H	-0.032643	0.845133	1.172764
	O309	O	0.607352	0.318264	0.306755
	H310	H	0.629099	0.345259	0.311694
	H311	H	0.615718	0.318826	0.326373
	O312	O	-0.212896	1.038568	0.800152
	H313	H	-0.222983	1.028926	0.803718
	H314	H	-0.226964	1.023146	0.808180
	O315	O	0.693165	0.593209	0.702009
	H316	H	0.702760	0.573894	0.715626
	H317	H	0.689814	0.618118	0.715188
	O318	O	1.455021	0.557579	0.620364
	H319	H	1.462905	0.558923	0.618836
	H320	H	1.457271	0.549183	0.629205
	O321	O	-0.028800	0.113815	-0.104087
	H322	H	-0.014601	0.118587	-0.098858
	H323	H	-0.036423	0.108652	-0.092850
	O324	O	0.303241	0.375742	0.402386
	H325	H	0.316345	0.387405	0.403305
	H326	H	0.311711	0.385635	0.412184
	O327	O	0.501130	0.355333	0.522127
	H328	H	0.501849	0.345200	0.523799
	H329	H	0.504335	0.352932	0.513407
	O330	O	-0.029796	0.911480	-0.060243
	H331	H	-0.021922	0.896241	-0.056223
	H332	H	-0.033109	0.909791	-0.060409
	O333	O	0.865439	0.880012	0.898045
	H334	H	0.865635	0.861163	0.888012
	H335	H	0.870431	0.869589	0.901370
	O336	O	-0.209904	-0.199021	0.020618
	H337	H	-0.202643	-0.210043	0.028357
	H338	H	-0.210782	-0.207993	0.043543
	O339	O	0.283360	0.576002	0.551470
	H340	H	0.291906	0.564255	0.542675
	H341	H	0.293142	0.562473	0.558984
	O342	O	0.170165	0.837861	0.920433
	H343	H	0.176941	0.858332	0.914654
	H344	H	0.163123	0.846443	0.945522
	O345	O	0.974688	1.206635	-0.184129
	H346	H	0.974099	1.228928	-0.192832
	H347	H	0.976717	1.217521	-0.180186
	O348	O	1.183572	0.908709	0.793221
	H349	H	1.196044	0.915414	0.787368
	H350	H	1.179038	0.936215	0.783186
	O351	O	0.170025	1.196845	1.184491
	H352	H	0.173290	1.216533	1.188353
	H353	H	0.165372	1.204691	1.148649
	O354	O	-0.580702	0.306209	-0.483410
	H355	H	-0.596560	0.293528	-0.465360
	H356	H	-0.590452	0.315478	-0.501828
	O357	O	0.171308	-0.053228	1.057204
	H358	H	0.167519	-0.058178	1.055600
	H359	H	0.172089	-0.056288	1.054278
	O360	O	0.574647	0.434744	0.539742
	H361	H	0.579218	0.430931	0.534901
	H362	H	0.576593	0.418319	0.546352
	O363	O	0.198834	0.035303	1.207384
	H364	H	0.207138	0.058305	1.215558
	H365	H	0.210815	0.062824	1.220461
	O366	O	0.607066	0.378547	0.610101
	H367	H	0.601903	0.380310	0.600732
	H368	H	0.608737	0.372741	0.609054
	O369	O	0.512030	0.707419	0.707954
	H370	H	0.512641	0.714712	0.717182
	H371	H	0.491630	0.714123	0.707383
	O372	O	0.887587	-0.201807	0.868873
	H373	H	0.907040	-0.198062	0.894201
	H374	H	0.901267	-0.193566	0.865904
	O375	O	0.473614	0.494139	0.285206
	H376	H	0.475837	0.488199	0.286861
	H377	H	0.460021	0.495009	0.282277
	O378	O	0.441586	0.416473	0.400576
	H379	H	0.461402	0.429772	0.407103
	H380	H	0.421017	0.416837	0.389453
	O381	O	0.925938	0.056751	1.215672
	H382	H	0.925914	0.068151	1.222806
	H383	H	0.941449	0.064391	1.209820
	O384	O	1.092989	0.889361	0.007785
	H385	H	1.099339	0.897470	0.011688
	H386	H	1.091389	0.887778	0.015655
	O387	O	0.171692	-0.022447	0.931346
	H388	H	0.171321	-0.020744	0.934580
	H389	H	0.163982	-0.023686	0.928106
	O390	O	-0.182497	-0.025888	0.196966
	H391	H	-0.176710	-0.020163	0.198626
	H392	H	-0.183168	-0.026319	0.221691
	O393	O	0.318974	0.529360	0.664197
	H394	H	0.334128	0.541659	0.659845
	H395	H	0.323171	0.520962	0.677508
	O396	O	0.939635	-0.037273	-0.032518
	H397	H	0.938203	-0.049987	-0.028281
	H398	H	0.936850	-0.030650	-0.022476
	O399	O	1.020035	0.015649	0.804268
	H400	H	1.000746	0.023474	0.809324
	H401	H	1.004812	0.017343	0.794002
	O402	O	1.685778	0.700069	1.618481
	H403	H	1.711627	0.719828	1.617229
	H404	H	1.651115	0.701910	1.647226
	O405	O	1.071820	0.789140	-0.129289
	H406	H	1.084331	0.781378	-0.137451
	H407	H	1.097047	0.800463	-0.132169
	O408	O	1.016884	0.207374	-0.039869
	H409	H	1.002651	0.200839	-0.053729
	H410	H	1.016934	0.209872	-0.051324
	O411	O	0.775611	1.213848	-0.036363
	H412	H	0.753796	1.224023	-0.032325
	H413	H	0.770888	1.205024	-0.050492
	O414	O	0.543727	0.365781	0.512802
	H415	H	0.535105	0.375079	0.520303
	H416	H	0.529652	0.370998	0.505416
	O417	O	0.793521	0.810538	0.179417
	H418	H	0.794534	0.833230	0.171235
	H419	H	0.837131	0.812396	0.187110
	O420	O	-0.145685	0.000980	0.008521
	H421	H	-0.146649	0.002036	0.013753
	H422	H	-0.142289	-0.014335	0.017267
	O423	O	0.691494	0.654398	0.492500
	H424	H	0.704795	0.668308	0.488571
	H425	H	0.699032	0.654783	0.499922
	O426	O	0.685842	0.483760	0.293911
	H427	H	0.659327	0.497253	0.281104
	H428	H	0.700653	0.494871	0.274807
	O429	O	0.292546	0.684149	0.353171
	H430	H	0.299762	0.680514	0.376835
	H431	H	0.310120	0.692192	0.367603
	O432	O	0.688567	0.296442	0.450292
	H433	H	0.685969	0.289665	0.461927
	H434	H	0.695786	0.278669	0.471114
	O435	O	0.414599	0.318438	0.311677
	H436	H	0.435401	0.315746	0.297939
	H437	H	0.425629	0.322472	0.316989
	O438	O	0.017584	-0.052736	0.186763
	H439	H	0.017250	-0.043201	0.184245
	H440	H	0.032637	-0.034344	0.191158
	O441	O	0.831329	0.173593	-0.190635
	H442	H	0.837392	0.158954	-0.178975
	H443	H	0.831600	0.154243	-0.202470
	O444	O	-0.401836	1.487861	1.703690
	H445	H	-0.392277	1.474162	1.687924
	H446	H	-0.379566	1.488346	1.703763
	O447	O	0.364409	0.311540	0.695179
	H448	H	0.347909	0.325955	0.687981
	H449	H	0.374188	0.290652	0.711333
	O450	O	0.488290	0.720023	0.502619
	H451	H	0.499046	0.723855	0.505644
	H452	H	0.494947	0.715654	0.500338
	O453	O	0.494787	0.623036	0.509627
	H454	H	0.508528	0.623943	0.522030
	H455	H	0.515693	0.617124	0.507784
