data_Molecule from HDF5

_cell_length_a		16.100181
_cell_length_b		16.150532
_cell_length_c		16.567234
_cell_angle_alpha	89.737127
_cell_angle_beta	90.555741
_cell_angle_gamma	89.218118
_symmetry_space_group_name_H-M	'P 1'
_symmetry_Int_Tables_number		1

loop_
	_symmetry_equiv_pos_as_xyz
	x,y,z

loop_
	_atom_site_label
	_atom_site_type_symbol
	_atom_site_fract_x
	_atom_site_fract_y
	_atom_site_fract_z
	H0	H	0.404092	0.843016	0.717729
	H1	H	0.607675	0.168337	0.718322
	H2	H	0.607838	0.841313	0.285798
	H3	H	0.397419	0.168161	0.281041
	H4	H	0.719247	0.406065	0.838428
	H5	H	0.721016	0.602370	0.161299
	H6	H	0.284721	0.607933	0.839009
	H7	H	0.292271	0.411090	0.162746
	H8	H	0.839807	0.722528	0.399981
	H9	H	0.171697	0.711175	0.594708
	H10	H	0.839080	0.295246	0.593179
	H11	H	0.171511	0.292009	0.405729
	H12	H	0.841968	0.400198	0.716705
	H13	H	0.166820	0.606857	0.719091
	H14	H	0.840634	0.611500	0.279969
	H15	H	0.169417	0.402781	0.284291
	H16	H	0.401509	0.725265	0.839465
	H17	H	0.602394	0.719370	0.162738
	H18	H	0.603595	0.287370	0.839671
	H19	H	0.406887	0.289377	0.161248
	H20	H	0.717426	0.838889	0.407915
	H21	H	0.715380	0.171436	0.596158
	H22	H	0.299909	0.838000	0.593622
	H23	H	0.289330	0.169541	0.402539
	H24	H	0.902411	0.344183	0.217634
	H25	H	0.106310	0.669224	0.217485
	H26	H	0.111444	0.343199	0.783023
	H27	H	0.893802	0.667767	0.777420
	H28	H	0.221988	0.902942	0.338020
	H29	H	0.222784	0.101050	0.660410
	H30	H	0.783481	0.108092	0.339891
	H31	H	0.793807	0.906937	0.662300
	H32	H	0.338721	0.221302	0.900598
	H33	H	0.670427	0.214080	0.097017
	H34	H	0.336665	0.799609	0.093342
	H35	H	0.670111	0.791490	0.907671
	H36	H	0.341186	0.903340	0.217035
	H37	H	0.666989	0.106866	0.220215
	H38	H	0.342137	0.114069	0.777826
	H39	H	0.667961	0.899832	0.784211
	H40	H	0.902711	0.223655	0.338727
	H41	H	0.107445	0.221023	0.660438
	H42	H	0.104741	0.786117	0.338882
	H43	H	0.908753	0.787629	0.660994
	H44	H	0.218615	0.341542	0.905754
	H45	H	0.211155	0.673452	0.094043
	H46	H	0.797990	0.339093	0.094086
	H47	H	0.785464	0.670092	0.899729
	H48	H	0.415256	0.123141	0.594622
	H49	H	0.597456	0.888687	0.594639
	H50	H	0.597083	0.124513	0.404214
	H51	H	0.422880	0.890978	0.410131
	H52	H	0.598756	0.410532	0.113452
	H53	H	0.598734	0.598352	0.885223
	H54	H	0.409743	0.603788	0.116097
	H55	H	0.406859	0.424280	0.888669
	H56	H	0.120525	0.585702	0.404379
	H57	H	0.886248	0.593443	0.594594
	H58	H	0.120608	0.415533	0.589889
	H59	H	0.885660	0.412302	0.401872
	H60	H	0.122641	0.415992	0.596812
	H61	H	0.885859	0.602293	0.587938
	H62	H	0.125266	0.597973	0.399540
	H63	H	0.888811	0.417351	0.409191
	H64	H	0.405691	0.604772	0.116486
	H65	H	0.590588	0.594798	0.888899
	H66	H	0.600094	0.407781	0.114891
	H67	H	0.420975	0.411988	0.888856
	H68	H	0.586311	0.121932	0.403500
	H69	H	0.600345	0.887712	0.595034
	H70	H	0.417690	0.120877	0.587457
	H71	H	0.408387	0.885432	0.408699
	H72	H	0.909430	0.623873	0.087036
	H73	H	0.100137	0.389871	0.088712
	H74	H	0.085294	0.621322	0.904424
	H75	H	0.909074	0.387396	0.908784
	H76	H	0.106989	0.907311	0.614825
	H77	H	0.109060	0.088622	0.385393
	H78	H	0.913276	0.093703	0.611264
	H79	H	0.907411	0.913694	0.384871
	H80	H	0.624149	0.096991	0.903010
	H81	H	0.390106	0.099598	0.081425
	H82	H	0.620332	0.916068	0.092830
	H83	H	0.385147	0.916861	0.901150
	H84	H	0.622848	0.913677	0.100038
	H85	H	0.388569	0.086342	0.094977
	H86	H	0.621246	0.097058	0.914393
	H87	H	0.386836	0.917137	0.907452
	H88	H	0.916821	0.104741	0.614585
	H89	H	0.082450	0.089642	0.392158
	H90	H	0.100950	0.912658	0.612197
	H91	H	0.913477	0.917904	0.387847
	H92	H	0.090243	0.621694	0.910347
	H93	H	0.100937	0.386850	0.098858
	H94	H	0.911007	0.624450	0.094575
	H95	H	0.913278	0.386593	0.899062
	H96	H	0.409747	0.123260	0.588661
	H97	H	0.598061	0.887236	0.597562
	H98	H	0.592022	0.120560	0.413201
	H99	H	0.418015	0.885528	0.396621
	H100	H	0.602257	0.411109	0.113993
	H101	H	0.591028	0.603617	0.886623
	H102	H	0.406465	0.601288	0.114212
	H103	H	0.403982	0.407064	0.882601
	H104	H	0.120446	0.597345	0.412835
	H105	H	0.889968	0.592540	0.584025
	H106	H	0.123292	0.410020	0.593432
	H107	H	0.888622	0.421789	0.400519
	H108	H	0.917190	0.621826	0.090114
	H109	H	0.092036	0.390836	0.095031
	H110	H	0.092622	0.624601	0.903471
	H111	H	0.918640	0.391085	0.907159
	H112	H	0.098922	0.905137	0.613869
	H113	H	0.094318	0.112016	0.381642
	H114	H	0.905726	0.101258	0.616133
	H115	H	0.914934	0.909757	0.386769
	H116	H	0.618585	0.087157	0.907595
	H117	H	0.381658	0.104208	0.097981
	H118	H	0.623245	0.908268	0.093474
	H119	H	0.387901	0.922119	0.903884
	C120	C	0.385722	0.013745	0.619638
	C121	C	0.627019	0.996883	0.623125
	C122	C	0.623780	0.013476	0.379928
	C123	C	0.383442	0.995546	0.376506
	C124	C	0.627742	0.381478	0.007869
	C125	C	0.624079	0.627097	0.992958
	C126	C	0.378341	0.631848	0.008993
	C127	C	0.382853	0.385295	0.992691
	C128	C	0.013414	0.626230	0.376249
	C129	C	0.996092	0.624499	0.619062
	C130	C	0.013395	0.384412	0.620764
	C131	C	0.996749	0.385546	0.376909
	C132	C	0.884310	0.514637	0.119391
	C133	C	0.125547	0.497996	0.121958
	C134	C	0.123058	0.514384	0.878294
	C135	C	0.881206	0.496698	0.875634
	C136	C	0.130154	0.879655	0.507428
	C137	C	0.126372	0.125760	0.492016
	C138	C	0.881116	0.129363	0.508082
	C139	C	0.884002	0.883804	0.492693
	C140	C	0.512736	0.125842	0.878299
	C141	C	0.495443	0.125440	0.121157
	C142	C	0.512520	0.885013	0.122140
	C143	C	0.495667	0.886272	0.878264
	C144	C	0.386447	0.891167	0.677405
	C145	C	0.626365	0.119807	0.679248
	C146	C	0.625598	0.889874	0.324855
	C147	C	0.380567	0.119324	0.320404
	C148	C	0.681503	0.385213	0.886686
	C149	C	0.681581	0.623441	0.113678
	C150	C	0.322565	0.628988	0.887420
	C151	C	0.329218	0.388938	0.114336
	C152	C	0.889394	0.684458	0.378818
	C153	C	0.121299	0.676534	0.616389
	C154	C	0.888969	0.330636	0.615676
	C155	C	0.121533	0.328778	0.382713
	C156	C	0.890499	0.383058	0.677212
	C157	C	0.118780	0.624470	0.678248
	C158	C	0.889757	0.629228	0.319270
	C159	C	0.120512	0.384155	0.322633
	C160	C	0.380483	0.687367	0.887584
	C161	C	0.622493	0.681587	0.114272
	C162	C	0.624225	0.326140	0.887271
	C163	C	0.386048	0.328415	0.113609
	C164	C	0.680136	0.888765	0.385597
	C165	C	0.679678	0.121467	0.618331
	C166	C	0.334833	0.888389	0.615330
	C167	C	0.325976	0.119860	0.379991
	C168	C	0.884567	0.392185	0.177210
	C169	C	0.124144	0.621136	0.177689
	C170	C	0.127280	0.391740	0.822577
	C171	C	0.877059	0.618991	0.817300
	C172	C	0.184386	0.882389	0.386455
	C173	C	0.183702	0.122161	0.612662
	C174	C	0.822795	0.128210	0.387638
	C175	C	0.830587	0.886154	0.613964
	C176	C	0.388629	0.184102	0.879503
	C177	C	0.620312	0.178737	0.118561
	C178	C	0.387201	0.833717	0.116229
	C179	C	0.620085	0.828472	0.884404
	C180	C	0.389618	0.885380	0.177983
	C181	C	0.618652	0.125103	0.179659
	C182	C	0.390329	0.130472	0.818574
	C183	C	0.619330	0.882676	0.823488
	C184	C	0.882068	0.185534	0.386895
	C185	C	0.126700	0.182398	0.612255
	C186	C	0.126228	0.824206	0.386796
	C187	C	0.888045	0.826844	0.613246
	C188	C	0.181294	0.390937	0.883438
	C189	C	0.176775	0.623019	0.116687
	C190	C	0.832219	0.389679	0.115921
	C191	C	0.823269	0.620500	0.878276
	C192	C	0.407815	0.099917	0.596813
	C193	C	0.605195	0.910276	0.601863
	C194	C	0.599145	0.099878	0.400845
	C195	C	0.408682	0.909526	0.398829
	C196	C	0.606608	0.403397	0.092251
	C197	C	0.600395	0.605356	0.908710
	C198	C	0.400751	0.609856	0.093633
	C199	C	0.404364	0.407954	0.908593
	C200	C	0.099582	0.600979	0.398816
	C201	C	0.909658	0.602522	0.595676
	C202	C	0.099766	0.407217	0.599631
	C203	C	0.910122	0.409904	0.397763
	C204	C	0.906243	0.601012	0.097175
	C205	C	0.104097	0.411552	0.100603
	C206	C	0.096891	0.600431	0.899760
	C207	C	0.906388	0.410709	0.898403
	C208	C	0.108737	0.901842	0.591714
	C209	C	0.102198	0.103354	0.408019
	C210	C	0.904922	0.106567	0.592140
	C211	C	0.905679	0.907044	0.408409
	C212	C	0.598929	0.100824	0.901456
	C213	C	0.409141	0.103208	0.098187
	C214	C	0.599515	0.906521	0.101541
	C215	C	0.409133	0.911387	0.898306
	Zn216	Zn	0.504982	0.006478	0.749136
	Zn217	Zn	0.503929	0.004871	0.249675
	Zn218	Zn	0.756367	0.504982	-0.000290
	Zn219	Zn	0.251421	0.507793	0.000192
	Zn220	Zn	0.005828	0.752370	0.499363
	Zn221	Zn	0.004401	0.257761	0.499416
	Zn222	Zn	0.003396	0.505034	0.748311
	Zn223	Zn	0.004572	0.506142	0.247660
	Zn224	Zn	0.502577	0.758909	0.001020
	Zn225	Zn	0.504245	0.252897	-0.000056
	Zn226	Zn	0.752780	0.005462	0.501052
	Zn227	Zn	0.257987	0.003340	0.499215
	N228	N	0.417442	0.970160	0.680065
	N229	N	0.594498	0.041181	0.682303
	N230	N	0.591262	0.968375	0.321383
	N231	N	0.415183	0.041141	0.317860
	N232	N	0.684197	0.418717	0.962686
	N233	N	0.682645	0.590242	0.037237
	N234	N	0.320991	0.595374	0.963790
	N235	N	0.326881	0.423505	0.038275
	N236	N	0.967090	0.682473	0.413830
	N237	N	0.043941	0.676721	0.580312
	N238	N	0.966490	0.331052	0.581554
	N239	N	0.043463	0.329680	0.415824
	N240	N	0.968994	0.415680	0.680626
	N241	N	0.039862	0.592981	0.680039
	N242	N	0.967937	0.593870	0.317430
	N243	N	0.041748	0.418158	0.318665
	N244	N	0.414342	0.689324	0.964040
	N245	N	0.587399	0.683918	0.038177
	N246	N	0.591585	0.323677	0.963473
	N247	N	0.418438	0.326060	0.037068
	N248	N	0.679349	0.966661	0.418932
	N249	N	0.680156	0.043966	0.584274
	N250	N	0.334201	0.965614	0.580043
	N251	N	0.327543	0.041949	0.414082
	N252	N	0.916083	0.470841	0.179438
	N253	N	0.093131	0.542194	0.181007
	N254	N	0.091508	0.469537	0.819596
	N255	N	0.912463	0.540847	0.815506
	N256	N	0.186934	0.916378	0.462483
	N257	N	0.183766	0.087722	0.536797
	N258	N	0.822054	0.093934	0.463862
	N259	N	0.827941	0.920738	0.537944
	N260	N	0.465659	0.181354	0.916004
	N261	N	0.542754	0.178987	0.082865
	N262	N	0.464767	0.833164	0.082223
	N263	N	0.542028	0.830356	0.917640
	N264	N	0.468654	0.916662	0.181603
	N265	N	0.540057	0.092823	0.181499
	N266	N	0.468545	0.095000	0.817743
	N267	N	0.541015	0.917638	0.819404
	N268	N	0.917449	0.186435	0.462754
	N269	N	0.091471	0.184376	0.536283
	N270	N	0.093287	0.822437	0.462961
	N271	N	0.920591	0.825365	0.536704
	N272	N	0.178744	0.468464	0.917339
	N273	N	0.177663	0.545589	0.082367
	N274	N	0.832106	0.466913	0.080369
	N275	N	0.825364	0.543283	0.913532
	O276	O	-0.005568	-0.021912	0.914940
	H277	H	-0.003321	-0.015802	0.909213
	H278	H	0.005246	-0.026982	0.907676
	O279	O	0.524638	0.417046	0.451031
	H280	H	0.526665	0.408606	0.447857
	H281	H	0.520965	0.426963	0.446835
	O282	O	1.029763	0.994521	0.045039
	H283	H	1.026958	0.994483	0.035316
	H284	H	1.029918	0.992591	0.042852
	O285	O	1.069186	-0.056369	0.985112
	H286	H	1.069589	-0.058425	0.988569
	H287	H	1.071799	-0.055704	0.984718
	O288	O	0.548396	0.615897	0.529971
	H289	H	0.549900	0.626335	0.529521
	H290	H	0.544628	0.618437	0.538444
	O291	O	0.487819	0.441542	0.476839
	H292	H	0.486190	0.445549	0.477221
	H293	H	0.490461	0.444998	0.467453
	O294	O	0.496427	0.512279	0.558555
	H295	H	0.498286	0.512294	0.554125
	H296	H	0.501755	0.518538	0.578296
	O297	O	0.025404	0.060127	0.918910
	H298	H	0.018478	0.080711	0.936704
	H299	H	0.038616	0.031097	0.930105
	O300	O	0.516946	0.530217	0.556008
	H301	H	0.518423	0.531289	0.554848
	H302	H	0.524944	0.533668	0.559115
	O303	O	0.547447	0.545343	0.597708
	H304	H	0.546275	0.542580	0.593510
	H305	H	0.548312	0.551620	0.598825
	O306	O	0.116429	1.001693	1.066004
	H307	H	0.120830	1.011833	1.075216
	H308	H	0.123221	1.012419	1.085572
	O309	O	0.501369	0.547301	0.443449
	H310	H	0.513673	0.539857	0.457214
	H311	H	0.500883	0.547615	0.431570
	O312	O	-0.074477	-0.008136	-0.190908
	H313	H	-0.058975	0.003211	-0.192486
	H314	H	-0.083558	0.000620	-0.201531
	O315	O	0.888669	-0.115266	0.031625
	H316	H	0.886890	-0.106260	0.026608
	H317	H	0.886172	-0.116096	0.036526
	O318	O	1.066375	1.070779	1.049948
	H319	H	1.051335	1.068913	1.058807
	H320	H	1.056474	1.077154	1.046274
	O321	O	-0.013462	-0.011527	1.057640
	H322	H	-0.019572	-0.024085	1.057168
	H323	H	-0.007715	-0.033021	1.051347
	O324	O	0.559133	0.531979	0.570707
	H325	H	0.573933	0.540310	0.578899
	H326	H	0.555806	0.540757	0.576481
	O327	O	0.068091	0.147038	0.108028
	H328	H	0.075461	0.161655	0.117751
	H329	H	0.056126	0.159050	0.109704
	O330	O	0.905263	1.107278	0.057591
	H331	H	0.890906	1.107745	0.039277
	H332	H	0.908308	1.097357	0.055993
	O333	O	-0.070690	1.092372	1.064008
	H334	H	-0.083049	1.092267	1.045900
	H335	H	-0.086757	1.086323	1.070733
	O336	O	0.054158	-0.087316	0.011837
	H337	H	0.059544	-0.086302	0.016818
	H338	H	0.055638	-0.084141	0.019851
	O339	O	0.541632	0.530771	0.460410
	H340	H	0.554088	0.521989	0.454752
	H341	H	0.551374	0.526145	0.469237
	O342	O	1.003604	0.941527	0.973449
	H343	H	1.011948	0.945145	0.961210
	H344	H	1.004783	0.939815	0.980173
	O345	O	0.991785	0.981790	0.104312
	H346	H	0.989151	0.988295	0.102281
	H347	H	0.983627	0.979358	0.127425
	O348	O	0.594127	0.408887	0.484582
	H349	H	0.593375	0.406178	0.490486
	H350	H	0.596783	0.411467	0.475337
	O351	O	0.862117	0.139131	-0.138340
	H352	H	0.894262	0.143176	-0.150827
	H353	H	0.859593	0.140197	-0.121249
	O354	O	0.518269	0.540642	0.476947
	H355	H	0.519984	0.538459	0.477422
	H356	H	0.521308	0.533005	0.473758
	O357	O	0.501786	0.445680	1.482510
	H358	H	0.504434	0.442344	1.481265
	H359	H	0.506843	0.452924	1.480647
	O360	O	0.038837	-0.084968	-0.025045
	H361	H	0.038328	-0.081739	-0.025877
	H362	H	0.053724	-0.091370	-0.020806
	O363	O	0.600196	0.479880	0.455266
	H364	H	0.599871	0.481913	0.459201
	H365	H	0.594494	0.471780	0.456946
	O366	O	1.052337	0.975467	0.996171
	H367	H	1.043886	0.981964	0.993476
	H368	H	1.058536	0.969249	0.993657
	O369	O	0.976486	-0.051009	1.076605
	H370	H	0.995595	-0.044472	1.080542
	H371	H	0.981390	-0.055328	1.077052
	O372	O	-0.017893	0.084697	0.015434
	H373	H	-0.035235	0.077288	0.007135
	H374	H	-0.023151	0.079346	0.001359
	O375	O	1.097717	0.062700	-0.184219
	H376	H	1.112652	0.064326	-0.184867
	H377	H	1.106771	0.057209	-0.181067
	O378	O	0.503880	0.497509	0.509810
	H379	H	0.504400	0.488164	0.507751
	H380	H	0.508207	0.495555	0.509862
	O381	O	0.426217	0.523312	0.484198
	H382	H	0.419361	0.535793	0.485722
	H383	H	0.429758	0.511054	0.484140
