data_Molecule from HDF5

_cell_length_a		16.284809
_cell_length_b		16.200402
_cell_length_c		16.268466
_cell_angle_alpha	89.888576
_cell_angle_beta	90.869088
_cell_angle_gamma	89.898179
_symmetry_space_group_name_H-M	'P 1'
_symmetry_Int_Tables_number		1

loop_
	_symmetry_equiv_pos_as_xyz
	x,y,z

loop_
	_atom_site_label
	_atom_site_type_symbol
	_atom_site_fract_x
	_atom_site_fract_y
	_atom_site_fract_z
	H0	H	0.397804	0.836898	0.715186
	H1	H	0.597515	0.164765	0.720409
	H2	H	0.591676	0.837588	0.287952
	H3	H	0.390770	0.165152	0.285527
	H4	H	0.707407	0.400556	0.839685
	H5	H	0.711339	0.600714	0.165268
	H6	H	0.272325	0.604411	0.841057
	H7	H	0.282276	0.402141	0.166836
	H8	H	0.830302	0.715206	0.400684
	H9	H	0.157102	0.713891	0.605303
	H10	H	0.828985	0.284369	0.598085
	H11	H	0.157273	0.287214	0.408808
	H12	H	0.828307	0.399855	0.715394
	H13	H	0.155429	0.599302	0.722646
	H14	H	0.830489	0.599426	0.283796
	H15	H	0.157014	0.399225	0.291129
	H16	H	0.392028	0.715311	0.838414
	H17	H	0.592306	0.713684	0.166464
	H18	H	0.589359	0.287364	0.838393
	H19	H	0.396573	0.286032	0.165692
	H20	H	0.706434	0.836531	0.404826
	H21	H	0.712147	0.164497	0.604368
	H22	H	0.281283	0.837199	0.601321
	H23	H	0.276755	0.164773	0.401120
	H24	H	0.898211	0.335126	0.213973
	H25	H	0.094300	0.663691	0.220028
	H26	H	0.090466	0.335668	0.791186
	H27	H	0.889824	0.663684	0.784524
	H28	H	0.207042	0.900630	0.338460
	H29	H	0.213049	0.099464	0.664604
	H30	H	0.775363	0.099704	0.339452
	H31	H	0.780216	0.898054	0.666231
	H32	H	0.329300	0.216831	0.899918
	H33	H	0.656290	0.215658	0.102793
	H34	H	0.329108	0.786489	0.099166
	H35	H	0.656433	0.786050	0.905923
	H36	H	0.329240	0.903191	0.213984
	H37	H	0.655437	0.102946	0.221500
	H38	H	0.331777	0.103253	0.781577
	H39	H	0.656870	0.901006	0.790570
	H40	H	0.892702	0.213693	0.337854
	H41	H	0.096041	0.214270	0.666705
	H42	H	0.091257	0.784621	0.338842
	H43	H	0.899057	0.785621	0.666398
	H44	H	0.208405	0.337528	0.904964
	H45	H	0.208132	0.665590	0.104113
	H46	H	0.780314	0.336800	0.100978
	H47	H	0.777200	0.665189	0.901356
	H48	H	0.398170	0.118043	0.585546
	H49	H	0.587392	0.885060	0.595852
	H50	H	0.580644	0.115088	0.417458
	H51	H	0.404258	0.884168	0.407493
	H52	H	0.589401	0.406317	0.119576
	H53	H	0.586419	0.598031	0.884076
	H54	H	0.415137	0.598429	0.116745
	H55	H	0.400891	0.416276	0.888528
	H56	H	0.108049	0.576978	0.404763
	H57	H	0.876892	0.595379	0.590250
	H58	H	0.108120	0.398593	0.589719
	H59	H	0.877918	0.409595	0.412557
	H60	H	0.104408	0.419493	0.596214
	H61	H	0.879351	0.589124	0.591220
	H62	H	0.115747	0.604311	0.403909
	H63	H	0.875870	0.410769	0.399670
	H64	H	0.392443	0.605699	0.125423
	H65	H	0.586962	0.589878	0.885183
	H66	H	0.589962	0.412381	0.118897
	H67	H	0.401999	0.405915	0.885747
	H68	H	0.592551	0.120026	0.412588
	H69	H	0.588255	0.884155	0.596589
	H70	H	0.401154	0.120770	0.599568
	H71	H	0.398771	0.884940	0.411622
	H72	H	0.898282	0.618269	0.090912
	H73	H	0.098428	0.381290	0.094648
	H74	H	0.080525	0.615017	0.919336
	H75	H	0.903270	0.385609	0.912898
	H76	H	0.094007	0.909510	0.619467
	H77	H	0.083653	0.095502	0.384972
	H78	H	0.901562	0.094667	0.620615
	H79	H	0.895783	0.909100	0.385981
	H80	H	0.612834	0.104066	0.910197
	H81	H	0.374354	0.100706	0.092219
	H82	H	0.611538	0.906037	0.100450
	H83	H	0.376657	0.910872	0.905882
	H84	H	0.608377	0.906968	0.092479
	H85	H	0.379061	0.091144	0.087693
	H86	H	0.605998	0.092918	0.921460
	H87	H	0.375828	0.907724	0.906722
	H88	H	0.902643	0.087704	0.618318
	H89	H	0.087160	0.092880	0.385844
	H90	H	0.086919	0.911106	0.616426
	H91	H	0.901832	0.910619	0.387602
	H92	H	0.087263	0.619022	0.910777
	H93	H	0.086790	0.381285	0.105154
	H94	H	0.902383	0.619183	0.099570
	H95	H	0.893342	0.382565	0.912068
	H96	H	0.411500	0.114972	0.590989
	H97	H	0.586725	0.884516	0.596858
	H98	H	0.582089	0.119674	0.404215
	H99	H	0.398920	0.882230	0.404834
	H100	H	0.584374	0.408999	0.117617
	H101	H	0.579887	0.594803	0.886522
	H102	H	0.395912	0.581786	0.117493
	H103	H	0.392589	0.410096	0.884331
	H104	H	0.105706	0.593365	0.428005
	H105	H	0.875962	0.592740	0.595923
	H106	H	0.113328	0.404168	0.610957
	H107	H	0.873607	0.399298	0.405245
	H108	H	0.906786	0.615803	0.091759
	H109	H	0.083238	0.387019	0.090588
	H110	H	0.076139	0.616363	0.908365
	H111	H	0.899295	0.381563	0.903816
	H112	H	0.088342	0.903443	0.619585
	H113	H	0.082863	0.091435	0.386723
	H114	H	0.908527	0.094206	0.616714
	H115	H	0.899786	0.904799	0.385426
	H116	H	0.610014	0.087617	0.905178
	H117	H	0.375333	0.091712	0.098992
	H118	H	0.607497	0.913712	0.097706
	H119	H	0.378046	0.910432	0.909259
	C120	C	0.375067	0.009563	0.621658
	C121	C	0.617735	0.992598	0.626323
	C122	C	0.613663	0.009723	0.382422
	C123	C	0.371310	0.992347	0.379533
	C124	C	0.615315	0.379767	0.010888
	C125	C	0.614624	0.622913	0.993612
	C126	C	0.370502	0.624332	0.011686
	C127	C	0.371644	0.381197	0.994140
	C128	C	0.002130	0.621159	0.381145
	C129	C	0.984756	0.621615	0.624707
	C130	C	0.000706	0.377573	0.625771
	C131	C	0.984500	0.378126	0.380657
	C132	C	0.873961	0.508972	0.122595
	C133	C	0.117446	0.491840	0.126084
	C134	C	0.111774	0.508574	0.884078
	C135	C	0.869490	0.491842	0.880059
	C136	C	0.116845	0.878220	0.510730
	C137	C	0.115375	0.121996	0.493860
	C138	C	0.872966	0.121347	0.510696
	C139	C	0.872267	0.878696	0.494166
	C140	C	0.501967	0.123978	0.880550
	C141	C	0.484280	0.123597	0.123677
	C142	C	0.501419	0.879456	0.124259
	C143	C	0.484743	0.880137	0.880632
	C144	C	0.377669	0.885996	0.677536
	C145	C	0.616807	0.115845	0.681953
	C146	C	0.611656	0.886475	0.326433
	C147	C	0.371696	0.116074	0.323940
	C148	C	0.668996	0.381342	0.888104
	C149	C	0.672392	0.620928	0.116520
	C150	C	0.311845	0.623421	0.889313
	C151	C	0.318738	0.382166	0.117542
	C152	C	0.879105	0.677081	0.380910
	C153	C	0.107907	0.676615	0.625170
	C154	C	0.877700	0.322371	0.620170
	C155	C	0.108027	0.323566	0.386482
	C156	C	0.877380	0.379631	0.678478
	C157	C	0.107056	0.619584	0.683657
	C158	C	0.879170	0.619627	0.323001
	C159	C	0.107902	0.379501	0.327898
	C160	C	0.371457	0.678337	0.887746
	C161	C	0.613186	0.677130	0.117125
	C162	C	0.610800	0.324570	0.887709
	C163	C	0.375669	0.324409	0.116988
	C164	C	0.668930	0.886030	0.384457
	C165	C	0.674444	0.115367	0.624790
	C166	C	0.319676	0.886201	0.620881
	C167	C	0.314869	0.115912	0.381194
	C168	C	0.877123	0.384779	0.176993
	C169	C	0.115042	0.615024	0.182365
	C170	C	0.110385	0.385037	0.828831
	C171	C	0.870335	0.614925	0.823290
	C172	C	0.170268	0.880052	0.387475
	C173	C	0.173922	0.119842	0.616347
	C174	C	0.814767	0.119588	0.387856
	C175	C	0.818240	0.878981	0.617336
	C176	C	0.378732	0.179402	0.880025
	C177	C	0.607248	0.178582	0.123024
	C178	C	0.378200	0.824366	0.119902
	C179	C	0.607541	0.823793	0.884875
	C180	C	0.378139	0.882356	0.177156
	C181	C	0.606776	0.122452	0.181998
	C182	C	0.379718	0.122565	0.821731
	C183	C	0.608083	0.881582	0.827768
	C184	C	0.872815	0.176535	0.387274
	C185	C	0.115563	0.176943	0.617076
	C186	C	0.112698	0.822317	0.387766
	C187	C	0.877208	0.822888	0.617434
	C188	C	0.169349	0.386041	0.885389
	C189	C	0.171483	0.615899	0.124525
	C190	C	0.818791	0.385522	0.120813
	C191	C	0.814424	0.615698	0.881426
	C192	C	0.397328	0.095519	0.598771
	C193	C	0.594245	0.906696	0.603215
	C194	C	0.591515	0.095945	0.404822
	C195	C	0.394169	0.906304	0.401613
	C196	C	0.594118	0.402496	0.096713
	C197	C	0.591264	0.600773	0.907589
	C198	C	0.394150	0.601976	0.097652
	C199	C	0.392356	0.404125	0.908416
	C200	C	0.087598	0.598153	0.405123
	C201	C	0.899401	0.599043	0.599723
	C202	C	0.086497	0.400521	0.605127
	C203	C	0.898222	0.400029	0.400015
	C204	C	0.896088	0.595286	0.100549
	C205	C	0.095823	0.405704	0.103548
	C206	C	0.088264	0.594540	0.906395
	C207	C	0.892015	0.405680	0.902963
	C208	C	0.096009	0.901257	0.596363
	C209	C	0.091473	0.099643	0.408071
	C210	C	0.897233	0.098836	0.596407
	C211	C	0.893073	0.901435	0.408595
	C212	C	0.587452	0.101353	0.905059
	C213	C	0.398453	0.100964	0.100039
	C214	C	0.586881	0.902192	0.103088
	C215	C	0.399112	0.903008	0.901136
	Zn216	Zn	0.494628	0.002068	0.752341
	Zn217	Zn	0.492463	0.002099	0.252506
	Zn218	Zn	0.743791	0.501030	0.002221
	Zn219	Zn	0.243120	0.502227	0.003755
	Zn220	Zn	-0.005809	0.750268	0.502410
	Zn221	Zn	-0.007026	0.250403	0.502476
	Zn222	Zn	-0.008551	0.500222	0.753787
	Zn223	Zn	-0.005326	0.499701	0.252137
	Zn224	Zn	0.492538	0.751460	0.002028
	Zn225	Zn	0.492859	0.252259	0.002036
	Zn226	Zn	0.743702	0.000578	0.503386
	Zn227	Zn	0.245084	0.000483	0.501202
	N228	N	0.411546	0.963758	0.678095
	N229	N	0.582616	0.038322	0.683203
	N230	N	0.578101	0.964383	0.325034
	N231	N	0.405907	0.038537	0.322660
	N232	N	0.672050	0.414996	0.965723
	N233	N	0.673245	0.587762	0.038642
	N234	N	0.311272	0.590546	0.967307
	N235	N	0.316049	0.416825	0.040219
	N236	N	0.956422	0.678346	0.416287
	N237	N	0.031038	0.677689	0.588985
	N238	N	0.955405	0.321111	0.588186
	N239	N	0.030350	0.322706	0.418569
	N240	N	0.954959	0.413283	0.682048
	N241	N	0.029410	0.586146	0.683354
	N242	N	0.956670	0.585629	0.323001
	N243	N	0.030166	0.412785	0.323984
	N244	N	0.407120	0.679286	0.964898
	N245	N	0.578193	0.678587	0.039722
	N246	N	0.577995	0.323612	0.965093
	N247	N	0.407888	0.323635	0.039354
	N248	N	0.670337	0.963673	0.418687
	N249	N	0.675091	0.037612	0.590910
	N250	N	0.318113	0.963809	0.586610
	N251	N	0.314449	0.037969	0.415214
	N252	N	0.910943	0.462592	0.178104
	N253	N	0.082168	0.536850	0.183790
	N254	N	0.075271	0.462364	0.827866
	N255	N	0.903737	0.536934	0.822285
	N256	N	0.173221	0.913909	0.464960
	N257	N	0.174046	0.086361	0.538650
	N258	N	0.814571	0.086118	0.465699
	N259	N	0.814909	0.913167	0.539849
	N260	N	0.455794	0.180492	0.915804
	N261	N	0.530065	0.179357	0.087477
	N262	N	0.455922	0.822370	0.087901
	N263	N	0.529990	0.822942	0.917084
	N264	N	0.455629	0.916151	0.179961
	N265	N	0.528991	0.089287	0.182674
	N266	N	0.457293	0.088725	0.822168
	N267	N	0.530805	0.916121	0.825017
	N268	N	0.908333	0.177653	0.464543
	N269	N	0.079786	0.178365	0.539983
	N270	N	0.080169	0.821048	0.465313
	N271	N	0.909928	0.822639	0.539968
	N272	N	0.170038	0.463878	0.918942
	N273	N	0.173027	0.538239	0.090305
	N274	N	0.816588	0.463792	0.087787
	N275	N	0.813812	0.538127	0.916136
	O276	O	-0.024696	0.072490	0.045618
	H277	H	-0.033463	0.077875	0.043664
	H278	H	-0.028669	0.059267	0.050348
	O279	O	0.462081	0.569872	0.594322
	H280	H	0.451967	0.558237	0.594573
	H281	H	0.469416	0.571436	0.595785
	O282	O	0.426098	0.533779	0.442908
	H283	H	0.425603	0.550716	0.450696
	H284	H	0.416139	0.531455	0.428739
	O285	O	0.043537	0.971242	1.079924
	H286	H	0.040456	0.968977	1.083463
	H287	H	0.034338	0.965676	1.063469
	O288	O	0.542405	0.560287	0.518884
	H289	H	0.553699	0.551615	0.524319
	H290	H	0.541895	0.563124	0.527922
	O291	O	0.943871	1.015394	0.909785
	H292	H	0.947333	1.018525	0.894165
	H293	H	0.964634	1.015137	0.922836
	O294	O	1.055643	0.964997	1.020410
	H295	H	1.058495	0.968272	1.020631
	H296	H	1.048418	0.956179	1.020678
	O297	O	0.891775	0.104626	0.959083
	H298	H	0.893770	0.102684	0.964200
	H299	H	0.894990	0.090919	0.967853
	O300	O	0.544909	0.522850	0.482864
	H301	H	0.549941	0.510952	0.486715
	H302	H	0.541428	0.526067	0.472558
	O303	O	0.962566	0.024874	-0.113275
	H304	H	0.959954	0.043974	-0.105190
	H305	H	0.949143	0.028745	-0.125425
	O306	O	-0.068786	0.934989	0.981140
	H307	H	-0.078322	0.936407	0.972857
	H308	H	-0.076293	0.928510	0.979455
	O309	O	0.514487	0.540686	0.491024
	H310	H	0.517469	0.542864	0.495854
	H311	H	0.505687	0.540134	0.487884
	O312	O	1.004095	-0.073601	1.093523
	H313	H	1.009681	-0.065737	1.089967
	H314	H	1.004964	-0.070014	1.092402
	O315	O	0.535358	0.580573	0.484210
	H316	H	0.525733	0.577960	0.496716
	H317	H	0.539451	0.587281	0.490772
	O318	O	0.522238	0.427656	0.503524
	H319	H	0.537347	0.431187	0.497858
	H320	H	0.517515	0.421886	0.499547
	O321	O	0.958808	1.063596	0.993532
	H322	H	0.969195	1.062401	1.008346
	H323	H	0.952388	1.061227	0.987183
	O324	O	0.425125	0.439588	0.524308
	H325	H	0.434102	0.444213	0.528826
	H326	H	0.427461	0.429227	0.521936
	O327	O	0.452903	0.436452	0.577234
	H328	H	0.453730	0.426219	0.579976
	H329	H	0.439017	0.435661	0.577414
	O330	O	0.949002	0.111695	0.964164
	H331	H	0.950393	0.115051	0.980985
	H332	H	0.955472	0.120071	0.958274
	O333	O	1.045681	0.968142	-0.012670
	H334	H	1.048931	0.960208	-0.021156
	H335	H	1.033110	0.967895	-0.015659
	O336	O	0.422802	0.532909	0.493280
	H337	H	0.438599	0.541931	0.498701
	H338	H	0.416733	0.524079	0.501560
	O339	O	0.503334	0.467091	0.515069
	H340	H	0.496359	0.477109	0.506380
	H341	H	0.509762	0.475768	0.514056
	O342	O	0.003372	1.036600	-0.007620
	H343	H	0.007349	1.048642	-0.005475
	H344	H	-0.005406	1.039755	-0.007346
	O345	O	-0.085766	-0.020854	-0.028177
	H346	H	-0.085549	-0.018648	-0.029120
	H347	H	-0.080386	-0.022002	-0.036036
	O348	O	0.425659	0.480784	0.506995
	H349	H	0.424034	0.478448	0.499401
	H350	H	0.426269	0.482061	0.503153
	O351	O	0.436793	0.493472	0.469476
	H352	H	0.417592	0.510155	0.464553
	H353	H	0.443448	0.491134	0.469839
	O354	O	1.078801	1.046322	0.009080
	H355	H	1.075046	1.049816	0.016916
	H356	H	1.083113	1.040034	0.006321
	O357	O	0.022859	-0.004225	1.016469
	H358	H	0.035080	-0.011069	1.023379
	H359	H	0.028216	-0.006500	1.021808
	O360	O	-0.005843	-0.051107	0.044977
	H361	H	-0.007086	-0.044423	0.039444
	H362	H	-0.016443	-0.048497	0.046333
	O363	O	0.483423	0.497821	0.418927
	H364	H	0.490273	0.500654	0.416992
	H365	H	0.475129	0.503892	0.411521
	O366	O	-0.027808	-0.085539	0.988512
	H367	H	-0.019877	-0.082150	0.986026
	H368	H	-0.034697	-0.083690	0.981729
	O369	O	1.517807	0.536477	-0.488152
	H370	H	1.526094	0.530585	-0.491577
	H371	H	1.518995	0.539929	-0.485864
