data_Molecule from HDF5

_cell_length_a		16.636272
_cell_length_b		16.616148
_cell_length_c		16.704873
_cell_angle_alpha	90.092931
_cell_angle_beta	90.134776
_cell_angle_gamma	89.911313
_symmetry_space_group_name_H-M	'P 1'
_symmetry_Int_Tables_number		1

loop_
	_symmetry_equiv_pos_as_xyz
	x,y,z

loop_
	_atom_site_label
	_atom_site_type_symbol
	_atom_site_fract_x
	_atom_site_fract_y
	_atom_site_fract_z
	H0	H	0.400374	0.859221	0.702304
	H1	H	0.615749	0.167318	0.709102
	H2	H	0.606920	0.859269	0.262381
	H3	H	0.396720	0.170155	0.259945
	H4	H	0.724517	0.409601	0.825577
	H5	H	0.720012	0.612809	0.139325
	H6	H	0.282101	0.621184	0.827291
	H7	H	0.283943	0.411823	0.135978
	H8	H	0.849731	0.733346	0.377700
	H9	H	0.160846	0.730872	0.582090
	H10	H	0.848744	0.292471	0.585698
	H11	H	0.160072	0.294170	0.378315
	H12	H	0.848480	0.408230	0.702910
	H13	H	0.159478	0.616672	0.699667
	H14	H	0.849960	0.616903	0.260560
	H15	H	0.161778	0.410222	0.263109
	H16	H	0.398975	0.736555	0.826757
	H17	H	0.604223	0.730206	0.138904
	H18	H	0.609762	0.292026	0.826546
	H19	H	0.400241	0.295695	0.136081
	H20	H	0.724417	0.859586	0.376532
	H21	H	0.730196	0.167751	0.591473
	H22	H	0.283592	0.859988	0.586011
	H23	H	0.283338	0.171146	0.378370
	H24	H	0.902480	0.357855	0.199856
	H25	H	0.106706	0.671498	0.198620
	H26	H	0.109589	0.359743	0.759214
	H27	H	0.898808	0.670343	0.762175
	H28	H	0.224451	0.910909	0.326236
	H29	H	0.225587	0.119686	0.635930
	H30	H	0.779103	0.122810	0.327761
	H31	H	0.783215	0.909178	0.634032
	H32	H	0.348667	0.234408	0.877650
	H33	H	0.660460	0.234034	0.086156
	H34	H	0.347687	0.796465	0.083119
	H35	H	0.660813	0.795214	0.879271
	H36	H	0.346992	0.913561	0.199271
	H37	H	0.659896	0.118069	0.201989
	H38	H	0.350003	0.120251	0.759519
	H39	H	0.660576	0.909862	0.761848
	H40	H	0.895625	0.237893	0.327268
	H41	H	0.110331	0.237878	0.634979
	H42	H	0.108700	0.794632	0.325628
	H43	H	0.902247	0.795323	0.635839
	H44	H	0.225863	0.360100	0.874883
	H45	H	0.221903	0.672051	0.081501
	H46	H	0.785328	0.357615	0.084559
	H47	H	0.785570	0.671210	0.880666
	H48	H	0.415896	0.126374	0.571396
	H49	H	0.593921	0.906860	0.564221
	H50	H	0.591527	0.127062	0.392181
	H51	H	0.419539	0.905737	0.392347
	H52	H	0.598873	0.427324	0.092934
	H53	H	0.597813	0.604155	0.868948
	H54	H	0.409878	0.609603	0.095892
	H55	H	0.413697	0.427336	0.869821
	H56	H	0.117317	0.603178	0.391282
	H57	H	0.890055	0.607127	0.571535
	H58	H	0.113586	0.427614	0.569725
	H59	H	0.891666	0.424485	0.387468
	H60	H	0.114575	0.427047	0.570933
	H61	H	0.891015	0.605600	0.570979
	H62	H	0.119946	0.604519	0.386444
	H63	H	0.893935	0.424839	0.395449
	H64	H	0.412174	0.598234	0.090902
	H65	H	0.593063	0.603889	0.870746
	H66	H	0.590598	0.426069	0.089903
	H67	H	0.417864	0.425333	0.870455
	H68	H	0.590929	0.125504	0.394089
	H69	H	0.596595	0.901532	0.573386
	H70	H	0.418680	0.126382	0.571559
	H71	H	0.410522	0.902794	0.395530
	H72	H	0.907749	0.627813	0.071650
	H73	H	0.098660	0.402949	0.064266
	H74	H	0.091881	0.627370	0.887627
	H75	H	0.910967	0.400025	0.888053
	H76	H	0.094733	0.924260	0.592829
	H77	H	0.092535	0.095228	0.374191
	H78	H	0.920498	0.102806	0.589171
	H79	H	0.915477	0.924564	0.368782
	H80	H	0.618037	0.104050	0.890838
	H81	H	0.395088	0.100212	0.068988
	H82	H	0.618542	0.924100	0.078263
	H83	H	0.393910	0.931237	0.889152
	H84	H	0.616819	0.919456	0.071140
	H85	H	0.391046	0.104729	0.076108
	H86	H	0.613745	0.104083	0.899797
	H87	H	0.390613	0.921602	0.888411
	H88	H	0.915551	0.102231	0.591704
	H89	H	0.086537	0.109268	0.370582
	H90	H	0.094666	0.923205	0.592971
	H91	H	0.913961	0.924191	0.368371
	H92	H	0.089107	0.623913	0.893294
	H93	H	0.098593	0.398803	0.076979
	H94	H	0.915311	0.627702	0.077668
	H95	H	0.919425	0.402604	0.888488
	H96	H	0.417096	0.124826	0.569942
	H97	H	0.586310	0.905653	0.572235
	H98	H	0.593106	0.127220	0.394137
	H99	H	0.413340	0.900836	0.385995
	H100	H	0.594794	0.419575	0.094531
	H101	H	0.595049	0.608493	0.868963
	H102	H	0.420936	0.607102	0.091032
	H103	H	0.413921	0.422646	0.868385
	H104	H	0.119452	0.608764	0.390325
	H105	H	0.889784	0.605568	0.572723
	H106	H	0.113875	0.426817	0.569520
	H107	H	0.894922	0.431305	0.389928
	H108	H	0.916237	0.624264	0.068561
	H109	H	0.088237	0.405249	0.071750
	H110	H	0.095724	0.626493	0.893967
	H111	H	0.913989	0.403081	0.895509
	H112	H	0.095624	0.924233	0.593216
	H113	H	0.101244	0.105887	0.366316
	H114	H	0.917722	0.098312	0.588470
	H115	H	0.913585	0.925484	0.369604
	H116	H	0.613640	0.096029	0.894791
	H117	H	0.392099	0.109237	0.067993
	H118	H	0.614749	0.927861	0.071890
	H119	H	0.394187	0.925010	0.897107
	C120	C	0.384703	0.022898	0.602452
	C121	C	0.626682	1.006348	0.604007
	C122	C	0.624014	0.023765	0.361155
	C123	C	0.382109	1.006303	0.360050
	C124	C	0.626473	0.392042	-0.010311
	C125	C	0.625598	0.635460	0.973168
	C126	C	0.382539	0.636844	-0.010089
	C127	C	0.382915	0.393776	0.972198
	C128	C	0.014831	0.636188	0.358571
	C129	C	0.994460	0.635807	0.602157
	C130	C	0.011542	0.393833	0.602233
	C131	C	0.996382	0.394009	0.359976
	C132	C	0.882823	0.522759	0.103186
	C133	C	0.125540	0.506189	0.101345
	C134	C	0.124627	0.523100	0.859511
	C135	C	0.882828	0.505690	0.860078
	C136	C	0.126408	0.892840	0.489965
	C137	C	0.125485	0.135966	0.472889
	C138	C	0.883099	0.135457	0.488822
	C139	C	0.883423	0.893116	0.471711
	C140	C	0.512946	0.134496	0.861411
	C141	C	0.495733	0.136368	0.103352
	C142	C	0.512543	0.893735	0.103477
	C143	C	0.496176	0.893673	0.860432
	C144	C	0.382170	0.905840	0.662119
	C145	C	0.632436	0.121540	0.667252
	C146	C	0.625498	0.906097	0.301818
	C147	C	0.379086	0.123600	0.300348
	C148	C	0.684989	0.390834	0.872441
	C149	C	0.681785	0.633622	0.091795
	C150	C	0.322700	0.639055	0.873233
	C151	C	0.323600	0.392788	0.089162
	C152	C	0.896737	0.694175	0.358165
	C153	C	0.113366	0.692492	0.601779
	C154	C	0.895236	0.332855	0.604267
	C155	C	0.113457	0.333943	0.359311
	C156	C	0.894948	0.390131	0.662569
	C157	C	0.112596	0.635887	0.660224
	C158	C	0.896922	0.636871	0.299979
	C159	C	0.114365	0.391699	0.301944
	C160	C	0.380565	0.696563	0.873348
	C161	C	0.624116	0.691759	0.091700
	C162	C	0.627977	0.332362	0.872944
	C163	C	0.381627	0.335194	0.089247
	C164	C	0.683953	0.906576	0.358614
	C165	C	0.689259	0.121695	0.608733
	C166	C	0.324161	0.906206	0.604587
	C167	C	0.322746	0.124035	0.359125
	C168	C	0.883242	0.404614	0.160536
	C169	C	0.125807	0.624538	0.159149
	C170	C	0.127363	0.406521	0.799358
	C171	C	0.880788	0.623596	0.802013
	C172	C	0.185234	0.891903	0.372971
	C173	C	0.185685	0.138451	0.589422
	C174	C	0.820489	0.139851	0.373688
	C175	C	0.824013	0.891389	0.588085
	C176	C	0.395759	0.194598	0.858928
	C177	C	0.613178	0.195137	0.105239
	C178	C	0.394455	0.835968	0.102786
	C179	C	0.613862	0.834562	0.859972
	C180	C	0.394212	0.893926	0.160449
	C181	C	0.612878	0.137486	0.162776
	C182	C	0.396225	0.137769	0.800347
	C183	C	0.613909	0.891662	0.801857
	C184	C	0.878267	0.197334	0.373547
	C185	C	0.128315	0.196920	0.588772
	C186	C	0.127624	0.834044	0.372687
	C187	C	0.882816	0.834535	0.588874
	C188	C	0.185264	0.406629	0.856882
	C189	C	0.182960	0.624763	0.101068
	C190	C	0.824967	0.404753	0.103258
	C191	C	0.824639	0.623953	0.860860
	C192	C	0.409974	0.104547	0.577807
	C193	C	0.599834	0.925649	0.577489
	C194	C	0.599073	0.105418	0.386345
	C195	C	0.407260	0.924377	0.384327
	C196	C	0.601841	0.417007	0.071380
	C197	C	0.602147	0.612284	0.890920
	C198	C	0.407216	0.611880	0.071312
	C199	C	0.407939	0.418112	0.890758
	C200	C	0.097470	0.612187	0.382361
	C201	C	0.911848	0.612737	0.578579
	C202	C	0.092764	0.419903	0.577173
	C203	C	0.914863	0.419421	0.384126
	C204	C	0.906537	0.605329	0.079524
	C205	C	0.101891	0.423683	0.077815
	C206	C	0.099264	0.604686	0.884548
	C207	C	0.907733	0.423494	0.883895
	C208	C	0.102023	0.917055	0.571739
	C209	C	0.100446	0.110668	0.391484
	C210	C	0.910177	0.108685	0.568947
	C211	C	0.907441	0.917622	0.390056
	C212	C	0.593966	0.108677	0.887644
	C213	C	0.413822	0.111683	0.078221
	C214	C	0.595137	0.917061	0.080335
	C215	C	0.414300	0.918860	0.884550
	Zn216	Zn	0.505379	0.014559	0.731833
	Zn217	Zn	0.503431	0.015396	0.232065
	Zn218	Zn	0.754635	0.513890	-0.018756
	Zn219	Zn	0.254232	0.515275	-0.019843
	Zn220	Zn	0.004905	0.764039	0.480720
	Zn221	Zn	0.003879	0.264757	0.480632
	Zn222	Zn	0.003007	0.514977	0.730696
	Zn223	Zn	0.005545	0.513828	0.230810
	Zn224	Zn	0.504032	0.765162	-0.018389
	Zn225	Zn	0.504497	0.264552	-0.018504
	Zn226	Zn	0.753893	0.014938	0.481259
	Zn227	Zn	0.254873	0.014875	0.482085
	N228	N	0.419153	0.979506	0.661057
	N229	N	0.594255	0.048580	0.664395
	N230	N	0.588887	0.980125	0.303112
	N231	N	0.415261	0.049209	0.300616
	N232	N	0.684478	0.427051	0.946301
	N233	N	0.683207	0.599807	0.016931
	N234	N	0.323612	0.602793	0.946872
	N235	N	0.324119	0.428496	0.015169
	N236	N	0.971246	0.693986	0.393720
	N237	N	0.038780	0.693019	0.566596
	N238	N	0.968867	0.334846	0.567555
	N239	N	0.039143	0.334989	0.394476
	N240	N	0.968473	0.427261	0.661557
	N241	N	0.037545	0.601684	0.661011
	N242	N	0.971711	0.601895	0.299782
	N243	N	0.040384	0.428326	0.302043
	N244	N	0.417038	0.695441	0.946957
	N245	N	0.590188	0.693678	0.016690
	N246	N	0.592373	0.333006	0.946948
	N247	N	0.417889	0.335641	0.015599
	N248	N	0.683235	0.980603	0.394867
	N249	N	0.685839	0.048935	0.569997
	N250	N	0.325530	0.980106	0.568301
	N251	N	0.324246	0.049961	0.395386
	N252	N	0.918562	0.479297	0.160733
	N253	N	0.091040	0.549638	0.159841
	N254	N	0.090367	0.480263	0.800706
	N255	N	0.916268	0.548975	0.801206
	N256	N	0.184698	0.927893	0.447076
	N257	N	0.184001	0.101141	0.516177
	N258	N	0.823217	0.102126	0.446592
	N259	N	0.824167	0.927078	0.514261
	N260	N	0.469384	0.192963	0.896166
	N261	N	0.538937	0.194962	0.069295
	N262	N	0.469221	0.835376	0.068219
	N263	N	0.539508	0.835343	0.895418
	N264	N	0.468756	0.928917	0.161092
	N265	N	0.538369	0.102070	0.162246
	N266	N	0.470334	0.101394	0.801484
	N267	N	0.539503	0.927403	0.801692
	N268	N	0.916537	0.194880	0.446215
	N269	N	0.091733	0.195659	0.515225
	N270	N	0.091807	0.834397	0.446501
	N271	N	0.918949	0.835224	0.515299
	N272	N	0.183750	0.480229	0.893632
	N273	N	0.183264	0.549962	0.066133
	N274	N	0.824424	0.479441	0.068519
	N275	N	0.825623	0.549457	0.896164
	O276	O	-0.175286	1.201603	0.152516
	H277	H	-0.149907	1.200549	0.140731
	H278	H	-0.176341	1.177699	0.138931
	O279	O	0.575738	0.724760	0.698168
	H280	H	0.576196	0.729961	0.719908
	H281	H	0.569850	0.712777	0.696619
	O282	O	0.950827	0.031170	1.145640
	H283	H	0.951428	0.022264	1.137909
	H284	H	0.937373	0.034013	1.141650
	O285	O	0.534593	0.289439	0.258135
	H286	H	0.558461	0.295098	0.254054
	H287	H	0.539631	0.265989	0.228542
	O288	O	0.387556	0.504359	0.390552
	H289	H	0.393942	0.506057	0.399646
	H290	H	0.394397	0.518675	0.388460
	O291	O	0.290507	0.338305	0.536058
	H292	H	0.282385	0.333014	0.516759
	H293	H	0.286991	0.338118	0.528564
	O294	O	1.051263	0.142178	0.991479
	H295	H	1.052049	0.146318	0.992698
	H296	H	1.052034	0.144745	1.001167
	O297	O	0.282469	0.557543	0.256034
	H298	H	0.266118	0.574957	0.238881
	H299	H	0.273956	0.576910	0.247319
	O300	O	-0.204365	0.032054	0.767043
	H301	H	-0.223030	0.053048	0.760677
	H302	H	-0.209223	0.046803	0.780015
	O303	O	0.298209	0.300558	0.699390
	H304	H	0.285703	0.297623	0.678250
	H305	H	0.335359	0.300415	0.689994
	O306	O	0.690049	0.336777	0.664750
	H307	H	0.670248	0.350479	0.653514
	H308	H	0.680750	0.353191	0.645101
	O309	O	0.464623	0.473654	0.274425
	H310	H	0.453872	0.448207	0.272822
	H311	H	0.447909	0.488440	0.283880
	O312	O	0.527417	0.729370	0.491895
	H313	H	0.516317	0.737733	0.497411
	H314	H	0.526063	0.726965	0.498324
	O315	O	0.711049	0.569269	1.393542
	H316	H	0.696771	0.556506	1.400671
	H317	H	0.712175	0.565238	1.415583
	O318	O	0.717890	0.728464	0.502777
	H319	H	0.706838	0.719119	0.521823
	H320	H	0.737358	0.742772	0.504213
	O321	O	-0.207651	0.805606	0.747382
	H322	H	-0.196560	0.824448	0.762679
	H323	H	-0.184946	0.827785	0.746370
	O324	O	1.033572	0.911905	0.145870
	H325	H	1.030250	0.918027	0.130929
	H326	H	1.033542	0.920236	0.136826
	O327	O	0.151484	0.012937	1.209482
	H328	H	0.145354	0.009502	1.212554
	H329	H	0.167037	0.009543	1.200205
	O330	O	0.466768	0.734666	0.258170
	H331	H	0.457771	0.761042	0.231143
	H332	H	0.455908	0.730150	0.270393
	O333	O	0.486293	0.394323	0.513282
	H334	H	0.470369	0.388633	0.504581
	H335	H	0.491891	0.403069	0.515219
	O336	O	0.554173	0.452072	0.710881
	H337	H	0.553308	0.441994	0.712764
	H338	H	0.564431	0.453449	0.704873
	O339	O	0.801256	-0.006403	1.000448
	H340	H	0.788364	0.010316	0.999698
	H341	H	0.792566	-0.033243	1.010593
	O342	O	0.291651	-0.275814	0.268665
	H343	H	0.259276	-0.241114	0.238379
	H344	H	0.306051	-0.276391	0.291821
	O345	O	-0.081293	0.821479	0.881044
	H346	H	-0.089337	0.830182	0.884874
	H347	H	-0.081261	0.824902	0.894018
	O348	O	0.216243	0.224134	0.192003
	H349	H	0.207313	0.209507	0.168550
	H350	H	0.210236	0.207779	0.193686
	O351	O	-0.005295	0.240659	0.949320
	H352	H	-0.009229	0.249224	0.962547
	H353	H	-0.008469	0.225032	0.950699
	O354	O	-0.113327	0.105674	1.078360
	H355	H	-0.121115	0.114597	1.067856
	H356	H	-0.099707	0.115878	1.077824
	O357	O	0.393912	0.668857	0.583464
	H358	H	0.406653	0.679617	0.586120
	H359	H	0.402888	0.662309	0.566106
	O360	O	0.738777	0.459926	0.526733
	H361	H	0.734650	0.445375	0.518113
	H362	H	0.738292	0.438300	0.533289
	O363	O	-0.146063	-0.063669	0.020599
	H364	H	-0.147640	-0.062592	0.028257
	H365	H	-0.142143	-0.075629	0.017370
	O366	O	0.357797	0.482927	0.489835
	H367	H	0.361873	0.472434	0.497012
	H368	H	0.355309	0.484185	0.479687
	O369	O	0.716715	0.291870	0.267748
	H370	H	0.723919	0.326090	0.264940
	H371	H	0.732956	0.274474	0.245680
	O372	O	1.145164	1.234154	-0.044753
	H373	H	1.117163	1.229499	-0.037510
	H374	H	1.156034	1.229750	-0.057539
	O375	O	0.963883	-0.200946	0.197182
	H376	H	0.981950	-0.207246	0.185833
	H377	H	0.975399	-0.217806	0.201946
	O378	O	0.315865	0.323972	0.319945
	H379	H	0.319951	0.328490	0.334193
	H380	H	0.298636	0.305262	0.309340
	O381	O	-0.219759	1.236093	0.946971
	H382	H	-0.242371	1.253646	0.941564
	H383	H	-0.222091	1.239037	0.920227
	O384	O	1.160174	-0.124367	1.034260
	H385	H	1.165329	-0.109496	1.019807
	H386	H	1.168866	-0.129549	1.005263
	O387	O	1.222861	0.795490	-0.045459
	H388	H	1.250373	0.783816	-0.052592
	H389	H	1.219330	0.801173	-0.075360
	O390	O	0.555824	0.560259	0.531668
	H391	H	0.564754	0.562239	0.540206
	H392	H	0.562801	0.546543	0.537311
	O393	O	0.724065	0.292550	0.459397
	H394	H	0.719765	0.291287	0.428844
	H395	H	0.739106	0.270050	0.438685
	O396	O	0.311962	0.705878	0.672361
	H397	H	0.317624	0.675976	0.657939
	H398	H	0.325231	0.700202	0.663676
	O399	O	0.223417	-0.020880	0.763358
	H400	H	0.234511	-0.044715	0.755604
	H401	H	0.240073	-0.041280	0.748596
	O402	O	0.433193	0.549407	0.369646
	H403	H	0.434894	0.549740	0.366881
	H404	H	0.432630	0.541196	0.367716
	O405	O	0.797037	-0.780634	1.775578
	H406	H	0.786763	-0.772522	1.755516
	H407	H	0.819791	-0.769240	1.768657
	O408	O	0.186923	0.004258	0.153628
	H409	H	0.181262	-0.007139	0.139647
	H410	H	0.180177	0.004901	0.151376
	O411	O	0.669107	0.674488	0.646762
	H412	H	0.634934	0.680486	0.645272
	H413	H	0.695429	0.707149	0.672816
	O414	O	1.017992	-0.152459	0.943098
	H415	H	1.020841	-0.145081	0.940932
	H416	H	1.012499	-0.154900	0.948024
	O417	O	0.565906	0.618368	0.327074
	H418	H	0.559617	0.627723	0.336654
	H419	H	0.546982	0.613473	0.338157
	O420	O	0.477200	0.648085	0.466533
	H421	H	0.466663	0.661440	0.464032
	H422	H	0.471644	0.645203	0.481342
	O423	O	-0.216461	-0.201733	1.196351
	H424	H	-0.168238	-0.198579	1.202435
	H425	H	-0.240857	-0.233466	1.231200
	O426	O	0.339180	0.393899	0.415861
	H427	H	0.338443	0.387060	0.406459
	H428	H	0.344633	0.420623	0.408075
	O429	O	0.775270	0.789636	1.023807
	H430	H	0.781385	0.796894	1.073478
	H431	H	0.741365	0.756706	1.025834
	O432	O	0.475380	0.295551	0.703882
	H433	H	0.483260	0.294146	0.682502
	H434	H	0.482175	0.270708	0.721908
	O435	O	-0.027656	0.979954	-0.253889
	H436	H	-0.023874	0.993205	-0.252705
	H437	H	-0.041385	0.992179	-0.254532
	O438	O	0.042747	-0.019829	-0.067422
	H439	H	0.055143	-0.009671	-0.085269
	H440	H	0.042752	-0.022735	-0.068976
	O441	O	0.039790	0.234468	0.205291
	H442	H	0.039372	0.234166	0.225630
	H443	H	0.052222	0.237766	0.215695
	O444	O	0.454866	0.583706	0.712262
	H445	H	0.470678	0.560535	0.704239
	H446	H	0.439734	0.581760	0.716547
	O447	O	-0.208875	0.982349	1.203121
	H448	H	-0.235088	0.968216	1.228497
	H449	H	-0.202742	0.958211	1.190895
	O450	O	0.048036	1.051536	0.753127
	H451	H	0.045426	1.071496	0.750610
	H452	H	0.067083	1.040117	0.752892
	O453	O	0.486853	0.335525	0.424138
	H454	H	0.478812	0.345504	0.416483
	H455	H	0.488471	0.331752	0.412359
	O456	O	0.183043	0.166895	1.037744
	H457	H	0.202902	0.181163	1.025331
	H458	H	0.162222	0.178004	1.030350
	O459	O	0.293038	0.736562	0.442069
	H460	H	0.280472	0.740595	0.435206
	H461	H	0.285773	0.738737	0.440960
	O462	O	1.015966	0.072676	1.033620
	H463	H	1.016355	0.061113	1.045193
	H464	H	1.003582	0.074366	1.041623
	O465	O	1.191914	-0.173089	0.172706
	H466	H	1.173921	-0.154465	0.157729
	H467	H	1.173678	-0.152600	0.152869
	O468	O	0.685241	0.707577	0.296012
	H469	H	0.668420	0.696053	0.318888
	H470	H	0.676103	0.685861	0.313658
	O471	O	0.282999	0.486097	0.703040
	H472	H	0.276747	0.480627	0.699537
	H473	H	0.270276	0.460195	0.721858
	O474	O	0.043045	0.792797	-0.241457
	H475	H	0.016503	0.808028	-0.231848
	H476	H	0.032579	0.768011	-0.262757
	O477	O	0.715921	0.533708	1.692220
	H478	H	0.732975	0.548736	1.707540
	H479	H	0.723667	0.556260	1.687300
	O480	O	0.723445	0.462541	0.264601
	H481	H	0.716645	0.484132	0.267804
	H482	H	0.725942	0.474966	0.244927
	O483	O	0.561826	0.279819	0.553499
	H484	H	0.545684	0.282709	0.539578
	H485	H	0.581615	0.273336	0.532890
	O486	O	1.209667	-0.192989	0.771727
	H487	H	1.166964	-0.201528	0.776377
	H488	H	1.222710	-0.220905	0.742201
	O489	O	0.865612	1.063373	-0.099832
	H490	H	0.881150	1.062178	-0.093200
	H491	H	0.854960	1.071487	-0.106786
	O492	O	0.186368	0.198792	-0.205698
	H493	H	0.209684	0.211898	-0.214845
	H494	H	0.169094	0.190028	-0.186593
	O495	O	-0.032812	1.231956	0.759534
	H496	H	-0.026394	1.240389	0.762723
	H497	H	-0.026252	1.243389	0.747400
	O498	O	1.225412	1.038781	0.940941
	H499	H	1.224634	1.035171	0.937621
	H500	H	1.223558	1.038701	0.926137
	O501	O	0.580121	0.523606	0.496078
	H502	H	0.584659	0.530290	0.488981
	H503	H	0.584305	0.528291	0.489206
