data_Molecule from HDF5

_cell_length_a		16.356839
_cell_length_b		16.583135
_cell_length_c		16.326865
_cell_angle_alpha	90.209544
_cell_angle_beta	90.019677
_cell_angle_gamma	90.178190
_symmetry_space_group_name_H-M	'P 1'
_symmetry_Int_Tables_number		1

loop_
	_symmetry_equiv_pos_as_xyz
	x,y,z

loop_
	_atom_site_label
	_atom_site_type_symbol
	_atom_site_fract_x
	_atom_site_fract_y
	_atom_site_fract_z
	H0	H	0.391107	0.832932	0.728144
	H1	H	0.605393	0.147064	0.734659
	H2	H	0.606509	0.836832	0.281566
	H3	H	0.388523	0.146457	0.282522
	H4	H	0.715168	0.387489	0.847445
	H5	H	0.719813	0.597653	0.167468
	H6	H	0.274211	0.597643	0.850254
	H7	H	0.274321	0.384955	0.166752
	H8	H	0.840520	0.718305	0.394892
	H9	H	0.154009	0.717613	0.616267
	H10	H	0.841194	0.265480	0.619859
	H11	H	0.155283	0.271207	0.400308
	H12	H	0.836510	0.388831	0.726226
	H13	H	0.155727	0.597949	0.728097
	H14	H	0.837091	0.594949	0.286995
	H15	H	0.155674	0.389245	0.286952
	H16	H	0.388021	0.715022	0.851345
	H17	H	0.608309	0.716851	0.165547
	H18	H	0.603035	0.268879	0.849101
	H19	H	0.385947	0.266126	0.164923
	H20	H	0.723108	0.836589	0.397673
	H21	H	0.721886	0.148155	0.617967
	H22	H	0.272088	0.835817	0.614736
	H23	H	0.274618	0.148281	0.400553
	H24	H	0.891471	0.332998	0.227366
	H25	H	0.101648	0.649133	0.229703
	H26	H	0.097936	0.333841	0.786730
	H27	H	0.890019	0.649900	0.786693
	H28	H	0.217489	0.889491	0.347442
	H29	H	0.215551	0.094881	0.668246
	H30	H	0.773839	0.099851	0.349665
	H31	H	0.778595	0.889224	0.667708
	H32	H	0.338033	0.209532	0.903336
	H33	H	0.655086	0.216387	0.116857
	H34	H	0.339248	0.769229	0.115613
	H35	H	0.654952	0.767063	0.900108
	H36	H	0.337626	0.888969	0.226682
	H37	H	0.656324	0.098569	0.231031
	H38	H	0.336301	0.088919	0.791524
	H39	H	0.657086	0.885714	0.788626
	H40	H	0.889011	0.215827	0.349552
	H41	H	0.101112	0.211895	0.668296
	H42	H	0.105913	0.769934	0.348708
	H43	H	0.887409	0.768159	0.663637
	H44	H	0.215537	0.333744	0.902534
	H45	H	0.220473	0.647964	0.115439
	H46	H	0.775934	0.332556	0.111118
	H47	H	0.772617	0.648448	0.902501
	H48	H	0.407680	0.103605	0.600224
	H49	H	0.591447	0.877441	0.598022
	H50	H	0.582102	0.101424	0.421609
	H51	H	0.407217	0.879137	0.418391
	H52	H	0.582533	0.406856	0.119831
	H53	H	0.586192	0.583182	0.892786
	H54	H	0.409903	0.586170	0.124285
	H55	H	0.402222	0.401248	0.891867
	H56	H	0.109274	0.583669	0.421013
	H57	H	0.884396	0.578443	0.593427
	H58	H	0.111917	0.402697	0.600784
	H59	H	0.886665	0.407766	0.425696
	H60	H	0.111160	0.399326	0.593386
	H61	H	0.882655	0.582213	0.595529
	H62	H	0.109179	0.579826	0.419892
	H63	H	0.880840	0.404151	0.411495
	H64	H	0.405210	0.575741	0.121897
	H65	H	0.586315	0.574011	0.895998
	H66	H	0.581100	0.399301	0.121230
	H67	H	0.411318	0.407403	0.898145
	H68	H	0.583850	0.101072	0.424554
	H69	H	0.585307	0.879609	0.599987
	H70	H	0.408748	0.103557	0.601204
	H71	H	0.409519	0.880457	0.418970
	H72	H	0.911221	0.602717	0.101468
	H73	H	0.088935	0.378485	0.096799
	H74	H	0.088184	0.608425	0.906795
	H75	H	0.903189	0.377953	0.913392
	H76	H	0.087633	0.901506	0.622452
	H77	H	0.085100	0.084705	0.393581
	H78	H	0.904896	0.082734	0.622979
	H79	H	0.921670	0.910731	0.399774
	H80	H	0.613176	0.076015	0.911639
	H81	H	0.383420	0.083842	0.093812
	H82	H	0.610309	0.905169	0.094912
	H83	H	0.382802	0.900966	0.917481
	H84	H	0.610714	0.902262	0.094000
	H85	H	0.386181	0.077682	0.091970
	H86	H	0.613620	0.092309	0.923211
	H87	H	0.382018	0.897634	0.918789
	H88	H	0.912670	0.074124	0.617538
	H89	H	0.088664	0.083914	0.391923
	H90	H	0.084405	0.909164	0.620036
	H91	H	0.912343	0.892912	0.390236
	H92	H	0.074179	0.598831	0.922413
	H93	H	0.083642	0.379313	0.099106
	H94	H	0.911671	0.599900	0.090997
	H95	H	0.911666	0.381825	0.915899
	H96	H	0.408770	0.104453	0.599945
	H97	H	0.587218	0.880413	0.593732
	H98	H	0.585927	0.101941	0.421609
	H99	H	0.407438	0.880932	0.420877
	H100	H	0.588696	0.402442	0.123002
	H101	H	0.578331	0.579491	0.898049
	H102	H	0.416347	0.577698	0.118680
	H103	H	0.413625	0.395687	0.893762
	H104	H	0.110791	0.582703	0.417565
	H105	H	0.884133	0.582298	0.591063
	H106	H	0.108927	0.406508	0.594655
	H107	H	0.881320	0.393201	0.422748
	H108	H	0.902243	0.604514	0.094671
	H109	H	0.084710	0.380572	0.094336
	H110	H	0.095626	0.604459	0.928042
	H111	H	0.904504	0.380945	0.922579
	H112	H	0.079563	0.902089	0.619614
	H113	H	0.086566	0.081600	0.393349
	H114	H	0.917131	0.086051	0.619613
	H115	H	0.900411	0.911177	0.392542
	H116	H	0.606858	0.074942	0.930234
	H117	H	0.384527	0.078599	0.098493
	H118	H	0.609566	0.904058	0.091688
	H119	H	0.384087	0.899932	0.921361
	C120	C	0.375630	-0.000490	0.630813
	C121	C	0.620693	0.982833	0.631582
	C122	C	0.618710	-0.000276	0.386896
	C123	C	0.375957	0.983530	0.386622
	C124	C	0.616790	0.370387	0.016302
	C125	C	0.618100	0.612218	1.000143
	C126	C	0.376535	0.612336	0.017233
	C127	C	0.375378	0.369275	0.999308
	C128	C	0.005268	0.613833	0.385484
	C129	C	0.988296	0.614233	0.627409
	C130	C	0.005585	0.370852	0.628899
	C131	C	0.988089	0.370836	0.387159
	C132	C	0.875008	0.498817	0.128376
	C133	C	0.118772	0.483089	0.130101
	C134	C	0.117838	0.500060	0.886212
	C135	C	0.873392	0.483536	0.884790
	C136	C	0.117313	0.872083	0.515689
	C137	C	0.118867	0.114568	0.498851
	C138	C	0.876554	0.114417	0.516102
	C139	C	0.877334	0.871849	0.498619
	C140	C	0.505858	0.111399	0.888461
	C141	C	0.488923	0.113660	0.129438
	C142	C	0.505615	0.871155	0.127588
	C143	C	0.488115	0.867678	0.887005
	C144	C	0.373021	0.880930	0.689342
	C145	C	0.623457	0.099970	0.694028
	C146	C	0.623412	0.883207	0.322938
	C147	C	0.371797	0.100440	0.324188
	C148	C	0.676363	0.368473	0.895754
	C149	C	0.679968	0.615653	0.119358
	C150	C	0.314857	0.615154	0.897937
	C151	C	0.314104	0.366781	0.118680
	C152	C	0.887006	0.675922	0.379753
	C153	C	0.106665	0.676207	0.632819
	C154	C	0.887588	0.308054	0.634727
	C155	C	0.107774	0.311462	0.383128
	C156	C	0.885311	0.369423	0.688033
	C157	C	0.107662	0.616793	0.688712
	C158	C	0.885273	0.614902	0.325483
	C159	C	0.108042	0.369934	0.326504
	C160	C	0.371379	0.673986	0.898671
	C161	C	0.624474	0.675114	0.118458
	C162	C	0.620419	0.309304	0.896625
	C163	C	0.369798	0.307582	0.117858
	C164	C	0.681590	0.883276	0.380987
	C165	C	0.681339	0.100762	0.635423
	C166	C	0.313197	0.882570	0.633117
	C167	C	0.314901	0.101040	0.383068
	C168	C	0.873160	0.380416	0.187885
	C169	C	0.120645	0.601573	0.190301
	C170	C	0.117902	0.381380	0.826217
	C171	C	0.871182	0.602126	0.825717
	C172	C	0.177891	0.870572	0.395493
	C173	C	0.177072	0.114654	0.619871
	C174	C	0.814406	0.117340	0.397275
	C175	C	0.817090	0.869725	0.618706
	C176	C	0.385681	0.169664	0.885460
	C177	C	0.607536	0.175855	0.134363
	C178	C	0.386488	0.810041	0.132308
	C179	C	0.607391	0.807084	0.882731
	C180	C	0.385746	0.869583	0.187662
	C181	C	0.608487	0.116813	0.190780
	C182	C	0.384709	0.109690	0.830031
	C183	C	0.608855	0.866832	0.827754
	C184	C	0.871483	0.175587	0.397405
	C185	C	0.120152	0.172924	0.619857
	C186	C	0.122211	0.811060	0.396013
	C187	C	0.871681	0.809501	0.616865
	C188	C	0.176194	0.381258	0.884293
	C189	C	0.179626	0.601113	0.133181
	C190	C	0.815442	0.380103	0.129731
	C191	C	0.812870	0.601358	0.883605
	C192	C	0.401048	0.082155	0.607251
	C193	C	0.595293	0.900709	0.604859
	C194	C	0.591667	0.080615	0.414664
	C195	C	0.401099	0.901776	0.412114
	C196	C	0.591456	0.395562	0.099707
	C197	C	0.591254	0.586426	0.917226
	C198	C	0.402969	0.587085	0.100066
	C199	C	0.401675	0.394276	0.916261
	C200	C	0.088045	0.589104	0.412013
	C201	C	0.905375	0.588350	0.600838
	C202	C	0.088973	0.395804	0.603380
	C203	C	0.904790	0.394747	0.412724
	C204	C	0.900819	0.581226	0.103063
	C205	C	0.093055	0.400871	0.104332
	C206	C	0.093212	0.582447	0.911696
	C207	C	0.899144	0.401480	0.909926
	C208	C	0.091362	0.897075	0.598891
	C209	C	0.094044	0.090534	0.414825
	C210	C	0.903766	0.088462	0.598657
	C211	C	0.903721	0.897476	0.415615
	C212	C	0.589461	0.087806	0.914243
	C213	C	0.406234	0.087517	0.102694
	C214	C	0.588566	0.896509	0.101117
	C215	C	0.404728	0.892207	0.911956
	Zn216	Zn	0.497454	-0.010540	0.760331
	Zn217	Zn	0.497388	-0.008517	0.257182
	Zn218	Zn	0.745316	0.490735	0.007943
	Zn219	Zn	0.247937	0.491147	0.008132
	Zn220	Zn	-0.003014	0.742556	0.506144
	Zn221	Zn	-0.002180	0.242460	0.507748
	Zn222	Zn	-0.003967	0.492934	0.756164
	Zn223	Zn	-0.003900	0.490922	0.258204
	Zn224	Zn	0.497671	0.740794	0.009229
	Zn225	Zn	0.496619	0.241537	0.008144
	Zn226	Zn	0.748776	-0.007813	0.507757
	Zn227	Zn	0.246452	-0.007897	0.507979
	N228	N	0.411335	0.954798	0.687972
	N229	N	0.586624	0.025298	0.691902
	N230	N	0.585022	0.956693	0.326658
	N231	N	0.409254	0.026526	0.326398
	N232	N	0.674116	0.405980	0.970948
	N233	N	0.676078	0.577286	0.044637
	N234	N	0.317951	0.577425	0.972621
	N235	N	0.317511	0.404666	0.044007
	N236	N	0.962693	0.675272	0.416369
	N237	N	0.031251	0.675001	0.595715
	N238	N	0.963248	0.309124	0.598156
	N239	N	0.032228	0.311527	0.419979
	N240	N	0.959729	0.407907	0.684672
	N241	N	0.032740	0.578990	0.685643
	N242	N	0.959720	0.576923	0.328960
	N243	N	0.032748	0.406156	0.329073
	N244	N	0.409241	0.672216	0.973762
	N245	N	0.586759	0.673284	0.043225
	N246	N	0.584110	0.310495	0.972556
	N247	N	0.407479	0.309205	0.042646
	N248	N	0.678800	0.956675	0.420129
	N249	N	0.679713	0.026787	0.597265
	N250	N	0.314721	0.957304	0.597289
	N251	N	0.317431	0.027617	0.421610
	N252	N	0.909413	0.455399	0.187180
	N253	N	0.083513	0.527179	0.188381
	N254	N	0.082482	0.456325	0.827024
	N255	N	0.907977	0.527847	0.826400
	N256	N	0.175080	0.907738	0.470787
	N257	N	0.176711	0.079517	0.543564
	N258	N	0.817368	0.080052	0.472254
	N259	N	0.820214	0.907597	0.544004
	N260	N	0.462078	0.170923	0.920713
	N261	N	0.532141	0.174041	0.097224
	N262	N	0.462232	0.810775	0.095774
	N263	N	0.531492	0.807309	0.918777
	N264	N	0.460803	0.906896	0.184895
	N265	N	0.533547	0.079025	0.188056
	N266	N	0.460757	0.074658	0.831276
	N267	N	0.533684	0.903715	0.830063
	N268	N	0.909123	0.174073	0.472475
	N269	N	0.085061	0.173322	0.543250
	N270	N	0.085185	0.811869	0.471617
	N271	N	0.908163	0.810608	0.541003
	N272	N	0.176189	0.456187	0.920832
	N273	N	0.178718	0.526343	0.096611
	N274	N	0.816549	0.454847	0.093591
	N275	N	0.814003	0.526511	0.919493
	O276	O	0.575722	0.561202	0.434421
	H277	H	0.556976	0.570693	0.426078
	H278	H	0.583573	0.572912	0.454182
	O279	O	0.383646	0.506950	0.568036
	H280	H	0.378621	0.489299	0.561501
	H281	H	0.393477	0.518403	0.566940
	O282	O	0.492028	0.314445	0.691444
	H283	H	0.494115	0.294572	0.700311
	H284	H	0.508530	0.297723	0.670230
	O285	O	1.188640	1.277493	0.226942
	H286	H	1.156967	1.278840	0.228680
	H287	H	1.190172	1.275570	0.226341
	O288	O	0.577607	0.444232	0.667887
	H289	H	0.566501	0.437709	0.654765
	H290	H	0.558519	0.437480	0.672044
	O291	O	0.445331	0.625361	0.723266
	H292	H	0.417030	0.594205	0.737941
	H293	H	0.448234	0.630189	0.751893
	O294	O	1.132571	1.026887	0.851950
	H295	H	1.131966	1.030185	0.866367
	H296	H	1.154852	1.032618	0.840871
	O297	O	0.314391	0.686139	0.383800
	H298	H	0.307457	0.663691	0.385570
	H299	H	0.304830	0.683033	0.403905
	O300	O	0.445318	0.447564	0.470364
	H301	H	0.444706	0.451840	0.464703
	H302	H	0.453359	0.452398	0.461344
	O303	O	0.524439	0.487416	0.464466
	H304	H	0.515488	0.480918	0.466780
	H305	H	0.519728	0.498732	0.477024
	O306	O	0.185238	-0.088146	0.909770
	H307	H	0.182532	-0.081238	0.904593
	H308	H	0.173319	-0.093975	0.910349
	O309	O	0.850432	0.109593	-0.118447
	H310	H	0.839164	0.103325	-0.119485
	H311	H	0.860980	0.120975	-0.109520
	O312	O	0.713404	0.273154	0.493316
	H313	H	0.724674	0.275521	0.473891
	H314	H	0.739003	0.272506	0.498375
	O315	O	0.474653	0.523152	0.645064
	H316	H	0.471796	0.505341	0.640854
	H317	H	0.447355	0.519599	0.629916
	O318	O	-0.150487	0.067434	0.047170
	H319	H	-0.154815	0.048184	0.057209
	H320	H	-0.141431	0.053372	0.051546
	O321	O	0.656018	0.324268	0.345119
	H322	H	0.675315	0.371501	0.328136
	H323	H	0.648555	0.329881	0.389041
	O324	O	0.523439	0.699259	0.474738
	H325	H	0.534810	0.694768	0.492209
	H326	H	0.541068	0.706271	0.469135
	O327	O	0.558629	0.368862	0.489851
	H328	H	0.557907	0.363674	0.469975
	H329	H	0.556287	0.386812	0.496883
	O330	O	-0.060588	1.092685	0.905721
	H331	H	-0.039817	1.092637	0.906245
	H332	H	-0.068285	1.087309	0.927468
	O333	O	-0.031899	1.127905	-0.039342
	H334	H	-0.033206	1.124282	-0.039422
	H335	H	-0.039942	1.124619	-0.029789
	O336	O	1.138464	0.863019	0.119364
	H337	H	1.154315	0.857787	0.123983
	H338	H	1.137410	0.867566	0.087224
	O339	O	0.123114	0.889130	0.873358
	H340	H	0.117752	0.891565	0.870279
	H341	H	0.139488	0.898685	0.872667
	O342	O	0.164106	1.026138	0.051849
	H343	H	0.157010	1.021652	0.053539
	H344	H	0.158408	1.038917	0.052740
	O345	O	-0.088986	0.108890	1.064962
	H346	H	-0.089410	0.102662	1.057410
	H347	H	-0.085174	0.111914	1.060944
	O348	O	0.711440	0.709512	0.521822
	H349	H	0.719475	0.720602	0.547424
	H350	H	0.722156	0.720462	0.555173
	O351	O	1.197493	1.048849	0.049712
	H352	H	1.194550	1.042878	0.048196
	H353	H	1.215622	1.065462	0.068208
	O354	O	1.038955	0.807632	0.863973
	H355	H	1.027851	0.802962	0.842659
	H356	H	1.027547	0.818913	0.852163
	O357	O	0.038407	-0.025556	-0.097752
	H358	H	0.022032	-0.014763	-0.088868
	H359	H	0.043011	-0.013726	-0.094767
	O360	O	0.640232	0.444971	0.484777
	H361	H	0.637121	0.445078	0.495327
	H362	H	0.638229	0.465285	0.473986
	O363	O	1.049480	-0.179583	-0.036996
	H364	H	1.057543	-0.177356	-0.048457
	H365	H	1.063024	-0.185163	-0.045708
	O366	O	-0.145856	0.016244	0.900053
	H367	H	-0.132192	0.036597	0.913277
	H368	H	-0.146233	0.029401	0.892827
	O369	O	0.920601	-0.001532	1.160561
	H370	H	0.939806	-0.015713	1.152578
	H371	H	0.892037	-0.005516	1.171287
	O372	O	0.511647	0.271835	0.292269
	H373	H	0.522847	0.240375	0.255368
	H374	H	0.558557	0.288956	0.306852
	O375	O	0.391205	-0.449282	0.666891
	H376	H	0.386332	-0.464007	0.657282
	H377	H	0.369426	-0.461582	0.662918
	O378	O	0.554164	0.471047	0.518528
	H379	H	0.564625	0.472722	0.498550
	H380	H	0.557932	0.484618	0.509612
	O381	O	-0.038639	0.846921	0.093432
	H382	H	-0.033542	0.842947	0.095663
	H383	H	-0.036942	0.839631	0.088840
	O384	O	0.410876	0.705156	0.575177
	H385	H	0.398938	0.723140	0.591563
	H386	H	0.428708	0.707969	0.581794
	O387	O	0.321708	0.298435	0.705786
	H388	H	0.362228	0.293518	0.710792
	H389	H	0.315503	0.290252	0.661041
	O390	O	0.803322	0.885943	0.198350
	H391	H	0.804987	0.863197	0.197872
	H392	H	0.811473	0.869215	0.188559
	O393	O	1.290247	0.527376	0.487971
	H394	H	1.287556	0.523809	0.477200
	H395	H	1.287277	0.533972	0.498202
	O396	O	0.702364	0.520517	0.712607
	H397	H	0.680828	0.496226	0.717070
	H398	H	0.714704	0.508025	0.739058
	O399	O	0.421052	0.699478	0.300053
	H400	H	0.402936	0.714582	0.287178
	H401	H	0.415459	0.703239	0.304497
	O402	O	1.059847	0.969455	0.128107
	H403	H	1.056431	0.963375	0.127525
	H404	H	1.064065	0.969958	0.127528
	O405	O	0.695734	0.471548	0.297248
	H406	H	0.696667	0.496707	0.307068
	H407	H	0.714409	0.486521	0.284695
	O408	O	0.289480	0.519487	0.300652
	H409	H	0.315652	0.508708	0.298135
	H410	H	0.265325	0.519930	0.274676
	O411	O	1.109723	1.069010	1.000449
	H412	H	1.094226	1.071917	1.007565
	H413	H	1.115085	1.067140	1.007735
	O414	O	0.454038	0.523675	0.311973
	H415	H	0.478750	0.505501	0.308575
	H416	H	0.474348	0.538026	0.308706
	O417	O	-0.144452	1.064084	0.817953
	H418	H	-0.167486	1.056368	0.803648
	H419	H	-0.142651	1.076921	0.822562
	O420	O	-0.074763	0.785855	1.119474
	H421	H	-0.056449	0.783671	1.102732
	H422	H	-0.074464	0.773158	1.133519
	O423	O	-0.189190	0.817148	0.026321
	H424	H	-0.184220	0.806389	0.023652
	H425	H	-0.194373	0.822610	0.010784
	O426	O	0.345198	0.462620	0.649581
	H427	H	0.338550	0.446536	0.634908
	H428	H	0.328934	0.458412	0.663677
	O429	O	0.680505	0.679573	0.681979
	H430	H	0.632140	0.691691	0.697745
	H431	H	0.690250	0.627006	0.693527
	O432	O	0.288234	0.282472	0.557017
	H433	H	0.308480	0.292222	0.528249
	H434	H	0.258317	0.245319	0.553659
	O435	O	-0.074522	0.159312	0.009125
	H436	H	-0.088776	0.144068	0.011716
	H437	H	-0.081646	0.173820	-0.006942
	O438	O	0.026028	1.051991	1.181189
	H439	H	0.019995	1.033460	1.171586
	H440	H	0.027749	1.058677	1.189171
	O441	O	0.415717	0.313368	0.463926
	H442	H	0.452643	0.322350	0.454091
	H443	H	0.411846	0.316393	0.451849
