data_Molecule from HDF5

_cell_length_a		16.342021
_cell_length_b		16.287527
_cell_length_c		16.317718
_cell_angle_alpha	89.957110
_cell_angle_beta	89.930638
_cell_angle_gamma	89.884762
_symmetry_space_group_name_H-M	'P 1'
_symmetry_Int_Tables_number		1

loop_
	_symmetry_equiv_pos_as_xyz
	x,y,z

loop_
	_atom_site_label
	_atom_site_type_symbol
	_atom_site_fract_x
	_atom_site_fract_y
	_atom_site_fract_z
	H0	H	0.408235	0.841644	0.707709
	H1	H	0.603315	0.169468	0.708794
	H2	H	0.604107	0.841854	0.278724
	H3	H	0.407805	0.169652	0.280506
	H4	H	0.720205	0.408037	0.830426
	H5	H	0.719086	0.602686	0.158396
	H6	H	0.291260	0.604340	0.831244
	H7	H	0.291170	0.407090	0.157056
	H8	H	0.842454	0.720529	0.396877
	H9	H	0.168993	0.719344	0.591471
	H10	H	0.841814	0.290966	0.593955
	H11	H	0.168743	0.291022	0.397556
	H12	H	0.842169	0.408550	0.709463
	H13	H	0.169185	0.603547	0.707861
	H14	H	0.842741	0.604690	0.280476
	H15	H	0.169041	0.407476	0.281105
	H16	H	0.409347	0.719007	0.830387
	H17	H	0.602672	0.718700	0.157765
	H18	H	0.602890	0.292830	0.829890
	H19	H	0.408842	0.292115	0.157472
	H20	H	0.719917	0.841694	0.395794
	H21	H	0.718911	0.169575	0.591805
	H22	H	0.291814	0.842081	0.591928
	H23	H	0.291463	0.170146	0.397030
	H24	H	0.908196	0.342623	0.209868
	H25	H	0.104394	0.669535	0.208360
	H26	H	0.103007	0.341605	0.780683
	H27	H	0.907543	0.670336	0.780413
	H28	H	0.219752	0.908164	0.331496
	H29	H	0.218833	0.103198	0.658468
	H30	H	0.789897	0.106264	0.331082
	H31	H	0.791175	0.908009	0.657867
	H32	H	0.342593	0.221137	0.895267
	H33	H	0.669243	0.218377	0.091137
	H34	H	0.342445	0.790240	0.093117
	H35	H	0.668819	0.790403	0.895484
	H36	H	0.342054	0.907283	0.209186
	H37	H	0.668870	0.103055	0.207971
	H38	H	0.341244	0.103054	0.780615
	H39	H	0.668539	0.906875	0.778966
	H40	H	0.907821	0.220505	0.330685
	H41	H	0.101320	0.217796	0.658550
	H42	H	0.102930	0.793034	0.330880
	H43	H	0.908027	0.792314	0.658412
	H44	H	0.220181	0.341610	0.895993
	H45	H	0.219484	0.669053	0.091340
	H46	H	0.793588	0.340885	0.092629
	H47	H	0.790999	0.669238	0.896628
	H48	H	0.416478	0.122018	0.590707
	H49	H	0.597796	0.885824	0.599350
	H50	H	0.602553	0.122650	0.403243
	H51	H	0.408859	0.886262	0.393774
	H52	H	0.594306	0.400706	0.112179
	H53	H	0.598880	0.602821	0.877634
	H54	H	0.410567	0.606913	0.113270
	H55	H	0.407473	0.405660	0.874049
	H56	H	0.124586	0.603123	0.394525
	H57	H	0.889721	0.600327	0.584279
	H58	H	0.118380	0.420412	0.587441
	H59	H	0.887324	0.410117	0.396055
	H60	H	0.125250	0.407678	0.596208
	H61	H	0.890301	0.596137	0.589916
	H62	H	0.121143	0.602510	0.406663
	H63	H	0.889691	0.409134	0.406796
	H64	H	0.405173	0.592165	0.110666
	H65	H	0.605198	0.596696	0.876964
	H66	H	0.612295	0.409905	0.114038
	H67	H	0.408028	0.421884	0.878643
	H68	H	0.598446	0.123134	0.395776
	H69	H	0.588527	0.895640	0.580501
	H70	H	0.410892	0.121063	0.581438
	H71	H	0.418642	0.891562	0.401120
	H72	H	0.918484	0.620987	0.090016
	H73	H	0.100040	0.390577	0.080777
	H74	H	0.093423	0.620821	0.898782
	H75	H	0.911407	0.391527	0.908879
	H76	H	0.091160	0.909142	0.610071
	H77	H	0.098553	0.105970	0.375658
	H78	H	0.909110	0.097944	0.611169
	H79	H	0.913834	0.914755	0.379492
	H80	H	0.620184	0.101031	0.906026
	H81	H	0.389527	0.097279	0.089446
	H82	H	0.620897	0.910297	0.086182
	H83	H	0.391899	0.912906	0.907556
	H84	H	0.620664	0.913321	0.086346
	H85	H	0.387915	0.101739	0.088652
	H86	H	0.618812	0.092023	0.899480
	H87	H	0.389763	0.918147	0.894896
	H88	H	0.912422	0.095984	0.608848
	H89	H	0.104144	0.096321	0.377337
	H90	H	0.105606	0.905863	0.614179
	H91	H	0.912998	0.911441	0.378010
	H92	H	0.101404	0.621062	0.905523
	H93	H	0.102371	0.386824	0.091451
	H94	H	0.909501	0.620494	0.080340
	H95	H	0.908310	0.386973	0.896261
	H96	H	0.406311	0.124923	0.590526
	H97	H	0.609674	0.887999	0.580479
	H98	H	0.594645	0.119576	0.402240
	H99	H	0.406481	0.889629	0.406793
	H100	H	0.595912	0.420357	0.106510
	H101	H	0.597266	0.594633	0.879834
	H102	H	0.419987	0.595628	0.107185
	H103	H	0.421279	0.412145	0.880504
	H104	H	0.120338	0.592537	0.399752
	H105	H	0.887993	0.602993	0.590653
	H106	H	0.120369	0.405438	0.580033
	H107	H	0.891368	0.419242	0.401489
	H108	H	0.906311	0.624891	0.092333
	H109	H	0.091796	0.391283	0.088675
	H110	H	0.102896	0.624511	0.896706
	H111	H	0.921591	0.391196	0.898829
	H112	H	0.102517	0.920989	0.609901
	H113	H	0.093939	0.096839	0.380982
	H114	H	0.912726	0.099969	0.610105
	H115	H	0.910958	0.914090	0.378474
	H116	H	0.622966	0.101157	0.895453
	H117	H	0.390279	0.099068	0.085420
	H118	H	0.621326	0.911786	0.089074
	H119	H	0.386365	0.905330	0.897416
	C120	C	0.383885	0.014394	0.615649
	C121	C	0.626513	0.997913	0.615104
	C122	C	0.627089	0.013508	0.372016
	C123	C	0.383374	0.997605	0.372774
	C124	C	0.628509	0.383118	0.002503
	C125	C	0.627573	0.626491	0.986327
	C126	C	0.384180	0.626734	0.002288
	C127	C	0.384364	0.384577	0.985684
	C128	C	0.014095	0.627911	0.372826
	C129	C	0.997344	0.627414	0.616004
	C130	C	0.013422	0.383078	0.616727
	C131	C	0.997553	0.384182	0.373244
	C132	C	0.884063	0.513938	0.116272
	C133	C	0.126752	0.497497	0.115543
	C134	C	0.127408	0.513627	0.872412
	C135	C	0.884715	0.497954	0.872973
	C136	C	0.127308	0.884171	0.503162
	C137	C	0.126720	0.127116	0.486399
	C138	C	0.883289	0.127310	0.502197
	C139	C	0.884067	0.884602	0.486582
	C140	C	0.512945	0.126841	0.872052
	C141	C	0.497407	0.126970	0.115593
	C142	C	0.513356	0.883701	0.115858
	C143	C	0.497247	0.883701	0.872043
	C144	C	0.387226	0.890560	0.670069
	C145	C	0.623437	0.120906	0.670299
	C146	C	0.623907	0.890359	0.317727
	C147	C	0.386731	0.120956	0.318320
	C148	C	0.682691	0.386730	0.879024
	C149	C	0.681627	0.623232	0.109381
	C150	C	0.329394	0.624616	0.879678
	C151	C	0.329311	0.386733	0.108702
	C152	C	0.891191	0.683106	0.375986
	C153	C	0.120420	0.681456	0.612365
	C154	C	0.890574	0.329030	0.614046
	C155	C	0.120422	0.329325	0.376709
	C156	C	0.890672	0.387115	0.671543
	C157	C	0.120591	0.623907	0.670112
	C158	C	0.891275	0.625510	0.318210
	C159	C	0.120203	0.386879	0.318457
	C160	C	0.387951	0.681499	0.879256
	C161	C	0.623883	0.680962	0.109179
	C162	C	0.624490	0.329400	0.879101
	C163	C	0.387878	0.329718	0.108826
	C164	C	0.682195	0.890632	0.374890
	C165	C	0.680908	0.120944	0.612286
	C166	C	0.329724	0.890642	0.612450
	C167	C	0.328834	0.121002	0.375983
	C168	C	0.887594	0.391101	0.171537
	C169	C	0.124424	0.620657	0.170254
	C170	C	0.124090	0.390458	0.818166
	C171	C	0.887098	0.621144	0.818203
	C172	C	0.181745	0.887386	0.380076
	C173	C	0.181259	0.123866	0.609549
	C174	C	0.828125	0.126063	0.379658
	C175	C	0.828542	0.887157	0.609026
	C176	C	0.390992	0.182870	0.874786
	C177	C	0.620306	0.180945	0.111886
	C178	C	0.390758	0.828785	0.113395
	C179	C	0.620078	0.828571	0.874971
	C180	C	0.390772	0.886581	0.171214
	C181	C	0.620216	0.123493	0.170012
	C182	C	0.390392	0.124279	0.817546
	C183	C	0.619930	0.886294	0.817043
	C184	C	0.886434	0.183152	0.379501
	C185	C	0.123022	0.180879	0.609653
	C186	C	0.123997	0.829937	0.379946
	C187	C	0.887006	0.830131	0.609596
	C188	C	0.182353	0.390571	0.875480
	C189	C	0.181687	0.620407	0.112184
	C190	C	0.830450	0.390305	0.113488
	C191	C	0.829289	0.620798	0.875994
	C192	C	0.404964	0.100359	0.594004
	C193	C	0.605065	0.911892	0.593225
	C194	C	0.605042	0.099646	0.393763
	C195	C	0.404936	0.911500	0.394212
	C196	C	0.607462	0.404412	0.088586
	C197	C	0.606647	0.604722	0.900408
	C198	C	0.405607	0.604758	0.088109
	C199	C	0.406066	0.406619	0.899981
	C200	C	0.099945	0.605898	0.393950
	C201	C	0.911559	0.606106	0.594812
	C202	C	0.099295	0.404717	0.594521
	C203	C	0.911673	0.406293	0.395125
	C204	C	0.905135	0.599930	0.094149
	C205	C	0.104470	0.411605	0.093590
	C206	C	0.105599	0.600044	0.894064
	C207	C	0.907122	0.412012	0.894992
	C208	C	0.105854	0.905636	0.589259
	C209	C	0.105326	0.105790	0.400256
	C210	C	0.905118	0.104644	0.587947
	C211	C	0.906229	0.906831	0.400861
	C212	C	0.598722	0.104347	0.893686
	C213	C	0.411341	0.105550	0.094223
	C214	C	0.598880	0.905442	0.093690
	C215	C	0.411554	0.905658	0.893829
	Zn216	Zn	0.504877	0.005360	0.743247
	Zn217	Zn	0.505093	0.005563	0.244223
	Zn218	Zn	0.756451	0.504979	-0.005645
	Zn219	Zn	0.255059	0.505425	-0.005760
	Zn220	Zn	0.005506	0.756181	0.494732
	Zn221	Zn	0.004974	0.255125	0.494849
	Zn222	Zn	0.005808	0.506035	0.744060
	Zn223	Zn	0.005772	0.506203	0.244484
	Zn224	Zn	0.505721	0.755314	-0.006125
	Zn225	Zn	0.505747	0.255730	-0.006073
	Zn226	Zn	0.755246	0.005611	0.493526
	Zn227	Zn	0.255305	0.005979	0.494819
	N228	N	0.420219	0.968107	0.672058
	N229	N	0.590331	0.043341	0.671982
	N230	N	0.590748	0.967946	0.315648
	N231	N	0.419925	0.043294	0.316157
	N232	N	0.685357	0.419265	0.956737
	N233	N	0.684013	0.589867	0.031975
	N234	N	0.326953	0.591302	0.956998
	N235	N	0.327138	0.420348	0.031370
	N236	N	0.968472	0.684531	0.409205
	N237	N	0.043137	0.683449	0.579234
	N238	N	0.967999	0.326578	0.580666
	N239	N	0.043106	0.327559	0.410139
	N240	N	0.967990	0.420023	0.673199
	N241	N	0.043144	0.590926	0.672371
	N242	N	0.968381	0.591621	0.316359
	N243	N	0.042937	0.420449	0.316494
	N244	N	0.421374	0.682945	0.956530
	N245	N	0.590826	0.682910	0.031780
	N246	N	0.591538	0.327176	0.956676
	N247	N	0.421159	0.328280	0.031357
	N248	N	0.683973	0.968131	0.408214
	N249	N	0.682776	0.043530	0.578543
	N250	N	0.327108	0.968468	0.579639
	N251	N	0.326857	0.043385	0.409158
	N252	N	0.920394	0.468775	0.173263
	N253	N	0.091003	0.543170	0.172368
	N254	N	0.090545	0.467987	0.816274
	N255	N	0.920878	0.543687	0.816228
	N256	N	0.183876	0.920459	0.457393
	N257	N	0.183441	0.091100	0.531849
	N258	N	0.826161	0.092073	0.456793
	N259	N	0.826691	0.920295	0.531383
	N260	N	0.468274	0.184115	0.908234
	N261	N	0.542900	0.183082	0.078968
	N262	N	0.467899	0.826895	0.079717
	N263	N	0.542910	0.826978	0.908512
	N264	N	0.468035	0.920107	0.172780
	N265	N	0.542720	0.090606	0.172437
	N266	N	0.467428	0.090162	0.815907
	N267	N	0.542671	0.919878	0.815089
	N268	N	0.919999	0.183990	0.456896
	N269	N	0.090002	0.183213	0.532165
	N270	N	0.091109	0.827672	0.457747
	N271	N	0.920590	0.828342	0.532438
	N272	N	0.184501	0.468402	0.908128
	N273	N	0.182960	0.542963	0.078719
	N274	N	0.828079	0.467665	0.079725
	N275	N	0.827852	0.543144	0.909201
	O276	O	0.906653	-0.001328	0.992766
	H277	H	0.906795	0.005863	0.997170
	H278	H	0.904662	-0.007905	0.997353
	O279	O	-0.068599	0.027895	1.004685
	H280	H	-0.073378	0.026547	0.994845
	H281	H	-0.079525	0.028990	1.009611
	O282	O	0.944026	1.028125	0.010717
	H283	H	0.947609	1.028332	0.008415
	H284	H	0.945569	1.027392	0.009013
	O285	O	-0.107949	0.043626	1.010886
	H286	H	-0.109982	0.047109	1.010620
	H287	H	-0.105201	0.042717	1.012754
