data_Molecule from HDF5

_cell_length_a		16.581456
_cell_length_b		16.548077
_cell_length_c		16.544461
_cell_angle_alpha	89.981817
_cell_angle_beta	90.094256
_cell_angle_gamma	90.050870
_symmetry_space_group_name_H-M	'P 1'
_symmetry_Int_Tables_number		1

loop_
	_symmetry_equiv_pos_as_xyz
	x,y,z

loop_
	_atom_site_label
	_atom_site_type_symbol
	_atom_site_fract_x
	_atom_site_fract_y
	_atom_site_fract_z
	H0	H	0.401724	0.834096	0.715495
	H1	H	0.613522	0.145951	0.715795
	H2	H	0.613044	0.833170	0.271247
	H3	H	0.398940	0.143817	0.268111
	H4	H	0.730027	0.384008	0.838231
	H5	H	0.729846	0.595870	0.150318
	H6	H	0.283611	0.596385	0.837262
	H7	H	0.284325	0.381458	0.149339
	H8	H	0.852705	0.712118	0.386692
	H9	H	0.163149	0.713206	0.601795
	H10	H	0.852653	0.264739	0.601431
	H11	H	0.162771	0.263915	0.384530
	H12	H	0.852043	0.381954	0.716874
	H13	H	0.163143	0.595322	0.716935
	H14	H	0.852314	0.594530	0.271691
	H15	H	0.163036	0.380644	0.269407
	H16	H	0.400849	0.712054	0.837281
	H17	H	0.612245	0.711417	0.150522
	H18	H	0.614032	0.267292	0.838091
	H19	H	0.399066	0.264876	0.148528
	H20	H	0.728614	0.832772	0.388683
	H21	H	0.729052	0.145805	0.598953
	H22	H	0.284957	0.834233	0.599999
	H23	H	0.281885	0.143736	0.383103
	H24	H	0.905170	0.332208	0.211941
	H25	H	0.115325	0.645230	0.217035
	H26	H	0.111397	0.332079	0.773315
	H27	H	0.900640	0.645638	0.769698
	H28	H	0.229639	0.883056	0.336994
	H29	H	0.233576	0.098489	0.648461
	H30	H	0.784400	0.095955	0.338452
	H31	H	0.787104	0.883649	0.651951
	H32	H	0.351108	0.211575	0.887285
	H33	H	0.662716	0.213142	0.100071
	H34	H	0.351640	0.765931	0.101183
	H35	H	0.663734	0.768115	0.888302
	H36	H	0.350645	0.882923	0.215912
	H37	H	0.662389	0.096957	0.217530
	H38	H	0.351013	0.095897	0.770448
	H39	H	0.663279	0.884147	0.771985
	H40	H	0.901723	0.210811	0.338044
	H41	H	0.115344	0.212389	0.650099
	H42	H	0.113342	0.767174	0.337457
	H43	H	0.902685	0.767157	0.651118
	H44	H	0.229611	0.332919	0.886973
	H45	H	0.230707	0.645877	0.100645
	H46	H	0.786393	0.334264	0.097882
	H47	H	0.786432	0.647558	0.887116
	H48	H	0.415599	0.103060	0.580636
	H49	H	0.595750	0.875712	0.588667
	H50	H	0.591070	0.100767	0.400914
	H51	H	0.415089	0.878610	0.412040
	H52	H	0.599130	0.406657	0.104987
	H53	H	0.595122	0.576971	0.882889
	H54	H	0.416071	0.580838	0.106990
	H55	H	0.421260	0.405410	0.884303
	H56	H	0.119730	0.576445	0.403779
	H57	H	0.894957	0.577929	0.583930
	H58	H	0.117913	0.403787	0.582251
	H59	H	0.894795	0.397341	0.403404
	H60	H	0.119053	0.400120	0.582483
	H61	H	0.895718	0.579612	0.580007
	H62	H	0.121219	0.580567	0.404820
	H63	H	0.897224	0.399556	0.407752
	H64	H	0.417334	0.573259	0.103851
	H65	H	0.594742	0.580494	0.882832
	H66	H	0.590268	0.403302	0.103181
	H67	H	0.421614	0.396931	0.881134
	H68	H	0.594226	0.097977	0.411384
	H69	H	0.593576	0.878652	0.580810
	H70	H	0.422321	0.101669	0.585436
	H71	H	0.417967	0.875454	0.400008
	H72	H	0.911152	0.605393	0.082374
	H73	H	0.093906	0.379506	0.081120
	H74	H	0.097337	0.600983	0.907549
	H75	H	0.915787	0.378483	0.907639
	H76	H	0.093316	0.901511	0.604003
	H77	H	0.094239	0.078140	0.383294
	H78	H	0.917804	0.070795	0.604284
	H79	H	0.925866	0.901254	0.386143
	H80	H	0.616494	0.077642	0.908380
	H81	H	0.395148	0.078998	0.080405
	H82	H	0.620157	0.898096	0.084254
	H83	H	0.392944	0.895759	0.901230
	H84	H	0.616801	0.900438	0.079287
	H85	H	0.397160	0.076122	0.079274
	H86	H	0.619524	0.076398	0.901670
	H87	H	0.397073	0.900017	0.909649
	H88	H	0.925386	0.079399	0.605235
	H89	H	0.095787	0.075647	0.382585
	H90	H	0.097075	0.900087	0.606375
	H91	H	0.915022	0.893419	0.378910
	H92	H	0.095740	0.601136	0.903365
	H93	H	0.098712	0.378182	0.079865
	H94	H	0.923725	0.603306	0.090127
	H95	H	0.916773	0.377047	0.902550
	H96	H	0.422555	0.099964	0.577067
	H97	H	0.601556	0.875369	0.582230
	H98	H	0.601197	0.104119	0.404301
	H99	H	0.426537	0.881049	0.407460
	H100	H	0.596723	0.397561	0.107058
	H101	H	0.597195	0.578472	0.880961
	H102	H	0.423291	0.578874	0.104066
	H103	H	0.414212	0.402019	0.880056
	H104	H	0.119056	0.578086	0.407780
	H105	H	0.898051	0.575829	0.580992
	H106	H	0.118194	0.401376	0.579192
	H107	H	0.896347	0.402298	0.403461
	H108	H	0.922739	0.598741	0.075698
	H109	H	0.096899	0.376402	0.084526
	H110	H	0.092964	0.599674	0.906845
	H111	H	0.920920	0.379659	0.905576
	H112	H	0.097239	0.904470	0.605166
	H113	H	0.092970	0.075325	0.383872
	H114	H	0.914889	0.080773	0.609321
	H115	H	0.912679	0.907891	0.382617
	H116	H	0.620829	0.082968	0.904610
	H117	H	0.395973	0.076401	0.082689
	H118	H	0.618738	0.904502	0.084361
	H119	H	0.395496	0.905291	0.901111
	C120	C	0.387011	-0.001509	0.614033
	C121	C	0.628800	0.980682	0.615777
	C122	C	0.628085	-0.002390	0.373050
	C123	C	0.386039	0.981047	0.372171
	C124	C	0.628207	0.369215	0.002071
	C125	C	0.628480	0.611290	0.985553
	C126	C	0.385889	0.610394	0.001532
	C127	C	0.385926	0.368330	0.985063
	C128	C	0.016808	0.610835	0.372624
	C129	C	0.999029	0.610767	0.615177
	C130	C	0.015855	0.367840	0.615032
	C131	C	0.999293	0.366859	0.371815
	C132	C	0.886937	0.498967	0.114511
	C133	C	0.129885	0.480932	0.115596
	C134	C	0.127862	0.497162	0.872929
	C135	C	0.885528	0.481645	0.872064
	C136	C	0.128598	0.868750	0.501844
	C137	C	0.129130	0.110689	0.485291
	C138	C	0.886269	0.110131	0.503002
	C139	C	0.885696	0.867664	0.486185
	C140	C	0.515494	0.111092	0.872004
	C141	C	0.498941	0.110558	0.114225
	C142	C	0.515548	0.867950	0.115428
	C143	C	0.498543	0.868024	0.871886
	C144	C	0.383770	0.880940	0.675172
	C145	C	0.631683	0.098866	0.675629
	C146	C	0.631320	0.880004	0.311903
	C147	C	0.381396	0.097402	0.309345
	C148	C	0.689496	0.365831	0.885007
	C149	C	0.689495	0.614322	0.103203
	C150	C	0.324327	0.614250	0.884192
	C151	C	0.324938	0.364452	0.102342
	C152	C	0.899540	0.671771	0.369058
	C153	C	0.116432	0.672042	0.618970
	C154	C	0.899094	0.305704	0.619047
	C155	C	0.115935	0.304904	0.367468
	C156	C	0.898937	0.364082	0.676341
	C157	C	0.116496	0.613484	0.676302
	C158	C	0.899340	0.613459	0.311757
	C159	C	0.116311	0.363533	0.310407
	C160	C	0.382590	0.671630	0.884223
	C161	C	0.630996	0.671640	0.103392
	C162	C	0.631795	0.307793	0.884854
	C163	C	0.382111	0.306121	0.101980
	C164	C	0.688889	0.879978	0.370132
	C165	C	0.689106	0.098664	0.617640
	C166	C	0.326002	0.880912	0.617598
	C167	C	0.323389	0.097456	0.366719
	C168	C	0.885812	0.379997	0.173142
	C169	C	0.133258	0.598409	0.176656
	C170	C	0.129852	0.379267	0.812939
	C171	C	0.882858	0.599100	0.810598
	C172	C	0.189207	0.865429	0.384131
	C173	C	0.192142	0.115519	0.602069
	C174	C	0.825073	0.113560	0.385588
	C175	C	0.826516	0.865415	0.604356
	C176	C	0.398024	0.171477	0.869058
	C177	C	0.615994	0.172416	0.118115
	C178	C	0.398224	0.806650	0.118595
	C179	C	0.616255	0.807770	0.869647
	C180	C	0.397825	0.864912	0.175775
	C181	C	0.615946	0.114465	0.176163
	C182	C	0.398072	0.113884	0.810879
	C183	C	0.616454	0.865928	0.812065
	C184	C	0.883545	0.170783	0.385318
	C185	C	0.133510	0.172401	0.602796
	C186	C	0.131330	0.807594	0.384315
	C187	C	0.883938	0.807146	0.603698
	C188	C	0.188599	0.379751	0.869796
	C189	C	0.190477	0.598687	0.118436
	C190	C	0.827011	0.380893	0.116179
	C191	C	0.825774	0.599797	0.868904
	C192	C	0.412713	0.080113	0.588311
	C193	C	0.603942	0.898142	0.591151
	C194	C	0.602696	0.079431	0.398235
	C195	C	0.412403	0.899713	0.398936
	C196	C	0.602597	0.395157	0.083804
	C197	C	0.603007	0.585812	0.903575
	C198	C	0.411520	0.584789	0.083646
	C199	C	0.411718	0.394245	0.903178
	C200	C	0.098672	0.585554	0.397975
	C201	C	0.917538	0.585110	0.589029
	C202	C	0.097173	0.394114	0.588793
	C203	C	0.917669	0.392478	0.397448
	C204	C	0.912214	0.581247	0.089813
	C205	C	0.104064	0.399303	0.089585
	C206	C	0.102621	0.579293	0.898664
	C207	C	0.910586	0.399731	0.897864
	C208	C	0.103209	0.894694	0.583764
	C209	C	0.102102	0.084135	0.404306
	C210	C	0.911918	0.084466	0.585073
	C211	C	0.910748	0.893455	0.403959
	C212	C	0.597622	0.085924	0.897612
	C213	C	0.417352	0.084518	0.088144
	C214	C	0.597124	0.893602	0.089885
	C215	C	0.416498	0.893218	0.896871
	Zn216	Zn	0.507272	-0.010136	0.743638
	Zn217	Zn	0.507151	-0.010989	0.243376
	Zn218	Zn	0.757533	0.490346	-0.006691
	Zn219	Zn	0.257319	0.489429	-0.006720
	Zn220	Zn	0.007846	0.739531	0.494110
	Zn221	Zn	0.008019	0.239320	0.494271
	Zn222	Zn	0.007185	0.489574	0.743943
	Zn223	Zn	0.007943	0.489599	0.243775
	Zn224	Zn	0.506542	0.739870	-0.006340
	Zn225	Zn	0.507292	0.239896	-0.006728
	Zn226	Zn	0.756995	-0.011041	0.494457
	Zn227	Zn	0.257799	-0.010287	0.493269
	N228	N	0.420996	0.954955	0.673242
	N229	N	0.595230	0.024301	0.675015
	N230	N	0.594495	0.954272	0.313223
	N231	N	0.419768	0.023918	0.312678
	N232	N	0.687487	0.403285	0.958900
	N233	N	0.688075	0.577597	0.028826
	N234	N	0.326201	0.576975	0.958307
	N235	N	0.327220	0.402476	0.028598
	N236	N	0.973701	0.670385	0.406095
	N237	N	0.042243	0.670711	0.581897
	N238	N	0.972883	0.307908	0.581644
	N239	N	0.042161	0.306909	0.405113
	N240	N	0.972395	0.402289	0.673765
	N241	N	0.042589	0.576078	0.674083
	N242	N	0.973250	0.576258	0.313756
	N243	N	0.042687	0.401565	0.312935
	N244	N	0.420049	0.669396	0.958329
	N245	N	0.593994	0.670194	0.029041
	N246	N	0.594357	0.309783	0.958853
	N247	N	0.419426	0.308352	0.027854
	N248	N	0.687053	0.954080	0.407423
	N249	N	0.687360	0.024054	0.581235
	N250	N	0.327410	0.955181	0.580591
	N251	N	0.326204	0.024023	0.405100
	N252	N	0.922406	0.454473	0.172155
	N253	N	0.096482	0.524019	0.175319
	N254	N	0.092859	0.453478	0.814771
	N255	N	0.919082	0.524507	0.812181
	N256	N	0.187598	0.902803	0.458348
	N257	N	0.189764	0.078191	0.527982
	N258	N	0.826688	0.076610	0.459780
	N259	N	0.827232	0.902265	0.529980
	N260	N	0.472214	0.170069	0.906101
	N261	N	0.542133	0.170025	0.080390
	N262	N	0.472345	0.808324	0.081656
	N263	N	0.541895	0.809009	0.906124
	N264	N	0.471793	0.902504	0.173818
	N265	N	0.542081	0.076907	0.174104
	N266	N	0.472398	0.077283	0.812491
	N267	N	0.542175	0.902620	0.813077
	N268	N	0.920880	0.169039	0.459483
	N269	N	0.094946	0.169663	0.529230
	N270	N	0.094531	0.809443	0.458611
	N271	N	0.919900	0.808460	0.528965
	N272	N	0.187450	0.454176	0.906423
	N273	N	0.188825	0.524538	0.081295
	N274	N	0.827455	0.455908	0.080663
	N275	N	0.827181	0.525735	0.906408
	O276	O	1.291914	1.463198	-0.291503
	H277	H	1.294900	1.464567	-0.299460
	H278	H	1.276630	1.472609	-0.279346
	O279	O	-0.189401	0.129141	0.967309
	H280	H	-0.170465	0.137694	0.977358
	H281	H	-0.187783	0.150259	0.964695
	O282	O	0.403304	0.568010	0.564844
	H283	H	0.398336	0.556090	0.560769
	H284	H	0.403424	0.579221	0.549706
	O285	O	0.846439	1.074965	0.795952
	H286	H	0.840261	1.070757	0.805409
	H287	H	0.827615	1.097995	0.790194
	O288	O	0.962286	-0.217746	1.122009
	H289	H	0.955177	-0.211033	1.123877
	H290	H	0.960617	-0.229242	1.118671
	O291	O	1.175866	1.010499	0.969999
	H292	H	1.174103	1.007625	0.959221
	H293	H	1.162397	0.998459	0.966182
	O294	O	0.016088	-0.181481	-0.009593
	H295	H	-0.004375	-0.191090	-0.021008
	H296	H	0.017981	-0.186108	-0.026024
	O297	O	0.813769	-0.203425	0.186884
	H298	H	0.806773	-0.222723	0.206534
	H299	H	0.835912	-0.205191	0.164056
	O300	O	-0.184546	-0.044243	-0.088477
	H301	H	-0.195622	-0.043346	-0.076168
	H302	H	-0.189909	-0.011445	-0.086098
	O303	O	-0.218148	0.215238	-0.228611
	H304	H	-0.221484	0.226903	-0.231738
	H305	H	-0.199583	0.220569	-0.230192
	O306	O	1.174551	0.066297	0.153629
	H307	H	1.185731	0.059167	0.157983
	H308	H	1.166353	0.076833	0.141679
	O309	O	0.253570	0.744331	0.748929
	H310	H	0.268149	0.746371	0.759517
	H311	H	0.240317	0.729730	0.728444
	O312	O	0.542380	0.482116	0.499987
	H313	H	0.528880	0.490408	0.510265
	H314	H	0.540245	0.482176	0.499624
	O315	O	0.288848	0.295908	0.506589
	H316	H	0.276208	0.273763	0.515445
	H317	H	0.308192	0.292264	0.496782
	O318	O	1.005389	0.785057	0.137654
	H319	H	1.000065	0.787463	0.129716
	H320	H	1.002678	0.777951	0.135226
	O321	O	-0.017040	1.117964	0.845503
	H322	H	-0.017726	1.118336	0.849451
	H323	H	-0.014605	1.122343	0.840911
	O324	O	1.145566	0.184029	1.188199
	H325	H	1.143625	0.168818	1.174141
	H326	H	1.131934	0.189243	1.182934
	O327	O	0.443846	0.690167	0.570514
	H328	H	0.450338	0.684876	0.552774
	H329	H	0.442468	0.698881	0.560472
	O330	O	0.146339	1.014040	0.019420
	H331	H	0.127037	1.008420	0.015250
	H332	H	0.148661	1.016099	0.033990
	O333	O	0.488652	0.339966	0.542687
	H334	H	0.499373	0.354950	0.540753
	H335	H	0.483609	0.348503	0.560388
	O336	O	0.215946	0.877307	0.781563
	H337	H	0.226953	0.852564	0.778888
	H338	H	0.227735	0.867528	0.789149
	O339	O	0.313291	0.298915	0.688350
	H340	H	0.318671	0.307338	0.667758
	H341	H	0.321790	0.318164	0.676276
	O342	O	-0.140858	1.137874	0.189116
	H343	H	-0.125387	1.123027	0.185299
	H344	H	-0.130295	1.139154	0.176395
	O345	O	0.678456	0.355552	0.538589
	H346	H	0.677707	0.334699	0.532379
	H347	H	0.671135	0.354117	0.537499
	O348	O	0.031068	0.774745	0.781220
	H349	H	0.038873	0.773450	0.760670
	H350	H	0.031292	0.784951	0.768565
	O351	O	0.312099	0.684551	1.300965
	H352	H	0.293799	0.661101	1.280106
	H353	H	0.348163	0.679484	1.291580
	O354	O	0.790877	-0.037769	1.210047
	H355	H	0.771779	-0.052724	1.227280
	H356	H	0.793081	-0.062172	1.207071
	O357	O	0.721634	0.579983	0.704371
	H358	H	0.732294	0.592569	0.714515
	H359	H	0.715960	0.590133	0.715812
	O360	O	0.464591	0.536588	0.718394
	H361	H	0.470130	0.523521	0.727286
	H362	H	0.454466	0.551204	0.709033
	O363	O	0.736159	0.503412	0.450546
	H364	H	0.741495	0.490795	0.456627
	H365	H	0.736136	0.475222	0.444921
	O366	O	0.436736	0.463420	0.463951
	H367	H	0.435093	0.475746	0.463700
	H368	H	0.421809	0.457696	0.461660
	O369	O	0.021069	-0.023069	1.223635
	H370	H	0.018398	-0.050594	1.214425
	H371	H	-0.002354	-0.031213	1.225293
	O372	O	-0.102822	0.827739	0.846016
	H373	H	-0.115614	0.841294	0.861037
	H374	H	-0.099315	0.838844	0.835541
	O375	O	0.789086	0.044798	0.049103
	H376	H	0.787968	0.058329	0.055513
	H377	H	0.786417	0.064626	0.063633
	O378	O	0.647153	0.618207	0.299652
	H379	H	0.642876	0.587639	0.311058
	H380	H	0.647861	0.609762	0.309963
	O381	O	-0.581271	1.695680	-0.566785
	H382	H	-0.584872	1.700615	-0.571536
	H383	H	-0.579088	1.702474	-0.586962
	O384	O	0.512317	0.444180	0.365835
	H385	H	0.521420	0.451819	0.380384
	H386	H	0.497548	0.461050	0.367296
	O387	O	0.572974	1.380163	1.646150
	H388	H	0.590878	1.386564	1.653814
	H389	H	0.578646	1.366757	1.647286
	O390	O	-0.464650	0.702473	0.697233
	H391	H	-0.468064	0.715814	0.714455
	H392	H	-0.482265	0.697819	0.679255
	O393	O	0.891124	-0.066578	-0.195882
	H394	H	0.877933	-0.045894	-0.196888
	H395	H	0.894659	-0.047343	-0.199288
	O396	O	0.403475	0.358477	0.349649
	H397	H	0.406690	0.358653	0.344650
	H398	H	0.414101	0.339799	0.365143
	O399	O	0.672017	0.611941	0.680785
	H400	H	0.666707	0.624869	0.678446
	H401	H	0.662888	0.624835	0.680398
	O402	O	1.144575	0.014492	1.043539
	H403	H	1.143558	0.016127	1.054602
	H404	H	1.144957	0.027613	1.033339
	O405	O	-0.033654	0.208083	0.040628
	H406	H	-0.012763	0.205030	0.052614
	H407	H	-0.012425	0.207919	0.038159
	O408	O	1.065131	0.837724	1.120005
	H409	H	1.057742	0.844434	1.106419
	H410	H	1.075009	0.844471	1.107918
	O411	O	1.717253	0.474715	-0.662644
	H412	H	1.739752	0.460935	-0.676733
	H413	H	1.709646	0.456888	-0.653464
	O414	O	0.365105	-0.511218	0.441205
	H415	H	0.370841	-0.502329	0.417043
	H416	H	0.373506	-0.511001	0.435415
	O417	O	-0.002370	0.199222	0.939999
	H418	H	-0.002620	0.209752	0.923018
	H419	H	0.012359	0.201562	0.923241
	O420	O	1.221085	0.135618	1.002957
	H421	H	1.234771	0.118772	0.993963
	H422	H	1.237428	0.138037	1.002329
	O423	O	1.147374	1.003796	-0.235618
	H424	H	1.159592	0.984395	-0.239121
	H425	H	1.155550	0.982729	-0.239127
	O426	O	0.615962	0.705533	0.461807
	H427	H	0.635064	0.711326	0.463028
	H428	H	0.620063	0.689765	0.475801
	O429	O	0.668473	0.682515	0.518838
	H430	H	0.678626	0.687185	0.516526
	H431	H	0.683644	0.686000	0.536415
	O432	O	1.034791	0.015358	0.930828
	H433	H	1.025611	0.017248	0.937313
	H434	H	1.046699	0.003715	0.938504
	O435	O	0.526943	0.624930	0.289275
	H436	H	0.532594	0.627357	0.288759
	H437	H	0.516919	0.623726	0.293277
	O438	O	0.480858	0.271946	0.709907
	H439	H	0.476211	0.251717	0.739223
	H440	H	0.467775	0.276378	0.695944
	O441	O	0.814770	0.805182	0.008822
	H442	H	0.819994	0.812540	0.012915
	H443	H	0.786947	0.793318	0.003599
	O444	O	0.307822	0.464779	0.497771
	H445	H	0.306209	0.461572	0.500040
	H446	H	0.302716	0.467807	0.494124
	O447	O	0.001150	0.152860	1.214907
	H448	H	0.008702	0.129894	1.219984
	H449	H	-0.007740	0.160375	1.237632
	O450	O	0.713910	0.282687	0.420959
	H451	H	0.734969	0.267896	0.404926
	H452	H	0.702050	0.294456	0.413364
	O453	O	0.716063	0.336682	0.285222
	H454	H	0.702865	0.340649	0.288857
	H455	H	0.717251	0.333075	0.269080
	O456	O	0.284719	1.495804	0.317733
	H457	H	0.266642	1.502545	0.306444
	H458	H	0.293758	1.462984	0.327280
	O459	O	0.536726	0.280767	0.280239
	H460	H	0.535820	0.288553	0.299628
	H461	H	0.538818	0.267237	0.253059
	O462	O	0.412629	0.613427	0.288280
	H463	H	0.404129	0.616566	0.300829
	H464	H	0.409786	0.607634	0.280404
	O465	O	0.619436	0.310900	0.593986
	H466	H	0.619157	0.334358	0.589321
	H467	H	0.620378	0.309572	0.597556
	O468	O	0.118578	1.046034	0.097086
	H469	H	0.120416	1.043713	0.089503
	H470	H	0.107464	1.047365	0.088693
	O471	O	0.494125	0.451342	0.512086
	H472	H	0.491064	0.451063	0.502777
	H473	H	0.483867	0.446688	0.509771
	O474	O	1.033809	1.133601	-0.198170
	H475	H	1.042576	1.102113	-0.209615
	H476	H	1.031072	1.138589	-0.201930
	O477	O	0.219899	-0.226530	0.961057
	H478	H	0.250041	-0.248995	0.965579
	H479	H	0.209989	-0.207340	0.969448
