data_Molecule from HDF5

_cell_length_a		16.314245
_cell_length_b		16.329716
_cell_length_c		16.300171
_cell_angle_alpha	89.975722
_cell_angle_beta	90.037207
_cell_angle_gamma	89.958794
_symmetry_space_group_name_H-M	'P 1'
_symmetry_Int_Tables_number		1

loop_
	_symmetry_equiv_pos_as_xyz
	x,y,z

loop_
	_atom_site_label
	_atom_site_type_symbol
	_atom_site_fract_x
	_atom_site_fract_y
	_atom_site_fract_z
	H0	H	0.402894	0.836571	0.714936
	H1	H	0.597439	0.163288	0.714750
	H2	H	0.597821	0.835861	0.286592
	H3	H	0.402269	0.163155	0.285559
	H4	H	0.713916	0.401807	0.836583
	H5	H	0.714486	0.597953	0.163841
	H6	H	0.286919	0.597450	0.835722
	H7	H	0.286453	0.402498	0.163278
	H8	H	0.836449	0.713702	0.401334
	H9	H	0.163471	0.714199	0.597290
	H10	H	0.836763	0.286190	0.597777
	H11	H	0.163923	0.285602	0.401573
	H12	H	0.836896	0.402122	0.714119
	H13	H	0.163932	0.597529	0.713963
	H14	H	0.836217	0.598033	0.285575
	H15	H	0.163536	0.403299	0.285707
	H16	H	0.402645	0.714334	0.836537
	H17	H	0.597590	0.713350	0.163782
	H18	H	0.597213	0.285966	0.836760
	H19	H	0.401090	0.285426	0.163042
	H20	H	0.714599	0.836391	0.403271
	H21	H	0.714249	0.163287	0.598868
	H22	H	0.285301	0.836809	0.598331
	H23	H	0.285549	0.163158	0.401641
	H24	H	0.901978	0.337085	0.214752
	H25	H	0.097441	0.663957	0.213072
	H26	H	0.097671	0.336869	0.785309
	H27	H	0.902427	0.663572	0.785234
	H28	H	0.214384	0.902250	0.336614
	H29	H	0.214935	0.098036	0.663605
	H30	H	0.785781	0.097723	0.336972
	H31	H	0.787801	0.903841	0.664059
	H32	H	0.336533	0.214677	0.901380
	H33	H	0.662781	0.215119	0.098671
	H34	H	0.336532	0.786083	0.097791
	H35	H	0.662897	0.785525	0.902414
	H36	H	0.336450	0.902153	0.213478
	H37	H	0.663246	0.097877	0.214064
	H38	H	0.336676	0.098342	0.785407
	H39	H	0.662977	0.901513	0.786306
	H40	H	0.902526	0.213243	0.336158
	H41	H	0.098741	0.215140	0.663858
	H42	H	0.097747	0.786504	0.335845
	H43	H	0.903527	0.787092	0.663378
	H44	H	0.214554	0.336548	0.900562
	H45	H	0.212953	0.663289	0.095815
	H46	H	0.786007	0.336615	0.097722
	H47	H	0.785996	0.663390	0.902164
	H48	H	0.397598	0.115132	0.583165
	H49	H	0.588622	0.882263	0.604437
	H50	H	0.595417	0.117535	0.403090
	H51	H	0.405346	0.882422	0.404620
	H52	H	0.588809	0.403777	0.116038
	H53	H	0.591833	0.599115	0.882315
	H54	H	0.406164	0.586756	0.114719
	H55	H	0.398885	0.406904	0.881337
	H56	H	0.112304	0.592871	0.415954
	H57	H	0.884334	0.595535	0.590073
	H58	H	0.113822	0.406000	0.582473
	H59	H	0.886399	0.410838	0.410358
	H60	H	0.115680	0.415916	0.597556
	H61	H	0.885176	0.589898	0.592805
	H62	H	0.115713	0.584845	0.400713
	H63	H	0.882099	0.407624	0.400387
	H64	H	0.412335	0.598051	0.115525
	H65	H	0.598123	0.590707	0.883089
	H66	H	0.597626	0.405397	0.118194
	H67	H	0.410208	0.413523	0.887133
	H68	H	0.588853	0.115195	0.406162
	H69	H	0.588658	0.887987	0.584855
	H70	H	0.403366	0.120588	0.606232
	H71	H	0.410049	0.884981	0.406717
	H72	H	0.909975	0.615006	0.092933
	H73	H	0.090876	0.382921	0.100639
	H74	H	0.093759	0.615361	0.907989
	H75	H	0.910519	0.383734	0.903016
	H76	H	0.101849	0.913236	0.616662
	H77	H	0.088898	0.084096	0.388494
	H78	H	0.900808	0.092600	0.618618
	H79	H	0.901411	0.901900	0.381021
	H80	H	0.614567	0.089373	0.907348
	H81	H	0.384473	0.094975	0.088963
	H82	H	0.619849	0.897687	0.094692
	H83	H	0.383499	0.899058	0.913968
	H84	H	0.613700	0.908419	0.087111
	H85	H	0.384913	0.089446	0.094653
	H86	H	0.617359	0.095112	0.904497
	H87	H	0.387505	0.916410	0.910079
	H88	H	0.911052	0.089500	0.614310
	H89	H	0.087445	0.101778	0.383333
	H90	H	0.083920	0.910629	0.612025
	H91	H	0.904485	0.912458	0.384054
	H92	H	0.095067	0.616423	0.905725
	H93	H	0.088532	0.386273	0.087797
	H94	H	0.905006	0.615665	0.088880
	H95	H	0.908499	0.385958	0.911728
	H96	H	0.419908	0.111643	0.590532
	H97	H	0.605803	0.880148	0.593731
	H98	H	0.595498	0.115156	0.410414
	H99	H	0.405724	0.884558	0.409738
	H100	H	0.592478	0.412784	0.115017
	H101	H	0.588084	0.589578	0.886580
	H102	H	0.399547	0.596886	0.119176
	H103	H	0.411099	0.400122	0.881845
	H104	H	0.119131	0.601743	0.402477
	H105	H	0.882329	0.594727	0.596271
	H106	H	0.120563	0.398753	0.597479
	H107	H	0.882562	0.400496	0.408918
	H108	H	0.904504	0.617280	0.094743
	H109	H	0.100849	0.382294	0.091711
	H110	H	0.091719	0.616233	0.905760
	H111	H	0.901891	0.382211	0.906034
	H112	H	0.093518	0.895958	0.619850
	H113	H	0.103814	0.093250	0.381090
	H114	H	0.909270	0.099891	0.617361
	H115	H	0.912367	0.904145	0.383815
	H116	H	0.615683	0.095249	0.911101
	H117	H	0.381602	0.096556	0.095874
	H118	H	0.616910	0.910134	0.099992
	H119	H	0.379569	0.905659	0.897490
	C120	C	0.378591	0.007991	0.621943
	C121	C	0.622298	0.991445	0.622468
	C122	C	0.621659	0.007783	0.378488
	C123	C	0.378624	0.991758	0.378535
	C124	C	0.621505	0.378352	0.008644
	C125	C	0.621255	0.621409	0.992134
	C126	C	0.378013	0.621960	0.008187
	C127	C	0.378532	0.378851	0.991508
	C128	C	0.007898	0.621346	0.378084
	C129	C	0.992060	0.621788	0.621364
	C130	C	0.008524	0.378921	0.620972
	C131	C	0.991889	0.378222	0.377912
	C132	C	0.878128	0.508372	0.121023
	C133	C	0.121437	0.491868	0.121329
	C134	C	0.122043	0.508413	0.878012
	C135	C	0.878474	0.491868	0.878096
	C136	C	0.121335	0.878265	0.508033
	C137	C	0.121773	0.121698	0.492186
	C138	C	0.878497	0.121701	0.508753
	C139	C	0.878642	0.878767	0.491341
	C140	C	0.508201	0.121727	0.878738
	C141	C	0.491620	0.121919	0.121857
	C142	C	0.508374	0.877938	0.121893
	C143	C	0.491228	0.878526	0.879074
	C144	C	0.381936	0.885040	0.676726
	C145	C	0.618346	0.114597	0.676824
	C146	C	0.618666	0.884771	0.324218
	C147	C	0.381853	0.114609	0.323870
	C148	C	0.676100	0.381121	0.885443
	C149	C	0.676320	0.618451	0.114943
	C150	C	0.323685	0.619057	0.884998
	C151	C	0.324164	0.381997	0.114801
	C152	C	0.885166	0.676120	0.380784
	C153	C	0.114724	0.676578	0.618626
	C154	C	0.885523	0.323989	0.618823
	C155	C	0.114983	0.323205	0.380391
	C156	C	0.885621	0.381830	0.676305
	C157	C	0.114858	0.619022	0.676719
	C158	C	0.884841	0.618382	0.323442
	C159	C	0.114871	0.381678	0.323016
	C160	C	0.381422	0.676900	0.885269
	C161	C	0.618475	0.675922	0.114956
	C162	C	0.618542	0.323219	0.885684
	C163	C	0.380967	0.323859	0.114438
	C164	C	0.676227	0.884882	0.382536
	C165	C	0.676580	0.114565	0.619562
	C166	C	0.323534	0.885259	0.619199
	C167	C	0.323677	0.114579	0.381277
	C168	C	0.881261	0.385512	0.176370
	C169	C	0.118368	0.614903	0.175671
	C170	C	0.118741	0.385308	0.823324
	C171	C	0.881815	0.614815	0.823228
	C172	C	0.176506	0.881244	0.385173
	C173	C	0.177388	0.119028	0.615017
	C174	C	0.823455	0.118475	0.385549
	C175	C	0.824835	0.882296	0.614854
	C176	C	0.385156	0.176225	0.881256
	C177	C	0.614270	0.176791	0.119393
	C178	C	0.385411	0.823751	0.118741
	C179	C	0.614302	0.823293	0.881527
	C180	C	0.385340	0.881431	0.176150
	C181	C	0.614503	0.118464	0.176467
	C182	C	0.385154	0.118210	0.823826
	C183	C	0.614400	0.880997	0.824247
	C184	C	0.881417	0.175842	0.385269
	C185	C	0.119184	0.176739	0.615103
	C186	C	0.118729	0.823725	0.384865
	C187	C	0.882056	0.824101	0.614431
	C188	C	0.176610	0.385179	0.880709
	C189	C	0.175676	0.614753	0.117354
	C190	C	0.823620	0.385215	0.118465
	C191	C	0.823678	0.614573	0.880947
	C192	C	0.400523	0.093776	0.599851
	C193	C	0.600751	0.905636	0.600687
	C194	C	0.599798	0.093771	0.400177
	C195	C	0.400560	0.906088	0.400654
	C196	C	0.599399	0.400583	0.094299
	C197	C	0.599227	0.599522	0.906097
	C198	C	0.399643	0.600051	0.094332
	C199	C	0.400302	0.400585	0.905739
	C200	C	0.093798	0.599423	0.399916
	C201	C	0.906140	0.599806	0.599603
	C202	C	0.094503	0.400553	0.599117
	C203	C	0.905966	0.399839	0.399997
	C204	C	0.900058	0.594122	0.098883
	C205	C	0.099816	0.405953	0.099770
	C206	C	0.100104	0.594004	0.899971
	C207	C	0.900654	0.406112	0.900229
	C208	C	0.099496	0.900138	0.593992
	C209	C	0.099829	0.099489	0.406404
	C210	C	0.900363	0.100402	0.594671
	C211	C	0.899639	0.899897	0.404913
	C212	C	0.593894	0.099692	0.901218
	C213	C	0.405758	0.100058	0.099559
	C214	C	0.594571	0.899194	0.100264
	C215	C	0.405672	0.900590	0.900796
	Zn216	Zn	0.500269	0.000091	0.750702
	Zn217	Zn	0.499914	-0.000442	0.249609
	Zn218	Zn	0.749484	0.499878	-0.000001
	Zn219	Zn	0.249838	0.499569	-0.000115
	Zn220	Zn	-0.000277	0.750033	0.499145
	Zn221	Zn	-0.000182	0.250077	0.499847
	Zn222	Zn	0.000301	0.500147	0.749912
	Zn223	Zn	-0.000441	0.500421	0.249522
	Zn224	Zn	0.500146	0.749962	-0.000035
	Zn225	Zn	0.499595	0.250306	0.000096
	Zn226	Zn	0.750287	0.000264	0.500681
	Zn227	Zn	0.250108	-0.000459	0.500134
	N228	N	0.415235	0.962316	0.678636
	N229	N	0.585517	0.037171	0.678968
	N230	N	0.585051	0.962191	0.321912
	N231	N	0.415096	0.037195	0.322013
	N232	N	0.677811	0.414798	0.962671
	N233	N	0.678093	0.585359	0.037446
	N234	N	0.321574	0.585499	0.962391
	N235	N	0.322324	0.415218	0.037394
	N236	N	0.962593	0.677819	0.414173
	N237	N	0.037387	0.678312	0.584909
	N238	N	0.962829	0.322114	0.585113
	N239	N	0.037554	0.321025	0.413790
	N240	N	0.963092	0.415223	0.677852
	N241	N	0.037636	0.585352	0.678180
	N242	N	0.962206	0.585112	0.321724
	N243	N	0.037344	0.415044	0.321306
	N244	N	0.414446	0.678788	0.962822
	N245	N	0.584829	0.677637	0.037500
	N246	N	0.585166	0.321468	0.963190
	N247	N	0.414298	0.321915	0.036894
	N248	N	0.678249	0.962508	0.415237
	N249	N	0.678954	0.037063	0.586390
	N250	N	0.321722	0.962590	0.585584
	N251	N	0.321714	0.037286	0.414821
	N252	N	0.914433	0.462955	0.177851
	N253	N	0.085179	0.537547	0.177969
	N254	N	0.085363	0.462650	0.821546
	N255	N	0.915080	0.537352	0.821415
	N256	N	0.178302	0.914529	0.462591
	N257	N	0.178655	0.085112	0.537733
	N258	N	0.821600	0.085440	0.463223
	N259	N	0.822597	0.915503	0.537203
	N260	N	0.462590	0.178678	0.914466
	N261	N	0.536798	0.179025	0.086068
	N262	N	0.462933	0.821389	0.085733
	N263	N	0.536811	0.821557	0.914928
	N264	N	0.462953	0.914384	0.178100
	N265	N	0.537167	0.085254	0.178153
	N266	N	0.462710	0.084869	0.822282
	N267	N	0.537203	0.914763	0.822665
	N268	N	0.914913	0.177906	0.462739
	N269	N	0.085585	0.178479	0.537796
	N270	N	0.085024	0.822120	0.462271
	N271	N	0.914785	0.821983	0.536707
	N272	N	0.178539	0.462610	0.914014
	N273	N	0.177818	0.537175	0.084593
	N274	N	0.821454	0.462551	0.084960
	N275	N	0.821502	0.537166	0.914351
