data_Molecule from HDF5

_cell_length_a		16.736163
_cell_length_b		16.601171
_cell_length_c		16.644438
_cell_angle_alpha	90.013912
_cell_angle_beta	90.003788
_cell_angle_gamma	89.782947
_symmetry_space_group_name_H-M	'P 1'
_symmetry_Int_Tables_number		1

loop_
	_symmetry_equiv_pos_as_xyz
	x,y,z

loop_
	_atom_site_label
	_atom_site_type_symbol
	_atom_site_fract_x
	_atom_site_fract_y
	_atom_site_fract_z
	H0	H	0.390200	0.849918	0.714707
	H1	H	0.603967	0.157081	0.714270
	H2	H	0.601892	0.847390	0.271589
	H3	H	0.390673	0.157176	0.268717
	H4	H	0.720857	0.394557	0.837587
	H5	H	0.722722	0.613706	0.142995
	H6	H	0.276666	0.608140	0.836279
	H7	H	0.272994	0.394907	0.144006
	H8	H	0.845956	0.730349	0.381852
	H9	H	0.149850	0.726235	0.598680
	H10	H	0.843029	0.280555	0.599159
	H11	H	0.149997	0.280077	0.384683
	H12	H	0.844202	0.395443	0.716398
	H13	H	0.150262	0.609384	0.714612
	H14	H	0.845408	0.614197	0.265522
	H15	H	0.149075	0.395010	0.267509
	H16	H	0.391783	0.724163	0.836581
	H17	H	0.604449	0.726529	0.144232
	H18	H	0.604126	0.280281	0.837246
	H19	H	0.391380	0.281014	0.145781
	H20	H	0.720171	0.848700	0.385005
	H21	H	0.721168	0.156714	0.600324
	H22	H	0.272618	0.851038	0.600324
	H23	H	0.271745	0.156189	0.382440
	H24	H	0.887711	0.350062	0.215489
	H25	H	0.101205	0.657635	0.212550
	H26	H	0.101888	0.347973	0.770700
	H27	H	0.890641	0.658250	0.768681
	H28	H	0.222235	0.892892	0.338770
	H29	H	0.218997	0.109373	0.645211
	H30	H	0.771833	0.113031	0.339048
	H31	H	0.772377	0.893904	0.643245
	H32	H	0.345405	0.227993	0.883357
	H33	H	0.651732	0.224559	0.097158
	H34	H	0.343826	0.781631	0.097208
	H35	H	0.649569	0.777941	0.882986
	H36	H	0.343269	0.897694	0.213006
	H37	H	0.652178	0.106353	0.212171
	H38	H	0.345790	0.112703	0.765892
	H39	H	0.649415	0.891908	0.764937
	H40	H	0.888174	0.227562	0.338283
	H41	H	0.101462	0.224382	0.646116
	H42	H	0.107395	0.777025	0.339676
	H43	H	0.890263	0.779407	0.643867
	H44	H	0.218299	0.348553	0.885743
	H45	H	0.217907	0.657116	0.098012
	H46	H	0.773440	0.349780	0.099065
	H47	H	0.772974	0.657497	0.882926
	H48	H	0.415117	0.112187	0.577408
	H49	H	0.582157	0.895096	0.571971
	H50	H	0.583726	0.114675	0.401442
	H51	H	0.405372	0.891032	0.406384
	H52	H	0.585359	0.415143	0.102416
	H53	H	0.582587	0.586570	0.882414
	H54	H	0.409473	0.582529	0.099578
	H55	H	0.407033	0.418666	0.881058
	H56	H	0.104158	0.585060	0.406001
	H57	H	0.885817	0.593516	0.577611
	H58	H	0.106392	0.412535	0.577561
	H59	H	0.885816	0.419684	0.397730
	H60	H	0.106243	0.416353	0.580348
	H61	H	0.887672	0.589706	0.578641
	H62	H	0.106995	0.587635	0.400395
	H63	H	0.883867	0.409679	0.403347
	H64	H	0.413875	0.596904	0.102206
	H65	H	0.582074	0.592821	0.880454
	H66	H	0.587456	0.416453	0.102127
	H67	H	0.411550	0.413921	0.881521
	H68	H	0.585731	0.113818	0.404719
	H69	H	0.591164	0.891074	0.575673
	H70	H	0.406290	0.113387	0.573394
	H71	H	0.409639	0.889289	0.398889
	H72	H	0.909603	0.614045	0.078511
	H73	H	0.089518	0.388545	0.081531
	H74	H	0.088083	0.615430	0.903235
	H75	H	0.904242	0.393182	0.908213
	H76	H	0.084348	0.914549	0.602553
	H77	H	0.083822	0.091251	0.380323
	H78	H	0.912174	0.094597	0.602120
	H79	H	0.910911	0.916558	0.380802
	H80	H	0.606994	0.088798	0.904375
	H81	H	0.387818	0.089857	0.079268
	H82	H	0.607071	0.914371	0.076785
	H83	H	0.386312	0.918473	0.896050
	H84	H	0.608042	0.917780	0.083502
	H85	H	0.385917	0.092977	0.082810
	H86	H	0.608793	0.089710	0.902072
	H87	H	0.386087	0.909772	0.905463
	H88	H	0.903361	0.090588	0.604127
	H89	H	0.086376	0.091179	0.379859
	H90	H	0.087384	0.916926	0.602701
	H91	H	0.908742	0.916693	0.380079
	H92	H	0.084749	0.615781	0.900949
	H93	H	0.080880	0.392218	0.081578
	H94	H	0.911003	0.612555	0.076667
	H95	H	0.908977	0.389906	0.898542
	H96	H	0.408184	0.116460	0.582418
	H97	H	0.582224	0.891947	0.582338
	H98	H	0.586925	0.116215	0.402079
	H99	H	0.413472	0.894606	0.405294
	H100	H	0.585615	0.417432	0.100723
	H101	H	0.587731	0.589785	0.879211
	H102	H	0.400071	0.592781	0.106134
	H103	H	0.406585	0.413127	0.878209
	H104	H	0.106976	0.591569	0.406405
	H105	H	0.886028	0.591952	0.581953
	H106	H	0.108460	0.412571	0.581939
	H107	H	0.888631	0.418767	0.409170
	H108	H	0.908676	0.613875	0.076027
	H109	H	0.086526	0.392895	0.073917
	H110	H	0.085051	0.612968	0.904279
	H111	H	0.914976	0.395589	0.906424
	H112	H	0.083963	0.917856	0.600875
	H113	H	0.085040	0.089232	0.380731
	H114	H	0.910939	0.084794	0.600010
	H115	H	0.910038	0.918499	0.380914
	H116	H	0.608269	0.091440	0.904286
	H117	H	0.386398	0.094305	0.078201
	H118	H	0.609909	0.910289	0.082314
	H119	H	0.391059	0.921216	0.907673
	C120	C	0.376822	0.012174	0.611733
	C121	C	0.618775	0.994490	0.611695
	C122	C	0.618006	0.011877	0.370546
	C123	C	0.375931	0.994006	0.370095
	C124	C	0.619158	0.382220	0.000135
	C125	C	0.618069	0.624191	0.982126
	C126	C	0.375712	0.623746	0.000138
	C127	C	0.375743	0.381797	0.982496
	C128	C	0.005782	0.624144	0.369765
	C129	C	0.987982	0.624767	0.612984
	C130	C	0.005307	0.381249	0.613554
	C131	C	0.987595	0.382054	0.370102
	C132	C	0.875858	0.511907	0.111241
	C133	C	0.117872	0.493939	0.111756
	C134	C	0.118146	0.511851	0.870512
	C135	C	0.875725	0.494962	0.869973
	C136	C	0.119037	0.882064	0.500324
	C137	C	0.117643	0.123721	0.482585
	C138	C	0.875068	0.124465	0.500539
	C139	C	0.876870	0.882951	0.482313
	C140	C	0.506871	0.124244	0.869770
	C141	C	0.488613	0.125008	0.113034
	C142	C	0.506299	0.881607	0.112818
	C143	C	0.489010	0.882061	0.869573
	C144	C	0.372441	0.896381	0.673968
	C145	C	0.622295	0.110433	0.673999
	C146	C	0.620307	0.894280	0.311204
	C147	C	0.372008	0.110506	0.308668
	C148	C	0.680457	0.377356	0.884061
	C149	C	0.680870	0.629734	0.097258
	C150	C	0.316098	0.626617	0.883193
	C151	C	0.314349	0.377500	0.098233
	C152	C	0.891618	0.688609	0.364709
	C153	C	0.103801	0.685553	0.616505
	C154	C	0.889722	0.320520	0.617150
	C155	C	0.103364	0.320205	0.366786
	C156	C	0.889962	0.377911	0.675203
	C157	C	0.103942	0.627485	0.673937
	C158	C	0.891284	0.630819	0.306890
	C159	C	0.103066	0.377435	0.308577
	C160	C	0.373370	0.684333	0.883443
	C161	C	0.621946	0.685949	0.097873
	C162	C	0.622155	0.320707	0.883827
	C163	C	0.373143	0.320896	0.099053
	C164	C	0.679131	0.895154	0.367411
	C165	C	0.680413	0.110376	0.616969
	C166	C	0.314177	0.896758	0.617094
	C167	C	0.313366	0.110079	0.365121
	C168	C	0.871033	0.396404	0.174107
	C169	C	0.119669	0.610907	0.172172
	C170	C	0.120280	0.394756	0.810713
	C171	C	0.872558	0.611672	0.808983
	C172	C	0.181336	0.876394	0.384966
	C173	C	0.178438	0.127265	0.598975
	C174	C	0.812772	0.129954	0.385059
	C175	C	0.814249	0.877330	0.597583
	C176	C	0.391499	0.186757	0.865738
	C177	C	0.605349	0.184348	0.115409
	C178	C	0.390112	0.821696	0.115312
	C179	C	0.603793	0.819221	0.865504
	C180	C	0.389927	0.879556	0.172849
	C181	C	0.605705	0.125543	0.172297
	C182	C	0.391702	0.129643	0.807288
	C183	C	0.603581	0.875956	0.806723
	C184	C	0.870856	0.186796	0.384827
	C185	C	0.120067	0.184344	0.599352
	C186	C	0.124162	0.818708	0.385368
	C187	C	0.872697	0.820440	0.597955
	C188	C	0.178236	0.394937	0.867849
	C189	C	0.177822	0.610597	0.115379
	C190	C	0.813996	0.396088	0.116224
	C191	C	0.814059	0.611263	0.865583
	C192	C	0.402554	0.093045	0.585218
	C193	C	0.592607	0.913684	0.584448
	C194	C	0.592713	0.093696	0.395510
	C195	C	0.402052	0.912848	0.396120
	C196	C	0.593507	0.408866	0.080930
	C197	C	0.591610	0.597263	0.901724
	C198	C	0.400611	0.597969	0.081447
	C199	C	0.401055	0.407922	0.901402
	C200	C	0.085271	0.596042	0.396673
	C201	C	0.907506	0.599322	0.586823
	C202	C	0.086065	0.406704	0.587559
	C203	C	0.907038	0.408630	0.395938
	C204	C	0.902106	0.592503	0.084484
	C205	C	0.092772	0.412271	0.086474
	C206	C	0.093069	0.593382	0.895734
	C207	C	0.902003	0.413944	0.896574
	C208	C	0.092567	0.908979	0.580960
	C209	C	0.092356	0.098060	0.401436
	C210	C	0.901357	0.097444	0.581086
	C211	C	0.902813	0.909603	0.401733
	C212	C	0.587167	0.097439	0.896194
	C213	C	0.407786	0.099757	0.087312
	C214	C	0.587180	0.906815	0.087844
	C215	C	0.408582	0.908981	0.895786
	Zn216	Zn	0.497864	0.003124	0.740373
	Zn217	Zn	0.497314	0.003075	0.241791
	Zn218	Zn	0.747041	0.503583	-0.009535
	Zn219	Zn	0.247024	0.503003	-0.008708
	Zn220	Zn	-0.002184	0.753736	0.491133
	Zn221	Zn	-0.003665	0.252860	0.491729
	Zn222	Zn	-0.002908	0.503118	0.741776
	Zn223	Zn	-0.003344	0.503071	0.240119
	Zn224	Zn	0.497048	0.753090	-0.009243
	Zn225	Zn	0.498219	0.253657	-0.008790
	Zn226	Zn	0.747298	0.003129	0.490914
	Zn227	Zn	0.247529	0.003035	0.490975
	N228	N	0.410799	0.969127	0.670721
	N229	N	0.584643	0.037322	0.670819
	N230	N	0.582973	0.968121	0.312861
	N231	N	0.410220	0.037239	0.311394
	N232	N	0.678638	0.415088	0.957329
	N233	N	0.678692	0.592090	0.024091
	N234	N	0.317031	0.589811	0.956909
	N235	N	0.315754	0.414542	0.024644
	N236	N	0.963970	0.684781	0.403039
	N237	N	0.030696	0.684155	0.579259
	N238	N	0.962620	0.322240	0.579474
	N239	N	0.030343	0.322541	0.404163
	N240	N	0.962956	0.414943	0.673077
	N241	N	0.030758	0.590421	0.672012
	N242	N	0.963281	0.591233	0.309814
	N243	N	0.029773	0.414786	0.309901
	N244	N	0.409617	0.683086	0.957367
	N245	N	0.583629	0.682954	0.025184
	N246	N	0.584671	0.323480	0.957047
	N247	N	0.410868	0.323445	0.025907
	N248	N	0.677773	0.969338	0.403715
	N249	N	0.678585	0.037032	0.579003
	N250	N	0.316668	0.969816	0.578871
	N251	N	0.315719	0.036603	0.402635
	N252	N	0.908943	0.469350	0.171241
	N253	N	0.083192	0.537063	0.170209
	N254	N	0.083614	0.468554	0.811970
	N255	N	0.910297	0.538138	0.811593
	N256	N	0.178604	0.914979	0.457702
	N257	N	0.177395	0.090444	0.525206
	N258	N	0.814943	0.092065	0.458250
	N259	N	0.816649	0.915597	0.524710
	N260	N	0.464109	0.183641	0.904003
	N261	N	0.531604	0.184117	0.079389
	N262	N	0.463534	0.822484	0.078899
	N263	N	0.531358	0.822831	0.903858
	N264	N	0.463277	0.915981	0.171846
	N265	N	0.531929	0.089491	0.171432
	N266	N	0.464417	0.091251	0.809744
	N267	N	0.530795	0.914286	0.808864
	N268	N	0.909028	0.183502	0.457684
	N269	N	0.082925	0.182391	0.525994
	N270	N	0.086067	0.822074	0.458196
	N271	N	0.910971	0.823728	0.525132
	N272	N	0.177086	0.468888	0.904315
	N273	N	0.176946	0.536736	0.078403
	N274	N	0.816513	0.469170	0.077969
	N275	N	0.815757	0.537555	0.902647
	O276	O	-0.010655	1.081715	-0.170497
	H277	H	-0.016417	1.070490	-0.186568
	H278	H	-0.009585	1.076320	-0.180509
	O279	O	0.777811	0.789261	1.016242
	H280	H	0.759938	0.776657	1.025819
	H281	H	0.773360	0.782567	1.025112
	O282	O	0.783733	-0.033066	1.206945
	H283	H	0.789217	-0.022448	1.219257
	H284	H	0.784760	-0.014466	1.208514
	O285	O	0.304544	0.321170	0.308336
	H286	H	0.285543	0.300461	0.300174
	H287	H	0.302115	0.330485	0.300153
	O288	O	0.711645	0.716149	0.701233
	H289	H	0.686746	0.694904	0.702171
	H290	H	0.712744	0.715720	0.671850
	O291	O	0.279825	0.726378	0.475085
	H292	H	0.271363	0.723063	0.436996
	H293	H	0.256984	0.735689	0.467393
	O294	O	1.207931	-0.202958	0.783549
	H295	H	1.191296	-0.186823	0.778547
	H296	H	1.232365	-0.231651	0.752076
	O297	O	0.591635	0.612636	0.269482
	H298	H	0.589768	0.589499	0.270884
	H299	H	0.601780	0.615522	0.278278
	O300	O	0.021986	0.222653	1.212275
	H301	H	0.021115	0.223966	1.226146
	H302	H	0.035389	0.230329	1.217107
	O303	O	0.529594	0.282581	0.269586
	H304	H	0.508665	0.289778	0.268947
	H305	H	0.522423	0.271941	0.243890
	O306	O	0.705083	0.294281	0.280595
	H307	H	0.718951	0.290277	0.284577
	H308	H	0.660126	0.288819	0.284565
	O309	O	0.283472	0.709364	0.281789
	H310	H	0.316189	0.700753	0.280865
	H311	H	0.251816	0.741271	0.249477
	O312	O	0.415811	0.277550	0.431619
	H313	H	0.413415	0.277422	0.430299
	H314	H	0.404060	0.273820	0.435252
	O315	O	0.695117	0.502915	1.434500
	H316	H	0.680104	0.490159	1.414659
	H317	H	0.692423	0.512696	1.447792
	O318	O	0.458666	0.722396	0.267712
	H319	H	0.456662	0.721622	0.258828
	H320	H	0.472879	0.732293	0.254309
	O321	O	-0.726564	0.462193	0.709478
	H322	H	-0.717750	0.447954	0.713145
	H323	H	-0.750043	0.472873	0.721423
	O324	O	1.228619	1.011278	-0.159860
	H325	H	1.240459	1.023698	-0.155319
	H326	H	1.233652	1.008301	-0.176760
	O327	O	0.105771	0.189834	1.043310
	H328	H	0.093443	0.177972	1.020925
	H329	H	0.109067	0.201778	1.031731
	O330	O	0.557796	0.410818	0.554442
	H331	H	0.558231	0.423659	0.537887
	H332	H	0.556747	0.403163	0.552845
	O333	O	0.288529	0.287915	0.607122
	H334	H	0.258181	0.258748	0.624828
	H335	H	0.295436	0.320320	0.604426
	O336	O	0.713364	0.712262	0.515066
	H337	H	0.713313	0.710995	0.508673
	H338	H	0.716420	0.721939	0.512890
	O339	O	0.773076	0.024401	0.768973
	H340	H	0.754357	0.022116	0.743926
	H341	H	0.778517	0.023722	0.772837
	O342	O	0.556287	-0.274560	0.413388
	H343	H	0.553547	-0.265641	0.417784
	H344	H	0.552760	-0.289441	0.405754
	O345	O	-0.202156	1.031226	1.003220
	H346	H	-0.205827	1.024949	0.985060
	H347	H	-0.205013	1.031552	0.998323
	O348	O	-0.007788	-0.106738	0.119254
	H349	H	-0.003792	-0.123095	0.124605
	H350	H	-0.033651	-0.108763	0.114221
	O351	O	-0.011882	-0.182870	0.839061
	H352	H	-0.014697	-0.182150	0.837057
	H353	H	-0.007207	-0.198548	0.831331
	O354	O	-0.281153	0.282049	0.471458
	H355	H	-0.278765	0.278256	0.468813
	H356	H	-0.269956	0.268260	0.464174
	O357	O	0.499459	0.690959	0.701957
	H358	H	0.509048	0.711518	0.710277
	H359	H	0.491731	0.685963	0.684968
	O360	O	0.719586	0.528081	0.713517
	H361	H	0.753840	0.531835	0.746422
	H362	H	0.705651	0.527782	0.696494
	O363	O	0.025735	-0.190001	0.146322
	H364	H	0.015991	-0.203782	0.150883
	H365	H	0.009799	-0.194035	0.129529
	O366	O	0.496465	0.564122	0.710919
	H367	H	0.505221	0.574055	0.707235
	H368	H	0.507967	0.561408	0.719340
	O369	O	0.906005	-0.083352	-0.211080
	H370	H	0.904656	-0.095436	-0.228173
	H371	H	0.921205	-0.076996	-0.197100
	O372	O	1.243286	1.245560	-0.255593
	H373	H	1.247016	1.243953	-0.250727
	H374	H	1.242051	1.236597	-0.260566
	O375	O	1.009210	-0.061006	-0.064551
	H376	H	1.007127	-0.077667	-0.075545
	H377	H	1.013353	-0.048905	-0.065150
	O378	O	0.658088	0.355680	0.667301
	H379	H	0.663848	0.346127	0.674131
	H380	H	0.658643	0.368563	0.664480
	O381	O	0.134709	0.945216	0.996791
	H382	H	0.131532	0.940564	0.988370
	H383	H	0.130894	0.934434	1.008227
	O384	O	0.972805	-0.168204	0.915966
	H385	H	0.977685	-0.173305	0.913111
	H386	H	0.973952	-0.166647	0.913474
	O387	O	1.718084	1.489734	0.269299
	H388	H	1.741518	1.474359	0.241542
	H389	H	1.719348	1.470186	0.288589
	O390	O	0.277785	0.529091	0.272784
	H391	H	0.263362	0.544381	0.268116
	H392	H	0.269402	0.540682	0.268226
	O393	O	0.675635	0.440222	0.564007
	H394	H	0.662700	0.435723	0.577419
	H395	H	0.674583	0.437278	0.565464
	O396	O	0.268903	0.538524	0.518140
	H397	H	0.268229	0.530057	0.504178
	H398	H	0.270918	0.526667	0.508330
	O399	O	0.145584	0.134555	0.820984
	H400	H	0.161836	0.156357	0.814975
	H401	H	0.131135	0.128310	0.819121
	O402	O	0.162983	0.948638	-0.070957
	H403	H	0.164896	0.948154	-0.064699
	H404	H	0.158187	0.940620	-0.075368
	O405	O	0.539187	-0.693332	1.497820
	H406	H	0.550544	-0.700243	1.483329
	H407	H	0.537415	-0.692016	1.512189
	O408	O	0.000370	-0.165834	0.017567
	H409	H	-0.006617	-0.164931	0.008737
	H410	H	-0.013308	-0.163753	0.011598
	O411	O	0.512934	0.582995	0.382158
	H412	H	0.519046	0.572621	0.380693
	H413	H	0.503660	0.578720	0.372287
	O414	O	0.975004	0.233399	0.848868
	H415	H	0.952294	0.233903	0.844542
	H416	H	0.968445	0.234759	0.834144
	O417	O	0.224273	0.781373	0.964513
	H418	H	0.220977	0.789971	0.931470
	H419	H	0.254938	0.753112	0.955038
	O420	O	0.521402	0.427346	0.695519
	H421	H	0.524221	0.426366	0.697923
	H422	H	0.524509	0.411540	0.693298
	O423	O	-0.563356	-0.267122	1.546184
	H424	H	-0.594956	-0.263566	1.538920
	H425	H	-0.562964	-0.270930	1.532040
	O426	O	0.709045	0.718865	0.279701
	H427	H	0.699976	0.709777	0.290102
	H428	H	0.698728	0.719369	0.288093
	O429	O	0.932631	1.033543	0.804635
	H430	H	0.915359	1.041097	0.795113
	H431	H	0.925618	1.026736	0.813840
	O432	O	0.303515	0.697391	0.682778
	H433	H	0.327613	0.671205	0.674448
	H434	H	0.312224	0.686008	0.650780
	O435	O	0.214326	1.104071	0.048730
	H436	H	0.201683	1.098275	0.045109
	H437	H	0.227717	1.112807	0.035363
	O438	O	-0.045793	0.071575	0.207822
	H439	H	-0.035989	0.075673	0.207785
	H440	H	-0.025285	0.062043	0.199345
	O441	O	0.217780	0.026840	0.210986
	H442	H	0.224235	0.029485	0.227022
	H443	H	0.229426	0.020951	0.206902
	O444	O	0.304176	0.517105	0.456415
	H445	H	0.294694	0.510067	0.462516
	H446	H	0.314837	0.503151	0.446724
	O447	O	0.187175	0.811059	1.183587
	H448	H	0.166843	0.832116	1.168897
	H449	H	0.166237	0.819581	1.162576
	O450	O	-0.542406	1.493255	0.638398
	H451	H	-0.551590	1.493569	0.652646
	H452	H	-0.529376	1.488743	0.636351
	O453	O	0.211821	0.215805	0.207106
	H454	H	0.183062	0.198947	0.207052
	H455	H	0.214466	0.202689	0.173716
	O456	O	-0.066646	0.151718	1.058716
	H457	H	-0.056109	0.141268	1.058551
	H458	H	-0.057175	0.149556	1.055342
	O459	O	0.450686	0.453160	0.333239
	H460	H	0.432953	0.450354	0.327505
	H461	H	0.457709	0.466740	0.342247
	O462	O	0.799331	0.209700	0.794861
	H463	H	0.796161	0.192979	0.825491
	H464	H	0.789346	0.205864	0.800899
	O465	O	1.571440	-0.509165	0.541468
	H466	H	1.566658	-0.504100	0.551257
	H467	H	1.565647	-0.506104	0.536991
	O468	O	0.781619	0.215851	-0.040023
	H469	H	0.765885	0.237993	-0.025479
	H470	H	0.798202	0.211431	-0.018451
	O471	O	0.857138	0.827485	1.153027
	H472	H	0.850085	0.852279	1.148836
	H473	H	0.853703	0.819129	1.161369
	O474	O	-0.204495	0.906130	-0.072899
	H475	H	-0.203789	0.899886	-0.079972
	H476	H	-0.205423	0.891422	-0.071469
	O477	O	0.321904	0.365909	1.452313
	H478	H	0.336427	0.360702	1.459354
	H479	H	0.320731	0.347138	1.453587
	O480	O	0.804436	0.192994	0.181910
	H481	H	0.827489	0.174078	0.176583
	H482	H	0.798917	0.206684	0.189892
	O483	O	0.140388	1.063171	-0.177768
	H484	H	0.136979	1.057262	-0.175685
	H485	H	0.148644	1.053221	-0.184317
	O486	O	1.652318	-0.374903	0.527498
	H487	H	1.638399	-0.389896	0.529205
	H488	H	1.648419	-0.390224	0.523478
	O489	O	1.495417	1.452101	0.350885
	H490	H	1.481085	1.466199	0.359331
	H491	H	1.492433	1.439612	0.352961
	O492	O	0.463614	0.289352	-0.295219
	H493	H	0.457842	0.277203	-0.296803
	H494	H	0.464828	0.282256	-0.290062
	O495	O	-0.020489	1.081082	1.010630
	H496	H	-0.024215	1.083184	0.997665
	H497	H	-0.021345	1.067334	1.011546
	O498	O	1.057305	0.949749	1.202624
	H499	H	1.047726	0.916228	1.206177
	H500	H	1.072316	0.956573	1.183618
	O501	O	0.876041	1.065922	0.985819
	H502	H	0.876092	1.069392	0.984685
	H503	H	0.869252	1.057902	1.003426
