data_Molecule from HDF5

_cell_length_a		16.327785
_cell_length_b		16.263886
_cell_length_c		16.298883
_cell_angle_alpha	90.031813
_cell_angle_beta	89.967087
_cell_angle_gamma	90.053238
_symmetry_space_group_name_H-M	'P 1'
_symmetry_Int_Tables_number		1

loop_
	_symmetry_equiv_pos_as_xyz
	x,y,z

loop_
	_atom_site_label
	_atom_site_type_symbol
	_atom_site_fract_x
	_atom_site_fract_y
	_atom_site_fract_z
	H0	H	0.402083	0.843954	0.712938
	H1	H	0.599411	0.171587	0.713577
	H2	H	0.599422	0.845071	0.284304
	H3	H	0.402830	0.172621	0.284667
	H4	H	0.717190	0.408861	0.835965
	H5	H	0.717018	0.607193	0.162548
	H6	H	0.287470	0.606819	0.835600
	H7	H	0.285892	0.409012	0.162067
	H8	H	0.838072	0.723080	0.399517
	H9	H	0.164161	0.724804	0.598025
	H10	H	0.838331	0.294582	0.596654
	H11	H	0.164964	0.292699	0.399471
	H12	H	0.837899	0.409817	0.713461
	H13	H	0.165057	0.608306	0.714020
	H14	H	0.838089	0.606697	0.284347
	H15	H	0.164441	0.408926	0.282463
	H16	H	0.403871	0.722425	0.835293
	H17	H	0.600300	0.722964	0.162433
	H18	H	0.599888	0.293971	0.835295
	H19	H	0.402830	0.293067	0.162898
	H20	H	0.715009	0.844440	0.400212
	H21	H	0.715773	0.171941	0.598677
	H22	H	0.286814	0.844230	0.596706
	H23	H	0.286806	0.172197	0.400463
	H24	H	0.902880	0.344171	0.213261
	H25	H	0.101737	0.672124	0.214130
	H26	H	0.101250	0.344799	0.783403
	H27	H	0.904178	0.671813	0.784727
	H28	H	0.216942	0.908173	0.335803
	H29	H	0.217259	0.107992	0.661896
	H30	H	0.785674	0.107837	0.335771
	H31	H	0.785289	0.909220	0.662427
	H32	H	0.337960	0.222324	0.900598
	H33	H	0.664633	0.222874	0.096951
	H34	H	0.338422	0.793114	0.096668
	H35	H	0.665201	0.794239	0.900335
	H36	H	0.338284	0.909059	0.213750
	H37	H	0.664534	0.107733	0.213534
	H38	H	0.338073	0.105845	0.784475
	H39	H	0.664545	0.909180	0.783468
	H40	H	0.903617	0.222754	0.335455
	H41	H	0.099346	0.222533	0.663070
	H42	H	0.098321	0.794734	0.335154
	H43	H	0.901797	0.792785	0.662229
	H44	H	0.215935	0.344306	0.900707
	H45	H	0.218264	0.671755	0.098941
	H46	H	0.786396	0.344727	0.098027
	H47	H	0.786713	0.672067	0.899484
	H48	H	0.415577	0.124004	0.595826
	H49	H	0.591619	0.892156	0.593652
	H50	H	0.590731	0.122028	0.413365
	H51	H	0.411602	0.894467	0.409515
	H52	H	0.592066	0.415695	0.113772
	H53	H	0.594893	0.600008	0.883437
	H54	H	0.399884	0.596109	0.116703
	H55	H	0.409537	0.413860	0.882959
	H56	H	0.117567	0.602624	0.405353
	H57	H	0.886706	0.598357	0.591705
	H58	H	0.120395	0.415467	0.600630
	H59	H	0.885097	0.415558	0.402984
	H60	H	0.118219	0.407629	0.586976
	H61	H	0.885124	0.601418	0.592613
	H62	H	0.116815	0.602026	0.407114
	H63	H	0.885891	0.413948	0.407956
	H64	H	0.417225	0.595515	0.111443
	H65	H	0.594464	0.601486	0.883244
	H66	H	0.594395	0.413367	0.115483
	H67	H	0.407642	0.414108	0.882381
	H68	H	0.602313	0.127834	0.405391
	H69	H	0.592305	0.893191	0.587444
	H70	H	0.408460	0.122348	0.584047
	H71	H	0.403004	0.890849	0.407203
	H72	H	0.906950	0.623937	0.087902
	H73	H	0.099753	0.390031	0.093317
	H74	H	0.090833	0.622600	0.907369
	H75	H	0.907740	0.390953	0.904800
	H76	H	0.093647	0.922588	0.612904
	H77	H	0.089337	0.098623	0.385441
	H78	H	0.906702	0.103519	0.616124
	H79	H	0.913678	0.912221	0.383276
	H80	H	0.617101	0.100844	0.906542
	H81	H	0.386962	0.102955	0.085737
	H82	H	0.619019	0.913122	0.094489
	H83	H	0.387237	0.919284	0.904208
	H84	H	0.616970	0.914457	0.090000
	H85	H	0.386292	0.094180	0.093546
	H86	H	0.616798	0.100042	0.905776
	H87	H	0.383615	0.912149	0.903092
	H88	H	0.905609	0.099449	0.615695
	H89	H	0.094303	0.106369	0.381379
	H90	H	0.089116	0.912495	0.614117
	H91	H	0.901660	0.914095	0.380495
	H92	H	0.098730	0.624856	0.909183
	H93	H	0.087404	0.393944	0.094226
	H94	H	0.906515	0.626939	0.095574
	H95	H	0.909159	0.392266	0.906147
	H96	H	0.401806	0.127877	0.596212
	H97	H	0.597300	0.890935	0.591167
	H98	H	0.588849	0.126004	0.399093
	H99	H	0.409724	0.891377	0.400340
	H100	H	0.596399	0.417000	0.115588
	H101	H	0.595705	0.601079	0.882361
	H102	H	0.410229	0.610844	0.117655
	H103	H	0.408208	0.415818	0.883799
	H104	H	0.116819	0.600713	0.405048
	H105	H	0.886931	0.601011	0.589722
	H106	H	0.114255	0.423029	0.588321
	H107	H	0.887578	0.418973	0.406769
	H108	H	0.913400	0.623283	0.092535
	H109	H	0.093122	0.395109	0.083182
	H110	H	0.095795	0.625975	0.902245
	H111	H	0.907361	0.391314	0.906731
	H112	H	0.099438	0.914535	0.617279
	H113	H	0.098361	0.097474	0.382409
	H114	H	0.909805	0.101176	0.614712
	H115	H	0.907882	0.922995	0.385660
	H116	H	0.617784	0.101453	0.905335
	H117	H	0.382828	0.104827	0.096490
	H118	H	0.617042	0.918425	0.094361
	H119	H	0.386466	0.913494	0.910346
	C120	C	0.379979	0.016237	0.620093
	C121	C	0.622556	0.999827	0.619975
	C122	C	0.622677	0.016796	0.377301
	C123	C	0.379368	1.000395	0.377168
	C124	C	0.623098	0.386943	0.006932
	C125	C	0.623761	0.629625	0.991016
	C126	C	0.380951	0.629252	0.007166
	C127	C	0.380101	0.386314	0.990880
	C128	C	0.009357	0.630246	0.377044
	C129	C	0.993569	0.630061	0.620453
	C130	C	0.009914	0.386617	0.620649
	C131	C	0.993673	0.386699	0.376638
	C132	C	0.880079	0.516512	0.120725
	C133	C	0.123156	0.500667	0.119850
	C134	C	0.123832	0.516564	0.877192
	C135	C	0.880261	0.499993	0.877703
	C136	C	0.122580	0.887325	0.507000
	C137	C	0.122735	0.129605	0.490935
	C138	C	0.879115	0.130383	0.507569
	C139	C	0.879028	0.887015	0.490939
	C140	C	0.509657	0.129458	0.877044
	C141	C	0.493238	0.129674	0.120386
	C142	C	0.509846	0.886522	0.120937
	C143	C	0.493322	0.886367	0.876973
	C144	C	0.382093	0.892828	0.675050
	C145	C	0.619663	0.123029	0.675342
	C146	C	0.620114	0.893939	0.322102
	C147	C	0.382144	0.123651	0.322256
	C148	C	0.678592	0.389072	0.884447
	C149	C	0.679130	0.627729	0.113776
	C150	C	0.325826	0.626772	0.884234
	C151	C	0.323833	0.388179	0.113547
	C152	C	0.886701	0.685014	0.379314
	C153	C	0.115786	0.686511	0.618423
	C154	C	0.886879	0.331989	0.617832
	C155	C	0.116047	0.330869	0.379075
	C156	C	0.886899	0.389384	0.675770
	C157	C	0.116292	0.628571	0.676065
	C158	C	0.886978	0.627211	0.321949
	C159	C	0.115875	0.388378	0.320920
	C160	C	0.383728	0.684250	0.884005
	C161	C	0.621215	0.685104	0.113780
	C162	C	0.620526	0.331659	0.884257
	C163	C	0.382154	0.330970	0.113962
	C164	C	0.677434	0.893595	0.379892
	C165	C	0.677755	0.123125	0.618492
	C166	C	0.324743	0.893025	0.617385
	C167	C	0.324261	0.123397	0.379545
	C168	C	0.882432	0.393336	0.175791
	C169	C	0.121873	0.623370	0.175847
	C170	C	0.121191	0.393437	0.821841
	C171	C	0.883303	0.623199	0.822631
	C172	C	0.178262	0.888900	0.384250
	C173	C	0.178676	0.128006	0.613625
	C174	C	0.823950	0.128150	0.384273
	C175	C	0.823348	0.888584	0.613592
	C176	C	0.386758	0.184320	0.880247
	C177	C	0.615904	0.184936	0.117752
	C178	C	0.387099	0.831061	0.117632
	C179	C	0.616328	0.831851	0.879788
	C180	C	0.387031	0.888635	0.175782
	C181	C	0.615762	0.127854	0.175836
	C182	C	0.386878	0.126751	0.822209
	C183	C	0.615997	0.888634	0.821442
	C184	C	0.882428	0.185187	0.384272
	C185	C	0.119977	0.184783	0.614098
	C186	C	0.119870	0.831963	0.384094
	C187	C	0.881156	0.830906	0.613451
	C188	C	0.178933	0.393474	0.879559
	C189	C	0.179684	0.623189	0.118651
	C190	C	0.824764	0.393390	0.118385
	C191	C	0.824811	0.623052	0.879406
	C192	C	0.401906	0.102414	0.598265
	C193	C	0.600384	0.914158	0.597399
	C194	C	0.600613	0.102984	0.399646
	C195	C	0.401691	0.914372	0.399246
	C196	C	0.600772	0.408993	0.092947
	C197	C	0.601608	0.607628	0.905276
	C198	C	0.402737	0.607288	0.093071
	C199	C	0.402137	0.408025	0.905246
	C200	C	0.095004	0.608201	0.399370
	C201	C	0.908232	0.607016	0.597964
	C202	C	0.095430	0.408727	0.598448
	C203	C	0.908178	0.409425	0.399203
	C204	C	0.902251	0.602488	0.098543
	C205	C	0.100026	0.415087	0.096866
	C206	C	0.101577	0.602496	0.899507
	C207	C	0.901868	0.414012	0.899565
	C208	C	0.100511	0.909806	0.592750
	C209	C	0.100548	0.107446	0.405257
	C210	C	0.900847	0.108056	0.593142
	C211	C	0.901444	0.909764	0.405324
	C212	C	0.595225	0.107227	0.899194
	C213	C	0.407546	0.107362	0.098386
	C214	C	0.595721	0.908738	0.099259
	C215	C	0.407996	0.908479	0.899329
	Zn216	Zn	0.501032	0.007394	0.748423
	Zn217	Zn	0.501165	0.008925	0.249334
	Zn218	Zn	0.751984	0.508326	-0.000775
	Zn219	Zn	0.251860	0.508244	-0.000963
	Zn220	Zn	0.001201	0.758478	0.498492
	Zn221	Zn	0.001403	0.258273	0.499164
	Zn222	Zn	0.001796	0.508364	0.748891
	Zn223	Zn	0.001850	0.508549	0.248260
	Zn224	Zn	0.502084	0.758299	-0.001348
	Zn225	Zn	0.501709	0.257886	-0.000762
	Zn226	Zn	0.750736	0.008817	0.499062
	Zn227	Zn	0.251610	0.008507	0.499046
	N228	N	0.415800	0.970401	0.676802
	N229	N	0.585868	0.045520	0.676295
	N230	N	0.586723	0.971524	0.320560
	N231	N	0.415581	0.046009	0.320539
	N232	N	0.680005	0.422819	0.961719
	N233	N	0.680819	0.594137	0.036439
	N234	N	0.323933	0.593450	0.961751
	N235	N	0.322450	0.421871	0.036174
	N236	N	0.963950	0.687011	0.412769
	N237	N	0.038744	0.687376	0.584494
	N238	N	0.964036	0.330374	0.584269
	N239	N	0.038827	0.329805	0.413084
	N240	N	0.964434	0.422817	0.677738
	N241	N	0.039294	0.593923	0.677273
	N242	N	0.964358	0.593616	0.320534
	N243	N	0.038811	0.422225	0.319325
	N244	N	0.417319	0.685833	0.961482
	N245	N	0.587407	0.686448	0.036437
	N246	N	0.586482	0.330381	0.961487
	N247	N	0.416309	0.329538	0.036836
	N248	N	0.679133	0.971314	0.413535
	N249	N	0.679532	0.045580	0.584689
	N250	N	0.323212	0.970759	0.584125
	N251	N	0.322586	0.045781	0.412962
	N252	N	0.916262	0.471015	0.177333
	N253	N	0.087328	0.546215	0.176742
	N254	N	0.087705	0.471123	0.820057
	N255	N	0.916998	0.545756	0.821250
	N256	N	0.180063	0.922699	0.461693
	N257	N	0.180448	0.094442	0.536178
	N258	N	0.821962	0.094624	0.461851
	N259	N	0.821873	0.922761	0.536461
	N260	N	0.464057	0.186120	0.913748
	N261	N	0.538880	0.185696	0.083796
	N262	N	0.464489	0.829943	0.084021
	N263	N	0.539192	0.830249	0.913530
	N264	N	0.464414	0.922324	0.177906
	N265	N	0.538406	0.094202	0.177496
	N266	N	0.464287	0.093319	0.820095
	N267	N	0.538613	0.921960	0.819666
	N268	N	0.916145	0.186550	0.461641
	N269	N	0.085894	0.185815	0.536875
	N270	N	0.085836	0.831095	0.461294
	N271	N	0.915229	0.830052	0.536167
	N272	N	0.180364	0.470886	0.913291
	N273	N	0.180489	0.545691	0.084641
	N274	N	0.823119	0.470889	0.084901
	N275	N	0.822896	0.545478	0.912991
	O276	O	0.510298	0.474422	0.509413
	H277	H	0.503977	0.473226	0.513483
	H278	H	0.510555	0.471625	0.510457
	O279	O	0.035547	0.052145	0.000160
	H280	H	0.040532	0.043351	0.002864
	H281	H	0.032675	0.053648	-0.000256
	O282	O	1.013661	-0.003584	1.015259
	H283	H	1.008625	-0.007835	1.026191
	H284	H	1.015810	-0.012503	1.011490
	O285	O	0.503354	0.517757	0.514589
	H286	H	0.505520	0.514247	0.513613
	H287	H	0.505331	0.517013	0.518898
	O288	O	1.026304	0.030117	-0.029653
	H289	H	1.024789	0.023974	-0.030391
	H290	H	1.021354	0.031778	-0.030566
	O291	O	-0.517092	0.494222	-0.497665
	H292	H	-0.512467	0.488833	-0.501164
	H293	H	-0.516492	0.494170	-0.500524
	O294	O	0.499473	0.509599	0.539897
	H295	H	0.502489	0.500647	0.547735
	H296	H	0.496801	0.506782	0.541612
	O297	O	0.032247	0.987920	0.033656
	H298	H	0.039165	0.994011	0.034828
	H299	H	0.042368	0.983445	0.029835
	O300	O	1.020698	-0.016611	0.976734
	H301	H	1.025022	-0.006021	0.984666
	H302	H	1.013418	-0.011816	0.973657
	O303	O	0.478815	0.533739	0.541632
	H304	H	0.474327	0.534502	0.541094
	H305	H	0.484378	0.543897	0.535661
	O306	O	0.056111	1.005889	1.015366
	H307	H	0.056389	1.012395	1.012490
	H308	H	0.057522	1.008490	1.006784
	O309	O	0.475676	0.529648	0.507163
	H310	H	0.474552	0.533580	0.504540
	H311	H	0.474246	0.532582	0.505243
