data_Molecule from HDF5

_cell_length_a		16.308922
_cell_length_b		16.289822
_cell_length_c		16.351906
_cell_angle_alpha	90.024477
_cell_angle_beta	89.943599
_cell_angle_gamma	89.965387
_symmetry_space_group_name_H-M	'P 1'
_symmetry_Int_Tables_number		1

loop_
	_symmetry_equiv_pos_as_xyz
	x,y,z

loop_
	_atom_site_label
	_atom_site_type_symbol
	_atom_site_fract_x
	_atom_site_fract_y
	_atom_site_fract_z
	H0	H	0.401367	0.836491	0.714718
	H1	H	0.598215	0.163412	0.714168
	H2	H	0.599030	0.835905	0.284720
	H3	H	0.400521	0.163177	0.285019
	H4	H	0.714341	0.402388	0.836552
	H5	H	0.714611	0.597867	0.163247
	H6	H	0.286456	0.597132	0.836535
	H7	H	0.285311	0.401975	0.163110
	H8	H	0.836162	0.713380	0.403487
	H9	H	0.164430	0.713529	0.597174
	H10	H	0.835869	0.286804	0.597924
	H11	H	0.163831	0.286724	0.403438
	H12	H	0.837052	0.400966	0.716151
	H13	H	0.163578	0.598343	0.714853
	H14	H	0.836557	0.599170	0.285222
	H15	H	0.163714	0.402048	0.285999
	H16	H	0.403483	0.713236	0.836826
	H17	H	0.597408	0.713876	0.163698
	H18	H	0.596583	0.286563	0.836873
	H19	H	0.401747	0.285303	0.163554
	H20	H	0.714536	0.836127	0.402281
	H21	H	0.713823	0.163254	0.597055
	H22	H	0.286465	0.835915	0.596848
	H23	H	0.285323	0.162904	0.401806
	H24	H	0.900573	0.336785	0.215289
	H25	H	0.098015	0.664181	0.213731
	H26	H	0.098442	0.336397	0.785589
	H27	H	0.902833	0.664122	0.786548
	H28	H	0.214971	0.901583	0.336539
	H29	H	0.213994	0.098308	0.662872
	H30	H	0.786022	0.097122	0.336483
	H31	H	0.784701	0.901232	0.663141
	H32	H	0.336242	0.213727	0.903890
	H33	H	0.663821	0.213437	0.097019
	H34	H	0.335959	0.786718	0.096954
	H35	H	0.663916	0.787048	0.903451
	H36	H	0.336675	0.901394	0.215363
	H37	H	0.663417	0.099400	0.214686
	H38	H	0.337029	0.099940	0.784618
	H39	H	0.663057	0.901409	0.784526
	H40	H	0.902967	0.213915	0.336680
	H41	H	0.097003	0.214707	0.663344
	H42	H	0.097381	0.785760	0.336370
	H43	H	0.901377	0.785074	0.662682
	H44	H	0.214718	0.336210	0.901700
	H45	H	0.213322	0.664014	0.096095
	H46	H	0.786654	0.336574	0.096984
	H47	H	0.785593	0.663993	0.902372
	H48	H	0.408677	0.114844	0.590556
	H49	H	0.590926	0.884289	0.591344
	H50	H	0.585567	0.112807	0.409856
	H51	H	0.414492	0.884807	0.403728
	H52	H	0.591751	0.404902	0.115826
	H53	H	0.599217	0.591253	0.882732
	H54	H	0.392003	0.590311	0.119800
	H55	H	0.404524	0.405545	0.883476
	H56	H	0.110590	0.584150	0.417148
	H57	H	0.885483	0.596942	0.584410
	H58	H	0.117216	0.404543	0.594113
	H59	H	0.880302	0.393289	0.408724
	H60	H	0.115171	0.407301	0.591652
	H61	H	0.886349	0.583667	0.596891
	H62	H	0.118155	0.587024	0.392950
	H63	H	0.888584	0.415316	0.416559
	H64	H	0.414772	0.583207	0.110697
	H65	H	0.589545	0.591055	0.885804
	H66	H	0.596212	0.405843	0.116704
	H67	H	0.407241	0.409533	0.884757
	H68	H	0.600500	0.116222	0.411919
	H69	H	0.594848	0.882983	0.593054
	H70	H	0.402879	0.117484	0.592956
	H71	H	0.406063	0.884368	0.412696
	H72	H	0.915476	0.613438	0.090742
	H73	H	0.089414	0.383802	0.099146
	H74	H	0.098642	0.617083	0.907366
	H75	H	0.912360	0.382210	0.896655
	H76	H	0.087790	0.908017	0.613406
	H77	H	0.090856	0.095768	0.384147
	H78	H	0.905167	0.096990	0.617116
	H79	H	0.903706	0.892593	0.379735
	H80	H	0.614473	0.092795	0.911866
	H81	H	0.383657	0.089067	0.098450
	H82	H	0.615816	0.906712	0.089507
	H83	H	0.384464	0.908590	0.908367
	H84	H	0.615126	0.911035	0.094748
	H85	H	0.381987	0.098718	0.094548
	H86	H	0.615652	0.087981	0.902839
	H87	H	0.383153	0.907821	0.904013
	H88	H	0.903588	0.091580	0.615892
	H89	H	0.095717	0.094199	0.383746
	H90	H	0.094998	0.899536	0.618202
	H91	H	0.897252	0.916106	0.383893
	H92	H	0.092013	0.618156	0.901964
	H93	H	0.090211	0.386811	0.087203
	H94	H	0.901335	0.616106	0.086220
	H95	H	0.912934	0.388298	0.915802
	H96	H	0.408428	0.116743	0.597127
	H97	H	0.591235	0.883580	0.595748
	H98	H	0.593920	0.118553	0.397432
	H99	H	0.402764	0.881117	0.401284
	H100	H	0.593138	0.409272	0.115317
	H101	H	0.593430	0.599422	0.882608
	H102	H	0.410515	0.607403	0.118573
	H103	H	0.409416	0.405329	0.884801
	H104	H	0.119560	0.606635	0.408817
	H105	H	0.880185	0.600496	0.601084
	H106	H	0.116399	0.408413	0.595393
	H107	H	0.880870	0.412515	0.393200
	H108	H	0.905533	0.619111	0.100706
	H109	H	0.099743	0.381379	0.093476
	H110	H	0.091069	0.613935	0.909855
	H111	H	0.895232	0.380681	0.908208
	H112	H	0.099373	0.910761	0.616393
	H113	H	0.092456	0.090825	0.384857
	H114	H	0.908926	0.092815	0.615068
	H115	H	0.920112	0.908784	0.389349
	H116	H	0.618318	0.097510	0.903666
	H117	H	0.386229	0.090753	0.088667
	H118	H	0.617219	0.904235	0.095980
	H119	H	0.382751	0.904168	0.906586
	C120	C	0.378464	0.008214	0.621842
	C121	C	0.620791	0.991725	0.621273
	C122	C	0.621820	0.007590	0.378004
	C123	C	0.378681	0.991346	0.377823
	C124	C	0.621753	0.378342	0.008271
	C125	C	0.621641	0.621799	0.991931
	C126	C	0.378219	0.621463	0.008478
	C127	C	0.378405	0.378665	0.992126
	C128	C	0.008043	0.621283	0.378476
	C129	C	0.992213	0.621556	0.621786
	C130	C	0.007787	0.378880	0.621802
	C131	C	0.991596	0.378715	0.377966
	C132	C	0.878800	0.508420	0.121382
	C133	C	0.121488	0.492108	0.121220
	C134	C	0.121851	0.508143	0.878243
	C135	C	0.878606	0.491828	0.878390
	C136	C	0.122252	0.877938	0.508236
	C137	C	0.121148	0.121895	0.491999
	C138	C	0.877544	0.122102	0.508140
	C139	C	0.878227	0.877826	0.491719
	C140	C	0.508467	0.121617	0.878150
	C141	C	0.492078	0.121207	0.121812
	C142	C	0.507842	0.878748	0.121686
	C143	C	0.491682	0.878415	0.878230
	C144	C	0.381052	0.885150	0.676821
	C145	C	0.618281	0.114858	0.675654
	C146	C	0.619241	0.884922	0.322913
	C147	C	0.380965	0.114471	0.323428
	C148	C	0.676440	0.381432	0.885388
	C149	C	0.676532	0.618924	0.114663
	C150	C	0.324092	0.618088	0.885254
	C151	C	0.323141	0.381238	0.114758
	C152	C	0.884948	0.675956	0.382219
	C153	C	0.115481	0.675890	0.618286
	C154	C	0.884720	0.324495	0.618753
	C155	C	0.114820	0.323975	0.381666
	C156	C	0.885356	0.381297	0.677354
	C157	C	0.115154	0.618902	0.676751
	C158	C	0.885269	0.619356	0.323247
	C159	C	0.114846	0.381755	0.324026
	C160	C	0.382040	0.675661	0.885426
	C161	C	0.618451	0.676633	0.114831
	C162	C	0.618087	0.323973	0.885325
	C163	C	0.381539	0.323867	0.114948
	C164	C	0.676639	0.884608	0.381186
	C165	C	0.675874	0.114574	0.617846
	C166	C	0.323887	0.884862	0.618435
	C167	C	0.323362	0.114462	0.381066
	C168	C	0.880869	0.385588	0.176681
	C169	C	0.118758	0.615141	0.175974
	C170	C	0.119281	0.385106	0.823333
	C171	C	0.881686	0.615239	0.823895
	C172	C	0.176889	0.881030	0.385114
	C173	C	0.175508	0.118656	0.614639
	C174	C	0.823829	0.117984	0.385073
	C175	C	0.823015	0.880697	0.614471
	C176	C	0.385121	0.176199	0.882417
	C177	C	0.615047	0.175850	0.117884
	C178	C	0.384844	0.823872	0.118547
	C179	C	0.614812	0.823957	0.881939
	C180	C	0.385276	0.881058	0.176944
	C181	C	0.614780	0.119150	0.176358
	C182	C	0.385433	0.119575	0.823386
	C183	C	0.614582	0.881083	0.823173
	C184	C	0.881387	0.176428	0.385274
	C185	C	0.117742	0.176729	0.614594
	C186	C	0.118623	0.823407	0.385058
	C187	C	0.881130	0.823371	0.614649
	C188	C	0.176864	0.385032	0.881129
	C189	C	0.176158	0.615221	0.117787
	C190	C	0.823893	0.385239	0.118312
	C191	C	0.823768	0.615343	0.881480
	C192	C	0.400149	0.094216	0.599989
	C193	C	0.598775	0.905663	0.599832
	C194	C	0.599848	0.093609	0.400032
	C195	C	0.400948	0.905496	0.399682
	C196	C	0.600140	0.400228	0.093972
	C197	C	0.600407	0.600187	0.906050
	C198	C	0.399355	0.600000	0.094276
	C199	C	0.400520	0.400294	0.906333
	C200	C	0.093891	0.599170	0.400014
	C201	C	0.906144	0.600026	0.600468
	C202	C	0.094112	0.400363	0.600018
	C203	C	0.905424	0.400516	0.399860
	C204	C	0.900884	0.594209	0.099162
	C205	C	0.099619	0.405996	0.099543
	C206	C	0.100158	0.594228	0.899972
	C207	C	0.900443	0.405974	0.900462
	C208	C	0.100600	0.899665	0.593749
	C209	C	0.099401	0.099870	0.406381
	C210	C	0.899397	0.100325	0.593937
	C211	C	0.900365	0.899413	0.406398
	C212	C	0.594241	0.099263	0.899667
	C213	C	0.406064	0.099261	0.100134
	C214	C	0.593894	0.900741	0.099672
	C215	C	0.405613	0.900488	0.899712
	Zn216	Zn	0.499841	-0.000068	0.749888
	Zn217	Zn	0.500298	0.000363	0.250025
	Zn218	Zn	0.750457	0.500255	0.000199
	Zn219	Zn	0.249867	0.499873	-0.000091
	Zn220	Zn	0.000168	0.749744	0.500316
	Zn221	Zn	-0.000732	0.250715	0.500119
	Zn222	Zn	0.000286	0.500072	0.750334
	Zn223	Zn	0.000276	0.499851	0.249827
	Zn224	Zn	0.499767	0.750354	0.000199
	Zn225	Zn	0.499872	0.249807	0.000460
	Zn226	Zn	0.749626	-0.000648	0.500040
	Zn227	Zn	0.250644	0.000046	0.499825
	N228	N	0.414119	0.962856	0.678981
	N229	N	0.584771	0.037440	0.677803
	N230	N	0.586027	0.962595	0.320900
	N231	N	0.414787	0.037111	0.321671
	N232	N	0.678857	0.414553	0.962904
	N233	N	0.678634	0.585508	0.037233
	N234	N	0.321465	0.585189	0.962809
	N235	N	0.321368	0.414599	0.037513
	N236	N	0.962261	0.677165	0.415987
	N237	N	0.038079	0.677453	0.584736
	N238	N	0.961969	0.323099	0.584721
	N239	N	0.037066	0.322092	0.414844
	N240	N	0.962918	0.414250	0.679144
	N241	N	0.037494	0.585786	0.679024
	N242	N	0.962726	0.586019	0.320987
	N243	N	0.037197	0.414758	0.321661
	N244	N	0.414892	0.677913	0.962814
	N245	N	0.584972	0.678243	0.037599
	N246	N	0.584781	0.322010	0.962582
	N247	N	0.414973	0.321900	0.037551
	N248	N	0.678254	0.961987	0.414679
	N249	N	0.677463	0.036875	0.584628
	N250	N	0.322370	0.962248	0.584689
	N251	N	0.321770	0.036778	0.414295
	N252	N	0.914149	0.463163	0.178636
	N253	N	0.085585	0.537594	0.178034
	N254	N	0.085819	0.462642	0.821519
	N255	N	0.914986	0.537703	0.822036
	N256	N	0.179305	0.914179	0.462564
	N257	N	0.177716	0.085035	0.537332
	N258	N	0.821426	0.084926	0.462584
	N259	N	0.821308	0.913978	0.537143
	N260	N	0.462451	0.177351	0.915871
	N261	N	0.537532	0.177451	0.084734
	N262	N	0.462127	0.822474	0.084825
	N263	N	0.537432	0.822548	0.915533
	N264	N	0.462799	0.914352	0.178968
	N265	N	0.537387	0.085788	0.178568
	N266	N	0.463058	0.086294	0.820618
	N267	N	0.537011	0.914151	0.820743
	N268	N	0.914236	0.178783	0.462746
	N269	N	0.084642	0.178752	0.537313
	N270	N	0.085321	0.821395	0.462439
	N271	N	0.914770	0.821362	0.537505
	N272	N	0.178488	0.462595	0.914558
	N273	N	0.177863	0.537658	0.084395
	N274	N	0.822403	0.462724	0.084681
	N275	N	0.821638	0.537589	0.914695
