data_Molecule from HDF5

_cell_length_a		16.546120
_cell_length_b		16.588961
_cell_length_c		16.518237
_cell_angle_alpha	89.980810
_cell_angle_beta	90.149936
_cell_angle_gamma	89.950072
_symmetry_space_group_name_H-M	'P 1'
_symmetry_Int_Tables_number		1

loop_
	_symmetry_equiv_pos_as_xyz
	x,y,z

loop_
	_atom_site_label
	_atom_site_type_symbol
	_atom_site_fract_x
	_atom_site_fract_y
	_atom_site_fract_z
	H0	H	0.399798	0.840700	0.717304
	H1	H	0.606646	0.155810	0.715512
	H2	H	0.607356	0.840258	0.275699
	H3	H	0.399472	0.154544	0.276259
	H4	H	0.723414	0.393549	0.838678
	H5	H	0.725051	0.603096	0.153980
	H6	H	0.284632	0.598772	0.837149
	H7	H	0.284404	0.393867	0.154276
	H8	H	0.845188	0.717444	0.391628
	H9	H	0.160985	0.716781	0.601396
	H10	H	0.847468	0.275311	0.602768
	H11	H	0.160650	0.278015	0.394160
	H12	H	0.845703	0.393235	0.717386
	H13	H	0.161531	0.599498	0.716034
	H14	H	0.846493	0.602790	0.273817
	H15	H	0.161510	0.395798	0.279573
	H16	H	0.399555	0.715998	0.836958
	H17	H	0.609295	0.719200	0.153418
	H18	H	0.606972	0.277498	0.839011
	H19	H	0.401409	0.278163	0.155054
	H20	H	0.725330	0.841020	0.391659
	H21	H	0.723139	0.155886	0.599024
	H22	H	0.281860	0.840784	0.601981
	H23	H	0.282128	0.154116	0.391950
	H24	H	0.896922	0.340812	0.220348
	H25	H	0.111352	0.651406	0.220835
	H26	H	0.106248	0.340488	0.777546
	H27	H	0.899148	0.654399	0.776225
	H28	H	0.224197	0.891555	0.340202
	H29	H	0.227568	0.104522	0.651978
	H30	H	0.780966	0.105297	0.339517
	H31	H	0.781355	0.892638	0.651524
	H32	H	0.346932	0.218405	0.891282
	H33	H	0.660519	0.219012	0.103432
	H34	H	0.347700	0.774447	0.101709
	H35	H	0.659695	0.774610	0.889610
	H36	H	0.347150	0.891549	0.217560
	H37	H	0.660730	0.102324	0.218755
	H38	H	0.347450	0.102948	0.774130
	H39	H	0.660728	0.893291	0.775527
	H40	H	0.894747	0.223689	0.341598
	H41	H	0.110893	0.220354	0.652456
	H42	H	0.109343	0.774434	0.341192
	H43	H	0.898344	0.775465	0.652389
	H44	H	0.223311	0.340373	0.894008
	H45	H	0.227413	0.652242	0.103699
	H46	H	0.778879	0.341743	0.105426
	H47	H	0.781355	0.654029	0.891516
	H48	H	0.414320	0.107317	0.578987
	H49	H	0.591430	0.887699	0.582868
	H50	H	0.591278	0.107361	0.412926
	H51	H	0.415541	0.887358	0.410618
	H52	H	0.591824	0.409738	0.108535
	H53	H	0.594628	0.584953	0.883940
	H54	H	0.416242	0.586627	0.108055
	H55	H	0.412946	0.408250	0.883628
	H56	H	0.112539	0.588216	0.418084
	H57	H	0.892844	0.584390	0.583792
	H58	H	0.117558	0.403743	0.586763
	H59	H	0.892820	0.415344	0.408114
	H60	H	0.113935	0.410174	0.583379
	H61	H	0.889683	0.585836	0.590868
	H62	H	0.113120	0.577365	0.405014
	H63	H	0.888231	0.406445	0.404749
	H64	H	0.415624	0.587545	0.108518
	H65	H	0.590769	0.585089	0.885190
	H66	H	0.591637	0.407517	0.108666
	H67	H	0.414979	0.407802	0.884217
	H68	H	0.597621	0.111855	0.405229
	H69	H	0.596454	0.884804	0.584546
	H70	H	0.409029	0.111809	0.586504
	H71	H	0.409765	0.884047	0.407202
	H72	H	0.915857	0.606038	0.082501
	H73	H	0.094102	0.385415	0.085719
	H74	H	0.089226	0.609702	0.904268
	H75	H	0.920520	0.388330	0.908743
	H76	H	0.090698	0.908833	0.608953
	H77	H	0.090293	0.086430	0.384407
	H78	H	0.917928	0.080231	0.604812
	H79	H	0.918592	0.910203	0.386112
	H80	H	0.617671	0.087099	0.902077
	H81	H	0.390290	0.091815	0.084218
	H82	H	0.614983	0.910565	0.086438
	H83	H	0.390160	0.907624	0.903246
	H84	H	0.616225	0.906357	0.084150
	H85	H	0.394156	0.084963	0.080997
	H86	H	0.617437	0.091721	0.910223
	H87	H	0.391180	0.905147	0.908856
	H88	H	0.919990	0.091489	0.608012
	H89	H	0.091198	0.086749	0.384446
	H90	H	0.093183	0.905409	0.610537
	H91	H	0.915450	0.904025	0.382435
	H92	H	0.094531	0.608996	0.911530
	H93	H	0.094212	0.384632	0.086521
	H94	H	0.914328	0.607814	0.084367
	H95	H	0.908795	0.386660	0.912359
	H96	H	0.418442	0.108784	0.588059
	H97	H	0.591737	0.885959	0.588330
	H98	H	0.587263	0.109030	0.403117
	H99	H	0.415884	0.885182	0.403648
	H100	H	0.593675	0.408297	0.109360
	H101	H	0.592146	0.588464	0.883784
	H102	H	0.415153	0.586953	0.107981
	H103	H	0.413737	0.406286	0.883627
	H104	H	0.118842	0.593192	0.402536
	H105	H	0.889472	0.591422	0.584752
	H106	H	0.116489	0.410964	0.591007
	H107	H	0.892474	0.406447	0.414922
	H108	H	0.917130	0.607028	0.085306
	H109	H	0.093112	0.384787	0.086291
	H110	H	0.097329	0.612461	0.904327
	H111	H	0.912212	0.383038	0.901017
	H112	H	0.095033	0.909558	0.609227
	H113	H	0.090981	0.085843	0.385050
	H114	H	0.909201	0.086640	0.610046
	H115	H	0.910888	0.910251	0.383389
	H116	H	0.613850	0.082934	0.909628
	H117	H	0.391675	0.085016	0.089523
	H118	H	0.613056	0.909506	0.082132
	H119	H	0.393301	0.910932	0.907690
	C120	C	0.381649	0.005845	0.617577
	C121	C	0.624912	0.989993	0.617084
	C122	C	0.624545	0.005744	0.375001
	C123	C	0.381397	0.988983	0.374706
	C124	C	0.624746	0.376368	0.004986
	C125	C	0.624736	0.618639	0.988334
	C126	C	0.383156	0.618012	0.003751
	C127	C	0.382721	0.375821	0.988218
	C128	C	0.011031	0.618700	0.375428
	C129	C	0.994758	0.618726	0.618295
	C130	C	0.012181	0.375932	0.619141
	C131	C	0.995110	0.377324	0.377213
	C132	C	0.882671	0.504293	0.117502
	C133	C	0.125895	0.488219	0.118470
	C134	C	0.124452	0.506090	0.875824
	C135	C	0.881691	0.489195	0.875378
	C136	C	0.124837	0.875620	0.505804
	C137	C	0.124169	0.118407	0.488152
	C138	C	0.882594	0.119452	0.504444
	C139	C	0.882358	0.876145	0.487436
	C140	C	0.512313	0.118688	0.875429
	C141	C	0.495576	0.119053	0.117747
	C142	C	0.511950	0.875865	0.117317
	C143	C	0.495152	0.876094	0.874373
	C144	C	0.380632	0.887770	0.677541
	C145	C	0.625814	0.108510	0.676013
	C146	C	0.626380	0.887381	0.315561
	C147	C	0.380141	0.107144	0.315563
	C148	C	0.683709	0.374927	0.886231
	C149	C	0.684769	0.620895	0.106793
	C150	C	0.323548	0.618662	0.884945
	C151	C	0.324394	0.375254	0.107281
	C152	C	0.892872	0.678235	0.373029
	C153	C	0.113519	0.677325	0.619743
	C154	C	0.894032	0.315652	0.621250
	C155	C	0.113674	0.317888	0.375535
	C156	C	0.893448	0.374124	0.678229
	C157	C	0.113754	0.618915	0.676902
	C158	C	0.893413	0.621037	0.314473
	C159	C	0.113949	0.376300	0.318571
	C160	C	0.380586	0.677096	0.884846
	C161	C	0.627547	0.679222	0.106161
	C162	C	0.626015	0.317012	0.886336
	C163	C	0.382345	0.317651	0.107603
	C164	C	0.685180	0.887823	0.372853
	C165	C	0.683637	0.108541	0.618037
	C166	C	0.321986	0.887714	0.620182
	C167	C	0.321763	0.106818	0.373022
	C168	C	0.879077	0.387459	0.179325
	C169	C	0.128875	0.605177	0.179770
	C170	C	0.125087	0.387417	0.817380
	C171	C	0.879955	0.607355	0.815905
	C172	C	0.184669	0.872841	0.387576
	C173	C	0.186451	0.122057	0.605240
	C174	C	0.821366	0.123024	0.386791
	C175	C	0.821863	0.873986	0.605165
	C176	C	0.394161	0.178461	0.873115
	C177	C	0.613678	0.178742	0.120919
	C178	C	0.394259	0.815386	0.119713
	C179	C	0.612957	0.815492	0.871767
	C180	C	0.394100	0.873347	0.177400
	C181	C	0.613527	0.120521	0.178305
	C182	C	0.394273	0.121025	0.814784
	C183	C	0.613699	0.874601	0.815245
	C184	C	0.878049	0.181899	0.387673
	C185	C	0.128263	0.179380	0.605701
	C186	C	0.127515	0.814792	0.388035
	C187	C	0.879503	0.815788	0.605535
	C188	C	0.182965	0.387204	0.875498
	C189	C	0.186803	0.605362	0.121774
	C190	C	0.820265	0.387974	0.122221
	C191	C	0.821636	0.607179	0.873263
	C192	C	0.406582	0.087859	0.592014
	C193	C	0.600413	0.907654	0.592392
	C194	C	0.599496	0.087836	0.399968
	C195	C	0.406476	0.906742	0.399902
	C196	C	0.599721	0.401342	0.087475
	C197	C	0.599729	0.593523	0.905723
	C198	C	0.408288	0.593903	0.086638
	C199	C	0.407009	0.400350	0.905473
	C200	C	0.093508	0.593455	0.401316
	C201	C	0.912118	0.594249	0.593453
	C202	C	0.094436	0.400941	0.594254
	C203	C	0.912796	0.402215	0.402009
	C204	C	0.908470	0.585666	0.091372
	C205	C	0.100912	0.406279	0.093249
	C206	C	0.100453	0.588850	0.899855
	C207	C	0.906714	0.407283	0.900235
	C208	C	0.100049	0.900821	0.588173
	C209	C	0.098168	0.093404	0.406180
	C210	C	0.908557	0.093482	0.586324
	C211	C	0.907907	0.901023	0.405284
	C212	C	0.594808	0.094230	0.900149
	C213	C	0.413292	0.094287	0.092187
	C214	C	0.593513	0.901311	0.091670
	C215	C	0.412857	0.900837	0.899301
	Zn216	Zn	0.503779	-0.002030	0.746117
	Zn217	Zn	0.503329	-0.002646	0.246088
	Zn218	Zn	0.753133	0.497421	-0.003347
	Zn219	Zn	0.254418	0.497301	-0.003549
	Zn220	Zn	0.003496	0.747542	0.496531
	Zn221	Zn	0.003402	0.248296	0.496837
	Zn222	Zn	0.003197	0.497581	0.746514
	Zn223	Zn	0.003381	0.496682	0.247040
	Zn224	Zn	0.503440	0.747174	-0.004772
	Zn225	Zn	0.504043	0.247644	-0.003285
	Zn226	Zn	0.753810	-0.001556	0.495859
	Zn227	Zn	0.252995	-0.002699	0.496103
	N228	N	0.416778	0.962269	0.676242
	N229	N	0.590394	0.033664	0.675937
	N230	N	0.589476	0.961542	0.316722
	N231	N	0.416170	0.032466	0.316058
	N232	N	0.683346	0.410708	0.961241
	N233	N	0.683469	0.584259	0.032167
	N234	N	0.324747	0.583013	0.960044
	N235	N	0.324230	0.410542	0.032009
	N236	N	0.967350	0.677036	0.409992
	N237	N	0.038375	0.677549	0.584087
	N238	N	0.968928	0.316456	0.585355
	N239	N	0.038797	0.318338	0.411169
	N240	N	0.968011	0.410564	0.677247
	N241	N	0.038851	0.583300	0.676171
	N242	N	0.968285	0.585115	0.315564
	N243	N	0.039246	0.412408	0.319440
	N244	N	0.416747	0.677093	0.959964
	N245	N	0.590901	0.677938	0.031486
	N246	N	0.590311	0.317660	0.961206
	N247	N	0.417561	0.317626	0.032345
	N248	N	0.684366	0.962606	0.408642
	N249	N	0.683676	0.033685	0.582497
	N250	N	0.322322	0.962209	0.583736
	N251	N	0.322349	0.032108	0.408741
	N252	N	0.917468	0.460766	0.176336
	N253	N	0.091606	0.531312	0.177900
	N254	N	0.089469	0.462258	0.817463
	N255	N	0.916390	0.532915	0.816734
	N256	N	0.183251	0.910095	0.461833
	N257	N	0.183740	0.084496	0.531301
	N258	N	0.824301	0.084607	0.460336
	N259	N	0.823534	0.910758	0.530674
	N260	N	0.468510	0.177085	0.910148
	N261	N	0.539408	0.177734	0.083743
	N262	N	0.468489	0.816677	0.083064
	N263	N	0.538214	0.816368	0.907829
	N264	N	0.468275	0.910300	0.176118
	N265	N	0.539076	0.083882	0.176287
	N266	N	0.468721	0.084470	0.816084
	N267	N	0.539402	0.911649	0.816742
	N268	N	0.915434	0.179816	0.461935
	N269	N	0.090147	0.177407	0.531843
	N270	N	0.091166	0.816309	0.462623
	N271	N	0.916479	0.817088	0.531315
	N272	N	0.182869	0.462114	0.910871
	N273	N	0.185129	0.531645	0.084438
	N274	N	0.822382	0.461575	0.084409
	N275	N	0.822536	0.532667	0.909537
	O276	O	1.188004	1.183267	-0.185470
	H277	H	1.171215	1.171665	-0.157988
	H278	H	1.170414	1.161211	-0.174632
	O279	O	-0.111753	0.187056	1.099069
	H280	H	-0.119585	0.175406	1.101229
	H281	H	-0.113780	0.189965	1.102146
	O282	O	0.550482	0.614156	0.464610
	H283	H	0.543884	0.612109	0.458522
	H284	H	0.554223	0.618023	0.456456
	O285	O	0.853323	0.863229	0.907972
	H286	H	0.861897	0.870704	0.911885
	H287	H	0.843401	0.881868	0.900573
	O288	O	1.219682	-0.031089	0.776041
	H289	H	1.211384	-0.022191	0.769134
	H290	H	1.235346	-0.036538	0.756695
	O291	O	1.021806	0.920545	1.132656
	H292	H	1.015958	0.922976	1.124796
	H293	H	1.022487	0.923348	1.125243
	O294	O	0.213469	0.210510	0.033106
	H295	H	0.221082	0.220789	0.029377
	H296	H	0.209434	0.205224	0.031814
	O297	O	0.803128	-0.202506	0.193968
	H298	H	0.794476	-0.179261	0.185505
	H299	H	0.831848	-0.204908	0.183660
	O300	O	-0.194474	0.196647	-0.205731
	H301	H	-0.170358	0.207232	-0.221765
	H302	H	-0.207898	0.207380	-0.173615
	O303	O	-0.022202	0.200396	-0.216191
	H304	H	-0.023549	0.226541	-0.231049
	H305	H	-0.017530	0.204465	-0.196186
	O306	O	1.163252	-0.052364	-0.024825
	H307	H	1.173834	-0.064506	-0.027290
	H308	H	1.164228	-0.063978	-0.027778
	O309	O	0.670997	0.703205	0.701680
	H310	H	0.688865	0.706886	0.677075
	H311	H	0.695075	0.730587	0.714372
	O312	O	0.561836	0.308395	0.685955
	H313	H	0.550137	0.312206	0.684852
	H314	H	0.546346	0.309876	0.689646
	O315	O	0.706074	0.555052	0.704700
	H316	H	0.717057	0.569589	0.692201
	H317	H	0.727555	0.573957	0.712407
	O318	O	0.796501	0.844525	0.009858
	H319	H	0.799884	0.845044	0.026860
	H320	H	0.787465	0.847250	-0.001355
	O321	O	0.213689	0.925971	1.204092
	H322	H	0.221557	0.933725	1.211828
	H323	H	0.202439	0.961931	1.192361
	O324	O	0.783033	0.028326	0.773451
	H325	H	0.764015	0.042810	0.759586
	H326	H	0.776794	0.052181	0.767812
	O327	O	0.456496	0.669011	0.468855
	H328	H	0.441477	0.674451	0.477244
	H329	H	0.464589	0.673834	0.469871
	O330	O	-0.024719	0.906274	-0.222246
	H331	H	-0.021111	0.915055	-0.217254
	H332	H	-0.023810	0.904870	-0.227088
	O333	O	0.293200	0.459542	0.707930
	H334	H	0.285219	0.467563	0.706964
	H335	H	0.299095	0.460035	0.712866
	O336	O	0.531136	0.698715	0.665446
	H337	H	0.550152	0.686379	0.671508
	H338	H	0.542540	0.716233	0.685594
	O339	O	0.372908	0.642540	0.588549
	H340	H	0.395406	0.634235	0.590943
	H341	H	0.374121	0.628054	0.588220
	O342	O	-0.109578	1.051067	0.021854
	H343	H	-0.111428	1.056872	0.029634
	H344	H	-0.122214	1.059824	0.023105
	O345	O	0.451171	0.533928	0.633728
	H346	H	0.460424	0.537683	0.629703
	H347	H	0.456082	0.542976	0.641476
	O348	O	-0.162952	0.797112	0.833852
	H349	H	-0.141931	0.819471	0.838650
	H350	H	-0.154361	0.809593	0.854604
	O351	O	0.612654	0.299143	1.304502
	H352	H	0.583642	0.291025	1.296892
	H353	H	0.624611	0.316356	1.296023
	O354	O	1.064322	-0.040548	1.205127
	H355	H	1.067563	-0.026112	1.215729
	H356	H	1.049630	-0.042701	1.202442
	O357	O	0.605864	0.381741	0.685111
	H358	H	0.618585	0.383013	0.681307
	H359	H	0.604886	0.371388	0.674857
	O360	O	0.450229	0.537326	0.510109
	H361	H	0.446928	0.548474	0.528033
	H362	H	0.467259	0.531811	0.514141
	O363	O	0.449010	0.451865	0.284605
	H364	H	0.442852	0.452493	0.285585
	H365	H	0.434798	0.454657	0.291207
	O366	O	0.711864	0.490521	0.321977
	H367	H	0.706000	0.495771	0.297871
	H368	H	0.702138	0.499421	0.321531
	O369	O	-0.068164	-0.138165	0.994451
	H370	H	-0.079198	-0.148882	0.990275
	H371	H	-0.070474	-0.134538	0.984881
	O372	O	0.033156	0.799163	1.067166
	H373	H	0.034342	0.795449	1.039453
	H374	H	0.024282	0.796850	1.057389
	O375	O	0.918189	0.053323	-0.021848
	H376	H	0.910672	0.051086	-0.027968
	H377	H	0.928422	0.046119	-0.005053
	O378	O	0.341664	0.483790	0.527001
	H379	H	0.333647	0.486706	0.517871
	H380	H	0.342618	0.476896	0.521726
	O381	O	-0.287933	1.297509	-0.571761
	H382	H	-0.289170	1.308630	-0.594562
	H383	H	-0.273834	1.289263	-0.558733
	O384	O	0.301097	0.525772	0.286743
	H385	H	0.287903	0.542522	0.277963
	H386	H	0.294588	0.549154	0.284684
	O387	O	0.202129	1.198725	1.195032
	H388	H	0.201625	1.195150	1.165549
	H389	H	0.224874	1.215036	1.213974
	O390	O	0.196556	0.799796	0.844013
	H391	H	0.213747	0.816400	0.845980
	H392	H	0.171786	0.800772	0.837002
	O393	O	0.770074	0.082486	0.082319
	H394	H	0.765571	0.093619	0.099641
	H395	H	0.758139	0.084901	0.077568
	O396	O	0.301808	0.697029	0.290926
	H397	H	0.310261	0.698845	0.320745
	H398	H	0.278587	0.727547	0.262912
	O399	O	0.298851	0.294260	0.700601
	H400	H	0.301910	0.315388	0.699777
	H401	H	0.269892	0.276862	0.729654
	O402	O	0.973784	-0.224922	1.217245
	H403	H	0.971839	-0.224369	1.191845
	H404	H	0.973012	-0.260012	1.247389
	O405	O	0.034759	0.213857	0.215616
	H406	H	0.062275	0.216316	0.215409
	H407	H	0.039602	0.235156	0.233940
	O408	O	1.064625	0.789545	0.788118
	H409	H	1.077141	0.798251	0.782580
	H410	H	1.056399	0.773234	0.784644
	O411	O	1.306830	0.371209	-0.627037
	H412	H	1.314192	0.377521	-0.625452
	H413	H	1.320243	0.389210	-0.607857
	O414	O	0.460519	-0.539793	0.469689
	H415	H	0.463671	-0.524411	0.460769
	H416	H	0.452167	-0.543111	0.473194
	O417	O	-0.006422	0.208813	0.995892
	H418	H	-0.003867	0.218362	1.017846
	H419	H	-0.015758	0.202436	1.014417
	O420	O	1.098794	-0.034610	1.059109
	H421	H	1.097985	-0.021025	1.061581
	H422	H	1.097653	-0.053214	1.055794
	O423	O	1.031578	0.962092	-0.005370
	H424	H	1.034461	0.959493	-0.003378
	H425	H	1.039701	0.960451	0.002853
	O426	O	0.477223	0.306733	0.344722
	H427	H	0.462770	0.309877	0.367040
	H428	H	0.470167	0.308563	0.333706
	O429	O	0.712643	0.708190	0.532115
	H430	H	0.702631	0.702508	0.510229
	H431	H	0.728025	0.719838	0.520044
	O432	O	1.064404	0.059885	0.766349
	H433	H	1.063884	0.055947	0.770580
	H434	H	1.050390	0.076800	0.765594
	O435	O	0.696550	0.452614	0.538142
	H436	H	0.693560	0.451346	0.525402
	H437	H	0.693701	0.452059	0.552917
	O438	O	0.332971	0.716524	0.414092
	H439	H	0.333215	0.726153	0.419752
	H440	H	0.335383	0.724224	0.424464
	O441	O	0.783550	1.219719	-0.038439
	H442	H	0.781255	1.210454	-0.025346
	H443	H	0.755791	1.236695	-0.038306
	O444	O	0.685950	0.547711	0.409657
	H445	H	0.672980	0.536971	0.392330
	H446	H	0.681542	0.542067	0.416227
	O447	O	0.073910	-0.032668	1.107957
	H448	H	0.083185	-0.031450	1.116667
	H449	H	0.077142	-0.028424	1.112866
	O450	O	1.221543	-0.182140	-0.026292
	H451	H	1.240717	-0.204277	-0.033215
	H452	H	1.217656	-0.169564	-0.040969
	O453	O	0.592372	0.333645	0.558237
	H454	H	0.601360	0.331086	0.571642
	H455	H	0.587895	0.349562	0.568505
	O456	O	0.388621	1.287101	0.566545
	H457	H	0.377613	1.288480	0.571745
	H458	H	0.382218	1.280031	0.584703
	O459	O	0.503049	0.618905	0.379352
	H460	H	0.497243	0.628104	0.368737
	H461	H	0.493562	0.610324	0.407899
	O462	O	0.430974	0.304818	0.442780
	H463	H	0.427662	0.302272	0.456439
	H464	H	0.433588	0.301229	0.462867
	O465	O	0.459595	0.549667	0.623742
	H466	H	0.488853	0.550499	0.644704
	H467	H	0.456440	0.558778	0.618430
	O468	O	0.117901	1.153128	-0.061722
	H469	H	0.114811	1.161024	-0.048475
	H470	H	0.099144	1.154836	-0.058695
	O471	O	0.628857	0.628329	0.300205
	H472	H	0.622026	0.621423	0.287488
	H473	H	0.612361	0.640850	0.308159
	O474	O	0.783915	0.964678	0.208498
	H475	H	0.771623	0.965894	0.224961
	H476	H	0.794033	0.963528	0.219553
	O477	O	0.084431	0.060755	1.207476
	H478	H	0.105852	0.076189	1.230250
	H479	H	0.079687	0.047336	1.211098
