data_Molecule from HDF5

_cell_length_a		16.601256
_cell_length_b		16.679140
_cell_length_c		16.680758
_cell_angle_alpha	89.941978
_cell_angle_beta	89.910165
_cell_angle_gamma	89.881266
_symmetry_space_group_name_H-M	'P 1'
_symmetry_Int_Tables_number		1

loop_
	_symmetry_equiv_pos_as_xyz
	x,y,z

loop_
	_atom_site_label
	_atom_site_type_symbol
	_atom_site_fract_x
	_atom_site_fract_y
	_atom_site_fract_z
	H0	H	0.391522	0.865519	0.703474
	H1	H	0.607020	0.172248	0.706528
	H2	H	0.603574	0.865572	0.261396
	H3	H	0.389570	0.172815	0.258568
	H4	H	0.724642	0.407548	0.829783
	H5	H	0.719868	0.625071	0.135014
	H6	H	0.274952	0.627704	0.826876
	H7	H	0.275618	0.414103	0.135467
	H8	H	0.843950	0.742908	0.373655
	H9	H	0.150522	0.743240	0.589328
	H10	H	0.843052	0.297617	0.587223
	H11	H	0.152322	0.296717	0.373707
	H12	H	0.843863	0.411562	0.704592
	H13	H	0.150985	0.628489	0.705113
	H14	H	0.843288	0.626500	0.258928
	H15	H	0.153550	0.414540	0.259927
	H16	H	0.390528	0.743488	0.827762
	H17	H	0.605543	0.742372	0.134229
	H18	H	0.608973	0.292416	0.829892
	H19	H	0.387751	0.294068	0.133387
	H20	H	0.720486	0.866630	0.374786
	H21	H	0.719776	0.174136	0.587886
	H22	H	0.276831	0.864359	0.586781
	H23	H	0.274712	0.174031	0.374856
	H24	H	0.895712	0.363296	0.200503
	H25	H	0.101265	0.674584	0.200034
	H26	H	0.107344	0.366491	0.756510
	H27	H	0.889154	0.671901	0.756919
	H28	H	0.217301	0.916523	0.325825
	H29	H	0.213056	0.119826	0.637928
	H30	H	0.774974	0.126346	0.325751
	H31	H	0.776185	0.915070	0.635692
	H32	H	0.343773	0.242607	0.874496
	H33	H	0.650594	0.243565	0.091580
	H34	H	0.341583	0.799059	0.086973
	H35	H	0.653599	0.799997	0.878991
	H36	H	0.341370	0.914843	0.202709
	H37	H	0.651238	0.126392	0.205687
	H38	H	0.342848	0.125703	0.759893
	H39	H	0.653642	0.916323	0.763033
	H40	H	0.890964	0.242166	0.325617
	H41	H	0.099631	0.239635	0.636130
	H42	H	0.102636	0.798908	0.326549
	H43	H	0.890162	0.796850	0.634688
	H44	H	0.221746	0.366486	0.872571
	H45	H	0.216608	0.675089	0.083641
	H46	H	0.777600	0.363640	0.086408
	H47	H	0.775717	0.673078	0.876000
	H48	H	0.404244	0.132919	0.575670
	H49	H	0.582442	0.909633	0.573418
	H50	H	0.590109	0.133773	0.391365
	H51	H	0.409995	0.908944	0.393584
	H52	H	0.579192	0.430145	0.089105
	H53	H	0.583983	0.605328	0.872462
	H54	H	0.411436	0.607224	0.090488
	H55	H	0.407984	0.432805	0.869735
	H56	H	0.109348	0.611296	0.395383
	H57	H	0.889094	0.602987	0.565101
	H58	H	0.107077	0.437326	0.570420
	H59	H	0.886273	0.429172	0.393280
	H60	H	0.111771	0.426351	0.571711
	H61	H	0.885976	0.604221	0.573746
	H62	H	0.108407	0.603968	0.391792
	H63	H	0.886381	0.433340	0.390892
	H64	H	0.406727	0.613734	0.094807
	H65	H	0.583553	0.609791	0.871194
	H66	H	0.587281	0.426390	0.094424
	H67	H	0.413424	0.435022	0.873571
	H68	H	0.578468	0.129892	0.389414
	H69	H	0.587174	0.910182	0.566155
	H70	H	0.413611	0.129477	0.571997
	H71	H	0.408479	0.908767	0.393770
	H72	H	0.905359	0.632358	0.073298
	H73	H	0.086685	0.407132	0.071365
	H74	H	0.086675	0.629422	0.895704
	H75	H	0.911445	0.407910	0.889714
	H76	H	0.088780	0.923555	0.596077
	H77	H	0.085061	0.107300	0.369701
	H78	H	0.914150	0.107195	0.589018
	H79	H	0.912221	0.927398	0.368649
	H80	H	0.608143	0.104122	0.892892
	H81	H	0.386842	0.107191	0.066572
	H82	H	0.608616	0.936286	0.074120
	H83	H	0.386020	0.931609	0.893630
	H84	H	0.612907	0.924244	0.075370
	H85	H	0.389284	0.104134	0.066507
	H86	H	0.609282	0.107088	0.892191
	H87	H	0.383661	0.931275	0.889874
	H88	H	0.907847	0.114064	0.592389
	H89	H	0.086351	0.110805	0.368451
	H90	H	0.089852	0.934196	0.592845
	H91	H	0.905233	0.931912	0.369852
	H92	H	0.086231	0.631031	0.889247
	H93	H	0.086051	0.409022	0.070394
	H94	H	0.910168	0.630199	0.072510
	H95	H	0.915133	0.409885	0.894599
	H96	H	0.405037	0.129607	0.565716
	H97	H	0.590396	0.906776	0.573136
	H98	H	0.583926	0.127466	0.400176
	H99	H	0.408503	0.908220	0.392494
	H100	H	0.587748	0.435969	0.090312
	H101	H	0.587778	0.607551	0.870068
	H102	H	0.402949	0.606038	0.093244
	H103	H	0.413735	0.428602	0.870308
	H104	H	0.111944	0.610482	0.387681
	H105	H	0.885569	0.611139	0.567641
	H106	H	0.107195	0.429337	0.561695
	H107	H	0.884595	0.429333	0.388211
	H108	H	0.906008	0.629942	0.068157
	H109	H	0.087598	0.407283	0.069975
	H110	H	0.080528	0.628081	0.892502
	H111	H	0.909339	0.409015	0.895375
	H112	H	0.080356	0.928351	0.590919
	H113	H	0.089133	0.107635	0.368605
	H114	H	0.904648	0.104167	0.591539
	H115	H	0.912260	0.934920	0.372118
	H116	H	0.608644	0.106243	0.894979
	H117	H	0.387330	0.104840	0.070142
	H118	H	0.606215	0.928222	0.064447
	H119	H	0.384241	0.927784	0.893048
	C120	C	0.375984	0.028184	0.603169
	C121	C	0.619260	1.011336	0.602963
	C122	C	0.617887	0.028853	0.360745
	C123	C	0.375601	1.010755	0.360205
	C124	C	0.619488	0.396728	-0.009754
	C125	C	0.618042	0.639831	0.973017
	C126	C	0.374939	0.641783	-0.009446
	C127	C	0.377066	0.398550	0.972626
	C128	C	0.006825	0.641218	0.359385
	C129	C	0.989019	0.639414	0.601743
	C130	C	0.006135	0.398329	0.601205
	C131	C	0.988869	0.398276	0.359002
	C132	C	0.876112	0.527714	0.103212
	C133	C	0.118505	0.510656	0.101804
	C134	C	0.118785	0.527947	0.858958
	C135	C	0.877517	0.510350	0.860169
	C136	C	0.118694	0.897358	0.490327
	C137	C	0.117979	0.140150	0.472230
	C138	C	0.876065	0.141266	0.488724
	C139	C	0.876580	0.898552	0.472390
	C140	C	0.506503	0.139742	0.860462
	C141	C	0.489246	0.139909	0.102344
	C142	C	0.506390	0.897363	0.103818
	C143	C	0.488299	0.897957	0.860608
	C144	C	0.373717	0.911390	0.662996
	C145	C	0.623273	0.126555	0.664715
	C146	C	0.621712	0.912219	0.300922
	C147	C	0.372151	0.126575	0.299209
	C148	C	0.683016	0.391252	0.875623
	C149	C	0.679290	0.642622	0.088612
	C150	C	0.315091	0.645046	0.873666
	C151	C	0.315423	0.395309	0.088549
	C152	C	0.890263	0.702096	0.356259
	C153	C	0.104637	0.701875	0.606281
	C154	C	0.889659	0.337702	0.604685
	C155	C	0.105879	0.337473	0.356013
	C156	C	0.890164	0.394518	0.663083
	C157	C	0.104796	0.644964	0.664015
	C158	C	0.890080	0.644148	0.299161
	C159	C	0.106385	0.395862	0.299409
	C160	C	0.372527	0.702765	0.873988
	C161	C	0.622080	0.700979	0.088407
	C162	C	0.625251	0.333820	0.875726
	C163	C	0.371576	0.335996	0.087756
	C164	C	0.679743	0.912709	0.357605
	C165	C	0.679720	0.127434	0.605884
	C166	C	0.316589	0.911099	0.605210
	C167	C	0.315034	0.127122	0.357421
	C168	C	0.876069	0.410480	0.161615
	C169	C	0.119921	0.628054	0.160382
	C170	C	0.124155	0.412844	0.797249
	C171	C	0.872521	0.626098	0.798445
	C172	C	0.177825	0.897033	0.372891
	C173	C	0.174800	0.139957	0.590578
	C174	C	0.815188	0.144446	0.372313
	C175	C	0.816023	0.896428	0.588809
	C176	C	0.390192	0.201773	0.856864
	C177	C	0.604583	0.202429	0.107932
	C178	C	0.388626	0.838591	0.105492
	C179	C	0.606352	0.839441	0.859972
	C180	C	0.388769	0.895738	0.163453
	C181	C	0.604905	0.144211	0.164797
	C182	C	0.389779	0.143950	0.799550
	C183	C	0.606396	0.896927	0.802223
	C184	C	0.872840	0.202028	0.372378
	C185	C	0.118423	0.199223	0.589583
	C186	C	0.120758	0.838734	0.373138
	C187	C	0.872642	0.837568	0.588281
	C188	C	0.181157	0.412661	0.855070
	C189	C	0.177122	0.628250	0.102555
	C190	C	0.817497	0.410526	0.104719
	C191	C	0.815918	0.626630	0.857306
	C192	C	0.400661	0.109340	0.578281
	C193	C	0.593914	0.930015	0.577936
	C194	C	0.591550	0.109236	0.386199
	C195	C	0.401544	0.929518	0.385791
	C196	C	0.592319	0.423543	0.070399
	C197	C	0.592388	0.614564	0.892183
	C198	C	0.399988	0.616233	0.071609
	C199	C	0.403871	0.424752	0.892210
	C200	C	0.088580	0.615855	0.384667
	C201	C	0.908061	0.613402	0.576081
	C202	C	0.087544	0.423883	0.575235
	C203	C	0.907082	0.423516	0.383815
	C204	C	0.900211	0.609583	0.078502
	C205	C	0.093811	0.429045	0.077347
	C206	C	0.092108	0.608539	0.884992
	C207	C	0.904309	0.429959	0.886109
	C208	C	0.093497	0.921575	0.572036
	C209	C	0.093850	0.115804	0.390064
	C210	C	0.901421	0.115828	0.569822
	C211	C	0.902622	0.923964	0.391324
	C212	C	0.587465	0.113403	0.886055
	C213	C	0.408785	0.113043	0.075363
	C214	C	0.587933	0.922410	0.078575
	C215	C	0.406185	0.923101	0.885045
	Zn216	Zn	0.497539	0.019165	0.731631
	Zn217	Zn	0.497562	0.019583	0.231444
	Zn218	Zn	0.747657	0.518172	-0.019041
	Zn219	Zn	0.247108	0.519544	-0.019629
	Zn220	Zn	-0.002807	0.768682	0.481327
	Zn221	Zn	-0.002749	0.269704	0.479938
	Zn222	Zn	-0.001979	0.519004	0.730371
	Zn223	Zn	-0.001585	0.519856	0.231374
	Zn224	Zn	0.497058	0.769641	-0.018175
	Zn225	Zn	0.497848	0.268483	-0.018635
	Zn226	Zn	0.747415	0.020577	0.480662
	Zn227	Zn	0.247133	0.018950	0.482083
	N228	N	0.410319	0.985110	0.661933
	N229	N	0.586185	0.053066	0.663093
	N230	N	0.583759	0.985271	0.302574
	N231	N	0.409378	0.053127	0.300812
	N232	N	0.679546	0.429829	0.947943
	N233	N	0.677095	0.605174	0.015719
	N234	N	0.316240	0.607890	0.947060
	N235	N	0.318636	0.433687	0.015880
	N236	N	0.963962	0.700314	0.393181
	N237	N	0.031660	0.698771	0.567999
	N238	N	0.963012	0.339929	0.566796
	N239	N	0.031726	0.338626	0.392315
	N240	N	0.963823	0.431626	0.661102
	N241	N	0.031782	0.606772	0.661438
	N242	N	0.963738	0.606953	0.300872
	N243	N	0.032692	0.433199	0.301153
	N244	N	0.409088	0.701096	0.947792
	N245	N	0.584709	0.699672	0.015252
	N246	N	0.586375	0.337050	0.948168
	N247	N	0.409349	0.337805	0.014508
	N248	N	0.677793	0.986258	0.394088
	N249	N	0.677451	0.054534	0.568110
	N250	N	0.317887	0.984594	0.568472
	N251	N	0.316900	0.053710	0.394682
	N252	N	0.911406	0.484816	0.161223
	N253	N	0.084260	0.553892	0.160163
	N254	N	0.085952	0.485552	0.799660
	N255	N	0.909953	0.552722	0.799865
	N256	N	0.176945	0.932562	0.447087
	N257	N	0.174969	0.104251	0.516417
	N258	N	0.816895	0.107429	0.445819
	N259	N	0.818051	0.933725	0.515564
	N260	N	0.463824	0.199438	0.893831
	N261	N	0.531494	0.199730	0.069629
	N262	N	0.462921	0.839118	0.069312
	N263	N	0.531673	0.839645	0.895135
	N264	N	0.463261	0.931458	0.162851
	N265	N	0.532067	0.105968	0.161612
	N266	N	0.463284	0.106248	0.801288
	N267	N	0.531593	0.932426	0.802096
	N268	N	0.909890	0.200444	0.445889
	N269	N	0.084155	0.199729	0.514693
	N270	N	0.085086	0.838433	0.447436
	N271	N	0.909361	0.838597	0.514658
	N272	N	0.178184	0.485635	0.892791
	N273	N	0.176596	0.554197	0.066754
	N274	N	0.817042	0.484764	0.069297
	N275	N	0.818754	0.553691	0.895077
	O276	O	-0.140088	1.142011	0.186461
	H277	H	-0.141683	1.149660	0.174986
	H278	H	-0.128146	1.135231	0.180013
	O279	O	0.962191	0.793122	0.955912
	H280	H	0.957602	0.792508	0.963797
	H281	H	0.967511	0.814431	0.967480
	O282	O	0.833883	0.038787	1.038926
	H283	H	0.830230	0.039146	1.059008
	H284	H	0.840280	0.054623	1.031992
	O285	O	0.273568	0.464237	0.465830
	H286	H	0.281748	0.482512	0.472932
	H287	H	0.286233	0.452674	0.450576
	O288	O	0.490664	0.292569	0.382999
	H289	H	0.480163	0.291545	0.374450
	H290	H	0.481355	0.301303	0.367045
	O291	O	0.511902	0.747271	0.468253
	H292	H	0.512192	0.740975	0.474236
	H293	H	0.502729	0.756471	0.493444
	O294	O	1.152182	0.056161	0.937442
	H295	H	1.143916	0.050991	0.947217
	H296	H	1.154987	0.070083	0.937706
	O297	O	0.474656	0.293792	0.705099
	H298	H	0.487886	0.285813	0.690880
	H299	H	0.476779	0.276355	0.727265
	O300	O	0.218231	-0.197605	0.948067
	H301	H	0.199267	-0.194636	0.945888
	H302	H	0.245170	-0.226337	0.950546
	O303	O	0.287447	0.304731	0.691941
	H304	H	0.302530	0.304351	0.684976
	H305	H	0.303953	0.326081	0.681829
	O306	O	0.700305	0.720235	0.513807
	H307	H	0.695994	0.699855	0.525683
	H308	H	0.729195	0.745238	0.523700
	O309	O	0.469315	0.745082	0.251232
	H310	H	0.452005	0.772343	0.234355
	H311	H	0.460377	0.755073	0.264958
	O312	O	0.389063	0.445510	0.565058
	H313	H	0.398399	0.445770	0.569804
	H314	H	0.394965	0.437341	0.559462
	O315	O	0.719599	0.482934	1.253963
	H316	H	0.725558	0.492840	1.258529
	H317	H	0.730206	0.492563	1.229361
	O318	O	0.528295	0.536289	0.548346
	H319	H	0.529192	0.538396	0.553827
	H320	H	0.518405	0.520546	0.555655
	O321	O	-0.629437	0.576899	0.407084
	H322	H	-0.640919	0.585877	0.415490
	H323	H	-0.620618	0.586165	0.428200
	O324	O	1.198703	0.822404	-0.221696
	H325	H	1.169468	0.824716	-0.208185
	H326	H	1.191055	0.841817	-0.204824
	O327	O	0.018154	0.227540	1.125235
	H328	H	-0.002353	0.241011	1.141823
	H329	H	0.008051	0.214064	1.110383
	O330	O	0.430286	0.495727	0.281712
	H331	H	0.447931	0.503187	0.287674
	H332	H	0.446221	0.482538	0.288517
	O333	O	0.270960	0.290033	0.515769
	H334	H	0.262597	0.309879	0.519173
	H335	H	0.241826	0.269691	0.525863
	O336	O	0.475339	0.651274	0.648886
	H337	H	0.480024	0.632251	0.648222
	H338	H	0.466435	0.649435	0.653149
	O339	O	1.041378	-0.078173	0.976436
	H340	H	1.040880	-0.072920	0.973219
	H341	H	1.050238	-0.074576	0.984237
	O342	O	0.407806	-0.276184	0.422812
	H343	H	0.428501	-0.272379	0.423145
	H344	H	0.401771	-0.296004	0.428432
	O345	O	-0.029745	1.000708	1.020069
	H346	H	-0.033927	0.997147	1.010169
	H347	H	-0.024478	1.006360	1.029275
	O348	O	0.050837	0.101531	-0.185298
	H349	H	0.050138	0.099441	-0.184319
	H350	H	0.059431	0.107249	-0.172760
	O351	O	0.025637	-0.186667	0.818912
	H352	H	0.011632	-0.182640	0.847699
	H353	H	0.014637	-0.192955	0.810204
	O354	O	0.191171	-0.135362	1.126455
	H355	H	0.212159	-0.153265	1.152630
	H356	H	0.185981	-0.132607	1.118470
	O357	O	0.718522	0.539000	0.710452
	H358	H	0.753268	0.550176	0.742315
	H359	H	0.717842	0.567451	0.684095
	O360	O	0.685305	0.328481	0.672169
	H361	H	0.661735	0.339811	0.660789
	H362	H	0.680751	0.349791	0.654695
	O363	O	0.209369	-0.008290	-0.233353
	H364	H	0.218868	-0.007264	-0.240950
	H365	H	0.211328	-0.009126	-0.232647
	O366	O	0.279100	0.611887	0.531803
	H367	H	0.280630	0.624720	0.558579
	H368	H	0.278421	0.601253	0.520939
	O369	O	1.015677	-0.169877	0.146634
	H370	H	0.996617	-0.167407	0.152013
	H371	H	0.997001	-0.172549	0.151531
	O372	O	1.000125	1.092065	-0.098068
	H373	H	1.006890	1.089208	-0.103006
	H374	H	1.000689	1.088843	-0.077092
	O375	O	0.901737	-0.158976	0.015452
	H376	H	0.929140	-0.161628	0.023126
	H377	H	0.900442	-0.164302	0.002944
	O378	O	0.675742	0.715599	0.370849
	H379	H	0.669222	0.716335	0.392477
	H380	H	0.651567	0.711131	0.380137
	O381	O	0.087713	1.027390	1.163829
	H382	H	0.094028	1.040646	1.163499
	H383	H	0.093122	1.031599	1.163708
	O384	O	0.821867	0.064530	0.803659
	H385	H	0.828318	0.079481	0.799920
	H386	H	0.818609	0.067780	0.790487
	O387	O	1.245155	1.264940	0.226062
	H388	H	1.233986	1.256511	0.232924
	H389	H	1.255018	1.268341	0.232546
	O390	O	0.285072	0.558322	0.267430
	H391	H	0.296712	0.550135	0.272501
	H392	H	0.281776	0.537309	0.255653
	O393	O	0.703509	0.312716	0.274315
	H394	H	0.708747	0.331081	0.257992
	H395	H	0.713054	0.318017	0.292845
	O396	O	0.717139	0.298787	0.449598
	H397	H	0.726270	0.289691	0.451425
	H398	H	0.723053	0.291020	0.437669
	O399	O	0.220601	-0.000263	1.024996
	H400	H	0.222775	-0.005081	1.027145
	H401	H	0.207609	-0.010804	1.019612
	O402	O	0.248134	0.759152	0.238560
	H403	H	0.244998	0.755760	0.267359
	H404	H	0.251977	0.715283	0.245362
	O405	O	0.792904	-0.777095	1.772364
	H406	H	0.829725	-0.775542	1.775665
	H407	H	0.766146	-0.756792	1.742804
	O408	O	-0.222592	-0.067804	-0.062006
	H409	H	-0.235792	-0.071031	-0.046945
	H410	H	-0.215825	-0.053980	-0.083867
	O411	O	0.563894	0.456664	0.715961
	H412	H	0.573326	0.466870	0.719864
	H413	H	0.571933	0.465438	0.723160
	O414	O	0.850354	0.044945	0.885649
	H415	H	0.857790	0.062645	0.881927
	H416	H	0.840437	0.048212	0.877867
	O417	O	0.309341	0.710505	0.671225
	H418	H	0.289080	0.725439	0.692299
	H419	H	0.310269	0.704680	0.660306
	O420	O	0.530977	0.746354	0.708394
	H421	H	0.527723	0.744687	0.710380
	H422	H	0.535103	0.761441	0.728413
	O423	O	-0.426599	-0.458857	1.300243
	H424	H	-0.423941	-0.459059	1.297913
	H425	H	-0.421590	-0.448919	1.309708
	O426	O	0.741577	0.765836	0.228328
	H427	H	0.712871	0.752343	0.258830
	H428	H	0.756384	0.785537	0.213075
	O429	O	0.975052	1.159217	1.194506
	H430	H	0.958313	1.168234	1.183642
	H431	H	0.965293	1.146760	1.190353
	O432	O	0.572122	0.406425	0.453456
	H433	H	0.566547	0.412397	0.459893
	H434	H	0.569418	0.401972	0.452563
	O435	O	0.221548	1.242495	0.006148
	H436	H	0.245562	1.268872	0.018393
	H437	H	0.228133	1.229227	0.030549
	O438	O	-0.205001	-0.191008	0.040611
	H439	H	-0.219905	-0.198284	0.036616
	H440	H	-0.211667	-0.181130	0.049496
	O441	O	0.078991	0.199094	-0.082079
	H442	H	0.102367	0.192748	-0.065260
	H443	H	0.093370	0.209974	-0.084702
	O444	O	0.294702	0.516399	0.703178
	H445	H	0.304822	0.499482	0.693718
	H446	H	0.269487	0.518692	0.722212
	O447	O	0.025326	0.899565	1.202776
	H448	H	0.051058	0.909199	1.207360
	H449	H	0.035839	0.873886	1.206707
	O450	O	-0.215802	0.988718	1.197476
	H451	H	-0.231177	0.987354	1.216489
	H452	H	-0.212534	0.982533	1.200468
	O453	O	0.525636	0.599511	0.322999
	H454	H	0.524057	0.593861	0.321717
	H455	H	0.516689	0.608685	0.319430
	O456	O	-0.058823	0.014150	0.894270
	H457	H	-0.059208	0.019574	0.903332
	H458	H	-0.046014	0.021282	0.896885
	O459	O	0.726028	0.448974	0.535766
	H460	H	0.729580	0.455071	0.537401
	H461	H	0.727243	0.452220	0.528863
	O462	O	0.777202	0.234097	0.957944
	H463	H	0.753877	0.253462	0.934720
	H464	H	0.777913	0.226390	0.939971
	O465	O	1.272297	-0.256367	0.444615
	H466	H	1.256708	-0.248725	0.444844
	H467	H	1.258918	-0.256268	0.437539
	O468	O	0.411760	0.484193	0.668369
	H469	H	0.407468	0.481939	0.676214
	H470	H	0.418537	0.476863	0.657851
	O471	O	0.655206	0.591880	0.554902
	H472	H	0.637443	0.591906	0.555921
	H473	H	0.650696	0.600622	0.560423
	O474	O	-0.174011	0.848290	-0.208945
	H475	H	-0.164860	0.864562	-0.193804
	H476	H	-0.145217	0.854395	-0.198603
	O477	O	0.521782	0.286415	1.516698
	H478	H	0.522431	0.283038	1.504857
	H479	H	0.516711	0.283348	1.495391
	O480	O	0.505460	0.337669	0.266764
	H481	H	0.520322	0.330326	0.261961
	H482	H	0.529375	0.343133	0.266994
	O483	O	0.348743	0.334457	0.341074
	H484	H	0.365718	0.343267	0.341192
	H485	H	0.333083	0.332363	0.331914
	O486	O	1.729013	-0.440332	0.415318
	H487	H	1.726863	-0.428178	0.418917
	H488	H	1.734870	-0.436522	0.408862
	O489	O	1.206628	1.124352	0.183162
	H490	H	1.220329	1.131187	0.197361
	H491	H	1.191762	1.118869	0.177763
	O492	O	0.183815	0.210201	-0.207479
	H493	H	0.206984	0.229718	-0.232256
	H494	H	0.171877	0.202902	-0.187649
	O495	O	-0.099191	1.220280	0.984696
	H496	H	-0.083148	1.218079	0.972761
	H497	H	-0.094822	1.213608	0.970619
	O498	O	0.992411	1.195492	0.766814
	H499	H	0.988452	1.198057	0.766438
	H500	H	1.007980	1.186985	0.760402
	O501	O	0.721616	0.747293	0.712003
	H502	H	0.695581	0.750268	0.705556
	H503	H	0.750646	0.774740	0.729527
