data_Molecule from HDF5

_cell_length_a		16.309475
_cell_length_b		16.186105
_cell_length_c		16.361925
_cell_angle_alpha	90.249720
_cell_angle_beta	89.995914
_cell_angle_gamma	90.026776
_symmetry_space_group_name_H-M	'P 1'
_symmetry_Int_Tables_number		1

loop_
	_symmetry_equiv_pos_as_xyz
	x,y,z

loop_
	_atom_site_label
	_atom_site_type_symbol
	_atom_site_fract_x
	_atom_site_fract_y
	_atom_site_fract_z
	H0	H	0.393377	0.835085	0.708937
	H1	H	0.594210	0.163184	0.711650
	H2	H	0.594252	0.836105	0.278545
	H3	H	0.396182	0.164950	0.283039
	H4	H	0.707333	0.399468	0.833094
	H5	H	0.708061	0.600899	0.158094
	H6	H	0.276565	0.597917	0.832984
	H7	H	0.275062	0.401050	0.157973
	H8	H	0.828905	0.713991	0.400490
	H9	H	0.156974	0.714106	0.594016
	H10	H	0.828700	0.287106	0.591455
	H11	H	0.158162	0.288070	0.399434
	H12	H	0.829424	0.400490	0.710503
	H13	H	0.155648	0.600138	0.712771
	H14	H	0.829345	0.600427	0.282040
	H15	H	0.155207	0.399895	0.278770
	H16	H	0.393925	0.712262	0.832008
	H17	H	0.590403	0.715403	0.158422
	H18	H	0.588452	0.285745	0.832091
	H19	H	0.393906	0.287112	0.159483
	H20	H	0.708021	0.835602	0.395325
	H21	H	0.706752	0.164631	0.594007
	H22	H	0.278944	0.835810	0.591741
	H23	H	0.280052	0.165257	0.398208
	H24	H	0.893349	0.335536	0.208801
	H25	H	0.090626	0.664352	0.212078
	H26	H	0.090728	0.335859	0.781609
	H27	H	0.893543	0.664838	0.781984
	H28	H	0.207890	0.900688	0.332960
	H29	H	0.208900	0.100789	0.658186
	H30	H	0.777108	0.099573	0.333466
	H31	H	0.775878	0.900636	0.658187
	H32	H	0.328298	0.211091	0.899370
	H33	H	0.655616	0.215164	0.093005
	H34	H	0.328490	0.786857	0.091294
	H35	H	0.656360	0.783756	0.896408
	H36	H	0.330066	0.899686	0.211819
	H37	H	0.655849	0.100250	0.210602
	H38	H	0.330485	0.099539	0.779245
	H39	H	0.656493	0.899165	0.779355
	H40	H	0.896222	0.213294	0.332667
	H41	H	0.089974	0.213735	0.659545
	H42	H	0.091195	0.784269	0.333119
	H43	H	0.894700	0.786959	0.660150
	H44	H	0.204682	0.335725	0.898063
	H45	H	0.205632	0.664998	0.095441
	H46	H	0.779381	0.334689	0.091813
	H47	H	0.777094	0.664842	0.898182
	H48	H	0.402508	0.115854	0.584610
	H49	H	0.582844	0.885998	0.578222
	H50	H	0.592707	0.119264	0.402163
	H51	H	0.409431	0.885122	0.400547
	H52	H	0.593078	0.402736	0.115088
	H53	H	0.582695	0.577961	0.885334
	H54	H	0.410051	0.594214	0.108184
	H55	H	0.410206	0.407513	0.884042
	H56	H	0.108351	0.584779	0.395006
	H57	H	0.877699	0.594842	0.584407
	H58	H	0.108740	0.410012	0.589435
	H59	H	0.880755	0.407416	0.415917
	H60	H	0.110131	0.407198	0.592085
	H61	H	0.878271	0.587218	0.591040
	H62	H	0.112255	0.601780	0.402684
	H63	H	0.877468	0.418097	0.393306
	H64	H	0.393034	0.601195	0.114990
	H65	H	0.575897	0.601294	0.879550
	H66	H	0.585953	0.416934	0.108881
	H67	H	0.392659	0.393930	0.875214
	H68	H	0.580292	0.116618	0.397905
	H69	H	0.593610	0.880128	0.588533
	H70	H	0.397383	0.118818	0.589874
	H71	H	0.398102	0.885220	0.410288
	H72	H	0.900715	0.619676	0.099108
	H73	H	0.086962	0.381814	0.088892
	H74	H	0.079632	0.614920	0.905668
	H75	H	0.894459	0.380597	0.898223
	H76	H	0.093522	0.906644	0.614417
	H77	H	0.085641	0.091276	0.380666
	H78	H	0.907388	0.097302	0.610248
	H79	H	0.884900	0.912815	0.378289
	H80	H	0.607386	0.090534	0.904981
	H81	H	0.376241	0.094567	0.086095
	H82	H	0.610082	0.896183	0.080489
	H83	H	0.378663	0.912734	0.898820
	H84	H	0.603207	0.918476	0.081417
	H85	H	0.377575	0.087347	0.090949
	H86	H	0.609016	0.089611	0.900069
	H87	H	0.374561	0.903238	0.895960
	H88	H	0.893022	0.096963	0.615118
	H89	H	0.086145	0.095912	0.378750
	H90	H	0.086378	0.913255	0.609572
	H91	H	0.911339	0.916193	0.387512
	H92	H	0.086495	0.617895	0.907382
	H93	H	0.080184	0.383893	0.089912
	H94	H	0.906477	0.613374	0.084072
	H95	H	0.903713	0.383785	0.900026
	H96	H	0.404779	0.116298	0.591911
	H97	H	0.578604	0.882745	0.593432
	H98	H	0.583549	0.113785	0.410177
	H99	H	0.395231	0.880024	0.396808
	H100	H	0.576770	0.403112	0.110531
	H101	H	0.599180	0.593497	0.875118
	H102	H	0.394344	0.582423	0.109383
	H103	H	0.388863	0.416823	0.880423
	H104	H	0.104648	0.587926	0.413236
	H105	H	0.874230	0.596400	0.593734
	H106	H	0.108609	0.405815	0.588381
	H107	H	0.871193	0.393491	0.396648
	H108	H	0.890295	0.618651	0.085170
	H109	H	0.082597	0.384709	0.084165
	H110	H	0.084395	0.618801	0.900180
	H111	H	0.897180	0.384179	0.907517
	H112	H	0.083555	0.903328	0.612346
	H113	H	0.090881	0.092557	0.379587
	H114	H	0.899156	0.084058	0.609571
	H115	H	0.903094	0.891602	0.376492
	H116	H	0.610078	0.094298	0.902384
	H117	H	0.374548	0.095241	0.094757
	H118	H	0.611908	0.908569	0.100614
	H119	H	0.378344	0.904820	0.906084
	C120	C	0.372398	0.008311	0.616643
	C121	C	0.614443	0.991517	0.616381
	C122	C	0.614836	0.008195	0.373878
	C123	C	0.372576	0.992156	0.374435
	C124	C	0.613345	0.378091	0.003674
	C125	C	0.614157	0.621078	0.987451
	C126	C	0.370264	0.621069	0.003687
	C127	C	0.369140	0.377658	0.987273
	C128	C	0.000719	0.621137	0.375382
	C129	C	0.984436	0.622177	0.618556
	C130	C	0.001126	0.379046	0.617360
	C131	C	0.984675	0.377669	0.373595
	C132	C	0.870481	0.508343	0.117456
	C133	C	0.112815	0.491992	0.117393
	C134	C	0.112559	0.508761	0.875481
	C135	C	0.870208	0.491836	0.874048
	C136	C	0.115519	0.878519	0.504185
	C137	C	0.115377	0.121753	0.487583
	C138	C	0.871604	0.121097	0.504104
	C139	C	0.871072	0.878380	0.488390
	C140	C	0.501064	0.120276	0.873990
	C141	C	0.484048	0.121780	0.118044
	C142	C	0.500801	0.878851	0.116120
	C143	C	0.484860	0.877298	0.872043
	C144	C	0.374140	0.884269	0.670952
	C145	C	0.613408	0.114529	0.672920
	C146	C	0.613544	0.884945	0.317436
	C147	C	0.374812	0.115847	0.319865
	C148	C	0.668856	0.379675	0.881483
	C149	C	0.669326	0.620180	0.109859
	C150	C	0.314422	0.618566	0.881375
	C151	C	0.313667	0.380496	0.109793
	C152	C	0.877795	0.676652	0.378751
	C153	C	0.107757	0.677036	0.615414
	C154	C	0.877815	0.324292	0.613187
	C155	C	0.108417	0.324170	0.377388
	C156	C	0.878184	0.380615	0.672373
	C157	C	0.107165	0.620360	0.674399
	C158	C	0.878139	0.620006	0.319904
	C159	C	0.107172	0.380085	0.317700
	C160	C	0.372801	0.675270	0.880943
	C161	C	0.610849	0.677208	0.109836
	C162	C	0.609931	0.323083	0.881171
	C163	C	0.372329	0.323533	0.110144
	C164	C	0.670226	0.884775	0.375397
	C165	C	0.669815	0.115032	0.614657
	C166	C	0.316895	0.884550	0.613102
	C167	C	0.317550	0.116064	0.377587
	C168	C	0.872670	0.384702	0.171724
	C169	C	0.110960	0.615470	0.173676
	C170	C	0.110352	0.384827	0.819977
	C171	C	0.872743	0.615719	0.819610
	C172	C	0.170377	0.880095	0.381545
	C173	C	0.170450	0.120125	0.610084
	C174	C	0.815863	0.119203	0.381868
	C175	C	0.814671	0.880294	0.610073
	C176	C	0.377650	0.174412	0.877630
	C177	C	0.606985	0.177320	0.114241
	C178	C	0.377472	0.824307	0.112855
	C179	C	0.607703	0.821682	0.875616
	C180	C	0.378490	0.880050	0.172918
	C181	C	0.607171	0.120331	0.172693
	C182	C	0.378679	0.118765	0.818050
	C183	C	0.607912	0.879228	0.817644
	C184	C	0.874848	0.175851	0.381308
	C185	C	0.111532	0.176542	0.610668
	C186	C	0.112082	0.822440	0.381757
	C187	C	0.873956	0.824303	0.611189
	C188	C	0.167293	0.384611	0.877516
	C189	C	0.168397	0.615509	0.115745
	C190	C	0.816248	0.384235	0.113417
	C191	C	0.815165	0.615742	0.877557
	C192	C	0.394817	0.094624	0.595015
	C193	C	0.591766	0.905115	0.593376
	C194	C	0.592242	0.094328	0.396792
	C195	C	0.394489	0.905822	0.396170
	C196	C	0.591517	0.401010	0.089357
	C197	C	0.592143	0.597811	0.902017
	C198	C	0.392502	0.599063	0.088706
	C199	C	0.390838	0.399561	0.902050
	C200	C	0.086260	0.598300	0.397269
	C201	C	0.898860	0.599608	0.596208
	C202	C	0.087035	0.401177	0.596127
	C203	C	0.898713	0.399686	0.395527
	C204	C	0.892679	0.595014	0.095959
	C205	C	0.089996	0.405777	0.094491
	C206	C	0.090119	0.594855	0.897805
	C207	C	0.891963	0.405352	0.895720
	C208	C	0.094167	0.901184	0.589850
	C209	C	0.093968	0.099513	0.401845
	C210	C	0.893459	0.099186	0.589664
	C211	C	0.893231	0.900379	0.402777
	C212	C	0.586823	0.098088	0.895937
	C213	C	0.398289	0.099134	0.096773
	C214	C	0.586387	0.901101	0.094006
	C215	C	0.399288	0.900058	0.893815
	Zn216	Zn	0.493495	-0.000253	0.744543
	Zn217	Zn	0.493464	0.000005	0.246387
	Zn218	Zn	0.742388	0.499651	-0.003942
	Zn219	Zn	0.240614	0.500286	-0.004459
	Zn220	Zn	-0.006958	0.750403	0.496844
	Zn221	Zn	-0.006446	0.249686	0.495868
	Zn222	Zn	-0.007577	0.500196	0.746508
	Zn223	Zn	-0.008231	0.499739	0.245648
	Zn224	Zn	0.491760	0.749578	-0.005364
	Zn225	Zn	0.491817	0.249187	-0.004267
	Zn226	Zn	0.742024	-0.000359	0.495710
	Zn227	Zn	0.244291	0.000458	0.495789
	N228	N	0.407931	0.962160	0.673087
	N229	N	0.579591	0.036692	0.673828
	N230	N	0.579658	0.962713	0.316549
	N231	N	0.408116	0.037938	0.317892
	N232	N	0.671097	0.413366	0.958938
	N233	N	0.671464	0.586089	0.032744
	N234	N	0.312726	0.585401	0.958637
	N235	N	0.311621	0.413843	0.032634
	N236	N	0.954858	0.677498	0.412563
	N237	N	0.030648	0.678235	0.581442
	N238	N	0.955233	0.323131	0.579541
	N239	N	0.031234	0.322729	0.411541
	N240	N	0.955722	0.413947	0.674915
	N241	N	0.029573	0.587019	0.676390
	N242	N	0.955612	0.586106	0.317768
	N243	N	0.029204	0.412507	0.315304
	N244	N	0.406824	0.676948	0.957729
	N245	N	0.577208	0.677841	0.032634
	N246	N	0.576199	0.322287	0.958050
	N247	N	0.406139	0.321740	0.033166
	N248	N	0.670941	0.962477	0.409923
	N249	N	0.670491	0.037316	0.580194
	N250	N	0.315661	0.962592	0.580216
	N251	N	0.316137	0.038137	0.410977
	N252	N	0.905584	0.463008	0.174297
	N253	N	0.077308	0.537570	0.174861
	N254	N	0.077185	0.463065	0.818404
	N255	N	0.905971	0.537788	0.817363
	N256	N	0.172742	0.913963	0.458754
	N257	N	0.172769	0.086863	0.532542
	N258	N	0.813716	0.086022	0.459057
	N259	N	0.813003	0.913337	0.532865
	N260	N	0.454671	0.175404	0.911869
	N261	N	0.529407	0.178360	0.081247
	N262	N	0.454315	0.823504	0.078209
	N263	N	0.530224	0.820333	0.908885
	N264	N	0.456211	0.913439	0.174950
	N265	N	0.529839	0.086510	0.175158
	N266	N	0.456438	0.085778	0.815738
	N267	N	0.530661	0.912971	0.815361
	N268	N	0.908944	0.177131	0.458146
	N269	N	0.077897	0.177564	0.533542
	N270	N	0.078753	0.821448	0.459022
	N271	N	0.908496	0.823288	0.534433
	N272	N	0.168521	0.462296	0.911615
	N273	N	0.169556	0.537608	0.081572
	N274	N	0.814679	0.462335	0.080340
	N275	N	0.813254	0.537542	0.910500
	O276	O	0.553745	0.570274	0.496234
	H277	H	0.551250	0.574221	0.486377
	H278	H	0.565636	0.568536	0.494830
	O279	O	0.525093	0.493309	0.484164
	H280	H	0.528253	0.495851	0.488366
	H281	H	0.533184	0.494153	0.483984
	O282	O	0.484606	0.542891	0.471590
	H283	H	0.482471	0.540115	0.469146
	H284	H	0.481513	0.550418	0.463326
	O285	O	0.062918	0.961027	1.018431
	H286	H	0.072634	0.960322	1.012566
	H287	H	0.059220	0.964668	1.016380
	O288	O	0.496660	0.538180	0.493291
	H289	H	0.496728	0.535604	0.488768
	H290	H	0.486199	0.545618	0.491663
	O291	O	0.064804	0.019085	0.998847
	H292	H	0.061445	0.022337	1.004227
	H293	H	0.074360	0.026113	0.994870
	O294	O	0.499219	0.535747	0.555581
	H295	H	0.502743	0.540422	0.569763
	H296	H	0.497937	0.542172	0.554412
	O297	O	0.504414	0.504614	0.469278
	H298	H	0.502458	0.498539	0.474820
	H299	H	0.510441	0.501892	0.468208
	O300	O	0.816589	0.813021	0.831628
	H301	H	0.817641	0.809646	0.837296
	H302	H	0.817973	0.812904	0.823913
	O303	O	0.555650	0.533378	0.517013
	H304	H	0.552482	0.542313	0.514671
	H305	H	0.553803	0.527333	0.526567
	O306	O	0.951700	-0.006966	1.035472
	H307	H	0.946168	-0.012138	1.038917
	H308	H	0.950499	-0.008776	1.031835
	O309	O	0.502260	0.392595	0.456624
	H310	H	0.501440	0.391457	0.450731
	H311	H	0.499854	0.398941	0.467271
	O312	O	0.553140	0.528397	0.468786
	H313	H	0.550208	0.534039	0.472780
	H314	H	0.553622	0.530916	0.465916
	O315	O	1.000766	0.003051	0.979588
	H316	H	1.003474	0.003191	0.977515
	H317	H	1.000211	0.000344	0.982356
	O318	O	0.003064	-0.044079	0.046108
	H319	H	0.000238	-0.046137	0.051065
	H320	H	-0.001863	-0.049047	0.037885
	O321	O	0.525070	0.498317	0.450303
	H322	H	0.524445	0.496537	0.454658
	H323	H	0.528706	0.486232	0.441506
	O324	O	1.016671	-0.020871	0.036603
	H325	H	1.021723	-0.013403	0.035897
	H326	H	1.005811	-0.024996	0.041440
	O327	O	1.019578	0.987946	0.077948
	H328	H	1.015432	0.984191	0.080720
	H329	H	1.028267	0.997071	0.080374
	O330	O	0.539073	0.528028	0.491232
	H331	H	0.540812	0.519107	0.495072
	H332	H	0.541555	0.525859	0.489345
	O333	O	0.510830	0.510815	0.520477
	H334	H	0.508006	0.512666	0.521186
	H335	H	0.511141	0.509789	0.523031
