data_Molecule from HDF5

_cell_length_a		16.315793
_cell_length_b		16.313220
_cell_length_c		16.309431
_cell_angle_alpha	90.139100
_cell_angle_beta	90.010285
_cell_angle_gamma	89.964716
_symmetry_space_group_name_H-M	'P 1'
_symmetry_Int_Tables_number		1

loop_
	_symmetry_equiv_pos_as_xyz
	x,y,z

loop_
	_atom_site_label
	_atom_site_type_symbol
	_atom_site_fract_x
	_atom_site_fract_y
	_atom_site_fract_z
	H0	H	0.403367	0.836751	0.712945
	H1	H	0.597454	0.163328	0.714152
	H2	H	0.598070	0.836381	0.285488
	H3	H	0.402003	0.163365	0.287038
	H4	H	0.714719	0.401301	0.837080
	H5	H	0.713774	0.597446	0.164181
	H6	H	0.285799	0.598023	0.836451
	H7	H	0.285869	0.403041	0.164341
	H8	H	0.836955	0.714482	0.401910
	H9	H	0.163366	0.715392	0.599077
	H10	H	0.836042	0.286272	0.597486
	H11	H	0.163730	0.285722	0.402449
	H12	H	0.835959	0.402829	0.713346
	H13	H	0.163472	0.598274	0.714369
	H14	H	0.836388	0.598041	0.285562
	H15	H	0.163359	0.402686	0.286630
	H16	H	0.402666	0.714223	0.836622
	H17	H	0.598504	0.714566	0.163701
	H18	H	0.597561	0.285298	0.836623
	H19	H	0.401328	0.285861	0.164026
	H20	H	0.714169	0.836752	0.402878
	H21	H	0.713463	0.163802	0.598145
	H22	H	0.285989	0.836411	0.598296
	H23	H	0.285191	0.163357	0.402075
	H24	H	0.902758	0.336376	0.213407
	H25	H	0.097037	0.664028	0.214226
	H26	H	0.099034	0.336720	0.784926
	H27	H	0.901279	0.662992	0.785388
	H28	H	0.214901	0.900980	0.336374
	H29	H	0.213954	0.097959	0.663676
	H30	H	0.785823	0.097181	0.336503
	H31	H	0.786486	0.903014	0.663766
	H32	H	0.336724	0.214419	0.902528
	H33	H	0.663044	0.213944	0.099253
	H34	H	0.336168	0.786379	0.097746
	H35	H	0.663437	0.785563	0.901977
	H36	H	0.336240	0.902378	0.214126
	H37	H	0.662738	0.097797	0.214869
	H38	H	0.336428	0.098253	0.785476
	H39	H	0.663873	0.902311	0.785860
	H40	H	0.902435	0.213318	0.335917
	H41	H	0.097374	0.214560	0.663543
	H42	H	0.098841	0.784540	0.336460
	H43	H	0.901936	0.785990	0.663793
	H44	H	0.215088	0.337276	0.901059
	H45	H	0.214386	0.663681	0.099051
	H46	H	0.786057	0.336378	0.097431
	H47	H	0.785495	0.663189	0.902130
	H48	H	0.403437	0.116678	0.591553
	H49	H	0.598733	0.880021	0.601578
	H50	H	0.600017	0.116325	0.415215
	H51	H	0.414503	0.883764	0.400487
	H52	H	0.583971	0.403530	0.115029
	H53	H	0.586017	0.593581	0.885875
	H54	H	0.409588	0.597256	0.116614
	H55	H	0.412675	0.410940	0.887594
	H56	H	0.111868	0.586472	0.416079
	H57	H	0.882044	0.587542	0.604688
	H58	H	0.114137	0.414759	0.597605
	H59	H	0.884027	0.410196	0.403655
	H60	H	0.119921	0.399439	0.597337
	H61	H	0.880791	0.605882	0.591716
	H62	H	0.118281	0.587795	0.395701
	H63	H	0.881197	0.402529	0.403553
	H64	H	0.402921	0.595112	0.117420
	H65	H	0.597831	0.598833	0.881221
	H66	H	0.600774	0.400076	0.120400
	H67	H	0.408274	0.399688	0.882866
	H68	H	0.597046	0.120221	0.396791
	H69	H	0.584279	0.886246	0.594246
	H70	H	0.406727	0.117518	0.596545
	H71	H	0.407804	0.886674	0.415717
	H72	H	0.907004	0.616418	0.096028
	H73	H	0.083079	0.386090	0.094939
	H74	H	0.095686	0.618023	0.905126
	H75	H	0.903927	0.383386	0.906920
	H76	H	0.103279	0.902841	0.620117
	H77	H	0.091082	0.093486	0.383863
	H78	H	0.909062	0.089076	0.613533
	H79	H	0.905339	0.904401	0.382498
	H80	H	0.615073	0.086853	0.901425
	H81	H	0.383444	0.095628	0.088884
	H82	H	0.616824	0.904005	0.092434
	H83	H	0.384703	0.907991	0.907433
	H84	H	0.614333	0.909136	0.090274
	H85	H	0.384846	0.088782	0.092948
	H86	H	0.620027	0.100311	0.902648
	H87	H	0.383906	0.907995	0.904986
	H88	H	0.909420	0.098814	0.617054
	H89	H	0.094920	0.096385	0.382336
	H90	H	0.092238	0.919250	0.612004
	H91	H	0.905760	0.909900	0.384706
	H92	H	0.091153	0.616078	0.905450
	H93	H	0.097813	0.385038	0.083281
	H94	H	0.907792	0.615687	0.091300
	H95	H	0.907945	0.383432	0.903678
	H96	H	0.409423	0.114939	0.591774
	H97	H	0.598715	0.884630	0.584801
	H98	H	0.583156	0.112813	0.407769
	H99	H	0.398491	0.880098	0.403640
	H100	H	0.596341	0.416397	0.114787
	H101	H	0.597140	0.585522	0.885246
	H102	H	0.407236	0.590184	0.115156
	H103	H	0.400452	0.410073	0.883266
	H104	H	0.118951	0.604981	0.408504
	H105	H	0.889338	0.587107	0.583269
	H106	H	0.113496	0.405856	0.583910
	H107	H	0.884784	0.406053	0.410353
	H108	H	0.903573	0.617044	0.093438
	H109	H	0.100195	0.380241	0.100608
	H110	H	0.094016	0.615388	0.909742
	H111	H	0.908664	0.384487	0.908275
	H112	H	0.082744	0.900199	0.614517
	H113	H	0.095472	0.090985	0.383681
	H114	H	0.900568	0.093704	0.617736
	H115	H	0.909580	0.906181	0.385368
	H116	H	0.613750	0.093579	0.913929
	H117	H	0.382210	0.095158	0.097088
	H118	H	0.616186	0.909202	0.096495
	H119	H	0.383388	0.905218	0.906292
	C120	C	0.378664	0.008425	0.621394
	C121	C	0.621914	0.991621	0.621768
	C122	C	0.621651	0.008217	0.378496
	C123	C	0.378274	0.991661	0.378461
	C124	C	0.621970	0.378052	0.008615
	C125	C	0.621695	0.621023	0.992415
	C126	C	0.378380	0.621991	0.007954
	C127	C	0.378483	0.378822	0.992585
	C128	C	0.008268	0.621139	0.378382
	C129	C	0.991830	0.621990	0.621849
	C130	C	0.007942	0.378290	0.621440
	C131	C	0.991618	0.378633	0.378127
	C132	C	0.878645	0.508154	0.121276
	C133	C	0.121567	0.491948	0.121722
	C134	C	0.121857	0.508297	0.878232
	C135	C	0.878604	0.491640	0.878475
	C136	C	0.121749	0.878361	0.507799
	C137	C	0.121747	0.121583	0.491807
	C138	C	0.878350	0.121758	0.508028
	C139	C	0.878328	0.878322	0.492136
	C140	C	0.508310	0.121425	0.878243
	C141	C	0.491147	0.121543	0.121806
	C142	C	0.507821	0.878730	0.121612
	C143	C	0.491858	0.878110	0.877630
	C144	C	0.381988	0.885212	0.675973
	C145	C	0.618356	0.114726	0.676394
	C146	C	0.618759	0.885118	0.323840
	C147	C	0.380948	0.114618	0.324134
	C148	C	0.676361	0.380948	0.885514
	C149	C	0.676496	0.618634	0.115229
	C150	C	0.323599	0.618667	0.885246
	C151	C	0.323602	0.381888	0.115543
	C152	C	0.885410	0.676212	0.381454
	C153	C	0.114648	0.677216	0.619387
	C154	C	0.884822	0.323800	0.618454
	C155	C	0.114796	0.323540	0.381244
	C156	C	0.884731	0.382087	0.675705
	C157	C	0.114748	0.619253	0.676836
	C158	C	0.885214	0.618530	0.323553
	C159	C	0.114654	0.381568	0.323761
	C160	C	0.381589	0.676447	0.885248
	C161	C	0.618983	0.676612	0.115018
	C162	C	0.618491	0.323238	0.885529
	C163	C	0.381263	0.324259	0.115436
	C164	C	0.676456	0.885341	0.381849
	C165	C	0.676073	0.114848	0.618906
	C166	C	0.323853	0.885286	0.618979
	C167	C	0.323180	0.114583	0.381537
	C168	C	0.882094	0.384900	0.175255
	C169	C	0.118338	0.614993	0.176740
	C170	C	0.119404	0.385541	0.823056
	C171	C	0.881094	0.614537	0.823604
	C172	C	0.176903	0.880767	0.385139
	C173	C	0.176059	0.118599	0.614993
	C174	C	0.823363	0.118467	0.385109
	C175	C	0.823886	0.881822	0.614971
	C176	C	0.385118	0.176089	0.881772
	C177	C	0.614424	0.175971	0.119232
	C178	C	0.384882	0.824028	0.118552
	C179	C	0.614719	0.823167	0.880777
	C180	C	0.385025	0.881611	0.176379
	C181	C	0.614094	0.118234	0.176767
	C182	C	0.385146	0.118404	0.823739
	C183	C	0.614979	0.881271	0.823313
	C184	C	0.881871	0.175602	0.384719
	C185	C	0.118334	0.176613	0.614795
	C186	C	0.118906	0.823309	0.384830
	C187	C	0.881593	0.823994	0.615048
	C188	C	0.177180	0.385789	0.880748
	C189	C	0.176173	0.615048	0.119227
	C190	C	0.824091	0.385000	0.117962
	C191	C	0.823429	0.614604	0.881349
	C192	C	0.400159	0.094204	0.599671
	C193	C	0.600278	0.905698	0.599955
	C194	C	0.599856	0.094238	0.400176
	C195	C	0.400363	0.905780	0.400266
	C196	C	0.600391	0.400094	0.094525
	C197	C	0.599953	0.599245	0.906338
	C198	C	0.400180	0.600392	0.094220
	C199	C	0.400516	0.400658	0.906822
	C200	C	0.094064	0.599348	0.400200
	C201	C	0.906121	0.600006	0.599734
	C202	C	0.093834	0.400277	0.599424
	C203	C	0.905651	0.400028	0.399527
	C204	C	0.900002	0.594138	0.100011
	C205	C	0.100105	0.406037	0.099453
	C206	C	0.100000	0.594412	0.900265
	C207	C	0.900528	0.405854	0.899977
	C208	C	0.099338	0.900747	0.593482
	C209	C	0.100198	0.099881	0.405654
	C210	C	0.899906	0.100106	0.594042
	C211	C	0.900450	0.900276	0.406133
	C212	C	0.593917	0.099861	0.899697
	C213	C	0.405440	0.099768	0.099560
	C214	C	0.593577	0.900830	0.099441
	C215	C	0.406162	0.900357	0.899717
	Zn216	Zn	0.499989	-0.000213	0.749255
	Zn217	Zn	0.499369	-0.000177	0.250170
	Zn218	Zn	0.750478	0.500022	-0.000023
	Zn219	Zn	0.249755	0.500192	0.000193
	Zn220	Zn	-0.000042	0.749857	0.500002
	Zn221	Zn	0.000031	0.250085	0.499720
	Zn222	Zn	-0.000053	0.499895	0.750110
	Zn223	Zn	-0.000277	0.499935	0.249359
	Zn224	Zn	0.500101	0.750177	0.000040
	Zn225	Zn	0.499786	0.249850	0.000524
	Zn226	Zn	0.749930	0.000310	0.500247
	Zn227	Zn	0.250437	-0.000446	0.499871
	N228	N	0.415179	0.962752	0.677538
	N229	N	0.585587	0.037210	0.678446
	N230	N	0.585528	0.962631	0.321391
	N231	N	0.414847	0.037384	0.322501
	N232	N	0.678586	0.414372	0.962954
	N233	N	0.678140	0.584803	0.038144
	N234	N	0.321677	0.585578	0.962739
	N235	N	0.321742	0.415364	0.038195
	N236	N	0.962786	0.677755	0.414951
	N237	N	0.037329	0.678922	0.585761
	N238	N	0.962445	0.321411	0.585475
	N239	N	0.037343	0.321585	0.414559
	N240	N	0.962284	0.415303	0.677529
	N241	N	0.037503	0.585471	0.678346
	N242	N	0.962666	0.584952	0.321576
	N243	N	0.037278	0.415047	0.321894
	N244	N	0.415127	0.678254	0.962703
	N245	N	0.585457	0.678114	0.037591
	N246	N	0.585454	0.321307	0.963127
	N247	N	0.414568	0.322132	0.038051
	N248	N	0.677907	0.962662	0.415323
	N249	N	0.678310	0.037172	0.585775
	N250	N	0.321651	0.962595	0.585705
	N251	N	0.321400	0.037087	0.414446
	N252	N	0.915045	0.462344	0.177491
	N253	N	0.085126	0.537558	0.178201
	N254	N	0.085672	0.462696	0.821627
	N255	N	0.914498	0.537186	0.821647
	N256	N	0.178659	0.914201	0.462631
	N257	N	0.178019	0.084918	0.537625
	N258	N	0.821344	0.085675	0.462764
	N259	N	0.821856	0.914867	0.537584
	N260	N	0.462536	0.178105	0.914890
	N261	N	0.537075	0.178169	0.085641
	N262	N	0.462217	0.822221	0.085045
	N263	N	0.537314	0.821233	0.913921
	N264	N	0.462408	0.914935	0.178128
	N265	N	0.536755	0.084812	0.178206
	N266	N	0.462616	0.085099	0.821261
	N267	N	0.537613	0.914862	0.821356
	N268	N	0.915309	0.177675	0.462001
	N269	N	0.085167	0.178457	0.537139
	N270	N	0.085189	0.821657	0.462128
	N271	N	0.914635	0.821733	0.537377
	N272	N	0.178470	0.463153	0.914601
	N273	N	0.178252	0.537597	0.085529
	N274	N	0.821954	0.462578	0.085040
	N275	N	0.821954	0.537306	0.914916
