data_Molecule from HDF5

_cell_length_a		16.210549
_cell_length_b		16.467001
_cell_length_c		16.230957
_cell_angle_alpha	89.872893
_cell_angle_beta	89.508209
_cell_angle_gamma	90.224963
_symmetry_space_group_name_H-M	'P 1'
_symmetry_Int_Tables_number		1

loop_
	_symmetry_equiv_pos_as_xyz
	x,y,z

loop_
	_atom_site_label
	_atom_site_type_symbol
	_atom_site_fract_x
	_atom_site_fract_y
	_atom_site_fract_z
	H0	H	0.401792	0.840898	0.716607
	H1	H	0.603989	0.164088	0.714598
	H2	H	0.607709	0.841711	0.279496
	H3	H	0.405947	0.163485	0.281862
	H4	H	0.720094	0.406687	0.835206
	H5	H	0.716858	0.603337	0.162801
	H6	H	0.292886	0.599732	0.832722
	H7	H	0.286962	0.404016	0.162027
	H8	H	0.842540	0.721618	0.398166
	H9	H	0.167942	0.720353	0.599563
	H10	H	0.843477	0.282645	0.607167
	H11	H	0.167072	0.287044	0.394897
	H12	H	0.840590	0.404074	0.715491
	H13	H	0.169763	0.600269	0.709353
	H14	H	0.839847	0.602033	0.287520
	H15	H	0.166695	0.404531	0.281695
	H16	H	0.403639	0.720137	0.835220
	H17	H	0.605851	0.721927	0.160113
	H18	H	0.606813	0.286562	0.835831
	H19	H	0.398051	0.284108	0.161002
	H20	H	0.722997	0.841180	0.396772
	H21	H	0.721873	0.163439	0.599021
	H22	H	0.285786	0.840709	0.599421
	H23	H	0.290994	0.164609	0.400177
	H24	H	0.901696	0.343071	0.218031
	H25	H	0.105024	0.665797	0.214171
	H26	H	0.106645	0.341793	0.780557
	H27	H	0.905798	0.664347	0.782942
	H28	H	0.220061	0.906089	0.334606
	H29	H	0.217705	0.099681	0.663881
	H30	H	0.791409	0.103046	0.335643
	H31	H	0.787130	0.902854	0.661912
	H32	H	0.340435	0.218624	0.897270
	H33	H	0.664978	0.222926	0.101316
	H34	H	0.341597	0.783600	0.102156
	H35	H	0.666592	0.785858	0.893505
	H36	H	0.340693	0.901352	0.216001
	H37	H	0.668731	0.101239	0.210558
	H38	H	0.338623	0.099379	0.786626
	H39	H	0.667517	0.904614	0.782101
	H40	H	0.902330	0.223255	0.338395
	H41	H	0.109584	0.221965	0.661239
	H42	H	0.110323	0.785655	0.336931
	H43	H	0.900788	0.785041	0.661240
	H44	H	0.220957	0.341552	0.897997
	H45	H	0.221377	0.664584	0.095881
	H46	H	0.784512	0.343169	0.102056
	H47	H	0.789106	0.664343	0.898999
	H48	H	0.408560	0.117915	0.591718
	H49	H	0.600339	0.886720	0.589215
	H50	H	0.598720	0.114018	0.412074
	H51	H	0.407004	0.888149	0.413510
	H52	H	0.585797	0.422210	0.108569
	H53	H	0.597143	0.598161	0.881050
	H54	H	0.421474	0.589968	0.109688
	H55	H	0.408789	0.401492	0.878522
	H56	H	0.120227	0.599425	0.414204
	H57	H	0.889461	0.593868	0.590262
	H58	H	0.119515	0.412754	0.586568
	H59	H	0.886629	0.410182	0.406101
	H60	H	0.121069	0.413249	0.591011
	H61	H	0.887945	0.594617	0.594062
	H62	H	0.118855	0.587919	0.404945
	H63	H	0.888437	0.408566	0.416912
	H64	H	0.412565	0.603084	0.115879
	H65	H	0.598245	0.593672	0.882604
	H66	H	0.584790	0.399327	0.115106
	H67	H	0.410080	0.417671	0.883157
	H68	H	0.603868	0.118705	0.401298
	H69	H	0.591795	0.888262	0.595741
	H70	H	0.412148	0.117153	0.595230
	H71	H	0.410299	0.885632	0.399823
	H72	H	0.911441	0.620202	0.100429
	H73	H	0.089262	0.388290	0.099713
	H74	H	0.107220	0.618928	0.906242
	H75	H	0.914439	0.389976	0.909697
	H76	H	0.098172	0.906941	0.617743
	H77	H	0.099216	0.098271	0.382224
	H78	H	0.912001	0.084700	0.612776
	H79	H	0.916593	0.915531	0.384712
	H80	H	0.617373	0.088111	0.905161
	H81	H	0.390670	0.092847	0.082234
	H82	H	0.618290	0.914654	0.087778
	H83	H	0.389240	0.912747	0.910551
	H84	H	0.621171	0.909234	0.089160
	H85	H	0.387493	0.086457	0.095726
	H86	H	0.623397	0.100927	0.900760
	H87	H	0.386220	0.909088	0.905144
	H88	H	0.921966	0.096520	0.612896
	H89	H	0.097033	0.092393	0.384429
	H90	H	0.095167	0.914944	0.613741
	H91	H	0.919604	0.907513	0.383353
	H92	H	0.096740	0.619439	0.896195
	H93	H	0.089306	0.393243	0.083519
	H94	H	0.917359	0.615889	0.089730
	H95	H	0.910314	0.388206	0.909206
	H96	H	0.412458	0.115293	0.590504
	H97	H	0.592040	0.890789	0.585242
	H98	H	0.591658	0.115517	0.402237
	H99	H	0.419907	0.890609	0.408522
	H100	H	0.605110	0.411403	0.118813
	H101	H	0.593424	0.595684	0.883674
	H102	H	0.405215	0.588370	0.114367
	H103	H	0.422916	0.407144	0.884948
	H104	H	0.123847	0.601131	0.399754
	H105	H	0.886981	0.597742	0.590531
	H106	H	0.121896	0.409177	0.588353
	H107	H	0.890482	0.417872	0.412360
	H108	H	0.904237	0.619267	0.089727
	H109	H	0.103556	0.387297	0.090250
	H110	H	0.093013	0.614869	0.909773
	H111	H	0.912574	0.388246	0.906104
	H112	H	0.089220	0.907939	0.614015
	H113	H	0.092773	0.097710	0.384887
	H114	H	0.907447	0.098293	0.618179
	H115	H	0.911365	0.909336	0.380993
	H116	H	0.617763	0.099336	0.914889
	H117	H	0.384974	0.101373	0.093936
	H118	H	0.618643	0.910065	0.083213
	H119	H	0.386991	0.905799	0.911295
	C120	C	0.380698	0.010376	0.622096
	C121	C	0.625270	0.994532	0.619983
	C122	C	0.627979	0.010229	0.375496
	C123	C	0.383209	0.994447	0.377562
	C124	C	0.623854	0.382070	0.006861
	C125	C	0.625537	0.625561	0.990145
	C126	C	0.383783	0.623270	0.005717
	C127	C	0.381791	0.379742	0.989754
	C128	C	0.013279	0.625516	0.377681
	C129	C	0.996593	0.624489	0.620070
	C130	C	0.013235	0.381203	0.621047
	C131	C	0.995762	0.382557	0.379663
	C132	C	0.880548	0.512471	0.123315
	C133	C	0.124748	0.495764	0.120188
	C134	C	0.127756	0.511210	0.874970
	C135	C	0.883646	0.495029	0.878488
	C136	C	0.125576	0.881448	0.507486
	C137	C	0.126365	0.124961	0.491348
	C138	C	0.884159	0.123848	0.507594
	C139	C	0.883924	0.881122	0.490290
	C140	C	0.511471	0.124086	0.877897
	C141	C	0.495421	0.123835	0.119861
	C142	C	0.512013	0.881003	0.118790
	C143	C	0.495510	0.880884	0.877685
	C144	C	0.381756	0.888976	0.678254
	C145	C	0.623946	0.115807	0.676299
	C146	C	0.627374	0.889506	0.318481
	C147	C	0.385764	0.115612	0.320884
	C148	C	0.681712	0.385106	0.884147
	C149	C	0.680104	0.623646	0.113207
	C150	C	0.329438	0.620556	0.882369
	C151	C	0.324714	0.382676	0.113030
	C152	C	0.890832	0.682527	0.378832
	C153	C	0.119214	0.681034	0.618344
	C154	C	0.891488	0.322588	0.624207
	C155	C	0.118122	0.325696	0.377354
	C156	C	0.890177	0.382752	0.678556
	C157	C	0.120056	0.621595	0.673501
	C158	C	0.889622	0.623313	0.323487
	C159	C	0.118159	0.384187	0.320882
	C160	C	0.384435	0.680655	0.883534
	C161	C	0.624752	0.682773	0.111930
	C162	C	0.625529	0.325287	0.884619
	C163	C	0.380239	0.323445	0.112444
	C164	C	0.684975	0.889427	0.376760
	C165	C	0.682930	0.115384	0.618926
	C166	C	0.324184	0.889004	0.619836
	C167	C	0.328212	0.116115	0.379354
	C168	C	0.881372	0.391304	0.179940
	C169	C	0.124534	0.617251	0.175893
	C170	C	0.126444	0.390275	0.818632
	C171	C	0.885828	0.616091	0.821645
	C172	C	0.182175	0.885041	0.383905
	C173	C	0.181263	0.121377	0.614376
	C174	C	0.828835	0.123410	0.384819
	C175	C	0.825721	0.882529	0.612970
	C176	C	0.388974	0.179808	0.878740
	C177	C	0.617321	0.182384	0.119429
	C178	C	0.389821	0.823050	0.120558
	C179	C	0.618039	0.824690	0.875774
	C180	C	0.389614	0.881580	0.177178
	C181	C	0.619059	0.122037	0.173780
	C182	C	0.388136	0.120398	0.823465
	C183	C	0.618443	0.883856	0.820365
	C184	C	0.883990	0.183020	0.386273
	C185	C	0.127092	0.182103	0.613239
	C186	C	0.127734	0.824990	0.384858
	C187	C	0.882325	0.823932	0.612650
	C188	C	0.183284	0.389943	0.877329
	C189	C	0.182568	0.616712	0.117331
	C190	C	0.823277	0.391342	0.122006
	C191	C	0.827740	0.616363	0.879354
	C192	C	0.404225	0.094900	0.599162
	C193	C	0.601364	0.910383	0.596836
	C194	C	0.604785	0.094268	0.398413
	C195	C	0.405622	0.909978	0.400489
	C196	C	0.599015	0.404410	0.092254
	C197	C	0.602812	0.602584	0.904468
	C198	C	0.406553	0.600458	0.091269
	C199	C	0.406463	0.402308	0.904290
	C200	C	0.098709	0.602887	0.399828
	C201	C	0.910415	0.602031	0.598138
	C202	C	0.098624	0.404916	0.596255
	C203	C	0.910760	0.405440	0.404525
	C204	C	0.903977	0.596505	0.100018
	C205	C	0.100946	0.411538	0.097809
	C206	C	0.105416	0.595939	0.897368
	C207	C	0.905836	0.410786	0.901798
	C208	C	0.101333	0.903342	0.593117
	C209	C	0.103231	0.102658	0.405894
	C210	C	0.907104	0.100098	0.592562
	C211	C	0.908609	0.904139	0.404946
	C212	C	0.597317	0.102282	0.900369
	C213	C	0.409962	0.100379	0.097370
	C214	C	0.597181	0.904556	0.093917
	C215	C	0.409670	0.902773	0.902035
	Zn216	Zn	0.503617	0.002312	0.750323
	Zn217	Zn	0.504910	0.002355	0.247422
	Zn218	Zn	0.753173	0.503892	-0.000316
	Zn219	Zn	0.255243	0.502623	-0.001818
	Zn220	Zn	0.005137	0.753024	0.498683
	Zn221	Zn	0.004916	0.253148	0.500216
	Zn222	Zn	0.004959	0.503044	0.747799
	Zn223	Zn	0.003697	0.503635	0.251002
	Zn224	Zn	0.504273	0.752580	-0.001991
	Zn225	Zn	0.503060	0.252050	-0.001155
	Zn226	Zn	0.755760	0.002455	0.497931
	Zn227	Zn	0.253070	0.002383	0.499031
	N228	N	0.416320	0.965486	0.679758
	N229	N	0.589072	0.039542	0.677334
	N230	N	0.592738	0.965486	0.317365
	N231	N	0.419470	0.039090	0.319747
	N232	N	0.680975	0.419395	0.961371
	N233	N	0.680526	0.588748	0.036401
	N234	N	0.329128	0.585393	0.959419
	N235	N	0.325472	0.416913	0.035739
	N236	N	0.968655	0.684187	0.411596
	N237	N	0.041196	0.682979	0.585715
	N238	N	0.969168	0.321240	0.589364
	N239	N	0.041022	0.324624	0.413366
	N240	N	0.967055	0.418382	0.676691
	N241	N	0.042737	0.587175	0.674675
	N242	N	0.966640	0.588593	0.322612
	N243	N	0.041149	0.418839	0.322036
	N244	N	0.417524	0.682475	0.961126
	N245	N	0.591650	0.684102	0.034162
	N246	N	0.590252	0.323432	0.962082
	N247	N	0.414878	0.321404	0.034781
	N248	N	0.685649	0.965742	0.411169
	N249	N	0.683751	0.039142	0.584543
	N250	N	0.323419	0.965464	0.585838
	N251	N	0.326513	0.039901	0.413812
	N252	N	0.916094	0.467490	0.180904
	N253	N	0.089246	0.541006	0.177790
	N254	N	0.092755	0.466720	0.817050
	N255	N	0.919875	0.539692	0.820799
	N256	N	0.180997	0.919235	0.461093
	N257	N	0.180863	0.086450	0.537537
	N258	N	0.828846	0.087193	0.461222
	N259	N	0.826720	0.917246	0.535882
	N260	N	0.466779	0.182321	0.911882
	N261	N	0.539367	0.183772	0.086786
	N262	N	0.467001	0.822551	0.084984
	N263	N	0.540520	0.822749	0.910657
	N264	N	0.466599	0.916952	0.176237
	N265	N	0.542237	0.086304	0.174291
	N266	N	0.465471	0.086440	0.822745
	N267	N	0.541309	0.918116	0.821570
	N268	N	0.917790	0.183273	0.463663
	N269	N	0.093376	0.184313	0.535840
	N270	N	0.092945	0.822910	0.462543
	N271	N	0.917774	0.822788	0.535258
	N272	N	0.184349	0.466251	0.911503
	N273	N	0.182957	0.540369	0.083502
	N274	N	0.822268	0.467759	0.087874
	N275	N	0.826299	0.540216	0.914152
	O276	O	0.037051	0.062375	0.019194
	H277	H	0.029724	0.061869	0.018921
	H278	H	0.039021	0.058130	0.023629
	O279	O	-0.073786	0.029573	-0.039384
	H280	H	-0.064343	0.044433	-0.041610
	H281	H	-0.073435	0.046492	-0.032302
	O282	O	0.946150	-0.038426	-0.068864
	H283	H	0.945805	-0.021941	-0.070129
	H284	H	0.960004	-0.043855	-0.078233
	O285	O	0.150375	1.012123	0.023165
	H286	H	0.165450	1.005203	0.016943
	H287	H	0.147873	0.994373	0.033149
	O288	O	0.520844	0.527015	0.463823
	H289	H	0.520135	0.542100	0.455590
	H290	H	0.516498	0.527767	0.460431
	O291	O	0.519799	0.442599	0.633505
	H292	H	0.514205	0.433800	0.637458
	H293	H	0.519542	0.456180	0.642270
	O294	O	0.999555	1.022105	1.020982
	H295	H	1.008672	1.021752	1.021698
	H296	H	0.996580	1.002196	1.007344
	O297	O	0.017342	-0.032902	0.049197
	H298	H	0.021235	-0.029080	0.055106
	H299	H	0.014855	-0.015566	0.041281
	O300	O	0.479299	0.646559	0.484358
	H301	H	0.471715	0.659181	0.477391
	H302	H	0.500519	0.654795	0.478559
	O303	O	-0.090977	0.858104	0.961262
	H304	H	-0.104752	0.858189	0.951992
	H305	H	-0.084877	0.873086	0.967433
	O306	O	0.480711	0.353930	0.408240
	H307	H	0.489187	0.350007	0.405926
	H308	H	0.474412	0.352123	0.400134
	O309	O	0.972036	0.143254	-0.119541
	H310	H	0.985441	0.147671	-0.134973
	H311	H	0.954961	0.145630	-0.104533
	O312	O	-0.005755	0.037228	0.945644
	H313	H	-0.009081	0.046079	0.952880
	H314	H	-0.007649	0.033457	0.950694
	O315	O	0.118535	1.048967	1.115675
	H316	H	0.120186	1.052973	1.103282
	H317	H	0.101246	1.045282	1.111112
	O318	O	0.515220	0.387500	0.415395
	H319	H	0.509197	0.387483	0.436897
	H320	H	0.519516	0.379788	0.422910
	O321	O	0.516357	0.506110	0.369056
	H322	H	0.523878	0.495287	0.374227
	H323	H	0.527020	0.505536	0.363069
	O324	O	0.504678	0.498570	0.459563
	H325	H	0.503688	0.494810	0.449592
	H326	H	0.507996	0.492243	0.460327
	O327	O	-0.320690	1.459996	1.442882
	H328	H	-0.301254	1.463759	1.437111
	H329	H	-0.329874	1.445004	1.435531
	O330	O	0.637248	0.447028	0.494061
	H331	H	0.637278	0.459531	0.480679
	H332	H	0.653454	0.442397	0.486085
	O333	O	-0.002834	1.082955	1.107041
	H334	H	-0.004713	1.067553	1.115361
	H335	H	0.005680	1.078484	1.109336
	O336	O	1.029359	0.978906	0.996393
	H337	H	1.015745	0.980044	0.996559
	H338	H	1.033410	0.982933	1.003632
	O339	O	0.479037	0.529241	0.609761
	H340	H	0.478470	0.525253	0.611951
	H341	H	0.472922	0.524176	0.615688
	O342	O	0.961027	-0.028160	0.070397
	H343	H	0.945261	-0.036889	0.073259
	H344	H	0.961613	-0.025884	0.059552
	O345	O	0.483311	0.608806	0.450638
	H346	H	0.484525	0.613406	0.463651
	H347	H	0.492052	0.591973	0.443488
	O348	O	0.585701	0.569653	0.364491
	H349	H	0.585539	0.569247	0.361477
	H350	H	0.588676	0.575162	0.362854
	O351	O	0.970836	0.857088	-0.106724
	H352	H	0.964423	0.856992	-0.123318
	H353	H	0.985781	0.865327	-0.113479
	O354	O	0.935410	0.071494	1.012597
	H355	H	0.925096	0.053314	1.026289
	H356	H	0.943419	0.063569	1.013686
	O357	O	0.473905	0.560423	0.580037
	H358	H	0.461406	0.563132	0.576218
	H359	H	0.466503	0.552571	0.592506
	O360	O	-0.043901	-0.133366	0.092041
	H361	H	-0.033245	-0.129136	0.098107
	H362	H	-0.044483	-0.141807	0.082261
	O363	O	0.419344	0.415596	0.596417
	H364	H	0.407353	0.410681	0.587873
	H365	H	0.410673	0.398701	0.608047
	O366	O	0.480789	0.440496	0.622292
	H367	H	0.487295	0.432337	0.621782
	H368	H	0.477189	0.435905	0.615307
	O369	O	1.015059	0.040807	-0.062593
	H370	H	1.014488	0.031433	-0.056979
	H371	H	1.006121	0.040914	-0.060803
	O372	O	0.478184	0.512682	0.479027
	H373	H	0.462741	0.509879	0.474475
	H374	H	0.487488	0.516800	0.487814
	O375	O	0.451371	0.578367	0.433543
	H376	H	0.438369	0.583396	0.442791
	H377	H	0.449983	0.572042	0.428557
	O378	O	0.568958	0.417265	0.510162
	H379	H	0.567687	0.411721	0.509484
	H380	H	0.572394	0.429926	0.521088
	O381	O	0.511783	0.478168	0.493608
	H382	H	0.528571	0.479251	0.483911
	H383	H	0.507851	0.488664	0.495451
	O384	O	-0.068619	1.118988	-0.082534
	H385	H	-0.067269	1.128924	-0.079215
	H386	H	-0.065646	1.129077	-0.082860
	O387	O	1.045169	0.012085	0.939924
	H388	H	1.035039	0.012481	0.931473
	H389	H	1.048260	0.018445	0.936039
	O390	O	0.046461	1.111146	0.114554
	H391	H	0.047739	1.126227	0.115412
	H392	H	0.053543	1.104328	0.117164
	O393	O	1.114746	0.995209	0.036197
	H394	H	1.121605	0.993289	0.029637
	H395	H	1.104814	0.994876	0.050000
	O396	O	0.436235	0.538062	0.436117
	H397	H	0.437506	0.532297	0.447396
	H398	H	0.448258	0.536969	0.426834
	O399	O	-0.117826	0.916842	1.179112
	H400	H	-0.116210	0.902009	1.182810
	H401	H	-0.126958	0.895029	1.190105
	O402	O	1.008846	1.054856	0.828719
	H403	H	1.021383	1.070175	0.827867
	H404	H	1.012941	1.050183	0.823330
	O405	O	0.411975	0.492614	0.486455
	H406	H	0.415922	0.508541	0.486064
	H407	H	0.403606	0.492287	0.491818
