data_Molecule from HDF5

_cell_length_a		16.337693
_cell_length_b		16.275833
_cell_length_c		16.156765
_cell_angle_alpha	89.515988
_cell_angle_beta	89.249060
_cell_angle_gamma	90.492957
_symmetry_space_group_name_H-M	'P 1'
_symmetry_Int_Tables_number		1

loop_
	_symmetry_equiv_pos_as_xyz
	x,y,z

loop_
	_atom_site_label
	_atom_site_type_symbol
	_atom_site_fract_x
	_atom_site_fract_y
	_atom_site_fract_z
	H0	H	0.397345	0.840705	0.718453
	H1	H	0.596978	0.167910	0.710716
	H2	H	0.598793	0.839644	0.287349
	H3	H	0.404366	0.166571	0.283910
	H4	H	0.717128	0.404488	0.835783
	H5	H	0.712185	0.599375	0.165341
	H6	H	0.290257	0.601554	0.834914
	H7	H	0.279492	0.397334	0.163180
	H8	H	0.837258	0.720120	0.398364
	H9	H	0.160690	0.722376	0.597211
	H10	H	0.836789	0.286121	0.602935
	H11	H	0.162080	0.289646	0.397745
	H12	H	0.836603	0.403057	0.717079
	H13	H	0.162982	0.601896	0.708848
	H14	H	0.835882	0.600881	0.286762
	H15	H	0.162914	0.408747	0.283658
	H16	H	0.403799	0.718873	0.836907
	H17	H	0.598788	0.715223	0.165072
	H18	H	0.598713	0.291844	0.834721
	H19	H	0.398569	0.285403	0.164551
	H20	H	0.717322	0.841549	0.399100
	H21	H	0.715164	0.166668	0.599365
	H22	H	0.278165	0.842508	0.606361
	H23	H	0.287305	0.167439	0.399932
	H24	H	0.898184	0.340330	0.218297
	H25	H	0.098514	0.667690	0.208595
	H26	H	0.096801	0.338807	0.784987
	H27	H	0.906271	0.667858	0.786077
	H28	H	0.218954	0.904299	0.338078
	H29	H	0.214294	0.106360	0.663911
	H30	H	0.788220	0.104000	0.335342
	H31	H	0.781034	0.901284	0.664770
	H32	H	0.338767	0.218874	0.898478
	H33	H	0.661434	0.219205	0.098717
	H34	H	0.338910	0.781148	0.106251
	H35	H	0.663727	0.789285	0.898463
	H36	H	0.338276	0.898435	0.221003
	H37	H	0.663373	0.100705	0.210538
	H38	H	0.337081	0.101315	0.787630
	H39	H	0.662569	0.905869	0.782358
	H40	H	0.902040	0.220763	0.336663
	H41	H	0.096562	0.218008	0.664317
	H42	H	0.099234	0.794517	0.334446
	H43	H	0.895492	0.785557	0.663096
	H44	H	0.216006	0.339393	0.896618
	H45	H	0.217267	0.664899	0.097191
	H46	H	0.781813	0.340058	0.104197
	H47	H	0.786327	0.666527	0.899185
	H48	H	0.413875	0.115819	0.585316
	H49	H	0.589824	0.886569	0.592273
	H50	H	0.594373	0.120144	0.404750
	H51	H	0.411315	0.888010	0.410315
	H52	H	0.594380	0.407738	0.119189
	H53	H	0.594279	0.595874	0.883454
	H54	H	0.408392	0.594130	0.117896
	H55	H	0.412629	0.404431	0.882468
	H56	H	0.120049	0.618142	0.407085
	H57	H	0.880953	0.595591	0.596863
	H58	H	0.112805	0.421475	0.592246
	H59	H	0.884992	0.420586	0.403903
	H60	H	0.119516	0.404679	0.599771
	H61	H	0.882407	0.597775	0.590468
	H62	H	0.108608	0.590104	0.416836
	H63	H	0.879067	0.401239	0.405043
	H64	H	0.403183	0.588514	0.117920
	H65	H	0.594795	0.595155	0.882773
	H66	H	0.589268	0.412859	0.116705
	H67	H	0.402077	0.408654	0.879613
	H68	H	0.595227	0.120265	0.406058
	H69	H	0.591049	0.887356	0.591731
	H70	H	0.394257	0.123874	0.590229
	H71	H	0.408144	0.889198	0.417646
	H72	H	0.902936	0.621393	0.091848
	H73	H	0.082542	0.387392	0.094321
	H74	H	0.094905	0.619297	0.902533
	H75	H	0.903039	0.384926	0.907725
	H76	H	0.096284	0.920103	0.617312
	H77	H	0.094297	0.101259	0.381651
	H78	H	0.897307	0.091038	0.619206
	H79	H	0.902113	0.922526	0.383970
	H80	H	0.617207	0.100906	0.905002
	H81	H	0.385096	0.092215	0.091299
	H82	H	0.612982	0.916830	0.089313
	H83	H	0.385618	0.916026	0.906453
	H84	H	0.619910	0.907619	0.100616
	H85	H	0.384275	0.090449	0.095368
	H86	H	0.614935	0.095849	0.909193
	H87	H	0.381913	0.900710	0.907942
	H88	H	0.911709	0.088012	0.614103
	H89	H	0.096662	0.094121	0.383272
	H90	H	0.076746	0.914456	0.613114
	H91	H	0.917363	0.911747	0.385840
	H92	H	0.095782	0.618350	0.906532
	H93	H	0.090360	0.388761	0.084623
	H94	H	0.907878	0.620153	0.094381
	H95	H	0.910096	0.387516	0.907411
	H96	H	0.409476	0.123247	0.604878
	H97	H	0.590397	0.886474	0.593131
	H98	H	0.595694	0.120738	0.404569
	H99	H	0.403921	0.886886	0.412752
	H100	H	0.586767	0.406007	0.117048
	H101	H	0.594555	0.595156	0.883120
	H102	H	0.410381	0.586776	0.115816
	H103	H	0.409720	0.415311	0.884943
	H104	H	0.118858	0.593599	0.387026
	H105	H	0.884249	0.592107	0.592400
	H106	H	0.114369	0.406153	0.580680
	H107	H	0.887062	0.410927	0.420286
	H108	H	0.907266	0.618576	0.088274
	H109	H	0.094355	0.384370	0.095138
	H110	H	0.099264	0.619808	0.904021
	H111	H	0.906091	0.387704	0.914876
	H112	H	0.089722	0.900480	0.620982
	H113	H	0.090701	0.096516	0.384331
	H114	H	0.908719	0.102856	0.619523
	H115	H	0.901206	0.903933	0.378675
	H116	H	0.616194	0.094731	0.901676
	H117	H	0.382613	0.094739	0.093886
	H118	H	0.616558	0.901015	0.086919
	H119	H	0.386991	0.908273	0.921164
	C120	C	0.375717	0.012968	0.624221
	C121	C	0.619735	0.995202	0.620524
	C122	C	0.623140	0.012249	0.377448
	C123	C	0.379430	0.995504	0.381267
	C124	C	0.620553	0.381023	0.008798
	C125	C	0.622324	0.623741	0.991700
	C126	C	0.380389	0.620928	0.008625
	C127	C	0.377476	0.379172	0.991023
	C128	C	0.007914	0.627289	0.376160
	C129	C	0.990399	0.625018	0.620439
	C130	C	0.008095	0.380850	0.621861
	C131	C	0.991088	0.382564	0.378731
	C132	C	0.876322	0.512020	0.122468
	C133	C	0.119727	0.494633	0.119313
	C134	C	0.123563	0.510892	0.875914
	C135	C	0.879178	0.495114	0.879697
	C136	C	0.119065	0.883696	0.508682
	C137	C	0.121318	0.126149	0.491496
	C138	C	0.878540	0.124399	0.508919
	C139	C	0.876118	0.881679	0.491199
	C140	C	0.508580	0.124980	0.877772
	C141	C	0.491293	0.122543	0.121067
	C142	C	0.509113	0.878054	0.123905
	C143	C	0.491987	0.880801	0.879866
	C144	C	0.376719	0.889974	0.680940
	C145	C	0.617412	0.118571	0.674320
	C146	C	0.619755	0.888775	0.324156
	C147	C	0.382926	0.117823	0.322784
	C148	C	0.678068	0.384277	0.884805
	C149	C	0.675793	0.620454	0.115768
	C150	C	0.327282	0.620867	0.884426
	C151	C	0.318898	0.378451	0.114304
	C152	C	0.885613	0.681638	0.378781
	C153	C	0.112627	0.682665	0.617032
	C154	C	0.885525	0.324278	0.622512
	C155	C	0.113621	0.327721	0.378679
	C156	C	0.885310	0.382705	0.678913
	C157	C	0.113750	0.622716	0.672647
	C158	C	0.885033	0.622739	0.322900
	C159	C	0.114046	0.386826	0.321891
	C160	C	0.383703	0.679356	0.885466
	C161	C	0.619079	0.677874	0.115783
	C162	C	0.619344	0.328008	0.884348
	C163	C	0.378158	0.322867	0.115112
	C164	C	0.678579	0.889753	0.379820
	C165	C	0.676436	0.117975	0.618926
	C166	C	0.317591	0.890862	0.625044
	C167	C	0.324650	0.118228	0.380433
	C168	C	0.877904	0.389357	0.179907
	C169	C	0.118871	0.618144	0.172311
	C170	C	0.118787	0.387753	0.821644
	C171	C	0.884082	0.618508	0.823676
	C172	C	0.178669	0.885464	0.386227
	C173	C	0.175909	0.124833	0.614995
	C174	C	0.825224	0.123584	0.384876
	C175	C	0.819387	0.882063	0.614986
	C176	C	0.386789	0.180475	0.879449
	C177	C	0.613326	0.180015	0.118300
	C178	C	0.387239	0.820329	0.125300
	C179	C	0.614832	0.826829	0.879480
	C180	C	0.387043	0.878923	0.182134
	C181	C	0.614314	0.121159	0.174032
	C182	C	0.385965	0.121619	0.824195
	C183	C	0.614097	0.884621	0.821348
	C184	C	0.881930	0.181680	0.385397
	C185	C	0.117677	0.180827	0.615249
	C186	C	0.118839	0.830816	0.384348
	C187	C	0.876065	0.824204	0.614343
	C188	C	0.177830	0.388151	0.877453
	C189	C	0.178105	0.616674	0.117046
	C190	C	0.820149	0.389025	0.123057
	C191	C	0.824534	0.617806	0.879922
	C192	C	0.399028	0.098740	0.600645
	C193	C	0.597035	0.909360	0.598578
	C194	C	0.601400	0.098069	0.398850
	C195	C	0.401427	0.910067	0.406174
	C196	C	0.597102	0.402535	0.095264
	C197	C	0.600839	0.601843	0.905479
	C198	C	0.401268	0.596817	0.094727
	C199	C	0.401285	0.402480	0.904675
	C200	C	0.093491	0.606624	0.397222
	C201	C	0.904678	0.601891	0.599529
	C202	C	0.093524	0.404001	0.597847
	C203	C	0.905854	0.404392	0.402806
	C204	C	0.899137	0.597861	0.098430
	C205	C	0.095966	0.408949	0.097613
	C206	C	0.102652	0.596950	0.897665
	C207	C	0.900283	0.408994	0.903019
	C208	C	0.094503	0.905241	0.595038
	C209	C	0.100104	0.103839	0.405378
	C210	C	0.899639	0.100860	0.595343
	C211	C	0.899999	0.905600	0.405073
	C212	C	0.593903	0.103458	0.899074
	C213	C	0.406075	0.099217	0.099779
	C214	C	0.594407	0.901547	0.099514
	C215	C	0.407081	0.901948	0.904592
	Zn216	Zn	0.499130	0.003636	0.750190
	Zn217	Zn	0.500579	0.002037	0.250460
	Zn218	Zn	0.749308	0.502605	0.000633
	Zn219	Zn	0.250006	0.501165	-0.000890
	Zn220	Zn	-0.001664	0.754969	0.498966
	Zn221	Zn	-0.000566	0.253083	0.500648
	Zn222	Zn	-0.000039	0.503130	0.749543
	Zn223	Zn	-0.000594	0.504353	0.248639
	Zn224	Zn	0.500978	0.750705	0.001464
	Zn225	Zn	0.499721	0.252098	-0.000345
	Zn226	Zn	0.749329	0.004271	0.500136
	Zn227	Zn	0.248308	0.004662	0.501441
	N228	N	0.412116	0.966932	0.680597
	N229	N	0.582762	0.041070	0.675586
	N230	N	0.586212	0.965934	0.322225
	N231	N	0.416347	0.040437	0.323153
	N232	N	0.679007	0.416417	0.963306
	N233	N	0.677958	0.587561	0.037672
	N234	N	0.325060	0.585199	0.961936
	N235	N	0.318568	0.412791	0.036154
	N236	N	0.962937	0.684906	0.411133
	N237	N	0.034759	0.684317	0.585407
	N238	N	0.962841	0.323169	0.587687
	N239	N	0.036225	0.324991	0.413320
	N240	N	0.962457	0.417149	0.678726
	N241	N	0.036824	0.587552	0.674681
	N242	N	0.962218	0.589595	0.321070
	N243	N	0.036981	0.419980	0.321623
	N244	N	0.416152	0.679495	0.963623
	N245	N	0.586801	0.680265	0.037609
	N246	N	0.584158	0.326104	0.962236
	N247	N	0.413580	0.322870	0.037365
	N248	N	0.680948	0.967636	0.412186
	N249	N	0.678019	0.040345	0.586265
	N250	N	0.316808	0.968424	0.590598
	N251	N	0.322538	0.041157	0.416031
	N252	N	0.912200	0.466943	0.179780
	N253	N	0.083075	0.541285	0.173806
	N254	N	0.085720	0.465222	0.820308
	N255	N	0.917134	0.541037	0.823453
	N256	N	0.178995	0.917540	0.464832
	N257	N	0.178264	0.091543	0.537118
	N258	N	0.823196	0.088347	0.462631
	N259	N	0.819047	0.916958	0.537146
	N260	N	0.463898	0.182728	0.912158
	N261	N	0.535858	0.181103	0.086009
	N262	N	0.464071	0.819962	0.089668
	N263	N	0.537768	0.824275	0.915148
	N264	N	0.463948	0.914094	0.181251
	N265	N	0.537666	0.085723	0.175711
	N266	N	0.462660	0.087607	0.823085
	N267	N	0.537023	0.917643	0.821478
	N268	N	0.914359	0.182194	0.463512
	N269	N	0.084433	0.181953	0.537447
	N270	N	0.082571	0.829586	0.461631
	N271	N	0.910661	0.823914	0.536263
	N272	N	0.180768	0.465604	0.910566
	N273	N	0.178680	0.538761	0.084724
	N274	N	0.819261	0.466365	0.087985
	N275	N	0.821400	0.540033	0.913894
	O276	O	0.543853	0.484748	0.456839
	H277	H	0.533865	0.486282	0.453476
	H278	H	0.542776	0.489290	0.451015
	O279	O	0.536598	0.555154	0.431164
	H280	H	0.536943	0.558492	0.420588
	H281	H	0.548101	0.563689	0.426549
	O282	O	1.015297	0.900956	0.045259
	H283	H	1.016812	0.900530	0.053723
	H284	H	1.006666	0.910157	0.047556
	O285	O	1.049588	0.022006	0.867734
	H286	H	1.064053	0.012530	0.843797
	H287	H	1.047491	0.033131	0.889213
	O288	O	0.486695	0.541510	0.549575
	H289	H	0.483300	0.544906	0.550340
	H290	H	0.480043	0.542188	0.551060
	O291	O	0.476685	0.462047	0.511768
	H292	H	0.474354	0.457494	0.507915
	H293	H	0.473098	0.469825	0.512079
	O294	O	0.519958	0.487098	0.429854
	H295	H	0.530393	0.480117	0.425312
	H296	H	0.527826	0.499159	0.435537
	O297	O	-0.014594	-0.086553	0.970966
	H298	H	-0.024431	-0.092053	0.963205
	H299	H	-0.014999	-0.095945	0.975259
	O300	O	0.616371	0.661577	0.502825
	H301	H	0.625185	0.662284	0.519596
	H302	H	0.624210	0.666062	0.513063
	O303	O	0.753185	0.727566	0.283848
	H304	H	0.753036	0.718170	0.288425
	H305	H	0.742552	0.724200	0.279385
	O306	O	-0.020631	0.976067	1.032961
	H307	H	-0.022686	0.979502	1.027951
	H308	H	-0.026723	0.971382	1.043109
	O309	O	0.375375	0.490126	0.453509
	H310	H	0.370135	0.500651	0.442916
	H311	H	0.383452	0.495071	0.465036
	O312	O	-0.106179	-0.121539	0.043234
	H313	H	-0.106555	-0.119609	0.051100
	H314	H	-0.108419	-0.109167	0.037112
	O315	O	0.977079	-0.066459	-0.010276
	H316	H	0.972016	-0.067333	-0.000501
	H317	H	0.969558	-0.074219	-0.013637
	O318	O	0.970844	0.997913	1.047270
	H319	H	0.976591	1.010562	1.040395
	H320	H	0.975573	1.012477	1.054747
	O321	O	-0.004145	-0.000387	0.992244
	H322	H	0.005832	0.017080	0.989611
	H323	H	-0.008636	0.003925	0.991409
	O324	O	0.439315	0.537864	0.574733
	H325	H	0.440805	0.536256	0.573472
	H326	H	0.446382	0.537049	0.577114
	O327	O	0.129325	0.083932	0.145052
	H328	H	0.125604	0.079082	0.151173
	H329	H	0.130535	0.088697	0.146126
	O330	O	0.429507	0.543297	0.510380
	H331	H	0.419071	0.546978	0.513108
	H332	H	0.437388	0.545168	0.492366
	O333	O	-0.166195	0.930634	1.004674
	H334	H	-0.167126	0.914680	1.000953
	H335	H	-0.168751	0.929872	0.990432
	O336	O	-0.010743	-0.039877	-0.041176
	H337	H	-0.013533	-0.043891	-0.044299
	H338	H	-0.000878	-0.048879	-0.043766
	O339	O	0.482459	0.514004	0.518271
	H340	H	0.475328	0.501783	0.513637
	H341	H	0.477557	0.519574	0.529970
	O342	O	0.920720	1.068392	0.952526
	H343	H	0.924101	1.082456	0.937997
	H344	H	0.923965	1.059978	0.944566
	O345	O	1.142416	0.999166	-0.024129
	H346	H	1.146407	0.991950	-0.023569
	H347	H	1.141638	0.990364	-0.019622
	O348	O	0.492105	0.559037	0.516484
	H349	H	0.485879	0.559048	0.521103
	H350	H	0.492333	0.563865	0.542408
	O351	O	1.107801	0.089072	0.019693
	H352	H	1.100394	0.083935	0.022416
	H353	H	1.096071	0.085743	0.019188
	O354	O	0.435251	0.445377	0.572143
	H355	H	0.431120	0.434904	0.574590
	H356	H	0.434376	0.447666	0.572573
	O357	O	0.987365	0.016012	1.046024
	H358	H	0.994514	0.011280	1.053188
	H359	H	0.996140	0.011374	1.049361
	O360	O	0.584542	0.495886	0.542047
	H361	H	0.583340	0.502151	0.538873
	H362	H	0.587967	0.492904	0.539121
	O363	O	0.516264	0.445392	0.526271
	H364	H	0.513953	0.446808	0.523351
	H365	H	0.517920	0.442365	0.524978
	O366	O	0.916906	1.002292	0.988245
	H367	H	0.931645	1.011702	0.989308
	H368	H	0.916450	1.015487	0.982034
	O369	O	0.991140	0.120075	0.936362
	H370	H	1.000173	0.122131	0.932300
	H371	H	0.994521	0.129237	0.933586
	O372	O	0.058774	0.139401	0.058616
	H373	H	0.058306	0.146698	0.056955
	H374	H	0.046185	0.135793	0.065500
	O375	O	1.075589	-0.021982	-0.091884
	H376	H	1.070944	-0.023088	-0.076927
	H377	H	1.091486	-0.023363	-0.085219
	O378	O	0.426959	0.601007	0.559060
	H379	H	0.430173	0.606425	0.553618
	H380	H	0.426099	0.591946	0.562572
	O381	O	0.521240	0.599394	0.488335
	H382	H	0.503284	0.597085	0.483472
	H383	H	0.532837	0.599652	0.479535
