data_Molecule from HDF5

_cell_length_a		16.310927
_cell_length_b		16.321207
_cell_length_c		16.293451
_cell_angle_alpha	89.969481
_cell_angle_beta	89.844203
_cell_angle_gamma	90.049690
_symmetry_space_group_name_H-M	'P 1'
_symmetry_Int_Tables_number		1

loop_
	_symmetry_equiv_pos_as_xyz
	x,y,z

loop_
	_atom_site_label
	_atom_site_type_symbol
	_atom_site_fract_x
	_atom_site_fract_y
	_atom_site_fract_z
	H0	H	0.406684	0.845760	0.709072
	H1	H	0.602072	0.172796	0.707121
	H2	H	0.602837	0.845092	0.278853
	H3	H	0.407537	0.172671	0.280635
	H4	H	0.718979	0.411369	0.830666
	H5	H	0.717921	0.607460	0.158772
	H6	H	0.291901	0.606268	0.830261
	H7	H	0.290303	0.411705	0.157735
	H8	H	0.840634	0.722676	0.396954
	H9	H	0.168400	0.723185	0.592473
	H10	H	0.840925	0.293553	0.592760
	H11	H	0.168599	0.294983	0.396900
	H12	H	0.840885	0.409696	0.709148
	H13	H	0.169110	0.605362	0.707243
	H14	H	0.840524	0.604807	0.280870
	H15	H	0.168250	0.410942	0.280363
	H16	H	0.407633	0.722548	0.830004
	H17	H	0.602342	0.724575	0.158340
	H18	H	0.602934	0.295248	0.830477
	H19	H	0.406202	0.294487	0.157679
	H20	H	0.719070	0.844931	0.395978
	H21	H	0.718985	0.171627	0.591015
	H22	H	0.290602	0.845520	0.592399
	H23	H	0.290583	0.172463	0.396648
	H24	H	0.905010	0.344856	0.209535
	H25	H	0.102766	0.671615	0.208960
	H26	H	0.102964	0.344263	0.780177
	H27	H	0.907600	0.672074	0.779713
	H28	H	0.220199	0.909477	0.331233
	H29	H	0.218530	0.107125	0.657608
	H30	H	0.790589	0.107015	0.330478
	H31	H	0.788524	0.910054	0.658601
	H32	H	0.341229	0.222474	0.897717
	H33	H	0.668075	0.223190	0.090936
	H34	H	0.340350	0.795338	0.092207
	H35	H	0.667462	0.794065	0.894716
	H36	H	0.340519	0.910525	0.209432
	H37	H	0.667776	0.108409	0.209121
	H38	H	0.341212	0.108085	0.780805
	H39	H	0.668190	0.911602	0.779122
	H40	H	0.907160	0.222772	0.330597
	H41	H	0.101596	0.221804	0.658690
	H42	H	0.103204	0.794541	0.330737
	H43	H	0.904595	0.793640	0.658475
	H44	H	0.220409	0.345831	0.895239
	H45	H	0.217032	0.672702	0.090752
	H46	H	0.789064	0.345653	0.092471
	H47	H	0.790797	0.672437	0.895909
	H48	H	0.406702	0.128182	0.591738
	H49	H	0.603173	0.892236	0.584476
	H50	H	0.595300	0.124741	0.398076
	H51	H	0.418343	0.895224	0.402790
	H52	H	0.597869	0.410555	0.112772
	H53	H	0.600314	0.602720	0.878268
	H54	H	0.413447	0.605252	0.110508
	H55	H	0.411468	0.417206	0.877666
	H56	H	0.120287	0.608834	0.406638
	H57	H	0.886452	0.606325	0.590768
	H58	H	0.118479	0.419733	0.586212
	H59	H	0.887326	0.410255	0.402203
	H60	H	0.122367	0.412904	0.593354
	H61	H	0.890935	0.601333	0.582384
	H62	H	0.117075	0.594604	0.403085
	H63	H	0.890553	0.417655	0.405691
	H64	H	0.406874	0.605182	0.112065
	H65	H	0.597118	0.600192	0.878914
	H66	H	0.600500	0.418299	0.110169
	H67	H	0.413152	0.414502	0.878169
	H68	H	0.598770	0.123284	0.404908
	H69	H	0.594328	0.890916	0.594850
	H70	H	0.414792	0.124032	0.589191
	H71	H	0.407243	0.893389	0.407299
	H72	H	0.907714	0.623787	0.081102
	H73	H	0.099236	0.394032	0.080362
	H74	H	0.101672	0.624130	0.904974
	H75	H	0.910401	0.392978	0.903553
	H76	H	0.094024	0.908792	0.611979
	H77	H	0.096938	0.108555	0.375653
	H78	H	0.904848	0.102555	0.612441
	H79	H	0.921897	0.906562	0.379053
	H80	H	0.621406	0.103359	0.901125
	H81	H	0.385784	0.100508	0.096892
	H82	H	0.620079	0.918745	0.088108
	H83	H	0.390055	0.919695	0.902788
	H84	H	0.621340	0.914009	0.087744
	H85	H	0.387280	0.110887	0.084133
	H86	H	0.621053	0.101592	0.900510
	H87	H	0.386374	0.915698	0.897930
	H88	H	0.912958	0.095767	0.607866
	H89	H	0.104344	0.100710	0.376865
	H90	H	0.104236	0.917039	0.612740
	H91	H	0.899737	0.912556	0.374006
	H92	H	0.100243	0.626195	0.894561
	H93	H	0.102568	0.389885	0.091231
	H94	H	0.908551	0.627010	0.093266
	H95	H	0.909900	0.392257	0.899849
	H96	H	0.408166	0.124363	0.582746
	H97	H	0.590234	0.895682	0.582925
	H98	H	0.602381	0.126067	0.398997
	H99	H	0.409536	0.890612	0.395347
	H100	H	0.592328	0.416124	0.109142
	H101	H	0.596493	0.604333	0.878281
	H102	H	0.410172	0.599252	0.109836
	H103	H	0.410394	0.415034	0.876668
	H104	H	0.124022	0.603601	0.393054
	H105	H	0.889188	0.596185	0.591531
	H106	H	0.121267	0.410242	0.583220
	H107	H	0.887350	0.417554	0.397111
	H108	H	0.918225	0.622108	0.087282
	H109	H	0.091106	0.393156	0.089403
	H110	H	0.092310	0.622628	0.900267
	H111	H	0.913400	0.393286	0.901072
	H112	H	0.092758	0.921463	0.607800
	H113	H	0.094277	0.099234	0.380606
	H114	H	0.915715	0.106355	0.610962
	H115	H	0.914102	0.927965	0.383502
	H116	H	0.621390	0.103025	0.899178
	H117	H	0.391789	0.095012	0.082715
	H118	H	0.618906	0.916583	0.083653
	H119	H	0.388514	0.913156	0.904327
	C120	C	0.382077	0.017571	0.616582
	C121	C	0.625116	1.000707	0.615496
	C122	C	0.626837	0.016632	0.371917
	C123	C	0.383327	1.000737	0.373207
	C124	C	0.625657	0.387069	0.002394
	C125	C	0.625924	0.630792	0.986843
	C126	C	0.382515	0.631365	0.002569
	C127	C	0.383094	0.387564	0.985584
	C128	C	0.012361	0.630507	0.372699
	C129	C	0.997014	0.629545	0.616129
	C130	C	0.012755	0.386167	0.616226
	C131	C	0.996543	0.386606	0.372843
	C132	C	0.882914	0.516486	0.115867
	C133	C	0.126046	0.500445	0.115475
	C134	C	0.126611	0.516387	0.872084
	C135	C	0.882914	0.500565	0.872641
	C136	C	0.125797	0.887302	0.502756
	C137	C	0.126110	0.130662	0.486140
	C138	C	0.882979	0.129830	0.502424
	C139	C	0.882779	0.887219	0.486702
	C140	C	0.513264	0.130836	0.872673
	C141	C	0.496195	0.130880	0.116084
	C142	C	0.511944	0.888136	0.115462
	C143	C	0.496257	0.887830	0.872793
	C144	C	0.385345	0.894593	0.671569
	C145	C	0.622721	0.123975	0.669503
	C146	C	0.623580	0.893811	0.316920
	C147	C	0.386620	0.123906	0.318529
	C148	C	0.680659	0.391017	0.879314
	C149	C	0.680158	0.627932	0.109887
	C150	C	0.328867	0.627673	0.879150
	C151	C	0.328238	0.390800	0.108874
	C152	C	0.889438	0.684962	0.375865
	C153	C	0.119777	0.684861	0.613011
	C154	C	0.889746	0.331259	0.613697
	C155	C	0.119672	0.332635	0.376243
	C156	C	0.889531	0.389270	0.671046
	C157	C	0.120006	0.626146	0.669877
	C158	C	0.889394	0.626356	0.318372
	C159	C	0.119439	0.390043	0.318124
	C160	C	0.386300	0.685539	0.879113
	C161	C	0.623014	0.686458	0.109574
	C162	C	0.623561	0.333089	0.879199
	C163	C	0.385608	0.332578	0.108882
	C164	C	0.681384	0.893715	0.374886
	C165	C	0.680587	0.123348	0.611837
	C166	C	0.328049	0.894419	0.613179
	C167	C	0.328808	0.123871	0.376289
	C168	C	0.885038	0.393636	0.171086
	C169	C	0.123078	0.623248	0.170467
	C170	C	0.123659	0.393180	0.817753
	C171	C	0.886316	0.623286	0.817507
	C172	C	0.181286	0.889889	0.379583
	C173	C	0.180242	0.127160	0.609213
	C174	C	0.828508	0.127079	0.379258
	C175	C	0.826254	0.889196	0.609635
	C176	C	0.389932	0.185445	0.876373
	C177	C	0.619202	0.186038	0.112582
	C178	C	0.389244	0.832917	0.113185
	C179	C	0.619119	0.832295	0.874442
	C180	C	0.389355	0.890198	0.171334
	C181	C	0.619176	0.128782	0.170807
	C182	C	0.390075	0.128722	0.818237
	C183	C	0.619270	0.890730	0.817124
	C184	C	0.885912	0.185052	0.379382
	C185	C	0.122631	0.184708	0.609511
	C186	C	0.123219	0.832678	0.379430
	C187	C	0.884479	0.831913	0.609834
	C188	C	0.181863	0.393932	0.874930
	C189	C	0.180223	0.623599	0.112153
	C190	C	0.827122	0.393998	0.113488
	C191	C	0.828162	0.623565	0.875164
	C192	C	0.403499	0.103352	0.594461
	C193	C	0.602524	0.914970	0.593742
	C194	C	0.605192	0.102470	0.394023
	C195	C	0.405232	0.915196	0.395228
	C196	C	0.603379	0.408670	0.088606
	C197	C	0.604185	0.608883	0.900744
	C198	C	0.403841	0.609726	0.088704
	C199	C	0.405265	0.409130	0.899693
	C200	C	0.098316	0.608754	0.394564
	C201	C	0.910982	0.607814	0.594365
	C202	C	0.098704	0.407944	0.594107
	C203	C	0.910468	0.408681	0.395072
	C204	C	0.904905	0.602163	0.093762
	C205	C	0.103965	0.414551	0.093461
	C206	C	0.104605	0.602280	0.893713
	C207	C	0.904690	0.414942	0.895055
	C208	C	0.103552	0.909209	0.588484
	C209	C	0.104757	0.109235	0.399754
	C210	C	0.904750	0.107889	0.588336
	C211	C	0.905407	0.909024	0.401163
	C212	C	0.599013	0.109030	0.894090
	C213	C	0.410532	0.108671	0.094351
	C214	C	0.597866	0.909994	0.093005
	C215	C	0.410689	0.909845	0.895267
	Zn216	Zn	0.504301	0.010049	0.744516
	Zn217	Zn	0.504683	0.009026	0.244172
	Zn218	Zn	0.753729	0.508950	-0.005085
	Zn219	Zn	0.254565	0.509092	-0.006356
	Zn220	Zn	0.004514	0.758800	0.494759
	Zn221	Zn	0.004685	0.258303	0.494419
	Zn222	Zn	0.004987	0.507753	0.744418
	Zn223	Zn	0.004646	0.508080	0.244050
	Zn224	Zn	0.504152	0.759488	-0.005479
	Zn225	Zn	0.504602	0.258944	-0.006097
	Zn226	Zn	0.754399	0.008216	0.494383
	Zn227	Zn	0.253811	0.008920	0.494361
	N228	N	0.418388	0.972027	0.673476
	N229	N	0.588790	0.046891	0.671515
	N230	N	0.590447	0.971321	0.315078
	N231	N	0.419936	0.046615	0.316808
	N232	N	0.682127	0.423754	0.957198
	N233	N	0.682178	0.594345	0.032455
	N234	N	0.326503	0.594542	0.956636
	N235	N	0.326678	0.424408	0.031403
	N236	N	0.967081	0.687513	0.408760
	N237	N	0.042107	0.687124	0.580508
	N238	N	0.967270	0.329410	0.580180
	N239	N	0.042055	0.330670	0.409695
	N240	N	0.967184	0.422376	0.672863
	N241	N	0.042612	0.592521	0.671985
	N242	N	0.966972	0.593532	0.316096
	N243	N	0.041807	0.422932	0.316122
	N244	N	0.418829	0.687936	0.956920
	N245	N	0.590060	0.688295	0.031891
	N246	N	0.589865	0.330716	0.956557
	N247	N	0.419174	0.330638	0.031300
	N248	N	0.683663	0.971145	0.408014
	N249	N	0.682070	0.045591	0.578977
	N250	N	0.325696	0.971910	0.579718
	N251	N	0.326307	0.046264	0.409393
	N252	N	0.918911	0.470977	0.172919
	N253	N	0.090319	0.545647	0.172761
	N254	N	0.090011	0.470373	0.815905
	N255	N	0.919480	0.545902	0.815781
	N256	N	0.183008	0.923101	0.457123
	N257	N	0.182489	0.094403	0.531343
	N258	N	0.826379	0.093774	0.456872
	N259	N	0.825401	0.922973	0.532301
	N260	N	0.467408	0.187027	0.909623
	N261	N	0.541797	0.187453	0.079146
	N262	N	0.466555	0.831492	0.079314
	N263	N	0.541797	0.830320	0.908207
	N264	N	0.466799	0.923806	0.172621
	N265	N	0.541834	0.095289	0.173157
	N266	N	0.467514	0.095673	0.815757
	N267	N	0.541897	0.924329	0.815753
	N268	N	0.919352	0.186796	0.456778
	N269	N	0.089609	0.186728	0.531961
	N270	N	0.089354	0.831053	0.456833
	N271	N	0.918730	0.830318	0.532506
	N272	N	0.183708	0.471554	0.907928
	N273	N	0.181919	0.546196	0.078514
	N274	N	0.825925	0.471202	0.079779
	N275	N	0.826042	0.546169	0.908957
	O276	O	0.970504	-0.100376	1.004138
	H277	H	0.974352	-0.102113	0.999975
	H278	H	0.964233	-0.113806	1.007566
	O279	O	-0.037533	-0.087350	1.002931
	H280	H	-0.040007	-0.086816	1.001649
	H281	H	-0.036691	-0.080826	1.004733
	O282	O	0.959077	0.931369	0.035504
	H283	H	0.954650	0.923711	0.042539
	H284	H	0.963179	0.925702	0.035933
	O285	O	-0.054367	-0.131311	0.966893
	H286	H	-0.057181	-0.131728	0.965322
	H287	H	-0.058283	-0.124918	0.963544
