data_Molecule from HDF5

_cell_length_a		16.443925
_cell_length_b		16.599510
_cell_length_c		16.469272
_cell_angle_alpha	89.935893
_cell_angle_beta	89.985660
_cell_angle_gamma	90.004198
_symmetry_space_group_name_H-M	'P 1'
_symmetry_Int_Tables_number		1

loop_
	_symmetry_equiv_pos_as_xyz
	x,y,z

loop_
	_atom_site_label
	_atom_site_type_symbol
	_atom_site_fract_x
	_atom_site_fract_y
	_atom_site_fract_z
	H0	H	0.407488	0.846239	0.739132
	H1	H	0.615558	0.159941	0.742345
	H2	H	0.615977	0.846853	0.297757
	H3	H	0.403415	0.160778	0.296607
	H4	H	0.730636	0.401143	0.863685
	H5	H	0.731116	0.609696	0.179391
	H6	H	0.290688	0.606061	0.861889
	H7	H	0.285860	0.395188	0.177334
	H8	H	0.853966	0.728712	0.412694
	H9	H	0.167676	0.725033	0.626174
	H10	H	0.853578	0.280525	0.628085
	H11	H	0.167437	0.281863	0.414026
	H12	H	0.851515	0.398494	0.741468
	H13	H	0.167712	0.608745	0.741873
	H14	H	0.853114	0.611114	0.297778
	H15	H	0.168110	0.399031	0.299692
	H16	H	0.406913	0.722792	0.862056
	H17	H	0.616442	0.727405	0.177780
	H18	H	0.619260	0.280374	0.865126
	H19	H	0.398096	0.275873	0.175261
	H20	H	0.733417	0.847886	0.413307
	H21	H	0.731486	0.160510	0.623868
	H22	H	0.287585	0.848145	0.625637
	H23	H	0.289709	0.162292	0.415994
	H24	H	0.900137	0.348098	0.246579
	H25	H	0.116774	0.659728	0.241489
	H26	H	0.115133	0.346905	0.797124
	H27	H	0.907062	0.661134	0.802092
	H28	H	0.231448	0.901237	0.363212
	H29	H	0.230669	0.109860	0.678549
	H30	H	0.784411	0.114600	0.362866
	H31	H	0.788210	0.898894	0.676414
	H32	H	0.354209	0.229686	0.909514
	H33	H	0.666429	0.227401	0.129478
	H34	H	0.352445	0.781416	0.126612
	H35	H	0.666909	0.782403	0.915005
	H36	H	0.352044	0.896953	0.242699
	H37	H	0.666604	0.110640	0.244133
	H38	H	0.352090	0.109520	0.798880
	H39	H	0.667236	0.899094	0.799825
	H40	H	0.899193	0.231535	0.364682
	H41	H	0.115872	0.226415	0.677693
	H42	H	0.119916	0.780199	0.364650
	H43	H	0.902183	0.780833	0.675919
	H44	H	0.231482	0.346168	0.914254
	H45	H	0.231790	0.659199	0.124161
	H46	H	0.785136	0.347809	0.129069
	H47	H	0.792142	0.661984	0.920980
	H48	H	0.425970	0.114970	0.611593
	H49	H	0.597233	0.891677	0.611989
	H50	H	0.595696	0.113690	0.434049
	H51	H	0.418782	0.891325	0.426933
	H52	H	0.594110	0.417718	0.132044
	H53	H	0.600577	0.594176	0.908316
	H54	H	0.419812	0.600199	0.136912
	H55	H	0.417294	0.415290	0.906529
	H56	H	0.122454	0.586150	0.425993
	H57	H	0.899389	0.588722	0.608023
	H58	H	0.125762	0.413947	0.615285
	H59	H	0.902319	0.426543	0.435018
	H60	H	0.122836	0.409223	0.603225
	H61	H	0.893982	0.595236	0.614753
	H62	H	0.126074	0.600818	0.430985
	H63	H	0.893815	0.414074	0.425707
	H64	H	0.415288	0.586849	0.133107
	H65	H	0.598483	0.595452	0.908809
	H66	H	0.594801	0.413184	0.132925
	H67	H	0.425122	0.420851	0.911902
	H68	H	0.597669	0.114550	0.432046
	H69	H	0.598275	0.892463	0.606607
	H70	H	0.419002	0.115665	0.604963
	H71	H	0.425627	0.895037	0.431901
	H72	H	0.911601	0.616022	0.104986
	H73	H	0.094052	0.389205	0.120166
	H74	H	0.104241	0.616552	0.930909
	H75	H	0.918048	0.391183	0.935720
	H76	H	0.098111	0.920794	0.631828
	H77	H	0.097036	0.092600	0.408670
	H78	H	0.918660	0.092573	0.632310
	H79	H	0.919598	0.917266	0.406574
	H80	H	0.623037	0.090556	0.928870
	H81	H	0.400436	0.090446	0.100650
	H82	H	0.622682	0.910660	0.105622
	H83	H	0.394235	0.906970	0.932219
	H84	H	0.620339	0.918639	0.105025
	H85	H	0.400028	0.085345	0.107754
	H86	H	0.623503	0.096281	0.931872
	H87	H	0.398372	0.917325	0.935251
	H88	H	0.923207	0.087584	0.629016
	H89	H	0.097341	0.093841	0.407852
	H90	H	0.093078	0.910027	0.632947
	H91	H	0.926930	0.918027	0.409258
	H92	H	0.097112	0.615643	0.926025
	H93	H	0.090356	0.396294	0.102880
	H94	H	0.923356	0.617528	0.120134
	H95	H	0.916443	0.388421	0.927819
	H96	H	0.417672	0.119216	0.613883
	H97	H	0.602276	0.890731	0.610081
	H98	H	0.594781	0.114043	0.431243
	H99	H	0.417239	0.893674	0.435717
	H100	H	0.597553	0.416523	0.134336
	H101	H	0.600400	0.595968	0.906790
	H102	H	0.429049	0.591895	0.130574
	H103	H	0.427164	0.410404	0.908324
	H104	H	0.119537	0.590125	0.441042
	H105	H	0.896603	0.598118	0.605173
	H106	H	0.119872	0.421683	0.606135
	H107	H	0.898831	0.410933	0.442714
	H108	H	0.929977	0.609912	0.103879
	H109	H	0.107513	0.388974	0.106094
	H110	H	0.097569	0.611769	0.934528
	H111	H	0.923727	0.391794	0.929805
	H112	H	0.104291	0.911925	0.636704
	H113	H	0.098366	0.092954	0.408627
	H114	H	0.925933	0.094534	0.630788
	H115	H	0.924823	0.911731	0.405614
	H116	H	0.621170	0.090708	0.935220
	H117	H	0.396968	0.093482	0.108432
	H118	H	0.623235	0.915821	0.112317
	H119	H	0.394486	0.915011	0.924065
	C120	C	0.388651	0.012742	0.641843
	C121	C	0.631811	0.995065	0.641874
	C122	C	0.630666	0.011759	0.398521
	C123	C	0.388096	0.996686	0.398428
	C124	C	0.630057	0.383156	0.029734
	C125	C	0.631564	0.626446	1.012732
	C126	C	0.389275	0.624323	0.028912
	C127	C	0.388580	0.381193	1.011967
	C128	C	0.018937	0.625819	0.399125
	C129	C	1.001060	0.625674	0.641636
	C130	C	0.018371	0.382767	0.641392
	C131	C	1.001821	0.383459	0.400071
	C132	C	0.887208	0.511836	0.143738
	C133	C	0.131030	0.494385	0.141696
	C134	C	0.131592	0.511390	0.897964
	C135	C	0.888299	0.494941	0.900131
	C136	C	0.131636	0.882653	0.529598
	C137	C	0.130394	0.125616	0.512328
	C138	C	0.888247	0.126072	0.527715
	C139	C	0.890021	0.883299	0.511126
	C140	C	0.518454	0.125723	0.898578
	C141	C	0.502020	0.123852	0.140226
	C142	C	0.518211	0.882154	0.141425
	C143	C	0.500420	0.881974	0.898892
	C144	C	0.387431	0.894016	0.700522
	C145	C	0.634408	0.112988	0.702041
	C146	C	0.634141	0.894038	0.337680
	C147	C	0.385304	0.113862	0.337068
	C148	C	0.691143	0.381633	0.911207
	C149	C	0.691276	0.628027	0.131734
	C150	C	0.330247	0.625282	0.909451
	C151	C	0.326217	0.377303	0.129706
	C152	C	0.901096	0.687748	0.395178
	C153	C	0.120112	0.685441	0.644452
	C154	C	0.900181	0.321521	0.645322
	C155	C	0.120058	0.322275	0.396221
	C156	C	0.899386	0.380472	0.701579
	C157	C	0.120113	0.627098	0.701691
	C158	C	0.900264	0.629011	0.338306
	C159	C	0.120505	0.380787	0.339319
	C160	C	0.387959	0.683285	0.909492
	C161	C	0.634176	0.686457	0.131206
	C162	C	0.635493	0.321891	0.911809
	C163	C	0.382215	0.317656	0.128665
	C164	C	0.692667	0.894636	0.395083
	C165	C	0.691971	0.113187	0.643183
	C166	C	0.328432	0.894821	0.643535
	C167	C	0.328881	0.114779	0.396781
	C168	C	0.882789	0.395153	0.205843
	C169	C	0.134358	0.612451	0.201421
	C170	C	0.134049	0.393815	0.837249
	C171	C	0.887968	0.613897	0.841739
	C172	C	0.191876	0.881602	0.410680
	C173	C	0.190688	0.127757	0.631035
	C174	C	0.825272	0.131480	0.410220
	C175	C	0.828550	0.880619	0.629174
	C176	C	0.401120	0.188074	0.893621
	C177	C	0.619582	0.186469	0.145982
	C178	C	0.399766	0.821281	0.144887
	C179	C	0.619358	0.822475	0.896651
	C180	C	0.399587	0.879158	0.202287
	C181	C	0.619672	0.128197	0.202968
	C182	C	0.399939	0.128359	0.837911
	C183	C	0.619622	0.880570	0.839368
	C184	C	0.882640	0.189873	0.411058
	C185	C	0.133704	0.186137	0.630636
	C186	C	0.136206	0.821703	0.411353
	C187	C	0.885325	0.821928	0.628973
	C188	C	0.191820	0.393445	0.895569
	C189	C	0.191817	0.612113	0.143153
	C190	C	0.825304	0.394849	0.147332
	C191	C	0.831022	0.614397	0.900793
	C192	C	0.413823	0.095251	0.617293
	C193	C	0.606469	0.913100	0.616870
	C194	C	0.603914	0.092857	0.424844
	C195	C	0.413314	0.914607	0.424135
	C196	C	0.603031	0.408323	0.111772
	C197	C	0.606911	0.602034	0.929651
	C198	C	0.414197	0.600016	0.111754
	C199	C	0.415574	0.407726	0.930265
	C200	C	0.101224	0.599751	0.424981
	C201	C	0.918208	0.601240	0.616502
	C202	C	0.101129	0.407721	0.615621
	C203	C	0.919681	0.409596	0.426846
	C204	C	0.914126	0.593332	0.117138
	C205	C	0.104832	0.412796	0.116750
	C206	C	0.106670	0.593310	0.923177
	C207	C	0.912411	0.412157	0.924088
	C208	C	0.105795	0.907285	0.612315
	C209	C	0.104884	0.100479	0.429919
	C210	C	0.914947	0.099367	0.609311
	C211	C	0.916180	0.908451	0.428669
	C212	C	0.601027	0.099886	0.924621
	C213	C	0.420530	0.097381	0.113479
	C214	C	0.600606	0.907658	0.115311
	C215	C	0.417384	0.906332	0.923519
	Zn216	Zn	0.509599	0.003747	0.771198
	Zn217	Zn	0.509490	0.003611	0.269402
	Zn218	Zn	0.758685	0.504025	0.021780
	Zn219	Zn	0.260368	0.502623	0.019813
	Zn220	Zn	0.010981	0.754330	0.520433
	Zn221	Zn	0.010118	0.254487	0.520369
	Zn222	Zn	0.009415	0.503235	0.769838
	Zn223	Zn	0.009903	0.503733	0.271183
	Zn224	Zn	0.509597	0.753828	0.020921
	Zn225	Zn	0.510244	0.253349	0.020760
	Zn226	Zn	0.760560	0.003884	0.519052
	Zn227	Zn	0.259133	0.005161	0.520838
	N228	N	0.423845	0.968559	0.699722
	N229	N	0.598015	0.038483	0.701642
	N230	N	0.596439	0.967985	0.339547
	N231	N	0.421192	0.039178	0.337960
	N232	N	0.687826	0.419200	0.985526
	N233	N	0.689699	0.591314	0.056882
	N234	N	0.330733	0.589400	0.984607
	N235	N	0.330116	0.416222	0.056120
	N236	N	0.975999	0.686106	0.432037
	N237	N	0.045117	0.684736	0.607989
	N238	N	0.975260	0.322808	0.608583
	N239	N	0.045082	0.323686	0.433068
	N240	N	0.973922	0.417754	0.699296
	N241	N	0.045014	0.590716	0.700444
	N242	N	0.974613	0.591268	0.340467
	N243	N	0.045764	0.417796	0.341393
	N244	N	0.423720	0.683006	0.984895
	N245	N	0.598018	0.685784	0.056163
	N246	N	0.598296	0.322737	0.986544
	N247	N	0.420022	0.319764	0.054258
	N248	N	0.690793	0.968817	0.431910
	N249	N	0.690546	0.038883	0.606638
	N250	N	0.328859	0.969769	0.608039
	N251	N	0.330116	0.040643	0.433928
	N252	N	0.920415	0.469056	0.203613
	N253	N	0.097478	0.538164	0.200997
	N254	N	0.097425	0.468158	0.838581
	N255	N	0.922671	0.538531	0.841144
	N256	N	0.189244	0.918737	0.485131
	N257	N	0.188751	0.090741	0.556451
	N258	N	0.828817	0.092165	0.483601
	N259	N	0.831323	0.918053	0.554825
	N260	N	0.476027	0.186597	0.930554
	N261	N	0.545424	0.183952	0.107595
	N262	N	0.474691	0.823113	0.107625
	N263	N	0.544273	0.823084	0.933049
	N264	N	0.474185	0.916110	0.200477
	N265	N	0.545689	0.090006	0.199602
	N266	N	0.474065	0.090302	0.840877
	N267	N	0.544638	0.916917	0.840634
	N268	N	0.921224	0.186533	0.484996
	N269	N	0.097052	0.184927	0.555856
	N270	N	0.099880	0.821997	0.486555
	N271	N	0.922828	0.823393	0.554448
	N272	N	0.190575	0.467657	0.932346
	N273	N	0.190195	0.537692	0.106908
	N274	N	0.827605	0.468774	0.109676
	N275	N	0.830479	0.539196	0.935951
	O276	O	0.502277	0.354630	0.361831
	H277	H	0.480786	0.359229	0.362114
	H278	H	0.495295	0.341224	0.360085
	O279	O	0.350137	0.377520	0.421468
	H280	H	0.345034	0.403398	0.431609
	H281	H	0.356018	0.378235	0.430962
	O282	O	0.291550	0.693968	0.506233
	H283	H	0.270505	0.714282	0.500832
	H284	H	0.290833	0.700522	0.476091
	O285	O	0.576376	0.349381	0.429158
	H286	H	0.573379	0.367838	0.427202
	H287	H	0.581746	0.349551	0.472030
	O288	O	0.038640	0.206310	-0.069269
	H289	H	0.049354	0.212165	-0.056955
	H290	H	0.043611	0.195390	-0.084963
	O291	O	1.134283	0.976825	0.073730
	H292	H	1.136243	0.984073	0.071187
	H293	H	1.138790	0.985409	0.091243
	O294	O	0.033100	1.218902	0.237984
	H295	H	0.031292	1.228165	0.235479
	H296	H	0.048960	1.233711	0.246209
	O297	O	1.021434	1.026703	0.047254
	H298	H	1.021198	1.032884	0.050032
	H299	H	1.018253	1.023502	0.049380
	O300	O	0.704058	0.338726	0.517426
	H301	H	0.697653	0.334141	0.533987
	H302	H	0.714748	0.338331	0.521969
	O303	O	0.663216	0.312707	0.666521
	H304	H	0.663316	0.327419	0.646520
	H305	H	0.670624	0.311483	0.667598
	O306	O	0.176772	0.833961	1.113454
	H307	H	0.163780	0.828759	1.108441
	H308	H	0.163712	0.837071	1.094437
	O309	O	0.608852	0.299521	0.318298
	H310	H	0.614007	0.268657	0.299490
	H311	H	0.620382	0.301654	0.335823
	O312	O	0.191698	0.192000	0.206352
	H313	H	0.194403	0.180887	0.222577
	H314	H	0.186242	0.197145	0.173212
	O315	O	-0.179849	-0.057239	0.998699
	H316	H	-0.184963	-0.041547	0.999553
	H317	H	-0.176473	-0.037815	0.985364
	O318	O	-0.428425	1.604877	0.470531
	H319	H	-0.432778	1.592615	0.458929
	H320	H	-0.426213	1.603939	0.469374
	O321	O	0.146202	1.057340	-0.037074
	H322	H	0.141703	1.047976	-0.062400
	H323	H	0.155738	1.051987	-0.035404
	O324	O	0.944410	0.188543	1.096484
	H325	H	0.951045	0.186713	1.086520
	H326	H	0.953028	0.189479	1.101947
	O327	O	0.999195	-0.191293	1.223842
	H328	H	0.984651	-0.177705	1.219619
	H329	H	1.001147	-0.200517	1.249574
	O330	O	0.928062	-0.074607	-0.133349
	H331	H	0.930225	-0.072899	-0.117023
	H332	H	0.931021	-0.071355	-0.145650
	O333	O	0.457108	0.717094	0.587968
	H334	H	0.454440	0.719630	0.563996
	H335	H	0.452885	0.711743	0.569051
	O336	O	1.266122	-0.300210	0.711435
	H337	H	1.250872	-0.314081	0.700173
	H338	H	1.286496	-0.300454	0.689433
	O339	O	0.312923	-0.418415	-0.286506
	H340	H	0.316910	-0.414830	-0.301567
	H341	H	0.314339	-0.427700	-0.289950
	O342	O	0.325161	0.313263	0.704279
	H343	H	0.317869	0.328848	0.683521
	H344	H	0.365796	0.302134	0.713734
	O345	O	-0.186252	0.201311	-0.177714
	H346	H	-0.189412	0.207791	-0.169287
	H347	H	-0.153866	0.203737	-0.170132
	O348	O	1.130614	-0.192732	0.825424
	H349	H	1.125537	-0.199608	0.838981
	H350	H	1.132726	-0.210062	0.825185
	O351	O	0.828015	1.030918	0.069226
	H352	H	0.813443	1.023402	0.078741
	H353	H	0.842538	1.029668	0.074449
	O354	O	0.450607	0.711430	0.347460
	H355	H	0.453588	0.736732	0.341309
	H356	H	0.476438	0.705480	0.350418
	O357	O	0.835890	1.209640	1.020485
	H358	H	0.834630	1.203470	1.031838
	H359	H	0.831789	1.219794	1.021032
	O360	O	0.315946	0.704304	0.322331
	H361	H	0.337128	0.680130	0.314287
	H362	H	0.333190	0.707409	0.306894
	O363	O	0.608361	0.678369	0.698313
	H364	H	0.606890	0.687026	0.701807
	H365	H	0.571488	0.679396	0.700122
	O366	O	0.809377	-0.141074	1.176546
	H367	H	0.805029	-0.159919	1.159218
	H368	H	0.788153	-0.127145	1.190104
	O369	O	-0.097077	0.847673	0.072647
	H370	H	-0.108197	0.862324	0.042007
	H371	H	-0.096466	0.831654	0.070287
	O372	O	0.082215	0.802390	0.067798
	H373	H	0.065575	0.811933	0.070911
	H374	H	0.070921	0.794257	0.084480
	O375	O	0.032945	1.025992	0.806583
	H376	H	0.028433	1.031441	0.809177
	H377	H	0.035379	1.023057	0.800256
	O378	O	0.623559	0.476322	0.555694
	H379	H	0.633902	0.491519	0.563418
	H380	H	0.620240	0.490717	0.553945
	O381	O	0.972456	0.180960	-0.156526
	H382	H	0.984599	0.173245	-0.152698
	H383	H	0.983005	0.201542	-0.152808
	O384	O	-0.458979	0.281765	1.530550
	H385	H	-0.466782	0.284616	1.534971
	H386	H	-0.467557	0.270881	1.533172
	O387	O	-0.044275	0.814516	0.907776
	H388	H	-0.037070	0.836958	0.895359
	H389	H	-0.034295	0.801679	0.910959
	O390	O	0.730281	0.537265	0.741403
	H391	H	0.739824	0.571150	0.749067
	H392	H	0.750598	0.557001	0.760029
	O393	O	1.227221	1.033530	0.235514
	H394	H	1.250014	1.039097	0.247567
	H395	H	1.232854	1.039019	0.232769
	O396	O	0.468456	0.478890	0.316340
	H397	H	0.495403	0.493993	0.321769
	H398	H	0.463525	0.470664	0.318904
	O399	O	0.639964	0.731935	0.413262
	H400	H	0.664034	0.733181	0.427359
	H401	H	0.639076	0.727966	0.412007
	O402	O	-0.206608	0.079803	0.854644
	H403	H	-0.204350	0.106789	0.852415
	H404	H	-0.224449	0.088142	0.829526
	O405	O	0.219812	-0.022270	-0.191408
	H406	H	0.237686	-0.033920	-0.218094
	H407	H	0.216212	-0.061499	-0.188484
	O408	O	0.309060	0.506050	0.475812
	H409	H	0.315119	0.516528	0.460837
	H410	H	0.307498	0.517427	0.480187
	O411	O	0.039932	1.107230	-0.064066
	H412	H	0.054609	1.090723	-0.058719
	H413	H	0.048604	1.105117	-0.074911
	O414	O	0.488891	0.293029	0.728888
	H415	H	0.510217	0.310065	0.743155
	H416	H	0.494965	0.288321	0.750542
	O417	O	1.056539	-0.036870	1.180517
	H418	H	1.055489	-0.032168	1.178628
	H419	H	1.066602	-0.041084	1.171634
	O420	O	0.619066	0.495672	0.548360
	H421	H	0.612855	0.486211	0.540518
	H422	H	0.616674	0.483222	0.556823
	O423	O	-0.004850	1.031701	0.144196
	H424	H	-0.000407	1.049318	0.160081
	H425	H	0.015343	1.042190	0.132715
	O426	O	1.193502	0.821533	1.027376
	H427	H	1.187303	0.822967	1.044419
	H428	H	1.200256	0.810336	1.033502
	O429	O	0.713375	0.705236	0.636874
	H430	H	0.687257	0.696313	0.645527
	H431	H	0.738953	0.730602	0.660667
	O432	O	0.496030	0.620555	0.724841
	H433	H	0.497411	0.615632	0.712356
	H434	H	0.472936	0.602347	0.726660
	O435	O	-0.164866	-0.168536	-0.172154
	H436	H	-0.137671	-0.155421	-0.162705
	H437	H	-0.166034	-0.147595	-0.150004
	O438	O	1.708719	0.670984	0.466437
	H439	H	1.713100	0.657688	0.494557
	H440	H	1.732697	0.680189	0.463207
	O441	O	-0.089121	-0.013250	0.183621
	H442	H	-0.067281	0.001586	0.186448
	H443	H	-0.108687	-0.018251	0.213189
	O444	O	0.801028	0.242474	0.193337
	H445	H	0.816880	0.237531	0.171723
	H446	H	0.794024	0.257262	0.202920
	O447	O	0.569943	0.440734	0.738249
	H448	H	0.603244	0.452311	0.736132
	H449	H	0.564717	0.458777	0.727349
	O450	O	0.667136	0.551389	0.340728
	H451	H	0.662904	0.526165	0.357149
	H452	H	0.688169	0.557757	0.337775
	O453	O	0.332287	0.293519	0.541539
	H454	H	0.331083	0.303504	0.543320
	H455	H	0.301446	0.288100	0.541529
	O456	O	0.534789	0.558742	0.354638
	H457	H	0.548322	0.567540	0.348975
	H458	H	0.547743	0.550999	0.358891
	O459	O	0.223325	0.219523	0.043612
	H460	H	0.238103	0.210583	0.043176
	H461	H	0.243137	0.228339	0.038837
	O462	O	0.368249	0.504788	0.731409
	H463	H	0.350085	0.505835	0.748300
	H464	H	0.363559	0.474033	0.728507
	O465	O	1.293820	-0.461297	-0.698135
	H466	H	1.295604	-0.465357	-0.706710
	H467	H	1.278533	-0.470987	-0.718935
