data_Molecule from HDF5

_cell_length_a		16.366672
_cell_length_b		16.477371
_cell_length_c		16.385809
_cell_angle_alpha	89.984042
_cell_angle_beta	89.741569
_cell_angle_gamma	89.985865
_symmetry_space_group_name_H-M	'P 1'
_symmetry_Int_Tables_number		1

loop_
	_symmetry_equiv_pos_as_xyz
	x,y,z

loop_
	_atom_site_label
	_atom_site_type_symbol
	_atom_site_fract_x
	_atom_site_fract_y
	_atom_site_fract_z
	H0	H	0.386554	0.835996	0.734729
	H1	H	0.600783	0.151809	0.735105
	H2	H	0.595642	0.835510	0.292851
	H3	H	0.385561	0.151770	0.288568
	H4	H	0.717628	0.387579	0.853094
	H5	H	0.713577	0.596972	0.170573
	H6	H	0.275720	0.597003	0.851119
	H7	H	0.272996	0.389494	0.171588
	H8	H	0.836666	0.714615	0.406009
	H9	H	0.153390	0.715308	0.617188
	H10	H	0.836329	0.270343	0.620143
	H11	H	0.152438	0.269617	0.401509
	H12	H	0.837436	0.384281	0.737090
	H13	H	0.155395	0.595810	0.729054
	H14	H	0.836648	0.597106	0.291155
	H15	H	0.153680	0.386901	0.288153
	H16	H	0.390233	0.714770	0.851774
	H17	H	0.597154	0.713433	0.170683
	H18	H	0.604045	0.269498	0.854161
	H19	H	0.387011	0.272078	0.170440
	H20	H	0.713590	0.835706	0.407858
	H21	H	0.717824	0.151414	0.619604
	H22	H	0.271592	0.836034	0.617069
	H23	H	0.271705	0.152365	0.405215
	H24	H	0.887326	0.336099	0.235422
	H25	H	0.097826	0.652130	0.229975
	H26	H	0.101944	0.334686	0.788492
	H27	H	0.891570	0.651830	0.790506
	H28	H	0.214891	0.890614	0.352677
	H29	H	0.214434	0.099029	0.670755
	H30	H	0.774083	0.098142	0.352157
	H31	H	0.773102	0.888963	0.671290
	H32	H	0.336900	0.218420	0.903314
	H33	H	0.652586	0.216652	0.117608
	H34	H	0.334245	0.773997	0.116781
	H35	H	0.654698	0.774685	0.907153
	H36	H	0.333994	0.891190	0.231943
	H37	H	0.653511	0.099080	0.231491
	H38	H	0.334509	0.097838	0.793106
	H39	H	0.652789	0.887422	0.788849
	H40	H	0.887526	0.216147	0.352997
	H41	H	0.099508	0.216050	0.669756
	H42	H	0.099719	0.774738	0.352613
	H43	H	0.889916	0.772939	0.671603
	H44	H	0.217861	0.335514	0.904701
	H45	H	0.210921	0.653704	0.111801
	H46	H	0.770061	0.336652	0.119667
	H47	H	0.776358	0.653684	0.907804
	H48	H	0.407872	0.104110	0.599462
	H49	H	0.578822	0.882669	0.602909
	H50	H	0.587237	0.108177	0.424358
	H51	H	0.402712	0.880678	0.418474
	H52	H	0.581730	0.415048	0.120946
	H53	H	0.583363	0.591477	0.895269
	H54	H	0.403837	0.591329	0.126910
	H55	H	0.405416	0.404428	0.897346
	H56	H	0.111758	0.585595	0.416155
	H57	H	0.881828	0.580764	0.599031
	H58	H	0.108863	0.394964	0.593608
	H59	H	0.879788	0.402422	0.420537
	H60	H	0.101997	0.411864	0.591970
	H61	H	0.880559	0.582814	0.602843
	H62	H	0.109289	0.586982	0.426436
	H63	H	0.883256	0.403454	0.427994
	H64	H	0.397266	0.582675	0.127145
	H65	H	0.591715	0.583118	0.895423
	H66	H	0.572801	0.402374	0.122215
	H67	H	0.407290	0.408887	0.900763
	H68	H	0.584993	0.110222	0.417736
	H69	H	0.582338	0.883424	0.595936
	H70	H	0.400999	0.107460	0.600474
	H71	H	0.411318	0.883675	0.423474
	H72	H	0.908226	0.604885	0.098997
	H73	H	0.081069	0.380348	0.101537
	H74	H	0.080768	0.607010	0.915045
	H75	H	0.904335	0.382522	0.927084
	H76	H	0.090200	0.904571	0.628050
	H77	H	0.085451	0.079453	0.398957
	H78	H	0.913773	0.079980	0.621308
	H79	H	0.900647	0.904482	0.395982
	H80	H	0.608508	0.083219	0.922216
	H81	H	0.379174	0.086512	0.099783
	H82	H	0.609151	0.898785	0.098935
	H83	H	0.379816	0.902463	0.924412
	H84	H	0.605327	0.907797	0.099853
	H85	H	0.382394	0.081948	0.097383
	H86	H	0.606121	0.082819	0.928295
	H87	H	0.381043	0.904419	0.925730
	H88	H	0.904902	0.087276	0.626800
	H89	H	0.078930	0.081592	0.399822
	H90	H	0.079443	0.909633	0.622686
	H91	H	0.908360	0.907464	0.400948
	H92	H	0.083397	0.604075	0.925784
	H93	H	0.083998	0.381476	0.096199
	H94	H	0.902083	0.606328	0.098951
	H95	H	0.904373	0.379271	0.920770
	H96	H	0.405863	0.107551	0.605890
	H97	H	0.585929	0.880163	0.602012
	H98	H	0.580525	0.107130	0.422394
	H99	H	0.402517	0.882539	0.428584
	H100	H	0.587346	0.402447	0.127501
	H101	H	0.581210	0.580393	0.899686
	H102	H	0.407593	0.582126	0.123681
	H103	H	0.410271	0.404458	0.899764
	H104	H	0.107550	0.577498	0.421766
	H105	H	0.881915	0.585608	0.600000
	H106	H	0.110633	0.407095	0.607197
	H107	H	0.883517	0.410076	0.422869
	H108	H	0.906062	0.607372	0.104598
	H109	H	0.087019	0.378703	0.100925
	H110	H	0.091096	0.608486	0.918552
	H111	H	0.910572	0.382540	0.923343
	H112	H	0.079511	0.897141	0.626730
	H113	H	0.083627	0.085719	0.396950
	H114	H	0.901958	0.076027	0.623187
	H115	H	0.908273	0.898240	0.397180
	H116	H	0.605478	0.077515	0.924267
	H117	H	0.380924	0.081636	0.102851
	H118	H	0.609779	0.902991	0.107108
	H119	H	0.380866	0.904642	0.922686
	C120	C	0.371759	0.002201	0.634179
	C121	C	0.615293	0.985964	0.633455
	C122	C	0.615873	0.003620	0.390020
	C123	C	0.372596	0.986507	0.390579
	C124	C	0.615238	0.372956	0.019720
	C125	C	0.616011	0.615807	1.002331
	C126	C	0.372252	0.616247	0.019796
	C127	C	0.373327	0.372915	1.003673
	C128	C	0.004180	0.614795	0.390124
	C129	C	0.986808	0.614460	0.632315
	C130	C	0.002836	0.371826	0.632234
	C131	C	0.986358	0.371895	0.389423
	C132	C	0.872664	0.501868	0.133885
	C133	C	0.115256	0.485190	0.131283
	C134	C	0.117479	0.501632	0.888079
	C135	C	0.874072	0.485535	0.890501
	C136	C	0.115922	0.872332	0.520769
	C137	C	0.115156	0.115098	0.503334
	C138	C	0.873348	0.114693	0.519453
	C139	C	0.872898	0.871645	0.503437
	C140	C	0.502427	0.114830	0.891444
	C141	C	0.485563	0.115772	0.132683
	C142	C	0.502385	0.872344	0.133574
	C143	C	0.485936	0.872207	0.890950
	C144	C	0.368767	0.883472	0.694576
	C145	C	0.618389	0.104432	0.694477
	C146	C	0.615922	0.883478	0.331732
	C147	C	0.368286	0.104511	0.328971
	C148	C	0.677460	0.369243	0.900836
	C149	C	0.674190	0.616207	0.122827
	C150	C	0.314293	0.616771	0.899317
	C151	C	0.312804	0.371118	0.123391
	C152	C	0.884495	0.674800	0.387988
	C153	C	0.106207	0.674687	0.634768
	C154	C	0.883877	0.310635	0.637476
	C155	C	0.105227	0.310380	0.384754
	C156	C	0.884700	0.367496	0.695847
	C157	C	0.107255	0.614986	0.690186
	C158	C	0.884343	0.616254	0.330829
	C159	C	0.105858	0.368792	0.328006
	C160	C	0.371514	0.675241	0.899649
	C161	C	0.616389	0.674091	0.122876
	C162	C	0.620477	0.310660	0.901227
	C163	C	0.369613	0.312355	0.122971
	C164	C	0.674325	0.883426	0.389045
	C165	C	0.676940	0.104242	0.636922
	C166	C	0.311481	0.883381	0.636031
	C167	C	0.311811	0.104878	0.387795
	C168	C	0.869568	0.383382	0.194826
	C169	C	0.116385	0.604687	0.190344
	C170	C	0.120374	0.382629	0.828212
	C171	C	0.872421	0.604467	0.830191
	C172	C	0.175736	0.871376	0.400566
	C173	C	0.174997	0.117356	0.622810
	C174	C	0.813252	0.117213	0.400010
	C175	C	0.812972	0.870398	0.623521
	C176	C	0.383914	0.176862	0.887073
	C177	C	0.605205	0.176092	0.135344
	C178	C	0.382143	0.813420	0.135334
	C179	C	0.606346	0.813606	0.888469
	C180	C	0.381981	0.871922	0.192635
	C181	C	0.605430	0.117808	0.192379
	C182	C	0.382603	0.116689	0.832065
	C183	C	0.605423	0.870099	0.829849
	C184	C	0.869724	0.176084	0.400661
	C185	C	0.117484	0.175404	0.622488
	C186	C	0.118305	0.813703	0.400598
	C187	C	0.871134	0.812619	0.623693
	C188	C	0.177925	0.382850	0.886353
	C189	C	0.172735	0.605499	0.131536
	C190	C	0.811036	0.383685	0.137254
	C191	C	0.815175	0.605433	0.888764
	C192	C	0.397485	0.084793	0.609068
	C193	C	0.589735	0.903661	0.607586
	C194	C	0.591470	0.086719	0.414350
	C195	C	0.398424	0.903828	0.416126
	C196	C	0.588407	0.398986	0.101976
	C197	C	0.592210	0.591800	0.918549
	C198	C	0.395994	0.592173	0.103853
	C199	C	0.399779	0.398462	0.920786
	C200	C	0.087706	0.590227	0.414471
	C201	C	0.903127	0.590079	0.607655
	C202	C	0.085605	0.397416	0.605257
	C203	C	0.903741	0.397660	0.416044
	C204	C	0.898130	0.584660	0.108211
	C205	C	0.090920	0.401829	0.106742
	C206	C	0.092343	0.584658	0.912579
	C207	C	0.898938	0.402914	0.916275
	C208	C	0.090510	0.896585	0.604202
	C209	C	0.089944	0.089651	0.420030
	C210	C	0.899377	0.088639	0.602194
	C211	C	0.898282	0.896198	0.420011
	C212	C	0.585182	0.088789	0.917476
	C213	C	0.402552	0.090600	0.107311
	C214	C	0.586343	0.896315	0.108978
	C215	C	0.402339	0.896830	0.916751
	Zn216	Zn	0.493601	-0.006003	0.762921
	Zn217	Zn	0.493422	-0.005155	0.261756
	Zn218	Zn	0.744323	0.493956	0.011522
	Zn219	Zn	0.244696	0.493947	0.011391
	Zn220	Zn	-0.004989	0.743565	0.511838
	Zn221	Zn	-0.005866	0.243894	0.511080
	Zn222	Zn	-0.004689	0.493213	0.760453
	Zn223	Zn	-0.004399	0.493317	0.261388
	Zn224	Zn	0.494089	0.744127	0.011744
	Zn225	Zn	0.494019	0.244317	0.011642
	Zn226	Zn	0.744483	-0.006141	0.511339
	Zn227	Zn	0.243703	-0.006234	0.511500
	N228	N	0.405445	0.958531	0.693634
	N229	N	0.580798	0.029917	0.692566
	N230	N	0.580564	0.959162	0.331850
	N231	N	0.405622	0.029988	0.330972
	N232	N	0.674129	0.407694	0.975151
	N233	N	0.674172	0.580854	0.046960
	N234	N	0.314667	0.580850	0.975021
	N235	N	0.315028	0.407992	0.048018
	N236	N	0.960022	0.673968	0.424291
	N237	N	0.030296	0.674356	0.599398
	N238	N	0.958220	0.313272	0.598552
	N239	N	0.029829	0.312050	0.422232
	N240	N	0.959779	0.404862	0.692665
	N241	N	0.031942	0.578227	0.688824
	N242	N	0.959605	0.579610	0.332316
	N243	N	0.031052	0.406380	0.330730
	N244	N	0.406872	0.674946	0.975692
	N245	N	0.581065	0.674005	0.046977
	N246	N	0.582659	0.312839	0.976279
	N247	N	0.406472	0.313304	0.047495
	N248	N	0.674752	0.959068	0.424178
	N249	N	0.675282	0.029429	0.599834
	N250	N	0.312952	0.958214	0.599397
	N251	N	0.314325	0.030302	0.425571
	N252	N	0.907020	0.457993	0.192885
	N253	N	0.081522	0.528862	0.190380
	N254	N	0.083432	0.457545	0.829115
	N255	N	0.908248	0.529023	0.830971
	N256	N	0.174328	0.906964	0.476410
	N257	N	0.173696	0.080533	0.547491
	N258	N	0.815211	0.079909	0.474973
	N259	N	0.813917	0.906456	0.547822
	N260	N	0.459522	0.176032	0.923141
	N261	N	0.529555	0.175261	0.099170
	N262	N	0.458175	0.813444	0.099456
	N263	N	0.530996	0.814853	0.925758
	N264	N	0.457664	0.907925	0.191558
	N265	N	0.530093	0.081054	0.190892
	N266	N	0.457365	0.078735	0.834790
	N267	N	0.529424	0.905677	0.831072
	N268	N	0.906366	0.174648	0.476004
	N269	N	0.080987	0.173831	0.547228
	N270	N	0.081900	0.813875	0.476358
	N271	N	0.907376	0.813080	0.547875
	N272	N	0.176257	0.457854	0.922924
	N273	N	0.172118	0.530083	0.095608
	N274	N	0.812857	0.458411	0.100168
	N275	N	0.816006	0.530408	0.925503
	O276	O	0.530079	0.287807	0.302156
	H277	H	0.558323	0.287498	0.307380
	H278	H	0.528079	0.276634	0.290076
	O279	O	0.504568	0.610782	0.313051
	H280	H	0.497673	0.613134	0.310579
	H281	H	0.477311	0.608389	0.319881
	O282	O	-0.098506	0.930910	-0.108340
	H283	H	-0.112571	0.945242	-0.100609
	H284	H	-0.097140	0.944723	-0.109941
	O285	O	1.155197	0.848404	-0.055567
	H286	H	1.124610	0.855200	-0.072534
	H287	H	1.169027	0.857467	-0.075165
	O288	O	0.502078	0.684126	0.714475
	H289	H	0.500636	0.710203	0.731752
	H290	H	0.507662	0.670654	0.701582
	O291	O	0.324151	0.422373	0.631393
	H292	H	0.304444	0.422814	0.642397
	H293	H	0.324894	0.425942	0.623479
	O294	O	0.810118	1.172852	0.878078
	H295	H	0.846026	1.172429	0.857478
	H296	H	0.806549	1.186265	0.908022
	O297	O	0.148461	0.919579	0.006348
	H298	H	0.156281	0.917453	-0.003664
	H299	H	0.139170	0.923841	-0.005913
	O300	O	0.303026	0.594878	0.316798
	H301	H	0.320020	0.587677	0.313115
	H302	H	0.298981	0.582788	0.346618
	O303	O	0.485314	0.284471	0.681469
	H304	H	0.503174	0.318384	0.686157
	H305	H	0.487077	0.262755	0.703003
	O306	O	-0.051315	0.166554	0.818866
	H307	H	-0.033394	0.151875	0.827512
	H308	H	-0.030618	0.187118	0.812906
	O309	O	0.969607	0.157705	0.062919
	H310	H	0.968561	0.165393	0.068562
	H311	H	0.948673	0.144835	0.056015
	O312	O	0.522202	0.392327	0.546152
	H313	H	0.502708	0.388806	0.529119
	H314	H	0.501973	0.390186	0.553498
	O315	O	0.620171	0.509666	0.723763
	H316	H	0.627236	0.500034	0.696852
	H317	H	0.637166	0.505771	0.744237
	O318	O	0.210199	0.208749	0.032943
	H319	H	0.223714	0.212592	0.060434
	H320	H	0.220845	0.214924	0.058516
	O321	O	0.651974	0.619653	0.381961
	H322	H	0.654783	0.602468	0.397477
	H323	H	0.639957	0.635042	0.381434
	O324	O	0.477625	0.289228	0.461120
	H325	H	0.470771	0.289523	0.455511
	H326	H	0.463583	0.281824	0.454709
	O327	O	0.678449	0.484120	0.306756
	H328	H	0.677282	0.498855	0.308376
	H329	H	0.684753	0.477995	0.302153
	O330	O	-0.183434	1.021691	0.795751
	H331	H	-0.191600	1.033171	0.791349
	H332	H	-0.200020	1.041759	0.788189
	O333	O	-0.510889	1.500854	0.378695
	H334	H	-0.515885	1.509648	0.371468
	H335	H	-0.505958	1.488865	0.381355
	O336	O	0.922108	0.803740	0.194404
	H337	H	0.939433	0.814707	0.194345
	H338	H	0.950869	0.793273	0.191604
	O339	O	-0.014583	0.903398	0.993344
	H340	H	-0.004061	0.912488	0.992042
	H341	H	-0.018560	0.895816	0.987178
	O342	O	-0.210144	0.816571	0.181179
	H343	H	-0.197512	0.807396	0.172864
	H344	H	-0.200177	0.802537	0.202932
	O345	O	-0.120140	0.187202	1.098856
	H346	H	-0.136228	0.183770	1.103944
	H347	H	-0.135811	0.193212	1.103096
	O348	O	0.698372	0.588218	0.526333
	H349	H	0.707595	0.605750	0.527106
	H350	H	0.697935	0.586070	0.526501
	O351	O	1.016343	0.982626	0.067381
	H352	H	1.018453	0.983004	0.061502
	H353	H	1.014944	0.979017	0.071331
	O354	O	0.821947	0.948973	1.102261
	H355	H	0.827755	0.931196	1.109100
	H356	H	0.821002	0.949199	1.100081
	O357	O	-0.162664	-0.111905	0.125331
	H358	H	-0.174019	-0.109698	0.146746
	H359	H	-0.177741	-0.125048	0.122733
	O360	O	0.288108	0.297264	0.572005
	H361	H	0.277322	0.279879	0.588767
	H362	H	0.297863	0.303317	0.598573
	O363	O	1.037024	0.161190	-0.099748
	H364	H	1.059845	0.164488	-0.080012
	H365	H	1.027270	0.168769	-0.086196
	O366	O	0.014391	-0.101820	0.853317
	H367	H	-0.003266	-0.105649	0.844712
	H368	H	0.006644	-0.099836	0.866244
	O369	O	0.923990	0.032380	1.108899
	H370	H	0.917142	0.034427	1.103286
	H371	H	0.904117	0.026137	1.089280
	O372	O	0.998390	0.038181	0.112979
	H373	H	0.992918	0.016781	0.118502
	H374	H	0.978902	0.029665	0.105809
	O375	O	0.314470	-0.659746	0.654481
	H376	H	0.336703	-0.662556	0.664841
	H377	H	0.327812	-0.648761	0.660214
	O378	O	0.361017	0.422233	0.445379
	H379	H	0.374000	0.430632	0.458045
	H380	H	0.361192	0.401344	0.435168
	O381	O	0.105422	0.797594	-0.183559
	H382	H	0.070196	0.796638	-0.187090
	H383	H	0.102691	0.788229	-0.193925
	O384	O	0.699142	0.286699	0.491487
	H385	H	0.724405	0.257108	0.491742
	H386	H	0.669008	0.290133	0.515231
	O387	O	0.416553	0.491421	0.419116
	H388	H	0.412593	0.514693	0.415096
	H389	H	0.398458	0.498607	0.400383
	O390	O	1.154878	1.033972	-0.140448
	H391	H	1.147728	1.009651	-0.132647
	H392	H	1.177587	1.042266	-0.144703
	O393	O	1.337880	0.639669	0.616459
	H394	H	1.347648	0.630927	0.598032
	H395	H	1.344525	0.642488	0.614200
	O396	O	0.690961	0.451817	0.600271
	H397	H	0.677960	0.451223	0.589456
	H398	H	0.688681	0.443320	0.581121
	O399	O	0.700307	0.641606	0.505747
	H400	H	0.695953	0.646893	0.523468
	H401	H	0.711722	0.644955	0.515443
	O402	O	1.010663	1.088225	-0.106212
	H403	H	1.024611	1.091507	-0.113093
	H404	H	1.015690	1.093111	-0.108667
	O405	O	0.316759	0.693082	0.493087
	H406	H	0.311102	0.707217	0.471967
	H407	H	0.315841	0.693545	0.500900
	O408	O	0.287571	0.531659	0.509573
	H409	H	0.287649	0.523105	0.515048
	H410	H	0.283247	0.526176	0.518204
	O411	O	0.792153	0.842010	1.019881
	H412	H	0.782562	0.844366	1.029888
	H413	H	0.790496	0.836580	1.026778
	O414	O	1.099066	0.057902	1.204186
	H415	H	1.083593	0.067146	1.215315
	H416	H	1.100838	0.054592	1.207819
	O417	O	0.454702	0.526212	0.645709
	H418	H	0.450485	0.527895	0.620024
	H419	H	0.452829	0.511743	0.643536
	O420	O	0.185998	0.980309	1.127927
	H421	H	0.187871	0.975681	1.127770
	H422	H	0.196137	0.987936	1.101870
	O423	O	0.391512	0.689124	0.321519
	H424	H	0.389087	0.676150	0.320413
	H425	H	0.396364	0.680914	0.302522
	O426	O	0.513724	0.698657	0.521181
	H427	H	0.504192	0.699991	0.515818
	H428	H	0.525513	0.701914	0.516692
	O429	O	0.675095	0.674682	0.694186
	H430	H	0.682424	0.631638	0.695654
	H431	H	0.644243	0.678732	0.698532
	O432	O	0.675928	0.332122	0.327700
	H433	H	0.677346	0.336066	0.348085
	H434	H	0.674278	0.355060	0.340231
	O435	O	0.175849	-0.200125	0.082005
	H436	H	0.186982	-0.184444	0.075167
	H437	H	0.182525	-0.205078	0.041315
	O438	O	0.076644	1.119608	1.126956
	H439	H	0.055811	1.120847	1.132171
	H440	H	0.071903	1.095986	1.117617
	O441	O	0.534554	0.409118	0.721181
	H442	H	0.543509	0.431698	0.709455
	H443	H	0.545307	0.416643	0.715800
