data_Molecule from HDF5

_cell_length_a		16.242813
_cell_length_b		16.320714
_cell_length_c		16.358503
_cell_angle_alpha	89.978278
_cell_angle_beta	89.931123
_cell_angle_gamma	90.268318
_symmetry_space_group_name_H-M	'P 1'
_symmetry_Int_Tables_number		1

loop_
	_symmetry_equiv_pos_as_xyz
	x,y,z

loop_
	_atom_site_label
	_atom_site_type_symbol
	_atom_site_fract_x
	_atom_site_fract_y
	_atom_site_fract_z
	H0	H	0.394392	0.845239	0.718018
	H1	H	0.594378	0.172122	0.717620
	H2	H	0.593451	0.846067	0.287411
	H3	H	0.396219	0.171891	0.287126
	H4	H	0.710017	0.410417	0.840450
	H5	H	0.709510	0.606773	0.166710
	H6	H	0.282425	0.604498	0.839731
	H7	H	0.279535	0.408535	0.166700
	H8	H	0.830326	0.719841	0.405689
	H9	H	0.158818	0.723500	0.600943
	H10	H	0.830729	0.294433	0.602130
	H11	H	0.158495	0.294632	0.404859
	H12	H	0.831086	0.409413	0.719109
	H13	H	0.158971	0.607915	0.717097
	H14	H	0.831888	0.605864	0.288627
	H15	H	0.158562	0.409439	0.288591
	H16	H	0.397911	0.722149	0.839647
	H17	H	0.594815	0.724619	0.166228
	H18	H	0.593608	0.293520	0.840720
	H19	H	0.396606	0.293074	0.166794
	H20	H	0.706520	0.843979	0.405532
	H21	H	0.709230	0.172044	0.600113
	H22	H	0.280093	0.845281	0.600212
	H23	H	0.282047	0.172716	0.406146
	H24	H	0.894415	0.346332	0.219092
	H25	H	0.095180	0.671515	0.218150
	H26	H	0.093174	0.345283	0.788632
	H27	H	0.897615	0.671568	0.789021
	H28	H	0.208228	0.912307	0.340183
	H29	H	0.209079	0.107295	0.666462
	H30	H	0.781862	0.104702	0.339606
	H31	H	0.779770	0.909775	0.666311
	H32	H	0.329820	0.221456	0.905065
	H33	H	0.658803	0.223665	0.101251
	H34	H	0.330953	0.793807	0.101544
	H35	H	0.659319	0.795990	0.905456
	H36	H	0.331126	0.908479	0.218011
	H37	H	0.657985	0.109050	0.217990
	H38	H	0.330515	0.104223	0.789845
	H39	H	0.658632	0.908768	0.787062
	H40	H	0.895952	0.223240	0.340673
	H41	H	0.093067	0.223624	0.666462
	H42	H	0.092723	0.794340	0.340151
	H43	H	0.894994	0.792769	0.666256
	H44	H	0.208188	0.344614	0.906255
	H45	H	0.209370	0.671706	0.099989
	H46	H	0.779431	0.345509	0.101949
	H47	H	0.782741	0.672221	0.906126
	H48	H	0.406095	0.121558	0.591031
	H49	H	0.588611	0.893282	0.592122
	H50	H	0.586113	0.122635	0.412250
	H51	H	0.397075	0.890855	0.406951
	H52	H	0.594886	0.414414	0.121412
	H53	H	0.592421	0.601155	0.887407
	H54	H	0.407171	0.609711	0.119288
	H55	H	0.390806	0.412327	0.884187
	H56	H	0.109478	0.598127	0.415266
	H57	H	0.878455	0.601164	0.595995
	H58	H	0.112596	0.413881	0.598971
	H59	H	0.878099	0.416624	0.409889
	H60	H	0.111450	0.415375	0.593869
	H61	H	0.878686	0.599536	0.596816
	H62	H	0.112579	0.600547	0.404060
	H63	H	0.878364	0.414658	0.411061
	H64	H	0.394167	0.601529	0.121515
	H65	H	0.586074	0.601388	0.888403
	H66	H	0.585292	0.423243	0.116189
	H67	H	0.404655	0.424796	0.891893
	H68	H	0.591683	0.125133	0.410648
	H69	H	0.590002	0.890874	0.600638
	H70	H	0.395231	0.126763	0.597731
	H71	H	0.407028	0.894048	0.407604
	H72	H	0.896697	0.627333	0.097624
	H73	H	0.085322	0.389853	0.106602
	H74	H	0.092977	0.625703	0.908519
	H75	H	0.899014	0.394600	0.919871
	H76	H	0.083404	0.920175	0.616598
	H77	H	0.090567	0.097482	0.388311
	H78	H	0.898805	0.101553	0.619915
	H79	H	0.903285	0.912750	0.387751
	H80	H	0.610177	0.104215	0.917115
	H81	H	0.379009	0.106847	0.085316
	H82	H	0.611022	0.918876	0.097261
	H83	H	0.379829	0.916258	0.912503
	H84	H	0.613020	0.914329	0.098097
	H85	H	0.381698	0.088318	0.096345
	H86	H	0.609134	0.094844	0.908174
	H87	H	0.378473	0.916683	0.908770
	H88	H	0.903234	0.099476	0.617989
	H89	H	0.082909	0.102183	0.389605
	H90	H	0.083933	0.909029	0.619878
	H91	H	0.898224	0.911736	0.386377
	H92	H	0.087034	0.625063	0.906999
	H93	H	0.080022	0.395949	0.091249
	H94	H	0.908620	0.624718	0.100919
	H95	H	0.896023	0.388925	0.903860
	H96	H	0.406999	0.125275	0.603573
	H97	H	0.580907	0.894038	0.598444
	H98	H	0.586964	0.125659	0.406700
	H99	H	0.400998	0.894626	0.416025
	H100	H	0.581654	0.410076	0.118471
	H101	H	0.588666	0.605981	0.886597
	H102	H	0.406674	0.594681	0.115880
	H103	H	0.409826	0.405931	0.887661
	H104	H	0.113739	0.608850	0.411797
	H105	H	0.877358	0.600700	0.598018
	H106	H	0.111608	0.419328	0.597416
	H107	H	0.878969	0.416317	0.412005
	H108	H	0.904581	0.621982	0.089705
	H109	H	0.096484	0.390507	0.093285
	H110	H	0.089079	0.623673	0.912729
	H111	H	0.911516	0.393988	0.908482
	H112	H	0.093549	0.915834	0.620953
	H113	H	0.090425	0.106598	0.385959
	H114	H	0.903166	0.104601	0.619889
	H115	H	0.899512	0.916193	0.387071
	H116	H	0.614284	0.106372	0.905321
	H117	H	0.373115	0.105899	0.106472
	H118	H	0.610935	0.915918	0.093754
	H119	H	0.377561	0.913361	0.911018
	C120	C	0.373510	0.016770	0.625175
	C121	C	0.616051	1.000321	0.625085
	C122	C	0.616112	0.016513	0.381599
	C123	C	0.373436	1.000859	0.381423
	C124	C	0.616342	0.386947	0.011539
	C125	C	0.617315	0.630955	0.995475
	C126	C	0.374519	0.629669	0.011153
	C127	C	0.373064	0.385796	0.995514
	C128	C	0.003456	0.629813	0.381866
	C129	C	0.986245	0.629803	0.625091
	C130	C	0.003233	0.387702	0.625398
	C131	C	0.986767	0.387354	0.382435
	C132	C	0.873793	0.517064	0.124720
	C133	C	0.116565	0.500046	0.125001
	C134	C	0.117306	0.516806	0.881506
	C135	C	0.873681	0.500127	0.881999
	C136	C	0.115600	0.887023	0.511325
	C137	C	0.116961	0.131071	0.495248
	C138	C	0.873209	0.129985	0.511636
	C139	C	0.871902	0.885498	0.494960
	C140	C	0.502819	0.129941	0.881420
	C141	C	0.486388	0.129657	0.124250
	C142	C	0.503256	0.887335	0.124757
	C143	C	0.486855	0.887010	0.881970
	C144	C	0.374577	0.893968	0.680236
	C145	C	0.614634	0.123294	0.679919
	C146	C	0.613850	0.894175	0.325816
	C147	C	0.375688	0.123291	0.325738
	C148	C	0.671404	0.390221	0.888834
	C149	C	0.672310	0.628116	0.117912
	C150	C	0.319827	0.625836	0.888426
	C151	C	0.317869	0.388450	0.118200
	C152	C	0.879650	0.682997	0.385150
	C153	C	0.109934	0.685515	0.621749
	C154	C	0.879908	0.332127	0.623008
	C155	C	0.109676	0.332482	0.384856
	C156	C	0.880081	0.389320	0.680996
	C157	C	0.109887	0.628215	0.679682
	C158	C	0.880426	0.626703	0.326674
	C159	C	0.109547	0.389173	0.326659
	C160	C	0.377126	0.684473	0.888329
	C161	C	0.615144	0.686491	0.117639
	C162	C	0.613712	0.332028	0.888999
	C163	C	0.375653	0.330738	0.118215
	C164	C	0.669896	0.893247	0.384731
	C165	C	0.671389	0.123316	0.621382
	C166	C	0.317787	0.893934	0.621503
	C167	C	0.319057	0.123768	0.384630
	C168	C	0.874535	0.394673	0.180874
	C169	C	0.115230	0.622704	0.180273
	C170	C	0.114278	0.394010	0.826600
	C171	C	0.876869	0.623042	0.827100
	C172	C	0.170966	0.890383	0.388976
	C173	C	0.171423	0.128281	0.617959
	C174	C	0.818995	0.125992	0.388637
	C175	C	0.817004	0.888416	0.617377
	C176	C	0.379280	0.184331	0.884254
	C177	C	0.609785	0.185537	0.121652
	C178	C	0.379862	0.831756	0.121907
	C179	C	0.610201	0.832818	0.884366
	C180	C	0.379912	0.888727	0.179751
	C181	C	0.609430	0.128435	0.179539
	C182	C	0.379220	0.125856	0.827323
	C183	C	0.610000	0.889377	0.826010
	C184	C	0.875800	0.184906	0.389158
	C185	C	0.113943	0.186210	0.617683
	C186	C	0.113407	0.832055	0.388884
	C187	C	0.874518	0.830504	0.617498
	C188	C	0.170975	0.393546	0.885232
	C189	C	0.171955	0.622908	0.121725
	C190	C	0.817786	0.394261	0.122249
	C191	C	0.819561	0.623257	0.884964
	C192	C	0.396234	0.102411	0.603599
	C193	C	0.593230	0.914837	0.603387
	C194	C	0.594507	0.102120	0.403472
	C195	C	0.395178	0.915282	0.403593
	C196	C	0.593820	0.409155	0.096760
	C197	C	0.595540	0.609116	0.909650
	C198	C	0.396252	0.608215	0.096784
	C199	C	0.395078	0.407948	0.910093
	C200	C	0.089761	0.608540	0.403858
	C201	C	0.900464	0.607175	0.603389
	C202	C	0.089628	0.409802	0.603192
	C203	C	0.900602	0.409528	0.404390
	C204	C	0.896772	0.602545	0.102568
	C205	C	0.093834	0.414407	0.103346
	C206	C	0.096073	0.602596	0.903123
	C207	C	0.895710	0.414529	0.904190
	C208	C	0.093518	0.908645	0.596937
	C209	C	0.094616	0.108614	0.410060
	C210	C	0.895168	0.108015	0.597272
	C211	C	0.893972	0.907213	0.408992
	C212	C	0.588895	0.108287	0.903454
	C213	C	0.400350	0.106963	0.102427
	C214	C	0.589489	0.909527	0.102902
	C215	C	0.400772	0.909066	0.904197
	Zn216	Zn	0.495212	0.008278	0.753570
	Zn217	Zn	0.494927	0.008412	0.252784
	Zn218	Zn	0.744995	0.508865	0.003337
	Zn219	Zn	0.245341	0.508211	0.003779
	Zn220	Zn	-0.005850	0.757664	0.503195
	Zn221	Zn	-0.005539	0.259285	0.503681
	Zn222	Zn	-0.004771	0.508553	0.754014
	Zn223	Zn	-0.004874	0.508875	0.253729
	Zn224	Zn	0.495340	0.759436	0.003432
	Zn225	Zn	0.494715	0.257569	0.003332
	Zn226	Zn	0.744240	0.008179	0.503185
	Zn227	Zn	0.244860	0.009369	0.503562
	N228	N	0.408557	0.971292	0.682582
	N229	N	0.580698	0.045865	0.682233
	N230	N	0.581261	0.971723	0.323653
	N231	N	0.408688	0.045809	0.323624
	N232	N	0.673037	0.423741	0.965958
	N233	N	0.673656	0.594446	0.040922
	N234	N	0.318247	0.592447	0.965662
	N235	N	0.316170	0.421998	0.041000
	N236	N	0.957312	0.685261	0.418552
	N237	N	0.032174	0.686954	0.588764
	N238	N	0.957464	0.331142	0.589071
	N239	N	0.032178	0.331274	0.418780
	N240	N	0.957897	0.423096	0.682644
	N241	N	0.032242	0.594065	0.681804
	N242	N	0.958381	0.594363	0.324677
	N243	N	0.031960	0.422744	0.324913
	N244	N	0.410342	0.687031	0.965694
	N245	N	0.581571	0.688319	0.040468
	N246	N	0.580328	0.329914	0.966217
	N247	N	0.409249	0.329041	0.040998
	N248	N	0.671417	0.970325	0.418921
	N249	N	0.672584	0.045864	0.588291
	N250	N	0.316811	0.971359	0.588173
	N251	N	0.317478	0.046704	0.418552
	N252	N	0.908847	0.471935	0.182396
	N253	N	0.081570	0.545138	0.182516
	N254	N	0.081804	0.471528	0.824142
	N255	N	0.909666	0.545587	0.825113
	N256	N	0.172375	0.923831	0.466215
	N257	N	0.173544	0.094808	0.540861
	N258	N	0.817292	0.092584	0.465965
	N259	N	0.815500	0.921792	0.540191
	N260	N	0.457317	0.186878	0.917139
	N261	N	0.532335	0.186265	0.087879
	N262	N	0.457621	0.830802	0.088514
	N263	N	0.532788	0.831358	0.918474
	N264	N	0.457476	0.922817	0.181506
	N265	N	0.531737	0.094329	0.181212
	N266	N	0.456964	0.092848	0.825428
	N267	N	0.532136	0.922439	0.824379
	N268	N	0.908821	0.187313	0.466515
	N269	N	0.080567	0.187941	0.540434
	N270	N	0.079462	0.830051	0.465869
	N271	N	0.907785	0.828388	0.540090
	N272	N	0.173095	0.470929	0.918739
	N273	N	0.172790	0.545788	0.087991
	N274	N	0.817235	0.471378	0.088135
	N275	N	0.817544	0.545958	0.918590
	O276	O	0.008896	-0.023111	0.989997
	H277	H	0.008626	-0.022451	0.992566
	H278	H	0.008233	-0.024985	0.985867
	O279	O	0.492174	0.488319	0.510473
	H280	H	0.487690	0.484437	0.511837
	H281	H	0.494385	0.485936	0.514167
	O282	O	0.489588	0.525909	0.546162
	H283	H	0.485861	0.521929	0.547169
	H284	H	0.495104	0.529501	0.553126
	O285	O	0.477341	0.489086	0.572535
	H286	H	0.472873	0.489353	0.580310
	H287	H	0.470825	0.488696	0.570740
	O288	O	0.476057	0.518833	0.557163
	H289	H	0.482456	0.521488	0.553564
	H290	H	0.478188	0.510398	0.559470
	O291	O	0.505601	0.494248	0.485697
	H292	H	0.501247	0.492868	0.488604
	H293	H	0.507255	0.490519	0.480417
	O294	O	0.479104	0.512397	0.543905
	H295	H	0.473267	0.519412	0.533990
	H296	H	0.484865	0.510005	0.544598
	O297	O	1.508298	-0.481899	-0.423382
	H298	H	1.508651	-0.482293	-0.426510
	H299	H	1.502081	-0.472442	-0.413127
