data_Molecule from HDF5

_cell_length_a		16.338774
_cell_length_b		16.269460
_cell_length_c		16.317628
_cell_angle_alpha	89.992704
_cell_angle_beta	90.186163
_cell_angle_gamma	90.010733
_symmetry_space_group_name_H-M	'P 1'
_symmetry_Int_Tables_number		1

loop_
	_symmetry_equiv_pos_as_xyz
	x,y,z

loop_
	_atom_site_label
	_atom_site_type_symbol
	_atom_site_fract_x
	_atom_site_fract_y
	_atom_site_fract_z
	H0	H	0.405889	0.840409	0.706843
	H1	H	0.601959	0.167897	0.709474
	H2	H	0.598554	0.840317	0.281307
	H3	H	0.404860	0.168393	0.279963
	H4	H	0.717103	0.405047	0.830743
	H5	H	0.717494	0.601615	0.158163
	H6	H	0.287724	0.602511	0.830706
	H7	H	0.288504	0.405460	0.158265
	H8	H	0.838867	0.718263	0.396532
	H9	H	0.166093	0.719825	0.593835
	H10	H	0.838891	0.291212	0.590661
	H11	H	0.166275	0.291483	0.398344
	H12	H	0.839156	0.406510	0.708452
	H13	H	0.165675	0.603246	0.709798
	H14	H	0.839757	0.602962	0.279226
	H15	H	0.165910	0.407043	0.281090
	H16	H	0.405763	0.717155	0.830273
	H17	H	0.600268	0.718152	0.157892
	H18	H	0.598630	0.290645	0.830182
	H19	H	0.406529	0.290611	0.158287
	H20	H	0.716088	0.839866	0.396923
	H21	H	0.716287	0.168316	0.591419
	H22	H	0.290087	0.840156	0.590281
	H23	H	0.289409	0.168313	0.396346
	H24	H	0.906511	0.340977	0.207725
	H25	H	0.102124	0.668637	0.208952
	H26	H	0.099991	0.340727	0.780683
	H27	H	0.903308	0.668084	0.780387
	H28	H	0.216768	0.905999	0.330837
	H29	H	0.218291	0.103574	0.657932
	H30	H	0.787260	0.102883	0.331312
	H31	H	0.788222	0.905563	0.657909
	H32	H	0.339003	0.217673	0.895749
	H33	H	0.666450	0.217686	0.091845
	H34	H	0.339153	0.791188	0.089778
	H35	H	0.665851	0.789828	0.896708
	H36	H	0.339676	0.905194	0.208231
	H37	H	0.665982	0.101818	0.208935
	H38	H	0.340157	0.102452	0.778042
	H39	H	0.666317	0.905583	0.780604
	H40	H	0.904828	0.218388	0.330998
	H41	H	0.100106	0.218256	0.657951
	H42	H	0.098543	0.791110	0.330120
	H43	H	0.906741	0.792089	0.658483
	H44	H	0.216107	0.340368	0.896368
	H45	H	0.217169	0.668926	0.091466
	H46	H	0.788781	0.340868	0.094456
	H47	H	0.787705	0.667317	0.895915
	H48	H	0.408768	0.123657	0.594968
	H49	H	0.598095	0.886126	0.590679
	H50	H	0.594145	0.121359	0.400390
	H51	H	0.412719	0.889139	0.401528
	H52	H	0.602338	0.416874	0.110356
	H53	H	0.600930	0.601960	0.875560
	H54	H	0.401298	0.595832	0.112672
	H55	H	0.400466	0.412161	0.876690
	H56	H	0.118402	0.600649	0.405962
	H57	H	0.887205	0.593009	0.591461
	H58	H	0.121211	0.404979	0.591800
	H59	H	0.883504	0.403437	0.398492
	H60	H	0.116534	0.411301	0.580589
	H61	H	0.884024	0.603614	0.591438
	H62	H	0.117086	0.593170	0.402862
	H63	H	0.889363	0.413357	0.408088
	H64	H	0.413943	0.591975	0.107340
	H65	H	0.598909	0.590145	0.879510
	H66	H	0.589277	0.412216	0.107922
	H67	H	0.412586	0.416849	0.880844
	H68	H	0.596161	0.119967	0.402709
	H69	H	0.592644	0.888505	0.587105
	H70	H	0.418449	0.117873	0.583926
	H71	H	0.405242	0.887310	0.404002
	H72	H	0.909719	0.618235	0.078094
	H73	H	0.094949	0.390431	0.083971
	H74	H	0.098001	0.619558	0.908733
	H75	H	0.914380	0.386744	0.896461
	H76	H	0.100725	0.913662	0.611211
	H77	H	0.093678	0.099520	0.378756
	H78	H	0.909981	0.092508	0.609430
	H79	H	0.907089	0.914824	0.378117
	H80	H	0.617576	0.097482	0.903815
	H81	H	0.383860	0.106409	0.088844
	H82	H	0.620136	0.905783	0.087312
	H83	H	0.385635	0.910577	0.895189
	H84	H	0.616769	0.914277	0.084031
	H85	H	0.390454	0.094338	0.078512
	H86	H	0.619359	0.095341	0.898758
	H87	H	0.385456	0.907168	0.901434
	H88	H	0.913133	0.101106	0.610538
	H89	H	0.098863	0.099147	0.377524
	H90	H	0.093995	0.913096	0.609457
	H91	H	0.912045	0.909471	0.378807
	H92	H	0.099899	0.623690	0.897588
	H93	H	0.100659	0.387072	0.088287
	H94	H	0.902122	0.625007	0.090802
	H95	H	0.911292	0.389107	0.907754
	H96	H	0.403773	0.121152	0.580603
	H97	H	0.598705	0.888691	0.584636
	H98	H	0.597370	0.121248	0.399861
	H99	H	0.407666	0.886050	0.396666
	H100	H	0.599001	0.403108	0.113294
	H101	H	0.589516	0.598614	0.879854
	H102	H	0.411643	0.605341	0.112164
	H103	H	0.411187	0.403900	0.877297
	H104	H	0.120589	0.598996	0.397891
	H105	H	0.887933	0.599635	0.582593
	H106	H	0.118118	0.418087	0.592152
	H107	H	0.886457	0.417835	0.393755
	H108	H	0.917723	0.620819	0.092091
	H109	H	0.093586	0.387977	0.091391
	H110	H	0.089041	0.619607	0.900754
	H111	H	0.903270	0.385711	0.900050
	H112	H	0.097278	0.908011	0.611379
	H113	H	0.096288	0.094836	0.378689
	H114	H	0.904739	0.099282	0.612936
	H115	H	0.905018	0.908124	0.376190
	H116	H	0.619393	0.100485	0.899669
	H117	H	0.385744	0.090999	0.094535
	H118	H	0.619724	0.913431	0.092853
	H119	H	0.388389	0.913330	0.901150
	C120	C	0.381915	0.012721	0.614827
	C121	C	0.624707	0.996067	0.615880
	C122	C	0.623759	0.012427	0.373242
	C123	C	0.380605	0.995810	0.371964
	C124	C	0.624373	0.382626	0.002310
	C125	C	0.624758	0.625459	0.986155
	C126	C	0.380873	0.625788	0.002406
	C127	C	0.380325	0.382218	0.986312
	C128	C	0.010640	0.625957	0.373421
	C129	C	0.994611	0.626752	0.616777
	C130	C	0.010748	0.382961	0.616088
	C131	C	0.994368	0.383268	0.372483
	C132	C	0.882104	0.513065	0.115360
	C133	C	0.124888	0.496699	0.116058
	C134	C	0.123924	0.512529	0.873606
	C135	C	0.881279	0.495710	0.872902
	C136	C	0.124445	0.883193	0.502245
	C137	C	0.124695	0.126419	0.486187
	C138	C	0.881422	0.125411	0.502764
	C139	C	0.880594	0.882825	0.486125
	C140	C	0.511130	0.125548	0.872227
	C141	C	0.494784	0.125619	0.115689
	C142	C	0.511067	0.882423	0.115873
	C143	C	0.494439	0.882380	0.872211
	C144	C	0.384959	0.889276	0.669177
	C145	C	0.622143	0.119177	0.671397
	C146	C	0.620005	0.888868	0.318976
	C147	C	0.383969	0.119191	0.317348
	C148	C	0.679315	0.384619	0.879571
	C149	C	0.678972	0.622061	0.109603
	C150	C	0.326253	0.622537	0.879344
	C151	C	0.326279	0.384984	0.109333
	C152	C	0.887821	0.680720	0.375786
	C153	C	0.117606	0.681237	0.613488
	C154	C	0.887745	0.328393	0.612495
	C155	C	0.117532	0.329035	0.377025
	C156	C	0.887880	0.385919	0.670609
	C157	C	0.117199	0.624017	0.671896
	C158	C	0.888317	0.623518	0.317398
	C159	C	0.117327	0.386218	0.318711
	C160	C	0.384342	0.679913	0.879221
	C161	C	0.621011	0.680039	0.109339
	C162	C	0.620197	0.328021	0.878977
	C163	C	0.384671	0.327740	0.109437
	C164	C	0.678283	0.888842	0.376244
	C165	C	0.678936	0.119397	0.612889
	C166	C	0.327825	0.889121	0.611064
	C167	C	0.326148	0.119245	0.374594
	C168	C	0.885422	0.389768	0.170436
	C169	C	0.122448	0.619833	0.170972
	C170	C	0.120653	0.389519	0.818457
	C171	C	0.883434	0.619152	0.818208
	C172	C	0.178751	0.885329	0.379378
	C173	C	0.180151	0.123858	0.609140
	C174	C	0.825939	0.123178	0.379800
	C175	C	0.826635	0.885904	0.609245
	C176	C	0.388028	0.180346	0.874923
	C177	C	0.617592	0.180103	0.112878
	C178	C	0.388096	0.828301	0.111709
	C179	C	0.617501	0.827862	0.876100
	C180	C	0.388410	0.884930	0.170411
	C181	C	0.617310	0.122511	0.170990
	C182	C	0.388416	0.123140	0.816459
	C183	C	0.617754	0.885272	0.818361
	C184	C	0.884227	0.180394	0.379613
	C185	C	0.121690	0.180873	0.609346
	C186	C	0.120217	0.828295	0.379245
	C187	C	0.884852	0.828975	0.609441
	C188	C	0.178322	0.389297	0.875956
	C189	C	0.179922	0.619947	0.113095
	C190	C	0.827269	0.389528	0.113628
	C191	C	0.825644	0.618667	0.875338
	C192	C	0.403845	0.098886	0.592846
	C193	C	0.602837	0.909958	0.593869
	C194	C	0.602349	0.098533	0.394788
	C195	C	0.402231	0.909618	0.394196
	C196	C	0.603056	0.404244	0.088361
	C197	C	0.602944	0.603517	0.900365
	C198	C	0.402629	0.604102	0.088474
	C199	C	0.401664	0.404398	0.900337
	C200	C	0.096429	0.604141	0.395755
	C201	C	0.908505	0.605102	0.594857
	C202	C	0.096631	0.404838	0.594473
	C203	C	0.908694	0.405057	0.393791
	C204	C	0.903552	0.599213	0.093577
	C205	C	0.102969	0.410622	0.094247
	C206	C	0.102144	0.598639	0.895896
	C207	C	0.903258	0.409632	0.894884
	C208	C	0.103635	0.905066	0.588457
	C209	C	0.102833	0.104374	0.400502
	C210	C	0.902979	0.103980	0.588588
	C211	C	0.901732	0.904420	0.400016
	C212	C	0.596659	0.104254	0.894277
	C213	C	0.408943	0.103776	0.093597
	C214	C	0.596716	0.904721	0.094391
	C215	C	0.408676	0.904118	0.893011
	Zn216	Zn	0.503019	0.003880	0.743650
	Zn217	Zn	0.502509	0.003999	0.244358
	Zn218	Zn	0.753841	0.503752	-0.005444
	Zn219	Zn	0.252541	0.504251	-0.005475
	Zn220	Zn	0.002464	0.754781	0.494423
	Zn221	Zn	0.002743	0.254303	0.494374
	Zn222	Zn	0.002428	0.504664	0.745123
	Zn223	Zn	0.003147	0.504891	0.244106
	Zn224	Zn	0.502776	0.754229	-0.006140
	Zn225	Zn	0.502499	0.254088	-0.005657
	Zn226	Zn	0.752820	0.004412	0.494456
	Zn227	Zn	0.253202	0.004833	0.494003
	N228	N	0.418158	0.967001	0.671396
	N229	N	0.589142	0.041322	0.673325
	N230	N	0.586840	0.966451	0.317055
	N231	N	0.416946	0.041300	0.315501
	N232	N	0.681929	0.417813	0.957152
	N233	N	0.681402	0.588985	0.032092
	N234	N	0.324173	0.589486	0.956940
	N235	N	0.323566	0.418102	0.031805
	N236	N	0.964924	0.682230	0.409871
	N237	N	0.040201	0.683041	0.579964
	N238	N	0.965059	0.326430	0.579320
	N239	N	0.039942	0.326811	0.409613
	N240	N	0.965356	0.419157	0.672945
	N241	N	0.039765	0.590853	0.673898
	N242	N	0.965790	0.590249	0.315812
	N243	N	0.039924	0.418975	0.315712
	N244	N	0.417577	0.682061	0.956822
	N245	N	0.587961	0.682235	0.031634
	N246	N	0.586904	0.326406	0.956469
	N247	N	0.417570	0.326018	0.032036
	N248	N	0.680988	0.966829	0.409034
	N249	N	0.680576	0.042051	0.579144
	N250	N	0.325701	0.966973	0.578126
	N251	N	0.323956	0.041657	0.407811
	N252	N	0.918887	0.467483	0.171438
	N253	N	0.089116	0.542066	0.173145
	N254	N	0.087494	0.467272	0.817133
	N255	N	0.917171	0.541720	0.816551
	N256	N	0.181457	0.918863	0.456739
	N257	N	0.182132	0.090587	0.531523
	N258	N	0.824326	0.089628	0.457157
	N259	N	0.823720	0.918560	0.531437
	N260	N	0.465233	0.181983	0.908999
	N261	N	0.540200	0.182118	0.079239
	N262	N	0.465390	0.826516	0.078422
	N263	N	0.540095	0.825770	0.908897
	N264	N	0.465917	0.917839	0.173167
	N265	N	0.539845	0.089578	0.172641
	N266	N	0.465618	0.089719	0.814696
	N267	N	0.540204	0.918406	0.815795
	N268	N	0.918211	0.181809	0.456923
	N269	N	0.087873	0.182551	0.532101
	N270	N	0.087069	0.826950	0.456837
	N271	N	0.917594	0.826971	0.531960
	N272	N	0.180704	0.466865	0.909388
	N273	N	0.181245	0.542494	0.079425
	N274	N	0.825370	0.467058	0.079858
	N275	N	0.824262	0.540907	0.908742
	O276	O	1.001984	0.064384	1.025748
	H277	H	1.000983	0.060305	1.034757
	H278	H	0.994194	0.068252	1.023035
	O279	O	0.005280	0.075853	0.987842
	H280	H	0.014082	0.073280	0.983918
	H281	H	0.014556	0.079698	0.979162
	O282	O	1.039648	1.088321	0.004991
	H283	H	1.035378	1.083451	0.006659
	H284	H	1.046161	1.095781	-0.001336
	O285	O	0.041135	0.064584	0.990868
	H286	H	0.041032	0.064470	0.993553
	H287	H	0.037492	0.067574	1.001554
