data_Molecule from HDF5

_cell_length_a		16.385346
_cell_length_b		16.227299
_cell_length_c		16.287464
_cell_angle_alpha	90.263469
_cell_angle_beta	89.714423
_cell_angle_gamma	89.745868
_symmetry_space_group_name_H-M	'P 1'
_symmetry_Int_Tables_number		1

loop_
	_symmetry_equiv_pos_as_xyz
	x,y,z

loop_
	_atom_site_label
	_atom_site_type_symbol
	_atom_site_fract_x
	_atom_site_fract_y
	_atom_site_fract_z
	H0	H	0.395596	0.841985	0.721949
	H1	H	0.595932	0.167836	0.720689
	H2	H	0.595435	0.842664	0.287419
	H3	H	0.396671	0.169114	0.291910
	H4	H	0.714041	0.402903	0.842940
	H5	H	0.711655	0.608691	0.166843
	H6	H	0.277706	0.609704	0.841220
	H7	H	0.277313	0.406332	0.166402
	H8	H	0.833118	0.720433	0.405803
	H9	H	0.158462	0.719908	0.603068
	H10	H	0.832576	0.290525	0.604081
	H11	H	0.156583	0.285686	0.402279
	H12	H	0.834330	0.402253	0.723030
	H13	H	0.157709	0.605158	0.720550
	H14	H	0.832474	0.602913	0.290825
	H15	H	0.156198	0.399994	0.285080
	H16	H	0.396821	0.722787	0.840718
	H17	H	0.591261	0.719742	0.168543
	H18	H	0.598262	0.287564	0.842841
	H19	H	0.394195	0.291540	0.167934
	H20	H	0.711214	0.841012	0.403027
	H21	H	0.712365	0.166397	0.606838
	H22	H	0.279131	0.841784	0.607086
	H23	H	0.276771	0.166956	0.402615
	H24	H	0.897137	0.340444	0.216701
	H25	H	0.092960	0.667475	0.221069
	H26	H	0.096330	0.340995	0.787754
	H27	H	0.897227	0.668892	0.790259
	H28	H	0.214381	0.900459	0.341792
	H29	H	0.211913	0.107365	0.666848
	H30	H	0.781227	0.101940	0.341625
	H31	H	0.777826	0.902890	0.666605
	H32	H	0.334946	0.223610	0.905648
	H33	H	0.658086	0.220481	0.103988
	H34	H	0.333473	0.791610	0.105522
	H35	H	0.658345	0.789071	0.903858
	H36	H	0.334666	0.906981	0.222013
	H37	H	0.657814	0.105851	0.220788
	H38	H	0.334816	0.109116	0.788163
	H39	H	0.657356	0.903231	0.785640
	H40	H	0.896953	0.217963	0.341369
	H41	H	0.092141	0.219920	0.667512
	H42	H	0.094133	0.788862	0.340451
	H43	H	0.896904	0.790099	0.667969
	H44	H	0.214163	0.342608	0.900721
	H45	H	0.208284	0.669708	0.104717
	H46	H	0.778854	0.342656	0.105021
	H47	H	0.780323	0.669068	0.906164
	H48	H	0.408547	0.118831	0.596098
	H49	H	0.582444	0.890913	0.590889
	H50	H	0.595257	0.125465	0.405583
	H51	H	0.408416	0.890760	0.415909
	H52	H	0.591188	0.412536	0.122978
	H53	H	0.588232	0.596108	0.888958
	H54	H	0.395708	0.603623	0.122538
	H55	H	0.408022	0.412846	0.888932
	H56	H	0.110233	0.592205	0.409990
	H57	H	0.878121	0.599412	0.605493
	H58	H	0.112236	0.414118	0.603120
	H59	H	0.877906	0.406169	0.409906
	H60	H	0.111331	0.404027	0.590494
	H61	H	0.880501	0.602935	0.591545
	H62	H	0.111271	0.597107	0.410006
	H63	H	0.881173	0.412817	0.415658
	H64	H	0.399399	0.592075	0.117672
	H65	H	0.587769	0.598006	0.888182
	H66	H	0.588213	0.420458	0.118926
	H67	H	0.401656	0.414423	0.888870
	H68	H	0.579463	0.119974	0.411833
	H69	H	0.594945	0.886369	0.592812
	H70	H	0.400809	0.119221	0.591017
	H71	H	0.401527	0.888568	0.414433
	H72	H	0.895677	0.625218	0.102685
	H73	H	0.087105	0.389447	0.092745
	H74	H	0.085054	0.621077	0.910920
	H75	H	0.897347	0.388505	0.919687
	H76	H	0.081333	0.915312	0.616975
	H77	H	0.090385	0.097875	0.387092
	H78	H	0.899186	0.094063	0.620511
	H79	H	0.908829	0.906401	0.388504
	H80	H	0.611768	0.101057	0.915523
	H81	H	0.386898	0.090522	0.088116
	H82	H	0.610504	0.915970	0.095612
	H83	H	0.379471	0.915875	0.906245
	H84	H	0.612544	0.911972	0.100306
	H85	H	0.377651	0.093827	0.112168
	H86	H	0.609068	0.091525	0.914657
	H87	H	0.380718	0.908367	0.916898
	H88	H	0.904850	0.096803	0.620090
	H89	H	0.090843	0.088628	0.389617
	H90	H	0.088944	0.905805	0.622192
	H91	H	0.896970	0.909304	0.385093
	H92	H	0.086432	0.620871	0.914261
	H93	H	0.089558	0.389316	0.092606
	H94	H	0.910036	0.621179	0.102291
	H95	H	0.902182	0.385865	0.904276
	H96	H	0.401324	0.122626	0.599416
	H97	H	0.585728	0.886077	0.603007
	H98	H	0.594064	0.120517	0.423129
	H99	H	0.406868	0.887505	0.409016
	H100	H	0.582188	0.413041	0.119972
	H101	H	0.589534	0.597149	0.887978
	H102	H	0.407594	0.601951	0.118793
	H103	H	0.405881	0.417965	0.889968
	H104	H	0.109561	0.594744	0.414594
	H105	H	0.883734	0.589370	0.596955
	H106	H	0.105811	0.418977	0.588935
	H107	H	0.879471	0.414525	0.406780
	H108	H	0.901236	0.619989	0.089884
	H109	H	0.088778	0.388307	0.094876
	H110	H	0.088375	0.621841	0.911145
	H111	H	0.912225	0.391919	0.914733
	H112	H	0.094114	0.917693	0.620653
	H113	H	0.082345	0.093738	0.390716
	H114	H	0.900497	0.100210	0.622786
	H115	H	0.904662	0.918740	0.391025
	H116	H	0.612833	0.096430	0.906346
	H117	H	0.377401	0.112690	0.095102
	H118	H	0.611699	0.910156	0.093944
	H119	H	0.384559	0.921060	0.916831
	C120	C	0.374070	0.013077	0.626046
	C121	C	0.616714	0.995681	0.625212
	C122	C	0.618077	0.013584	0.383528
	C123	C	0.374881	0.996464	0.383408
	C124	C	0.617493	0.384430	0.013559
	C125	C	0.617006	0.626740	0.996197
	C126	C	0.372379	0.629315	0.012123
	C127	C	0.374761	0.385358	0.996511
	C128	C	0.003306	0.624686	0.382992
	C129	C	0.987827	0.626508	0.626567
	C130	C	0.003296	0.382808	0.624881
	C131	C	0.986454	0.380815	0.381187
	C132	C	0.873598	0.513693	0.126097
	C133	C	0.116816	0.496748	0.124695
	C134	C	0.117395	0.513579	0.881867
	C135	C	0.874430	0.496540	0.883446
	C136	C	0.118079	0.882084	0.512469
	C137	C	0.116845	0.124811	0.496357
	C138	C	0.873313	0.125361	0.513047
	C139	C	0.874287	0.882511	0.496042
	C140	C	0.504671	0.127181	0.883216
	C141	C	0.487471	0.128247	0.127382
	C142	C	0.504500	0.884467	0.126553
	C143	C	0.487997	0.884022	0.882615
	C144	C	0.375404	0.890742	0.683510
	C145	C	0.615644	0.118657	0.682291
	C146	C	0.615944	0.891009	0.326165
	C147	C	0.376145	0.119826	0.328713
	C148	C	0.675231	0.383682	0.891461
	C149	C	0.672684	0.626916	0.118585
	C150	C	0.316181	0.628787	0.889880
	C151	C	0.316468	0.386634	0.118095
	C152	C	0.881614	0.681836	0.385218
	C153	C	0.109803	0.681820	0.623450
	C154	C	0.881347	0.327836	0.624138
	C155	C	0.107981	0.323759	0.382379
	C156	C	0.882131	0.383574	0.683141
	C157	C	0.109509	0.624782	0.682004
	C158	C	0.881136	0.623153	0.328122
	C159	C	0.107928	0.380792	0.324094
	C160	C	0.375243	0.685256	0.889580
	C161	C	0.613205	0.682622	0.119304
	C162	C	0.617398	0.326532	0.891423
	C163	C	0.375241	0.329868	0.119018
	C164	C	0.673536	0.890355	0.383302
	C165	C	0.673620	0.117929	0.625620
	C166	C	0.317453	0.890500	0.626187
	C167	C	0.316483	0.118659	0.383997
	C168	C	0.876394	0.389860	0.179922
	C169	C	0.113616	0.619230	0.182056
	C170	C	0.116347	0.390247	0.825731
	C171	C	0.876442	0.619943	0.828051
	C172	C	0.175200	0.881823	0.390274
	C173	C	0.173082	0.125784	0.618345
	C174	C	0.818746	0.122743	0.390339
	C175	C	0.817212	0.883726	0.618400
	C176	C	0.383205	0.185039	0.885066
	C177	C	0.609617	0.183103	0.124654
	C178	C	0.382262	0.829585	0.125298
	C179	C	0.609871	0.827604	0.883885
	C180	C	0.382680	0.887180	0.183076
	C181	C	0.609580	0.125916	0.182467
	C182	C	0.383099	0.127736	0.826837
	C183	C	0.609338	0.884065	0.824897
	C184	C	0.876318	0.180308	0.390224
	C185	C	0.113769	0.182096	0.618740
	C186	C	0.115823	0.825970	0.389691
	C187	C	0.876475	0.827681	0.619120
	C188	C	0.174952	0.391135	0.882131
	C189	C	0.171044	0.620243	0.124196
	C190	C	0.817351	0.391130	0.124468
	C191	C	0.818130	0.619889	0.885256
	C192	C	0.396830	0.098134	0.602398
	C193	C	0.594189	0.909927	0.602142
	C194	C	0.595966	0.099688	0.406816
	C195	C	0.398708	0.911209	0.406445
	C196	C	0.594172	0.408499	0.098563
	C197	C	0.594848	0.603688	0.910610
	C198	C	0.394491	0.606281	0.097408
	C199	C	0.398365	0.408237	0.911282
	C200	C	0.088380	0.601429	0.404900
	C201	C	0.902754	0.603967	0.604564
	C202	C	0.087769	0.405748	0.601183
	C203	C	0.901630	0.404317	0.404137
	C204	C	0.895848	0.599688	0.104658
	C205	C	0.094953	0.411108	0.100584
	C206	C	0.093478	0.599056	0.905240
	C207	C	0.897163	0.410945	0.906188
	C208	C	0.094835	0.905991	0.597788
	C209	C	0.094272	0.100538	0.411176
	C210	C	0.895089	0.103587	0.598827
	C211	C	0.896800	0.905151	0.410377
	C212	C	0.589204	0.103287	0.905719
	C213	C	0.402493	0.105797	0.105024
	C214	C	0.589606	0.906364	0.103352
	C215	C	0.403535	0.908173	0.906452
	Zn216	Zn	0.495982	0.005466	0.753822
	Zn217	Zn	0.496571	0.006663	0.255520
	Zn218	Zn	0.745684	0.505508	0.004976
	Zn219	Zn	0.245141	0.506382	0.003145
	Zn220	Zn	-0.004393	0.754399	0.504278
	Zn221	Zn	-0.005306	0.253452	0.504049
	Zn222	Zn	-0.004543	0.503933	0.754295
	Zn223	Zn	-0.005112	0.503201	0.253605
	Zn224	Zn	0.496110	0.755774	0.004359
	Zn225	Zn	0.496210	0.255951	0.005289
	Zn226	Zn	0.745345	0.003789	0.504604
	Zn227	Zn	0.246476	0.003870	0.504333
	N228	N	0.409705	0.967960	0.683748
	N229	N	0.580750	0.041699	0.681988
	N230	N	0.582186	0.968774	0.326170
	N231	N	0.411662	0.042835	0.328178
	N232	N	0.675266	0.419243	0.968234
	N233	N	0.675315	0.593137	0.041036
	N234	N	0.314158	0.594718	0.967187
	N235	N	0.315988	0.420409	0.040709
	N236	N	0.958650	0.683126	0.418415
	N237	N	0.032944	0.683160	0.589800
	N238	N	0.957525	0.327164	0.588575
	N239	N	0.031404	0.323513	0.417217
	N240	N	0.959109	0.417195	0.683970
	N241	N	0.032666	0.590991	0.683942
	N242	N	0.957874	0.588329	0.326690
	N243	N	0.031385	0.415503	0.323150
	N244	N	0.409159	0.685946	0.966569
	N245	N	0.579337	0.682713	0.042078
	N246	N	0.582167	0.326831	0.968204
	N247	N	0.410640	0.328775	0.042377
	N248	N	0.674804	0.967508	0.418402
	N249	N	0.674343	0.040512	0.590682
	N250	N	0.316540	0.967505	0.591173
	N251	N	0.315942	0.041122	0.417649
	N252	N	0.910610	0.467135	0.181145
	N253	N	0.080832	0.541342	0.182622
	N254	N	0.081357	0.467462	0.825429
	N255	N	0.910727	0.542306	0.826691
	N256	N	0.176911	0.915869	0.467778
	N257	N	0.175062	0.090866	0.541316
	N258	N	0.816449	0.089582	0.467913
	N259	N	0.815714	0.916940	0.540857
	N260	N	0.459589	0.184792	0.919282
	N261	N	0.532705	0.184703	0.091120
	N262	N	0.458960	0.827836	0.090724
	N263	N	0.533365	0.827374	0.918988
	N264	N	0.459651	0.920722	0.183824
	N265	N	0.532467	0.092737	0.184353
	N266	N	0.459677	0.092521	0.825317
	N267	N	0.532480	0.918387	0.824096
	N268	N	0.909502	0.181859	0.467435
	N269	N	0.079611	0.181645	0.541697
	N270	N	0.080925	0.826112	0.466729
	N271	N	0.911188	0.826865	0.542055
	N272	N	0.175714	0.468773	0.916259
	N273	N	0.173140	0.542981	0.089226
	N274	N	0.815572	0.469061	0.091694
	N275	N	0.816877	0.542351	0.918986
	O276	O	1.452072	0.360220	0.399565
	H277	H	1.446102	0.370012	0.390923
	H278	H	1.462940	0.357804	0.388779
	O279	O	0.414804	0.490633	0.468655
	H280	H	0.412448	0.487090	0.454491
	H281	H	0.418595	0.491409	0.478975
	O282	O	0.508353	0.471339	0.367704
	H283	H	0.524694	0.476184	0.371687
	H284	H	0.518176	0.475820	0.346832
	O285	O	0.589815	0.497490	0.446104
	H286	H	0.588256	0.496464	0.456955
	H287	H	0.599325	0.494127	0.461846
	O288	O	0.408090	0.528088	0.357970
	H289	H	0.424080	0.544752	0.356238
	H290	H	0.404785	0.514621	0.337093
	O291	O	0.033786	-0.033644	0.989524
	H292	H	0.036222	-0.029230	0.997104
	H293	H	0.045340	-0.033626	0.986176
	O294	O	0.968804	1.086209	0.018531
	H295	H	0.974428	1.084266	0.020688
	H296	H	0.964808	1.089246	0.008033
	O297	O	1.035086	1.110762	0.074811
	H298	H	1.043917	1.112678	0.077173
	H299	H	1.034496	1.094899	0.081528
	O300	O	0.383483	0.459577	0.427609
	H301	H	0.375950	0.472418	0.431205
	H302	H	0.389124	0.452871	0.428133
	O303	O	0.628424	0.629652	0.563390
	H304	H	0.621059	0.630810	0.557674
	H305	H	0.626853	0.627375	0.564103
	O306	O	0.470485	0.569225	0.547663
	H307	H	0.468626	0.579422	0.537541
	H308	H	0.458108	0.567625	0.559390
	O309	O	0.427048	0.623382	0.613740
	H310	H	0.442299	0.620556	0.610296
	H311	H	0.425328	0.619114	0.612664
	O312	O	1.008686	1.036784	0.986259
	H313	H	1.011473	1.043500	0.992425
	H314	H	1.011449	1.032828	0.983424
	O315	O	0.947667	1.055689	0.012671
	H316	H	0.939176	1.047072	0.006581
	H317	H	0.952583	1.064214	0.014458
	O318	O	0.491637	0.451273	0.556495
	H319	H	0.484209	0.444408	0.562793
	H320	H	0.473098	0.445723	0.542212
	O321	O	0.394680	0.435766	0.615359
	H322	H	0.389667	0.431456	0.620157
	H323	H	0.378110	0.429872	0.612879
	O324	O	-0.516018	1.560553	0.513966
	H325	H	-0.524490	1.546002	0.496784
	H326	H	-0.529573	1.543844	0.520006
	O327	O	-0.010308	0.979656	1.020796
	H328	H	-0.008987	0.987239	1.019816
	H329	H	0.002784	0.982589	1.012790
	O330	O	-0.022460	-0.142693	0.036555
	H331	H	-0.019065	-0.154600	0.043574
	H332	H	-0.028178	-0.133632	0.040864
	O333	O	0.502061	0.535249	0.455437
	H334	H	0.507513	0.540443	0.455395
	H335	H	0.505920	0.542098	0.467302
	O336	O	-0.686055	-0.522830	-0.410554
	H337	H	-0.695087	-0.500816	-0.399350
	H338	H	-0.694245	-0.537079	-0.418260
	O339	O	0.083190	-0.044210	-0.154616
	H340	H	0.078290	-0.052703	-0.171156
	H341	H	0.086179	-0.043753	-0.165104
	O342	O	0.351707	0.522693	0.461373
	H343	H	0.346054	0.516901	0.467242
	H344	H	0.348980	0.532888	0.445032
	O345	O	0.045817	1.011924	1.075250
	H346	H	0.051911	1.012547	1.079174
	H347	H	0.059104	1.011659	1.080067
	O348	O	0.663904	0.535772	0.575778
	H349	H	0.660450	0.552949	0.590082
	H350	H	0.675462	0.522008	0.578536
	O351	O	0.568082	0.475986	0.460733
	H352	H	0.568655	0.470630	0.464146
	H353	H	0.582205	0.480488	0.458588
	O354	O	0.033346	0.961843	-0.019053
	H355	H	0.036703	0.956003	-0.020459
	H356	H	0.026557	0.964427	-0.021469
	O357	O	0.037141	-0.003790	0.986173
	H358	H	0.032918	-0.010897	0.981469
	H359	H	0.038089	-0.002393	0.980070
	O360	O	0.997436	-0.058737	1.026272
	H361	H	0.989643	-0.057096	1.024703
	H362	H	1.008567	-0.063944	1.028855
	O363	O	0.636937	0.528976	0.576438
	H364	H	0.629793	0.536118	0.590354
	H365	H	0.632439	0.524852	0.579217
	O366	O	0.576276	0.547514	0.490232
	H367	H	0.589344	0.546576	0.507346
	H368	H	0.580717	0.540204	0.492253
	O369	O	0.994753	-0.034048	0.078333
	H370	H	1.000036	-0.036552	0.068626
	H371	H	0.984439	-0.042899	0.085794
	O372	O	0.595374	0.423599	0.474040
	H373	H	0.597113	0.411217	0.476621
	H374	H	0.606170	0.416321	0.466893
	O375	O	1.067494	0.043626	0.977030
	H376	H	1.059760	0.044692	0.970816
	H377	H	1.086651	0.054174	0.977577
	O378	O	-0.054570	1.021977	0.155576
	H379	H	-0.056726	1.010455	0.157790
	H380	H	-0.050796	1.024351	0.160844
	O381	O	0.945715	-0.057075	0.952937
	H382	H	0.947337	-0.065432	0.957145
	H383	H	0.953374	-0.055436	0.969123
	O384	O	1.033497	0.958885	-0.104282
	H385	H	1.047354	0.962156	-0.113762
	H386	H	1.036063	0.944946	-0.090403
	O387	O	1.014143	-0.024686	0.903683
	H388	H	1.003964	-0.025485	0.897625
	H389	H	1.014185	-0.023893	0.892338
	O390	O	1.244082	1.222418	-0.155649
	H391	H	1.237699	1.224301	-0.165415
	H392	H	1.241114	1.210890	-0.158220
	O393	O	0.556926	0.433920	0.556928
	H394	H	0.561440	0.452242	0.560281
	H395	H	0.549447	0.424564	0.552573
