data_Molecule from HDF5

_cell_length_a		16.585784
_cell_length_b		16.626049
_cell_length_c		16.758349
_cell_angle_alpha	89.948262
_cell_angle_beta	89.895678
_cell_angle_gamma	90.041554
_symmetry_space_group_name_H-M	'P 1'
_symmetry_Int_Tables_number		1

loop_
	_symmetry_equiv_pos_as_xyz
	x,y,z

loop_
	_atom_site_label
	_atom_site_type_symbol
	_atom_site_fract_x
	_atom_site_fract_y
	_atom_site_fract_z
	H0	H	0.392609	0.869731	0.705670
	H1	H	0.612838	0.174705	0.706583
	H2	H	0.611981	0.870603	0.255429
	H3	H	0.391030	0.174333	0.254868
	H4	H	0.730792	0.412192	0.832194
	H5	H	0.724514	0.628570	0.136131
	H6	H	0.278307	0.632581	0.830432
	H7	H	0.276078	0.412948	0.133259
	H8	H	0.847333	0.742294	0.377844
	H9	H	0.155657	0.747274	0.590798
	H10	H	0.847959	0.300076	0.588284
	H11	H	0.157638	0.300431	0.374473
	H12	H	0.848866	0.413916	0.705408
	H13	H	0.154663	0.633347	0.707522
	H14	H	0.847033	0.627568	0.261289
	H15	H	0.157719	0.416301	0.259421
	H16	H	0.397227	0.745878	0.828592
	H17	H	0.610726	0.747482	0.133975
	H18	H	0.617956	0.292548	0.833728
	H19	H	0.389154	0.294275	0.131243
	H20	H	0.727852	0.871390	0.371045
	H21	H	0.723552	0.177805	0.586114
	H22	H	0.279229	0.868655	0.588544
	H23	H	0.278278	0.176051	0.373223
	H24	H	0.894986	0.367892	0.204835
	H25	H	0.107583	0.677492	0.203303
	H26	H	0.111234	0.369492	0.758588
	H27	H	0.896072	0.677131	0.760160
	H28	H	0.228486	0.912662	0.330197
	H29	H	0.223817	0.127737	0.635072
	H30	H	0.779087	0.130698	0.328166
	H31	H	0.777961	0.915481	0.634581
	H32	H	0.350518	0.250268	0.869980
	H33	H	0.654759	0.247897	0.091061
	H34	H	0.347156	0.802438	0.084665
	H35	H	0.659699	0.804290	0.877232
	H36	H	0.348356	0.915071	0.203488
	H37	H	0.654567	0.132795	0.206381
	H38	H	0.350453	0.134972	0.754550
	H39	H	0.657459	0.915731	0.758000
	H40	H	0.895153	0.245878	0.328018
	H41	H	0.108983	0.244923	0.634748
	H42	H	0.110029	0.798086	0.329341
	H43	H	0.895155	0.799920	0.635483
	H44	H	0.228132	0.370918	0.872956
	H45	H	0.221045	0.678800	0.084865
	H46	H	0.781041	0.367404	0.087963
	H47	H	0.784079	0.679167	0.879931
	H48	H	0.417716	0.130186	0.564266
	H49	H	0.587999	0.911743	0.570356
	H50	H	0.589779	0.136335	0.386570
	H51	H	0.418050	0.910941	0.389821
	H52	H	0.586584	0.430985	0.092634
	H53	H	0.590504	0.615413	0.871643
	H54	H	0.419304	0.609336	0.089116
	H55	H	0.421867	0.439145	0.875068
	H56	H	0.114768	0.614271	0.395251
	H57	H	0.893651	0.605780	0.567497
	H58	H	0.113615	0.433883	0.567867
	H59	H	0.892577	0.435216	0.394953
	H60	H	0.112991	0.437523	0.569495
	H61	H	0.890340	0.608395	0.573654
	H62	H	0.112728	0.606944	0.394185
	H63	H	0.890344	0.435288	0.391056
	H64	H	0.414652	0.619890	0.095586
	H65	H	0.596053	0.613958	0.869838
	H66	H	0.593184	0.440181	0.091142
	H67	H	0.416372	0.434645	0.872305
	H68	H	0.581449	0.130483	0.395133
	H69	H	0.588374	0.912498	0.567131
	H70	H	0.410748	0.135181	0.568891
	H71	H	0.418596	0.914877	0.395855
	H72	H	0.912086	0.636706	0.076184
	H73	H	0.086083	0.412834	0.069156
	H74	H	0.090753	0.634613	0.893401
	H75	H	0.917340	0.411737	0.893911
	H76	H	0.089992	0.932757	0.592583
	H77	H	0.092733	0.117559	0.367971
	H78	H	0.911142	0.114577	0.593462
	H79	H	0.916524	0.936267	0.373325
	H80	H	0.617755	0.108234	0.881807
	H81	H	0.388654	0.115215	0.067020
	H82	H	0.612143	0.940369	0.067826
	H83	H	0.391729	0.933179	0.895273
	H84	H	0.616418	0.935616	0.074992
	H85	H	0.396018	0.104412	0.059870
	H86	H	0.612235	0.117943	0.905222
	H87	H	0.392019	0.937781	0.891414
	H88	H	0.912024	0.105462	0.590435
	H89	H	0.095703	0.104627	0.370930
	H90	H	0.092002	0.936778	0.591085
	H91	H	0.917077	0.930864	0.370856
	H92	H	0.087179	0.633064	0.893288
	H93	H	0.093050	0.411191	0.068133
	H94	H	0.916959	0.633560	0.072976
	H95	H	0.916279	0.412284	0.895263
	H96	H	0.419191	0.133814	0.573026
	H97	H	0.591461	0.911336	0.568822
	H98	H	0.594318	0.133765	0.398594
	H99	H	0.412382	0.910672	0.394415
	H100	H	0.582093	0.440190	0.087606
	H101	H	0.592770	0.609648	0.871956
	H102	H	0.407043	0.609198	0.093604
	H103	H	0.414853	0.442129	0.873700
	H104	H	0.116145	0.610600	0.388742
	H105	H	0.891260	0.612547	0.567991
	H106	H	0.114506	0.434503	0.571486
	H107	H	0.890256	0.432048	0.394022
	H108	H	0.911007	0.633977	0.070132
	H109	H	0.090053	0.410391	0.074445
	H110	H	0.089756	0.632305	0.896717
	H111	H	0.915546	0.411202	0.894363
	H112	H	0.087564	0.936086	0.590101
	H113	H	0.083547	0.110074	0.373612
	H114	H	0.919253	0.111423	0.589584
	H115	H	0.911362	0.933449	0.371213
	H116	H	0.604499	0.094268	0.899121
	H117	H	0.391356	0.102378	0.074137
	H118	H	0.614912	0.931285	0.066856
	H119	H	0.389279	0.933064	0.889842
	C120	C	0.381723	0.031501	0.602415
	C121	C	0.623243	1.013801	0.602092
	C122	C	0.623106	0.032006	0.359651
	C123	C	0.381617	1.013778	0.360037
	C124	C	0.623430	0.401750	-0.009142
	C125	C	0.625322	0.645230	0.973006
	C126	C	0.381424	0.645348	-0.009162
	C127	C	0.381463	0.402394	0.973253
	C128	C	0.011582	0.642963	0.361331
	C129	C	0.993626	0.643298	0.603300
	C130	C	0.011630	0.401757	0.602814
	C131	C	0.994111	0.401518	0.360714
	C132	C	0.880946	0.531659	0.104588
	C133	C	0.122378	0.514344	0.102826
	C134	C	0.124064	0.532173	0.860022
	C135	C	0.882735	0.514169	0.861881
	C136	C	0.124041	0.900742	0.490408
	C137	C	0.123649	0.143474	0.472410
	C138	C	0.880852	0.144231	0.489909
	C139	C	0.880760	0.900960	0.473268
	C140	C	0.511211	0.143615	0.860013
	C141	C	0.493177	0.143074	0.102234
	C142	C	0.511778	0.902401	0.102283
	C143	C	0.493907	0.901768	0.859488
	C144	C	0.376608	0.915750	0.664229
	C145	C	0.628459	0.129382	0.664124
	C146	C	0.628979	0.916766	0.296841
	C147	C	0.375034	0.128762	0.296804
	C148	C	0.688985	0.395265	0.877599
	C149	C	0.684810	0.647271	0.089513
	C150	C	0.319863	0.649289	0.875807
	C151	C	0.317152	0.395928	0.087082
	C152	C	0.893986	0.702797	0.359312
	C153	C	0.109291	0.706222	0.607980
	C154	C	0.894825	0.340388	0.606244
	C155	C	0.111107	0.341274	0.357565
	C156	C	0.895276	0.397036	0.664426
	C157	C	0.108823	0.649531	0.666068
	C158	C	0.894040	0.645480	0.301772
	C159	C	0.110884	0.398666	0.299938
	C160	C	0.378824	0.705756	0.874843
	C161	C	0.628310	0.706431	0.088356
	C162	C	0.632715	0.335970	0.878476
	C163	C	0.373623	0.336955	0.086051
	C164	C	0.686471	0.917099	0.354273
	C165	C	0.683899	0.130673	0.604569
	C166	C	0.319711	0.915421	0.606167
	C167	C	0.319021	0.129556	0.355718
	C168	C	0.877739	0.414511	0.164505
	C169	C	0.125609	0.631004	0.163114
	C170	C	0.128981	0.416248	0.798773
	C171	C	0.878829	0.630733	0.800932
	C172	C	0.186708	0.895887	0.375838
	C173	C	0.184038	0.145977	0.588620
	C174	C	0.819701	0.148148	0.374496
	C175	C	0.818745	0.897692	0.588493
	C176	C	0.396680	0.208523	0.853340
	C177	C	0.608536	0.206501	0.107610
	C178	C	0.394310	0.841927	0.104031
	C179	C	0.611915	0.842635	0.857789
	C180	C	0.394907	0.897911	0.162946
	C181	C	0.608284	0.149365	0.165308
	C182	C	0.396495	0.151075	0.795869
	C183	C	0.610842	0.898269	0.798470
	C184	C	0.877519	0.205778	0.374493
	C185	C	0.126926	0.204295	0.588340
	C186	C	0.128053	0.838768	0.375414
	C187	C	0.876838	0.840008	0.588947
	C188	C	0.186960	0.416853	0.855756
	C189	C	0.181773	0.631712	0.104200
	C190	C	0.821069	0.414303	0.106228
	C191	C	0.822809	0.631616	0.860203
	C192	C	0.408457	0.112128	0.576179
	C193	C	0.596867	0.932839	0.576250
	C194	C	0.596151	0.112595	0.386019
	C195	C	0.408592	0.933378	0.386052
	C196	C	0.595168	0.429451	0.069850
	C197	C	0.600327	0.620077	0.892087
	C198	C	0.406679	0.620071	0.071678
	C199	C	0.409806	0.430775	0.894249
	C200	C	0.093370	0.617817	0.385720
	C201	C	0.912870	0.616370	0.577156
	C202	C	0.092711	0.427893	0.576963
	C203	C	0.912276	0.426828	0.386179
	C204	C	0.906283	0.613384	0.079923
	C205	C	0.096951	0.432780	0.077702
	C206	C	0.096765	0.612552	0.886779
	C207	C	0.908813	0.432957	0.887287
	C208	C	0.097315	0.927511	0.570401
	C209	C	0.097985	0.117873	0.391829
	C210	C	0.906696	0.117831	0.570293
	C211	C	0.907135	0.926399	0.392870
	C212	C	0.590658	0.114985	0.887651
	C213	C	0.413025	0.115359	0.074738
	C214	C	0.593273	0.928638	0.077191
	C215	C	0.412225	0.927415	0.884833
	Zn216	Zn	0.502563	0.022657	0.731210
	Zn217	Zn	0.502181	0.022772	0.231109
	Zn218	Zn	0.753476	0.522749	-0.017281
	Zn219	Zn	0.251860	0.523882	-0.017896
	Zn220	Zn	0.002365	0.771463	0.482350
	Zn221	Zn	0.002761	0.273232	0.481533
	Zn222	Zn	0.002666	0.522392	0.731889
	Zn223	Zn	0.002496	0.522534	0.232311
	Zn224	Zn	0.503533	0.773957	-0.018553
	Zn225	Zn	0.502362	0.272224	-0.018396
	Zn226	Zn	0.751647	0.022760	0.480814
	Zn227	Zn	0.253183	0.022615	0.481085
	N228	N	0.414302	0.989082	0.662355
	N229	N	0.591374	0.055632	0.662698
	N230	N	0.590184	0.989480	0.299972
	N231	N	0.413332	0.055645	0.299203
	N232	N	0.683367	0.435687	0.948492
	N233	N	0.683151	0.609783	0.016667
	N234	N	0.321337	0.612230	0.948945
	N235	N	0.321724	0.436248	0.015768
	N236	N	0.968098	0.701444	0.395886
	N237	N	0.036529	0.702463	0.569503
	N238	N	0.968089	0.343119	0.568338
	N239	N	0.037154	0.342825	0.394577
	N240	N	0.968980	0.434635	0.662611
	N241	N	0.035927	0.610822	0.663239
	N242	N	0.968316	0.609230	0.302485
	N243	N	0.036736	0.435156	0.301437
	N244	N	0.416572	0.703454	0.947347
	N245	N	0.591953	0.705267	0.014943
	N246	N	0.592249	0.340185	0.949734
	N247	N	0.413123	0.340916	0.014166
	N248	N	0.682972	0.989771	0.392768
	N249	N	0.680825	0.057717	0.566499
	N250	N	0.322661	0.988421	0.568175
	N251	N	0.322658	0.056841	0.394249
	N252	N	0.914212	0.488605	0.163803
	N253	N	0.089495	0.556832	0.162422
	N254	N	0.090648	0.489136	0.801043
	N255	N	0.915109	0.556314	0.801344
	N256	N	0.184312	0.933803	0.448394
	N257	N	0.182321	0.108918	0.515522
	N258	N	0.821690	0.110289	0.447291
	N259	N	0.820691	0.934776	0.515293
	N260	N	0.469050	0.204276	0.892615
	N261	N	0.535655	0.202897	0.069162
	N262	N	0.468067	0.844386	0.066831
	N263	N	0.537907	0.844258	0.894778
	N264	N	0.469080	0.934479	0.162326
	N265	N	0.535281	0.110714	0.162267
	N266	N	0.468892	0.111246	0.799632
	N267	N	0.536251	0.933931	0.799047
	N268	N	0.914878	0.203646	0.447550
	N269	N	0.090248	0.203299	0.515007
	N270	N	0.089696	0.841580	0.447882
	N271	N	0.914640	0.841787	0.516324
	N272	N	0.184223	0.490149	0.893138
	N273	N	0.180347	0.557911	0.067539
	N274	N	0.822607	0.488276	0.069736
	N275	N	0.824633	0.557913	0.896864
	O276	O	-0.187720	1.197363	0.142059
	H277	H	-0.191779	1.177896	0.130042
	H278	H	-0.171506	1.178822	0.127732
	O279	O	0.892801	0.925180	0.881970
	H280	H	0.906853	0.925983	0.882328
	H281	H	0.906088	0.941720	0.891798
	O282	O	0.978714	-0.199071	1.194447
	H283	H	0.967647	-0.207515	1.205680
	H284	H	0.956850	-0.209861	1.208158
	O285	O	0.359006	0.324581	0.325335
	H286	H	0.337825	0.313184	0.298388
	H287	H	0.377936	0.325450	0.333290
	O288	O	0.517595	0.392493	0.475456
	H289	H	0.511003	0.375543	0.480883
	H290	H	0.517705	0.401009	0.471710
	O291	O	0.602463	0.692952	0.465376
	H292	H	0.621840	0.684314	0.451571
	H293	H	0.603159	0.700486	0.456028
	O294	O	0.790800	0.012002	1.181598
	H295	H	0.788786	0.001916	1.196201
	H296	H	0.784238	0.004073	1.183125
	O297	O	0.273857	0.552752	0.608541
	H298	H	0.272964	0.566604	0.585005
	H299	H	0.252363	0.545248	0.633819
	O300	O	0.096178	-0.121503	0.968183
	H301	H	0.099330	-0.134522	0.967096
	H302	H	0.098040	-0.116003	0.953214
	O303	O	0.281021	0.304929	0.698367
	H304	H	0.299154	0.299668	0.657877
	H305	H	0.291651	0.348313	0.694788
	O306	O	0.631353	0.461172	0.531208
	H307	H	0.630862	0.469838	0.551807
	H308	H	0.620695	0.465709	0.530475
	O309	O	0.439038	0.741009	0.269567
	H310	H	0.434082	0.749411	0.249519
	H311	H	0.445433	0.749396	0.279584
	O312	O	0.482785	0.415927	0.484491
	H313	H	0.490055	0.428632	0.476371
	H314	H	0.483142	0.423905	0.481136
	O315	O	0.684723	0.340852	1.295693
	H316	H	0.688309	0.347721	1.326549
	H317	H	0.706293	0.337802	1.278643
	O318	O	0.560962	0.457558	0.512689
	H319	H	0.552257	0.458487	0.491976
	H320	H	0.553178	0.459823	0.525898
	O321	O	-0.660183	0.453011	0.444605
	H322	H	-0.658568	0.455834	0.427043
	H323	H	-0.655464	0.449516	0.427016
	O324	O	1.213462	0.812478	-0.158815
	H325	H	1.188946	0.803099	-0.157364
	H326	H	1.235967	0.786889	-0.182395
	O327	O	0.032013	0.243069	1.205608
	H328	H	0.033707	0.244040	1.207208
	H329	H	0.022390	0.256538	1.224856
	O330	O	0.722195	0.492437	0.260059
	H331	H	0.740567	0.498226	0.238734
	H332	H	0.726398	0.480581	0.268181
	O333	O	0.401757	0.311474	0.528720
	H334	H	0.373972	0.305859	0.523503
	H335	H	0.411594	0.320743	0.510012
	O336	O	0.365297	0.422941	0.687577
	H337	H	0.344224	0.451852	0.705654
	H338	H	0.386090	0.434520	0.674176
	O339	O	0.918931	-0.097361	0.948362
	H340	H	0.920941	-0.092198	0.940581
	H341	H	0.941726	-0.105030	0.953151
	O342	O	0.471439	-0.315868	0.407654
	H343	H	0.470289	-0.316546	0.409036
	H344	H	0.469226	-0.322866	0.412284
	O345	O	-0.058859	0.990572	1.005820
	H346	H	-0.040707	0.993706	1.002771
	H347	H	-0.052326	0.991413	0.998257
	O348	O	0.208686	0.077919	0.182291
	H349	H	0.209853	0.075676	0.179538
	H350	H	0.206773	0.084995	0.173003
	O351	O	0.020823	-0.189310	0.782128
	H352	H	0.022710	-0.194604	0.774188
	H353	H	0.023576	-0.175208	0.775118
	O354	O	0.175728	-0.146928	1.177560
	H355	H	0.174720	-0.129042	1.156755
	H356	H	0.160539	-0.131994	1.166640
	O357	O	0.729449	0.547436	0.708377
	H358	H	0.710526	0.551953	0.697909
	H359	H	0.761775	0.550518	0.741754
	O360	O	0.593528	0.560605	0.434704
	H361	H	0.583874	0.557588	0.441435
	H362	H	0.591356	0.559931	0.444006
	O363	O	0.177435	-0.074973	-0.220836
	H364	H	0.187164	-0.095916	-0.221437
	H365	H	0.191254	-0.079707	-0.238878
	O366	O	0.470167	0.583743	0.520886
	H367	H	0.463623	0.571401	0.509991
	H368	H	0.458176	0.589599	0.517562
	O369	O	0.903927	0.233451	0.080984
	H370	H	0.908294	0.229338	0.057808
	H371	H	0.904932	0.238910	0.074441
	O372	O	1.028050	1.098778	0.058292
	H373	H	1.021543	1.097840	0.064783
	H374	H	1.007448	1.101829	0.071277
	O375	O	0.798839	-0.184864	0.194444
	H376	H	0.770997	-0.210035	0.206862
	H377	H	0.803764	-0.170395	0.169332
	O378	O	0.704952	0.751267	0.494423
	H379	H	0.688870	0.735084	0.531431
	H380	H	0.739580	0.784159	0.500221
	O381	O	-0.210965	1.235681	0.955683
	H382	H	-0.219733	1.254295	0.959365
	H383	H	-0.220507	1.228561	0.949217
	O384	O	1.225296	0.040319	0.843010
	H385	H	1.224030	0.053107	0.822858
	H386	H	1.233257	0.045354	0.830397
	O387	O	1.195869	1.048931	0.057628
	H388	H	1.187029	1.045664	0.038072
	H389	H	1.182808	1.049240	0.042113
	O390	O	0.285070	0.551022	0.259861
	H391	H	0.280644	0.555702	0.257344
	H392	H	0.270781	0.550181	0.259952
	O393	O	0.722788	0.338868	0.475619
	H394	H	0.721589	0.344882	0.476401
	H395	H	0.736687	0.333663	0.477002
	O396	O	0.663474	0.569957	0.461606
	H397	H	0.661197	0.580586	0.459947
	H398	H	0.667438	0.548501	0.456319
	O399	O	0.055346	0.089633	0.755149
	H400	H	0.068697	0.104557	0.755070
	H401	H	0.061634	0.107953	0.751342
	O402	O	0.274972	0.746399	0.254521
	H403	H	0.297680	0.731109	0.240373
	H404	H	0.245852	0.771802	0.226792
	O405	O	0.797796	-0.770349	1.770210
	H406	H	0.771291	-0.759462	1.748214
	H407	H	0.792757	-0.771397	1.784512
	O408	O	-0.101805	-0.081775	-0.229764
	H409	H	-0.101544	-0.056913	-0.230151
	H410	H	-0.089434	-0.081951	-0.230261
	O411	O	0.553045	0.496847	0.726567
	H412	H	0.544447	0.471779	0.727399
	H413	H	0.562551	0.505818	0.723775
	O414	O	0.973790	-0.131170	0.874626
	H415	H	0.983298	-0.135147	0.859874
	H416	H	0.977112	-0.125570	0.886908
	O417	O	0.279791	0.532517	0.463162
	H418	H	0.281004	0.538950	0.467127
	H419	H	0.294807	0.526597	0.460625
	O420	O	0.528100	0.748268	0.706086
	H421	H	0.509308	0.751021	0.683011
	H422	H	0.528353	0.783237	0.727134
	O423	O	-0.308553	-0.284496	1.284901
	H424	H	-0.314526	-0.293311	1.292419
	H425	H	-0.322439	-0.301675	1.309490
	O426	O	0.385817	0.433021	0.485056
	H427	H	0.395580	0.421435	0.473093
	H428	H	0.387292	0.434895	0.480638
	O429	O	0.788703	1.040984	0.772392
	H430	H	0.774011	1.041187	0.753892
	H431	H	0.789996	1.057780	0.778848
	O432	O	0.690221	0.330218	0.676461
	H433	H	0.660520	0.344848	0.667129
	H434	H	0.677812	0.348030	0.653494
	O435	O	0.215393	1.237221	-0.000493
	H436	H	0.213785	1.230351	0.009000
	H437	H	0.224054	1.247147	0.005421
	O438	O	-0.205780	-0.179778	0.027574
	H439	H	-0.208977	-0.192098	0.019544
	H440	H	-0.207437	-0.174663	0.019687
	O441	O	-0.067432	0.109855	-0.071446
	H442	H	-0.058477	0.105489	-0.085966
	H443	H	-0.068396	0.111742	-0.065536
	O444	O	0.419947	0.574976	0.718201
	H445	H	0.425410	0.582096	0.734803
	H446	H	0.439081	0.562143	0.710410
	O447	O	0.000631	0.823664	1.076508
	H448	H	-0.004103	0.826494	1.095227
	H449	H	0.000524	0.826809	1.077171
	O450	O	0.014022	1.239745	0.959602
	H451	H	0.020243	1.242874	0.943414
	H452	H	0.029756	1.238258	0.952695
	O453	O	0.557540	0.622368	0.255947
	H454	H	0.556941	0.624597	0.250420
	H455	H	0.545844	0.613882	0.255485
	O456	O	-0.190310	0.087583	1.008655
	H457	H	-0.197945	0.068934	1.019821
	H458	H	-0.190943	0.087561	0.992741
	O459	O	0.515057	0.331820	0.714048
	H460	H	0.494990	0.344803	0.704968
	H461	H	0.494828	0.314721	0.729418
	O462	O	0.946495	0.071582	1.212133
	H463	H	0.946332	0.050637	1.213704
	H464	H	0.945381	0.076009	1.206364
	O465	O	1.282166	-0.260713	0.461691
	H466	H	1.284278	-0.263479	0.423248
	H467	H	1.259283	-0.242620	0.451205
	O468	O	0.426300	0.681475	0.582836
	H469	H	0.412752	0.671556	0.578342
	H470	H	0.449339	0.676201	0.558248
	O471	O	0.561625	0.454689	0.379528
	H472	H	0.588249	0.452422	0.364151
	H473	H	0.562573	0.479697	0.372559
	O474	O	0.126883	1.010523	-0.070395
	H475	H	0.130569	1.031378	-0.073928
	H476	H	0.132081	1.016602	-0.078083
	O477	O	0.444476	0.477176	1.249226
	H478	H	0.434122	0.468034	1.240762
	H479	H	0.446422	0.471988	1.248004
	O480	O	0.505520	0.327273	0.294845
	H481	H	0.524553	0.329050	0.294968
	H482	H	0.526059	0.310844	0.275150
	O483	O	0.235812	0.252798	0.222855
	H484	H	0.232905	0.239097	0.214840
	H485	H	0.225762	0.241108	0.199279
	O486	O	1.289471	-0.263346	0.697310
	H487	H	1.301589	-0.276866	0.679718
	H488	H	1.308130	-0.266808	0.681037
	O489	O	1.025693	0.955255	0.183899
	H490	H	1.031809	0.967424	0.183561
	H491	H	1.023605	0.942407	0.180372
	O492	O	0.186965	0.206143	-0.202160
	H493	H	0.217188	0.239896	-0.234938
	H494	H	0.169455	0.211952	-0.181342
	O495	O	-0.024440	1.243283	0.761792
	H496	H	-0.052086	1.239498	0.766491
	H497	H	-0.040364	1.265484	0.739896
	O498	O	1.119689	0.967601	0.965810
	H499	H	1.127497	0.957751	0.946298
	H500	H	1.122465	0.981872	0.962985
	O501	O	0.705036	0.714556	0.682736
	H502	H	0.722238	0.699736	0.703418
	H503	H	0.667032	0.726763	0.697154
