data_Molecule from HDF5

_cell_length_a		16.382017
_cell_length_b		16.294789
_cell_length_c		16.266480
_cell_angle_alpha	90.257037
_cell_angle_beta	90.187809
_cell_angle_gamma	89.642827
_symmetry_space_group_name_H-M	'P 1'
_symmetry_Int_Tables_number		1

loop_
	_symmetry_equiv_pos_as_xyz
	x,y,z

loop_
	_atom_site_label
	_atom_site_type_symbol
	_atom_site_fract_x
	_atom_site_fract_y
	_atom_site_fract_z
	H0	H	0.409196	0.833504	0.713166
	H1	H	0.605523	0.158453	0.719858
	H2	H	0.609309	0.834251	0.283550
	H3	H	0.400399	0.156849	0.280459
	H4	H	0.723384	0.392205	0.837762
	H5	H	0.724260	0.599818	0.161218
	H6	H	0.285953	0.600089	0.838894
	H7	H	0.288050	0.395124	0.162058
	H8	H	0.843979	0.718231	0.398582
	H9	H	0.166492	0.716141	0.604487
	H10	H	0.845954	0.280478	0.603184
	H11	H	0.165367	0.278806	0.394980
	H12	H	0.844389	0.398894	0.716441
	H13	H	0.166066	0.601103	0.719826
	H14	H	0.844114	0.603867	0.280463
	H15	H	0.164996	0.394452	0.281026
	H16	H	0.404656	0.711794	0.836563
	H17	H	0.608167	0.715748	0.161840
	H18	H	0.605343	0.279157	0.837297
	H19	H	0.403619	0.279328	0.161883
	H20	H	0.726278	0.836106	0.399389
	H21	H	0.723024	0.160115	0.606531
	H22	H	0.286919	0.836586	0.604970
	H23	H	0.283898	0.156879	0.395686
	H24	H	0.904239	0.336831	0.218289
	H25	H	0.103774	0.659915	0.216962
	H26	H	0.106807	0.336388	0.782748
	H27	H	0.904416	0.660896	0.786553
	H28	H	0.223293	0.893747	0.338811
	H29	H	0.224024	0.099932	0.662457
	H30	H	0.787025	0.101121	0.339133
	H31	H	0.791877	0.899511	0.662831
	H32	H	0.344220	0.215465	0.897511
	H33	H	0.666095	0.214835	0.104346
	H34	H	0.343190	0.783644	0.097032
	H35	H	0.666522	0.777624	0.899014
	H36	H	0.345457	0.895088	0.216651
	H37	H	0.666102	0.098933	0.220381
	H38	H	0.344026	0.098093	0.782192
	H39	H	0.668235	0.894883	0.784690
	H40	H	0.904966	0.213767	0.337453
	H41	H	0.107519	0.216090	0.663137
	H42	H	0.106633	0.778681	0.338976
	H43	H	0.905685	0.783778	0.662565
	H44	H	0.224459	0.336504	0.896803
	H45	H	0.222591	0.658781	0.104006
	H46	H	0.787609	0.335904	0.104455
	H47	H	0.785401	0.658457	0.898019
	H48	H	0.412292	0.114747	0.596602
	H49	H	0.596364	0.883231	0.593277
	H50	H	0.592313	0.108202	0.420407
	H51	H	0.422027	0.885354	0.415027
	H52	H	0.598350	0.404735	0.115858
	H53	H	0.589438	0.591199	0.884259
	H54	H	0.409394	0.590478	0.117988
	H55	H	0.415291	0.400034	0.883624
	H56	H	0.118991	0.587985	0.408637
	H57	H	0.893080	0.585296	0.591335
	H58	H	0.121770	0.402859	0.589219
	H59	H	0.888978	0.404922	0.408107
	H60	H	0.118442	0.411812	0.587892
	H61	H	0.887283	0.594741	0.598312
	H62	H	0.119141	0.589313	0.410852
	H63	H	0.891050	0.408612	0.411963
	H64	H	0.414383	0.587373	0.114573
	H65	H	0.602289	0.588702	0.881277
	H66	H	0.597964	0.408434	0.114868
	H67	H	0.408447	0.409746	0.884336
	H68	H	0.604612	0.114616	0.409813
	H69	H	0.602372	0.882679	0.585350
	H70	H	0.421230	0.109183	0.590495
	H71	H	0.408145	0.880560	0.413160
	H72	H	0.910921	0.614438	0.092258
	H73	H	0.097633	0.384131	0.085048
	H74	H	0.104468	0.617068	0.907362
	H75	H	0.910057	0.381556	0.912370
	H76	H	0.090520	0.914783	0.611896
	H77	H	0.093305	0.081177	0.388366
	H78	H	0.917257	0.092926	0.615906
	H79	H	0.911603	0.909054	0.383672
	H80	H	0.618964	0.080503	0.906101
	H81	H	0.395225	0.081801	0.084313
	H82	H	0.622953	0.902834	0.094975
	H83	H	0.389192	0.903480	0.904530
	H84	H	0.621523	0.901531	0.087090
	H85	H	0.389523	0.084786	0.098201
	H86	H	0.621897	0.091699	0.908198
	H87	H	0.390585	0.903918	0.906174
	H88	H	0.913199	0.092120	0.617432
	H89	H	0.091658	0.093805	0.384941
	H90	H	0.094796	0.898831	0.618132
	H91	H	0.917154	0.911218	0.386448
	H92	H	0.090423	0.614020	0.905079
	H93	H	0.101699	0.379930	0.092096
	H94	H	0.917003	0.611458	0.089544
	H95	H	0.914511	0.379762	0.902229
	H96	H	0.410445	0.111742	0.585488
	H97	H	0.605573	0.879214	0.594395
	H98	H	0.588409	0.112748	0.403816
	H99	H	0.417984	0.879963	0.402361
	H100	H	0.595150	0.406057	0.114558
	H101	H	0.594991	0.579329	0.887329
	H102	H	0.415743	0.593607	0.116514
	H103	H	0.420347	0.410065	0.888223
	H104	H	0.118685	0.587003	0.410343
	H105	H	0.890886	0.596713	0.586402
	H106	H	0.121272	0.409176	0.596446
	H107	H	0.889948	0.410126	0.406789
	H108	H	0.912140	0.611445	0.085338
	H109	H	0.092901	0.382815	0.092447
	H110	H	0.096146	0.611579	0.918494
	H111	H	0.920878	0.384229	0.910663
	H112	H	0.106973	0.911720	0.618594
	H113	H	0.103054	0.088113	0.382820
	H114	H	0.915783	0.089259	0.615930
	H115	H	0.916764	0.905007	0.383649
	H116	H	0.616930	0.084982	0.916480
	H117	H	0.389349	0.095679	0.087427
	H118	H	0.619631	0.908819	0.089892
	H119	H	0.389830	0.904958	0.904214
	C120	C	0.385523	0.004810	0.620771
	C121	C	0.629837	0.988573	0.623156
	C122	C	0.627026	0.005351	0.380307
	C123	C	0.383854	0.987840	0.378506
	C124	C	0.627479	0.374805	0.008263
	C125	C	0.625778	0.617191	0.991534
	C126	C	0.383443	0.619330	0.008748
	C127	C	0.384481	0.376123	0.992416
	C128	C	0.012864	0.619932	0.379107
	C129	C	0.996871	0.621634	0.622949
	C130	C	0.014006	0.377904	0.621237
	C131	C	0.996299	0.376739	0.377932
	C132	C	0.883410	0.505961	0.120895
	C133	C	0.126940	0.488955	0.121565
	C134	C	0.127491	0.507173	0.878967
	C135	C	0.883994	0.488963	0.878730
	C136	C	0.127652	0.876352	0.509437
	C137	C	0.127424	0.119105	0.491936
	C138	C	0.884282	0.121126	0.509157
	C139	C	0.885572	0.878643	0.491617
	C140	C	0.513321	0.116923	0.878889
	C141	C	0.497131	0.118101	0.122167
	C142	C	0.514611	0.875264	0.120087
	C143	C	0.496647	0.873343	0.876044
	C144	C	0.387907	0.882429	0.676130
	C145	C	0.626930	0.110278	0.681562
	C146	C	0.628476	0.883374	0.322075
	C147	C	0.382004	0.108461	0.319583
	C148	C	0.684657	0.373434	0.886471
	C149	C	0.684372	0.618454	0.113174
	C150	C	0.325671	0.618875	0.886836
	C151	C	0.327261	0.376389	0.113732
	C152	C	0.892037	0.678830	0.379062
	C153	C	0.117990	0.678143	0.623503
	C154	C	0.893597	0.320322	0.621350
	C155	C	0.117100	0.317952	0.376788
	C156	C	0.892786	0.379024	0.678081
	C157	C	0.117657	0.620746	0.681187
	C158	C	0.892238	0.621900	0.320259
	C159	C	0.117047	0.376057	0.320238
	C160	C	0.384496	0.674600	0.885841
	C161	C	0.626695	0.676275	0.113349
	C162	C	0.625864	0.317298	0.886178
	C163	C	0.384582	0.318484	0.113665
	C164	C	0.686700	0.884239	0.379800
	C165	C	0.684915	0.110948	0.624640
	C166	C	0.327419	0.883986	0.621960
	C167	C	0.323965	0.108794	0.377000
	C168	C	0.884163	0.384944	0.179788
	C169	C	0.124887	0.611173	0.178744
	C170	C	0.127023	0.385060	0.821078
	C171	C	0.884407	0.611564	0.823446
	C172	C	0.184668	0.874904	0.387340
	C173	C	0.185216	0.119492	0.613925
	C174	C	0.826204	0.120349	0.387395
	C175	C	0.829862	0.879923	0.614243
	C176	C	0.392402	0.175815	0.878383
	C177	C	0.617883	0.176202	0.123548
	C178	C	0.392226	0.820671	0.118018
	C179	C	0.618458	0.816186	0.878476
	C180	C	0.393131	0.876391	0.177162
	C181	C	0.617836	0.118424	0.181348
	C182	C	0.392243	0.117507	0.820731
	C183	C	0.619385	0.874715	0.821813
	C184	C	0.885009	0.176297	0.386466
	C185	C	0.127469	0.177331	0.614187
	C186	C	0.126804	0.817760	0.387356
	C187	C	0.886425	0.822221	0.613984
	C188	C	0.185272	0.385056	0.878009
	C189	C	0.183670	0.610607	0.122423
	C190	C	0.826363	0.384556	0.122755
	C191	C	0.825178	0.610280	0.879137
	C192	C	0.408272	0.089738	0.597643
	C193	C	0.607993	0.903632	0.598272
	C194	C	0.602500	0.089875	0.404333
	C195	C	0.408643	0.903637	0.403002
	C196	C	0.604095	0.399305	0.093099
	C197	C	0.602350	0.593104	0.906551
	C198	C	0.406460	0.596716	0.094020
	C199	C	0.408050	0.399645	0.907324
	C200	C	0.097007	0.595306	0.403090
	C201	C	0.912246	0.598888	0.598824
	C202	C	0.098629	0.401267	0.597812
	C203	C	0.911892	0.401087	0.402135
	C204	C	0.906583	0.590572	0.096319
	C205	C	0.104112	0.404245	0.097171
	C206	C	0.103876	0.591954	0.903117
	C207	C	0.908119	0.403941	0.901667
	C208	C	0.104393	0.901207	0.594135
	C209	C	0.103171	0.094880	0.407407
	C210	C	0.908273	0.098138	0.594328
	C211	C	0.908364	0.901710	0.406663
	C212	C	0.597558	0.092630	0.903155
	C213	C	0.413226	0.094370	0.097361
	C214	C	0.599207	0.897869	0.097323
	C215	C	0.411949	0.897172	0.898249
	Zn216	Zn	0.506188	-0.003740	0.748836
	Zn217	Zn	0.506037	-0.004559	0.250186
	Zn218	Zn	0.755379	0.496094	-0.000508
	Zn219	Zn	0.255740	0.497847	0.000675
	Zn220	Zn	0.005517	0.749581	0.500926
	Zn221	Zn	0.006249	0.248729	0.499979
	Zn222	Zn	0.005255	0.499067	0.750409
	Zn223	Zn	0.004731	0.498245	0.249641
	Zn224	Zn	0.505017	0.746360	-0.000631
	Zn225	Zn	0.505600	0.246808	-0.000239
	Zn226	Zn	0.757238	-0.001038	0.501238
	Zn227	Zn	0.256137	-0.003063	0.500724
	N228	N	0.423538	0.958496	0.675260
	N229	N	0.593344	0.033205	0.680835
	N230	N	0.591957	0.959499	0.322298
	N231	N	0.418863	0.032400	0.320606
	N232	N	0.685854	0.408264	0.963554
	N233	N	0.683983	0.582305	0.036631
	N234	N	0.324783	0.585115	0.964296
	N235	N	0.327157	0.411608	0.037116
	N236	N	0.968030	0.677696	0.415071
	N237	N	0.041820	0.678694	0.587792
	N238	N	0.970270	0.319387	0.587030
	N239	N	0.041034	0.318444	0.412231
	N240	N	0.968824	0.414186	0.678029
	N241	N	0.041208	0.586402	0.681087
	N242	N	0.968310	0.585753	0.320305
	N243	N	0.040810	0.412005	0.320756
	N244	N	0.419604	0.675109	0.962621
	N245	N	0.590919	0.675530	0.036839
	N246	N	0.591150	0.317725	0.963115
	N247	N	0.419524	0.318413	0.037102
	N248	N	0.686057	0.961045	0.415248
	N249	N	0.686863	0.034162	0.589183
	N250	N	0.326065	0.961110	0.587950
	N251	N	0.325123	0.032722	0.413032
	N252	N	0.919039	0.461619	0.178729
	N253	N	0.090452	0.534681	0.178413
	N254	N	0.091837	0.462086	0.821201
	N255	N	0.920317	0.535060	0.823158
	N256	N	0.185296	0.910459	0.464236
	N257	N	0.185522	0.084227	0.536881
	N258	N	0.825450	0.086963	0.464902
	N259	N	0.829177	0.914393	0.537327
	N260	N	0.468645	0.175673	0.913543
	N261	N	0.541801	0.176378	0.087535
	N262	N	0.468717	0.819729	0.083315
	N263	N	0.541300	0.815143	0.911330
	N264	N	0.470103	0.909482	0.178737
	N265	N	0.541716	0.083466	0.181047
	N266	N	0.468463	0.081334	0.821192
	N267	N	0.542702	0.909475	0.820090
	N268	N	0.920199	0.177147	0.463357
	N269	N	0.092387	0.177416	0.537328
	N270	N	0.092333	0.818392	0.464246
	N271	N	0.920302	0.821171	0.536766
	N272	N	0.185660	0.461732	0.913259
	N273	N	0.185321	0.533351	0.087755
	N274	N	0.825716	0.460705	0.086978
	N275	N	0.824773	0.532940	0.912906
	O276	O	-0.094094	-0.074312	0.015690
	H277	H	-0.095094	-0.062226	0.025272
	H278	H	-0.088202	-0.074321	0.013042
	O279	O	-0.586347	0.410869	-0.483228
	H280	H	-0.585716	0.408192	-0.466281
	H281	H	-0.600329	0.426108	-0.478205
	O282	O	1.440739	-0.313398	0.315108
	H283	H	1.441927	-0.322609	0.299219
	H284	H	1.463257	-0.322794	0.322452
	O285	O	0.017634	1.035419	0.051374
	H286	H	0.004898	1.026902	0.059172
	H287	H	0.030895	1.032518	0.058571
	O288	O	0.565931	0.567981	0.644278
	H289	H	0.570721	0.555397	0.650887
	H290	H	0.576977	0.577827	0.648893
	O291	O	0.315791	0.348814	0.513993
	H292	H	0.328758	0.347460	0.543739
	H293	H	0.288936	0.348497	0.524956
	O294	O	1.167775	1.062909	1.128600
	H295	H	1.165461	1.062839	1.145995
	H296	H	1.168915	1.077903	1.128447
	O297	O	0.108937	-0.033261	0.068724
	H298	H	0.109747	-0.029875	0.073717
	H299	H	0.096585	-0.028668	0.077228
	O300	O	0.473581	0.347058	0.572379
	H301	H	0.471992	0.326877	0.563198
	H302	H	0.487511	0.360673	0.594000
	O303	O	-0.487184	0.494231	1.353100
	H304	H	-0.486675	0.486689	1.353685
	H305	H	-0.487289	0.488585	1.356059
	O306	O	0.464730	0.495634	0.306817
	H307	H	0.473049	0.482312	0.305830
	H308	H	0.475725	0.483656	0.302161
	O309	O	0.825186	0.039968	0.004557
	H310	H	0.814885	0.046336	-0.006670
	H311	H	0.824987	0.034235	-0.011913
	O312	O	0.014836	0.031333	0.871285
	H313	H	0.020070	0.030618	0.880110
	H314	H	0.022925	0.027562	0.863372
	O315	O	0.311263	1.615412	0.306904
	H316	H	0.327500	1.616347	0.290021
	H317	H	0.323443	1.584937	0.294253
	O318	O	0.708126	0.471492	0.563407
	H319	H	0.714548	0.486556	0.559432
	H320	H	0.706167	0.479709	0.573678
	O321	O	0.549574	0.653738	0.478540
	H322	H	0.545369	0.650086	0.474167
	H323	H	0.533879	0.644900	0.470642
	O324	O	0.569615	0.492415	0.592380
	H325	H	0.573729	0.495424	0.582724
	H326	H	0.572429	0.505043	0.587897
	O327	O	-0.632207	1.585681	1.462273
	H328	H	-0.647482	1.603374	1.456438
	H329	H	-0.640511	1.572296	1.441201
	O330	O	0.548469	0.622213	0.649913
	H331	H	0.547706	0.627385	0.662274
	H332	H	0.550984	0.614863	0.651688
	O333	O	0.683749	0.348214	0.404233
	H334	H	0.680966	0.383539	0.404344
	H335	H	0.655856	0.340838	0.387032
	O336	O	0.274194	0.329838	0.420329
	H337	H	0.277602	0.354413	0.414160
	H338	H	0.261706	0.330844	0.442981
	O339	O	1.074797	0.989084	-0.104298
	H340	H	1.077027	0.992378	-0.097009
	H341	H	1.077799	0.979891	-0.102912
	O342	O	1.045529	-0.009776	0.060931
	H343	H	1.041687	-0.010728	0.071906
	H344	H	1.055230	-0.004433	0.060157
	O345	O	0.657449	0.482421	0.312386
	H346	H	0.675758	0.491232	0.304416
	H347	H	0.662220	0.489855	0.333883
	O348	O	0.309763	0.630105	0.444805
	H349	H	0.301467	0.638885	0.436475
	H350	H	0.306669	0.631041	0.428396
	O351	O	0.819555	1.150890	0.019131
	H352	H	0.824167	1.150538	0.004127
	H353	H	0.798158	1.166724	0.005157
	O354	O	0.891457	0.089731	0.923887
	H355	H	0.876335	0.097303	0.911646
	H356	H	0.902006	0.079719	0.926088
	O357	O	0.530092	0.291061	0.301857
	H358	H	0.522507	0.290471	0.333979
	H359	H	0.527971	0.257708	0.276888
	O360	O	0.021841	-0.028528	-0.013991
	H361	H	0.024945	-0.035355	0.007006
	H362	H	0.025232	-0.027698	-0.021071
	O363	O	0.658026	0.298936	0.523254
	H364	H	0.662788	0.298992	0.501893
	H365	H	0.663879	0.290594	0.496190
	O366	O	1.029591	1.138157	0.939956
	H367	H	1.015256	1.135402	0.937998
	H368	H	1.031526	1.136918	0.930668
	O369	O	1.020395	0.011171	0.065421
	H370	H	1.025663	0.021144	0.066929
	H371	H	1.025618	0.009461	0.056776
	O372	O	0.373272	0.364986	0.590226
	H373	H	0.372733	0.361241	0.605974
	H374	H	0.375390	0.370780	0.587823
	O375	O	-0.005887	0.982543	0.878646
	H376	H	0.001054	0.976559	0.893290
	H377	H	-0.014096	0.980836	0.882317
	O378	O	0.341380	0.496351	0.622742
	H379	H	0.335867	0.504874	0.620443
	H380	H	0.346589	0.515774	0.616485
	O381	O	0.656491	0.577134	0.521909
	H382	H	0.646398	0.579589	0.529214
	H383	H	0.661631	0.573881	0.547253
	O384	O	0.112392	0.959446	-0.047471
	H385	H	0.117242	0.968826	-0.041421
	H386	H	0.117443	0.967782	-0.052666
	O387	O	0.469169	0.557340	1.607813
	H388	H	0.473313	0.562661	1.600958
	H389	H	0.478533	0.567217	1.605108
	O390	O	0.081821	0.988409	0.095034
	H391	H	0.083838	0.985590	0.099456
	H392	H	0.089817	0.999002	0.101084
	O393	O	0.959159	0.890980	0.113112
	H394	H	0.948909	0.883358	0.102851
	H395	H	0.964191	0.893324	0.114546
	O396	O	0.513628	0.455408	0.622226
	H397	H	0.499897	0.450900	0.619316
	H398	H	0.506450	0.459694	0.621855
	O399	O	-0.104445	1.029938	0.947794
	H400	H	-0.104468	1.039333	0.942368
	H401	H	-0.111357	1.019637	0.947188
	O402	O	1.025047	0.934408	0.916306
	H403	H	1.045612	0.923187	0.914734
	H404	H	1.023167	0.950193	0.915716
	O405	O	0.671135	0.620711	0.485128
	H406	H	0.663895	0.623983	0.481897
	H407	H	0.669239	0.621665	0.494544
