data_Molecule from HDF5

_cell_length_a		16.433072
_cell_length_b		16.420027
_cell_length_c		16.378416
_cell_angle_alpha	89.970863
_cell_angle_beta	89.825123
_cell_angle_gamma	90.112542
_symmetry_space_group_name_H-M	'P 1'
_symmetry_Int_Tables_number		1

loop_
	_symmetry_equiv_pos_as_xyz
	x,y,z

loop_
	_atom_site_label
	_atom_site_type_symbol
	_atom_site_fract_x
	_atom_site_fract_y
	_atom_site_fract_z
	H0	H	0.393726	0.835070	0.727342
	H1	H	0.611420	0.149587	0.727245
	H2	H	0.603908	0.832099	0.285664
	H3	H	0.395512	0.150276	0.281573
	H4	H	0.724957	0.388129	0.844838
	H5	H	0.723554	0.599591	0.162770
	H6	H	0.279938	0.599656	0.844769
	H7	H	0.279380	0.387320	0.161791
	H8	H	0.843910	0.714008	0.397872
	H9	H	0.159918	0.714471	0.608768
	H10	H	0.843624	0.269574	0.609734
	H11	H	0.159640	0.268664	0.393424
	H12	H	0.844202	0.384933	0.726354
	H13	H	0.161330	0.597207	0.722816
	H14	H	0.843715	0.596713	0.283328
	H15	H	0.160059	0.387714	0.280597
	H16	H	0.396549	0.714403	0.844420
	H17	H	0.604997	0.713396	0.163572
	H18	H	0.611974	0.268707	0.845639
	H19	H	0.396238	0.271954	0.163223
	H20	H	0.723263	0.833351	0.397903
	H21	H	0.727021	0.149112	0.610998
	H22	H	0.278223	0.835220	0.611750
	H23	H	0.279610	0.150097	0.396691
	H24	H	0.894915	0.335305	0.225979
	H25	H	0.106546	0.652021	0.223241
	H26	H	0.108774	0.333847	0.780580
	H27	H	0.897694	0.651474	0.781479
	H28	H	0.223147	0.888530	0.344431
	H29	H	0.225644	0.101141	0.661596
	H30	H	0.779504	0.098435	0.345852
	H31	H	0.778228	0.884164	0.661452
	H32	H	0.344255	0.216150	0.896480
	H33	H	0.661244	0.212978	0.108766
	H34	H	0.342727	0.770614	0.110662
	H35	H	0.660380	0.771936	0.898188
	H36	H	0.341930	0.886882	0.225691
	H37	H	0.661146	0.094547	0.223116
	H38	H	0.343847	0.099578	0.780774
	H39	H	0.659684	0.886265	0.781256
	H40	H	0.896577	0.213616	0.345149
	H41	H	0.109934	0.216623	0.660615
	H42	H	0.109120	0.771034	0.344814
	H43	H	0.896191	0.770576	0.662777
	H44	H	0.226229	0.334943	0.894958
	H45	H	0.222749	0.651963	0.107155
	H46	H	0.779013	0.335567	0.110927
	H47	H	0.781389	0.651352	0.897237
	H48	H	0.412996	0.109548	0.601151
	H49	H	0.592958	0.879234	0.588323
	H50	H	0.593952	0.106345	0.417587
	H51	H	0.410554	0.876887	0.409360
	H52	H	0.589395	0.403310	0.116321
	H53	H	0.590943	0.582946	0.890795
	H54	H	0.409440	0.583498	0.118355
	H55	H	0.412234	0.403261	0.888931
	H56	H	0.117088	0.583654	0.411450
	H57	H	0.887125	0.590253	0.590402
	H58	H	0.112021	0.406561	0.588156
	H59	H	0.890191	0.404632	0.415725
	H60	H	0.114768	0.405716	0.593665
	H61	H	0.893203	0.576130	0.584927
	H62	H	0.115949	0.583727	0.415484
	H63	H	0.889337	0.403085	0.414205
	H64	H	0.412123	0.578578	0.115993
	H65	H	0.593049	0.582487	0.890208
	H66	H	0.590663	0.403251	0.116883
	H67	H	0.415075	0.408317	0.891847
	H68	H	0.592570	0.106362	0.411200
	H69	H	0.589408	0.878284	0.595575
	H70	H	0.424822	0.100198	0.589725
	H71	H	0.418767	0.881635	0.417192
	H72	H	0.913311	0.604375	0.087442
	H73	H	0.089149	0.382035	0.086114
	H74	H	0.087172	0.603700	0.914599
	H75	H	0.912541	0.379175	0.912525
	H76	H	0.090693	0.907322	0.616051
	H77	H	0.093010	0.082815	0.388469
	H78	H	0.913066	0.076765	0.615863
	H79	H	0.913915	0.906452	0.391444
	H80	H	0.613570	0.071152	0.907761
	H81	H	0.389596	0.078748	0.092753
	H82	H	0.611190	0.914178	0.095546
	H83	H	0.386966	0.898201	0.916702
	H84	H	0.618928	0.896912	0.103500
	H85	H	0.387012	0.083172	0.096733
	H86	H	0.619072	0.091366	0.912641
	H87	H	0.393314	0.907168	0.922480
	H88	H	0.917093	0.080035	0.615426
	H89	H	0.092353	0.076283	0.391812
	H90	H	0.087031	0.903455	0.616310
	H91	H	0.915707	0.900375	0.390134
	H92	H	0.095039	0.604933	0.916703
	H93	H	0.094040	0.378242	0.091395
	H94	H	0.908368	0.608794	0.094563
	H95	H	0.916945	0.381414	0.916631
	H96	H	0.407045	0.104795	0.583574
	H97	H	0.585500	0.882277	0.589910
	H98	H	0.588086	0.104077	0.414873
	H99	H	0.407012	0.878970	0.421122
	H100	H	0.590857	0.404673	0.116379
	H101	H	0.591696	0.580983	0.890684
	H102	H	0.415950	0.583558	0.116768
	H103	H	0.418614	0.403376	0.891398
	H104	H	0.115178	0.580675	0.413222
	H105	H	0.887208	0.577009	0.600455
	H106	H	0.115803	0.401142	0.589133
	H107	H	0.889635	0.402623	0.416156
	H108	H	0.917601	0.605701	0.096050
	H109	H	0.086274	0.380585	0.093920
	H110	H	0.092051	0.607086	0.909265
	H111	H	0.911479	0.379997	0.918157
	H112	H	0.092136	0.902505	0.618139
	H113	H	0.086934	0.081036	0.392237
	H114	H	0.912852	0.081508	0.617416
	H115	H	0.910249	0.902303	0.388679
	H116	H	0.609396	0.078563	0.927695
	H117	H	0.388526	0.084600	0.091078
	H118	H	0.612842	0.896771	0.083885
	H119	H	0.388827	0.908900	0.910839
	C120	C	0.380647	0.001073	0.625238
	C121	C	0.623228	0.983817	0.624724
	C122	C	0.623105	0.000186	0.382560
	C123	C	0.379787	0.983833	0.382724
	C124	C	0.624036	0.371369	0.011795
	C125	C	0.623461	0.614520	0.995643
	C126	C	0.380515	0.614222	0.011765
	C127	C	0.381222	0.371708	0.995052
	C128	C	0.011075	0.614474	0.381529
	C129	C	0.993810	0.613760	0.624386
	C130	C	0.010253	0.370914	0.624159
	C131	C	0.993825	0.370855	0.381452
	C132	C	0.880258	0.502072	0.125375
	C133	C	0.122560	0.484851	0.123275
	C134	C	0.124804	0.500909	0.880614
	C135	C	0.881478	0.484653	0.882490
	C136	C	0.123212	0.871570	0.512070
	C137	C	0.124242	0.114253	0.494906
	C138	C	0.881238	0.112570	0.511725
	C139	C	0.880484	0.870225	0.494934
	C140	C	0.509885	0.113907	0.882442
	C141	C	0.493399	0.113874	0.125849
	C142	C	0.509590	0.870228	0.126460
	C143	C	0.493780	0.871957	0.883241
	C144	C	0.376316	0.882514	0.686839
	C145	C	0.628193	0.102326	0.686640
	C146	C	0.623125	0.880043	0.324354
	C147	C	0.377022	0.102624	0.321390
	C148	C	0.685099	0.369150	0.892631
	C149	C	0.683080	0.617274	0.115242
	C150	C	0.320150	0.617295	0.892339
	C151	C	0.319657	0.369034	0.114424
	C152	C	0.891525	0.674102	0.379705
	C153	C	0.112620	0.674487	0.626921
	C154	C	0.891177	0.310043	0.627588
	C155	C	0.112245	0.309681	0.376763
	C156	C	0.891546	0.367442	0.685882
	C157	C	0.113159	0.615966	0.683723
	C158	C	0.891407	0.615476	0.322631
	C159	C	0.112608	0.368847	0.320282
	C160	C	0.378279	0.674608	0.892033
	C161	C	0.624396	0.674143	0.115576
	C162	C	0.628398	0.309917	0.892918
	C163	C	0.378023	0.311787	0.115034
	C164	C	0.682851	0.880982	0.379969
	C165	C	0.685849	0.102124	0.628708
	C166	C	0.318484	0.882778	0.629325
	C167	C	0.319437	0.102682	0.379054
	C168	C	0.876970	0.382990	0.185968
	C169	C	0.124780	0.604335	0.183194
	C170	C	0.127394	0.381905	0.820064
	C171	C	0.879446	0.603725	0.821553
	C172	C	0.183675	0.869443	0.392550
	C173	C	0.185313	0.118673	0.613797
	C174	C	0.820217	0.116174	0.393032
	C175	C	0.819175	0.866894	0.614307
	C176	C	0.391595	0.175599	0.878951
	C177	C	0.613207	0.173165	0.127148
	C178	C	0.390274	0.810323	0.128689
	C179	C	0.612684	0.811486	0.880032
	C180	C	0.389902	0.868423	0.185979
	C181	C	0.613199	0.114402	0.184480
	C182	C	0.391370	0.117417	0.821127
	C183	C	0.612497	0.868743	0.822013
	C184	C	0.878491	0.173418	0.392673
	C185	C	0.127718	0.176459	0.613381
	C186	C	0.126709	0.810918	0.392639
	C187	C	0.877967	0.810255	0.614889
	C188	C	0.186017	0.382447	0.877075
	C189	C	0.182548	0.604381	0.125348
	C190	C	0.819187	0.383078	0.128508
	C191	C	0.821017	0.603673	0.878994
	C192	C	0.407357	0.083256	0.599058
	C193	C	0.596709	0.901498	0.598824
	C194	C	0.598756	0.083712	0.407363
	C195	C	0.404974	0.900714	0.408503
	C196	C	0.597802	0.396635	0.094853
	C197	C	0.598843	0.589514	0.912479
	C198	C	0.405351	0.589136	0.095104
	C199	C	0.407568	0.397595	0.912364
	C200	C	0.094380	0.589854	0.406335
	C201	C	0.910682	0.588395	0.599083
	C202	C	0.092654	0.396916	0.597675
	C203	C	0.911308	0.396068	0.407930
	C204	C	0.905800	0.584633	0.099926
	C205	C	0.097144	0.401894	0.097832
	C206	C	0.099009	0.583631	0.906206
	C207	C	0.906511	0.401854	0.908332
	C208	C	0.097270	0.896970	0.595085
	C209	C	0.098256	0.087684	0.412250
	C210	C	0.907047	0.086812	0.594719
	C211	C	0.905878	0.895752	0.411723
	C212	C	0.592361	0.087732	0.908247
	C213	C	0.409969	0.089275	0.100720
	C214	C	0.592678	0.895619	0.101644
	C215	C	0.411155	0.897534	0.909261
	Zn216	Zn	0.502213	-0.007763	0.753322
	Zn217	Zn	0.501411	-0.008015	0.254684
	Zn218	Zn	0.752475	0.493623	0.003953
	Zn219	Zn	0.252221	0.492585	0.003277
	Zn220	Zn	0.002049	0.742787	0.503449
	Zn221	Zn	0.002124	0.241684	0.503048
	Zn222	Zn	0.002273	0.492342	0.752657
	Zn223	Zn	0.002381	0.492583	0.253010
	Zn224	Zn	0.501354	0.742790	0.003807
	Zn225	Zn	0.502311	0.242870	0.003932
	Zn226	Zn	0.752142	-0.008480	0.503383
	Zn227	Zn	0.252050	-0.007269	0.503996
	N228	N	0.414172	0.957085	0.684575
	N229	N	0.589887	0.027894	0.684046
	N230	N	0.586701	0.955352	0.325837
	N231	N	0.413783	0.027561	0.323498
	N232	N	0.682423	0.406643	0.967575
	N233	N	0.682754	0.580924	0.039697
	N234	N	0.321434	0.580454	0.967761
	N235	N	0.321369	0.405489	0.038735
	N236	N	0.967114	0.673770	0.415585
	N237	N	0.037322	0.673355	0.590823
	N238	N	0.966048	0.311849	0.590005
	N239	N	0.037484	0.310922	0.414310
	N240	N	0.966645	0.404504	0.684026
	N241	N	0.038204	0.578916	0.682134
	N242	N	0.966771	0.579433	0.323615
	N243	N	0.037915	0.405983	0.322865
	N244	N	0.415122	0.672763	0.967248
	N245	N	0.588093	0.672721	0.040184
	N246	N	0.591298	0.311091	0.968161
	N247	N	0.415353	0.313051	0.039805
	N248	N	0.682934	0.956802	0.415499
	N249	N	0.683003	0.027517	0.590822
	N250	N	0.320869	0.957724	0.591898
	N251	N	0.321107	0.027742	0.416259
	N252	N	0.914412	0.457880	0.184191
	N253	N	0.088312	0.528960	0.182124
	N254	N	0.090258	0.456737	0.821975
	N255	N	0.916233	0.528801	0.823616
	N256	N	0.181540	0.906521	0.467715
	N257	N	0.183188	0.080774	0.539060
	N258	N	0.821905	0.078977	0.468167
	N259	N	0.820560	0.903552	0.538737
	N260	N	0.466404	0.173703	0.916146
	N261	N	0.537324	0.173096	0.091633
	N262	N	0.465749	0.811328	0.092292
	N263	N	0.537800	0.813484	0.917542
	N264	N	0.465034	0.905129	0.184601
	N265	N	0.537660	0.078492	0.183851
	N266	N	0.466084	0.079926	0.823138
	N267	N	0.537419	0.905306	0.823533
	N268	N	0.915811	0.171075	0.467536
	N269	N	0.090460	0.173783	0.538391
	N270	N	0.089772	0.812115	0.468083
	N271	N	0.915185	0.812020	0.539685
	N272	N	0.184456	0.457494	0.914032
	N273	N	0.181280	0.529154	0.088753
	N274	N	0.821021	0.458014	0.091607
	N275	N	0.822210	0.528738	0.916388
	O276	O	0.512648	0.403218	0.425031
	H277	H	0.512777	0.397192	0.417190
	H278	H	0.542451	0.401484	0.415678
	O279	O	0.679083	0.487635	0.297321
	H280	H	0.670687	0.468319	0.310205
	H281	H	0.697713	0.484634	0.281852
	O282	O	0.676942	0.674744	0.670374
	H283	H	0.681569	0.688001	0.628708
	H284	H	0.650430	0.669597	0.679652
	O285	O	1.194181	0.918800	-0.189241
	H286	H	1.193534	0.924334	-0.189653
	H287	H	1.205361	0.915502	-0.185379
	O288	O	0.486271	0.696965	0.614550
	H289	H	0.475253	0.710725	0.610011
	H290	H	0.501534	0.698918	0.606773
	O291	O	0.422620	0.463622	0.359626
	H292	H	0.436960	0.461139	0.342756
	H293	H	0.402881	0.463105	0.357400
	O294	O	0.802441	1.007261	1.199132
	H295	H	0.794774	0.985963	1.209677
	H296	H	0.805741	1.017188	1.194926
	O297	O	0.676323	0.305397	0.313442
	H298	H	0.694679	0.317678	0.296501
	H299	H	0.691559	0.298564	0.364032
	O300	O	0.484543	0.275185	0.721269
	H301	H	0.433343	0.286300	0.709597
	H302	H	0.477127	0.243755	0.757613
	O303	O	0.296542	0.523332	0.344965
	H304	H	0.274547	0.528052	0.334225
	H305	H	0.306293	0.555843	0.352874
	O306	O	0.006530	0.180633	1.212448
	H307	H	0.034591	0.165474	1.209226
	H308	H	0.007484	0.207502	1.226110
	O309	O	1.176557	0.008622	0.167194
	H310	H	1.169662	-0.001098	0.141721
	H311	H	1.196548	-0.001148	0.179546
	O312	O	0.464607	0.616663	0.365627
	H313	H	0.483884	0.608257	0.373692
	H314	H	0.473819	0.620924	0.357087
	O315	O	0.336464	0.416266	0.458175
	H316	H	0.329483	0.418222	0.451022
	H317	H	0.340863	0.423003	0.456639
	O318	O	0.175653	0.171457	0.182348
	H319	H	0.181707	0.148399	0.173050
	H320	H	0.179798	0.160880	0.186944
	O321	O	0.686017	0.684647	0.503389
	H322	H	0.701455	0.697258	0.502357
	H323	H	0.688764	0.665505	0.479697
	O324	O	0.712737	0.480956	0.487776
	H325	H	0.718800	0.466552	0.507008
	H326	H	0.704338	0.483259	0.504191
	O327	O	0.327517	0.311745	0.682758
	H328	H	0.312557	0.364279	0.693191
	H329	H	0.312608	0.301044	0.635331
	O330	O	-0.205163	1.077820	0.983525
	H331	H	-0.189570	1.068684	0.966111
	H332	H	-0.228706	1.092457	0.990117
	O333	O	0.092928	1.050633	-0.061112
	H334	H	0.093812	1.060670	-0.049162
	H335	H	0.075231	1.058887	-0.076949
	O336	O	0.951983	1.086652	0.017990
	H337	H	0.942206	1.073891	0.019330
	H338	H	0.956134	1.094184	0.019808
	O339	O	-0.175922	0.934547	0.919454
	H340	H	-0.192413	0.937374	0.907379
	H341	H	-0.156337	0.910281	0.926215
	O342	O	0.178024	0.805751	-0.116925
	H343	H	0.160740	0.801316	-0.117322
	H344	H	0.163655	0.809344	-0.113204
	O345	O	0.218135	0.184896	1.014693
	H346	H	0.241674	0.206420	1.021718
	H347	H	0.204281	0.178730	1.024847
	O348	O	0.419628	0.285958	0.425440
	H349	H	0.419439	0.277501	0.408716
	H350	H	0.415386	0.308889	0.408548
	O351	O	0.923125	1.082887	0.154948
	H352	H	0.915231	1.073421	0.158455
	H353	H	0.911726	1.082110	0.146360
	O354	O	0.869230	1.173366	0.819719
	H355	H	0.873252	1.158853	0.807352
	H356	H	0.886968	1.163477	0.820490
	O357	O	-0.127867	-0.173794	0.013655
	H358	H	-0.114083	-0.171243	0.004293
	H359	H	-0.135539	-0.190353	0.003576
	O360	O	0.532616	0.388062	0.345201
	H361	H	0.570236	0.389382	0.346519
	H362	H	0.544577	0.368461	0.336583
	O363	O	1.049201	-0.016159	0.200288
	H364	H	1.038242	-0.000164	0.193573
	H365	H	1.056403	-0.005367	0.204270
	O366	O	0.020308	0.022086	0.794232
	H367	H	0.039243	0.017498	0.800925
	H368	H	0.024349	0.025272	0.801385
	O369	O	0.888160	-0.047500	0.833744
	H370	H	0.885080	-0.078770	0.827526
	H371	H	0.894985	-0.026670	0.834752
	O372	O	0.663113	0.286029	0.494085
	H373	H	0.629407	0.283007	0.504796
	H374	H	0.668572	0.271829	0.514449
	O375	O	0.209253	-0.087690	0.945698
	H376	H	0.211827	-0.088137	0.920742
	H377	H	0.225488	-0.093162	0.946854
	O378	O	0.611347	0.562908	0.425703
	H379	H	0.623253	0.538818	0.418687
	H380	H	0.602564	0.540827	0.426128
	O381	O	0.015210	1.188973	-0.165442
	H382	H	0.022272	1.202496	-0.154976
	H383	H	0.025317	1.188748	-0.180861
	O384	O	0.292609	0.282924	0.523616
	H385	H	0.273831	0.272675	0.514336
	H386	H	0.289489	0.285089	0.507794
	O387	O	0.612245	0.289080	0.542563
	H388	H	0.582166	0.278129	0.576964
	H389	H	0.593754	0.277810	0.528947
	O390	O	1.091883	0.845277	0.110431
	H391	H	1.077172	0.844890	0.104080
	H392	H	1.100218	0.847503	0.112426
	O393	O	0.871232	-0.013211	0.875783
	H394	H	0.863511	-0.003014	0.862390
	H395	H	0.891694	-0.002957	0.888650
	O396	O	0.527123	0.463928	0.715493
	H397	H	0.547615	0.443013	0.719504
	H398	H	0.525949	0.461827	0.715704
	O399	O	0.680064	0.530495	0.659745
	H400	H	0.687020	0.524900	0.673299
	H401	H	0.673954	0.531540	0.656272
	O402	O	0.992094	0.784801	0.181789
	H403	H	0.998937	0.809678	0.187677
	H404	H	0.998000	0.757160	0.208850
	O405	O	0.292688	0.470636	0.710832
	H406	H	0.299759	0.489649	0.724759
	H407	H	0.290571	0.482385	0.729674
	O408	O	0.460286	0.636576	0.427170
	H409	H	0.472783	0.637896	0.413351
	H410	H	0.462557	0.622345	0.431207
	O411	O	1.018703	0.793330	0.826272
	H412	H	1.021784	0.795130	0.828826
	H413	H	1.014127	0.775535	0.820011
	O414	O	0.367176	0.631812	0.359406
	H415	H	0.392254	0.645623	0.371561
	H416	H	0.376222	0.625225	0.376408
	O417	O	0.183015	0.924180	1.008507
	H418	H	0.167796	0.924039	0.993659
	H419	H	0.191882	0.919268	1.011343
	O420	O	0.045979	1.204156	0.982383
	H421	H	0.061940	1.200572	1.005425
	H422	H	0.040632	1.197310	0.986322
	O423	O	-0.153218	0.840481	0.200551
	H424	H	-0.153844	0.836683	0.168577
	H425	H	-0.135203	0.854849	0.213348
	O426	O	0.320169	0.687595	0.538762
	H427	H	0.329312	0.674951	0.521220
	H428	H	0.306988	0.692326	0.531123
	O429	O	0.591877	0.483086	0.625605
	H430	H	0.596911	0.485249	0.631847
	H431	H	0.595929	0.466439	0.628725
	O432	O	0.482046	0.626386	0.698654
	H433	H	0.483508	0.627320	0.700781
	H434	H	0.485717	0.639920	0.695376
	O435	O	-0.176801	0.079254	0.011238
	H436	H	-0.182189	0.079872	0.012008
	H437	H	-0.186008	0.083035	-0.001294
	O438	O	-0.090696	0.790906	1.041779
	H439	H	-0.081809	0.800203	1.059976
	H440	H	-0.092967	0.794368	1.035521
	O441	O	0.398491	0.614571	0.446809
	H442	H	0.402478	0.608345	0.453860
	H443	H	0.414498	0.606560	0.456152
