data_Molecule from HDF5

_cell_length_a		16.344761
_cell_length_b		16.268665
_cell_length_c		16.416484
_cell_angle_alpha	90.116473
_cell_angle_beta	90.168554
_cell_angle_gamma	90.143353
_symmetry_space_group_name_H-M	'P 1'
_symmetry_Int_Tables_number		1

loop_
	_symmetry_equiv_pos_as_xyz
	x,y,z

loop_
	_atom_site_label
	_atom_site_type_symbol
	_atom_site_fract_x
	_atom_site_fract_y
	_atom_site_fract_z
	H0	H	0.378991	0.816101	0.718462
	H1	H	0.590513	0.137636	0.722674
	H2	H	0.586411	0.814625	0.283188
	H3	H	0.382668	0.138449	0.280844
	H4	H	0.706201	0.371379	0.841362
	H5	H	0.704645	0.580700	0.160899
	H6	H	0.265170	0.579623	0.839817
	H7	H	0.264202	0.372999	0.160755
	H8	H	0.823821	0.696971	0.398446
	H9	H	0.146360	0.698845	0.601725
	H10	H	0.824981	0.258666	0.603604
	H11	H	0.146468	0.261492	0.398109
	H12	H	0.825642	0.373174	0.720779
	H13	H	0.145830	0.585401	0.721029
	H14	H	0.824957	0.584628	0.279462
	H15	H	0.145742	0.376358	0.281608
	H16	H	0.382222	0.693722	0.838075
	H17	H	0.585868	0.694816	0.161180
	H18	H	0.588592	0.255826	0.841114
	H19	H	0.383216	0.258231	0.161650
	H20	H	0.702784	0.816289	0.397622
	H21	H	0.703564	0.139226	0.605154
	H22	H	0.265356	0.816883	0.600467
	H23	H	0.269280	0.140827	0.398111
	H24	H	0.881226	0.318865	0.220059
	H25	H	0.089406	0.640738	0.219502
	H26	H	0.089403	0.318773	0.779857
	H27	H	0.881862	0.640190	0.782434
	H28	H	0.202471	0.876488	0.339628
	H29	H	0.206500	0.085169	0.659123
	H30	H	0.764918	0.080530	0.340360
	H31	H	0.764189	0.872919	0.659855
	H32	H	0.324134	0.196132	0.897004
	H33	H	0.645128	0.195647	0.104987
	H34	H	0.322315	0.758407	0.100004
	H35	H	0.646389	0.760804	0.899941
	H36	H	0.323756	0.870968	0.220095
	H37	H	0.645303	0.078227	0.220050
	H38	H	0.324401	0.081215	0.779831
	H39	H	0.643729	0.869963	0.778595
	H40	H	0.882620	0.196414	0.339349
	H41	H	0.088408	0.198884	0.660122
	H42	H	0.085882	0.761886	0.339091
	H43	H	0.882119	0.758691	0.659808
	H44	H	0.200540	0.316377	0.899168
	H45	H	0.205201	0.639873	0.105223
	H46	H	0.766977	0.317720	0.103731
	H47	H	0.767629	0.640425	0.898775
	H48	H	0.399839	0.091362	0.593033
	H49	H	0.572388	0.861127	0.595478
	H50	H	0.568398	0.092303	0.403314
	H51	H	0.390766	0.862818	0.411639
	H52	H	0.572803	0.379959	0.115426
	H53	H	0.577661	0.563071	0.887232
	H54	H	0.385975	0.569692	0.117315
	H55	H	0.394814	0.393346	0.890323
	H56	H	0.101161	0.574611	0.409060
	H57	H	0.873225	0.566233	0.587969
	H58	H	0.101342	0.380010	0.585590
	H59	H	0.871644	0.390491	0.411101
	H60	H	0.093338	0.400130	0.581966
	H61	H	0.870286	0.567301	0.595519
	H62	H	0.097910	0.568905	0.413213
	H63	H	0.870857	0.390880	0.407863
	H64	H	0.396890	0.557627	0.109665
	H65	H	0.572184	0.569833	0.886412
	H66	H	0.584065	0.387645	0.116637
	H67	H	0.399181	0.381449	0.887663
	H68	H	0.571171	0.089003	0.417165
	H69	H	0.569324	0.866031	0.586656
	H70	H	0.395611	0.091416	0.587834
	H71	H	0.391911	0.861089	0.407907
	H72	H	0.900107	0.592440	0.088199
	H73	H	0.065301	0.369359	0.085126
	H74	H	0.077604	0.592971	0.913802
	H75	H	0.896979	0.364241	0.909119
	H76	H	0.070540	0.883655	0.614342
	H77	H	0.076148	0.065302	0.387201
	H78	H	0.894498	0.080126	0.617840
	H79	H	0.900565	0.888896	0.388926
	H80	H	0.596467	0.061140	0.915143
	H81	H	0.372367	0.055596	0.095118
	H82	H	0.599189	0.888604	0.094984
	H83	H	0.368225	0.887892	0.901701
	H84	H	0.599967	0.882554	0.093707
	H85	H	0.365249	0.074089	0.097372
	H86	H	0.599158	0.062825	0.906641
	H87	H	0.368246	0.879094	0.911981
	H88	H	0.885577	0.063401	0.615171
	H89	H	0.071522	0.073435	0.385390
	H90	H	0.083073	0.890697	0.616363
	H91	H	0.889580	0.882345	0.382844
	H92	H	0.076901	0.596109	0.907922
	H93	H	0.083911	0.362883	0.086124
	H94	H	0.892159	0.593961	0.087563
	H95	H	0.895498	0.364103	0.910951
	H96	H	0.393783	0.094304	0.593526
	H97	H	0.578813	0.862434	0.587717
	H98	H	0.581399	0.094651	0.409105
	H99	H	0.394988	0.863248	0.409839
	H100	H	0.572594	0.393122	0.110816
	H101	H	0.580061	0.569816	0.883703
	H102	H	0.402500	0.574205	0.113341
	H103	H	0.387402	0.384523	0.884620
	H104	H	0.099755	0.567433	0.405936
	H105	H	0.869913	0.573158	0.590209
	H106	H	0.101397	0.394758	0.601770
	H107	H	0.870560	0.388363	0.409018
	H108	H	0.896064	0.594872	0.095006
	H109	H	0.072448	0.361198	0.101474
	H110	H	0.072015	0.592199	0.910666
	H111	H	0.894929	0.363562	0.908816
	H112	H	0.071742	0.897094	0.610520
	H113	H	0.081026	0.073214	0.383177
	H114	H	0.903900	0.065350	0.609550
	H115	H	0.888574	0.895955	0.386925
	H116	H	0.598442	0.069551	0.912891
	H117	H	0.372487	0.068711	0.079574
	H118	H	0.597588	0.886200	0.089186
	H119	H	0.373232	0.891297	0.913694
	C120	C	0.363785	-0.013799	0.621288
	C121	C	0.605680	0.969177	0.622442
	C122	C	0.604606	-0.014878	0.379567
	C123	C	0.362840	0.969170	0.378578
	C124	C	0.607610	0.355049	0.009030
	C125	C	0.606852	0.598654	0.991794
	C126	C	0.363280	0.598676	0.007875
	C127	C	0.363302	0.355197	0.993170
	C128	C	-0.006414	0.601405	0.378234
	C129	C	0.976966	0.601221	0.622440
	C130	C	-0.006750	0.358871	0.621396
	C131	C	0.976861	0.358435	0.378275
	C132	C	0.864569	0.487604	0.121263
	C133	C	0.106517	0.470647	0.122412
	C134	C	0.106092	0.487255	0.879436
	C135	C	0.863739	0.470147	0.878479
	C136	C	0.105239	0.859295	0.507928
	C137	C	0.107202	0.101760	0.491181
	C138	C	0.862508	0.100771	0.508745
	C139	C	0.862013	0.856752	0.491718
	C140	C	0.492492	0.097240	0.879368
	C141	C	0.476323	0.097240	0.122066
	C142	C	0.492238	0.854434	0.122342
	C143	C	0.476195	0.855176	0.878547
	C144	C	0.361509	0.864429	0.678686
	C145	C	0.608200	0.089804	0.682461
	C146	C	0.605394	0.863375	0.322117
	C147	C	0.363399	0.090363	0.320056
	C148	C	0.666372	0.353126	0.889076
	C149	C	0.664841	0.599444	0.112902
	C150	C	0.304662	0.598735	0.887417
	C151	C	0.304236	0.354227	0.112902
	C152	C	0.872244	0.658467	0.378543
	C153	C	0.098302	0.659816	0.621909
	C154	C	0.872940	0.298508	0.622505
	C155	C	0.098029	0.300178	0.378487
	C156	C	0.873123	0.355933	0.680602
	C157	C	0.097781	0.603362	0.681274
	C158	C	0.872800	0.602570	0.319387
	C159	C	0.097645	0.357476	0.320427
	C160	C	0.363074	0.655511	0.886608
	C161	C	0.605946	0.656372	0.112936
	C162	C	0.607907	0.295472	0.888989
	C163	C	0.363481	0.297251	0.113757
	C164	C	0.663269	0.864106	0.379172
	C165	C	0.664693	0.090624	0.624132
	C166	C	0.304298	0.865021	0.620655
	C167	C	0.307089	0.091611	0.378603
	C168	C	0.862712	0.366955	0.180529
	C169	C	0.108179	0.592125	0.180574
	C170	C	0.107288	0.366489	0.819997
	C171	C	0.862870	0.591710	0.821164
	C172	C	0.163428	0.857966	0.387484
	C173	C	0.166668	0.103453	0.611342
	C174	C	0.804218	0.100214	0.388285
	C175	C	0.803903	0.855078	0.611985
	C176	C	0.372260	0.156603	0.878401
	C177	C	0.597248	0.156160	0.123580
	C178	C	0.370913	0.796678	0.120611
	C179	C	0.597509	0.798002	0.879383
	C180	C	0.371489	0.852764	0.180330
	C181	C	0.597179	0.097882	0.180841
	C182	C	0.372255	0.099295	0.819953
	C183	C	0.596356	0.852960	0.819327
	C184	C	0.862782	0.158096	0.387901
	C185	C	0.107788	0.159937	0.612048
	C186	C	0.105346	0.800828	0.387142
	C187	C	0.862628	0.798121	0.612104
	C188	C	0.162869	0.365254	0.879156
	C189	C	0.166116	0.591525	0.123743
	C190	C	0.805934	0.366382	0.122546
	C191	C	0.805784	0.591778	0.878859
	C192	C	0.389056	0.070422	0.598187
	C193	C	0.580636	0.885196	0.597383
	C194	C	0.580699	0.070057	0.403127
	C195	C	0.385928	0.884307	0.402770
	C196	C	0.583478	0.379866	0.092592
	C197	C	0.583442	0.574512	0.907780
	C198	C	0.388019	0.574361	0.091723
	C199	C	0.387014	0.379283	0.909338
	C200	C	0.077696	0.577248	0.402335
	C201	C	0.893014	0.576219	0.598355
	C202	C	0.077020	0.384485	0.596869
	C203	C	0.892854	0.382968	0.402335
	C204	C	0.889020	0.571892	0.097038
	C205	C	0.081172	0.386363	0.098068
	C206	C	0.082339	0.571786	0.903822
	C207	C	0.888427	0.385757	0.902607
	C208	C	0.081663	0.883471	0.591804
	C209	C	0.083116	0.077623	0.407182
	C210	C	0.887291	0.076573	0.592496
	C211	C	0.885990	0.881696	0.407954
	C212	C	0.576250	0.071843	0.904236
	C213	C	0.392167	0.073033	0.097667
	C214	C	0.576855	0.878829	0.099503
	C215	C	0.391915	0.879118	0.902350
	Zn216	Zn	0.484831	-0.023880	0.750365
	Zn217	Zn	0.483920	-0.023906	0.250766
	Zn218	Zn	0.736215	0.477976	-0.000058
	Zn219	Zn	0.234060	0.477976	0.000605
	Zn220	Zn	-0.014978	0.729566	0.499637
	Zn221	Zn	-0.014643	0.230088	0.500294
	Zn222	Zn	-0.014555	0.479434	0.751231
	Zn223	Zn	-0.014804	0.479842	0.250183
	Zn224	Zn	0.484335	0.726896	-0.000769
	Zn225	Zn	0.485134	0.226184	0.001185
	Zn226	Zn	0.733247	-0.021919	0.500859
	Zn227	Zn	0.235055	-0.020293	0.499722
	N228	N	0.397523	0.940873	0.679601
	N229	N	0.572263	0.013332	0.681525
	N230	N	0.569579	0.939746	0.322282
	N231	N	0.397552	0.013227	0.320163
	N232	N	0.666463	0.389324	0.964785
	N233	N	0.665631	0.564391	0.036692
	N234	N	0.304568	0.564320	0.963777
	N235	N	0.303973	0.389663	0.036979
	N236	N	0.948206	0.657806	0.414468
	N237	N	0.022104	0.659067	0.586138
	N238	N	0.948648	0.300292	0.586328
	N239	N	0.021783	0.300429	0.413697
	N240	N	0.949006	0.392565	0.680071
	N241	N	0.021402	0.567654	0.681513
	N242	N	0.949339	0.567749	0.319147
	N243	N	0.021390	0.393028	0.320248
	N244	N	0.398852	0.655522	0.962586
	N245	N	0.570756	0.656225	0.036625
	N246	N	0.572216	0.296405	0.964637
	N247	N	0.399384	0.297835	0.038215
	N248	N	0.662659	0.940841	0.414488
	N249	N	0.663422	0.014630	0.587368
	N250	N	0.305607	0.941556	0.585556
	N251	N	0.306590	0.015154	0.414131
	N252	N	0.898537	0.443381	0.180054
	N253	N	0.071830	0.515849	0.179962
	N254	N	0.072828	0.443452	0.820019
	N255	N	0.897890	0.514952	0.820636
	N256	N	0.163496	0.893729	0.463386
	N257	N	0.166543	0.068165	0.535167
	N258	N	0.803735	0.065616	0.464607
	N259	N	0.803743	0.890946	0.536243
	N260	N	0.448063	0.155300	0.914805
	N261	N	0.521310	0.155746	0.087725
	N262	N	0.447038	0.797563	0.085355
	N263	N	0.521912	0.799400	0.915535
	N264	N	0.448123	0.887854	0.181571
	N265	N	0.521001	0.061905	0.179975
	N266	N	0.448199	0.063127	0.820496
	N267	N	0.519775	0.887582	0.818452
	N268	N	0.898498	0.158516	0.463883
	N269	N	0.071321	0.158858	0.536479
	N270	N	0.069735	0.801434	0.463024
	N271	N	0.897985	0.799115	0.536261
	N272	N	0.162232	0.441245	0.915582
	N273	N	0.165041	0.514969	0.088008
	N274	N	0.806826	0.442440	0.086514
	N275	N	0.806288	0.515086	0.913904
	O276	O	0.374640	0.545507	0.511729
	H277	H	0.375621	0.560377	0.496307
	H278	H	0.365891	0.548845	0.524458
	O279	O	0.383822	0.327015	0.688919
	H280	H	0.389952	0.320976	0.698834
	H281	H	0.387571	0.334963	0.693482
	O282	O	0.958656	-0.055771	1.002163
	H283	H	0.965441	-0.071587	0.998200
	H284	H	0.957828	-0.056605	1.009368
	O285	O	0.435929	0.618099	0.424749
	H286	H	0.433416	0.618786	0.429172
	H287	H	0.441052	0.625114	0.418389
	O288	O	0.958360	1.046321	1.020511
	H289	H	0.957388	1.055731	1.030189
	H290	H	0.948016	1.053954	1.020337
	O291	O	0.016973	0.939294	0.086515
	H292	H	0.017148	0.927579	0.095665
	H293	H	0.020255	0.930436	0.076656
	O294	O	0.287259	0.312932	0.581432
	H295	H	0.299346	0.306362	0.605066
	H296	H	0.277377	0.304746	0.586998
	O297	O	0.544669	0.523563	0.575901
	H298	H	0.536041	0.522751	0.570552
	H299	H	0.556184	0.509534	0.569511
	O300	O	0.412095	0.473866	0.463507
	H301	H	0.403524	0.465578	0.459658
	H302	H	0.393295	0.466542	0.471442
	O303	O	0.560917	0.459059	0.358983
	H304	H	0.552596	0.448633	0.364386
	H305	H	0.555490	0.456660	0.354141
	O306	O	0.455986	0.548102	0.454352
	H307	H	0.454650	0.544400	0.461250
	H308	H	0.456443	0.552690	0.453810
	O309	O	0.796051	1.030955	-0.086463
	H310	H	0.794963	1.048025	-0.080721
	H311	H	0.789667	1.031787	-0.101711
	O312	O	-0.154124	-0.020501	-0.028915
	H313	H	-0.167201	-0.018818	-0.038079
	H314	H	-0.140098	-0.030963	-0.026992
	O315	O	0.392969	0.623807	0.398351
	H316	H	0.408199	0.630751	0.408315
	H317	H	0.385250	0.638992	0.401419
	O318	O	0.036818	0.860456	0.915410
	H319	H	0.038086	0.877446	0.925586
	H320	H	0.024705	0.846499	0.905952
	O321	O	0.562055	0.540382	0.604964
	H322	H	0.577018	0.536739	0.605757
	H323	H	0.577395	0.547221	0.588734
	O324	O	-0.008365	1.121893	-0.132936
	H325	H	-0.007426	1.126953	-0.126472
	H326	H	0.010471	1.107757	-0.126850
	O327	O	0.587156	0.535280	0.621557
	H328	H	0.582076	0.541333	0.624764
	H329	H	0.601601	0.528685	0.607191
	O330	O	-0.879794	0.902259	1.907085
	H331	H	-0.874940	0.895541	1.913768
	H332	H	-0.882935	0.909630	1.915274
	O333	O	0.169349	0.106636	1.055454
	H334	H	0.181284	0.106847	1.050438
	H335	H	0.177530	0.099235	1.066637
	O336	O	0.675723	0.309435	0.400961
	H337	H	0.667813	0.302946	0.401141
	H338	H	0.671496	0.312596	0.405279
	O339	O	0.918224	0.112097	0.158564
	H340	H	0.928147	0.111481	0.158264
	H341	H	0.923051	0.119787	0.157511
	O342	O	-0.031603	-0.149212	0.069790
	H343	H	-0.038445	-0.138191	0.069676
	H344	H	-0.034384	-0.139002	0.065865
	O345	O	1.547489	0.487335	0.471938
	H346	H	1.550322	0.485552	0.479174
	H347	H	1.543835	0.483981	0.466102
	O348	O	1.358923	1.509921	0.625001
	H349	H	1.361087	1.533000	0.623629
	H350	H	1.360616	1.509001	0.635547
	O351	O	0.576337	0.550338	0.534578
	H352	H	0.586406	0.545363	0.521588
	H353	H	0.573587	0.536720	0.537227
	O354	O	0.920273	-0.140169	1.004093
	H355	H	0.922789	-0.131875	1.006229
	H356	H	0.906502	-0.146644	1.011734
	O357	O	0.592284	0.332484	0.409323
	H358	H	0.601632	0.322886	0.410527
	H359	H	0.569912	0.338829	0.409811
	O360	O	0.488219	0.431898	0.600146
	H361	H	0.475465	0.434756	0.600317
	H362	H	0.494747	0.434086	0.604140
	O363	O	-0.006933	1.024974	1.017339
	H364	H	0.000782	1.031587	1.005193
	H365	H	-0.015512	1.030491	1.037283
	O366	O	1.047743	1.089893	-0.020689
	H367	H	1.040539	1.092751	-0.015421
	H368	H	1.042226	1.095496	-0.025598
	O369	O	-0.071613	0.869058	-0.030258
	H370	H	-0.085065	0.883451	-0.040982
	H371	H	-0.082618	0.864718	-0.026524
	O372	O	0.965931	0.063162	-0.105849
	H373	H	0.994939	0.060561	-0.118642
	H374	H	0.959152	0.047915	-0.106486
	O375	O	0.653489	0.330452	0.538792
	H376	H	0.651741	0.336396	0.526878
	H377	H	0.667633	0.324425	0.535400
	O378	O	1.629623	1.427494	0.337302
	H379	H	1.625465	1.405015	0.348427
	H380	H	1.637151	1.432357	0.325864
	O381	O	0.835393	-0.041123	0.142047
	H382	H	0.841814	-0.025572	0.157028
	H383	H	0.844936	-0.042635	0.137183
	O384	O	0.991717	1.046022	0.073619
	H385	H	0.977076	1.047123	0.062198
	H386	H	0.976095	1.033160	0.065543
	O387	O	0.157417	-0.112872	-0.086883
	H388	H	0.147188	-0.118792	-0.083742
	H389	H	0.160967	-0.109798	-0.056119
	O390	O	0.042984	0.990295	0.039808
	H391	H	0.050489	0.985920	0.032743
	H392	H	0.050963	0.976914	0.038322
	O393	O	0.848048	1.023671	1.014714
	H394	H	0.831275	1.042421	1.006102
	H395	H	0.858456	1.016466	0.991157
	O396	O	0.529545	0.656355	0.465713
	H397	H	0.536932	0.660593	0.455117
	H398	H	0.546404	0.653317	0.469787
	O399	O	0.031572	0.943550	1.151281
	H400	H	0.025001	0.933906	1.155392
	H401	H	0.034282	0.954057	1.152964
	O402	O	0.438281	0.380410	0.426603
	H403	H	0.434867	0.374808	0.437233
	H404	H	0.441266	0.403260	0.417521
	O405	O	1.031051	0.937497	-0.063221
	H406	H	1.031439	0.934795	-0.060392
	H407	H	1.029659	0.925345	-0.070816
	O408	O	1.451307	0.469748	0.651510
	H409	H	1.444142	0.483150	0.658966
	H410	H	1.451119	0.466661	0.644730
	O411	O	1.038095	-0.064466	0.790759
	H412	H	1.043431	-0.078912	0.794708
	H413	H	1.049018	-0.075230	0.779390
	O414	O	0.382423	0.369531	0.397887
	H415	H	0.375744	0.363087	0.388759
	H416	H	0.375640	0.358489	0.406433
	O417	O	0.527674	0.584168	0.635011
	H418	H	0.544135	0.578934	0.633859
	H419	H	0.541269	0.589833	0.637795
