data_Molecule from HDF5

_cell_length_a		16.319920
_cell_length_b		16.247031
_cell_length_c		16.209163
_cell_angle_alpha	90.082413
_cell_angle_beta	89.719554
_cell_angle_gamma	90.305149
_symmetry_space_group_name_H-M	'P 1'
_symmetry_Int_Tables_number		1

loop_
	_symmetry_equiv_pos_as_xyz
	x,y,z

loop_
	_atom_site_label
	_atom_site_type_symbol
	_atom_site_fract_x
	_atom_site_fract_y
	_atom_site_fract_z
	H0	H	0.393572	0.831847	0.713121
	H1	H	0.591371	0.160879	0.710810
	H2	H	0.590336	0.831590	0.284364
	H3	H	0.396524	0.160070	0.284579
	H4	H	0.708595	0.396922	0.833602
	H5	H	0.710056	0.597658	0.161013
	H6	H	0.282334	0.594044	0.832950
	H7	H	0.277835	0.397250	0.160865
	H8	H	0.830678	0.709795	0.399636
	H9	H	0.156585	0.712928	0.595599
	H10	H	0.830230	0.281390	0.596717
	H11	H	0.157354	0.282105	0.397351
	H12	H	0.831003	0.396321	0.713420
	H13	H	0.157667	0.596737	0.710841
	H14	H	0.830452	0.593832	0.283171
	H15	H	0.157214	0.397925	0.280945
	H16	H	0.397200	0.710779	0.833980
	H17	H	0.592028	0.710277	0.162593
	H18	H	0.591984	0.281942	0.834055
	H19	H	0.393284	0.282513	0.162268
	H20	H	0.708802	0.832711	0.397019
	H21	H	0.708932	0.159866	0.597229
	H22	H	0.276578	0.832556	0.598687
	H23	H	0.280870	0.160083	0.399779
	H24	H	0.894900	0.331784	0.210753
	H25	H	0.092851	0.660360	0.210438
	H26	H	0.091837	0.331608	0.782009
	H27	H	0.898233	0.660683	0.785376
	H28	H	0.210094	0.895882	0.334195
	H29	H	0.207749	0.096419	0.662336
	H30	H	0.780340	0.095582	0.333785
	H31	H	0.777043	0.896439	0.660979
	H32	H	0.329947	0.209562	0.901071
	H33	H	0.656251	0.213806	0.097324
	H34	H	0.331364	0.779406	0.099476
	H35	H	0.657688	0.782917	0.898250
	H36	H	0.330964	0.896233	0.214108
	H37	H	0.658576	0.094203	0.209926
	H38	H	0.330044	0.094245	0.784534
	H39	H	0.657730	0.899426	0.782823
	H40	H	0.897813	0.209087	0.332936
	H41	H	0.092226	0.211909	0.661761
	H42	H	0.093133	0.782590	0.332875
	H43	H	0.894509	0.782530	0.662132
	H44	H	0.208679	0.332096	0.896426
	H45	H	0.209272	0.659305	0.096074
	H46	H	0.775290	0.333671	0.099163
	H47	H	0.780016	0.659990	0.898254
	H48	H	0.396645	0.112584	0.588419
	H49	H	0.581403	0.879273	0.595392
	H50	H	0.588910	0.110961	0.412851
	H51	H	0.405092	0.880774	0.406551
	H52	H	0.585308	0.408964	0.113933
	H53	H	0.591841	0.589001	0.879464
	H54	H	0.409370	0.578737	0.108877
	H55	H	0.405976	0.399690	0.881100
	H56	H	0.111062	0.586393	0.396233
	H57	H	0.880365	0.587045	0.586415
	H58	H	0.108175	0.409182	0.587551
	H59	H	0.877375	0.396427	0.406145
	H60	H	0.112033	0.403780	0.593480
	H61	H	0.876580	0.585579	0.596860
	H62	H	0.113230	0.597932	0.403164
	H63	H	0.879060	0.405963	0.407055
	H64	H	0.405690	0.601221	0.117285
	H65	H	0.584837	0.586156	0.883156
	H66	H	0.582031	0.404943	0.113530
	H67	H	0.396794	0.399395	0.878534
	H68	H	0.594561	0.116677	0.400530
	H69	H	0.581875	0.881709	0.584417
	H70	H	0.399099	0.114477	0.596775
	H71	H	0.396861	0.879413	0.410445
	H72	H	0.899307	0.611590	0.084879
	H73	H	0.078393	0.379474	0.095637
	H74	H	0.076140	0.606139	0.913295
	H75	H	0.898595	0.379308	0.906485
	H76	H	0.090403	0.907611	0.614155
	H77	H	0.081034	0.086982	0.383365
	H78	H	0.903202	0.088443	0.614070
	H79	H	0.907517	0.904886	0.381844
	H80	H	0.615309	0.095459	0.893110
	H81	H	0.375741	0.092676	0.092715
	H82	H	0.610979	0.905593	0.092975
	H83	H	0.377757	0.904872	0.903674
	H84	H	0.611607	0.900971	0.092094
	H85	H	0.378955	0.087656	0.089500
	H86	H	0.608356	0.097792	0.916713
	H87	H	0.377119	0.899839	0.907153
	H88	H	0.899256	0.091736	0.615485
	H89	H	0.090185	0.096890	0.377674
	H90	H	0.079655	0.907187	0.611962
	H91	H	0.898951	0.896429	0.377610
	H92	H	0.105171	0.615150	0.911405
	H93	H	0.085687	0.381395	0.079222
	H94	H	0.898336	0.615212	0.094440
	H95	H	0.900318	0.379142	0.903895
	H96	H	0.404745	0.111196	0.591084
	H97	H	0.591025	0.877720	0.589177
	H98	H	0.580953	0.112291	0.401220
	H99	H	0.398344	0.878183	0.401081
	H100	H	0.586524	0.403479	0.115327
	H101	H	0.585930	0.593906	0.880029
	H102	H	0.387008	0.584275	0.117858
	H103	H	0.400400	0.407120	0.881173
	H104	H	0.106904	0.586850	0.409719
	H105	H	0.874559	0.595183	0.591851
	H106	H	0.109582	0.400292	0.585762
	H107	H	0.876464	0.402609	0.398553
	H108	H	0.906995	0.611563	0.091015
	H109	H	0.095619	0.375916	0.093156
	H110	H	0.087525	0.618070	0.886977
	H111	H	0.901837	0.379173	0.906367
	H112	H	0.084762	0.898236	0.615983
	H113	H	0.094591	0.083763	0.380911
	H114	H	0.898516	0.086711	0.615200
	H115	H	0.895877	0.907790	0.380325
	H116	H	0.605753	0.076710	0.905030
	H117	H	0.376942	0.086666	0.095302
	H118	H	0.609924	0.903579	0.088265
	H119	H	0.379645	0.904304	0.909486
	C120	C	0.370906	0.004284	0.620840
	C121	C	0.614164	0.987993	0.618510
	C122	C	0.615991	0.004926	0.375965
	C123	C	0.372480	0.987690	0.377273
	C124	C	0.614371	0.375941	0.006211
	C125	C	0.616066	0.618800	0.989163
	C126	C	0.373034	0.617017	0.006154
	C127	C	0.371716	0.374000	0.989023
	C128	C	0.002488	0.618093	0.375222
	C129	C	0.985411	0.618474	0.619433
	C130	C	0.002035	0.374709	0.618754
	C131	C	0.985536	0.373900	0.374896
	C132	C	0.871748	0.504850	0.119243
	C133	C	0.115307	0.487371	0.117904
	C134	C	0.116776	0.504426	0.874656
	C135	C	0.872626	0.487909	0.877022
	C136	C	0.114544	0.874978	0.505899
	C137	C	0.116162	0.118555	0.489297
	C138	C	0.872937	0.117327	0.506253
	C139	C	0.871779	0.874265	0.488557
	C140	C	0.501990	0.118151	0.876401
	C141	C	0.485206	0.118411	0.120636
	C142	C	0.502735	0.874240	0.120217
	C143	C	0.486304	0.875028	0.876884
	C144	C	0.373122	0.880976	0.675669
	C145	C	0.611636	0.111729	0.673423
	C146	C	0.611997	0.880950	0.321211
	C147	C	0.376045	0.111110	0.322378
	C148	C	0.670660	0.376971	0.882826
	C149	C	0.671569	0.617521	0.112411
	C150	C	0.319430	0.614706	0.882061
	C151	C	0.315604	0.376519	0.112209
	C152	C	0.879288	0.672106	0.378793
	C153	C	0.108157	0.674274	0.616050
	C154	C	0.879244	0.319123	0.616974
	C155	C	0.108464	0.319450	0.377069
	C156	C	0.879402	0.376612	0.674626
	C157	C	0.108612	0.616632	0.673460
	C158	C	0.879189	0.614522	0.320874
	C159	C	0.108604	0.377291	0.319366
	C160	C	0.376170	0.672823	0.882764
	C161	C	0.613123	0.673569	0.112996
	C162	C	0.612556	0.319959	0.882952
	C163	C	0.373107	0.319416	0.112847
	C164	C	0.670212	0.881190	0.377764
	C165	C	0.670348	0.111222	0.617015
	C166	C	0.314839	0.881244	0.618743
	C167	C	0.318821	0.111264	0.380059
	C168	C	0.874082	0.381234	0.173876
	C169	C	0.112855	0.611115	0.172583
	C170	C	0.112619	0.380674	0.819758
	C171	C	0.876536	0.611438	0.822054
	C172	C	0.171154	0.876379	0.382670
	C173	C	0.170499	0.116506	0.612959
	C174	C	0.818715	0.115013	0.382519
	C175	C	0.815464	0.876163	0.612083
	C176	C	0.378807	0.172422	0.879962
	C177	C	0.607804	0.175213	0.118006
	C178	C	0.380137	0.817770	0.119237
	C179	C	0.608779	0.820301	0.878252
	C180	C	0.379888	0.875926	0.176078
	C181	C	0.608827	0.116062	0.174138
	C182	C	0.379062	0.115148	0.821884
	C183	C	0.608918	0.877943	0.820651
	C184	C	0.876965	0.171344	0.382179
	C185	C	0.113128	0.174211	0.612771
	C186	C	0.112951	0.819973	0.382136
	C187	C	0.873732	0.819493	0.612557
	C188	C	0.170835	0.380930	0.876344
	C189	C	0.170918	0.610643	0.115871
	C190	C	0.814640	0.382067	0.118307
	C191	C	0.818014	0.611113	0.878580
	C192	C	0.393536	0.090630	0.598515
	C193	C	0.591441	0.901675	0.596119
	C194	C	0.594509	0.091021	0.398340
	C195	C	0.393658	0.901708	0.399493
	C196	C	0.591334	0.398983	0.092109
	C197	C	0.594042	0.596329	0.903234
	C198	C	0.394369	0.594521	0.092272
	C199	C	0.394522	0.395615	0.902556
	C200	C	0.088124	0.596706	0.396763
	C201	C	0.899448	0.595995	0.597970
	C202	C	0.087689	0.397775	0.595644
	C203	C	0.900007	0.395377	0.397308
	C204	C	0.894698	0.590808	0.096750
	C205	C	0.093037	0.401197	0.095767
	C206	C	0.095692	0.590726	0.897140
	C207	C	0.893840	0.401660	0.899037
	C208	C	0.091758	0.897583	0.591829
	C209	C	0.094846	0.096020	0.402897
	C210	C	0.894147	0.095338	0.592618
	C211	C	0.894247	0.896297	0.402330
	C212	C	0.587708	0.096572	0.898444
	C213	C	0.399402	0.095788	0.098966
	C214	C	0.588699	0.896592	0.097579
	C215	C	0.400374	0.896729	0.899971
	Zn216	Zn	0.493568	-0.003866	0.748397
	Zn217	Zn	0.494179	-0.003824	0.248337
	Zn218	Zn	0.743442	0.496564	-0.002506
	Zn219	Zn	0.243918	0.495623	-0.003342
	Zn220	Zn	-0.006333	0.746642	0.497429
	Zn221	Zn	-0.006142	0.245791	0.497591
	Zn222	Zn	-0.005770	0.495936	0.747716
	Zn223	Zn	-0.005897	0.496099	0.246382
	Zn224	Zn	0.494331	0.745761	-0.001758
	Zn225	Zn	0.493272	0.246520	-0.001806
	Zn226	Zn	0.743869	-0.003580	0.497489
	Zn227	Zn	0.243319	-0.004078	0.498218
	N228	N	0.407265	0.958696	0.677094
	N229	N	0.577556	0.034056	0.674538
	N230	N	0.578803	0.958579	0.320258
	N231	N	0.408641	0.033339	0.320585
	N232	N	0.671937	0.410979	0.960651
	N233	N	0.673666	0.584231	0.034424
	N234	N	0.317174	0.580744	0.959929
	N235	N	0.314680	0.409792	0.034243
	N236	N	0.956806	0.674730	0.411438
	N237	N	0.030550	0.675713	0.583384
	N238	N	0.956633	0.317960	0.582957
	N239	N	0.031026	0.317205	0.410829
	N240	N	0.956850	0.410444	0.675842
	N241	N	0.031157	0.582668	0.675910
	N242	N	0.956783	0.581569	0.318351
	N243	N	0.031209	0.410408	0.317804
	N244	N	0.408656	0.674470	0.960817
	N245	N	0.579067	0.674216	0.035408
	N246	N	0.578213	0.319221	0.960579
	N247	N	0.407491	0.317848	0.035195
	N248	N	0.673104	0.959230	0.410905
	N249	N	0.672070	0.033250	0.583607
	N250	N	0.313268	0.959111	0.585619
	N251	N	0.316342	0.033460	0.413668
	N252	N	0.908924	0.458709	0.174621
	N253	N	0.078826	0.533494	0.173833
	N254	N	0.079880	0.458607	0.818478
	N255	N	0.909957	0.533817	0.820973
	N256	N	0.172497	0.909704	0.460701
	N257	N	0.172805	0.082823	0.534857
	N258	N	0.815804	0.082066	0.460725
	N259	N	0.814086	0.909588	0.534054
	N260	N	0.456265	0.174292	0.913118
	N261	N	0.530108	0.176536	0.085191
	N262	N	0.457587	0.816575	0.085332
	N263	N	0.531535	0.818613	0.912653
	N264	N	0.457206	0.910142	0.177007
	N265	N	0.531607	0.081527	0.175897
	N266	N	0.456450	0.082166	0.819666
	N267	N	0.531547	0.911294	0.819876
	N268	N	0.909989	0.172723	0.460068
	N269	N	0.080174	0.175606	0.534992
	N270	N	0.078400	0.819086	0.459672
	N271	N	0.907727	0.817904	0.534678
	N272	N	0.173596	0.458874	0.909640
	N273	N	0.172585	0.532679	0.082618
	N274	N	0.813115	0.459908	0.085070
	N275	N	0.815415	0.533313	0.911776
	O276	O	0.975106	1.007268	-0.003013
	H277	H	0.968341	1.010169	0.003804
	H278	H	0.966314	1.018147	-0.001158
	O279	O	0.502257	0.471077	0.496805
	H280	H	0.503331	0.475277	0.498457
	H281	H	0.502555	0.471492	0.485705
	O282	O	-0.002088	-0.014710	0.059592
	H283	H	0.000868	-0.016821	0.064717
	H284	H	-0.006837	-0.018115	0.047009
	O285	O	0.501210	0.476683	0.549725
	H286	H	0.503687	0.488698	0.546288
	H287	H	0.509609	0.477826	0.561406
	O288	O	0.025743	-0.066474	0.027837
	H289	H	0.021265	-0.056645	0.028687
	H290	H	0.030779	-0.075917	0.015613
	O291	O	0.040155	0.883398	-0.038138
	H292	H	0.051070	0.881643	-0.038800
	H293	H	0.036023	0.886017	-0.030869
	O294	O	0.037144	1.086173	-0.001112
	H295	H	0.042582	1.086674	-0.004313
	H296	H	0.044530	1.087298	0.001586
	O297	O	0.472082	0.487541	0.508401
	H298	H	0.463769	0.474136	0.506470
	H299	H	0.474189	0.479286	0.518629
	O300	O	0.524721	0.563508	0.473023
	H301	H	0.526474	0.567680	0.462717
	H302	H	0.521060	0.569271	0.484802
	O303	O	0.974237	-0.068948	1.037417
	H304	H	0.980425	-0.072939	1.048772
	H305	H	0.970679	-0.075430	1.037717
	O306	O	0.016118	1.001285	0.893752
	H307	H	0.012134	0.997624	0.899817
	H308	H	0.018336	1.009684	0.891326
	O309	O	0.072198	0.915750	0.959203
	H310	H	0.074409	0.909147	0.952600
	H311	H	0.078317	0.912511	0.953671
	O312	O	0.479884	0.513691	0.511800
	H313	H	0.479152	0.518597	0.515495
	H314	H	0.480906	0.504335	0.497296
	O315	O	0.474560	0.498810	0.455314
	H316	H	0.462485	0.495999	0.451246
	H317	H	0.478684	0.510580	0.463612
	O318	O	-0.043636	-0.035113	1.034362
	H319	H	-0.043226	-0.050229	1.032786
	H320	H	-0.041782	-0.034103	1.042144
	O321	O	0.493435	0.433515	0.451971
	H322	H	0.493657	0.431288	0.440739
	H323	H	0.502340	0.433688	0.458637
	O324	O	1.040375	0.017343	1.025320
	H325	H	1.045920	0.011749	1.016415
	H326	H	1.024910	0.013824	1.029689
	O327	O	0.997135	0.965099	1.001032
	H328	H	0.993828	0.965009	1.008086
	H329	H	0.993160	0.961636	0.993552
	O330	O	0.501749	0.514790	0.491793
	H331	H	0.505591	0.522078	0.485979
	H332	H	0.483285	0.513824	0.496489
	O333	O	0.977355	0.065117	0.982967
	H334	H	0.973046	0.064060	0.985064
	H335	H	0.983793	0.069367	0.986334
	O336	O	0.479922	0.604263	0.444590
	H337	H	0.479100	0.597350	0.459701
	H338	H	0.474198	0.609041	0.444883
	O339	O	0.486557	0.423064	0.498525
	H340	H	0.489982	0.425952	0.502376
	H341	H	0.489967	0.416459	0.495320
	O342	O	0.419704	0.445737	0.501601
	H343	H	0.424657	0.435119	0.499761
	H344	H	0.420768	0.444050	0.503875
	O345	O	0.514845	0.545894	0.581347
	H346	H	0.512456	0.546548	0.577655
	H347	H	0.507755	0.539642	0.589381
