data_Molecule from HDF5

_cell_length_a		16.309668
_cell_length_b		16.163750
_cell_length_c		16.363405
_cell_angle_alpha	89.388784
_cell_angle_beta	89.881043
_cell_angle_gamma	89.665137
_symmetry_space_group_name_H-M	'P 1'
_symmetry_Int_Tables_number		1

loop_
	_symmetry_equiv_pos_as_xyz
	x,y,z

loop_
	_atom_site_label
	_atom_site_type_symbol
	_atom_site_fract_x
	_atom_site_fract_y
	_atom_site_fract_z
	H0	H	0.395891	0.839455	0.719801
	H1	H	0.596383	0.167130	0.711269
	H2	H	0.601592	0.838376	0.285881
	H3	H	0.398770	0.165808	0.281597
	H4	H	0.714861	0.403076	0.838143
	H5	H	0.711270	0.598587	0.162912
	H6	H	0.278057	0.607088	0.838897
	H7	H	0.279497	0.396776	0.161823
	H8	H	0.832649	0.718971	0.402546
	H9	H	0.159050	0.716149	0.599338
	H10	H	0.832766	0.286626	0.601651
	H11	H	0.158458	0.285820	0.400668
	H12	H	0.834343	0.399890	0.720404
	H13	H	0.157692	0.604365	0.718753
	H14	H	0.832974	0.605759	0.284238
	H15	H	0.156845	0.398869	0.282771
	H16	H	0.398216	0.720621	0.837632
	H17	H	0.595400	0.714190	0.163223
	H18	H	0.596375	0.291095	0.835669
	H19	H	0.399557	0.283998	0.162401
	H20	H	0.713751	0.838608	0.402232
	H21	H	0.710778	0.167136	0.595338
	H22	H	0.280966	0.838548	0.603672
	H23	H	0.281866	0.166239	0.396523
	H24	H	0.894803	0.339442	0.219498
	H25	H	0.094160	0.666279	0.213762
	H26	H	0.100225	0.338745	0.785234
	H27	H	0.895441	0.665880	0.783382
	H28	H	0.216477	0.900102	0.338553
	H29	H	0.215588	0.102730	0.660456
	H30	H	0.781264	0.105560	0.337565
	H31	H	0.780839	0.901637	0.661363
	H32	H	0.334664	0.220223	0.898800
	H33	H	0.662703	0.213224	0.092993
	H34	H	0.334838	0.787721	0.100588
	H35	H	0.661570	0.788563	0.902955
	H36	H	0.337578	0.899279	0.219728
	H37	H	0.661276	0.101650	0.213913
	H38	H	0.336157	0.108297	0.779780
	H39	H	0.661025	0.903601	0.784143
	H40	H	0.896373	0.220958	0.338355
	H41	H	0.094422	0.214367	0.663118
	H42	H	0.097833	0.786308	0.337807
	H43	H	0.898378	0.787259	0.662943
	H44	H	0.214215	0.338473	0.901433
	H45	H	0.212042	0.665049	0.101411
	H46	H	0.783686	0.337070	0.101326
	H47	H	0.781739	0.666456	0.900322
	H48	H	0.401368	0.119388	0.587653
	H49	H	0.581552	0.887653	0.593271
	H50	H	0.581370	0.118146	0.402384
	H51	H	0.410987	0.884454	0.401696
	H52	H	0.591681	0.412828	0.114594
	H53	H	0.586496	0.594334	0.886584
	H54	H	0.396748	0.583730	0.115071
	H55	H	0.405222	0.410492	0.884390
	H56	H	0.110416	0.585356	0.401593
	H57	H	0.882027	0.586379	0.593868
	H58	H	0.111491	0.406213	0.592209
	H59	H	0.881994	0.413176	0.415756
	H60	H	0.109950	0.411613	0.591956
	H61	H	0.877347	0.596757	0.599058
	H62	H	0.114741	0.601531	0.403220
	H63	H	0.879907	0.416929	0.405449
	H64	H	0.413961	0.592092	0.111629
	H65	H	0.590770	0.598293	0.883415
	H66	H	0.584624	0.402979	0.115035
	H67	H	0.401839	0.415468	0.885515
	H68	H	0.591795	0.118424	0.412872
	H69	H	0.594744	0.886561	0.585407
	H70	H	0.408248	0.117987	0.592811
	H71	H	0.412663	0.889061	0.415827
	H72	H	0.895257	0.624655	0.101274
	H73	H	0.082767	0.384276	0.103353
	H74	H	0.093123	0.620222	0.910155
	H75	H	0.909322	0.385620	0.909987
	H76	H	0.080835	0.913229	0.611341
	H77	H	0.090297	0.087475	0.386334
	H78	H	0.898446	0.089004	0.615035
	H79	H	0.907771	0.912259	0.385067
	H80	H	0.611561	0.090501	0.908520
	H81	H	0.383890	0.093921	0.086398
	H82	H	0.612108	0.913220	0.089129
	H83	H	0.382748	0.916049	0.906537
	H84	H	0.616135	0.909198	0.100459
	H85	H	0.384772	0.087910	0.091064
	H86	H	0.615278	0.092730	0.896813
	H87	H	0.381077	0.910604	0.907669
	H88	H	0.907383	0.091695	0.613672
	H89	H	0.082254	0.097483	0.385924
	H90	H	0.088800	0.901930	0.617284
	H91	H	0.904055	0.909421	0.382762
	H92	H	0.083198	0.619092	0.902465
	H93	H	0.081036	0.390091	0.085544
	H94	H	0.914596	0.616205	0.094464
	H95	H	0.905848	0.386827	0.913796
	H96	H	0.408740	0.116907	0.584993
	H97	H	0.593605	0.881657	0.599962
	H98	H	0.594605	0.123400	0.398433
	H99	H	0.399146	0.883075	0.411558
	H100	H	0.595935	0.402459	0.118415
	H101	H	0.592057	0.592400	0.883932
	H102	H	0.399566	0.602948	0.119099
	H103	H	0.408279	0.415263	0.886321
	H104	H	0.109058	0.592734	0.416126
	H105	H	0.881652	0.597164	0.586802
	H106	H	0.112382	0.410012	0.596605
	H107	H	0.878151	0.406365	0.407712
	H108	H	0.896899	0.617416	0.080688
	H109	H	0.097555	0.383268	0.091943
	H110	H	0.082835	0.614366	0.914139
	H111	H	0.904633	0.383805	0.908933
	H112	H	0.095538	0.915160	0.614225
	H113	H	0.094256	0.099056	0.381654
	H114	H	0.900307	0.097352	0.617898
	H115	H	0.903361	0.913990	0.384430
	H116	H	0.615442	0.102447	0.905291
	H117	H	0.381336	0.094063	0.093856
	H118	H	0.616035	0.900383	0.091151
	H119	H	0.383678	0.913774	0.911549
	C120	C	0.376010	0.010397	0.620554
	C121	C	0.618418	0.993962	0.620023
	C122	C	0.619341	0.011340	0.377557
	C123	C	0.377137	0.993652	0.378349
	C124	C	0.620046	0.379060	0.008424
	C125	C	0.618259	0.622832	0.992063
	C126	C	0.374062	0.624336	0.008540
	C127	C	0.375684	0.381116	0.992071
	C128	C	0.003992	0.624283	0.378140
	C129	C	0.987728	0.623085	0.622138
	C130	C	0.004200	0.379618	0.623651
	C131	C	0.987219	0.381476	0.379499
	C132	C	0.873773	0.511151	0.122466
	C133	C	0.116508	0.493565	0.122496
	C134	C	0.117954	0.510450	0.879295
	C135	C	0.876200	0.493726	0.880435
	C136	C	0.119294	0.879944	0.508057
	C137	C	0.118217	0.123398	0.491438
	C138	C	0.873613	0.124397	0.508332
	C139	C	0.875614	0.881416	0.491347
	C140	C	0.506470	0.125962	0.874784
	C141	C	0.490787	0.121386	0.118779
	C142	C	0.507481	0.878652	0.123296
	C143	C	0.489920	0.882647	0.879042
	C144	C	0.376641	0.887918	0.679942
	C145	C	0.616244	0.117998	0.673947
	C146	C	0.620208	0.887587	0.323357
	C147	C	0.378593	0.116814	0.320386
	C148	C	0.676468	0.382650	0.886400
	C149	C	0.673054	0.618996	0.114583
	C150	C	0.317141	0.625553	0.887094
	C151	C	0.318619	0.378847	0.113467
	C152	C	0.881444	0.681259	0.381282
	C153	C	0.110216	0.678596	0.619882
	C154	C	0.881704	0.324457	0.621681
	C155	C	0.109459	0.323945	0.380447
	C156	C	0.882465	0.380564	0.681094
	C157	C	0.109503	0.622851	0.679329
	C158	C	0.881697	0.625041	0.322430
	C159	C	0.108536	0.380294	0.321529
	C160	C	0.376578	0.682211	0.886432
	C161	C	0.615295	0.676557	0.114669
	C162	C	0.617109	0.327372	0.884865
	C163	C	0.378023	0.322327	0.113707
	C164	C	0.675901	0.887627	0.381416
	C165	C	0.673160	0.117985	0.616307
	C166	C	0.319726	0.887495	0.621808
	C167	C	0.320284	0.116953	0.377498
	C168	C	0.875292	0.388038	0.180478
	C169	C	0.114757	0.617010	0.177038
	C170	C	0.118601	0.387533	0.823421
	C171	C	0.876040	0.616829	0.822447
	C172	C	0.176916	0.880783	0.386580
	C173	C	0.175891	0.121999	0.612728
	C174	C	0.818847	0.124815	0.386184
	C175	C	0.818924	0.881680	0.613093
	C176	C	0.383719	0.182428	0.877763
	C177	C	0.613655	0.176173	0.114678
	C178	C	0.384397	0.824170	0.121442
	C179	C	0.612592	0.826062	0.881685
	C180	C	0.385578	0.879918	0.180648
	C181	C	0.612892	0.120902	0.174873
	C182	C	0.384321	0.126418	0.818842
	C183	C	0.612336	0.883426	0.822812
	C184	C	0.876308	0.182127	0.386659
	C185	C	0.115713	0.177452	0.614049
	C186	C	0.118087	0.824144	0.386325
	C187	C	0.877652	0.824928	0.613784
	C188	C	0.175796	0.387434	0.881121
	C189	C	0.173129	0.616353	0.120946
	C190	C	0.819927	0.386838	0.121719
	C191	C	0.819487	0.617086	0.880564
	C192	C	0.399295	0.095882	0.595656
	C193	C	0.596433	0.907836	0.599077
	C194	C	0.595955	0.097512	0.398291
	C195	C	0.400586	0.907794	0.402722
	C196	C	0.597497	0.399873	0.093768
	C197	C	0.596218	0.601328	0.906767
	C198	C	0.396805	0.599954	0.093201
	C199	C	0.398701	0.406219	0.907321
	C200	C	0.089274	0.600187	0.400491
	C201	C	0.902354	0.600164	0.599761
	C202	C	0.089380	0.402408	0.600432
	C203	C	0.902209	0.405389	0.402844
	C204	C	0.895821	0.597281	0.099067
	C205	C	0.093739	0.408035	0.100144
	C206	C	0.093606	0.595979	0.902215
	C207	C	0.899741	0.407717	0.904001
	C208	C	0.095423	0.903359	0.592332
	C209	C	0.095571	0.101089	0.406846
	C210	C	0.895635	0.099838	0.593610
	C211	C	0.898381	0.904937	0.406000
	C212	C	0.591902	0.102242	0.897028
	C213	C	0.405550	0.098514	0.096944
	C214	C	0.592703	0.900875	0.100469
	C215	C	0.404699	0.906444	0.901890
	Zn216	Zn	0.497681	0.003371	0.748102
	Zn217	Zn	0.498990	0.001583	0.250047
	Zn218	Zn	0.747317	0.501387	0.000657
	Zn219	Zn	0.244992	0.501881	0.001319
	Zn220	Zn	-0.003304	0.751769	0.499989
	Zn221	Zn	-0.004073	0.252087	0.500806
	Zn222	Zn	-0.003717	0.502014	0.751972
	Zn223	Zn	-0.004888	0.502602	0.250106
	Zn224	Zn	0.497505	0.752240	0.000509
	Zn225	Zn	0.497607	0.251750	-0.001627
	Zn226	Zn	0.746044	0.002911	0.498811
	Zn227	Zn	0.247916	0.001736	0.499089
	N228	N	0.410872	0.965398	0.679177
	N229	N	0.583015	0.039935	0.676453
	N230	N	0.585752	0.965437	0.320698
	N231	N	0.413081	0.039004	0.320693
	N232	N	0.678545	0.414020	0.964216
	N233	N	0.675119	0.586409	0.037418
	N234	N	0.315312	0.590505	0.964046
	N235	N	0.317020	0.414570	0.036872
	N236	N	0.958478	0.680925	0.415208
	N237	N	0.033582	0.678897	0.585100
	N238	N	0.958529	0.323557	0.586823
	N239	N	0.033128	0.324452	0.415957
	N240	N	0.959633	0.414242	0.682386
	N241	N	0.032288	0.588890	0.680657
	N242	N	0.958898	0.590273	0.320331
	N243	N	0.031401	0.415351	0.320953
	N244	N	0.410994	0.681866	0.963051
	N245	N	0.581942	0.678858	0.037457
	N246	N	0.582672	0.324796	0.961614
	N247	N	0.412901	0.323729	0.036967
	N248	N	0.675556	0.965500	0.414448
	N249	N	0.674711	0.039965	0.583717
	N250	N	0.319312	0.964618	0.585401
	N251	N	0.319166	0.039277	0.412656
	N252	N	0.908102	0.466135	0.181118
	N253	N	0.080012	0.539749	0.177897
	N254	N	0.083104	0.465090	0.822386
	N255	N	0.910629	0.539075	0.822484
	N256	N	0.177912	0.914479	0.463353
	N257	N	0.177511	0.089143	0.535539
	N258	N	0.817231	0.089325	0.462864
	N259	N	0.817706	0.916321	0.535926
	N260	N	0.460786	0.182425	0.911621
	N261	N	0.536768	0.176691	0.080408
	N262	N	0.461010	0.823520	0.086286
	N263	N	0.535416	0.825514	0.915825
	N264	N	0.463105	0.912791	0.182218
	N265	N	0.535464	0.087561	0.177530
	N266	N	0.461820	0.092207	0.816768
	N267	N	0.535083	0.918081	0.821248
	N268	N	0.909470	0.182062	0.463699
	N269	N	0.080499	0.178593	0.537709
	N270	N	0.083118	0.823224	0.462868
	N271	N	0.912195	0.824855	0.537038
	N272	N	0.175471	0.464969	0.914917
	N273	N	0.174529	0.538600	0.087862
	N274	N	0.818744	0.464465	0.086301
	N275	N	0.819583	0.539558	0.916076
	O276	O	1.004802	0.125356	0.862313
	H277	H	1.001412	0.130941	0.857026
	H278	H	1.007643	0.122910	0.867393
	O279	O	0.436243	0.591514	0.520303
	H280	H	0.436893	0.602972	0.522524
	H281	H	0.452879	0.591146	0.506484
	O282	O	0.436047	0.525566	0.421991
	H283	H	0.437604	0.521925	0.422646
	H284	H	0.425053	0.504702	0.428630
	O285	O	0.581945	0.602570	0.612433
	H286	H	0.573513	0.608753	0.619557
	H287	H	0.579926	0.591328	0.618810
	O288	O	0.440226	0.456528	0.342612
	H289	H	0.449735	0.462727	0.350336
	H290	H	0.428654	0.455378	0.334946
	O291	O	0.042178	-0.004645	0.936258
	H292	H	0.032697	-0.003205	0.938316
	H293	H	0.043116	-0.018682	0.922103
	O294	O	0.988760	0.852008	0.075164
	H295	H	0.976489	0.849202	0.073119
	H296	H	0.982517	0.846228	0.078913
	O297	O	1.050876	0.891373	-0.008785
	H298	H	1.048069	0.892937	-0.008464
	H299	H	1.048139	0.898817	-0.005112
	O300	O	0.502097	0.369051	0.471287
	H301	H	0.514817	0.364574	0.484746
	H302	H	0.493476	0.367937	0.467646
	O303	O	0.536411	0.468701	0.424384
	H304	H	0.551571	0.465734	0.419795
	H305	H	0.535389	0.467522	0.435586
	O306	O	0.501752	0.442073	0.438183
	H307	H	0.505418	0.455172	0.430823
	H308	H	0.501497	0.446209	0.432183
	O309	O	0.620479	0.443764	0.504228
	H310	H	0.608634	0.445047	0.519779
	H311	H	0.605294	0.452890	0.505643
	O312	O	0.950737	0.966292	0.913041
	H313	H	0.944778	0.953491	0.905182
	H314	H	0.948106	0.969693	0.916352
	O315	O	1.080080	0.988907	-0.121076
	H316	H	1.095671	0.991642	-0.122875
	H317	H	1.078933	0.983750	-0.120072
	O318	O	0.368256	0.533670	0.621457
	H319	H	0.363365	0.532849	0.631524
	H320	H	0.365763	0.537834	0.616625
	O321	O	0.401406	0.618670	0.560711
	H322	H	0.400977	0.626273	0.563758
	H323	H	0.410018	0.623945	0.557462
	O324	O	0.007409	1.072614	1.060743
	H325	H	0.009519	1.077099	1.063657
	H326	H	0.031303	1.079156	1.058842
	O327	O	0.095036	1.098372	1.018525
	H328	H	0.098881	1.112396	1.016258
	H329	H	0.089859	1.092662	1.032513
	O330	O	0.091081	0.122122	0.065235
	H331	H	0.096795	0.139104	0.068324
	H332	H	0.096433	0.115157	0.085164
	O333	O	0.502006	0.499226	0.555053
	H334	H	0.504439	0.486477	0.556477
	H335	H	0.502620	0.506847	0.561876
	O336	O	0.023001	-0.018149	-0.048117
	H337	H	0.022193	-0.011317	-0.051736
	H338	H	0.012020	-0.013692	-0.042095
	O339	O	-0.046778	0.004046	0.080096
	H340	H	-0.048753	0.000929	0.078591
	H341	H	-0.041081	0.011651	0.080340
	O342	O	0.392056	0.561204	0.360297
	H343	H	0.394887	0.554962	0.363984
	H344	H	0.386026	0.555941	0.345182
	O345	O	0.129153	0.874473	0.917133
	H346	H	0.146550	0.871146	0.915027
	H347	H	0.123794	0.876918	0.914584
	O348	O	0.553642	0.431070	0.571557
	H349	H	0.548929	0.428811	0.572175
	H350	H	0.556815	0.433313	0.560163
	O351	O	0.392072	0.560626	0.397975
	H352	H	0.385696	0.576327	0.385352
	H353	H	0.379710	0.554318	0.397383
	O354	O	-0.135978	0.961504	0.128308
	H355	H	-0.138235	0.968654	0.116844
	H356	H	-0.140980	0.961057	0.132535
	O357	O	0.343993	0.378204	0.704696
	H358	H	0.336655	0.365839	0.713611
	H359	H	0.348455	0.379770	0.717759
	O360	O	0.967611	-0.100860	1.033380
	H361	H	0.971603	-0.100087	1.030418
	H362	H	0.973778	-0.094504	1.037329
	O363	O	0.468352	0.553339	0.509342
	H364	H	0.470184	0.562021	0.521055
	H365	H	0.490186	0.553473	0.487938
	O366	O	0.428120	0.374016	0.650084
	H367	H	0.406922	0.376351	0.643024
	H368	H	0.432453	0.368767	0.656768
	O369	O	0.855900	0.030450	-0.024267
	H370	H	0.842030	0.030514	-0.017619
	H371	H	0.852919	0.034489	-0.036976
	O372	O	0.527719	0.519460	0.505984
	H373	H	0.535833	0.525394	0.498776
	H374	H	0.525633	0.519726	0.489206
	O375	O	0.999098	-0.071910	0.933322
	H376	H	1.004282	-0.073849	0.926773
	H377	H	0.985921	-0.075646	0.944425
	O378	O	0.059544	1.018896	0.061216
	H379	H	0.058228	1.009957	0.066794
	H380	H	0.065670	1.020443	0.057373
	O381	O	0.460521	0.617141	0.422841
	H382	H	0.466604	0.634460	0.419090
	H383	H	0.451752	0.611642	0.434210
	O384	O	0.993502	1.073580	-0.056678
	H385	H	0.988270	1.081982	-0.056292
	H386	H	0.997146	1.071944	-0.056078
	O387	O	0.881328	0.063730	1.003492
	H388	H	0.884460	0.065146	0.997900
	H389	H	0.875251	0.055307	1.009363
	O390	O	1.127614	1.108729	0.134869
	H391	H	1.123510	1.095889	0.126577
	H392	H	1.124271	1.093809	0.143308
	O393	O	0.565783	0.460908	0.478410
	H394	H	0.557230	0.458290	0.491106
	H395	H	0.561119	0.468144	0.483135
