data_Molecule from HDF5

_cell_length_a		16.137332
_cell_length_b		16.431409
_cell_length_c		16.263264
_cell_angle_alpha	90.238062
_cell_angle_beta	89.994133
_cell_angle_gamma	89.988387
_symmetry_space_group_name_H-M	'P 1'
_symmetry_Int_Tables_number		1

loop_
	_symmetry_equiv_pos_as_xyz
	x,y,z

loop_
	_atom_site_label
	_atom_site_type_symbol
	_atom_site_fract_x
	_atom_site_fract_y
	_atom_site_fract_z
	H0	H	0.395413	0.848048	0.719372
	H1	H	0.600616	0.169864	0.714987
	H2	H	0.600374	0.847272	0.279312
	H3	H	0.398405	0.170422	0.281963
	H4	H	0.710723	0.411291	0.834455
	H5	H	0.714660	0.606563	0.162776
	H6	H	0.285260	0.606125	0.835510
	H7	H	0.286091	0.411360	0.163413
	H8	H	0.836134	0.721304	0.395649
	H9	H	0.162831	0.722051	0.599526
	H10	H	0.836337	0.289719	0.598165
	H11	H	0.163331	0.288471	0.395858
	H12	H	0.835215	0.406400	0.711668
	H13	H	0.163902	0.604958	0.712191
	H14	H	0.834117	0.601219	0.287053
	H15	H	0.164180	0.405485	0.281990
	H16	H	0.396798	0.727045	0.837133
	H17	H	0.603063	0.727770	0.161166
	H18	H	0.603564	0.289722	0.837592
	H19	H	0.397346	0.291625	0.162040
	H20	H	0.712124	0.844670	0.400173
	H21	H	0.716388	0.168838	0.598443
	H22	H	0.283067	0.845053	0.597865
	H23	H	0.280828	0.168948	0.399354
	H24	H	0.896938	0.344865	0.214808
	H25	H	0.099968	0.668191	0.217539
	H26	H	0.101215	0.345141	0.779871
	H27	H	0.898110	0.667315	0.780351
	H28	H	0.216235	0.904898	0.335156
	H29	H	0.213042	0.104501	0.661257
	H30	H	0.786926	0.101087	0.333836
	H31	H	0.785709	0.909987	0.662559
	H32	H	0.336903	0.225888	0.898016
	H33	H	0.663461	0.226250	0.102291
	H34	H	0.336507	0.792652	0.102190
	H35	H	0.662996	0.792630	0.896353
	H36	H	0.334995	0.912165	0.212161
	H37	H	0.664201	0.110209	0.214919
	H38	H	0.335600	0.109137	0.783875
	H39	H	0.663365	0.909610	0.783481
	H40	H	0.897205	0.222714	0.335572
	H41	H	0.106229	0.226368	0.658699
	H42	H	0.101880	0.787530	0.335769
	H43	H	0.895169	0.787087	0.660502
	H44	H	0.218045	0.345397	0.897854
	H45	H	0.215347	0.670076	0.099808
	H46	H	0.783067	0.344814	0.095552
	H47	H	0.783186	0.668703	0.897939
	H48	H	0.409268	0.120779	0.588981
	H49	H	0.590750	0.892465	0.591743
	H50	H	0.590330	0.122279	0.406694
	H51	H	0.396994	0.891623	0.410046
	H52	H	0.594458	0.417726	0.116338
	H53	H	0.586592	0.610707	0.882039
	H54	H	0.423292	0.597022	0.108990
	H55	H	0.416721	0.428579	0.889800
	H56	H	0.116562	0.597937	0.407608
	H57	H	0.884191	0.599155	0.583473
	H58	H	0.113830	0.418918	0.584105
	H59	H	0.883912	0.414234	0.409737
	H60	H	0.118193	0.415833	0.594252
	H61	H	0.882788	0.592071	0.590593
	H62	H	0.116679	0.596922	0.408150
	H63	H	0.881617	0.414606	0.402459
	H64	H	0.407541	0.619032	0.120782
	H65	H	0.600240	0.600295	0.880465
	H66	H	0.588290	0.418424	0.113928
	H67	H	0.418355	0.403655	0.883050
	H68	H	0.595433	0.122952	0.408327
	H69	H	0.590252	0.892897	0.591455
	H70	H	0.403870	0.122109	0.590202
	H71	H	0.411197	0.891139	0.392051
	H72	H	0.912859	0.619483	0.092656
	H73	H	0.089197	0.394080	0.088453
	H74	H	0.086450	0.621475	0.899287
	H75	H	0.905398	0.388795	0.897569
	H76	H	0.090638	0.913003	0.614083
	H77	H	0.083857	0.098815	0.383051
	H78	H	0.904492	0.103103	0.616074
	H79	H	0.915565	0.909537	0.384223
	H80	H	0.620547	0.101705	0.899541
	H81	H	0.381179	0.109112	0.087788
	H82	H	0.618959	0.915167	0.092535
	H83	H	0.382560	0.919704	0.906700
	H84	H	0.617115	0.914614	0.086082
	H85	H	0.385750	0.097575	0.085510
	H86	H	0.617424	0.107589	0.914386
	H87	H	0.381759	0.915065	0.909450
	H88	H	0.908117	0.094470	0.612926
	H89	H	0.092079	0.100814	0.379592
	H90	H	0.088408	0.913788	0.612957
	H91	H	0.903370	0.905037	0.378687
	H92	H	0.089473	0.619159	0.911363
	H93	H	0.095432	0.392445	0.087783
	H94	H	0.904608	0.620817	0.088383
	H95	H	0.913282	0.394379	0.906456
	H96	H	0.407913	0.122446	0.593575
	H97	H	0.590893	0.892523	0.591469
	H98	H	0.594024	0.124730	0.402733
	H99	H	0.418452	0.899352	0.411913
	H100	H	0.590391	0.412652	0.116913
	H101	H	0.585251	0.594008	0.887127
	H102	H	0.395423	0.593698	0.116471
	H103	H	0.395342	0.416318	0.879614
	H104	H	0.117123	0.597233	0.407409
	H105	H	0.879971	0.601579	0.592000
	H106	H	0.117485	0.408410	0.585768
	H107	H	0.881140	0.407851	0.406251
	H108	H	0.906030	0.623106	0.096306
	H109	H	0.092711	0.391713	0.093467
	H110	H	0.099035	0.623366	0.903890
	H111	H	0.900452	0.391395	0.909286
	H112	H	0.088665	0.911848	0.613932
	H113	H	0.090732	0.092715	0.382474
	H114	H	0.913971	0.101990	0.613346
	H115	H	0.904510	0.918628	0.383768
	H116	H	0.612958	0.093003	0.910797
	H117	H	0.381454	0.100587	0.097187
	H118	H	0.615471	0.920752	0.089043
	H119	H	0.383982	0.919209	0.912037
	C120	C	0.376763	0.015698	0.621021
	C121	C	0.620633	0.999448	0.620629
	C122	C	0.622245	0.016526	0.375739
	C123	C	0.377693	1.000194	0.375814
	C124	C	0.620901	0.387011	0.007911
	C125	C	0.621279	0.630872	0.990603
	C126	C	0.378422	0.631440	0.007630
	C127	C	0.379166	0.387069	0.991329
	C128	C	0.008178	0.626280	0.377761
	C129	C	0.990726	0.627227	0.618925
	C130	C	0.008453	0.384753	0.618236
	C131	C	0.990885	0.382945	0.375977
	C132	C	0.877405	0.514532	0.120641
	C133	C	0.121937	0.499175	0.120791
	C134	C	0.122036	0.514775	0.875747
	C135	C	0.876944	0.498212	0.875389
	C136	C	0.120370	0.883579	0.506460
	C137	C	0.119768	0.127220	0.489161
	C138	C	0.878809	0.127483	0.506395
	C139	C	0.877734	0.883294	0.490099
	C140	C	0.508758	0.130380	0.878373
	C141	C	0.491508	0.131325	0.120539
	C142	C	0.508574	0.888503	0.119296
	C143	C	0.490775	0.888149	0.878364
	C144	C	0.376707	0.895237	0.679267
	C145	C	0.620159	0.121207	0.676771
	C146	C	0.620014	0.895223	0.318572
	C147	C	0.378205	0.121867	0.320444
	C148	C	0.674907	0.389564	0.884247
	C149	C	0.677351	0.627957	0.113438
	C150	C	0.322629	0.627738	0.884690
	C151	C	0.323618	0.390346	0.114552
	C152	C	0.884962	0.682585	0.377272
	C153	C	0.114136	0.683235	0.618340
	C154	C	0.885065	0.328382	0.617130
	C155	C	0.114588	0.327129	0.376254
	C156	C	0.884454	0.386338	0.673786
	C157	C	0.114514	0.624970	0.674393
	C158	C	0.884016	0.622749	0.323127
	C159	C	0.114730	0.385140	0.319664
	C160	C	0.378035	0.687741	0.885352
	C161	C	0.621945	0.688230	0.112775
	C162	C	0.621339	0.329408	0.885657
	C163	C	0.378775	0.330549	0.113566
	C164	C	0.675703	0.893756	0.378648
	C165	C	0.677749	0.120708	0.618616
	C166	C	0.320881	0.893831	0.618851
	C167	C	0.319558	0.121128	0.378304
	C168	C	0.877888	0.393043	0.176178
	C169	C	0.120109	0.620424	0.178280
	C170	C	0.121096	0.393297	0.818977
	C171	C	0.878378	0.619389	0.818917
	C172	C	0.177833	0.884792	0.383909
	C173	C	0.176157	0.125489	0.611973
	C174	C	0.823584	0.123283	0.383113
	C175	C	0.822344	0.887579	0.613027
	C176	C	0.385604	0.187350	0.878771
	C177	C	0.614587	0.187719	0.120979
	C178	C	0.385287	0.831637	0.120363
	C179	C	0.613854	0.831169	0.877709
	C180	C	0.384619	0.891040	0.174957
	C181	C	0.614944	0.129683	0.176895
	C182	C	0.384936	0.129054	0.822030
	C183	C	0.614195	0.889390	0.821514
	C184	C	0.878540	0.183668	0.383943
	C185	C	0.122581	0.186148	0.610564
	C186	C	0.121046	0.826509	0.384140
	C187	C	0.877161	0.826889	0.612089
	C188	C	0.179276	0.393568	0.877605
	C189	C	0.177345	0.621224	0.119712
	C190	C	0.820954	0.393116	0.117013
	C191	C	0.821387	0.620059	0.877645
	C192	C	0.400158	0.099893	0.597753
	C193	C	0.597389	0.914536	0.598083
	C194	C	0.599884	0.101383	0.398922
	C195	C	0.401737	0.915883	0.398286
	C196	C	0.597843	0.409817	0.093428
	C197	C	0.597506	0.608263	0.905393
	C198	C	0.401867	0.609671	0.093209
	C199	C	0.403232	0.409539	0.906143
	C200	C	0.094661	0.603891	0.400890
	C201	C	0.904662	0.604360	0.595599
	C202	C	0.094244	0.407620	0.595060
	C203	C	0.904774	0.405643	0.399295
	C204	C	0.900928	0.599266	0.098836
	C205	C	0.098933	0.414752	0.096990
	C206	C	0.098467	0.599282	0.898313
	C207	C	0.899590	0.413502	0.897815
	C208	C	0.096285	0.906362	0.591695
	C209	C	0.095938	0.104240	0.403837
	C210	C	0.902115	0.106146	0.592062
	C211	C	0.901039	0.904804	0.404360
	C212	C	0.594732	0.107331	0.901427
	C213	C	0.405199	0.108966	0.097202
	C214	C	0.594697	0.910447	0.096032
	C215	C	0.405042	0.911083	0.902441
	Zn216	Zn	0.499190	0.008665	0.750289
	Zn217	Zn	0.499957	0.009783	0.246646
	Zn218	Zn	0.748418	0.507458	-0.001706
	Zn219	Zn	0.251090	0.508199	-0.000799
	Zn220	Zn	-0.000814	0.754541	0.497910
	Zn221	Zn	0.000349	0.256076	0.497365
	Zn222	Zn	-0.001096	0.505915	0.746027
	Zn223	Zn	-0.000519	0.505981	0.250013
	Zn224	Zn	0.499664	0.760462	-0.000889
	Zn225	Zn	0.500466	0.258479	0.000027
	Zn226	Zn	0.749818	0.006316	0.498664
	Zn227	Zn	0.247545	0.006351	0.498064
	N228	N	0.410731	0.971947	0.680578
	N229	N	0.585372	0.044777	0.678188
	N230	N	0.587537	0.972688	0.316603
	N231	N	0.413655	0.045852	0.319000
	N232	N	0.674814	0.424628	0.961117
	N233	N	0.677062	0.593078	0.036411
	N234	N	0.322733	0.593576	0.961845
	N235	N	0.323792	0.424811	0.037674
	N236	N	0.963329	0.684782	0.410554
	N237	N	0.035934	0.684819	0.584532
	N238	N	0.963120	0.327342	0.583237
	N239	N	0.036775	0.325597	0.410241
	N240	N	0.962050	0.420730	0.674642
	N241	N	0.036659	0.591093	0.675059
	N242	N	0.961772	0.588442	0.323348
	N243	N	0.036651	0.419159	0.319278
	N244	N	0.411891	0.690234	0.962827
	N245	N	0.587758	0.690305	0.035343
	N246	N	0.588313	0.327556	0.963672
	N247	N	0.412659	0.328554	0.035969
	N248	N	0.677250	0.970129	0.413302
	N249	N	0.678056	0.044119	0.584299
	N250	N	0.320910	0.969461	0.583119
	N251	N	0.319058	0.044406	0.412000
	N252	N	0.912643	0.469445	0.178325
	N253	N	0.086160	0.543584	0.179068
	N254	N	0.086012	0.469562	0.817788
	N255	N	0.912334	0.542566	0.817419
	N256	N	0.177565	0.919581	0.461025
	N257	N	0.174414	0.089427	0.535667
	N258	N	0.823835	0.089007	0.460185
	N259	N	0.822499	0.921783	0.536096
	N260	N	0.463590	0.188424	0.912927
	N261	N	0.536833	0.188623	0.086480
	N262	N	0.463400	0.829910	0.086258
	N263	N	0.536030	0.830144	0.912298
	N264	N	0.462203	0.925637	0.174612
	N265	N	0.537336	0.095171	0.176531
	N266	N	0.462478	0.094294	0.821733
	N267	N	0.536648	0.923839	0.821649
	N268	N	0.912275	0.186342	0.461563
	N269	N	0.088110	0.187161	0.533197
	N270	N	0.086297	0.825293	0.461248
	N271	N	0.910871	0.824081	0.534434
	N272	N	0.179922	0.470115	0.912173
	N273	N	0.178657	0.544868	0.084731
	N274	N	0.820869	0.469609	0.083001
	N275	N	0.820489	0.543884	0.912032
	O276	O	0.947176	0.048811	1.043973
	H277	H	0.960315	0.058298	1.050755
	H278	H	0.959758	0.039647	1.048651
	O279	O	0.486168	0.489836	0.477530
	H280	H	0.483287	0.481483	0.477980
	H281	H	0.493587	0.481074	0.483089
	O282	O	0.534496	0.475264	0.479246
	H283	H	0.545601	0.469571	0.489651
	H284	H	0.539801	0.462504	0.475312
	O285	O	0.477133	0.419958	0.473254
	H286	H	0.485535	0.419027	0.475654
	H287	H	0.467770	0.436914	0.486249
	O288	O	0.448294	0.622702	0.523763
	H289	H	0.442677	0.617281	0.520831
	H290	H	0.444614	0.632890	0.510859
	O291	O	-0.078287	0.059146	0.877724
	H292	H	-0.087750	0.061692	0.879995
	H293	H	-0.073674	0.067594	0.884087
	O294	O	1.016295	1.036424	0.000127
	H295	H	1.001648	1.031624	-0.004031
	H296	H	1.014396	1.034113	-0.004179
	O297	O	1.101549	1.114840	0.086225
	H298	H	1.099213	1.109274	0.080566
	H299	H	1.099684	1.117234	0.099020
	O300	O	0.592796	0.673921	0.433107
	H301	H	0.594634	0.667044	0.431967
	H302	H	0.592799	0.677970	0.420813
	O303	O	0.600474	0.432929	0.562672
	H304	H	0.596385	0.432334	0.573719
	H305	H	0.595975	0.431670	0.580730
	O306	O	0.485188	0.606341	0.579713
	H307	H	0.489582	0.609996	0.583350
	H308	H	0.499479	0.613884	0.581848
	O309	O	0.466079	0.615446	0.639071
	H310	H	0.473681	0.616019	0.641861
	H311	H	0.467378	0.623869	0.650981
	O312	O	0.879740	0.908993	0.962215
	H313	H	0.878629	0.907768	0.964287
	H314	H	0.871486	0.893857	0.961205
	O315	O	1.036223	1.046507	-0.080265
	H316	H	1.026534	1.047540	-0.072734
	H317	H	1.035265	1.044520	-0.077342
	O318	O	0.508711	0.374746	0.419407
	H319	H	0.512989	0.370363	0.424259
	H320	H	0.514326	0.374900	0.424855
	O321	O	0.540498	0.516238	0.440535
	H322	H	0.545772	0.524399	0.438899
	H323	H	0.541478	0.494621	0.450020
	O324	O	0.008970	0.916166	0.912463
	H325	H	0.005573	0.913803	0.916500
	H326	H	0.020944	0.911308	0.912830
	O327	O	-0.049954	0.954796	1.040533
	H328	H	-0.039886	0.957237	1.032671
	H329	H	-0.057931	0.967448	1.037058
	O330	O	0.082517	-0.005782	-0.066554
	H331	H	0.090093	-0.008157	-0.050882
	H332	H	0.081864	0.008214	-0.068830
	O333	O	0.454242	0.549970	0.538047
	H334	H	0.455775	0.567757	0.532715
	H335	H	0.451000	0.549966	0.544479
	O336	O	-0.414717	-0.334444	-0.457879
	H337	H	-0.415039	-0.334154	-0.462477
	H338	H	-0.417704	-0.341893	-0.469211
	O339	O	0.138656	-0.109823	-0.106480
	H340	H	0.140400	-0.102203	-0.114825
	H341	H	0.147873	-0.116450	-0.113414
	O342	O	0.463330	0.412215	0.563359
	H343	H	0.458601	0.426003	0.572710
	H344	H	0.456635	0.411779	0.567446
	O345	O	0.032528	1.070006	0.951736
	H346	H	0.031763	1.070878	0.957501
	H347	H	0.026753	1.063899	0.936573
	O348	O	0.432585	0.489146	0.542708
	H349	H	0.434067	0.487268	0.534307
	H350	H	0.426518	0.479804	0.540697
	O351	O	0.560311	0.606626	0.441819
	H352	H	0.550319	0.605034	0.438979
	H353	H	0.554070	0.598614	0.433627
	O354	O	-0.005306	1.058634	0.085488
	H355	H	-0.002570	1.061634	0.094452
	H356	H	-0.009027	1.054142	0.085315
	O357	O	0.090698	0.011029	1.057129
	H358	H	0.083872	0.031814	1.056282
	H359	H	0.100295	0.006768	1.063848
	O360	O	0.871896	-0.090803	1.053486
	H361	H	0.884952	-0.087611	1.063603
	H362	H	0.868519	-0.096594	1.057598
	O363	O	0.449714	0.470139	0.409480
	H364	H	0.457981	0.467687	0.410175
	H365	H	0.453381	0.469473	0.403015
	O366	O	0.461489	0.399692	0.536668
	H367	H	0.452789	0.404143	0.531105
	H368	H	0.459602	0.403555	0.536394
	O369	O	0.965942	0.034920	-0.048163
	H370	H	0.955022	0.045202	-0.052114
	H371	H	0.947521	0.017751	-0.052017
	O372	O	0.544811	0.535107	0.471642
	H373	H	0.542639	0.531373	0.471712
	H374	H	0.550627	0.531941	0.481642
	O375	O	1.057027	-0.102026	0.963459
	H376	H	1.056605	-0.092901	0.964753
	H377	H	1.071043	-0.102127	0.966470
	O378	O	-0.097268	1.114663	0.085258
	H379	H	-0.096622	1.113351	0.081134
	H380	H	-0.095860	1.104495	0.082698
	O381	O	0.600645	0.324575	0.741893
	H382	H	0.599643	0.326614	0.738571
	H383	H	0.591262	0.321851	0.745869
	O384	O	1.064899	1.072885	0.037353
	H385	H	1.056454	1.072920	0.053517
	H386	H	1.058943	1.072094	0.035699
	O387	O	0.902689	-0.059269	1.133814
	H388	H	0.896725	-0.063816	1.140601
	H389	H	0.914341	-0.080168	1.128170
	O390	O	1.100877	1.076866	0.011918
	H391	H	1.097382	1.082320	0.019043
	H392	H	1.102978	1.083167	-0.000459
	O393	O	0.472675	0.447052	0.459888
	H394	H	0.462389	0.441762	0.449610
	H395	H	0.456459	0.450701	0.462418
