data_Molecule from HDF5

_cell_length_a		16.277751
_cell_length_b		16.352156
_cell_length_c		16.158934
_cell_angle_alpha	90.398139
_cell_angle_beta	90.440810
_cell_angle_gamma	90.118585
_symmetry_space_group_name_H-M	'P 1'
_symmetry_Int_Tables_number		1

loop_
	_symmetry_equiv_pos_as_xyz
	x,y,z

loop_
	_atom_site_label
	_atom_site_type_symbol
	_atom_site_fract_x
	_atom_site_fract_y
	_atom_site_fract_z
	H0	H	0.402462	0.838338	0.714113
	H1	H	0.598670	0.165643	0.719931
	H2	H	0.595233	0.839688	0.287925
	H3	H	0.399644	0.165975	0.289696
	H4	H	0.708112	0.404786	0.836603
	H5	H	0.714682	0.605166	0.166037
	H6	H	0.282462	0.601927	0.837759
	H7	H	0.284746	0.406761	0.167033
	H8	H	0.834870	0.716414	0.399521
	H9	H	0.160236	0.719505	0.606197
	H10	H	0.835184	0.285509	0.599733
	H11	H	0.161864	0.284391	0.401446
	H12	H	0.833951	0.403113	0.713762
	H13	H	0.160538	0.601340	0.720324
	H14	H	0.833552	0.595688	0.288344
	H15	H	0.162593	0.402351	0.287704
	H16	H	0.397657	0.716774	0.838484
	H17	H	0.599146	0.718860	0.166714
	H18	H	0.597230	0.284958	0.838983
	H19	H	0.399186	0.289767	0.167541
	H20	H	0.711533	0.838645	0.402385
	H21	H	0.717725	0.163893	0.605852
	H22	H	0.283081	0.839285	0.600256
	H23	H	0.280953	0.164470	0.403173
	H24	H	0.900925	0.337829	0.211541
	H25	H	0.097922	0.665018	0.220968
	H26	H	0.093934	0.338762	0.788711
	H27	H	0.896242	0.664049	0.784548
	H28	H	0.212401	0.900872	0.337844
	H29	H	0.213284	0.101439	0.667254
	H30	H	0.783804	0.096608	0.337330
	H31	H	0.784283	0.901366	0.666681
	H32	H	0.335156	0.217558	0.901342
	H33	H	0.660753	0.222257	0.107850
	H34	H	0.335723	0.787330	0.102727
	H35	H	0.661271	0.785869	0.903024
	H36	H	0.333780	0.907601	0.213117
	H37	H	0.661891	0.103063	0.220670
	H38	H	0.334600	0.099753	0.787417
	H39	H	0.662732	0.904073	0.791010
	H40	H	0.897257	0.214825	0.338047
	H41	H	0.101540	0.219768	0.666480
	H42	H	0.097156	0.784221	0.338575
	H43	H	0.898182	0.785331	0.666105
	H44	H	0.216509	0.341882	0.898266
	H45	H	0.213910	0.666228	0.105001
	H46	H	0.779752	0.341551	0.101170
	H47	H	0.780050	0.665351	0.900610
	H48	H	0.399273	0.118437	0.591782
	H49	H	0.587475	0.887740	0.595712
	H50	H	0.586474	0.116034	0.413049
	H51	H	0.405937	0.885471	0.403290
	H52	H	0.596677	0.406327	0.122959
	H53	H	0.587540	0.599510	0.884791
	H54	H	0.412587	0.599155	0.119769
	H55	H	0.406660	0.406251	0.884259
	H56	H	0.113910	0.595787	0.414253
	H57	H	0.881868	0.595591	0.592355
	H58	H	0.110791	0.412692	0.586648
	H59	H	0.883457	0.415511	0.402580
	H60	H	0.115269	0.414922	0.603917
	H61	H	0.883223	0.592147	0.590806
	H62	H	0.113326	0.590869	0.412356
	H63	H	0.877510	0.397860	0.400106
	H64	H	0.403539	0.600947	0.122305
	H65	H	0.591528	0.593765	0.883612
	H66	H	0.593545	0.421400	0.117481
	H67	H	0.402656	0.410666	0.884898
	H68	H	0.595882	0.116623	0.418749
	H69	H	0.594821	0.886598	0.592753
	H70	H	0.407270	0.119644	0.603449
	H71	H	0.408120	0.888674	0.412389
	H72	H	0.911424	0.616144	0.093503
	H73	H	0.090501	0.388556	0.090592
	H74	H	0.093576	0.617180	0.919676
	H75	H	0.904467	0.387447	0.909101
	H76	H	0.098480	0.903615	0.623381
	H77	H	0.085976	0.095715	0.386372
	H78	H	0.905339	0.099816	0.621984
	H79	H	0.902017	0.906918	0.383674
	H80	H	0.613266	0.091996	0.913625
	H81	H	0.384727	0.096482	0.087146
	H82	H	0.614312	0.909276	0.093611
	H83	H	0.380413	0.902996	0.910519
	H84	H	0.614658	0.913311	0.097966
	H85	H	0.382650	0.090619	0.101191
	H86	H	0.615038	0.097614	0.911691
	H87	H	0.383744	0.912119	0.914905
	H88	H	0.905261	0.088643	0.619030
	H89	H	0.092604	0.094634	0.383878
	H90	H	0.092852	0.921364	0.616462
	H91	H	0.905880	0.909669	0.385670
	H92	H	0.092572	0.620782	0.905074
	H93	H	0.095289	0.386908	0.092172
	H94	H	0.899998	0.619767	0.091850
	H95	H	0.900476	0.387022	0.910224
	H96	H	0.412871	0.114854	0.591803
	H97	H	0.593975	0.884428	0.601284
	H98	H	0.595546	0.120760	0.407515
	H99	H	0.398699	0.885235	0.410306
	H100	H	0.581762	0.409420	0.117668
	H101	H	0.585062	0.593091	0.886156
	H102	H	0.405220	0.592164	0.118398
	H103	H	0.407739	0.411828	0.886635
	H104	H	0.115184	0.594562	0.409633
	H105	H	0.881163	0.592588	0.594119
	H106	H	0.117388	0.398876	0.595783
	H107	H	0.884255	0.403467	0.417023
	H108	H	0.905469	0.620837	0.102067
	H109	H	0.091488	0.387327	0.095953
	H110	H	0.080260	0.615109	0.911624
	H111	H	0.901110	0.386640	0.906088
	H112	H	0.079248	0.907041	0.617716
	H113	H	0.088704	0.088796	0.387036
	H114	H	0.914646	0.094650	0.617945
	H115	H	0.905939	0.904957	0.385241
	H116	H	0.613863	0.096112	0.916785
	H117	H	0.379216	0.104761	0.098233
	H118	H	0.616754	0.907798	0.098532
	H119	H	0.381340	0.911151	0.903649
	C120	C	0.377317	0.010338	0.624110
	C121	C	0.621970	0.993677	0.626474
	C122	C	0.619800	0.010565	0.382498
	C123	C	0.375235	0.994215	0.380327
	C124	C	0.618693	0.382351	0.011075
	C125	C	0.618944	0.624873	0.993489
	C126	C	0.376779	0.625398	0.011222
	C127	C	0.377131	0.382159	0.994363
	C128	C	0.006066	0.621464	0.381678
	C129	C	0.989512	0.623114	0.623863
	C130	C	0.006810	0.379920	0.623467
	C131	C	0.990043	0.377508	0.378443
	C132	C	0.876739	0.510853	0.123010
	C133	C	0.121136	0.494756	0.124466
	C134	C	0.118507	0.510987	0.881459
	C135	C	0.873772	0.494148	0.879202
	C136	C	0.118989	0.880704	0.510556
	C137	C	0.119770	0.123204	0.493988
	C138	C	0.878070	0.122059	0.510760
	C139	C	0.876503	0.878705	0.493515
	C140	C	0.506362	0.123658	0.882961
	C141	C	0.489876	0.126412	0.126257
	C142	C	0.506998	0.881809	0.124497
	C143	C	0.489845	0.880096	0.881494
	C144	C	0.380955	0.887236	0.677218
	C145	C	0.619843	0.116396	0.682593
	C146	C	0.615909	0.887922	0.326322
	C147	C	0.378219	0.116958	0.326495
	C148	C	0.672211	0.384008	0.886553
	C149	C	0.676076	0.624350	0.117072
	C150	C	0.320359	0.622341	0.887330
	C151	C	0.322311	0.385860	0.117921
	C152	C	0.883328	0.677218	0.381348
	C153	C	0.111829	0.680444	0.624860
	C154	C	0.883753	0.324062	0.620344
	C155	C	0.113006	0.322548	0.381313
	C156	C	0.883107	0.382516	0.676890
	C157	C	0.112067	0.621734	0.681675
	C158	C	0.882605	0.617333	0.325734
	C159	C	0.113279	0.381084	0.324380
	C160	C	0.377705	0.679530	0.887529
	C161	C	0.619018	0.681405	0.117265
	C162	C	0.616960	0.324608	0.887480
	C163	C	0.379101	0.327502	0.118147
	C164	C	0.673730	0.887514	0.383374
	C165	C	0.678760	0.115642	0.625595
	C166	C	0.321510	0.887887	0.620811
	C167	C	0.319358	0.116169	0.383092
	C168	C	0.879831	0.387514	0.175703
	C169	C	0.118818	0.616415	0.182689
	C170	C	0.115768	0.388047	0.825696
	C171	C	0.876235	0.616050	0.823212
	C172	C	0.174360	0.881590	0.386967
	C173	C	0.175887	0.122163	0.617903
	C174	C	0.821436	0.118006	0.386941
	C175	C	0.821840	0.881045	0.617478
	C176	C	0.383582	0.179216	0.882094
	C177	C	0.612169	0.183265	0.126529
	C178	C	0.384368	0.825803	0.122235
	C179	C	0.612842	0.824538	0.883523
	C180	C	0.383426	0.885651	0.177427
	C181	C	0.612949	0.123933	0.182770
	C182	C	0.383438	0.120580	0.825707
	C183	C	0.613211	0.883012	0.827507
	C184	C	0.878256	0.176574	0.387140
	C185	C	0.120094	0.180741	0.617484
	C186	C	0.117455	0.823258	0.387308
	C187	C	0.878628	0.823422	0.617224
	C188	C	0.176119	0.389440	0.880919
	C189	C	0.176231	0.617263	0.124741
	C190	C	0.819674	0.389268	0.120535
	C191	C	0.818245	0.616597	0.880712
	C192	C	0.399670	0.095605	0.602037
	C193	C	0.598966	0.908279	0.603314
	C194	C	0.598576	0.095963	0.405985
	C195	C	0.397711	0.908632	0.402156
	C196	C	0.597004	0.405490	0.097065
	C197	C	0.594991	0.602106	0.907319
	C198	C	0.400168	0.603744	0.097762
	C199	C	0.399147	0.403381	0.907712
	C200	C	0.091959	0.600001	0.405202
	C201	C	0.904225	0.599978	0.599525
	C202	C	0.092213	0.402209	0.601997
	C203	C	0.903929	0.399060	0.400121
	C204	C	0.899116	0.596648	0.102228
	C205	C	0.099070	0.409564	0.100007
	C206	C	0.095565	0.595681	0.905208
	C207	C	0.895720	0.409020	0.901764
	C208	C	0.096767	0.903951	0.596758
	C209	C	0.095963	0.099928	0.408193
	C210	C	0.901514	0.100674	0.597106
	C211	C	0.898342	0.900682	0.407298
	C212	C	0.591907	0.101687	0.907009
	C213	C	0.404157	0.103818	0.102469
	C214	C	0.593029	0.903594	0.102995
	C215	C	0.404116	0.902200	0.903419
	Zn216	Zn	0.498723	0.002164	0.754302
	Zn217	Zn	0.498453	0.003363	0.253234
	Zn218	Zn	0.746372	0.503784	0.001692
	Zn219	Zn	0.248849	0.503981	0.002254
	Zn220	Zn	-0.002143	0.751583	0.502143
	Zn221	Zn	-0.000980	0.251184	0.502102
	Zn222	Zn	-0.002896	0.501406	0.752180
	Zn223	Zn	-0.001676	0.500945	0.252098
	Zn224	Zn	0.498495	0.752858	0.002523
	Zn225	Zn	0.498020	0.253468	0.002855
	Zn226	Zn	0.749612	0.000335	0.503228
	Zn227	Zn	0.247242	0.002033	0.502597
	N228	N	0.415060	0.964316	0.679247
	N229	N	0.585275	0.039505	0.683171
	N230	N	0.582912	0.965362	0.325803
	N231	N	0.412216	0.040027	0.324681
	N232	N	0.673368	0.419457	0.964183
	N233	N	0.676101	0.589936	0.039181
	N234	N	0.319742	0.589526	0.965439
	N235	N	0.321187	0.419228	0.039987
	N236	N	0.961131	0.679849	0.415301
	N237	N	0.034608	0.681568	0.589838
	N238	N	0.961398	0.322370	0.587754
	N239	N	0.035157	0.320117	0.413958
	N240	N	0.960501	0.416545	0.678989
	N241	N	0.035051	0.586893	0.681301
	N242	N	0.960084	0.583567	0.325798
	N243	N	0.035734	0.414540	0.322534
	N244	N	0.412101	0.681649	0.965608
	N245	N	0.584078	0.681914	0.039401
	N246	N	0.584597	0.323207	0.965800
	N247	N	0.412317	0.325093	0.040075
	N248	N	0.676181	0.964693	0.417830
	N249	N	0.680365	0.038238	0.591611
	N250	N	0.319101	0.965411	0.588568
	N251	N	0.317505	0.038732	0.415746
	N252	N	0.914935	0.464131	0.177118
	N253	N	0.085292	0.539102	0.182682
	N254	N	0.080627	0.464487	0.826010
	N255	N	0.909970	0.538935	0.822043
	N256	N	0.175365	0.916713	0.464766
	N257	N	0.176086	0.087178	0.540381
	N258	N	0.821171	0.084793	0.465067
	N259	N	0.820448	0.914734	0.539755
	N260	N	0.460949	0.181308	0.916837
	N261	N	0.534725	0.184749	0.091942
	N262	N	0.462380	0.823215	0.089818
	N263	N	0.535297	0.822674	0.916465
	N264	N	0.460559	0.919791	0.178775
	N265	N	0.535780	0.089355	0.182842
	N266	N	0.460872	0.086737	0.826130
	N267	N	0.535784	0.916869	0.825944
	N268	N	0.912785	0.179054	0.465041
	N269	N	0.085832	0.181504	0.539306
	N270	N	0.083718	0.822696	0.465048
	N271	N	0.911908	0.821862	0.539139
	N272	N	0.178076	0.466843	0.914775
	N273	N	0.178079	0.540463	0.089509
	N274	N	0.817689	0.466933	0.088550
	N275	N	0.816484	0.539790	0.914674
	O276	O	0.505730	0.456645	0.392431
	H277	H	0.511681	0.444105	0.389452
	H278	H	0.500249	0.476274	0.386895
	O279	O	0.485740	0.628000	0.539769
	H280	H	0.480656	0.623780	0.532576
	H281	H	0.486496	0.632389	0.540909
	O282	O	0.928017	1.011207	-0.020793
	H283	H	0.924253	1.003714	-0.030512
	H284	H	0.928902	1.001248	-0.027122
	O285	O	1.098184	-0.019970	0.997588
	H286	H	1.106393	-0.014612	0.999364
	H287	H	1.104373	-0.016897	0.996673
	O288	O	0.480619	0.519304	0.562405
	H289	H	0.485368	0.528819	0.564322
	H290	H	0.488829	0.507759	0.564398
	O291	O	0.390926	0.525703	0.457896
	H292	H	0.389257	0.530348	0.465475
	H293	H	0.380542	0.521481	0.458787
	O294	O	0.462862	0.445317	0.462857
	H295	H	0.459032	0.430229	0.464159
	H296	H	0.469657	0.447238	0.453129
	O297	O	0.001079	-0.100717	0.951421
	H298	H	0.011558	-0.093338	0.947016
	H299	H	-0.005250	-0.113817	0.962970
	O300	O	0.578361	0.476223	0.516045
	H301	H	0.574524	0.479900	0.524700
	H302	H	0.583085	0.479113	0.512175
	O303	O	0.960295	1.026180	0.022230
	H304	H	0.967651	1.028121	0.031117
	H305	H	0.948241	1.026860	0.015422
	O306	O	0.156724	0.924042	0.954380
	H307	H	0.148195	0.938629	0.953414
	H308	H	0.161806	0.933877	0.955977
	O309	O	0.498358	0.423443	0.569329
	H310	H	0.499670	0.432609	0.572007
	H311	H	0.509560	0.428071	0.570973
	O312	O	-0.112592	-0.004651	-0.114859
	H313	H	-0.120465	0.001841	-0.126246
	H314	H	-0.110195	-0.006159	-0.109351
	O315	O	1.049473	-0.120132	0.005943
	H316	H	1.052866	-0.105006	0.000168
	H317	H	1.048961	-0.119794	0.007774
	O318	O	0.970802	0.920386	1.069743
	H319	H	0.977902	0.928379	1.068056
	H320	H	0.971814	0.910398	1.049971
	O321	O	-0.079933	-0.007529	0.935027
	H322	H	-0.075841	-0.001292	0.946854
	H323	H	-0.088074	-0.003633	0.929545
	O324	O	0.582406	0.463627	0.565236
	H325	H	0.583356	0.462726	0.567356
	H326	H	0.580520	0.463034	0.565962
	O327	O	0.174133	0.042963	0.088864
	H328	H	0.178022	0.032364	0.084445
	H329	H	0.170223	0.049995	0.088056
	O330	O	0.420243	0.438617	0.579920
	H331	H	0.415846	0.432076	0.591530
	H332	H	0.421651	0.434414	0.587136
	O333	O	-0.057340	0.992632	1.126522
	H334	H	-0.051862	0.985842	1.128052
	H335	H	-0.046319	0.992378	1.130465
	O336	O	0.019269	0.091528	0.006187
	H337	H	0.013939	0.090348	0.020955
	H338	H	0.022934	0.095665	0.006739
	O339	O	0.505884	0.490638	0.492713
	H340	H	0.516679	0.501216	0.492365
	H341	H	0.515028	0.492067	0.485820
	O342	O	0.936878	1.080214	0.925014
	H343	H	0.939772	1.089997	0.926484
	H344	H	0.935197	1.082593	0.934408
	O345	O	1.091717	0.969075	-0.059742
	H346	H	1.088106	0.956683	-0.052322
	H347	H	1.090041	0.974105	-0.069009
	O348	O	0.552832	0.588320	0.442217
	H349	H	0.561421	0.599193	0.440734
	H350	H	0.558749	0.579269	0.440545
	O351	O	0.941007	-0.006073	0.003943
	H352	H	0.942388	0.005497	-0.006768
	H353	H	0.941106	-0.005940	0.006634
	O354	O	0.488513	0.436491	0.558499
	H355	H	0.488917	0.419868	0.555889
	H356	H	0.495818	0.437813	0.565366
	O357	O	1.041817	0.127477	1.145943
	H358	H	1.038443	0.121125	1.148159
	H359	H	1.041848	0.127445	1.144421
	O360	O	0.484665	0.625151	0.415207
	H361	H	0.485047	0.625697	0.407604
	H362	H	0.474482	0.630362	0.415211
	O363	O	0.409087	0.532633	0.458066
	H364	H	0.411488	0.533368	0.459933
	H365	H	0.410086	0.534379	0.450354
	O366	O	0.972571	1.098763	1.011147
	H367	H	0.976109	1.098435	1.024093
	H368	H	0.963536	1.105265	1.008769
	O369	O	0.933973	0.008492	0.922352
	H370	H	0.933004	0.002759	0.926615
	H371	H	0.932691	0.012543	0.914802
	O372	O	0.050430	0.115359	0.138814
	H373	H	0.062726	0.124401	0.152372
	H374	H	0.060978	0.108892	0.137660
	O375	O	0.977867	0.089954	-0.053025
	H376	H	0.985016	0.091808	-0.048417
	H377	H	0.977310	0.091896	-0.061048
	O378	O	0.521765	0.587581	0.499163
	H379	H	0.520588	0.591747	0.495042
	H380	H	0.526267	0.590687	0.494331
	O381	O	0.459820	0.407320	0.454736
	H382	H	0.454461	0.408608	0.457926
	H383	H	0.447608	0.407340	0.449032
