data_Molecule from HDF5

_cell_length_a		16.516408
_cell_length_b		16.762281
_cell_length_c		16.668787
_cell_angle_alpha	90.167798
_cell_angle_beta	89.960381
_cell_angle_gamma	90.135296
_symmetry_space_group_name_H-M	'P 1'
_symmetry_Int_Tables_number		1

loop_
	_symmetry_equiv_pos_as_xyz
	x,y,z

loop_
	_atom_site_label
	_atom_site_type_symbol
	_atom_site_fract_x
	_atom_site_fract_y
	_atom_site_fract_z
	H0	H	0.396469	0.852645	0.706694
	H1	H	0.604595	0.161741	0.707382
	H2	H	0.610208	0.854189	0.261877
	H3	H	0.400270	0.163330	0.268765
	H4	H	0.720838	0.402292	0.831712
	H5	H	0.722066	0.611373	0.142187
	H6	H	0.277163	0.613785	0.835032
	H7	H	0.281006	0.402316	0.142437
	H8	H	0.844295	0.726129	0.383542
	H9	H	0.158311	0.726003	0.589842
	H10	H	0.843008	0.290187	0.588999
	H11	H	0.157425	0.286832	0.381438
	H12	H	0.843416	0.405787	0.704842
	H13	H	0.159403	0.609696	0.704231
	H14	H	0.844795	0.610361	0.268038
	H15	H	0.157963	0.403804	0.267572
	H16	H	0.385706	0.735999	0.839355
	H17	H	0.612796	0.732500	0.138201
	H18	H	0.605067	0.284879	0.831916
	H19	H	0.396109	0.285625	0.141943
	H20	H	0.722094	0.852058	0.382636
	H21	H	0.720015	0.162608	0.589867
	H22	H	0.283400	0.850495	0.586606
	H23	H	0.284447	0.163882	0.386320
	H24	H	0.893891	0.353936	0.211231
	H25	H	0.109368	0.660921	0.210156
	H26	H	0.107869	0.354069	0.763208
	H27	H	0.894490	0.660407	0.765698
	H28	H	0.219190	0.904987	0.329833
	H29	H	0.217053	0.107744	0.643957
	H30	H	0.781156	0.109563	0.330880
	H31	H	0.781945	0.904811	0.643253
	H32	H	0.344738	0.224040	0.883745
	H33	H	0.658200	0.224741	0.089801
	H34	H	0.348551	0.780739	0.097206
	H35	H	0.653865	0.779078	0.875020
	H36	H	0.347746	0.898981	0.211257
	H37	H	0.659589	0.107755	0.203467
	H38	H	0.343489	0.106697	0.769902
	H39	H	0.655810	0.897067	0.762457
	H40	H	0.894140	0.229407	0.332528
	H41	H	0.102918	0.225091	0.643354
	H42	H	0.106303	0.785537	0.331567
	H43	H	0.893954	0.785384	0.641355
	H44	H	0.222289	0.353078	0.881227
	H45	H	0.225676	0.660106	0.093167
	H46	H	0.778980	0.352709	0.093648
	H47	H	0.778005	0.659734	0.882573
	H48	H	0.408809	0.118872	0.575620
	H49	H	0.594447	0.894746	0.575079
	H50	H	0.581728	0.113714	0.396564
	H51	H	0.411085	0.895825	0.395678
	H52	H	0.590346	0.413979	0.100138
	H53	H	0.583943	0.596334	0.876530
	H54	H	0.416331	0.592726	0.097411
	H55	H	0.409472	0.408251	0.874090
	H56	H	0.114764	0.600173	0.399900
	H57	H	0.888089	0.599403	0.573532
	H58	H	0.113140	0.417607	0.572913
	H59	H	0.894017	0.427125	0.403049
	H60	H	0.114856	0.419204	0.580510
	H61	H	0.889554	0.592806	0.576808
	H62	H	0.113092	0.594725	0.400369
	H63	H	0.886391	0.418432	0.390498
	H64	H	0.417197	0.591191	0.096619
	H65	H	0.591305	0.591926	0.876072
	H66	H	0.591313	0.414232	0.099043
	H67	H	0.408919	0.418657	0.874772
	H68	H	0.596103	0.116963	0.404633
	H69	H	0.589585	0.894628	0.580561
	H70	H	0.407166	0.120728	0.583514
	H71	H	0.414100	0.896836	0.396516
	H72	H	0.915462	0.617255	0.080368
	H73	H	0.090285	0.398899	0.071084
	H74	H	0.087581	0.618698	0.892725
	H75	H	0.915740	0.398492	0.898630
	H76	H	0.089476	0.913742	0.598601
	H77	H	0.087585	0.098811	0.375288
	H78	H	0.909403	0.101099	0.598800
	H79	H	0.918699	0.919094	0.378221
	H80	H	0.615996	0.099673	0.898605
	H81	H	0.386497	0.097841	0.078334
	H82	H	0.613325	0.917516	0.071956
	H83	H	0.393085	0.922031	0.902407
	H84	H	0.611383	0.921282	0.070223
	H85	H	0.387487	0.097424	0.078107
	H86	H	0.613001	0.093649	0.898333
	H87	H	0.391370	0.920404	0.900298
	H88	H	0.910562	0.095303	0.596461
	H89	H	0.093432	0.103082	0.371419
	H90	H	0.093707	0.914883	0.600162
	H91	H	0.913021	0.910882	0.373711
	H92	H	0.086976	0.614480	0.902404
	H93	H	0.093379	0.394146	0.079646
	H94	H	0.912821	0.615782	0.073288
	H95	H	0.907423	0.395014	0.898860
	H96	H	0.414515	0.117526	0.581546
	H97	H	0.587630	0.897336	0.573765
	H98	H	0.594244	0.121809	0.388659
	H99	H	0.411819	0.897114	0.398493
	H100	H	0.590317	0.414279	0.099902
	H101	H	0.583734	0.588965	0.879384
	H102	H	0.418251	0.592839	0.096555
	H103	H	0.417431	0.413259	0.877049
	H104	H	0.114841	0.596525	0.395401
	H105	H	0.886469	0.598995	0.580490
	H106	H	0.116375	0.411687	0.577550
	H107	H	0.888685	0.410940	0.405250
	H108	H	0.908538	0.618999	0.078399
	H109	H	0.083706	0.398350	0.079215
	H110	H	0.095824	0.619308	0.899366
	H111	H	0.912622	0.394882	0.892059
	H112	H	0.090907	0.917804	0.598208
	H113	H	0.095390	0.096058	0.374180
	H114	H	0.915683	0.099202	0.597885
	H115	H	0.908164	0.920366	0.375233
	H116	H	0.615890	0.096312	0.893255
	H117	H	0.387065	0.097258	0.078654
	H118	H	0.613153	0.921553	0.074344
	H119	H	0.391562	0.919100	0.902692
	C120	C	0.378973	0.015537	0.609426
	C121	C	0.621990	0.998420	0.608227
	C122	C	0.623120	0.015397	0.364749
	C123	C	0.380884	0.999105	0.365717
	C124	C	0.622634	0.383186	-0.003521
	C125	C	0.621122	0.626409	0.978632
	C126	C	0.381361	0.626622	-0.003615
	C127	C	0.379728	0.383122	0.978172
	C128	C	0.010388	0.628240	0.366825
	C129	C	0.992423	0.628162	0.607951
	C130	C	0.010145	0.385845	0.608122
	C131	C	0.992914	0.386509	0.366757
	C132	C	0.879743	0.515266	0.109478
	C133	C	0.122833	0.498846	0.109087
	C134	C	0.122518	0.515508	0.865820
	C135	C	0.879141	0.497905	0.865061
	C136	C	0.122528	0.884961	0.495454
	C137	C	0.121895	0.128707	0.477981
	C138	C	0.879793	0.129044	0.494901
	C139	C	0.880369	0.885632	0.478508
	C140	C	0.510392	0.126578	0.866192
	C141	C	0.491885	0.127707	0.108478
	C142	C	0.510684	0.885791	0.107190
	C143	C	0.493085	0.884865	0.866284
	C144	C	0.378238	0.898562	0.666558
	C145	C	0.623361	0.115024	0.667589
	C146	C	0.626930	0.899848	0.303446
	C147	C	0.380946	0.116328	0.307984
	C148	C	0.681342	0.382803	0.878661
	C149	C	0.682901	0.629980	0.094763
	C150	C	0.317697	0.631724	0.881593
	C151	C	0.320183	0.382974	0.095438
	C152	C	0.891486	0.686463	0.365239
	C153	C	0.111093	0.686739	0.608644
	C154	C	0.890947	0.328756	0.608344
	C155	C	0.110455	0.326745	0.363477
	C156	C	0.890919	0.386367	0.665775
	C157	C	0.111682	0.628595	0.665243
	C158	C	0.891874	0.629182	0.307706
	C159	C	0.110874	0.385198	0.307282
	C160	C	0.372116	0.692199	0.883416
	C161	C	0.627906	0.689792	0.093352
	C162	C	0.623981	0.324552	0.878843
	C163	C	0.377230	0.324736	0.095233
	C164	C	0.682695	0.898707	0.363253
	C165	C	0.680822	0.115543	0.609153
	C166	C	0.321671	0.897896	0.607309
	C167	C	0.323448	0.116789	0.366467
	C168	C	0.876227	0.399901	0.170288
	C169	C	0.127101	0.614498	0.169778
	C170	C	0.125739	0.400069	0.804195
	C171	C	0.876124	0.613813	0.805535
	C172	C	0.180719	0.884945	0.377538
	C173	C	0.178830	0.127763	0.596458
	C174	C	0.820487	0.129284	0.377737
	C175	C	0.820951	0.885323	0.595895
	C176	C	0.391714	0.184545	0.865110
	C177	C	0.610881	0.185794	0.108976
	C178	C	0.394620	0.822681	0.113537
	C179	C	0.607822	0.820863	0.859012
	C180	C	0.394184	0.881110	0.170284
	C181	C	0.611474	0.127724	0.165372
	C182	C	0.391128	0.126227	0.808676
	C183	C	0.608773	0.879535	0.802932
	C184	C	0.876661	0.188729	0.378630
	C185	C	0.122178	0.186130	0.596227
	C186	C	0.124572	0.825503	0.378260
	C187	C	0.876474	0.825751	0.595028
	C188	C	0.182560	0.399514	0.862975
	C189	C	0.184869	0.614091	0.111639
	C190	C	0.818955	0.399312	0.111922
	C191	C	0.818212	0.613542	0.863585
	C192	C	0.403320	0.097653	0.586859
	C193	C	0.597541	0.916862	0.583575
	C194	C	0.597853	0.096379	0.389671
	C195	C	0.405272	0.917754	0.389948
	C196	C	0.597793	0.407270	0.078247
	C197	C	0.593969	0.600009	0.898346
	C198	C	0.409554	0.599751	0.076007
	C199	C	0.404881	0.406620	0.896428
	C200	C	0.092665	0.604141	0.391596
	C201	C	0.909721	0.603822	0.584002
	C202	C	0.093091	0.409260	0.584099
	C203	C	0.910945	0.411582	0.392474
	C204	C	0.904961	0.596174	0.084458
	C205	C	0.096565	0.418244	0.083794
	C206	C	0.097279	0.596338	0.890993
	C207	C	0.904662	0.417075	0.889616
	C208	C	0.098343	0.908605	0.577620
	C209	C	0.098860	0.105898	0.395281
	C210	C	0.904677	0.105267	0.576456
	C211	C	0.906047	0.909928	0.396951
	C212	C	0.593313	0.103195	0.889883
	C213	C	0.408796	0.104093	0.085081
	C214	C	0.591382	0.912560	0.079872
	C215	C	0.412712	0.912431	0.894139
	Zn216	Zn	0.501184	0.005753	0.738213
	Zn217	Zn	0.502111	0.006632	0.235371
	Zn218	Zn	0.750174	0.505972	-0.012615
	Zn219	Zn	0.252381	0.505874	-0.012208
	Zn220	Zn	0.000891	0.756514	0.487433
	Zn221	Zn	0.001263	0.257763	0.486505
	Zn222	Zn	0.001556	0.507833	0.736280
	Zn223	Zn	0.001907	0.507130	0.238593
	Zn224	Zn	0.501710	0.756002	-0.012576
	Zn225	Zn	0.500827	0.254490	-0.012598
	Zn226	Zn	0.751822	0.006839	0.486800
	Zn227	Zn	0.250805	0.007236	0.486769
	N228	N	0.412910	0.972878	0.668277
	N229	N	0.587818	0.040949	0.667501
	N230	N	0.590565	0.973243	0.304375
	N231	N	0.415858	0.041952	0.307070
	N232	N	0.680975	0.418394	0.952898
	N233	N	0.678561	0.590957	0.022559
	N234	N	0.323304	0.591321	0.952764
	N235	N	0.321481	0.418503	0.021465
	N236	N	0.966199	0.686229	0.401056
	N237	N	0.035600	0.687220	0.574264
	N238	N	0.966255	0.327953	0.573541
	N239	N	0.035855	0.327223	0.399633
	N240	N	0.966529	0.420760	0.666518
	N241	N	0.036676	0.592896	0.665212
	N242	N	0.966807	0.593750	0.308058
	N243	N	0.036590	0.421567	0.308965
	N244	N	0.411471	0.688987	0.955788
	N245	N	0.590203	0.688097	0.020048
	N246	N	0.588397	0.324340	0.953193
	N247	N	0.413342	0.324467	0.021240
	N248	N	0.680555	0.971605	0.400934
	N249	N	0.680478	0.041740	0.573195
	N250	N	0.321815	0.971997	0.572642
	N251	N	0.323020	0.042718	0.401461
	N252	N	0.913510	0.473014	0.168926
	N253	N	0.089542	0.541507	0.168538
	N254	N	0.089204	0.473315	0.805581
	N255	N	0.913324	0.540753	0.806176
	N256	N	0.179851	0.921132	0.451535
	N257	N	0.179370	0.093018	0.521779
	N258	N	0.822042	0.093086	0.451211
	N259	N	0.822985	0.921790	0.522196
	N260	N	0.466895	0.185060	0.900198
	N261	N	0.535357	0.186133	0.074475
	N262	N	0.468188	0.825227	0.075352
	N263	N	0.534767	0.824171	0.897973
	N264	N	0.467429	0.919674	0.166668
	N265	N	0.536453	0.092527	0.165466
	N266	N	0.466122	0.091121	0.808821
	N267	N	0.536096	0.918931	0.807338
	N268	N	0.912707	0.188926	0.452754
	N269	N	0.087671	0.187276	0.521312
	N270	N	0.089262	0.825171	0.452854
	N271	N	0.912801	0.825736	0.520952
	N272	N	0.181021	0.472413	0.900566
	N273	N	0.182420	0.541036	0.074554
	N274	N	0.820770	0.472185	0.074636
	N275	N	0.819889	0.540295	0.899979
	O276	O	-0.211289	1.074552	0.050400
	H277	H	-0.220065	1.073746	0.028088
	H278	H	-0.220405	1.068812	0.029561
	O279	O	0.784945	0.795982	1.013404
	H280	H	0.790129	0.793322	1.020359
	H281	H	0.775490	0.785776	1.017648
	O282	O	0.970345	0.053937	1.176506
	H283	H	0.964258	0.039866	1.169490
	H284	H	0.975067	0.028692	1.182392
	O285	O	0.719902	0.576697	0.431959
	H286	H	0.720881	0.557702	0.447759
	H287	H	0.712395	0.553439	0.405581
	O288	O	0.616205	0.543830	0.636880
	H289	H	0.623971	0.547379	0.644172
	H290	H	0.623958	0.534604	0.643917
	O291	O	0.302782	0.712072	0.275989
	H292	H	0.316220	0.709507	0.297126
	H293	H	0.318711	0.706442	0.294508
	O294	O	0.783190	0.229623	0.954899
	H295	H	0.774010	0.236439	0.929439
	H296	H	0.766651	0.240963	0.931283
	O297	O	0.510724	0.366761	0.524711
	H298	H	0.515190	0.360735	0.523716
	H299	H	0.496793	0.381546	0.520234
	O300	O	0.025490	0.223789	1.204548
	H301	H	0.017190	0.217328	1.220439
	H302	H	0.016802	0.211434	1.211117
	O303	O	0.517691	0.337490	0.494955
	H304	H	0.512432	0.338950	0.486372
	H305	H	0.522630	0.338960	0.479641
	O306	O	0.385665	0.500738	0.465426
	H307	H	0.382930	0.499068	0.469985
	H308	H	0.390788	0.511383	0.484476
	O309	O	0.482157	0.728449	0.264988
	H310	H	0.485290	0.725077	0.275587
	H311	H	0.477905	0.747695	0.239509
	O312	O	0.440684	0.552731	0.720652
	H313	H	0.441769	0.579021	0.724305
	H314	H	0.393299	0.542806	0.725065
	O315	O	0.718917	0.479605	1.273075
	H316	H	0.725784	0.461535	1.259746
	H317	H	0.728045	0.448800	1.259800
	O318	O	0.554489	0.519799	0.381206
	H319	H	0.549403	0.519938	0.378175
	H320	H	0.558178	0.521757	0.378607
	O321	O	-0.456518	0.687490	0.562969
	H322	H	-0.440528	0.687247	0.557868
	H323	H	-0.450150	0.674923	0.546248
	O324	O	1.221599	0.966373	-0.238953
	H325	H	1.232909	0.950932	-0.229341
	H326	H	1.240455	0.949908	-0.258853
	O327	O	0.057056	-0.045630	1.217268
	H328	H	0.074976	-0.065432	1.213927
	H329	H	0.077768	-0.056440	1.216097
	O330	O	0.518725	0.532268	0.259869
	H331	H	0.520130	0.531354	0.256157
	H332	H	0.520827	0.552636	0.262940
	O333	O	0.279058	0.282504	0.525910
	H334	H	0.261129	0.268388	0.528774
	H335	H	0.271054	0.278013	0.552855
	O336	O	0.320940	0.696575	0.670138
	H337	H	0.308555	0.714798	0.693421
	H338	H	0.336955	0.706968	0.684303
	O339	O	1.169162	0.087433	0.870027
	H340	H	1.189409	0.045495	0.864349
	H341	H	1.153672	0.104044	0.886727
	O342	O	0.188469	-0.168366	0.171737
	H343	H	0.198968	-0.161135	0.163552
	H344	H	0.213319	-0.180652	0.169245
	O345	O	-0.217876	1.046825	0.763768
	H346	H	-0.241072	1.064329	0.745270
	H347	H	-0.220394	1.075239	0.757877
	O348	O	-0.042320	-0.229631	-0.074840
	H349	H	-0.035279	-0.231966	-0.086342
	H350	H	-0.063640	-0.233324	-0.083651
	O351	O	-0.063699	0.244385	1.036309
	H352	H	-0.077579	0.248444	1.044837
	H353	H	-0.079587	0.242445	1.038385
	O354	O	-0.212197	0.218455	0.775694
	H355	H	-0.242014	0.252197	0.742343
	H356	H	-0.159202	0.226332	0.767476
	O357	O	0.483566	0.724220	0.446436
	H358	H	0.490118	0.724164	0.464260
	H359	H	0.471583	0.725038	0.445497
	O360	O	0.690644	0.507892	0.626769
	H361	H	0.685187	0.497695	0.614238
	H362	H	0.686614	0.511746	0.628869
	O363	O	0.200452	-0.146326	-0.068312
	H364	H	0.184144	-0.150151	-0.062516
	H365	H	0.202450	-0.128817	-0.041964
	O366	O	0.504026	0.725282	0.713881
	H367	H	0.525125	0.727554	0.709535
	H368	H	0.519635	0.733252	0.730942
	O369	O	0.886463	-0.209996	0.203805
	H370	H	0.876678	-0.235135	0.233028
	H371	H	0.903525	-0.199329	0.185724
	O372	O	1.199883	1.208012	-0.210152
	H373	H	1.178599	1.187545	-0.194746
	H374	H	1.187231	1.191176	-0.182366
	O375	O	1.036658	-0.218852	-0.234739
	H376	H	1.023380	-0.214659	-0.253618
	H377	H	1.022775	-0.213668	-0.249510
	O378	O	0.542771	0.288003	0.268849
	H379	H	0.527043	0.278296	0.255864
	H380	H	0.522245	0.292485	0.273840
	O381	O	0.128243	0.771891	1.013385
	H382	H	0.125290	0.763516	1.002443
	H383	H	0.131933	0.768925	1.019752
	O384	O	1.016246	-0.210706	1.140671
	H385	H	1.026500	-0.222843	1.136187
	H386	H	1.007743	-0.202375	1.134143
	O387	O	1.308986	1.347507	0.324303
	H388	H	1.317146	1.363525	0.348319
	H389	H	1.322168	1.365125	0.332224
	O390	O	0.288000	0.538488	0.265062
	H391	H	0.258775	0.546063	0.241484
	H392	H	0.287950	0.557268	0.291645
	O393	O	0.723317	0.285379	0.453187
	H394	H	0.736607	0.273874	0.424310
	H395	H	0.734295	0.276174	0.429217
	O396	O	0.639005	0.381872	0.526805
	H397	H	0.651705	0.376670	0.508792
	H398	H	0.629239	0.378994	0.526835
	O399	O	0.232852	-0.053877	1.051699
	H400	H	0.233400	-0.027536	1.065924
	H401	H	0.228613	-0.055207	1.052136
	O402	O	-0.057071	0.976282	0.093034
	H403	H	-0.051200	0.961798	0.088580
	H404	H	-0.055472	0.966495	0.091805
	O405	O	0.688349	-0.681647	1.676660
	H406	H	0.658261	-0.676937	1.658399
	H407	H	0.671239	-0.656025	1.662825
	O408	O	-0.152426	-0.001032	-0.117890
	H409	H	-0.160741	-0.014296	-0.110174
	H410	H	-0.168474	0.011045	-0.132940
	O411	O	0.290346	0.729793	0.446739
	H412	H	0.282626	0.728249	0.466298
	H413	H	0.278153	0.734038	0.457559
	O414	O	1.116104	0.223748	0.924940
	H415	H	1.127069	0.205219	0.947165
	H416	H	1.118095	0.219977	0.941112
	O417	O	0.212504	0.790429	0.777739
	H418	H	0.207805	0.798670	0.818861
	H419	H	0.169714	0.792660	0.775728
	O420	O	0.310467	0.527818	0.563140
	H421	H	0.307359	0.525575	0.578230
	H422	H	0.307788	0.520163	0.585633
	O423	O	-0.481054	-0.387646	1.441441
	H424	H	-0.495646	-0.382275	1.426189
	H425	H	-0.480487	-0.378301	1.435513
	O426	O	0.683343	0.695962	0.300540
	H427	H	0.686697	0.701426	0.290020
	H428	H	0.683135	0.674344	0.318614
	O429	O	0.788260	0.858195	1.112407
	H430	H	0.809999	0.847503	1.096093
	H431	H	0.800149	0.864483	1.110711
	O432	O	0.386694	0.371489	0.439520
	H433	H	0.380023	0.376585	0.440215
	H434	H	0.388042	0.384623	0.457313
	O435	O	0.204966	1.224414	0.083192
	H436	H	0.213322	1.234810	0.085119
	H437	H	0.198995	1.218005	0.096935
	O438	O	-0.006716	-0.093931	-0.023175
	H439	H	-0.007859	-0.088979	-0.028227
	H440	H	-0.016381	-0.099818	-0.029187
	O441	O	0.133731	0.003232	-0.076227
	H442	H	0.118718	0.016041	-0.091954
	H443	H	0.111689	-0.004156	-0.068096
	O444	O	0.282447	0.480029	0.716357
	H445	H	0.268111	0.455453	0.722014
	H446	H	0.265711	0.451972	0.730839
	O447	O	0.228029	1.043730	1.211868
	H448	H	0.259171	1.050108	1.244837
	H449	H	0.221746	1.082302	1.201480
	O450	O	0.003884	1.063726	0.766562
	H451	H	-0.006908	1.068495	0.779064
	H452	H	0.007988	1.090343	0.763300
	O453	O	0.300001	0.303632	0.693225
	H454	H	0.339834	0.294483	0.687177
	H455	H	0.269422	0.269502	0.726208
	O456	O	-0.140374	0.000404	0.956938
	H457	H	-0.139572	-0.021966	0.955697
	H458	H	-0.150726	-0.004214	0.954209
	O459	O	0.708819	0.718832	0.518048
	H460	H	0.715828	0.711475	0.499183
	H461	H	0.721158	0.716457	0.507466
	O462	O	0.789991	-0.022742	1.203707
	H463	H	0.781899	-0.026940	1.204124
	H464	H	0.776739	-0.029940	1.198288
	O465	O	1.355811	-0.494479	0.494053
	H466	H	1.356409	-0.502115	0.501168
	H467	H	1.362901	-0.477187	0.524155
	O468	O	0.709957	0.301901	0.281603
	H469	H	0.738855	0.268262	0.246979
	H470	H	0.655611	0.292722	0.273596
	O471	O	0.714625	0.718475	0.698144
	H472	H	0.693171	0.703624	0.680830
	H473	H	0.708705	0.698411	0.675194
	O474	O	0.026975	1.183725	-0.037888
	H475	H	0.015019	1.183745	-0.020998
	H476	H	0.037920	1.184346	-0.032700
	O477	O	0.571794	0.444769	1.716454
	H478	H	0.558317	0.454949	1.715181
	H479	H	0.554572	0.445070	1.721643
	O480	O	0.808659	0.201518	0.179575
	H481	H	0.825017	0.169648	0.167857
	H482	H	0.827276	0.191577	0.159480
	O483	O	-0.053176	0.944920	-0.185809
	H484	H	-0.064272	0.943581	-0.182314
	H485	H	-0.059976	0.979425	-0.191647
	O486	O	1.502346	-0.562601	0.296994
	H487	H	1.486679	-0.546733	0.293148
	H488	H	1.502988	-0.563219	0.296477
	O489	O	1.240568	1.236966	0.226383
	H490	H	1.263572	1.271664	0.251070
	H491	H	1.195356	1.240787	0.218050
	O492	O	0.469877	0.288466	-0.295301
	H493	H	0.476458	0.277258	-0.297248
	H494	H	0.477480	0.273659	-0.302227
	O495	O	0.069905	1.083809	1.042376
	H496	H	0.052005	1.078457	1.048916
	H497	H	0.065590	1.082879	1.038754
	O498	O	0.957285	1.235440	0.760443
	H499	H	0.986542	1.240648	0.804505
	H500	H	0.965088	1.275313	0.727636
	O501	O	0.813255	0.813655	0.799602
	H502	H	0.780677	0.784472	0.766300
	H503	H	0.827228	0.831105	0.811974
