data_Molecule from HDF5

_cell_length_a		16.270242
_cell_length_b		16.237821
_cell_length_c		16.246084
_cell_angle_alpha	89.902389
_cell_angle_beta	90.804846
_cell_angle_gamma	89.876310
_symmetry_space_group_name_H-M	'P 1'
_symmetry_Int_Tables_number		1

loop_
	_symmetry_equiv_pos_as_xyz
	x,y,z

loop_
	_atom_site_label
	_atom_site_type_symbol
	_atom_site_fract_x
	_atom_site_fract_y
	_atom_site_fract_z
	H0	H	0.392916	0.832605	0.711716
	H1	H	0.590564	0.160178	0.714024
	H2	H	0.587498	0.832207	0.285843
	H3	H	0.389659	0.160298	0.282210
	H4	H	0.701335	0.399618	0.834770
	H5	H	0.705254	0.593810	0.163530
	H6	H	0.268673	0.598691	0.837698
	H7	H	0.280620	0.398442	0.165478
	H8	H	0.825763	0.710854	0.398301
	H9	H	0.152735	0.710897	0.602323
	H10	H	0.824507	0.280972	0.596758
	H11	H	0.153077	0.280556	0.405106
	H12	H	0.824234	0.397721	0.712438
	H13	H	0.152033	0.594939	0.717622
	H14	H	0.826389	0.595065	0.282566
	H15	H	0.154306	0.396327	0.289704
	H16	H	0.388508	0.709714	0.834468
	H17	H	0.592677	0.713456	0.161413
	H18	H	0.584735	0.283808	0.833824
	H19	H	0.394601	0.281854	0.163119
	H20	H	0.702760	0.832029	0.401291
	H21	H	0.706201	0.159620	0.598681
	H22	H	0.278232	0.831652	0.595797
	H23	H	0.271546	0.159769	0.395932
	H24	H	0.894963	0.331479	0.211309
	H25	H	0.090405	0.659830	0.218122
	H26	H	0.086316	0.332096	0.788309
	H27	H	0.888145	0.660720	0.784845
	H28	H	0.200514	0.895949	0.334360
	H29	H	0.208940	0.095122	0.661999
	H30	H	0.772340	0.095024	0.335204
	H31	H	0.776731	0.896498	0.662679
	H32	H	0.325754	0.211491	0.896605
	H33	H	0.653961	0.208697	0.097447
	H34	H	0.326274	0.780986	0.095547
	H35	H	0.653162	0.781865	0.901398
	H36	H	0.325503	0.897402	0.209776
	H37	H	0.653071	0.094536	0.214895
	H38	H	0.326129	0.096844	0.779599
	H39	H	0.653832	0.897926	0.787057
	H40	H	0.886982	0.211786	0.336408
	H41	H	0.089813	0.208353	0.664624
	H42	H	0.085533	0.779517	0.336272
	H43	H	0.892931	0.781319	0.663572
	H44	H	0.202126	0.332329	0.906064
	H45	H	0.204815	0.660751	0.102257
	H46	H	0.778766	0.332386	0.096315
	H47	H	0.773248	0.660755	0.899839
	H48	H	0.395462	0.114308	0.589402
	H49	H	0.577833	0.882662	0.586356
	H50	H	0.582030	0.110773	0.413882
	H51	H	0.385052	0.876046	0.401074
	H52	H	0.589728	0.403625	0.117274
	H53	H	0.574906	0.586628	0.884790
	H54	H	0.390539	0.589277	0.118673
	H55	H	0.394880	0.394538	0.880224
	H56	H	0.106095	0.588814	0.412075
	H57	H	0.870091	0.584971	0.600926
	H58	H	0.106252	0.403239	0.601573
	H59	H	0.874765	0.404466	0.409930
	H60	H	0.106449	0.397677	0.594854
	H61	H	0.869862	0.599724	0.588298
	H62	H	0.104777	0.585805	0.411585
	H63	H	0.872774	0.407229	0.401369
	H64	H	0.404895	0.581575	0.111952
	H65	H	0.581881	0.595017	0.879942
	H66	H	0.582809	0.403744	0.114100
	H67	H	0.383938	0.408804	0.880715
	H68	H	0.587086	0.115996	0.402643
	H69	H	0.591697	0.877999	0.590250
	H70	H	0.402126	0.111880	0.589934
	H71	H	0.402046	0.879040	0.395576
	H72	H	0.895314	0.616096	0.101599
	H73	H	0.097097	0.374339	0.098571
	H74	H	0.078076	0.613055	0.907873
	H75	H	0.891880	0.379140	0.907236
	H76	H	0.086946	0.897147	0.618395
	H77	H	0.077198	0.089119	0.384051
	H78	H	0.904364	0.090553	0.614417
	H79	H	0.896346	0.906611	0.383424
	H80	H	0.611270	0.102079	0.899487
	H81	H	0.373744	0.090149	0.085104
	H82	H	0.605143	0.913055	0.099541
	H83	H	0.371656	0.905366	0.897613
	H84	H	0.609723	0.894183	0.096537
	H85	H	0.372526	0.086385	0.091708
	H86	H	0.602137	0.091624	0.921060
	H87	H	0.370993	0.898806	0.903284
	H88	H	0.892167	0.094150	0.619999
	H89	H	0.079782	0.090200	0.382824
	H90	H	0.090461	0.907384	0.616073
	H91	H	0.898303	0.901001	0.382772
	H92	H	0.077883	0.611612	0.911042
	H93	H	0.077424	0.379225	0.104419
	H94	H	0.906576	0.610855	0.090646
	H95	H	0.896351	0.377892	0.903378
	H96	H	0.398710	0.111025	0.584108
	H97	H	0.581212	0.878053	0.600955
	H98	H	0.574724	0.112628	0.402750
	H99	H	0.397826	0.882410	0.413061
	H100	H	0.585722	0.397718	0.116980
	H101	H	0.587048	0.583719	0.881929
	H102	H	0.405173	0.598449	0.117317
	H103	H	0.400805	0.410557	0.886765
	H104	H	0.106780	0.587477	0.408693
	H105	H	0.877412	0.581970	0.583153
	H106	H	0.103724	0.405318	0.593094
	H107	H	0.871372	0.398206	0.403418
	H108	H	0.891229	0.614137	0.086032
	H109	H	0.082595	0.383678	0.085058
	H110	H	0.081582	0.613828	0.909514
	H111	H	0.897074	0.380874	0.908163
	H112	H	0.079793	0.904538	0.614357
	H113	H	0.079508	0.087043	0.383146
	H114	H	0.894826	0.082003	0.615553
	H115	H	0.892923	0.902200	0.381092
	H116	H	0.604233	0.076930	0.900022
	H117	H	0.371340	0.093725	0.090703
	H118	H	0.602697	0.905279	0.082018
	H119	H	0.374812	0.906181	0.906243
	C120	C	0.370324	0.004320	0.617372
	C121	C	0.612710	0.987711	0.621347
	C122	C	0.610081	0.004633	0.377971
	C123	C	0.365948	0.987518	0.374205
	C124	C	0.612489	0.374133	0.007605
	C125	C	0.611592	0.617480	0.990224
	C126	C	0.367949	0.619147	0.008145
	C127	C	0.367460	0.375484	0.991305
	C128	C	-0.001915	0.616852	0.379373
	C129	C	0.980249	0.617471	0.621493
	C130	C	-0.003119	0.373615	0.622942
	C131	C	0.981350	0.374020	0.378560
	C132	C	0.869857	0.504980	0.120620
	C133	C	0.113602	0.487708	0.124862
	C134	C	0.108646	0.504886	0.880931
	C135	C	0.866046	0.488073	0.877275
	C136	C	0.111939	0.873736	0.507855
	C137	C	0.110362	0.117320	0.491426
	C138	C	0.867165	0.117468	0.507969
	C139	C	0.868002	0.874469	0.490735
	C140	C	0.498039	0.118775	0.876086
	C141	C	0.480930	0.118059	0.119313
	C142	C	0.497889	0.874783	0.120009
	C143	C	0.481015	0.874833	0.875809
	C144	C	0.372939	0.881205	0.673331
	C145	C	0.611021	0.110969	0.676593
	C146	C	0.607809	0.881253	0.323164
	C147	C	0.368573	0.111274	0.319614
	C148	C	0.664629	0.378135	0.883723
	C149	C	0.667973	0.615163	0.114071
	C150	C	0.308960	0.617531	0.885865
	C151	C	0.316638	0.378326	0.115669
	C152	C	0.874879	0.672792	0.379110
	C153	C	0.103692	0.672809	0.621714
	C154	C	0.873570	0.318658	0.618392
	C155	C	0.104382	0.318542	0.383505
	C156	C	0.873178	0.377022	0.675457
	C157	C	0.103432	0.614929	0.678906
	C158	C	0.875101	0.615166	0.321531
	C159	C	0.104752	0.375898	0.325906
	C160	C	0.368456	0.672913	0.884176
	C161	C	0.611665	0.674150	0.113090
	C162	C	0.606407	0.320930	0.883241
	C163	C	0.373033	0.319884	0.114327
	C164	C	0.665054	0.881065	0.380670
	C165	C	0.668384	0.110835	0.619037
	C166	C	0.315736	0.880764	0.615692
	C167	C	0.309941	0.110709	0.376161
	C168	C	0.873855	0.380694	0.174229
	C169	C	0.110837	0.610802	0.180388
	C170	C	0.106551	0.381182	0.826413
	C171	C	0.867573	0.611511	0.822045
	C172	C	0.163920	0.875776	0.383733
	C173	C	0.169174	0.115122	0.613858
	C174	C	0.810355	0.115709	0.384563
	C175	C	0.814154	0.876621	0.613980
	C176	C	0.374659	0.173970	0.876571
	C177	C	0.604771	0.171909	0.117840
	C178	C	0.374884	0.819301	0.115957
	C179	C	0.604022	0.819258	0.880086
	C180	C	0.374659	0.876955	0.173184
	C181	C	0.604262	0.115309	0.176456
	C182	C	0.374923	0.116895	0.818583
	C183	C	0.604411	0.877247	0.823274
	C184	C	0.867761	0.173327	0.384964
	C185	C	0.109871	0.171408	0.615277
	C186	C	0.106684	0.817881	0.384625
	C187	C	0.871728	0.819287	0.614425
	C188	C	0.163957	0.381181	0.884830
	C189	C	0.168049	0.611293	0.122924
	C190	C	0.815990	0.381181	0.117138
	C191	C	0.810852	0.611730	0.879630
	C192	C	0.392317	0.090200	0.594591
	C193	C	0.590324	0.901904	0.598880
	C194	C	0.587664	0.090783	0.399932
	C195	C	0.388315	0.901486	0.396529
	C196	C	0.592139	0.395345	0.093801
	C197	C	0.588252	0.595192	0.904515
	C198	C	0.392854	0.596431	0.093890
	C199	C	0.387227	0.398047	0.904801
	C200	C	0.083630	0.593995	0.403670
	C201	C	0.894722	0.595413	0.597829
	C202	C	0.083196	0.395499	0.602438
	C203	C	0.895174	0.396650	0.398936
	C204	C	0.891371	0.591341	0.099072
	C205	C	0.092044	0.401404	0.102817
	C206	C	0.085860	0.590696	0.903098
	C207	C	0.888386	0.401691	0.899647
	C208	C	0.091886	0.896340	0.593987
	C209	C	0.085968	0.095304	0.405728
	C210	C	0.890240	0.095070	0.594311
	C211	C	0.889455	0.896741	0.404805
	C212	C	0.583827	0.096622	0.899903
	C213	C	0.394990	0.096314	0.096166
	C214	C	0.583665	0.897613	0.099115
	C215	C	0.394623	0.896954	0.896251
	Zn216	Zn	0.490042	-0.003200	0.748130
	Zn217	Zn	0.489536	-0.003815	0.248341
	Zn218	Zn	0.740337	0.496489	-0.000694
	Zn219	Zn	0.239481	0.497354	0.001611
	Zn220	Zn	-0.010439	0.746270	0.500287
	Zn221	Zn	-0.011105	0.245935	0.500506
	Zn222	Zn	-0.012280	0.496754	0.750612
	Zn223	Zn	-0.009479	0.495812	0.250407
	Zn224	Zn	0.489986	0.746608	-0.002183
	Zn225	Zn	0.489295	0.247082	-0.001924
	Zn226	Zn	0.739324	-0.004339	0.498688
	Zn227	Zn	0.239798	-0.004469	0.497876
	N228	N	0.406114	0.959038	0.674444
	N229	N	0.577155	0.033503	0.678105
	N230	N	0.574290	0.959163	0.321484
	N231	N	0.402508	0.033671	0.318040
	N232	N	0.668656	0.410389	0.961935
	N233	N	0.667966	0.580509	0.036816
	N234	N	0.308579	0.584716	0.964112
	N235	N	0.313075	0.412334	0.037995
	N236	N	0.952295	0.673834	0.414680
	N237	N	0.026327	0.674596	0.586616
	N238	N	0.951528	0.316329	0.586534
	N239	N	0.026615	0.317255	0.415441
	N240	N	0.950832	0.410450	0.678345
	N241	N	0.025762	0.581501	0.679094
	N242	N	0.952544	0.581376	0.321449
	N243	N	0.027134	0.409718	0.322818
	N244	N	0.404562	0.674036	0.961234
	N245	N	0.577272	0.675641	0.035329
	N246	N	0.574822	0.318149	0.961354
	N247	N	0.404127	0.318218	0.036066
	N248	N	0.666470	0.958767	0.414010
	N249	N	0.669728	0.033136	0.585402
	N250	N	0.314228	0.958129	0.581435
	N251	N	0.308084	0.032582	0.409117
	N252	N	0.906758	0.458593	0.176393
	N253	N	0.077719	0.532944	0.181596
	N254	N	0.072858	0.459034	0.823847
	N255	N	0.901173	0.533697	0.820614
	N256	N	0.167230	0.909712	0.461141
	N257	N	0.169541	0.082234	0.535836
	N258	N	0.810023	0.081797	0.462120
	N259	N	0.811745	0.910249	0.536194
	N260	N	0.452026	0.175183	0.911927
	N261	N	0.527184	0.173930	0.083127
	N262	N	0.452568	0.817564	0.083826
	N263	N	0.526236	0.817788	0.912248
	N264	N	0.452207	0.910706	0.176147
	N265	N	0.526393	0.082528	0.177582
	N266	N	0.452688	0.083283	0.818145
	N267	N	0.526874	0.910814	0.820389
	N268	N	0.902482	0.174531	0.462800
	N269	N	0.074082	0.173005	0.537991
	N270	N	0.075305	0.816209	0.462966
	N271	N	0.904535	0.817821	0.536814
	N272	N	0.165213	0.458975	0.918164
	N273	N	0.169957	0.533668	0.089080
	N274	N	0.813210	0.459439	0.084650
	N275	N	0.809522	0.533708	0.912834
	O276	O	-0.068708	-0.032078	-0.034569
	H277	H	-0.065483	-0.033866	-0.025168
	H278	H	-0.077211	-0.028507	-0.039935
	O279	O	0.494985	0.505193	0.424132
	H280	H	0.498223	0.506527	0.425651
	H281	H	0.498250	0.501604	0.413402
	O282	O	0.475401	0.525216	0.500340
	H283	H	0.493194	0.540520	0.503466
	H284	H	0.474313	0.523030	0.501424
	O285	O	-0.022893	1.060634	0.927097
	H286	H	-0.016824	1.052627	0.919041
	H287	H	-0.021954	1.065322	0.933757
	O288	O	0.409243	0.548477	0.452286
	H289	H	0.397430	0.542465	0.448658
	H290	H	0.405299	0.551010	0.469498
	O291	O	0.901670	0.954699	1.028902
	H292	H	0.900766	0.946793	1.032694
	H293	H	0.908517	0.951025	1.024746
	O294	O	1.040918	0.935694	1.086940
	H295	H	1.051139	0.946164	1.090828
	H296	H	1.042645	0.934913	1.080764
	O297	O	1.418518	0.567748	1.520351
	H298	H	1.430966	0.580654	1.517770
	H299	H	1.411901	0.573192	1.517617
	O300	O	0.542455	0.519886	0.504312
	H301	H	0.547361	0.524109	0.505300
	H302	H	0.549594	0.509486	0.494999
	O303	O	0.984908	-0.033185	0.066915
	H304	H	0.984198	-0.030187	0.068205
	H305	H	0.979332	-0.033177	0.060121
	O306	O	-0.001839	0.970398	1.016464
	H307	H	-0.003141	0.966550	1.022779
	H308	H	-0.008577	0.957286	1.023645
	O309	O	0.439239	0.414826	0.565775
	H310	H	0.440031	0.428349	0.570333
	H311	H	0.425434	0.409426	0.574449
	O312	O	1.024291	0.066135	1.039405
	H313	H	1.029084	0.066667	1.038698
	H314	H	1.029207	0.071114	1.044473
	O315	O	0.536776	0.451629	0.549362
	H316	H	0.531774	0.469426	0.543263
	H317	H	0.546547	0.445522	0.544616
	O318	O	0.524392	0.549803	0.431432
	H319	H	0.513059	0.559826	0.416486
	H320	H	0.517912	0.538382	0.425465
	O321	O	0.947261	1.078726	0.936068
	H322	H	0.931479	1.084356	0.923212
	H323	H	0.939090	1.090194	0.924731
	O324	O	0.526671	0.481935	0.575612
	H325	H	0.522957	0.484702	0.566022
	H326	H	0.523163	0.481335	0.586922
	O327	O	0.521566	0.543081	0.468282
	H328	H	0.522676	0.536861	0.463142
	H329	H	0.520901	0.537690	0.466890
	O330	O	0.926688	-0.003643	0.957545
	H331	H	0.926145	0.001087	0.953508
	H332	H	0.925943	-0.002809	0.957241
	O333	O	0.874241	1.129417	-0.073656
	H334	H	0.883809	1.125861	-0.068336
	H335	H	0.870872	1.131751	-0.077664
	O336	O	0.456496	0.580127	0.406885
	H337	H	0.454439	0.565792	0.410444
	H338	H	0.453604	0.581660	0.392264
	O339	O	0.581425	0.465972	0.516125
	H340	H	0.587956	0.472936	0.528349
	H341	H	0.589622	0.461635	0.520681
	O342	O	-0.001222	1.042596	0.095568
	H343	H	-0.000912	1.044859	0.090514
	H344	H	-0.001080	1.054648	0.097155
	O345	O	0.036672	-0.003284	0.045355
	H346	H	0.046136	-0.005163	0.056388
	H347	H	0.044610	-0.019895	0.042298
	O348	O	0.421598	0.428983	0.588434
	H349	H	0.422505	0.430517	0.593142
	H350	H	0.414809	0.423681	0.588521
	O351	O	0.461400	0.541022	0.486523
	H352	H	0.469978	0.542533	0.473761
	H353	H	0.455632	0.551587	0.497515
	O354	O	1.005824	1.090828	-0.090904
	H355	H	1.000890	1.085712	-0.085992
	H356	H	1.002029	1.089500	-0.097978
	O357	O	0.103612	0.109007	1.098978
	H358	H	0.100648	0.122037	1.086066
	H359	H	0.113554	0.127351	1.106462
	O360	O	0.017505	-0.096541	-0.070090
	H361	H	0.010435	-0.095525	-0.075053
	H362	H	0.025881	-0.096485	-0.068470
	O363	O	0.536158	0.462295	0.530502
	H364	H	0.542962	0.459143	0.525327
	H365	H	0.528227	0.470486	0.529930
	O366	O	0.015490	-0.016317	0.972972
	H367	H	0.010693	-0.014097	0.973242
	H368	H	0.010971	-0.008962	0.965873
	O369	O	1.431634	0.563201	-0.545604
	H370	H	1.423000	0.568600	-0.557660
	H371	H	1.433708	0.568040	-0.535945
