data_Molecule from HDF5

_cell_length_a		16.369153
_cell_length_b		16.379951
_cell_length_c		16.264056
_cell_angle_alpha	89.782757
_cell_angle_beta	90.038742
_cell_angle_gamma	90.033801
_symmetry_space_group_name_H-M	'P 1'
_symmetry_Int_Tables_number		1

loop_
	_symmetry_equiv_pos_as_xyz
	x,y,z

loop_
	_atom_site_label
	_atom_site_type_symbol
	_atom_site_fract_x
	_atom_site_fract_y
	_atom_site_fract_z
	H0	H	0.387243	0.817769	0.714838
	H1	H	0.587489	0.142126	0.711039
	H2	H	0.590731	0.817479	0.279235
	H3	H	0.389491	0.141264	0.280085
	H4	H	0.706404	0.377167	0.835664
	H5	H	0.705130	0.579733	0.159177
	H6	H	0.268653	0.581812	0.835277
	H7	H	0.271429	0.376607	0.160443
	H8	H	0.829138	0.700163	0.392203
	H9	H	0.149326	0.697625	0.599861
	H10	H	0.827940	0.259473	0.602420
	H11	H	0.150887	0.264038	0.399167
	H12	H	0.827333	0.377487	0.715575
	H13	H	0.149235	0.581512	0.715030
	H14	H	0.826515	0.580360	0.280705
	H15	H	0.150037	0.379634	0.281537
	H16	H	0.381720	0.701276	0.836565
	H17	H	0.590570	0.696487	0.158638
	H18	H	0.588058	0.264208	0.833640
	H19	H	0.387330	0.260208	0.159164
	H20	H	0.709101	0.819303	0.392627
	H21	H	0.706369	0.141055	0.596402
	H22	H	0.270189	0.818541	0.599740
	H23	H	0.272928	0.141259	0.396782
	H24	H	0.887135	0.318544	0.214984
	H25	H	0.090725	0.641308	0.214680
	H26	H	0.088784	0.317750	0.779930
	H27	H	0.884528	0.640235	0.776745
	H28	H	0.205915	0.879451	0.334710
	H29	H	0.206381	0.079774	0.660549
	H30	H	0.772151	0.083588	0.334060
	H31	H	0.770455	0.876434	0.657686
	H32	H	0.326901	0.196998	0.892611
	H33	H	0.649199	0.196971	0.098912
	H34	H	0.327909	0.758339	0.101981
	H35	H	0.647166	0.758295	0.891631
	H36	H	0.327420	0.875932	0.216005
	H37	H	0.649864	0.080331	0.212510
	H38	H	0.327162	0.080512	0.777522
	H39	H	0.649413	0.877004	0.778240
	H40	H	0.888008	0.197770	0.335353
	H41	H	0.090032	0.195664	0.661286
	H42	H	0.093568	0.760390	0.335904
	H43	H	0.885657	0.760202	0.657964
	H44	H	0.207265	0.318285	0.894916
	H45	H	0.208359	0.639914	0.100517
	H46	H	0.770101	0.318879	0.101404
	H47	H	0.767462	0.639081	0.892018
	H48	H	0.409136	0.089199	0.582654
	H49	H	0.580251	0.867026	0.582043
	H50	H	0.575788	0.093135	0.402893
	H51	H	0.401732	0.865618	0.407344
	H52	H	0.566025	0.392788	0.106904
	H53	H	0.579609	0.570300	0.880549
	H54	H	0.399008	0.561860	0.109427
	H55	H	0.398482	0.384831	0.881792
	H56	H	0.103479	0.568347	0.404286
	H57	H	0.876545	0.568134	0.581719
	H58	H	0.102936	0.382489	0.583218
	H59	H	0.873499	0.395623	0.397768
	H60	H	0.100194	0.393987	0.587440
	H61	H	0.874516	0.566103	0.589014
	H62	H	0.103676	0.573969	0.406564
	H63	H	0.868903	0.377130	0.403591
	H64	H	0.404559	0.571314	0.110293
	H65	H	0.576968	0.565194	0.882510
	H66	H	0.579586	0.372627	0.116733
	H67	H	0.392433	0.388198	0.881161
	H68	H	0.582879	0.093212	0.408231
	H69	H	0.583927	0.862789	0.589274
	H70	H	0.387381	0.093710	0.577982
	H71	H	0.393818	0.864585	0.410360
	H72	H	0.893424	0.594924	0.084865
	H73	H	0.080104	0.367211	0.083424
	H74	H	0.079417	0.591831	0.910319
	H75	H	0.901528	0.367642	0.912055
	H76	H	0.082329	0.887375	0.613755
	H77	H	0.079980	0.076139	0.381443
	H78	H	0.901726	0.063878	0.608953
	H79	H	0.899833	0.885916	0.379990
	H80	H	0.601747	0.069487	0.905595
	H81	H	0.374114	0.068946	0.087053
	H82	H	0.598404	0.893117	0.081783
	H83	H	0.373176	0.881932	0.912640
	H84	H	0.604054	0.890614	0.093862
	H85	H	0.373334	0.070155	0.086684
	H86	H	0.605529	0.072949	0.899063
	H87	H	0.379177	0.897503	0.911267
	H88	H	0.900226	0.077601	0.614122
	H89	H	0.083944	0.072026	0.382179
	H90	H	0.078715	0.890998	0.610627
	H91	H	0.896524	0.892818	0.381884
	H92	H	0.079468	0.593793	0.905182
	H93	H	0.083816	0.362687	0.091766
	H94	H	0.894836	0.595820	0.090870
	H95	H	0.891857	0.364709	0.909678
	H96	H	0.395394	0.098337	0.599216
	H97	H	0.575392	0.866201	0.589449
	H98	H	0.583402	0.096124	0.399787
	H99	H	0.395595	0.862833	0.401909
	H100	H	0.591086	0.395587	0.114179
	H101	H	0.574192	0.571275	0.882761
	H102	H	0.394115	0.570622	0.113904
	H103	H	0.397854	0.392190	0.883268
	H104	H	0.101755	0.569011	0.410011
	H105	H	0.873111	0.573597	0.586250
	H106	H	0.105629	0.385871	0.595127
	H107	H	0.877497	0.390291	0.416967
	H108	H	0.899676	0.593645	0.087444
	H109	H	0.074543	0.366004	0.092123
	H110	H	0.074587	0.591601	0.907584
	H111	H	0.899360	0.364926	0.902567
	H112	H	0.077107	0.885434	0.612236
	H113	H	0.077908	0.070802	0.384064
	H114	H	0.888588	0.068300	0.614487
	H115	H	0.903856	0.891685	0.382706
	H116	H	0.603932	0.076927	0.905908
	H117	H	0.374374	0.069759	0.086113
	H118	H	0.602851	0.880822	0.083861
	H119	H	0.371843	0.890982	0.897996
	C120	C	0.366785	-0.012267	0.618375
	C121	C	0.609821	0.971800	0.617063
	C122	C	0.610771	-0.012384	0.374013
	C123	C	0.367501	0.971102	0.376105
	C124	C	0.609056	0.357487	0.005303
	C125	C	0.608649	0.599665	0.988531
	C126	C	0.366722	0.599995	0.005027
	C127	C	0.366235	0.356856	0.989044
	C128	C	-0.003104	0.601488	0.375518
	C129	C	0.980158	0.600511	0.617676
	C130	C	-0.003129	0.356872	0.619521
	C131	C	0.980300	0.358179	0.376664
	C132	C	0.866129	0.488310	0.118813
	C133	C	0.110105	0.471709	0.119220
	C134	C	0.108755	0.486759	0.876388
	C135	C	0.866322	0.471330	0.875452
	C136	C	0.110435	0.857747	0.505462
	C137	C	0.110214	0.101547	0.490240
	C138	C	0.867042	0.100991	0.505343
	C139	C	0.868467	0.858764	0.488334
	C140	C	0.496883	0.102031	0.873440
	C141	C	0.480405	0.099918	0.116862
	C142	C	0.496352	0.856773	0.118567
	C143	C	0.480072	0.858416	0.875558
	C144	C	0.367461	0.866254	0.676151
	C145	C	0.608243	0.093459	0.673178
	C146	C	0.610312	0.866194	0.317251
	C147	C	0.369397	0.092935	0.319077
	C148	C	0.666725	0.358184	0.883528
	C149	C	0.666384	0.599353	0.110636
	C150	C	0.307668	0.601253	0.883793
	C151	C	0.309927	0.357230	0.111622
	C152	C	0.876623	0.660243	0.373999
	C153	C	0.101274	0.658405	0.618551
	C154	C	0.875946	0.298854	0.620682
	C155	C	0.102232	0.302187	0.378703
	C156	C	0.875766	0.357134	0.677480
	C157	C	0.101065	0.600823	0.676136
	C158	C	0.875344	0.600631	0.318719
	C159	C	0.101853	0.359701	0.320177
	C160	C	0.363907	0.660574	0.884430
	C161	C	0.609189	0.657393	0.110346
	C162	C	0.608007	0.301957	0.882683
	C163	C	0.367400	0.299188	0.110860
	C164	C	0.669456	0.867011	0.373474
	C165	C	0.667124	0.092950	0.616114
	C166	C	0.309437	0.866353	0.618735
	C167	C	0.311077	0.092725	0.376548
	C168	C	0.867352	0.366983	0.176530
	C169	C	0.109906	0.592855	0.176185
	C170	C	0.108808	0.365934	0.818500
	C171	C	0.865202	0.591837	0.815827
	C172	C	0.167863	0.858983	0.383562
	C173	C	0.167565	0.099692	0.612206
	C174	C	0.810301	0.102231	0.383216
	C175	C	0.809871	0.857683	0.609351
	C176	C	0.375472	0.158801	0.873432
	C177	C	0.600994	0.157882	0.117200
	C178	C	0.375923	0.797939	0.120216
	C179	C	0.599748	0.798324	0.873320
	C180	C	0.375654	0.856301	0.177161
	C181	C	0.601461	0.099746	0.173969
	C182	C	0.375312	0.100744	0.816191
	C183	C	0.600871	0.857526	0.816979
	C184	C	0.868080	0.159210	0.383765
	C185	C	0.109679	0.157334	0.612483
	C186	C	0.111831	0.799858	0.384129
	C187	C	0.867316	0.799734	0.609493
	C188	C	0.167317	0.366043	0.875986
	C189	C	0.168673	0.592179	0.119444
	C190	C	0.809102	0.367039	0.119572
	C191	C	0.807098	0.591342	0.873527
	C192	C	0.390437	0.071991	0.593818
	C193	C	0.586733	0.887458	0.593818
	C194	C	0.587491	0.072205	0.396963
	C195	C	0.390390	0.886422	0.399629
	C196	C	0.585732	0.380404	0.090228
	C197	C	0.584102	0.575777	0.904130
	C198	C	0.391921	0.574888	0.089184
	C199	C	0.389343	0.381331	0.904069
	C200	C	0.081168	0.577415	0.400004
	C201	C	0.896425	0.576264	0.592973
	C202	C	0.080977	0.380576	0.595604
	C203	C	0.895421	0.380923	0.399488
	C204	C	0.889376	0.572801	0.094733
	C205	C	0.086311	0.387266	0.095882
	C206	C	0.084746	0.570531	0.900546
	C207	C	0.890711	0.387518	0.900566
	C208	C	0.086269	0.881111	0.590223
	C209	C	0.087247	0.079360	0.404749
	C210	C	0.890020	0.076707	0.590529
	C211	C	0.892849	0.883097	0.403474
	C212	C	0.581716	0.079401	0.896751
	C213	C	0.395961	0.076315	0.093315
	C214	C	0.580063	0.880931	0.093659
	C215	C	0.396351	0.883077	0.900129
	Zn216	Zn	0.488463	-0.020891	0.746566
	Zn217	Zn	0.488352	-0.020920	0.246151
	Zn218	Zn	0.737408	0.478749	-0.002632
	Zn219	Zn	0.238247	0.478778	-0.002325
	Zn220	Zn	-0.010854	0.729710	0.496404
	Zn221	Zn	-0.011781	0.229274	0.498425
	Zn222	Zn	-0.012063	0.479720	0.746642
	Zn223	Zn	-0.012206	0.480180	0.247202
	Zn224	Zn	0.488222	0.728461	-0.003550
	Zn225	Zn	0.488283	0.229169	-0.003948
	Zn226	Zn	0.739229	-0.020522	0.495482
	Zn227	Zn	0.237946	-0.020610	0.497514
	N228	N	0.402528	0.942613	0.675827
	N229	N	0.573391	0.017125	0.673941
	N230	N	0.574662	0.942239	0.317314
	N231	N	0.403416	0.016227	0.318391
	N232	N	0.667435	0.392136	0.960688
	N233	N	0.666288	0.564437	0.033858
	N234	N	0.309380	0.564380	0.959855
	N235	N	0.308956	0.392337	0.034576
	N236	N	0.953431	0.661145	0.408362
	N237	N	0.025040	0.658505	0.582884
	N238	N	0.952318	0.298535	0.585589
	N239	N	0.025536	0.301022	0.412914
	N240	N	0.951805	0.392649	0.676828
	N241	N	0.024928	0.565375	0.675484
	N242	N	0.951210	0.565015	0.319419
	N243	N	0.025065	0.393776	0.318751
	N244	N	0.400018	0.659747	0.960693
	N245	N	0.574169	0.657906	0.033406
	N246	N	0.572811	0.301462	0.959309
	N247	N	0.401416	0.298943	0.033648
	N248	N	0.670150	0.943542	0.407635
	N249	N	0.668277	0.016312	0.581883
	N250	N	0.309004	0.942811	0.583493
	N251	N	0.309539	0.015904	0.411055
	N252	N	0.902266	0.443395	0.176111
	N253	N	0.074418	0.516728	0.176390
	N254	N	0.073115	0.441954	0.818622
	N255	N	0.901552	0.516215	0.817065
	N256	N	0.166733	0.894590	0.459901
	N257	N	0.168023	0.065767	0.535005
	N258	N	0.809783	0.066366	0.459937
	N259	N	0.810406	0.893577	0.532870
	N260	N	0.452040	0.159874	0.908133
	N261	N	0.524668	0.157983	0.082128
	N262	N	0.451948	0.798070	0.084454
	N263	N	0.523556	0.798690	0.908934
	N264	N	0.451481	0.892415	0.176204
	N265	N	0.525349	0.064153	0.173796
	N266	N	0.451754	0.066241	0.815931
	N267	N	0.525457	0.894190	0.818424
	N268	N	0.902430	0.158777	0.460811
	N269	N	0.074556	0.158369	0.535738
	N270	N	0.076963	0.798875	0.461035
	N271	N	0.902922	0.800200	0.532898
	N272	N	0.167629	0.442156	0.910969
	N273	N	0.169010	0.515652	0.085017
	N274	N	0.808069	0.443576	0.084446
	N275	N	0.807627	0.515492	0.909824
	O276	O	0.518936	0.418622	0.588485
	H277	H	0.519811	0.423178	0.587399
	H278	H	0.522122	0.416178	0.595179
	O279	O	0.651990	0.577014	0.528723
	H280	H	0.637404	0.560649	0.534003
	H281	H	0.645637	0.567617	0.531626
	O282	O	1.001837	-0.203401	0.991305
	H283	H	0.999078	-0.204672	0.984277
	H284	H	1.002293	-0.200149	0.992542
	O285	O	0.395252	0.624241	0.366512
	H286	H	0.386757	0.626127	0.386729
	H287	H	0.417492	0.613347	0.360640
	O288	O	0.922016	1.056143	0.814501
	H289	H	0.937186	1.066139	0.818482
	H290	H	0.919818	1.049998	0.812535
	O291	O	-0.121264	0.917004	0.045522
	H292	H	-0.131428	0.918338	0.052305
	H293	H	-0.122499	0.917738	0.045403
	O294	O	0.639815	0.641233	0.589471
	H295	H	0.648245	0.653653	0.591727
	H296	H	0.633777	0.634924	0.609497
	O297	O	0.340282	0.446708	0.339364
	H298	H	0.349919	0.466731	0.330931
	H299	H	0.344650	0.447431	0.338159
	O300	O	0.578731	0.357766	0.439904
	H301	H	0.577361	0.356810	0.444903
	H302	H	0.567372	0.356943	0.438387
	O303	O	-0.023675	1.132904	0.943181
	H304	H	-0.017942	1.133935	0.942485
	H305	H	-0.020318	1.135474	0.932450
	O306	O	0.645663	0.418477	0.523423
	H307	H	0.642367	0.409535	0.534649
	H308	H	0.654604	0.419217	0.510717
	O309	O	0.898149	1.033795	-0.121682
	H310	H	0.909060	1.034703	-0.123979
	H311	H	0.899843	1.037261	-0.113783
	O312	O	-0.138039	-0.056842	-0.096403
	H313	H	-0.133279	-0.049657	-0.085985
	H314	H	-0.138491	-0.063800	-0.102176
	O315	O	0.552448	0.585771	0.621967
	H316	H	0.555782	0.593332	0.624773
	H317	H	0.537564	0.595699	0.607124
	O318	O	-0.005411	0.829042	1.045291
	H319	H	-0.013470	0.820344	1.042616
	H320	H	-0.002378	0.832156	1.036633
	O321	O	0.940236	-0.048302	0.046749
	H322	H	0.940915	-0.051407	0.046626
	H323	H	0.943359	-0.047053	0.042229
	O324	O	0.143284	1.013977	0.169431
	H325	H	0.148844	1.001970	0.164210
	H326	H	0.138403	1.014251	0.176766
	O327	O	0.404584	0.654507	0.428425
	H328	H	0.404229	0.662303	0.433572
	H329	H	0.410893	0.659678	0.433260
	O330	O	-1.207086	1.005865	1.935648
	H331	H	-1.204661	1.010065	1.938449
	H332	H	-1.221933	0.995158	1.927510
	O333	O	-0.513239	-0.334600	1.401605
	H334	H	-0.517629	-0.335553	1.415033
	H335	H	-0.522381	-0.335057	1.397537
	O336	O	0.488276	0.452362	0.670534
	H337	H	0.485082	0.443293	0.671894
	H338	H	0.485620	0.462642	0.683911
	O339	O	1.055205	0.073005	0.021264
	H340	H	1.062378	0.074546	0.035715
	H341	H	1.048722	0.078863	0.021031
	O342	O	0.008413	-0.166003	0.043064
	H343	H	-0.001839	-0.179087	0.039079
	H344	H	0.017841	-0.163742	0.033397
	O345	O	1.379390	0.410736	0.433016
	H346	H	1.377176	0.403517	0.417719
	H347	H	1.385308	0.428046	0.430599
	O348	O	1.614780	1.328484	0.471361
	H349	H	1.629474	1.311086	0.477863
	H350	H	1.608121	1.336106	0.477172
	O351	O	0.391800	0.408989	0.643941
	H352	H	0.380518	0.398157	0.634663
	H353	H	0.388577	0.413163	0.637163
	O354	O	1.145663	-0.200646	0.900533
	H355	H	1.153023	-0.200831	0.882906
	H356	H	1.140974	-0.193850	0.887924
	O357	O	0.802004	-0.004326	1.030720
	H358	H	0.792131	-0.021169	1.022858
	H359	H	0.790578	-0.016335	1.039761
	O360	O	0.414082	0.498544	0.505411
	H361	H	0.397995	0.500163	0.510461
	H362	H	0.416920	0.491833	0.499258
	O363	O	0.135402	1.166439	1.164879
	H364	H	0.131367	1.164158	1.175983
	H365	H	0.112643	1.167962	1.175075
	O366	O	1.071517	1.056360	-0.121669
	H367	H	1.063754	1.044757	-0.120540
	H368	H	1.078643	1.064265	-0.105363
	O369	O	0.139896	0.985332	-0.105432
	H370	H	0.151160	0.992105	-0.104355
	H371	H	0.141468	0.987392	-0.087201
	O372	O	1.030284	-0.043560	-0.033843
	H373	H	1.041826	-0.043645	-0.017087
	H374	H	1.033813	-0.040730	-0.028459
	O375	O	0.309906	0.491432	0.479741
	H376	H	0.294172	0.505008	0.485238
	H377	H	0.303154	0.489789	0.477957
	O378	O	1.453199	1.409870	0.650527
	H379	H	1.442967	1.401444	0.649856
	H380	H	1.449766	1.395959	0.654880
	O381	O	0.967916	0.156333	0.128181
	H382	H	0.971828	0.155742	0.132684
	H383	H	0.957520	0.154225	0.121087
	O384	O	0.455571	1.385189	-0.472790
	H385	H	0.447944	1.364952	-0.469924
	H386	H	0.453019	1.384265	-0.486915
	O387	O	-0.153701	-0.140056	0.184718
	H388	H	-0.141964	-0.142117	0.181789
	H389	H	-0.153437	-0.148101	0.188222
	O390	O	-0.089859	0.871486	0.018508
	H391	H	-0.089808	0.884885	0.028907
	H392	H	-0.095834	0.873686	0.012732
	O393	O	0.913496	0.964761	1.002188
	H394	H	0.923987	0.970033	0.991523
	H395	H	0.892392	0.968571	1.010286
	O396	O	0.523824	0.371725	0.437950
	H397	H	0.533834	0.364766	0.446270
	H398	H	0.524428	0.362684	0.430643
	O399	O	0.109608	0.964794	0.929144
	H400	H	0.138299	0.964800	0.930600
	H401	H	0.104473	0.952602	0.910315
	O402	O	0.557085	0.433251	0.428896
	H403	H	0.557519	0.439787	0.420793
	H404	H	0.565913	0.417872	0.418281
	O405	O	1.090921	0.938602	0.111498
	H406	H	1.090958	0.910610	0.112009
	H407	H	1.084007	0.937523	0.110809
	O408	O	1.422371	0.639130	0.608420
	H409	H	1.420294	0.644203	0.612191
	H410	H	1.427556	0.619837	0.610662
	O411	O	1.009035	0.159279	1.056112
	H412	H	0.994331	0.162194	1.058071
	H413	H	1.014560	0.155020	1.069285
	O414	O	0.626644	0.556038	0.321793
	H415	H	0.630170	0.564826	0.339059
	H416	H	0.642300	0.542354	0.323824
	O417	O	0.433112	0.455223	0.487100
	H418	H	0.430227	0.470064	0.493745
	H419	H	0.435326	0.454517	0.464361
