data_Molecule from HDF5

_cell_length_a		16.207512
_cell_length_b		16.340905
_cell_length_c		16.262740
_cell_angle_alpha	90.182584
_cell_angle_beta	90.087064
_cell_angle_gamma	89.836788
_symmetry_space_group_name_H-M	'P 1'
_symmetry_Int_Tables_number		1

loop_
	_symmetry_equiv_pos_as_xyz
	x,y,z

loop_
	_atom_site_label
	_atom_site_type_symbol
	_atom_site_fract_x
	_atom_site_fract_y
	_atom_site_fract_z
	H0	H	0.403285	0.836409	0.709697
	H1	H	0.600375	0.163016	0.708735
	H2	H	0.601530	0.837480	0.277044
	H3	H	0.400870	0.162386	0.280300
	H4	H	0.717898	0.401468	0.829759
	H5	H	0.716449	0.599980	0.157579
	H6	H	0.287817	0.598695	0.829907
	H7	H	0.290663	0.405040	0.158402
	H8	H	0.838879	0.714897	0.395218
	H9	H	0.166408	0.714929	0.595662
	H10	H	0.837851	0.286225	0.593143
	H11	H	0.165726	0.282486	0.394460
	H12	H	0.838709	0.401083	0.709459
	H13	H	0.167648	0.596070	0.707153
	H14	H	0.838237	0.597607	0.281328
	H15	H	0.167525	0.400044	0.280692
	H16	H	0.403229	0.714471	0.829904
	H17	H	0.603140	0.718206	0.156394
	H18	H	0.603209	0.283802	0.830075
	H19	H	0.402318	0.285649	0.156654
	H20	H	0.715352	0.835212	0.396297
	H21	H	0.717540	0.162108	0.593928
	H22	H	0.288215	0.835384	0.592219
	H23	H	0.285073	0.160350	0.396141
	H24	H	0.903093	0.336636	0.208836
	H25	H	0.101749	0.662877	0.212456
	H26	H	0.103067	0.336909	0.778791
	H27	H	0.903991	0.662761	0.778927
	H28	H	0.216183	0.898327	0.330997
	H29	H	0.217193	0.097154	0.657911
	H30	H	0.788312	0.095557	0.330049
	H31	H	0.788080	0.901859	0.658537
	H32	H	0.338329	0.215552	0.893987
	H33	H	0.666146	0.214887	0.092720
	H34	H	0.338850	0.786841	0.091305
	H35	H	0.665812	0.784048	0.892106
	H36	H	0.337566	0.903069	0.205252
	H37	H	0.665847	0.098874	0.208656
	H38	H	0.336991	0.098020	0.780684
	H39	H	0.667188	0.902817	0.780518
	H40	H	0.901186	0.214531	0.330444
	H41	H	0.102342	0.214377	0.657151
	H42	H	0.102374	0.781869	0.331994
	H43	H	0.902007	0.784097	0.657979
	H44	H	0.218822	0.337739	0.895265
	H45	H	0.216326	0.664633	0.093842
	H46	H	0.787453	0.337787	0.092207
	H47	H	0.787917	0.664217	0.895353
	H48	H	0.411766	0.109190	0.571852
	H49	H	0.593215	0.882077	0.593731
	H50	H	0.599899	0.117341	0.398618
	H51	H	0.415189	0.883801	0.397904
	H52	H	0.591389	0.417105	0.106081
	H53	H	0.596813	0.596775	0.876058
	H54	H	0.411183	0.589566	0.107732
	H55	H	0.411898	0.407953	0.877145
	H56	H	0.120135	0.590037	0.401016
	H57	H	0.885863	0.592033	0.587592
	H58	H	0.120468	0.408211	0.593342
	H59	H	0.883843	0.403073	0.399645
	H60	H	0.121859	0.398279	0.585425
	H61	H	0.885502	0.593416	0.586468
	H62	H	0.120538	0.594378	0.403468
	H63	H	0.887058	0.406610	0.405047
	H64	H	0.414560	0.599647	0.110449
	H65	H	0.597417	0.589159	0.877208
	H66	H	0.588647	0.401430	0.109829
	H67	H	0.409742	0.406724	0.876661
	H68	H	0.589199	0.115146	0.399283
	H69	H	0.591149	0.885680	0.582504
	H70	H	0.394335	0.120332	0.590718
	H71	H	0.406422	0.883073	0.404080
	H72	H	0.913813	0.615359	0.090615
	H73	H	0.094585	0.387606	0.082851
	H74	H	0.102362	0.618397	0.902880
	H75	H	0.917260	0.383360	0.892744
	H76	H	0.102550	0.900372	0.614973
	H77	H	0.093695	0.088201	0.378898
	H78	H	0.904024	0.095278	0.612878
	H79	H	0.907409	0.887493	0.372153
	H80	H	0.622177	0.103049	0.901714
	H81	H	0.386295	0.090997	0.085303
	H82	H	0.619324	0.910624	0.086037
	H83	H	0.382752	0.906919	0.892331
	H84	H	0.619950	0.907307	0.086460
	H85	H	0.384216	0.095732	0.089056
	H86	H	0.615172	0.088106	0.909585
	H87	H	0.384078	0.900755	0.904182
	H88	H	0.911234	0.086777	0.608139
	H89	H	0.091267	0.091630	0.377794
	H90	H	0.097808	0.916102	0.609339
	H91	H	0.894368	0.918371	0.377504
	H92	H	0.092443	0.617567	0.893291
	H93	H	0.101029	0.383557	0.087802
	H94	H	0.909292	0.614987	0.084201
	H95	H	0.914213	0.389634	0.911391
	H96	H	0.421221	0.114843	0.597491
	H97	H	0.602399	0.882292	0.585720
	H98	H	0.595524	0.113034	0.407354
	H99	H	0.405743	0.879715	0.393728
	H100	H	0.603196	0.407390	0.112208
	H101	H	0.589963	0.593001	0.878084
	H102	H	0.404082	0.595936	0.112377
	H103	H	0.408968	0.409052	0.877844
	H104	H	0.118727	0.590707	0.406089
	H105	H	0.886209	0.591656	0.585800
	H106	H	0.116105	0.409454	0.581564
	H107	H	0.885811	0.410411	0.398161
	H108	H	0.906897	0.617160	0.091285
	H109	H	0.092823	0.384260	0.090747
	H110	H	0.089793	0.613227	0.905671
	H111	H	0.899041	0.381255	0.901496
	H112	H	0.085517	0.903415	0.609850
	H113	H	0.095286	0.091699	0.377255
	H114	H	0.914615	0.098100	0.610244
	H115	H	0.927299	0.911761	0.385168
	H116	H	0.620438	0.087996	0.893201
	H117	H	0.385268	0.096794	0.083302
	H118	H	0.618575	0.908614	0.083562
	H119	H	0.387977	0.913414	0.903195
	C120	C	0.380630	0.007014	0.615264
	C121	C	0.624190	0.991151	0.616151
	C122	C	0.623776	0.007664	0.372521
	C123	C	0.379610	0.990222	0.371420
	C124	C	0.623775	0.379426	0.001467
	C125	C	0.623938	0.622427	0.984847
	C126	C	0.380851	0.623205	0.002311
	C127	C	0.381280	0.379598	0.985391
	C128	C	0.011253	0.620502	0.374228
	C129	C	0.994200	0.621007	0.615742
	C130	C	0.010957	0.377741	0.615441
	C131	C	0.994034	0.377593	0.372580
	C132	C	0.880835	0.508260	0.116912
	C133	C	0.124591	0.492695	0.116660
	C134	C	0.124267	0.508656	0.872290
	C135	C	0.880995	0.492256	0.872640
	C136	C	0.123569	0.877076	0.503310
	C137	C	0.122979	0.119919	0.485667
	C138	C	0.880138	0.121352	0.502375
	C139	C	0.881002	0.877996	0.486460
	C140	C	0.510680	0.121693	0.872331
	C141	C	0.493294	0.123424	0.115835
	C142	C	0.510897	0.879733	0.114039
	C143	C	0.493810	0.878722	0.871369
	C144	C	0.383003	0.884948	0.671001
	C145	C	0.621449	0.114034	0.671258
	C146	C	0.622029	0.885494	0.316037
	C147	C	0.381046	0.113204	0.317507
	C148	C	0.679937	0.381064	0.878650
	C149	C	0.679417	0.620921	0.108420
	C150	C	0.324960	0.619954	0.879193
	C151	C	0.326975	0.383063	0.108922
	C152	C	0.887648	0.676066	0.375541
	C153	C	0.117645	0.676300	0.614425
	C154	C	0.887249	0.323315	0.613601
	C155	C	0.117280	0.321171	0.374444
	C156	C	0.887574	0.380749	0.671211
	C157	C	0.118186	0.617627	0.670467
	C158	C	0.887507	0.618075	0.319004
	C159	C	0.118030	0.379694	0.318146
	C160	C	0.382679	0.677300	0.878823
	C161	C	0.622923	0.679334	0.107968
	C162	C	0.622867	0.322670	0.878789
	C163	C	0.382747	0.323992	0.108057
	C164	C	0.678766	0.884709	0.375189
	C165	C	0.679542	0.113720	0.614259
	C166	C	0.326003	0.884288	0.612675
	C167	C	0.323320	0.112177	0.374991
	C168	C	0.883090	0.385573	0.171070
	C169	C	0.122070	0.614703	0.173458
	C170	C	0.122806	0.385669	0.816956
	C171	C	0.883249	0.614320	0.817074
	C172	C	0.178529	0.878275	0.380009
	C173	C	0.179275	0.117967	0.608866
	C174	C	0.825214	0.117547	0.379085
	C175	C	0.825773	0.881130	0.609522
	C176	C	0.387325	0.177264	0.874122
	C177	C	0.616774	0.177969	0.113795
	C178	C	0.387428	0.824898	0.111279
	C179	C	0.617151	0.822795	0.872911
	C180	C	0.387000	0.882590	0.168309
	C181	C	0.616692	0.120265	0.171386
	C182	C	0.386749	0.119169	0.817380
	C183	C	0.617596	0.881330	0.817068
	C184	C	0.881674	0.176363	0.379336
	C185	C	0.121785	0.175801	0.608725
	C186	C	0.121678	0.820777	0.380307
	C187	C	0.882344	0.822536	0.609374
	C188	C	0.180189	0.385868	0.874830
	C189	C	0.178811	0.615541	0.114340
	C190	C	0.825225	0.386184	0.113238
	C191	C	0.825487	0.614947	0.874839
	C192	C	0.402565	0.092813	0.593065
	C193	C	0.602144	0.905553	0.593935
	C194	C	0.601512	0.093031	0.395153
	C195	C	0.402514	0.904350	0.392288
	C196	C	0.601108	0.401933	0.087140
	C197	C	0.601235	0.599841	0.899333
	C198	C	0.403512	0.601544	0.088017
	C199	C	0.403714	0.401540	0.899440
	C200	C	0.097496	0.598182	0.396771
	C201	C	0.907984	0.598906	0.593228
	C202	C	0.097213	0.398993	0.593321
	C203	C	0.907824	0.399899	0.394606
	C204	C	0.903347	0.593806	0.095112
	C205	C	0.102674	0.407211	0.093761
	C206	C	0.101607	0.594152	0.894183
	C207	C	0.903598	0.406846	0.895269
	C208	C	0.101658	0.899754	0.589157
	C209	C	0.100060	0.097214	0.400249
	C210	C	0.903170	0.099752	0.588328
	C211	C	0.903174	0.899483	0.400468
	C212	C	0.596903	0.099503	0.894803
	C213	C	0.407503	0.101218	0.092735
	C214	C	0.596990	0.902252	0.091967
	C215	C	0.407375	0.900536	0.893306
	Zn216	Zn	0.502181	-0.000080	0.744399
	Zn217	Zn	0.501961	0.000268	0.242998
	Zn218	Zn	0.752190	0.501178	-0.005780
	Zn219	Zn	0.253222	0.501104	-0.005955
	Zn220	Zn	0.002631	0.749190	0.494982
	Zn221	Zn	0.002230	0.249643	0.493982
	Zn222	Zn	0.002921	0.499564	0.743698
	Zn223	Zn	0.003128	0.499642	0.246056
	Zn224	Zn	0.502919	0.751042	-0.006769
	Zn225	Zn	0.502210	0.250816	-0.006965
	Zn226	Zn	0.752685	-0.000439	0.494508
	Zn227	Zn	0.251659	-0.002291	0.494151
	N228	N	0.416142	0.962290	0.672685
	N229	N	0.587784	0.036872	0.672667
	N230	N	0.588510	0.962756	0.314175
	N231	N	0.415349	0.036110	0.314975
	N232	N	0.680504	0.415896	0.955865
	N233	N	0.680033	0.586185	0.031245
	N234	N	0.323787	0.586928	0.956864
	N235	N	0.326065	0.416994	0.031650
	N236	N	0.965628	0.677925	0.409061
	N237	N	0.039445	0.678500	0.581122
	N238	N	0.964977	0.321258	0.579719
	N239	N	0.039161	0.319770	0.407446
	N240	N	0.965406	0.413904	0.672509
	N241	N	0.040539	0.583741	0.671208
	N242	N	0.965369	0.584241	0.317947
	N243	N	0.040406	0.413897	0.316685
	N244	N	0.416599	0.679550	0.956332
	N245	N	0.589191	0.680527	0.030223
	N246	N	0.588925	0.321322	0.956219
	N247	N	0.415942	0.321890	0.030174
	N248	N	0.679963	0.961909	0.409450
	N249	N	0.681334	0.036368	0.580523
	N250	N	0.324533	0.961423	0.578611
	N251	N	0.322148	0.034680	0.407582
	N252	N	0.916796	0.462677	0.173689
	N253	N	0.088973	0.537283	0.174870
	N254	N	0.088845	0.462943	0.815218
	N255	N	0.917095	0.537144	0.815760
	N256	N	0.179451	0.913016	0.457232
	N257	N	0.180227	0.083862	0.531408
	N258	N	0.824348	0.084055	0.456546
	N259	N	0.825038	0.914783	0.532098
	N260	N	0.465220	0.178862	0.907761
	N261	N	0.538962	0.180084	0.080016
	N262	N	0.465470	0.823020	0.078218
	N263	N	0.539116	0.820897	0.906053
	N264	N	0.464739	0.916078	0.169955
	N265	N	0.538829	0.087090	0.172862
	N266	N	0.464593	0.085277	0.816149
	N267	N	0.540048	0.915691	0.816393
	N268	N	0.915103	0.178889	0.457175
	N269	N	0.087604	0.177344	0.531238
	N270	N	0.088548	0.819565	0.458106
	N271	N	0.916013	0.820348	0.531809
	N272	N	0.181290	0.463175	0.908537
	N273	N	0.180437	0.538700	0.079558
	N274	N	0.823824	0.463619	0.080230
	N275	N	0.824023	0.537914	0.908865
	O276	O	1.044694	1.061297	0.014184
	H277	H	1.052116	1.063848	0.013591
	H278	H	1.039343	1.068254	0.006572
	O279	O	-0.086317	0.028992	1.021231
	H280	H	-0.080107	0.031125	1.024642
	H281	H	-0.080120	0.023849	1.018251
	O282	O	0.021813	0.017101	0.028203
	H283	H	0.035922	0.020064	0.032156
	H284	H	0.010701	0.022249	0.021562
	O285	O	0.497996	0.440612	0.539502
	H286	H	0.490499	0.432177	0.545951
	H287	H	0.504269	0.434145	0.527734
	O288	O	0.008095	0.000082	-0.024033
	H289	H	0.010495	-0.009603	-0.019535
	H290	H	0.012761	0.003077	-0.023688
	O291	O	-0.020490	0.923885	0.033756
	H292	H	-0.024093	0.920124	0.033788
	H293	H	-0.025756	0.921454	0.022630
	O294	O	-0.065252	1.063879	-0.003592
	H295	H	-0.065832	1.059309	0.010784
	H296	H	-0.069317	1.053691	-0.010274
	O297	O	0.467500	0.473921	0.454183
	H298	H	0.463796	0.478927	0.459116
	H299	H	0.468139	0.485708	0.448111
	O300	O	0.597104	0.541691	0.501057
	H301	H	0.588193	0.532987	0.507749
	H302	H	0.605678	0.542539	0.503916
	O303	O	0.969441	-0.012945	1.087888
	H304	H	0.973909	-0.005922	1.083018
	H305	H	0.966751	-0.016608	1.093314
	O306	O	0.033471	0.981950	0.997419
	H307	H	0.034003	0.975707	0.989331
	H308	H	0.035986	0.988709	1.002031
	O309	O	0.098600	1.077299	1.055660
	H310	H	0.094336	1.081053	1.057257
	H311	H	0.111733	1.073499	1.059376
	O312	O	-0.092632	-0.002915	0.999127
	H313	H	-0.091402	-0.000373	1.006292
	H314	H	-0.095917	-0.008310	0.991474
	O315	O	0.570995	0.431295	0.457608
	H316	H	0.558736	0.429187	0.459639
	H317	H	0.577898	0.423845	0.449079
	O318	O	-0.015382	0.070826	0.895890
	H319	H	-0.021830	0.072057	0.894799
	H320	H	-0.023355	0.067932	0.888444
	O321	O	0.507606	0.461831	0.487050
	H322	H	0.509757	0.460721	0.486491
	H323	H	0.503294	0.464893	0.492031
	O324	O	1.064870	-0.033274	1.024014
	H325	H	1.069194	-0.032339	1.026741
	H326	H	1.056358	-0.028666	1.021738
	O327	O	1.037404	1.029002	1.055454
	H328	H	1.041464	1.027844	1.056596
	H329	H	1.044726	1.043977	1.048543
	O330	O	0.511012	0.449726	0.482559
	H331	H	0.518572	0.451010	0.476909
	H332	H	0.509363	0.450792	0.484286
	O333	O	0.499856	0.453481	0.478387
	H334	H	0.501734	0.455388	0.482536
	H335	H	0.510732	0.439644	0.474132
	O336	O	0.568589	0.457597	0.428845
	H337	H	0.571166	0.458729	0.436299
	H338	H	0.575790	0.455310	0.415660
	O339	O	0.487370	0.406149	0.448062
	H340	H	0.491154	0.409846	0.433943
	H341	H	0.500931	0.402559	0.442828
	O342	O	0.461651	0.419044	0.546113
	H343	H	0.460271	0.422685	0.546294
	H344	H	0.462223	0.413461	0.552112
	O345	O	0.492203	0.434006	0.488787
	H346	H	0.503915	0.437293	0.477027
	H347	H	0.493705	0.432730	0.493015
