data_Molecule from HDF5

_cell_length_a		16.620309
_cell_length_b		16.506110
_cell_length_c		16.523916
_cell_angle_alpha	90.082337
_cell_angle_beta	90.059270
_cell_angle_gamma	89.960390
_symmetry_space_group_name_H-M	'P 1'
_symmetry_Int_Tables_number		1

loop_
	_symmetry_equiv_pos_as_xyz
	x,y,z

loop_
	_atom_site_label
	_atom_site_type_symbol
	_atom_site_fract_x
	_atom_site_fract_y
	_atom_site_fract_z
	H0	H	0.401732	0.837067	0.712302
	H1	H	0.601802	0.155565	0.712799
	H2	H	0.604159	0.838593	0.276811
	H3	H	0.396400	0.153595	0.274541
	H4	H	0.719157	0.395145	0.837037
	H5	H	0.720569	0.598428	0.155123
	H6	H	0.284012	0.597236	0.837461
	H7	H	0.281046	0.391241	0.153550
	H8	H	0.842920	0.712278	0.396222
	H9	H	0.158323	0.716003	0.599484
	H10	H	0.843522	0.277495	0.596448
	H11	H	0.159027	0.275786	0.392620
	H12	H	0.842458	0.394940	0.713105
	H13	H	0.158515	0.598345	0.715534
	H14	H	0.843314	0.595797	0.279007
	H15	H	0.158983	0.392149	0.275994
	H16	H	0.404175	0.709789	0.835148
	H17	H	0.603857	0.715018	0.154660
	H18	H	0.602024	0.279801	0.836508
	H19	H	0.398584	0.275458	0.153493
	H20	H	0.721199	0.839432	0.392027
	H21	H	0.719397	0.154794	0.597918
	H22	H	0.282568	0.838596	0.598792
	H23	H	0.278274	0.152323	0.388876
	H24	H	0.898669	0.337223	0.215105
	H25	H	0.107456	0.653106	0.218186
	H26	H	0.104814	0.337893	0.776470
	H27	H	0.900595	0.655398	0.779708
	H28	H	0.225500	0.886618	0.340075
	H29	H	0.221840	0.100213	0.652645
	H30	H	0.778183	0.101794	0.339138
	H31	H	0.782979	0.894198	0.654639
	H32	H	0.345350	0.217157	0.891707
	H33	H	0.658332	0.216458	0.100534
	H34	H	0.344749	0.774582	0.100704
	H35	H	0.660209	0.779514	0.896677
	H36	H	0.345917	0.889250	0.218865
	H37	H	0.658044	0.101201	0.217789
	H38	H	0.344065	0.098894	0.776045
	H39	H	0.660460	0.896987	0.780155
	H40	H	0.895693	0.216329	0.337856
	H41	H	0.105184	0.216982	0.652133
	H42	H	0.105606	0.774523	0.338636
	H43	H	0.901462	0.779505	0.654902
	H44	H	0.224174	0.339947	0.889661
	H45	H	0.222955	0.653333	0.101938
	H46	H	0.781780	0.338146	0.100276
	H47	H	0.783440	0.654730	0.895013
	H48	H	0.406686	0.110014	0.582337
	H49	H	0.591220	0.883251	0.588407
	H50	H	0.584147	0.109044	0.401778
	H51	H	0.409974	0.884674	0.411308
	H52	H	0.596376	0.405579	0.110586
	H53	H	0.598827	0.585479	0.881933
	H54	H	0.419425	0.585847	0.107301
	H55	H	0.419408	0.408380	0.887653
	H56	H	0.114144	0.589981	0.409649
	H57	H	0.887058	0.591571	0.588765
	H58	H	0.115347	0.406143	0.592338
	H59	H	0.889960	0.407801	0.403735
	H60	H	0.113475	0.399920	0.582747
	H61	H	0.890142	0.587351	0.585451
	H62	H	0.111012	0.580614	0.409319
	H63	H	0.888577	0.404921	0.404495
	H64	H	0.407717	0.590783	0.111473
	H65	H	0.590135	0.583008	0.885301
	H66	H	0.591249	0.409132	0.108112
	H67	H	0.409647	0.400153	0.880517
	H68	H	0.588316	0.106394	0.414816
	H69	H	0.594353	0.882770	0.585492
	H70	H	0.410905	0.111079	0.590742
	H71	H	0.414345	0.883159	0.402986
	H72	H	0.911939	0.607500	0.084895
	H73	H	0.085321	0.385498	0.087224
	H74	H	0.086592	0.607491	0.906093
	H75	H	0.907187	0.382005	0.904678
	H76	H	0.098709	0.907118	0.610478
	H77	H	0.088752	0.081606	0.384388
	H78	H	0.911433	0.088237	0.608819
	H79	H	0.907422	0.906048	0.382503
	H80	H	0.613645	0.089661	0.906950
	H81	H	0.388541	0.082069	0.092198
	H82	H	0.612231	0.906346	0.086420
	H83	H	0.389427	0.900212	0.908641
	H84	H	0.612619	0.906829	0.083286
	H85	H	0.388803	0.093091	0.082254
	H86	H	0.612218	0.084262	0.904965
	H87	H	0.389117	0.909283	0.901306
	H88	H	0.909221	0.084520	0.607728
	H89	H	0.088891	0.086205	0.383191
	H90	H	0.089315	0.912448	0.605172
	H91	H	0.912155	0.908404	0.383695
	H92	H	0.093228	0.607160	0.911833
	H93	H	0.090968	0.386595	0.077177
	H94	H	0.911098	0.608871	0.086038
	H95	H	0.908601	0.381199	0.902427
	H96	H	0.415811	0.107831	0.583372
	H97	H	0.595186	0.881043	0.588908
	H98	H	0.597218	0.112185	0.405332
	H99	H	0.418812	0.887384	0.410406
	H100	H	0.590983	0.402568	0.109244
	H101	H	0.591610	0.592009	0.881466
	H102	H	0.408266	0.578093	0.107457
	H103	H	0.406547	0.413922	0.885109
	H104	H	0.115799	0.584393	0.401556
	H105	H	0.887562	0.585633	0.591167
	H106	H	0.110096	0.411563	0.583417
	H107	H	0.890173	0.405943	0.406495
	H108	H	0.912699	0.607782	0.086534
	H109	H	0.096092	0.381278	0.086180
	H110	H	0.094095	0.610423	0.904062
	H111	H	0.909937	0.382386	0.904710
	H112	H	0.088492	0.901276	0.608851
	H113	H	0.092420	0.083115	0.382489
	H114	H	0.913523	0.084570	0.606869
	H115	H	0.911722	0.903433	0.382942
	H116	H	0.615572	0.088056	0.901781
	H117	H	0.393888	0.079594	0.078986
	H118	H	0.611838	0.908458	0.084754
	H119	H	0.385276	0.899250	0.898276
	C120	C	0.380853	0.004614	0.616289
	C121	C	0.623063	0.987684	0.617460
	C122	C	0.622096	0.005139	0.375068
	C123	C	0.380456	0.987924	0.374465
	C124	C	0.623028	0.375323	0.004173
	C125	C	0.623349	0.617468	0.988092
	C126	C	0.381440	0.616179	0.003987
	C127	C	0.380171	0.375050	0.988165
	C128	C	0.009520	0.616136	0.375497
	C129	C	0.992752	0.618390	0.618519
	C130	C	0.008950	0.374877	0.616915
	C131	C	0.993638	0.374359	0.373907
	C132	C	0.880955	0.503782	0.117056
	C133	C	0.123059	0.487887	0.116891
	C134	C	0.122885	0.504269	0.875097
	C135	C	0.879349	0.487448	0.874597
	C136	C	0.123622	0.874330	0.504286
	C137	C	0.122382	0.116511	0.486899
	C138	C	0.879720	0.117458	0.503660
	C139	C	0.880008	0.875380	0.487593
	C140	C	0.509744	0.118110	0.873608
	C141	C	0.493862	0.117113	0.116687
	C142	C	0.509004	0.874876	0.116955
	C143	C	0.492901	0.873890	0.873917
	C144	C	0.381241	0.885109	0.673920
	C145	C	0.621701	0.107638	0.674134
	C146	C	0.623367	0.886333	0.315719
	C147	C	0.377723	0.106086	0.314165
	C148	C	0.679989	0.375815	0.884597
	C149	C	0.681306	0.617890	0.107312
	C150	C	0.323707	0.616153	0.884682
	C151	C	0.321101	0.372938	0.106472
	C152	C	0.890380	0.673564	0.375970
	C153	C	0.111287	0.676356	0.618793
	C154	C	0.890545	0.316693	0.616456
	C155	C	0.111825	0.315169	0.373229
	C156	C	0.890195	0.374981	0.674384
	C157	C	0.111461	0.617931	0.676289
	C158	C	0.890676	0.615826	0.317761
	C159	C	0.111841	0.373362	0.315597
	C160	C	0.383197	0.672360	0.883653
	C161	C	0.623141	0.675486	0.107383
	C162	C	0.621948	0.318189	0.884367
	C163	C	0.379478	0.315476	0.106523
	C164	C	0.681350	0.886597	0.373202
	C165	C	0.680007	0.107472	0.617050
	C166	C	0.322348	0.885675	0.617316
	C167	C	0.318888	0.105464	0.370952
	C168	C	0.879739	0.384973	0.175817
	C169	C	0.125207	0.605784	0.177871
	C170	C	0.124175	0.385655	0.815613
	C171	C	0.880492	0.607323	0.818126
	C172	C	0.184392	0.869933	0.386887
	C173	C	0.182290	0.119122	0.605193
	C174	C	0.819099	0.119789	0.385855
	C175	C	0.822392	0.875264	0.607056
	C176	C	0.391763	0.176932	0.872765
	C177	C	0.611417	0.176773	0.118877
	C178	C	0.391732	0.814387	0.119346
	C179	C	0.612690	0.817915	0.876053
	C180	C	0.392293	0.871654	0.177930
	C181	C	0.611143	0.119250	0.177174
	C182	C	0.391389	0.118439	0.815303
	C183	C	0.612876	0.876168	0.818363
	C184	C	0.877590	0.176829	0.385291
	C185	C	0.124172	0.176772	0.605345
	C186	C	0.124884	0.813845	0.386205
	C187	C	0.881117	0.818078	0.607124
	C188	C	0.183192	0.386419	0.872202
	C189	C	0.182926	0.606089	0.120104
	C190	C	0.821673	0.385262	0.118462
	C191	C	0.822205	0.607076	0.875273
	C192	C	0.404393	0.087963	0.592465
	C193	C	0.600319	0.904126	0.594023
	C194	C	0.597242	0.087729	0.400287
	C195	C	0.406678	0.906216	0.400833
	C196	C	0.599634	0.398796	0.087439
	C197	C	0.600071	0.593798	0.904626
	C198	C	0.405067	0.592116	0.087162
	C199	C	0.404767	0.400316	0.905736
	C200	C	0.092037	0.592056	0.399652
	C201	C	0.909968	0.595014	0.595067
	C202	C	0.091440	0.398884	0.593096
	C203	C	0.911096	0.398986	0.398225
	C204	C	0.905146	0.586412	0.092783
	C205	C	0.097897	0.405886	0.090906
	C206	C	0.098305	0.586701	0.900143
	C207	C	0.902176	0.403652	0.897435
	C208	C	0.099124	0.899613	0.586832
	C209	C	0.097289	0.091020	0.404724
	C210	C	0.904317	0.092819	0.586339
	C211	C	0.903629	0.899165	0.404597
	C212	C	0.592287	0.094267	0.897754
	C213	C	0.411881	0.092174	0.091574
	C214	C	0.590955	0.900041	0.091805
	C215	C	0.409705	0.896398	0.896231
	Zn216	Zn	0.501656	-0.004030	0.745184
	Zn217	Zn	0.501139	-0.003790	0.246018
	Zn218	Zn	0.752026	0.496231	-0.003320
	Zn219	Zn	0.251667	0.496233	-0.003400
	Zn220	Zn	0.001145	0.746309	0.495823
	Zn221	Zn	0.001129	0.245355	0.494734
	Zn222	Zn	0.001017	0.495921	0.746939
	Zn223	Zn	0.002002	0.495685	0.245407
	Zn224	Zn	0.501738	0.745689	-0.003910
	Zn225	Zn	0.501807	0.246735	-0.004258
	Zn226	Zn	0.750954	-0.003671	0.496165
	Zn227	Zn	0.251681	-0.004288	0.495219
	N228	N	0.416749	0.960177	0.673518
	N229	N	0.587215	0.032031	0.674701
	N230	N	0.587422	0.961144	0.316682
	N231	N	0.415125	0.031983	0.316286
	N232	N	0.681153	0.410289	0.960277
	N233	N	0.681567	0.582602	0.032073
	N234	N	0.322336	0.582333	0.960540
	N235	N	0.321353	0.409045	0.031704
	N236	N	0.965276	0.674049	0.410981
	N237	N	0.036392	0.676858	0.583821
	N238	N	0.965482	0.316211	0.581439
	N239	N	0.037050	0.315603	0.408724
	N240	N	0.965013	0.410162	0.674913
	N241	N	0.036632	0.582772	0.676576
	N242	N	0.965952	0.581392	0.316872
	N243	N	0.037203	0.409093	0.315832
	N244	N	0.418150	0.672890	0.959087
	N245	N	0.587949	0.675491	0.032099
	N246	N	0.587412	0.317615	0.959868
	N247	N	0.415233	0.316399	0.031708
	N248	N	0.680832	0.961631	0.409419
	N249	N	0.681239	0.031681	0.582921
	N250	N	0.321982	0.961017	0.582176
	N251	N	0.320452	0.030890	0.407716
	N252	N	0.915718	0.459693	0.175245
	N253	N	0.088499	0.531239	0.175923
	N254	N	0.087429	0.459967	0.817104
	N255	N	0.915093	0.531769	0.817383
	N256	N	0.183708	0.906788	0.461447
	N257	N	0.181514	0.082619	0.530597
	N258	N	0.820462	0.083347	0.460591
	N259	N	0.821272	0.909907	0.531557
	N260	N	0.466520	0.177016	0.908139
	N261	N	0.537414	0.175624	0.081823
	N262	N	0.465476	0.816342	0.081998
	N263	N	0.537120	0.815984	0.909455
	N264	N	0.466150	0.908530	0.176516
	N265	N	0.536905	0.082987	0.175993
	N266	N	0.465846	0.082725	0.815596
	N267	N	0.537309	0.909990	0.816506
	N268	N	0.914432	0.175477	0.459640
	N269	N	0.087517	0.175208	0.530749
	N270	N	0.087816	0.816389	0.460382
	N271	N	0.916081	0.817870	0.531868
	N272	N	0.182736	0.461465	0.908165
	N273	N	0.181913	0.531657	0.083053
	N274	N	0.822049	0.460256	0.082631
	N275	N	0.821372	0.531334	0.909647
	O276	O	1.198095	1.187799	-0.201546
	H277	H	1.175028	1.181292	-0.175778
	H278	H	1.198398	1.172054	-0.191969
	O279	O	-0.131704	-0.083373	0.970614
	H280	H	-0.124528	-0.076357	0.988540
	H281	H	-0.113474	-0.079988	0.982671
	O282	O	0.549838	0.718948	0.625835
	H283	H	0.559074	0.727435	0.628311
	H284	H	0.553490	0.733716	0.637776
	O285	O	0.998589	0.805793	0.996090
	H286	H	0.998246	0.804571	1.003738
	H287	H	1.003766	0.804659	1.000330
	O288	O	1.161767	0.064390	0.875710
	H289	H	1.173257	0.061632	0.881754
	H290	H	1.167329	0.051735	0.867108
	O291	O	1.205621	0.894116	1.198078
	H292	H	1.212393	0.905572	1.195461
	H293	H	1.182488	0.913038	1.186395
	O294	O	0.215820	0.214815	0.022660
	H295	H	0.227368	0.219725	0.032590
	H296	H	0.223622	0.215695	0.032793
	O297	O	0.793634	-0.214162	0.206878
	H298	H	0.760295	-0.241869	0.233347
	H299	H	0.791849	-0.179816	0.197578
	O300	O	-0.202508	0.143220	-0.204220
	H301	H	-0.200337	0.161094	-0.214660
	H302	H	-0.214864	0.115011	-0.214349
	O303	O	-0.085221	0.199009	-0.223620
	H304	H	-0.088654	0.201116	-0.221087
	H305	H	-0.097113	0.230233	-0.244025
	O306	O	1.214963	-0.034415	-0.131828
	H307	H	1.203213	-0.037160	-0.129494
	H308	H	1.219543	-0.023538	-0.139510
	O309	O	0.717328	0.637523	0.709859
	H310	H	0.738655	0.649995	0.735692
	H311	H	0.719277	0.618394	0.696176
	O312	O	0.711661	0.446393	0.457968
	H313	H	0.710186	0.433484	0.471396
	H314	H	0.725206	0.459952	0.444599
	O315	O	0.589292	0.349513	0.482241
	H316	H	0.595598	0.366951	0.501577
	H317	H	0.598850	0.355581	0.471321
	O318	O	0.787360	0.778532	0.031816
	H319	H	0.785850	0.765473	0.047738
	H320	H	0.774926	0.775914	0.036752
	O321	O	0.132764	1.008296	1.175657
	H322	H	0.132023	1.008187	1.189189
	H323	H	0.132616	1.007482	1.159371
	O324	O	0.790261	0.050166	0.855411
	H325	H	0.789006	0.038059	0.851333
	H326	H	0.792171	0.044266	0.863086
	O327	O	0.497451	0.704510	0.375559
	H328	H	0.495193	0.702935	0.373899
	H329	H	0.469269	0.714465	0.359230
	O330	O	0.167338	0.883135	-0.041498
	H331	H	0.164997	0.882167	-0.051434
	H332	H	0.170880	0.868803	-0.041275
	O333	O	0.429668	0.528103	0.373294
	H334	H	0.436709	0.511623	0.377292
	H335	H	0.433109	0.539185	0.373716
	O336	O	0.690623	0.555479	0.608809
	H337	H	0.675897	0.560346	0.619455
	H338	H	0.694785	0.572977	0.616733
	O339	O	0.461184	0.539191	0.565870
	H340	H	0.465606	0.547680	0.571047
	H341	H	0.463075	0.540887	0.573822
	O342	O	-0.004793	0.842703	-0.220445
	H343	H	-0.000609	0.833867	-0.236649
	H344	H	0.028558	0.846655	-0.210194
	O345	O	0.311615	0.680716	0.676061
	H346	H	0.321124	0.655960	0.659771
	H347	H	0.331921	0.676745	0.658048
	O348	O	-0.128633	0.802628	0.851898
	H349	H	-0.117497	0.809809	0.881114
	H350	H	-0.100019	0.811972	0.848698
	O351	O	0.584966	0.323435	1.320533
	H352	H	0.595925	0.308825	1.322120
	H353	H	0.580253	0.315509	1.325278
	O354	O	0.801317	-0.047796	1.205098
	H355	H	0.804901	-0.047517	1.187801
	H356	H	0.787715	-0.040485	1.222085
	O357	O	0.510639	0.545894	0.619325
	H358	H	0.515977	0.537088	0.621783
	H359	H	0.508291	0.562562	0.635415
	O360	O	0.536929	0.474806	0.673760
	H361	H	0.534092	0.489517	0.666318
	H362	H	0.518747	0.462558	0.681417
	O363	O	0.322831	0.442704	0.435969
	H364	H	0.336209	0.433392	0.431001
	H365	H	0.324701	0.447923	0.456041
	O366	O	0.707358	0.406805	0.287715
	H367	H	0.726062	0.389038	0.267627
	H368	H	0.702227	0.384269	0.303894
	O369	O	0.079937	-0.101061	1.174396
	H370	H	0.073737	-0.102324	1.179275
	H371	H	0.089565	-0.103577	1.175566
	O372	O	0.035633	0.930900	1.029887
	H373	H	0.022316	0.929762	1.025538
	H374	H	0.037989	0.922387	1.031290
	O375	O	0.986425	0.179024	-0.115183
	H376	H	0.989427	0.192281	-0.110664
	H377	H	1.005755	0.179076	-0.116477
	O378	O	0.335064	0.292582	0.703198
	H379	H	0.326884	0.283454	0.710107
	H380	H	0.321150	0.281648	0.689593
	O381	O	-0.310637	1.298106	-0.454288
	H382	H	-0.293108	1.296238	-0.458927
	H383	H	-0.321534	1.310241	-0.447645
	O384	O	0.359286	0.497694	0.292421
	H385	H	0.351373	0.490330	0.297112
	H386	H	0.364409	0.502488	0.291784
	O387	O	0.308584	1.239131	1.231394
	H388	H	0.314312	1.221059	1.210268
	H389	H	0.323028	1.245538	1.241394
	O390	O	0.006726	0.934435	0.964146
	H391	H	0.015079	0.938358	0.959838
	H392	H	0.010012	0.921352	0.962191
	O393	O	0.945512	-0.046687	-0.145094
	H394	H	0.948487	-0.059629	-0.133231
	H395	H	0.949362	-0.041336	-0.147723
	O396	O	0.376378	0.701094	0.288164
	H397	H	0.360994	0.664038	0.290216
	H398	H	0.352538	0.725153	0.257228
	O399	O	0.292130	0.449706	0.699305
	H400	H	0.283070	0.427512	0.698183
	H401	H	0.283708	0.443532	0.714193
	O402	O	0.964995	-0.228494	1.219039
	H403	H	0.936187	-0.231560	1.224972
	H404	H	0.949574	-0.251702	1.238024
	O405	O	0.034804	0.211885	0.210127
	H406	H	0.040795	0.206417	0.213516
	H407	H	0.023074	0.231560	0.223475
	O408	O	1.222770	0.776643	0.888843
	H409	H	1.234580	0.762623	0.878528
	H410	H	1.222224	0.762980	0.876822
	O411	O	1.452878	0.306408	-0.390193
	H412	H	1.445434	0.306291	-0.383604
	H413	H	1.426676	0.299080	-0.391874
	O414	O	0.509059	-0.637973	0.312430
	H415	H	0.516176	-0.633357	0.301423
	H416	H	0.520025	-0.623069	0.298836
	O417	O	-0.060745	0.214744	1.043270
	H418	H	-0.062617	0.212975	1.039439
	H419	H	-0.075431	0.222224	1.037591
	O420	O	1.150489	-0.168727	0.834192
	H421	H	1.152904	-0.145220	0.833286
	H422	H	1.163003	-0.179898	0.821263
	O423	O	1.110988	1.068854	-0.011565
	H424	H	1.109410	1.079456	-0.010170
	H425	H	1.106359	1.056404	0.003159
	O426	O	0.578653	0.350402	0.482837
	H427	H	0.597967	0.354050	0.481275
	H428	H	0.580483	0.369884	0.472176
	O429	O	0.706847	0.707617	0.596514
	H430	H	0.707999	0.720483	0.608371
	H431	H	0.720671	0.693302	0.607727
	O432	O	1.059789	0.056762	0.773384
	H433	H	1.052952	0.062884	0.774824
	H434	H	1.055552	0.065193	0.771258
	O435	O	0.687475	0.678252	0.320560
	H436	H	0.671842	0.662861	0.334647
	H437	H	0.667999	0.670802	0.343827
	O438	O	0.291769	0.706714	0.474620
	H439	H	0.282512	0.702071	0.468107
	H440	H	0.280580	0.725409	0.469391
	O441	O	0.779560	1.213883	-0.052748
	H442	H	0.775847	1.218517	-0.081123
	H443	H	0.762529	1.232636	-0.066115
	O444	O	0.327673	0.542825	0.358705
	H445	H	0.325261	0.512647	0.373146
	H446	H	0.327693	0.545109	0.367073
	O447	O	-0.179318	0.037774	1.100855
	H448	H	-0.166217	0.043414	1.091211
	H449	H	-0.183535	0.044706	1.102906
	O450	O	0.995159	0.082349	0.141592
	H451	H	1.002603	0.073511	0.130727
	H452	H	1.008803	0.064190	0.137314
	O453	O	0.704291	0.591363	0.489569
	H454	H	0.721503	0.608867	0.491663
	H455	H	0.700930	0.587426	0.499601
	O456	O	0.560172	1.351339	0.686182
	H457	H	0.543826	1.352851	0.682654
	H458	H	0.548479	1.349882	0.686841
	O459	O	0.390351	0.439237	0.504809
	H460	H	0.401245	0.430916	0.502249
	H461	H	0.374252	0.443532	0.511977
	O462	O	0.282835	0.341366	0.492295
	H463	H	0.302404	0.336017	0.469626
	H464	H	0.275799	0.335689	0.501489
	O465	O	0.461892	0.675693	0.546492
	H466	H	0.469158	0.678332	0.570140
	H467	H	0.460749	0.678390	0.527974
	O468	O	0.167441	1.131727	0.097107
	H469	H	0.140006	1.135966	0.108293
	H470	H	0.160231	1.114475	0.078584
	O471	O	0.494776	0.484506	0.431502
	H472	H	0.493859	0.497471	0.443790
	H473	H	0.489867	0.485554	0.432872
	O474	O	0.888462	0.893202	-0.014988
	H475	H	0.898156	0.894260	0.006107
	H476	H	0.890647	0.880796	-0.002250
	O477	O	-0.104895	0.070695	1.164264
	H478	H	-0.101410	0.054394	1.156461
	H479	H	-0.087451	0.066087	1.160969
