data_Molecule from HDF5

_cell_length_a		16.333831
_cell_length_b		16.196202
_cell_length_c		16.258700
_cell_angle_alpha	89.493376
_cell_angle_beta	90.090863
_cell_angle_gamma	89.848071
_symmetry_space_group_name_H-M	'P 1'
_symmetry_Int_Tables_number		1

loop_
	_symmetry_equiv_pos_as_xyz
	x,y,z

loop_
	_atom_site_label
	_atom_site_type_symbol
	_atom_site_fract_x
	_atom_site_fract_y
	_atom_site_fract_z
	H0	H	0.407071	0.834209	0.710868
	H1	H	0.602474	0.163473	0.707137
	H2	H	0.602962	0.833027	0.284648
	H3	H	0.406177	0.162776	0.280100
	H4	H	0.720012	0.401120	0.831679
	H5	H	0.720258	0.597827	0.157871
	H6	H	0.288757	0.599908	0.831494
	H7	H	0.289644	0.397876	0.158916
	H8	H	0.840253	0.714140	0.395321
	H9	H	0.167310	0.711021	0.591243
	H10	H	0.840581	0.282828	0.594216
	H11	H	0.168565	0.285352	0.399311
	H12	H	0.840759	0.397719	0.711732
	H13	H	0.167459	0.595496	0.708288
	H14	H	0.840672	0.598787	0.278117
	H15	H	0.168002	0.400375	0.281648
	H16	H	0.405757	0.714943	0.831366
	H17	H	0.600946	0.709883	0.159897
	H18	H	0.602369	0.287412	0.830124
	H19	H	0.406688	0.283472	0.158099
	H20	H	0.718826	0.833702	0.398861
	H21	H	0.719683	0.161966	0.593936
	H22	H	0.289638	0.834348	0.596924
	H23	H	0.287857	0.161881	0.392991
	H24	H	0.907288	0.334125	0.209890
	H25	H	0.101403	0.663729	0.205828
	H26	H	0.101816	0.333667	0.784860
	H27	H	0.905133	0.662815	0.779257
	H28	H	0.220893	0.898411	0.332420
	H29	H	0.220275	0.096587	0.658395
	H30	H	0.789078	0.100068	0.331085
	H31	H	0.789630	0.896880	0.658719
	H32	H	0.340792	0.214578	0.895474
	H33	H	0.667876	0.212735	0.092587
	H34	H	0.340554	0.784797	0.094840
	H35	H	0.667266	0.783999	0.898515
	H36	H	0.341645	0.898652	0.212357
	H37	H	0.667961	0.096179	0.210333
	H38	H	0.341179	0.099149	0.778271
	H39	H	0.667712	0.900664	0.782420
	H40	H	0.906631	0.214442	0.331638
	H41	H	0.100898	0.208338	0.660376
	H42	H	0.101338	0.786868	0.330269
	H43	H	0.907252	0.783135	0.659183
	H44	H	0.219115	0.335099	0.898188
	H45	H	0.217651	0.663316	0.092710
	H46	H	0.789134	0.335024	0.096195
	H47	H	0.788255	0.662880	0.893121
	H48	H	0.413208	0.115176	0.586791
	H49	H	0.602122	0.877919	0.595069
	H50	H	0.593739	0.115419	0.398709
	H51	H	0.407330	0.879976	0.404428
	H52	H	0.603589	0.400443	0.114361
	H53	H	0.597837	0.590439	0.879646
	H54	H	0.407868	0.587817	0.110998
	H55	H	0.408998	0.409589	0.878507
	H56	H	0.116984	0.590360	0.406295
	H57	H	0.887932	0.589479	0.588245
	H58	H	0.116655	0.413318	0.589352
	H59	H	0.886391	0.400346	0.399132
	H60	H	0.123610	0.399929	0.600221
	H61	H	0.886593	0.592044	0.587809
	H62	H	0.121243	0.588556	0.393076
	H63	H	0.891125	0.407028	0.410530
	H64	H	0.412561	0.591973	0.111099
	H65	H	0.592912	0.591288	0.879476
	H66	H	0.598582	0.414656	0.109201
	H67	H	0.411465	0.406229	0.877380
	H68	H	0.596720	0.114025	0.406477
	H69	H	0.591992	0.882549	0.591255
	H70	H	0.411806	0.115107	0.583471
	H71	H	0.414762	0.881738	0.400505
	H72	H	0.915526	0.614411	0.085195
	H73	H	0.097082	0.382067	0.086696
	H74	H	0.099095	0.615563	0.906015
	H75	H	0.908458	0.381626	0.905660
	H76	H	0.095457	0.898432	0.613032
	H77	H	0.093718	0.098314	0.377667
	H78	H	0.921897	0.101059	0.611639
	H79	H	0.908022	0.897090	0.375417
	H80	H	0.622996	0.095061	0.894167
	H81	H	0.388373	0.089013	0.093566
	H82	H	0.619690	0.901139	0.083684
	H83	H	0.385745	0.907676	0.896531
	H84	H	0.619385	0.910972	0.092054
	H85	H	0.388261	0.096157	0.085754
	H86	H	0.620363	0.097961	0.906685
	H87	H	0.387664	0.902253	0.906822
	H88	H	0.895627	0.092875	0.616787
	H89	H	0.103760	0.089828	0.377562
	H90	H	0.103841	0.906311	0.612862
	H91	H	0.903283	0.915693	0.378261
	H92	H	0.100575	0.619321	0.896161
	H93	H	0.099778	0.380276	0.089884
	H94	H	0.908319	0.615627	0.082364
	H95	H	0.912065	0.380900	0.901552
	H96	H	0.408883	0.114803	0.586178
	H97	H	0.600881	0.882008	0.584149
	H98	H	0.601500	0.116625	0.400195
	H99	H	0.414382	0.882909	0.408322
	H100	H	0.588777	0.401793	0.109738
	H101	H	0.595886	0.594625	0.877510
	H102	H	0.406968	0.593080	0.114243
	H103	H	0.407471	0.406955	0.876928
	H104	H	0.123173	0.600514	0.399214
	H105	H	0.887551	0.590760	0.586015
	H106	H	0.120177	0.396481	0.582643
	H107	H	0.889285	0.413624	0.398522
	H108	H	0.909799	0.617230	0.089959
	H109	H	0.095750	0.381538	0.091302
	H110	H	0.091352	0.615490	0.899026
	H111	H	0.913583	0.382837	0.905797
	H112	H	0.093104	0.908827	0.608842
	H113	H	0.092304	0.086087	0.381572
	H114	H	0.914390	0.075035	0.606497
	H115	H	0.920936	0.909733	0.381785
	H116	H	0.618025	0.086444	0.902592
	H117	H	0.391038	0.086633	0.083892
	H118	H	0.623168	0.899026	0.095361
	H119	H	0.391659	0.913222	0.905079
	C120	C	0.382931	0.006869	0.616088
	C121	C	0.626605	0.989796	0.617551
	C122	C	0.625969	0.006480	0.374293
	C123	C	0.382873	0.989679	0.373926
	C124	C	0.625859	0.377566	0.003091
	C125	C	0.624806	0.620022	0.986960
	C126	C	0.381103	0.620803	0.004058
	C127	C	0.381617	0.377713	0.985853
	C128	C	0.012239	0.621505	0.371293
	C129	C	0.995383	0.618670	0.615418
	C130	C	0.012232	0.375109	0.618801
	C131	C	0.996705	0.377726	0.374386
	C132	C	0.882673	0.507462	0.115958
	C133	C	0.125712	0.490082	0.116502
	C134	C	0.125331	0.507813	0.873635
	C135	C	0.882404	0.490398	0.873598
	C136	C	0.125577	0.876569	0.503390
	C137	C	0.125521	0.119208	0.487041
	C138	C	0.881995	0.119698	0.503327
	C139	C	0.882742	0.877431	0.486770
	C140	C	0.512711	0.122186	0.871880
	C141	C	0.496578	0.119591	0.116502
	C142	C	0.512857	0.875820	0.118627
	C143	C	0.495988	0.878502	0.874628
	C144	C	0.385655	0.883390	0.673028
	C145	C	0.623397	0.113982	0.670327
	C146	C	0.623160	0.882289	0.321314
	C147	C	0.385514	0.113523	0.317841
	C148	C	0.681373	0.380724	0.880193
	C149	C	0.681463	0.617736	0.109415
	C150	C	0.326673	0.619948	0.880435
	C151	C	0.327369	0.378516	0.109433
	C152	C	0.889289	0.676810	0.374063
	C153	C	0.118708	0.673084	0.612225
	C154	C	0.889386	0.320499	0.615008
	C155	C	0.119436	0.322712	0.378115
	C156	C	0.889564	0.377384	0.673715
	C157	C	0.118481	0.615951	0.670527
	C158	C	0.889350	0.619336	0.316011
	C159	C	0.119310	0.379719	0.319343
	C160	C	0.384767	0.677060	0.880427
	C161	C	0.621929	0.673201	0.110539
	C162	C	0.622958	0.324280	0.879384
	C163	C	0.385555	0.321698	0.109402
	C164	C	0.680901	0.882718	0.378133
	C165	C	0.681648	0.113262	0.613960
	C166	C	0.327925	0.883273	0.615851
	C167	C	0.326553	0.112805	0.373839
	C168	C	0.885770	0.383407	0.172061
	C169	C	0.122370	0.614299	0.169430
	C170	C	0.122538	0.383167	0.821265
	C171	C	0.884589	0.613847	0.817274
	C172	C	0.181668	0.878951	0.380814
	C173	C	0.181254	0.116173	0.610084
	C174	C	0.826703	0.119684	0.380353
	C175	C	0.827972	0.877902	0.609974
	C176	C	0.389840	0.177173	0.874454
	C177	C	0.619210	0.174801	0.113353
	C178	C	0.389574	0.822017	0.115430
	C179	C	0.618839	0.822623	0.878257
	C180	C	0.389978	0.878791	0.173786
	C181	C	0.619308	0.116932	0.171912
	C182	C	0.389960	0.120042	0.816123
	C183	C	0.619047	0.880333	0.820074
	C184	C	0.885176	0.176409	0.380428
	C185	C	0.122255	0.172080	0.610955
	C186	C	0.122118	0.823621	0.379549
	C187	C	0.885811	0.820684	0.610003
	C188	C	0.180847	0.383852	0.877541
	C189	C	0.180078	0.613999	0.112980
	C190	C	0.827340	0.383730	0.115461
	C191	C	0.826471	0.613815	0.873879
	C192	C	0.404805	0.092840	0.592403
	C193	C	0.604734	0.903245	0.596433
	C194	C	0.603815	0.092965	0.395499
	C195	C	0.405494	0.903830	0.397453
	C196	C	0.603555	0.399219	0.088957
	C197	C	0.602259	0.598290	0.900887
	C198	C	0.402773	0.597732	0.089865
	C199	C	0.402988	0.400732	0.899920
	C200	C	0.098222	0.599658	0.393123
	C201	C	0.909612	0.596968	0.593669
	C202	C	0.098002	0.396888	0.597176
	C203	C	0.910921	0.400336	0.396186
	C204	C	0.904618	0.593504	0.092682
	C205	C	0.103943	0.403628	0.095543
	C206	C	0.103378	0.594337	0.894368
	C207	C	0.904811	0.404044	0.897351
	C208	C	0.103791	0.898083	0.589431
	C209	C	0.103021	0.097845	0.400835
	C210	C	0.904047	0.096335	0.589445
	C211	C	0.904375	0.900727	0.400597
	C212	C	0.598446	0.099752	0.894317
	C213	C	0.411210	0.097315	0.094254
	C214	C	0.598560	0.897257	0.096990
	C215	C	0.410594	0.901203	0.896348
	Zn216	Zn	0.504370	-0.000620	0.744558
	Zn217	Zn	0.504846	-0.002643	0.246600
	Zn218	Zn	0.754233	0.499062	-0.005420
	Zn219	Zn	0.252991	0.499265	-0.004934
	Zn220	Zn	0.003965	0.748713	0.494373
	Zn221	Zn	0.004529	0.247787	0.495614
	Zn222	Zn	0.003647	0.498218	0.746115
	Zn223	Zn	0.004266	0.498792	0.244367
	Zn224	Zn	0.503457	0.748354	-0.004101
	Zn225	Zn	0.503978	0.250011	-0.005766
	Zn226	Zn	0.753866	-0.001810	0.495233
	Zn227	Zn	0.254262	-0.001671	0.495197
	N228	N	0.419568	0.961113	0.672920
	N229	N	0.589863	0.036257	0.672588
	N230	N	0.589912	0.960333	0.318838
	N231	N	0.419905	0.035891	0.317899
	N232	N	0.683272	0.413001	0.958053
	N233	N	0.683294	0.585406	0.031383
	N234	N	0.324371	0.585775	0.957957
	N235	N	0.324880	0.412701	0.031780
	N236	N	0.966708	0.678290	0.407714
	N237	N	0.041383	0.674928	0.578646
	N238	N	0.966654	0.318728	0.581641
	N239	N	0.042132	0.321389	0.411732
	N240	N	0.966921	0.410601	0.676179
	N241	N	0.040995	0.582605	0.672500
	N242	N	0.966847	0.585745	0.314085
	N243	N	0.041881	0.413338	0.317066
	N244	N	0.417726	0.678014	0.958412
	N245	N	0.587582	0.674766	0.033364
	N246	N	0.588961	0.322230	0.956930
	N247	N	0.418703	0.321096	0.031684
	N248	N	0.682647	0.960980	0.410251
	N249	N	0.683668	0.034909	0.581681
	N250	N	0.326137	0.960947	0.581016
	N251	N	0.324925	0.034934	0.408279
	N252	N	0.919197	0.461248	0.172634
	N253	N	0.089055	0.536286	0.171660
	N254	N	0.088578	0.461044	0.818807
	N255	N	0.918532	0.536139	0.817168
	N256	N	0.183963	0.911201	0.458745
	N257	N	0.183421	0.084095	0.531934
	N258	N	0.824576	0.085245	0.458057
	N259	N	0.826055	0.912415	0.532382
	N260	N	0.467063	0.178525	0.908422
	N261	N	0.541858	0.176539	0.079644
	N262	N	0.466791	0.819943	0.081872
	N263	N	0.541418	0.821495	0.911596
	N264	N	0.467522	0.911740	0.175790
	N265	N	0.542216	0.083223	0.173847
	N266	N	0.467510	0.086563	0.814456
	N267	N	0.541812	0.914341	0.817656
	N268	N	0.919046	0.176391	0.457934
	N269	N	0.088531	0.174068	0.533490
	N270	N	0.087991	0.821971	0.456774
	N271	N	0.919408	0.820458	0.532402
	N272	N	0.182759	0.462262	0.909299
	N273	N	0.182464	0.535714	0.081027
	N274	N	0.825266	0.461763	0.081216
	N275	N	0.825306	0.535883	0.908592
	O276	O	1.004767	1.049105	-0.075007
	H277	H	1.005013	1.047280	-0.076579
	H278	H	1.006288	1.054919	-0.068323
	O279	O	-0.004537	0.017319	1.108598
	H280	H	-0.009456	0.016609	1.116258
	H281	H	-0.002570	0.019458	1.109054
	O282	O	0.059515	-0.026054	0.011975
	H283	H	0.054965	-0.017690	0.009752
	H284	H	0.054265	-0.025321	0.007155
	O285	O	0.482395	0.522314	0.411403
	H286	H	0.470068	0.515017	0.416253
	H287	H	0.488683	0.515737	0.404935
	O288	O	0.026262	-0.002444	-0.048051
	H289	H	0.019071	0.000326	-0.048780
	H290	H	0.032192	0.007041	-0.050347
	O291	O	0.044607	1.038598	0.013456
	H292	H	0.042339	1.038640	0.011580
	H293	H	0.040935	1.025573	0.006602
	O294	O	-0.014998	1.018884	-0.038150
	H295	H	-0.013969	1.015158	-0.042333
	H296	H	-0.017570	1.023540	-0.036750
	O297	O	0.438436	0.479693	0.510630
	H298	H	0.427253	0.484809	0.509037
	H299	H	0.433256	0.482559	0.515077
	O300	O	0.460837	0.455623	0.453721
	H301	H	0.457106	0.452756	0.460434
	H302	H	0.468292	0.454359	0.444925
	O303	O	0.956288	0.019717	1.020596
	H304	H	0.944301	0.022490	1.023170
	H305	H	0.952930	0.014423	1.017248
	O306	O	-0.064133	0.993276	1.001814
	H307	H	-0.071658	0.989216	1.003087
	H308	H	-0.059567	0.990311	1.000469
	O309	O	0.021613	0.968420	1.016327
	H310	H	0.023035	0.970937	1.018654
	H311	H	0.017018	0.973004	1.015853
	O312	O	0.019982	0.062902	1.024754
	H313	H	0.026214	0.060093	1.033639
	H314	H	0.014275	0.059518	1.023505
	O315	O	0.457697	0.493416	0.588065
	H316	H	0.452564	0.495128	0.592017
	H317	H	0.465905	0.491055	0.587134
	O318	O	0.061550	-0.020862	0.957129
	H319	H	0.074602	-0.024886	0.966195
	H320	H	0.053514	-0.006938	0.950045
	O321	O	0.516872	0.437003	0.529247
	H322	H	0.524306	0.435673	0.528346
	H323	H	0.519983	0.446822	0.528208
	O324	O	1.086765	0.049965	1.000950
	H325	H	1.094813	0.045298	0.991693
	H326	H	1.087932	0.060265	1.011235
	O327	O	0.955451	0.963548	1.012414
	H328	H	0.950430	0.945160	1.021223
	H329	H	0.963180	0.967925	1.011149
	O330	O	0.505361	0.521423	0.515851
	H331	H	0.498966	0.519882	0.518137
	H332	H	0.495021	0.533426	0.513354
	O333	O	0.455998	0.487556	0.467712
	H334	H	0.455138	0.486581	0.469494
	H335	H	0.447615	0.482973	0.460576
	O336	O	0.495559	0.488730	0.481346
	H337	H	0.495769	0.486020	0.485020
	H338	H	0.486549	0.491656	0.474695
	O339	O	0.487229	0.483263	0.454286
	H340	H	0.490006	0.482035	0.453856
	H341	H	0.483983	0.483448	0.453899
	O342	O	0.465705	0.446781	0.432457
	H343	H	0.470466	0.436368	0.436426
	H344	H	0.467484	0.440767	0.440531
	O345	O	0.486540	0.426713	0.476458
	H346	H	0.488999	0.426322	0.472160
	H347	H	0.501046	0.429220	0.476510
