data_Molecule from HDF5

_cell_length_a		16.571712
_cell_length_b		16.577971
_cell_length_c		16.511349
_cell_angle_alpha	90.078970
_cell_angle_beta	90.092880
_cell_angle_gamma	90.057748
_symmetry_space_group_name_H-M	'P 1'
_symmetry_Int_Tables_number		1

loop_
	_symmetry_equiv_pos_as_xyz
	x,y,z

loop_
	_atom_site_label
	_atom_site_type_symbol
	_atom_site_fract_x
	_atom_site_fract_y
	_atom_site_fract_z
	H0	H	0.401896	0.839006	0.715202
	H1	H	0.609099	0.152037	0.715028
	H2	H	0.610870	0.839050	0.273095
	H3	H	0.404966	0.154676	0.277129
	H4	H	0.727870	0.390328	0.838350
	H5	H	0.727215	0.599910	0.153203
	H6	H	0.287542	0.597162	0.837619
	H7	H	0.286713	0.390269	0.152879
	H8	H	0.847410	0.714471	0.389850
	H9	H	0.162993	0.713304	0.596667
	H10	H	0.849935	0.271131	0.600621
	H11	H	0.162450	0.271831	0.389351
	H12	H	0.848741	0.389839	0.715647
	H13	H	0.162731	0.597144	0.714144
	H14	H	0.847388	0.596130	0.274724
	H15	H	0.163292	0.388833	0.274178
	H16	H	0.404621	0.713322	0.836982
	H17	H	0.611110	0.715905	0.153121
	H18	H	0.612872	0.272804	0.838484
	H19	H	0.401709	0.273409	0.151939
	H20	H	0.727457	0.839012	0.389098
	H21	H	0.727635	0.151315	0.600608
	H22	H	0.286690	0.837421	0.596777
	H23	H	0.286096	0.152772	0.391057
	H24	H	0.904534	0.336465	0.212904
	H25	H	0.107574	0.652035	0.214298
	H26	H	0.109151	0.337269	0.775707
	H27	H	0.899928	0.651178	0.772549
	H28	H	0.223776	0.891408	0.335453
	H29	H	0.228131	0.098944	0.650888
	H30	H	0.782109	0.101942	0.339823
	H31	H	0.784646	0.890748	0.652057
	H32	H	0.350318	0.216864	0.890511
	H33	H	0.662359	0.218496	0.101513
	H34	H	0.351485	0.773960	0.099492
	H35	H	0.662501	0.772761	0.886781
	H36	H	0.349850	0.893301	0.213721
	H37	H	0.663259	0.100666	0.216499
	H38	H	0.349475	0.100189	0.773922
	H39	H	0.662119	0.889814	0.771976
	H40	H	0.900542	0.216803	0.339045
	H41	H	0.110969	0.214691	0.652000
	H42	H	0.106628	0.775497	0.336453
	H43	H	0.900681	0.774243	0.651935
	H44	H	0.226503	0.338561	0.891667
	H45	H	0.224921	0.652490	0.098049
	H46	H	0.785296	0.338218	0.098843
	H47	H	0.783613	0.651392	0.888485
	H48	H	0.413902	0.107944	0.581283
	H49	H	0.589319	0.887074	0.578328
	H50	H	0.604469	0.109046	0.410227
	H51	H	0.421293	0.883735	0.399929
	H52	H	0.595597	0.400427	0.109232
	H53	H	0.601206	0.585994	0.880148
	H54	H	0.419614	0.589395	0.109484
	H55	H	0.422681	0.409887	0.886122
	H56	H	0.117863	0.586889	0.405440
	H57	H	0.893762	0.583560	0.582748
	H58	H	0.117558	0.401480	0.580836
	H59	H	0.894098	0.404534	0.406596
	H60	H	0.115514	0.409231	0.583624
	H61	H	0.892084	0.583269	0.585410
	H62	H	0.116267	0.584982	0.406372
	H63	H	0.895291	0.406331	0.407742
	H64	H	0.411955	0.587529	0.110198
	H65	H	0.594827	0.579172	0.884439
	H66	H	0.600121	0.411481	0.107580
	H67	H	0.418281	0.399247	0.880957
	H68	H	0.592042	0.109236	0.396777
	H69	H	0.601134	0.881718	0.579361
	H70	H	0.416047	0.107393	0.585460
	H71	H	0.413048	0.883865	0.409352
	H72	H	0.919661	0.607957	0.090465
	H73	H	0.098621	0.381146	0.083501
	H74	H	0.093841	0.605975	0.907072
	H75	H	0.912634	0.383980	0.913453
	H76	H	0.097192	0.900865	0.608094
	H77	H	0.091278	0.088617	0.380933
	H78	H	0.918846	0.080014	0.605806
	H79	H	0.905344	0.904724	0.377767
	H80	H	0.618257	0.086610	0.909468
	H81	H	0.393049	0.086142	0.086834
	H82	H	0.616168	0.909241	0.075845
	H83	H	0.393146	0.902311	0.904678
	H84	H	0.620379	0.911765	0.091060
	H85	H	0.394265	0.087989	0.081673
	H86	H	0.616662	0.080744	0.906827
	H87	H	0.397513	0.904823	0.909506
	H88	H	0.919574	0.083935	0.606252
	H89	H	0.100150	0.083184	0.380775
	H90	H	0.099321	0.905992	0.607573
	H91	H	0.919361	0.915322	0.387666
	H92	H	0.099584	0.607689	0.906263
	H93	H	0.098725	0.380581	0.087016
	H94	H	0.921860	0.603627	0.079950
	H95	H	0.913960	0.380342	0.899288
	H96	H	0.418117	0.105764	0.581301
	H97	H	0.593001	0.881682	0.589838
	H98	H	0.588045	0.102453	0.413177
	H99	H	0.409292	0.879496	0.397894
	H100	H	0.589271	0.408619	0.104165
	H101	H	0.591415	0.588416	0.883267
	H102	H	0.416950	0.582313	0.107352
	H103	H	0.411105	0.409124	0.881660
	H104	H	0.117141	0.584239	0.403881
	H105	H	0.891500	0.586182	0.583108
	H106	H	0.119402	0.403729	0.588981
	H107	H	0.895087	0.406329	0.405110
	H108	H	0.911715	0.608734	0.082059
	H109	H	0.096055	0.382083	0.085627
	H110	H	0.096042	0.608388	0.901628
	H111	H	0.925096	0.386987	0.906362
	H112	H	0.094394	0.905129	0.607090
	H113	H	0.091933	0.078926	0.384429
	H114	H	0.915949	0.082682	0.607579
	H115	H	0.923566	0.896556	0.381650
	H116	H	0.619339	0.084758	0.903080
	H117	H	0.395967	0.083037	0.083398
	H118	H	0.622564	0.897357	0.084620
	H119	H	0.394879	0.908509	0.904208
	C120	C	0.384409	0.003747	0.614992
	C121	C	0.626786	0.986846	0.615730
	C122	C	0.627666	0.003937	0.373489
	C123	C	0.384189	0.986968	0.372144
	C124	C	0.627496	0.374610	0.003106
	C125	C	0.628204	0.616688	0.986775
	C126	C	0.385509	0.616820	0.004221
	C127	C	0.385518	0.374060	0.986816
	C128	C	0.013143	0.615930	0.373184
	C129	C	0.996615	0.615736	0.615630
	C130	C	0.014241	0.372399	0.616916
	C131	C	0.998080	0.373192	0.374094
	C132	C	0.885693	0.503012	0.115662
	C133	C	0.128257	0.485909	0.116934
	C134	C	0.127621	0.503350	0.873758
	C135	C	0.884706	0.487075	0.873906
	C136	C	0.126914	0.873283	0.502493
	C137	C	0.127006	0.115541	0.485956
	C138	C	0.884842	0.115735	0.503655
	C139	C	0.883813	0.873252	0.486038
	C140	C	0.514900	0.116314	0.873936
	C141	C	0.497950	0.117847	0.116356
	C142	C	0.516010	0.874749	0.115636
	C143	C	0.498379	0.873691	0.873466
	C144	C	0.382940	0.885661	0.674875
	C145	C	0.628245	0.105103	0.675331
	C146	C	0.629757	0.886394	0.312863
	C147	C	0.385043	0.106497	0.315264
	C148	C	0.687714	0.372107	0.885450
	C149	C	0.687403	0.618191	0.105761
	C150	C	0.327258	0.616601	0.884732
	C151	C	0.326449	0.371898	0.105528
	C152	C	0.894502	0.674033	0.371734
	C153	C	0.115640	0.673884	0.616098
	C154	C	0.896519	0.311865	0.618928
	C155	C	0.115538	0.312337	0.371446
	C156	C	0.895988	0.370677	0.676107
	C157	C	0.115649	0.616299	0.674326
	C158	C	0.894669	0.615559	0.314076
	C159	C	0.115972	0.370579	0.313961
	C160	C	0.385334	0.674291	0.884705
	C161	C	0.629599	0.675832	0.105802
	C162	C	0.630462	0.313581	0.885351
	C163	C	0.383567	0.313783	0.104941
	C164	C	0.687793	0.886197	0.370587
	C165	C	0.687167	0.104530	0.618561
	C166	C	0.325866	0.884994	0.615993
	C167	C	0.325684	0.105585	0.371691
	C168	C	0.884818	0.383900	0.173852
	C169	C	0.127498	0.604709	0.175203
	C170	C	0.128606	0.385041	0.814860
	C171	C	0.881834	0.604399	0.812819
	C172	C	0.184509	0.872491	0.383199
	C173	C	0.187215	0.117141	0.604389
	C174	C	0.823461	0.119323	0.386155
	C175	C	0.824567	0.871811	0.604716
	C176	C	0.396999	0.176645	0.871689
	C177	C	0.615899	0.177939	0.118925
	C178	C	0.398144	0.814767	0.117635
	C179	C	0.615561	0.813122	0.869662
	C180	C	0.397335	0.873755	0.174440
	C181	C	0.616190	0.119759	0.176399
	C182	C	0.396752	0.118457	0.813882
	C183	C	0.615495	0.871493	0.812214
	C184	C	0.881857	0.176651	0.386001
	C185	C	0.129352	0.174851	0.604720
	C186	C	0.126337	0.814952	0.383512
	C187	C	0.882182	0.813909	0.604603
	C188	C	0.186857	0.385406	0.872618
	C189	C	0.185814	0.604934	0.117583
	C190	C	0.825498	0.384985	0.117506
	C191	C	0.823933	0.604274	0.870540
	C192	C	0.409056	0.085685	0.590041
	C193	C	0.601534	0.904927	0.589978
	C194	C	0.602178	0.085867	0.399369
	C195	C	0.407801	0.904058	0.395680
	C196	C	0.602157	0.399580	0.085705
	C197	C	0.602949	0.591718	0.904268
	C198	C	0.409293	0.593214	0.087487
	C199	C	0.410166	0.399076	0.904419
	C200	C	0.095771	0.592156	0.397946
	C201	C	0.914097	0.591303	0.591149
	C202	C	0.096136	0.397521	0.591807
	C203	C	0.916107	0.398421	0.399371
	C204	C	0.910662	0.585223	0.091300
	C205	C	0.104582	0.402978	0.092496
	C206	C	0.103266	0.585780	0.898043
	C207	C	0.910065	0.405068	0.899218
	C208	C	0.103620	0.897044	0.585932
	C209	C	0.101762	0.090690	0.403389
	C210	C	0.910641	0.089766	0.585303
	C211	C	0.908841	0.898392	0.403872
	C212	C	0.596676	0.091266	0.899304
	C213	C	0.415926	0.092782	0.091237
	C214	C	0.598336	0.899165	0.091002
	C215	C	0.416327	0.898513	0.898913
	Zn216	Zn	0.505937	-0.004714	0.744329
	Zn217	Zn	0.506779	-0.003460	0.244572
	Zn218	Zn	0.756129	0.495575	-0.004264
	Zn219	Zn	0.257164	0.495051	-0.004402
	Zn220	Zn	0.004748	0.744988	0.494561
	Zn221	Zn	0.006195	0.244162	0.495061
	Zn222	Zn	0.005577	0.494826	0.744861
	Zn223	Zn	0.005838	0.493374	0.245065
	Zn224	Zn	0.507452	0.745152	-0.005167
	Zn225	Zn	0.506795	0.245950	-0.005116
	Zn226	Zn	0.755864	-0.004980	0.494919
	Zn227	Zn	0.255579	-0.005281	0.493476
	N228	N	0.418610	0.960411	0.674480
	N229	N	0.591679	0.030798	0.673891
	N230	N	0.593455	0.960747	0.314427
	N231	N	0.420317	0.031499	0.315071
	N232	N	0.685940	0.409081	0.959718
	N233	N	0.686774	0.582445	0.030648
	N234	N	0.326967	0.581745	0.960335
	N235	N	0.327363	0.408627	0.030994
	N236	N	0.969295	0.674464	0.407718
	N237	N	0.040651	0.673949	0.580610
	N238	N	0.971158	0.312737	0.583022
	N239	N	0.041147	0.313962	0.408304
	N240	N	0.970230	0.407429	0.675154
	N241	N	0.040652	0.580892	0.674271
	N242	N	0.969596	0.580181	0.314857
	N243	N	0.042059	0.407832	0.315556
	N244	N	0.420634	0.674601	0.959965
	N245	N	0.593518	0.675149	0.030809
	N246	N	0.593599	0.314983	0.959832
	N247	N	0.419841	0.314978	0.030207
	N248	N	0.686717	0.960610	0.407482
	N249	N	0.686393	0.029992	0.582280
	N250	N	0.326399	0.959433	0.579719
	N251	N	0.324607	0.030126	0.405951
	N252	N	0.921303	0.458217	0.173063
	N253	N	0.092882	0.529394	0.175320
	N254	N	0.092585	0.459491	0.815292
	N255	N	0.918920	0.530379	0.814481
	N256	N	0.185165	0.907930	0.458373
	N257	N	0.185974	0.081012	0.529538
	N258	N	0.824972	0.082368	0.460509
	N259	N	0.825328	0.907949	0.529924
	N260	N	0.471410	0.175572	0.908308
	N261	N	0.541276	0.177278	0.082631
	N262	N	0.472891	0.815298	0.081916
	N263	N	0.541757	0.814515	0.907102
	N264	N	0.471640	0.910520	0.173506
	N265	N	0.542033	0.083138	0.174815
	N266	N	0.470927	0.081801	0.815146
	N267	N	0.541388	0.908490	0.814299
	N268	N	0.919165	0.174576	0.460042
	N269	N	0.092536	0.173819	0.530177
	N270	N	0.091475	0.815241	0.458834
	N271	N	0.918100	0.814480	0.529749
	N272	N	0.186662	0.460197	0.908377
	N273	N	0.186689	0.529875	0.082489
	N274	N	0.825975	0.460014	0.082159
	N275	N	0.825708	0.530411	0.907764
	O276	O	1.202397	0.882829	0.109661
	H277	H	1.190997	0.899625	0.104586
	H278	H	1.198937	0.890446	0.094992
	O279	O	0.119044	0.045603	1.045312
	H280	H	0.115174	0.058910	1.059563
	H281	H	0.133047	0.062065	1.029887
	O282	O	0.414710	0.299864	0.441811
	H283	H	0.413129	0.312616	0.430033
	H284	H	0.404542	0.292765	0.441082
	O285	O	0.718038	0.710336	0.587704
	H286	H	0.737796	0.724607	0.592748
	H287	H	0.719731	0.719872	0.567413
	O288	O	1.218909	-0.037301	0.782766
	H289	H	1.226005	-0.055321	0.774072
	H290	H	1.214861	-0.056057	0.773648
	O291	O	0.796058	1.021812	0.998275
	H292	H	0.797740	1.017342	0.974796
	H293	H	0.795627	1.004278	1.009197
	O294	O	0.207961	0.200165	0.017276
	H295	H	0.207147	0.197753	0.002425
	H296	H	0.202535	0.201353	0.005743
	O297	O	0.808592	-0.189362	0.182819
	H298	H	0.795727	-0.205121	0.177023
	H299	H	0.843453	-0.196789	0.181541
	O300	O	-0.080117	0.192105	-0.183296
	H301	H	-0.082567	0.182137	-0.194942
	H302	H	-0.069967	0.199155	-0.175947
	O303	O	-0.017167	0.145844	0.009300
	H304	H	-0.035260	0.145589	0.000636
	H305	H	-0.022251	0.145992	0.013848
	O306	O	0.972700	-0.091617	-0.006013
	H307	H	0.957340	-0.083124	-0.009742
	H308	H	0.966984	-0.098282	-0.011565
	O309	O	0.515987	0.700317	0.695080
	H310	H	0.531624	0.714797	0.689000
	H311	H	0.537552	0.695262	0.690896
	O312	O	0.656863	0.425295	0.507341
	H313	H	0.655510	0.431500	0.505321
	H314	H	0.657602	0.413556	0.497556
	O315	O	0.562797	0.650085	0.514847
	H316	H	0.572455	0.640385	0.509735
	H317	H	0.543668	0.642169	0.509226
	O318	O	0.962814	0.965087	0.043680
	H319	H	0.964367	0.973787	0.036992
	H320	H	0.976423	0.966705	0.047965
	O321	O	0.127153	0.811886	1.031415
	H322	H	0.113993	0.820068	1.018514
	H323	H	0.135480	0.813119	1.026336
	O324	O	0.790935	0.139111	0.885673
	H325	H	0.772225	0.142931	0.863096
	H326	H	0.799406	0.148617	0.870793
	O327	O	0.682689	0.537699	0.704603
	H328	H	0.684692	0.537803	0.695916
	H329	H	0.703764	0.538262	0.715141
	O330	O	-0.169270	1.004829	-0.199360
	H331	H	-0.163367	1.039291	-0.200505
	H332	H	-0.182815	1.006920	-0.204650
	O333	O	0.494300	0.461727	0.703738
	H334	H	0.474960	0.465314	0.691455
	H335	H	0.498223	0.482436	0.713621
	O336	O	0.492312	0.562289	0.585433
	H337	H	0.468464	0.561549	0.591180
	H338	H	0.494159	0.578399	0.586177
	O339	O	0.303775	0.463969	0.704487
	H340	H	0.303899	0.446919	0.696275
	H341	H	0.286602	0.455461	0.723854
	O342	O	-0.163386	1.163140	0.186348
	H343	H	-0.156888	1.144530	0.172227
	H344	H	-0.154731	1.148502	0.171345
	O345	O	0.280625	0.532039	0.521215
	H346	H	0.274489	0.546242	0.514500
	H347	H	0.282624	0.517949	0.518479
	O348	O	-0.099270	0.789666	0.891584
	H349	H	-0.101791	0.781324	0.864731
	H350	H	-0.097441	0.784061	0.907105
	O351	O	0.523332	0.313589	1.282738
	H352	H	0.516379	0.306083	1.265164
	H353	H	0.495989	0.320408	1.282628
	O354	O	1.049305	-0.160507	0.978752
	H355	H	1.039385	-0.172212	0.996346
	H356	H	1.036865	-0.160005	0.974781
	O357	O	0.584262	0.391013	0.489902
	H358	H	0.562768	0.379834	0.493837
	H359	H	0.589364	0.381959	0.490487
	O360	O	0.694500	0.467670	0.592605
	H361	H	0.689814	0.455568	0.596255
	H362	H	0.683615	0.458789	0.598143
	O363	O	0.437541	0.380671	0.303408
	H364	H	0.415809	0.396762	0.303614
	H365	H	0.436722	0.387404	0.297861
	O366	O	0.581239	0.545758	0.305991
	H367	H	0.591639	0.540697	0.296599
	H368	H	0.574873	0.534151	0.311774
	O369	O	-0.214772	-0.224132	1.022471
	H370	H	-0.218552	-0.221656	1.024132
	H371	H	-0.229196	-0.246194	1.022648
	O372	O	0.078638	1.180806	1.183841
	H373	H	0.067277	1.168859	1.173997
	H374	H	0.063264	1.177928	1.195533
	O375	O	1.054594	0.027524	-0.021814
	H376	H	1.046626	0.033893	-0.025554
	H377	H	1.045847	0.016790	-0.024389
	O378	O	0.321471	0.716097	0.478019
	H379	H	0.300683	0.726533	0.458102
	H380	H	0.321299	0.721823	0.456495
	O381	O	-0.244147	1.242314	-0.279483
	H382	H	-0.261326	1.258713	-0.295572
	H383	H	-0.227367	1.252290	-0.281273
	O384	O	0.284520	0.569631	0.314120
	H385	H	0.288998	0.595254	0.302523
	H386	H	0.254439	0.581668	0.297630
	O387	O	0.220896	1.047781	1.208425
	H388	H	0.222355	1.059176	1.223949
	H389	H	0.232207	1.068410	1.218110
	O390	O	0.057682	1.016871	0.786480
	H391	H	0.055929	1.006778	0.785219
	H392	H	0.056190	0.998461	0.792746
	O393	O	0.713224	0.294847	0.289977
	H394	H	0.731059	0.270427	0.270042
	H395	H	0.679892	0.290668	0.291874
	O396	O	0.304550	0.698320	0.291501
	H397	H	0.300415	0.712381	0.278023
	H398	H	0.330206	0.701989	0.276620
	O399	O	0.416956	0.410027	0.555212
	H400	H	0.429109	0.393109	0.541663
	H401	H	0.423739	0.411654	0.572577
	O402	O	0.962920	-0.214436	1.205310
	H403	H	0.975076	-0.216556	1.201305
	H404	H	0.975613	-0.221001	1.213170
	O405	O	0.206324	0.212054	0.209202
	H406	H	0.194292	0.212451	0.196206
	H407	H	0.174149	0.212085	0.189509
	O408	O	0.884404	0.878929	0.799973
	H409	H	0.879363	0.896640	0.800364
	H410	H	0.890826	0.870223	0.807054
	O411	O	1.093557	0.765426	-0.233658
	H412	H	1.118353	0.758126	-0.229890
	H413	H	1.112096	0.745171	-0.257359
	O414	O	0.345597	-0.637417	0.472104
	H415	H	0.339702	-0.633491	0.478063
	H416	H	0.331073	-0.649202	0.473968
	O417	O	0.167394	0.177186	0.833795
	H418	H	0.166364	0.168748	0.840572
	H419	H	0.158118	0.156397	0.825556
	O420	O	0.980096	0.071532	1.213970
	H421	H	0.983401	0.052005	1.213051
	H422	H	0.961530	0.061059	1.214888
	O423	O	1.102535	0.976736	-0.126342
	H424	H	1.107506	0.965310	-0.139467
	H425	H	1.100079	0.970320	-0.136038
	O426	O	0.291696	0.405588	0.453192
	H427	H	0.280272	0.405704	0.434502
	H428	H	0.294582	0.408705	0.468647
	O429	O	0.444327	0.561057	0.416286
	H430	H	0.446519	0.553146	0.429591
	H431	H	0.430858	0.556115	0.402602
	O432	O	1.008142	0.219898	0.889016
	H433	H	0.995240	0.205450	0.893523
	H434	H	0.998430	0.233819	0.874984
	O435	O	0.628149	0.631885	0.631303
	H436	H	0.625130	0.647537	0.606031
	H437	H	0.614069	0.600833	0.624919
	O438	O	0.484137	0.710444	0.312803
	H439	H	0.504046	0.710683	0.305640
	H440	H	0.505260	0.712252	0.317499
	O441	O	0.795758	1.098727	-0.000586
	H442	H	0.791149	1.084145	-0.006768
	H443	H	0.793709	1.109693	-0.016530
	O444	O	0.628673	0.404656	0.623214
	H445	H	0.614795	0.413924	0.624259
	H446	H	0.627560	0.408712	0.597501
	O447	O	0.281041	0.260696	0.721136
	H448	H	0.271205	0.247538	0.715409
	H449	H	0.305829	0.263142	0.723435
	O450	O	1.215393	-0.216515	-0.174181
	H451	H	1.221141	-0.202714	-0.144915
	H452	H	1.242003	-0.245262	-0.196639
	O453	O	0.717249	0.290586	0.493750
	H454	H	0.721961	0.287184	0.462226
	H455	H	0.724576	0.275208	0.489999
	O456	O	0.472526	1.280201	0.706179
	H457	H	0.476557	1.278519	0.707186
	H458	H	0.479696	1.281338	0.717870
	O459	O	0.325648	0.675784	0.667604
	H460	H	0.341726	0.658774	0.648611
	H461	H	0.338236	0.661622	0.650613
	O462	O	0.718246	0.460176	0.278195
	H463	H	0.728341	0.443221	0.268198
	H464	H	0.730832	0.441390	0.269738
	O465	O	0.670826	0.626767	0.426637
	H466	H	0.670984	0.620078	0.449812
	H467	H	0.667129	0.610126	0.414882
	O468	O	0.218913	0.843913	-0.014678
	H469	H	0.228487	0.853938	-0.005582
	H470	H	0.228095	0.841390	-0.029772
	O471	O	0.558158	0.605723	0.396805
	H472	H	0.557658	0.589307	0.404573
	H473	H	0.549010	0.596778	0.399360
	O474	O	0.789958	0.972782	0.216221
	H475	H	0.771334	0.953977	0.221593
	H476	H	0.779057	0.949478	0.219929
	O477	O	0.086617	-0.075882	1.198292
	H478	H	0.092596	-0.073994	1.186129
	H479	H	0.092626	-0.066197	1.199592
