data_Molecule from HDF5

_cell_length_a		16.610267
_cell_length_b		16.525974
_cell_length_c		16.651522
_cell_angle_alpha	89.888151
_cell_angle_beta	90.006598
_cell_angle_gamma	90.161759
_symmetry_space_group_name_H-M	'P 1'
_symmetry_Int_Tables_number		1

loop_
	_symmetry_equiv_pos_as_xyz
	x,y,z

loop_
	_atom_site_label
	_atom_site_type_symbol
	_atom_site_fract_x
	_atom_site_fract_y
	_atom_site_fract_z
	H0	H	0.423697	0.833105	0.714546
	H1	H	0.633587	0.147153	0.713134
	H2	H	0.636589	0.835159	0.270014
	H3	H	0.423211	0.146739	0.269669
	H4	H	0.754351	0.381716	0.838832
	H5	H	0.755311	0.599560	0.144820
	H6	H	0.308030	0.595374	0.836893
	H7	H	0.306376	0.383162	0.147618
	H8	H	0.873104	0.710823	0.388228
	H9	H	0.185524	0.712506	0.597682
	H10	H	0.874798	0.266400	0.599701
	H11	H	0.186543	0.271988	0.390133
	H12	H	0.874392	0.382937	0.715387
	H13	H	0.185031	0.596644	0.714833
	H14	H	0.874346	0.598061	0.269796
	H15	H	0.185393	0.386539	0.272096
	H16	H	0.424841	0.711640	0.836807
	H17	H	0.636315	0.713100	0.147013
	H18	H	0.633629	0.269761	0.836406
	H19	H	0.422459	0.267199	0.147202
	H20	H	0.751589	0.835505	0.387220
	H21	H	0.749024	0.148411	0.596325
	H22	H	0.308370	0.833063	0.597831
	H23	H	0.308336	0.146614	0.386634
	H24	H	0.921234	0.334438	0.216103
	H25	H	0.138931	0.644294	0.217421
	H26	H	0.133842	0.333842	0.771148
	H27	H	0.920426	0.644177	0.767260
	H28	H	0.255179	0.880443	0.339496
	H29	H	0.252700	0.095927	0.647854
	H30	H	0.806233	0.099312	0.338564
	H31	H	0.809320	0.885288	0.648281
	H32	H	0.374218	0.211513	0.884871
	H33	H	0.684704	0.213285	0.097210
	H34	H	0.374434	0.767565	0.098794
	H35	H	0.685763	0.769943	0.890744
	H36	H	0.375083	0.883849	0.215568
	H37	H	0.683790	0.099780	0.215719
	H38	H	0.374785	0.094907	0.769786
	H39	H	0.685864	0.884712	0.772347
	H40	H	0.925048	0.212123	0.336995
	H41	H	0.135261	0.211151	0.649232
	H42	H	0.137821	0.765728	0.338790
	H43	H	0.924648	0.768944	0.647892
	H44	H	0.249544	0.333543	0.887107
	H45	H	0.253039	0.644522	0.098947
	H46	H	0.805167	0.334453	0.100514
	H47	H	0.805731	0.644955	0.884886
	H48	H	0.442486	0.101433	0.580351
	H49	H	0.619434	0.876026	0.587386
	H50	H	0.619713	0.105362	0.399319
	H51	H	0.446432	0.881944	0.409548
	H52	H	0.614946	0.403121	0.101537
	H53	H	0.613779	0.575620	0.883824
	H54	H	0.439164	0.575684	0.103182
	H55	H	0.438719	0.401748	0.881008
	H56	H	0.141590	0.582346	0.404319
	H57	H	0.916156	0.579183	0.585660
	H58	H	0.140182	0.404592	0.580695
	H59	H	0.918953	0.399271	0.409352
	H60	H	0.142265	0.403159	0.587107
	H61	H	0.918641	0.581438	0.578590
	H62	H	0.137968	0.575989	0.409261
	H63	H	0.919768	0.407527	0.403544
	H64	H	0.441942	0.579377	0.104246
	H65	H	0.615920	0.579590	0.882132
	H66	H	0.616752	0.400740	0.103534
	H67	H	0.439324	0.401111	0.880897
	H68	H	0.612632	0.100747	0.404009
	H69	H	0.617586	0.878406	0.581098
	H70	H	0.441006	0.101494	0.581436
	H71	H	0.437450	0.877606	0.405960
	H72	H	0.946052	0.602075	0.087314
	H73	H	0.119542	0.376562	0.084931
	H74	H	0.120367	0.604483	0.898528
	H75	H	0.943643	0.379026	0.905031
	H76	H	0.122356	0.896449	0.606148
	H77	H	0.121142	0.079889	0.381100
	H78	H	0.938926	0.076869	0.603725
	H79	H	0.938413	0.908076	0.381772
	H80	H	0.639164	0.075931	0.905066
	H81	H	0.417542	0.074422	0.086058
	H82	H	0.640273	0.903377	0.080307
	H83	H	0.416959	0.898891	0.903019
	H84	H	0.641768	0.902899	0.082257
	H85	H	0.416694	0.082859	0.080430
	H86	H	0.642469	0.078767	0.900870
	H87	H	0.417854	0.901107	0.903942
	H88	H	0.942790	0.079553	0.603481
	H89	H	0.119022	0.076948	0.382904
	H90	H	0.121398	0.910942	0.601139
	H91	H	0.946166	0.899144	0.381499
	H92	H	0.111055	0.599946	0.903778
	H93	H	0.112778	0.378540	0.083907
	H94	H	0.947155	0.597211	0.074380
	H95	H	0.941842	0.379428	0.907487
	H96	H	0.442646	0.102141	0.582271
	H97	H	0.623853	0.876559	0.582096
	H98	H	0.621276	0.101890	0.408994
	H99	H	0.446232	0.878806	0.400195
	H100	H	0.618377	0.403915	0.101803
	H101	H	0.618623	0.575321	0.882234
	H102	H	0.437131	0.579986	0.104584
	H103	H	0.438351	0.400750	0.880495
	H104	H	0.140248	0.574017	0.401124
	H105	H	0.919747	0.573862	0.580945
	H106	H	0.142768	0.398248	0.582313
	H107	H	0.915711	0.399071	0.400273
	H108	H	0.935311	0.603371	0.078592
	H109	H	0.117416	0.378568	0.078205
	H110	H	0.120728	0.601002	0.909696
	H111	H	0.940504	0.378312	0.904613
	H112	H	0.108772	0.901822	0.600621
	H113	H	0.117744	0.080567	0.382091
	H114	H	0.938906	0.081535	0.605124
	H115	H	0.935308	0.897648	0.378062
	H116	H	0.641334	0.081464	0.905864
	H117	H	0.421068	0.074389	0.076892
	H118	H	0.641509	0.901148	0.080435
	H119	H	0.416759	0.900951	0.901779
	C120	C	0.409491	-0.002040	0.613781
	C121	C	0.651494	0.981414	0.614653
	C122	C	0.651021	-0.000478	0.371451
	C123	C	0.409584	0.982419	0.371758
	C124	C	0.649996	0.369379	0.000206
	C125	C	0.650465	0.611100	0.984151
	C126	C	0.407726	0.610986	0.000922
	C127	C	0.406764	0.368275	0.983551
	C128	C	0.037723	0.611630	0.371439
	C129	C	1.021038	0.611368	0.614282
	C130	C	0.038588	0.368664	0.615077
	C131	C	1.021221	0.369699	0.372126
	C132	C	0.908555	0.498339	0.113749
	C133	C	0.150144	0.481148	0.114441
	C134	C	0.149574	0.498332	0.871854
	C135	C	0.907942	0.481379	0.871454
	C136	C	0.151010	0.869195	0.500951
	C137	C	0.152066	0.111751	0.484760
	C138	C	0.908203	0.112169	0.501185
	C139	C	0.907991	0.869199	0.483585
	C140	C	0.537984	0.110810	0.871029
	C141	C	0.521152	0.111307	0.113564
	C142	C	0.538561	0.868936	0.114297
	C143	C	0.520737	0.868172	0.871451
	C144	C	0.406479	0.879854	0.673831
	C145	C	0.652212	0.100061	0.673264
	C146	C	0.654344	0.882062	0.310620
	C147	C	0.405677	0.099650	0.310257
	C148	C	0.712220	0.365293	0.884495
	C149	C	0.713437	0.616125	0.099434
	C150	C	0.347702	0.613845	0.883714
	C151	C	0.346748	0.365127	0.100766
	C152	C	0.920555	0.671800	0.369153
	C153	C	0.138531	0.672004	0.616278
	C154	C	0.921446	0.307131	0.617857
	C155	C	0.139248	0.310969	0.370820
	C156	C	0.921055	0.365061	0.675326
	C157	C	0.138239	0.614593	0.674685
	C158	C	0.921035	0.615415	0.310442
	C159	C	0.138648	0.367893	0.312240
	C160	C	0.405957	0.671504	0.883743
	C161	C	0.654378	0.672548	0.100428
	C162	C	0.652629	0.309147	0.883428
	C163	C	0.404372	0.307452	0.100561
	C164	C	0.711336	0.882108	0.369033
	C165	C	0.709900	0.100460	0.615424
	C166	C	0.349006	0.879924	0.616076
	C167	C	0.348625	0.099658	0.368573
	C168	C	0.904009	0.381378	0.175817
	C169	C	0.155402	0.597850	0.175949
	C170	C	0.152192	0.380732	0.811331
	C171	C	0.903175	0.597878	0.808723
	C172	C	0.213576	0.864238	0.385391
	C173	C	0.212412	0.114173	0.601526
	C174	C	0.847690	0.115883	0.384542
	C175	C	0.848712	0.866995	0.601105
	C176	C	0.420946	0.170817	0.867548
	C177	C	0.637763	0.173093	0.115849
	C178	C	0.421145	0.807988	0.117155
	C179	C	0.639026	0.809481	0.871251
	C180	C	0.421653	0.865552	0.175217
	C181	C	0.637563	0.116452	0.174818
	C182	C	0.421169	0.113043	0.810070
	C183	C	0.638877	0.866309	0.812435
	C184	C	0.906564	0.172427	0.384037
	C185	C	0.153998	0.171408	0.601888
	C186	C	0.155071	0.806950	0.385205
	C187	C	0.906157	0.809063	0.601140
	C188	C	0.209727	0.380531	0.868960
	C189	C	0.212401	0.597997	0.117465
	C190	C	0.846364	0.381417	0.118042
	C191	C	0.846324	0.598173	0.867169
	C192	C	0.434774	0.080226	0.588487
	C193	C	0.627278	0.898416	0.590657
	C194	C	0.625234	0.081398	0.396816
	C195	C	0.435726	0.900806	0.397796
	C196	C	0.624054	0.395266	0.081101
	C197	C	0.623814	0.584275	0.903712
	C198	C	0.432405	0.585656	0.082719
	C199	C	0.431691	0.393901	0.902143
	C200	C	0.118764	0.585045	0.397466
	C201	C	0.939476	0.585625	0.589062
	C202	C	0.120382	0.394402	0.590451
	C203	C	0.939505	0.394720	0.397221
	C204	C	0.935164	0.579798	0.087558
	C205	C	0.124053	0.399074	0.089331
	C206	C	0.124572	0.580526	0.896966
	C207	C	0.934568	0.399986	0.897987
	C208	C	0.124865	0.895747	0.581635
	C209	C	0.126628	0.086382	0.403076
	C210	C	0.933124	0.086522	0.582861
	C211	C	0.932931	0.894217	0.401982
	C212	C	0.619562	0.085738	0.896507
	C213	C	0.439550	0.084635	0.088432
	C214	C	0.619803	0.895052	0.088648
	C215	C	0.438651	0.893065	0.895878
	Zn216	Zn	0.530162	-0.010820	0.742740
	Zn217	Zn	0.530236	-0.009315	0.242723
	Zn218	Zn	0.779793	0.490270	-0.007223
	Zn219	Zn	0.278085	0.489582	-0.007802
	Zn220	Zn	0.029322	0.740503	0.492646
	Zn221	Zn	0.030162	0.240604	0.493128
	Zn222	Zn	0.029091	0.490428	0.743210
	Zn223	Zn	0.029000	0.490388	0.242645
	Zn224	Zn	0.529000	0.739599	-0.006939
	Zn225	Zn	0.528805	0.239689	-0.008357
	Zn226	Zn	0.779798	-0.008804	0.492548
	Zn227	Zn	0.280727	-0.009868	0.492982
	N228	N	0.443182	0.954384	0.672703
	N229	N	0.617123	0.024775	0.673274
	N230	N	0.617429	0.956132	0.312100
	N231	N	0.442958	0.025513	0.312046
	N232	N	0.710810	0.401925	0.958185
	N233	N	0.711145	0.578462	0.026189
	N234	N	0.348379	0.576930	0.957768
	N235	N	0.347982	0.402192	0.027024
	N236	N	0.994286	0.669673	0.406494
	N237	N	0.064567	0.670294	0.579553
	N238	N	0.995333	0.309199	0.581019
	N239	N	0.065121	0.311803	0.407361
	N240	N	0.994843	0.402521	0.673890
	N241	N	0.064029	0.577795	0.673586
	N242	N	0.994987	0.578814	0.311389
	N243	N	0.064185	0.403444	0.312740
	N244	N	0.442408	0.669765	0.957638
	N245	N	0.616069	0.669757	0.027672
	N246	N	0.614467	0.311541	0.956426
	N247	N	0.441121	0.309148	0.026592
	N248	N	0.709585	0.956297	0.406007
	N249	N	0.709784	0.025469	0.579701
	N250	N	0.350721	0.954439	0.579248
	N251	N	0.350722	0.025581	0.405937
	N252	N	0.942012	0.455206	0.173286
	N253	N	0.117019	0.524281	0.173743
	N254	N	0.115470	0.455025	0.812932
	N255	N	0.940813	0.524128	0.811322
	N256	N	0.211362	0.902288	0.458587
	N257	N	0.211540	0.077961	0.527445
	N258	N	0.848552	0.079231	0.458499
	N259	N	0.849410	0.903497	0.526953
	N260	N	0.494632	0.169556	0.904937
	N261	N	0.564193	0.170032	0.078382
	N262	N	0.495057	0.809603	0.080093
	N263	N	0.564572	0.810494	0.907140
	N264	N	0.495569	0.902697	0.173503
	N265	N	0.563910	0.079034	0.173613
	N266	N	0.495040	0.076487	0.812094
	N267	N	0.564220	0.901893	0.812203
	N268	N	0.943389	0.170473	0.457752
	N269	N	0.117176	0.170116	0.528020
	N270	N	0.116684	0.810182	0.457958
	N271	N	0.942335	0.810144	0.527032
	N272	N	0.208517	0.454784	0.905638
	N273	N	0.209169	0.524355	0.079714
	N274	N	0.848881	0.455196	0.080224
	N275	N	0.849203	0.524571	0.905513
	O276	O	0.139376	0.771651	0.097063
	H277	H	0.127251	0.770371	0.094249
	H278	H	0.126025	0.786187	0.109625
	O279	O	0.451721	0.426042	0.294459
	H280	H	0.477352	0.425288	0.296681
	H281	H	0.453935	0.425937	0.296504
	O282	O	0.989434	0.134999	0.773024
	H283	H	0.990631	0.130787	0.772735
	H284	H	0.990597	0.145641	0.750829
	O285	O	0.053375	1.202501	1.212063
	H286	H	0.056696	1.197060	1.226435
	H287	H	0.070353	1.217569	1.217117
	O288	O	0.048521	0.215022	0.889804
	H289	H	0.057728	0.220940	0.884512
	H290	H	0.041626	0.216097	0.878366
	O291	O	0.322433	0.522784	0.284251
	H292	H	0.328307	0.503164	0.288797
	H293	H	0.318667	0.510526	0.276650
	O294	O	0.362170	0.598402	0.621582
	H295	H	0.371331	0.597908	0.626194
	H296	H	0.354874	0.602787	0.644245
	O297	O	0.463480	0.577665	0.685908
	H298	H	0.472215	0.602768	0.702857
	H299	H	0.476540	0.564367	0.689825
	O300	O	-0.375668	0.652859	0.367402
	H301	H	-0.391188	0.651855	0.376620
	H302	H	-0.367944	0.669516	0.335619
	O303	O	0.635586	0.409386	0.535434
	H304	H	0.638421	0.399295	0.539504
	H305	H	0.636822	0.411213	0.523155
	O306	O	0.402541	0.478984	0.585338
	H307	H	0.402556	0.464939	0.590859
	H308	H	0.420601	0.481463	0.592081
	O309	O	0.319816	0.457506	0.700239
	H310	H	0.320005	0.451333	0.709754
	H311	H	0.320317	0.464031	0.705737
	O312	O	0.739080	0.574616	0.552208
	H313	H	0.736054	0.575244	0.531879
	H314	H	0.724256	0.599867	0.552469
	O315	O	0.805792	1.021797	0.768105
	H316	H	0.781529	1.036111	0.750090
	H317	H	0.801764	1.046650	0.768122
	O318	O	0.855719	0.029205	0.086045
	H319	H	0.876026	0.026784	0.065618
	H320	H	0.849463	0.015273	0.072543
	O321	O	-0.184115	0.973112	1.211589
	H322	H	-0.192801	0.981604	1.201854
	H323	H	-0.201745	0.969920	1.209220
	O324	O	0.812768	1.203788	-0.040591
	H325	H	0.794069	1.232342	-0.036647
	H326	H	0.840488	1.201201	-0.017335
	O327	O	-0.146736	-0.175067	1.163899
	H328	H	-0.149633	-0.173202	1.126957
	H329	H	-0.129605	-0.144363	1.164732
	O330	O	0.777244	0.744278	0.747509
	H331	H	0.755130	0.723316	0.743128
	H332	H	0.777739	0.755601	0.713971
	O333	O	0.241902	0.773602	0.959551
	H334	H	0.235605	0.783344	0.980436
	H335	H	0.254833	0.753738	0.974577
	O336	O	0.563921	0.531354	0.258256
	H337	H	0.565024	0.543834	0.260879
	H338	H	0.583876	0.517445	0.260015
	O339	O	0.974178	-0.003147	1.054681
	H340	H	0.965472	0.000871	1.047170
	H341	H	0.975571	0.005168	1.048396
	O342	O	0.155100	0.046555	0.010499
	H343	H	0.160593	0.070416	0.026482
	H344	H	0.169492	0.035425	-0.011022
	O345	O	-0.280250	1.295714	1.301560
	H346	H	-0.262552	1.297423	1.299152
	H347	H	-0.310422	1.310937	1.292401
	O348	O	0.489682	0.277509	0.701601
	H349	H	0.501523	0.258136	0.717006
	H350	H	0.496339	0.290421	0.695631
	O351	O	0.828901	0.189773	0.796457
	H352	H	0.834675	0.202109	0.799777
	H353	H	0.837519	0.189154	0.827703
	O354	O	0.110499	-0.082172	1.006345
	H355	H	0.118590	-0.074464	1.014373
	H356	H	0.114471	-0.080366	1.014829
	O357	O	0.428757	0.281378	0.385375
	H358	H	0.419079	0.288875	0.397715
	H359	H	0.434667	0.286241	0.405191
	O360	O	0.609856	0.430326	0.612359
	H361	H	0.603458	0.419730	0.609440
	H362	H	0.627858	0.446527	0.608703
	O363	O	0.078356	-0.040316	0.156073
	H364	H	0.072956	-0.058227	0.145898
	H365	H	0.068874	-0.039702	0.160099
	O366	O	0.672121	0.347027	0.690296
	H367	H	0.678650	0.337360	0.678956
	H368	H	0.682637	0.370606	0.695736
	O369	O	1.351177	0.303966	-0.344141
	H370	H	1.382519	0.315820	-0.338115
	H371	H	1.331268	0.305427	-0.321506
	O372	O	1.027398	1.021284	-0.151399
	H373	H	1.030173	1.007907	-0.144328
	H374	H	1.026984	1.011996	-0.158062
	O375	O	1.071875	-0.185704	-0.191197
	H376	H	1.076821	-0.202281	-0.212585
	H377	H	1.089662	-0.177832	-0.185255
	O378	O	-0.686766	0.274195	0.518441
	H379	H	-0.699121	0.260849	0.546297
	H380	H	-0.695114	0.273742	0.541853
	O381	O	0.243127	0.958937	0.771616
	H382	H	0.255732	0.955008	0.781332
	H383	H	0.254301	0.945533	0.762115
	O384	O	1.239114	0.199621	0.781280
	H385	H	1.245380	0.187424	0.790049
	H386	H	1.226710	0.177844	0.789550
	O387	O	1.014618	0.966222	-0.123796
	H388	H	1.007375	0.972287	-0.127006
	H389	H	1.017321	0.958020	-0.131199
	O390	O	0.556017	0.277490	0.273724
	H391	H	0.554560	0.266065	0.293482
	H392	H	0.560518	0.261572	0.253875
	O393	O	0.759875	0.669665	0.305304
	H394	H	0.770372	0.678863	0.279472
	H395	H	0.756499	0.672195	0.297652
	O396	O	0.246667	1.023058	1.207693
	H397	H	0.264325	1.027437	1.230960
	H398	H	0.222004	1.005415	1.216419
	O399	O	0.001586	-0.229857	1.211482
	H400	H	-0.017071	-0.228395	1.215470
	H401	H	-0.011620	-0.242247	1.221579
	O402	O	0.751847	0.268321	0.463120
	H403	H	0.755551	0.270935	0.445096
	H404	H	0.771921	0.245611	0.445757
	O405	O	0.826194	-0.219877	1.021880
	H406	H	0.833147	-0.222295	1.000809
	H407	H	0.819709	-0.224836	1.005997
	O408	O	0.254304	0.209075	0.015317
	H409	H	0.255039	0.210743	0.045359
	H410	H	0.270787	0.229577	0.035849
	O411	O	0.449304	0.714732	0.481189
	H412	H	0.439005	0.721102	0.470092
	H413	H	0.432969	0.707108	0.492793
	O414	O	0.740874	0.505089	0.710354
	H415	H	0.762062	0.521655	0.720589
	H416	H	0.750666	0.517243	0.692237
	O417	O	-0.258209	0.465284	0.269800
	H418	H	-0.246921	0.461559	0.269025
	H419	H	-0.250413	0.462177	0.270332
	O420	O	0.185065	0.999990	1.062796
	H421	H	0.195532	0.984027	1.085415
	H422	H	0.179784	0.989916	1.048406
	O423	O	-0.003220	0.218911	1.016570
	H424	H	0.011165	0.224464	1.043127
	H425	H	0.022914	0.217516	0.996456
	O426	O	0.318406	0.515247	0.524411
	H427	H	0.317440	0.517807	0.534874
	H428	H	0.316221	0.508597	0.537617
	O429	O	0.879149	0.929935	0.917318
	H430	H	0.882095	0.920881	0.898641
	H431	H	0.864234	0.938270	0.906226
	O432	O	0.233011	0.785301	0.792178
	H433	H	0.206172	0.807823	0.785905
	H434	H	0.238126	0.779800	0.843043
	O435	O	-0.252308	0.702145	0.529649
	H436	H	-0.238847	0.724249	0.513591
	H437	H	-0.269839	0.704923	0.511771
	O438	O	-0.442638	0.605708	-0.436347
	H439	H	-0.459631	0.617613	-0.447393
	H440	H	-0.437994	0.601995	-0.432571
	O441	O	-0.092088	-0.203646	-0.200890
	H442	H	-0.085414	-0.209758	-0.199878
	H443	H	-0.122025	-0.216659	-0.217606
	O444	O	0.500805	0.706338	0.273902
	H445	H	0.491106	0.720146	0.256810
	H446	H	0.486391	0.701495	0.263417
	O447	O	0.038294	1.025489	0.880863
	H448	H	0.034413	1.030932	0.888338
	H449	H	0.042870	1.014540	0.874271
	O450	O	-0.192173	1.054198	1.044708
	H451	H	-0.185124	1.064823	1.031643
	H452	H	-0.184623	1.061077	1.026235
	O453	O	0.176775	-0.159869	1.199604
	H454	H	0.193000	-0.188530	1.221634
	H455	H	0.147628	-0.150407	1.203019
	O456	O	-0.041296	0.086770	1.175370
	H457	H	-0.042651	0.090008	1.166577
	H458	H	-0.032293	0.078629	1.171985
	O459	O	0.300291	0.273889	0.274993
	H460	H	0.317239	0.282971	0.289477
	H461	H	0.312054	0.285824	0.290493
	O462	O	0.529567	0.398951	0.462755
	H463	H	0.532797	0.385996	0.470243
	H464	H	0.524884	0.410846	0.471191
	O465	O	0.972727	-0.235889	-0.061306
	H466	H	0.977092	-0.238102	-0.065536
	H467	H	0.982020	-0.229912	-0.076302
	O468	O	0.564270	0.367521	0.507792
	H469	H	0.564262	0.370210	0.511736
	H470	H	0.582625	0.372048	0.505992
	O471	O	0.328267	0.685459	0.294759
	H472	H	0.331859	0.680545	0.298829
	H473	H	0.327887	0.651097	0.309229
	O474	O	0.390721	0.641101	0.496159
	H475	H	0.387890	0.631971	0.489439
	H476	H	0.378319	0.638445	0.498602
	O477	O	0.221696	0.146190	1.149258
	H478	H	0.204786	0.122030	1.156640
	H479	H	0.233491	0.161747	1.179323
	O480	O	0.662958	0.611183	0.469635
	H481	H	0.641699	0.601515	0.456382
	H482	H	0.661891	0.604982	0.450296
	O483	O	0.244572	1.014780	-0.055363
	H484	H	0.248610	1.032583	-0.037786
	H485	H	0.246697	1.006057	-0.046549
	O486	O	0.564787	0.697081	0.712238
	H487	H	0.567308	0.720093	0.728160
	H488	H	0.550629	0.693256	0.689923
	O489	O	1.555858	0.479687	-0.567223
	H490	H	1.543751	0.479296	-0.560267
	H491	H	1.559565	0.470309	-0.564129
