data_Molecule from HDF5

_cell_length_a		16.286926
_cell_length_b		16.296956
_cell_length_c		16.216589
_cell_angle_alpha	90.402435
_cell_angle_beta	89.737122
_cell_angle_gamma	89.748684
_symmetry_space_group_name_H-M	'P 1'
_symmetry_Int_Tables_number		1

loop_
	_symmetry_equiv_pos_as_xyz
	x,y,z

loop_
	_atom_site_label
	_atom_site_type_symbol
	_atom_site_fract_x
	_atom_site_fract_y
	_atom_site_fract_z
	H0	H	0.403396	0.836965	0.712125
	H1	H	0.596664	0.164479	0.715028
	H2	H	0.601037	0.838289	0.284610
	H3	H	0.401325	0.164652	0.286520
	H4	H	0.718527	0.399458	0.834160
	H5	H	0.716334	0.598806	0.163276
	H6	H	0.290440	0.598723	0.833789
	H7	H	0.286834	0.402737	0.161504
	H8	H	0.838230	0.717088	0.400353
	H9	H	0.165864	0.717360	0.596179
	H10	H	0.837110	0.291855	0.596126
	H11	H	0.163552	0.283028	0.395752
	H12	H	0.838732	0.407919	0.712719
	H13	H	0.167700	0.599925	0.710606
	H14	H	0.838968	0.602297	0.282487
	H15	H	0.166149	0.403784	0.283973
	H16	H	0.403037	0.716061	0.835367
	H17	H	0.602618	0.716943	0.162853
	H18	H	0.604626	0.281492	0.836531
	H19	H	0.405396	0.290667	0.164904
	H20	H	0.717542	0.838603	0.399131
	H21	H	0.714741	0.164361	0.601958
	H22	H	0.284011	0.839179	0.600255
	H23	H	0.285783	0.165110	0.402904
	H24	H	0.904771	0.337917	0.211829
	H25	H	0.100866	0.664940	0.213631
	H26	H	0.103346	0.338415	0.780566
	H27	H	0.908266	0.666748	0.789328
	H28	H	0.217231	0.901266	0.336321
	H29	H	0.212191	0.102352	0.663798
	H30	H	0.784689	0.100354	0.335913
	H31	H	0.788734	0.906661	0.664248
	H32	H	0.339525	0.216810	0.902912
	H33	H	0.665851	0.215609	0.102071
	H34	H	0.339038	0.785325	0.100305
	H35	H	0.666296	0.785996	0.900396
	H36	H	0.337584	0.904101	0.214983
	H37	H	0.665134	0.098361	0.216142
	H38	H	0.337578	0.098506	0.789351
	H39	H	0.664912	0.899171	0.782381
	H40	H	0.899806	0.216611	0.334937
	H41	H	0.097179	0.217795	0.662708
	H42	H	0.099969	0.787680	0.334590
	H43	H	0.901963	0.788908	0.663011
	H44	H	0.218940	0.337667	0.896911
	H45	H	0.218490	0.664102	0.097894
	H46	H	0.788181	0.338438	0.096756
	H47	H	0.786041	0.663865	0.898486
	H48	H	0.406354	0.118130	0.594648
	H49	H	0.601079	0.883665	0.589697
	H50	H	0.598800	0.118214	0.409772
	H51	H	0.404668	0.885670	0.412253
	H52	H	0.602813	0.415080	0.116407
	H53	H	0.606117	0.588735	0.879636
	H54	H	0.415294	0.597616	0.114739
	H55	H	0.412546	0.409987	0.883137
	H56	H	0.118148	0.598057	0.408297
	H57	H	0.887389	0.594929	0.593319
	H58	H	0.118683	0.410527	0.589916
	H59	H	0.885289	0.410918	0.401576
	H60	H	0.118837	0.406262	0.588854
	H61	H	0.884653	0.598428	0.596611
	H62	H	0.117445	0.591762	0.407134
	H63	H	0.884188	0.406547	0.406040
	H64	H	0.404426	0.594911	0.117071
	H65	H	0.588512	0.585592	0.886354
	H66	H	0.588421	0.410575	0.111827
	H67	H	0.416615	0.405184	0.882723
	H68	H	0.589297	0.118565	0.403534
	H69	H	0.594167	0.883354	0.596241
	H70	H	0.405695	0.118152	0.595760
	H71	H	0.406830	0.883305	0.402980
	H72	H	0.904385	0.620489	0.092748
	H73	H	0.095463	0.387827	0.082777
	H74	H	0.089768	0.614430	0.911040
	H75	H	0.916923	0.384642	0.898414
	H76	H	0.101912	0.908110	0.619851
	H77	H	0.097371	0.096463	0.380436
	H78	H	0.906386	0.105321	0.618422
	H79	H	0.907330	0.908779	0.381104
	H80	H	0.618002	0.086210	0.904846
	H81	H	0.386950	0.098117	0.089013
	H82	H	0.612589	0.922027	0.089062
	H83	H	0.387886	0.911140	0.909157
	H84	H	0.623326	0.904585	0.107621
	H85	H	0.386414	0.090718	0.095503
	H86	H	0.620922	0.096213	0.904177
	H87	H	0.384415	0.906869	0.903838
	H88	H	0.900940	0.093559	0.616996
	H89	H	0.095702	0.087024	0.383659
	H90	H	0.089857	0.919679	0.612289
	H91	H	0.908634	0.911471	0.383099
	H92	H	0.107452	0.619589	0.910290
	H93	H	0.102379	0.382604	0.091462
	H94	H	0.915614	0.616830	0.094591
	H95	H	0.912184	0.387392	0.910855
	H96	H	0.406831	0.116999	0.595887
	H97	H	0.592254	0.886599	0.587367
	H98	H	0.589831	0.115188	0.414159
	H99	H	0.414074	0.887445	0.408447
	H100	H	0.598805	0.400885	0.118883
	H101	H	0.593509	0.602763	0.879694
	H102	H	0.411704	0.586665	0.112423
	H103	H	0.410578	0.403827	0.880925
	H104	H	0.119408	0.594991	0.402206
	H105	H	0.886001	0.598871	0.592117
	H106	H	0.117573	0.409120	0.585854
	H107	H	0.886882	0.412597	0.407379
	H108	H	0.910186	0.614857	0.084056
	H109	H	0.091039	0.385576	0.094132
	H110	H	0.097551	0.620788	0.894349
	H111	H	0.904293	0.381988	0.901885
	H112	H	0.084565	0.902014	0.616551
	H113	H	0.088242	0.093575	0.383362
	H114	H	0.914029	0.094881	0.614094
	H115	H	0.910552	0.907881	0.382742
	H116	H	0.617379	0.092035	0.913499
	H117	H	0.383644	0.099099	0.098136
	H118	H	0.618516	0.895860	0.081498
	H119	H	0.385747	0.904349	0.910999
	C120	C	0.377890	0.009932	0.623434
	C121	C	0.622965	0.992452	0.621401
	C122	C	0.622778	0.009752	0.378955
	C123	C	0.379226	0.993183	0.379515
	C124	C	0.626056	0.378477	0.007440
	C125	C	0.624709	0.621802	0.990528
	C126	C	0.381781	0.621810	0.006801
	C127	C	0.383150	0.379050	0.990647
	C128	C	0.010201	0.623832	0.377090
	C129	C	0.994349	0.625084	0.621189
	C130	C	0.010081	0.381945	0.618117
	C131	C	0.993114	0.379810	0.375498
	C132	C	0.881654	0.509619	0.119024
	C133	C	0.124731	0.493082	0.119120
	C134	C	0.126857	0.509958	0.875337
	C135	C	0.882154	0.493048	0.876480
	C136	C	0.122301	0.880203	0.508058
	C137	C	0.121485	0.122593	0.490845
	C138	C	0.878217	0.124906	0.507502
	C139	C	0.880587	0.881689	0.490814
	C140	C	0.510609	0.121032	0.879827
	C141	C	0.493907	0.123414	0.123137
	C142	C	0.510231	0.879192	0.121735
	C143	C	0.493633	0.878293	0.878019
	C144	C	0.381663	0.886400	0.675977
	C145	C	0.618158	0.115459	0.677437
	C146	C	0.621445	0.887073	0.322646
	C147	C	0.381364	0.116137	0.324593
	C148	C	0.681261	0.379253	0.883828
	C149	C	0.679440	0.619597	0.113831
	C150	C	0.327414	0.619213	0.883125
	C151	C	0.325904	0.382608	0.113428
	C152	C	0.887108	0.679147	0.379570
	C153	C	0.117274	0.679806	0.617419
	C154	C	0.886534	0.328432	0.616732
	C155	C	0.115515	0.322703	0.376525
	C156	C	0.887330	0.386237	0.674598
	C157	C	0.118114	0.621439	0.674469
	C158	C	0.887616	0.622131	0.321104
	C159	C	0.116894	0.382576	0.320972
	C160	C	0.383741	0.677475	0.883792
	C161	C	0.622716	0.678170	0.113879
	C162	C	0.624644	0.320660	0.884936
	C163	C	0.384958	0.326780	0.114978
	C164	C	0.679454	0.887544	0.379646
	C165	C	0.676941	0.115431	0.621080
	C166	C	0.322382	0.887607	0.620204
	C167	C	0.323742	0.116171	0.382091
	C168	C	0.884049	0.386763	0.174377
	C169	C	0.122071	0.615938	0.175704
	C170	C	0.123897	0.387073	0.818950
	C171	C	0.885827	0.617145	0.824671
	C172	C	0.178853	0.881503	0.385090
	C173	C	0.174948	0.121877	0.614473
	C174	C	0.822869	0.121015	0.384522
	C175	C	0.826032	0.885385	0.614979
	C176	C	0.387866	0.177803	0.882875
	C177	C	0.616918	0.177919	0.121881
	C178	C	0.387641	0.823229	0.120520
	C179	C	0.617077	0.823502	0.879747
	C180	C	0.386826	0.882601	0.177292
	C181	C	0.616566	0.119542	0.178468
	C182	C	0.387003	0.119045	0.826344
	C183	C	0.616271	0.879617	0.820991
	C184	C	0.880246	0.178739	0.383912
	C185	C	0.118147	0.179644	0.613789
	C186	C	0.121047	0.824535	0.384360
	C187	C	0.882102	0.826686	0.614270
	C188	C	0.181525	0.386666	0.876608
	C189	C	0.180262	0.615538	0.118021
	C190	C	0.826614	0.386792	0.116903
	C191	C	0.825322	0.615488	0.879188
	C192	C	0.399750	0.095689	0.601860
	C193	C	0.601907	0.906584	0.597912
	C194	C	0.599608	0.095389	0.402339
	C195	C	0.401904	0.907730	0.401430
	C196	C	0.603455	0.402027	0.093480
	C197	C	0.602215	0.599237	0.904214
	C198	C	0.403932	0.599654	0.092600
	C199	C	0.406430	0.400195	0.904468
	C200	C	0.096088	0.601459	0.399398
	C201	C	0.908159	0.603752	0.600102
	C202	C	0.096043	0.402758	0.594977
	C203	C	0.907601	0.403099	0.398299
	C204	C	0.903634	0.595095	0.096982
	C205	C	0.102704	0.407461	0.096192
	C206	C	0.104792	0.595834	0.898407
	C207	C	0.904542	0.407016	0.897481
	C208	C	0.099013	0.903248	0.593948
	C209	C	0.099971	0.099248	0.404637
	C210	C	0.900532	0.104136	0.594023
	C211	C	0.902482	0.903033	0.404491
	C212	C	0.596406	0.098222	0.901105
	C213	C	0.407809	0.102292	0.100895
	C214	C	0.595801	0.900844	0.099275
	C215	C	0.408043	0.900708	0.901217
	Zn216	Zn	0.501155	0.000095	0.750034
	Zn217	Zn	0.501157	0.001466	0.250859
	Zn218	Zn	0.753739	0.500556	-0.002258
	Zn219	Zn	0.254456	0.500301	-0.002494
	Zn220	Zn	0.001138	0.752745	0.499061
	Zn221	Zn	0.000774	0.251498	0.497822
	Zn222	Zn	0.003810	0.502351	0.748476
	Zn223	Zn	0.001991	0.501886	0.248012
	Zn224	Zn	0.502591	0.750239	-0.000782
	Zn225	Zn	0.503795	0.250610	0.000603
	Zn226	Zn	0.751318	0.002211	0.500283
	Zn227	Zn	0.250011	0.002267	0.500760
	N228	N	0.415254	0.963519	0.678417
	N229	N	0.585436	0.037760	0.677808
	N230	N	0.586743	0.963919	0.322341
	N231	N	0.415003	0.038655	0.322690
	N232	N	0.682244	0.414407	0.961065
	N233	N	0.680424	0.585010	0.036191
	N234	N	0.326240	0.585171	0.960581
	N235	N	0.324728	0.414503	0.035059
	N236	N	0.964377	0.680260	0.413681
	N237	N	0.039360	0.682225	0.585195
	N238	N	0.963795	0.325946	0.582039
	N239	N	0.037660	0.320781	0.409470
	N240	N	0.965171	0.418568	0.675600
	N241	N	0.040650	0.588128	0.676933
	N242	N	0.965111	0.588446	0.319557
	N243	N	0.039698	0.417254	0.320114
	N244	N	0.416897	0.679278	0.961625
	N245	N	0.589400	0.679615	0.036038
	N246	N	0.590871	0.320180	0.962818
	N247	N	0.419928	0.324714	0.037698
	N248	N	0.680388	0.965175	0.413992
	N249	N	0.679793	0.038043	0.586937
	N250	N	0.320043	0.965539	0.588260
	N251	N	0.322354	0.038875	0.415640
	N252	N	0.917614	0.464161	0.175757
	N253	N	0.088252	0.538875	0.176440
	N254	N	0.090779	0.464785	0.817954
	N255	N	0.920488	0.540175	0.823066
	N256	N	0.179898	0.915328	0.463033
	N257	N	0.176995	0.087148	0.536972
	N258	N	0.821336	0.088648	0.462544
	N259	N	0.824961	0.918859	0.537362
	N260	N	0.465899	0.179247	0.915279
	N261	N	0.539562	0.180377	0.088017
	N262	N	0.465362	0.820886	0.086943
	N263	N	0.539949	0.822610	0.914512
	N264	N	0.463858	0.916645	0.178231
	N265	N	0.539014	0.086701	0.179466
	N266	N	0.464124	0.084387	0.824331
	N267	N	0.538444	0.913087	0.819794
	N268	N	0.913816	0.181263	0.461525
	N269	N	0.085434	0.180204	0.535697
	N270	N	0.086397	0.823916	0.461813
	N271	N	0.915279	0.824381	0.536168
	N272	N	0.183343	0.463971	0.910995
	N273	N	0.182168	0.538114	0.083534
	N274	N	0.825131	0.463904	0.083175
	N275	N	0.822888	0.537187	0.910677
	O276	O	-0.018419	-0.085490	0.053427
	H277	H	-0.026979	-0.077733	0.060540
	H278	H	-0.018834	-0.092667	0.059045
	O279	O	0.474402	0.464744	0.521381
	H280	H	0.476873	0.466831	0.517639
	H281	H	0.471649	0.461496	0.517606
	O282	O	0.589507	0.429806	0.457812
	H283	H	0.599016	0.436096	0.462235
	H284	H	0.591534	0.431897	0.459868
	O285	O	1.000420	0.031858	0.954600
	H286	H	1.003332	0.031647	0.951358
	H287	H	1.008116	0.022479	0.956230
	O288	O	0.976668	-0.039903	-0.037148
	H289	H	0.964793	-0.049274	-0.037818
	H290	H	0.988081	-0.040737	-0.030862
	O291	O	0.449234	0.421344	0.508763
	H292	H	0.450862	0.420118	0.512474
	H293	H	0.458690	0.423445	0.505374
	O294	O	1.105757	-0.002792	0.990831
	H295	H	1.105204	-0.011176	0.986923
	H296	H	1.109697	0.000855	0.992765
	O297	O	0.004859	-0.062086	0.017804
	H298	H	0.005842	-0.059287	0.011728
	H299	H	0.020949	-0.059666	0.023525
	O300	O	0.519211	0.562039	0.482153
	H301	H	0.522581	0.567297	0.479658
	H302	H	0.513203	0.562992	0.478596
	O303	O	0.482644	0.527024	0.467210
	H304	H	0.486083	0.528709	0.472644
	H305	H	0.478771	0.530987	0.459613
	O306	O	0.972460	0.026547	-0.028813
	H307	H	0.971845	0.016294	-0.048425
	H308	H	0.962553	0.032963	-0.035524
	O309	O	-0.026333	-0.058614	0.972238
	H310	H	-0.027168	-0.061497	0.983752
	H311	H	-0.037059	-0.048945	0.977659
	O312	O	0.994800	1.039844	1.074165
	H313	H	1.002085	1.028723	1.069980
	H314	H	0.997596	1.057219	1.096911
	O315	O	0.563718	0.520312	0.536719
	H316	H	0.565045	0.523527	0.537339
	H317	H	0.560600	0.523469	0.542359
	O318	O	0.486561	0.487883	0.525514
	H319	H	0.481095	0.481524	0.526023
	H320	H	0.481930	0.484445	0.532298
	O321	O	-0.013070	1.031798	1.012813
	H322	H	-0.017157	1.024244	1.011791
	H323	H	-0.016866	1.032844	1.012244
	O324	O	0.477887	0.522809	0.438403
	H325	H	0.474420	0.524621	0.424814
	H326	H	0.458322	0.525749	0.439443
	O327	O	1.051096	1.003247	0.008543
	H328	H	1.044781	1.003420	0.015387
	H329	H	1.048136	1.010404	0.020514
	O330	O	0.489340	0.577372	0.458863
	H331	H	0.481818	0.579752	0.451658
	H332	H	0.491904	0.573949	0.466790
	O333	O	0.303057	0.659432	0.677678
	H334	H	0.299117	0.654779	0.685033
	H335	H	0.300309	0.656867	0.674731
	O336	O	0.456924	0.449323	0.488709
	H337	H	0.458256	0.445650	0.480799
	H338	H	0.454666	0.444785	0.491106
	O339	O	1.014056	1.007883	0.077084
	H340	H	1.007351	1.009267	0.082349
	H341	H	1.022531	1.020359	0.089410
	O342	O	0.440376	0.477790	0.417266
	H343	H	0.441669	0.479328	0.416307
	H344	H	0.449676	0.477590	0.416882
	O345	O	0.553302	0.505828	0.482795
	H346	H	0.557198	0.503437	0.490639
	H347	H	0.549588	0.496579	0.481837
	O348	O	0.105400	0.050583	0.012551
	H349	H	0.109127	0.033469	0.000663
	H350	H	0.118409	0.059749	0.007057
	O351	O	0.035402	0.958054	1.005941
	H352	H	0.032549	0.958675	0.997735
	H353	H	0.026303	0.964344	1.014240
	O354	O	0.474796	0.535470	0.513759
	H355	H	0.477122	0.540881	0.512617
	H356	H	0.474440	0.544082	0.520911
	O357	O	0.067226	1.059649	0.979930
	H358	H	0.069508	1.064738	0.976413
	H359	H	0.060278	1.053119	0.972871
