data_Molecule from HDF5

_cell_length_a		16.323113
_cell_length_b		16.301719
_cell_length_c		16.319611
_cell_angle_alpha	90.714563
_cell_angle_beta	89.999399
_cell_angle_gamma	89.836625
_symmetry_space_group_name_H-M	'P 1'
_symmetry_Int_Tables_number		1

loop_
	_symmetry_equiv_pos_as_xyz
	x,y,z

loop_
	_atom_site_label
	_atom_site_type_symbol
	_atom_site_fract_x
	_atom_site_fract_y
	_atom_site_fract_z
	H0	H	0.402747	0.834080	0.717055
	H1	H	0.605336	0.157398	0.720404
	H2	H	0.607346	0.834784	0.279759
	H3	H	0.402234	0.159203	0.286972
	H4	H	0.722781	0.390865	0.838904
	H5	H	0.720175	0.598895	0.161497
	H6	H	0.284934	0.598111	0.839026
	H7	H	0.285537	0.396129	0.161623
	H8	H	0.842622	0.712236	0.400390
	H9	H	0.164960	0.713699	0.606424
	H10	H	0.841021	0.280530	0.600584
	H11	H	0.165791	0.274684	0.396250
	H12	H	0.842980	0.392416	0.718941
	H13	H	0.164894	0.597826	0.720917
	H14	H	0.841154	0.594236	0.286781
	H15	H	0.165887	0.390850	0.281624
	H16	H	0.402761	0.711672	0.837630
	H17	H	0.606436	0.716632	0.160440
	H18	H	0.607002	0.275571	0.838746
	H19	H	0.400477	0.280522	0.162355
	H20	H	0.723922	0.834288	0.395514
	H21	H	0.720749	0.157796	0.604910
	H22	H	0.287812	0.833210	0.600638
	H23	H	0.286057	0.157930	0.402182
	H24	H	0.904077	0.332172	0.213534
	H25	H	0.104448	0.657122	0.221526
	H26	H	0.106093	0.333660	0.781241
	H27	H	0.902564	0.657999	0.786036
	H28	H	0.221350	0.890935	0.338814
	H29	H	0.220172	0.097295	0.663109
	H30	H	0.786337	0.095213	0.339822
	H31	H	0.787833	0.898567	0.664058
	H32	H	0.342869	0.213277	0.900081
	H33	H	0.666802	0.214653	0.102892
	H34	H	0.342775	0.781646	0.099575
	H35	H	0.666448	0.777583	0.895490
	H36	H	0.342842	0.897845	0.215421
	H37	H	0.666419	0.099095	0.219575
	H38	H	0.342604	0.097148	0.784267
	H39	H	0.666165	0.893114	0.781399
	H40	H	0.903580	0.208175	0.337625
	H41	H	0.103926	0.213775	0.662767
	H42	H	0.105810	0.774183	0.339729
	H43	H	0.903559	0.781875	0.664903
	H44	H	0.223715	0.334336	0.896180
	H45	H	0.220999	0.658559	0.106033
	H46	H	0.785533	0.333851	0.099699
	H47	H	0.786487	0.658162	0.901448
	H48	H	0.410566	0.111519	0.594709
	H49	H	0.604840	0.877800	0.588944
	H50	H	0.590895	0.109941	0.408721
	H51	H	0.414616	0.882538	0.411687
	H52	H	0.583627	0.408031	0.111105
	H53	H	0.589170	0.594815	0.882608
	H54	H	0.419621	0.595614	0.114644
	H55	H	0.413354	0.411489	0.888478
	H56	H	0.117326	0.584444	0.415397
	H57	H	0.889387	0.588195	0.590649
	H58	H	0.116267	0.407663	0.584583
	H59	H	0.889335	0.407385	0.404495
	H60	H	0.119189	0.408830	0.596417
	H61	H	0.888420	0.585682	0.594181
	H62	H	0.118188	0.580444	0.409940
	H63	H	0.886413	0.397820	0.403333
	H64	H	0.406376	0.593461	0.117921
	H65	H	0.606174	0.586287	0.880244
	H66	H	0.599279	0.396222	0.119419
	H67	H	0.421630	0.402462	0.887054
	H68	H	0.593435	0.108807	0.417434
	H69	H	0.591025	0.879427	0.598052
	H70	H	0.414968	0.110102	0.594116
	H71	H	0.408935	0.878842	0.406186
	H72	H	0.918248	0.610976	0.098916
	H73	H	0.098151	0.378141	0.095213
	H74	H	0.094072	0.607141	0.920099
	H75	H	0.918820	0.380778	0.903062
	H76	H	0.107707	0.906128	0.619251
	H77	H	0.093326	0.088182	0.384819
	H78	H	0.903327	0.088018	0.619037
	H79	H	0.913737	0.905412	0.388172
	H80	H	0.616797	0.080049	0.914532
	H81	H	0.392343	0.087107	0.088144
	H82	H	0.619805	0.900861	0.084429
	H83	H	0.387801	0.903307	0.904525
	H84	H	0.616910	0.913863	0.088089
	H85	H	0.389204	0.086464	0.098050
	H86	H	0.621887	0.084603	0.901517
	H87	H	0.389855	0.902441	0.910831
	H88	H	0.917867	0.082791	0.613036
	H89	H	0.099398	0.083993	0.384298
	H90	H	0.090652	0.915129	0.611320
	H91	H	0.916623	0.902199	0.387433
	H92	H	0.102037	0.614179	0.909031
	H93	H	0.089311	0.383883	0.087697
	H94	H	0.912062	0.607809	0.088059
	H95	H	0.916063	0.384292	0.916048
	H96	H	0.411939	0.110464	0.591248
	H97	H	0.591355	0.884358	0.582226
	H98	H	0.599723	0.112856	0.411507
	H99	H	0.416875	0.881196	0.403683
	H100	H	0.602670	0.416185	0.114600
	H101	H	0.591113	0.576332	0.888420
	H102	H	0.414059	0.583242	0.112862
	H103	H	0.409786	0.400733	0.883459
	H104	H	0.120492	0.586830	0.409714
	H105	H	0.887444	0.589631	0.594285
	H106	H	0.120573	0.397851	0.589739
	H107	H	0.890628	0.401257	0.412048
	H108	H	0.905813	0.613724	0.097027
	H109	H	0.101619	0.381591	0.083102
	H110	H	0.087079	0.609791	0.905944
	H111	H	0.906456	0.377845	0.907123
	H112	H	0.090072	0.894368	0.617721
	H113	H	0.093388	0.081316	0.387135
	H114	H	0.915779	0.098731	0.618196
	H115	H	0.912620	0.901495	0.385956
	H116	H	0.620929	0.093561	0.913306
	H117	H	0.387107	0.095398	0.093971
	H118	H	0.622577	0.906102	0.096507
	H119	H	0.389990	0.908318	0.908054
	C120	C	0.382659	0.003772	0.622327
	C121	C	0.625976	0.987114	0.622058
	C122	C	0.626194	0.004186	0.379491
	C123	C	0.382680	0.987870	0.378716
	C124	C	0.625883	0.374684	0.008592
	C125	C	0.625856	0.617662	0.990541
	C126	C	0.382627	0.619331	0.008258
	C127	C	0.383430	0.375373	0.992634
	C128	C	0.011934	0.614628	0.381214
	C129	C	0.995139	0.617852	0.623943
	C130	C	0.011906	0.374643	0.620586
	C131	C	0.995927	0.371222	0.376642
	C132	C	0.882256	0.503600	0.122460
	C133	C	0.125848	0.487790	0.121525
	C134	C	0.125763	0.504034	0.879418
	C135	C	0.882922	0.487596	0.879398
	C136	C	0.126176	0.872866	0.509410
	C137	C	0.124807	0.116011	0.492422
	C138	C	0.882148	0.117965	0.509533
	C139	C	0.883787	0.874737	0.494058
	C140	C	0.512563	0.116402	0.880150
	C141	C	0.496394	0.119933	0.123875
	C142	C	0.513015	0.876789	0.119815
	C143	C	0.496314	0.873876	0.877142
	C144	C	0.383334	0.882068	0.678287
	C145	C	0.624932	0.108987	0.680979
	C146	C	0.626995	0.883196	0.319227
	C147	C	0.382783	0.110134	0.324172
	C148	C	0.683626	0.372442	0.886984
	C149	C	0.682346	0.618429	0.112637
	C150	C	0.324400	0.617609	0.887038
	C151	C	0.324926	0.376671	0.113663
	C152	C	0.890687	0.672701	0.381519
	C153	C	0.116556	0.675035	0.625239
	C154	C	0.889948	0.318264	0.620045
	C155	C	0.117280	0.313707	0.377084
	C156	C	0.890890	0.374317	0.679110
	C157	C	0.116515	0.617430	0.682273
	C158	C	0.890140	0.613847	0.324772
	C159	C	0.117277	0.371173	0.319575
	C160	C	0.383068	0.674115	0.886420
	C161	C	0.625766	0.676906	0.112141
	C162	C	0.626049	0.314723	0.887130
	C163	C	0.382287	0.318982	0.113846
	C164	C	0.684585	0.883014	0.377029
	C165	C	0.682569	0.109192	0.623721
	C166	C	0.325842	0.881824	0.620688
	C167	C	0.324559	0.109423	0.381384
	C168	C	0.883757	0.380877	0.176298
	C169	C	0.124457	0.609059	0.181746
	C170	C	0.125794	0.382230	0.820644
	C171	C	0.882831	0.609505	0.823624
	C172	C	0.183071	0.871534	0.387662
	C173	C	0.181233	0.116508	0.614829
	C174	C	0.824668	0.115370	0.387905
	C175	C	0.826389	0.877754	0.615777
	C176	C	0.391229	0.174320	0.880832
	C177	C	0.618279	0.176323	0.122883
	C178	C	0.391182	0.820053	0.119179
	C179	C	0.617708	0.816090	0.876655
	C180	C	0.391298	0.877722	0.177003
	C181	C	0.618137	0.119072	0.180995
	C182	C	0.391122	0.116549	0.822890
	C183	C	0.617798	0.873833	0.819848
	C184	C	0.883046	0.171751	0.386907
	C185	C	0.123937	0.174972	0.614203
	C186	C	0.125515	0.813443	0.388065
	C187	C	0.883802	0.819568	0.616185
	C188	C	0.184376	0.382563	0.877807
	C189	C	0.182256	0.609839	0.124057
	C190	C	0.824966	0.381823	0.119707
	C191	C	0.825039	0.609436	0.881122
	C192	C	0.405683	0.088658	0.599885
	C193	C	0.602555	0.902535	0.596916
	C194	C	0.601538	0.088705	0.405151
	C195	C	0.406574	0.902754	0.400841
	C196	C	0.602211	0.399579	0.093109
	C197	C	0.602313	0.592995	0.905680
	C198	C	0.406269	0.597173	0.093179
	C199	C	0.407699	0.398340	0.908206
	C200	C	0.096827	0.590803	0.404845
	C201	C	0.910493	0.594640	0.599840
	C202	C	0.096762	0.397931	0.597097
	C203	C	0.910799	0.395140	0.399824
	C204	C	0.905247	0.588666	0.100985
	C205	C	0.103068	0.403036	0.095988
	C206	C	0.101599	0.588620	0.904343
	C207	C	0.906868	0.402974	0.901857
	C208	C	0.102780	0.897861	0.594183
	C209	C	0.102005	0.091600	0.407527
	C210	C	0.905485	0.096250	0.594568
	C211	C	0.907355	0.896572	0.409289
	C212	C	0.597865	0.092901	0.903259
	C213	C	0.411532	0.096422	0.100279
	C214	C	0.597739	0.900007	0.096490
	C215	C	0.411294	0.897810	0.900920
	Zn216	Zn	0.504525	-0.004374	0.750025
	Zn217	Zn	0.505007	-0.002779	0.250806
	Zn218	Zn	0.753841	0.495767	-0.000191
	Zn219	Zn	0.255141	0.497248	0.000624
	Zn220	Zn	0.003940	0.744425	0.502230
	Zn221	Zn	0.003781	0.245388	0.499685
	Zn222	Zn	0.003302	0.495464	0.750380
	Zn223	Zn	0.004063	0.494139	0.250550
	Zn224	Zn	0.505052	0.746786	-0.001289
	Zn225	Zn	0.504683	0.246568	0.000903
	Zn226	Zn	0.754606	-0.004015	0.501409
	Zn227	Zn	0.254356	-0.004806	0.501003
	N228	N	0.417883	0.958807	0.679488
	N229	N	0.590458	0.032278	0.680100
	N230	N	0.591467	0.959797	0.320567
	N231	N	0.418181	0.033440	0.322350
	N232	N	0.683676	0.408937	0.963305
	N233	N	0.682598	0.582221	0.035998
	N234	N	0.323833	0.584360	0.964052
	N235	N	0.325451	0.411006	0.037270
	N236	N	0.967572	0.673268	0.416043
	N237	N	0.040176	0.675462	0.589694
	N238	N	0.966225	0.318555	0.584151
	N239	N	0.040476	0.313526	0.411614
	N240	N	0.967652	0.408905	0.679395
	N241	N	0.039985	0.582480	0.681573
	N242	N	0.966670	0.578410	0.324571
	N243	N	0.040661	0.406198	0.319221
	N244	N	0.418490	0.675364	0.962871
	N245	N	0.591537	0.676566	0.035188
	N246	N	0.590686	0.316194	0.963703
	N247	N	0.418231	0.318246	0.037628
	N248	N	0.684076	0.959234	0.414046
	N249	N	0.683250	0.032564	0.587617
	N250	N	0.325467	0.958538	0.586497
	N251	N	0.324248	0.032253	0.414471
	N252	N	0.918532	0.457615	0.178233
	N253	N	0.089857	0.532202	0.180008
	N254	N	0.090031	0.458716	0.821464
	N255	N	0.918128	0.532776	0.822584
	N256	N	0.183822	0.907613	0.464220
	N257	N	0.182128	0.080951	0.537977
	N258	N	0.823910	0.082820	0.465238
	N259	N	0.826139	0.911077	0.538853
	N260	N	0.467886	0.174057	0.915710
	N261	N	0.541478	0.176999	0.088185
	N262	N	0.467948	0.819272	0.084461
	N263	N	0.540924	0.815943	0.911519
	N264	N	0.467816	0.912701	0.177188
	N265	N	0.541263	0.084898	0.181752
	N266	N	0.467722	0.081312	0.822460
	N267	N	0.541199	0.908964	0.819946
	N268	N	0.917835	0.173737	0.463488
	N269	N	0.089709	0.174782	0.537138
	N270	N	0.091095	0.814131	0.464995
	N271	N	0.918785	0.817507	0.539510
	N272	N	0.184422	0.459391	0.913570
	N273	N	0.183174	0.533539	0.087206
	N274	N	0.823901	0.459054	0.086969
	N275	N	0.825164	0.532791	0.915157
	O276	O	0.008335	0.032281	0.095857
	H277	H	0.004114	0.030927	0.086039
	H278	H	0.012534	0.027204	0.104595
	O279	O	-0.620468	0.577254	-0.568028
	H280	H	-0.612858	0.570940	-0.560409
	H281	H	-0.614836	0.557370	-0.581414
	O282	O	0.866781	-0.027664	0.049095
	H283	H	0.874881	-0.015874	0.051464
	H284	H	0.868573	-0.039364	0.053235
	O285	O	0.075462	0.970163	0.034724
	H286	H	0.060778	0.963945	0.027174
	H287	H	0.080834	0.955866	0.030504
	O288	O	0.470648	0.428734	0.539998
	H289	H	0.482635	0.430177	0.545211
	H290	H	0.468217	0.444219	0.533652
	O291	O	0.408150	0.551572	0.422237
	H292	H	0.413639	0.540169	0.427661
	H293	H	0.414987	0.547701	0.420642
	O294	O	1.021216	0.905021	0.902194
	H295	H	1.024799	0.902393	0.896572
	H296	H	1.006319	0.896950	0.903093
	O297	O	0.072093	-0.044003	0.135418
	H298	H	0.079581	-0.047668	0.122587
	H299	H	0.057007	-0.059026	0.136168
	O300	O	0.349388	0.360069	0.425779
	H301	H	0.349516	0.364131	0.422273
	H302	H	0.363503	0.354269	0.440268
	O303	O	-0.463093	0.327059	1.533602
	H304	H	-0.457937	0.326303	1.524203
	H305	H	-0.455874	0.333146	1.542363
	O306	O	0.518140	0.514435	0.451210
	H307	H	0.521140	0.515392	0.450235
	H308	H	0.532123	0.513671	0.457827
	O309	O	1.057126	0.095206	0.012788
	H310	H	1.061175	0.094446	0.017561
	H311	H	1.050339	0.096920	0.004259
	O312	O	-0.150810	0.064490	0.968128
	H313	H	-0.140305	0.061703	0.981382
	H314	H	-0.147428	0.072374	0.970063
	O315	O	0.479685	1.406382	0.325541
	H316	H	0.482348	1.397824	0.342585
	H317	H	0.470749	1.410040	0.307577
	O318	O	0.499220	0.610008	0.436187
	H319	H	0.513397	0.606634	0.426574
	H320	H	0.500001	0.610521	0.441145
	O321	O	0.682589	0.479437	0.395859
	H322	H	0.686343	0.474725	0.400763
	H323	H	0.691285	0.468341	0.384969
	O324	O	0.369692	0.571719	0.420728
	H325	H	0.360021	0.583554	0.418786
	H326	H	0.357103	0.558387	0.418956
	O327	O	-0.454668	1.409161	1.640687
	H328	H	-0.455892	1.403138	1.634526
	H329	H	-0.449337	1.415049	1.639308
	O330	O	0.371652	0.586566	0.425271
	H331	H	0.373028	0.602704	0.425456
	H332	H	0.361354	0.594692	0.400809
	O333	O	0.081886	0.906201	0.836989
	H334	H	0.065437	0.909753	0.839250
	H335	H	0.076166	0.900903	0.843106
	O336	O	0.520332	0.449874	0.648828
	H337	H	0.520117	0.456412	0.660298
	H338	H	0.508610	0.456216	0.645787
	O339	O	1.092159	1.029767	-0.127211
	H340	H	1.103301	1.029069	-0.118478
	H341	H	1.082768	1.018675	-0.126610
	O342	O	1.115850	-0.059227	-0.139792
	H343	H	1.127363	-0.056056	-0.143953
	H344	H	1.116710	-0.062051	-0.143453
	O345	O	0.622984	0.592653	0.505448
	H346	H	0.618786	0.599828	0.513266
	H347	H	0.617263	0.583676	0.500973
	O348	O	0.358119	0.532486	0.583560
	H349	H	0.362335	0.526626	0.567489
	H350	H	0.363429	0.527452	0.577672
	O351	O	0.988342	1.030126	-0.048295
	H352	H	0.987874	1.030131	-0.062031
	H353	H	0.983295	1.029552	-0.042012
	O354	O	0.862429	-0.096773	0.939010
	H355	H	0.864016	-0.087712	0.947344
	H356	H	0.846211	-0.105349	0.935235
	O357	O	0.539410	0.469965	0.523014
	H358	H	0.525333	0.462548	0.519897
	H359	H	0.533467	0.463270	0.520578
	O360	O	0.090072	-0.032713	0.131472
	H361	H	0.080992	-0.044629	0.120236
	H362	H	0.098773	-0.049911	0.129297
	O363	O	0.631935	0.357574	0.521530
	H364	H	0.625575	0.357383	0.530270
	H365	H	0.641940	0.353888	0.512164
	O366	O	1.021545	0.990886	1.089468
	H367	H	1.019814	0.992118	1.085707
	H368	H	1.030018	1.002570	1.090940
	O369	O	1.144400	-0.008261	0.026866
	H370	H	1.162261	0.002124	0.030789
	H371	H	1.145358	0.001136	0.043682
	O372	O	0.626079	0.585699	0.633550
	H373	H	0.627673	0.597899	0.639540
	H374	H	0.617920	0.583478	0.633729
	O375	O	0.478666	0.402814	0.583438
	H376	H	0.479635	0.406406	0.576469
	H377	H	0.473895	0.412406	0.576978
	O378	O	0.630211	0.331364	0.325786
	H379	H	0.630873	0.311339	0.320868
	H380	H	0.651870	0.347773	0.314789
	O381	O	0.463520	0.606134	0.351029
	H382	H	0.466902	0.616109	0.359935
	H383	H	0.465447	0.619500	0.360351
	O384	O	-0.043080	0.945479	0.032456
	H385	H	-0.053012	0.947320	0.028808
	H386	H	-0.055925	0.944555	0.028374
	O387	O	0.588734	0.619950	1.589689
	H388	H	0.573429	0.625523	1.608539
	H389	H	0.568912	0.617736	1.584843
	O390	O	0.005663	1.024839	0.083054
	H391	H	0.006126	1.009306	0.074315
	H392	H	0.006589	1.030349	0.085979
	O393	O	1.062951	0.967772	0.013169
	H394	H	1.060924	0.990596	0.008596
	H395	H	1.075115	0.969896	0.019417
	O396	O	0.579428	0.591085	0.459471
	H397	H	0.561127	0.581392	0.465133
	H398	H	0.579789	0.582989	0.474650
	O399	O	-0.006498	1.026396	1.010831
	H400	H	0.010206	1.028236	1.008131
	H401	H	0.011983	1.034325	1.011914
	O402	O	1.128402	1.131554	1.097152
	H403	H	1.123006	1.136653	1.105917
	H404	H	1.137231	1.124441	1.107029
	O405	O	0.463534	0.492686	0.689440
	H406	H	0.457463	0.479942	0.697239
	H407	H	0.461098	0.483272	0.684533
