data_Molecule from HDF5

_cell_length_a		16.380095
_cell_length_b		16.490436
_cell_length_c		16.627951
_cell_angle_alpha	90.016780
_cell_angle_beta	89.936045
_cell_angle_gamma	89.940164
_symmetry_space_group_name_H-M	'P 1'
_symmetry_Int_Tables_number		1

loop_
	_symmetry_equiv_pos_as_xyz
	x,y,z

loop_
	_atom_site_label
	_atom_site_type_symbol
	_atom_site_fract_x
	_atom_site_fract_y
	_atom_site_fract_z
	H0	H	0.402388	0.847062	0.744796
	H1	H	0.616276	0.160898	0.745176
	H2	H	0.617805	0.847676	0.298794
	H3	H	0.404561	0.161558	0.302636
	H4	H	0.728795	0.400143	0.862588
	H5	H	0.728684	0.606455	0.177465
	H6	H	0.284500	0.612791	0.865339
	H7	H	0.286028	0.399444	0.176268
	H8	H	0.850594	0.725456	0.416390
	H9	H	0.167656	0.722785	0.625004
	H10	H	0.850079	0.282753	0.627474
	H11	H	0.166684	0.283457	0.417550
	H12	H	0.851654	0.394891	0.745212
	H13	H	0.164700	0.612048	0.744903
	H14	H	0.850598	0.610255	0.300274
	H15	H	0.166090	0.397260	0.299411
	H16	H	0.398005	0.731777	0.867577
	H17	H	0.614110	0.724792	0.177528
	H18	H	0.613311	0.281925	0.863286
	H19	H	0.402636	0.281978	0.176208
	H20	H	0.729625	0.845694	0.419540
	H21	H	0.729763	0.162544	0.626923
	H22	H	0.288270	0.845908	0.626610
	H23	H	0.291572	0.163156	0.422839
	H24	H	0.901391	0.347394	0.244220
	H25	H	0.117532	0.659077	0.245116
	H26	H	0.118708	0.348042	0.796114
	H27	H	0.898142	0.658106	0.795244
	H28	H	0.232681	0.898605	0.367429
	H29	H	0.229837	0.109613	0.680423
	H30	H	0.785646	0.109971	0.366932
	H31	H	0.786526	0.898298	0.678539
	H32	H	0.350185	0.226181	0.914811
	H33	H	0.666661	0.223670	0.124553
	H34	H	0.351431	0.782708	0.128351
	H35	H	0.665803	0.782115	0.915832
	H36	H	0.352200	0.897717	0.244552
	H37	H	0.666443	0.109043	0.241828
	H38	H	0.351417	0.113472	0.797963
	H39	H	0.665491	0.896039	0.798599
	H40	H	0.902434	0.226319	0.366030
	H41	H	0.116061	0.229543	0.677891
	H42	H	0.118281	0.779554	0.367426
	H43	H	0.899399	0.777507	0.675775
	H44	H	0.232309	0.346821	0.914057
	H45	H	0.229717	0.660619	0.124984
	H46	H	0.788945	0.345437	0.124559
	H47	H	0.786546	0.660555	0.915701
	H48	H	0.415576	0.117229	0.609619
	H49	H	0.592367	0.893732	0.610541
	H50	H	0.604635	0.119445	0.431696
	H51	H	0.416848	0.890106	0.434650
	H52	H	0.600621	0.411060	0.133762
	H53	H	0.593704	0.594803	0.909722
	H54	H	0.416877	0.593678	0.133321
	H55	H	0.419352	0.415187	0.908735
	H56	H	0.122435	0.594356	0.433332
	H57	H	0.896856	0.586154	0.609438
	H58	H	0.119251	0.421093	0.609361
	H59	H	0.894426	0.418465	0.429570
	H60	H	0.122555	0.415775	0.610849
	H61	H	0.895416	0.592438	0.608981
	H62	H	0.121263	0.589144	0.432674
	H63	H	0.893765	0.413077	0.430777
	H64	H	0.420733	0.586876	0.129099
	H65	H	0.599251	0.593971	0.908103
	H66	H	0.598987	0.414641	0.131974
	H67	H	0.423399	0.416350	0.910113
	H68	H	0.591000	0.116310	0.425420
	H69	H	0.599512	0.892586	0.608438
	H70	H	0.421637	0.118347	0.617254
	H71	H	0.421833	0.889787	0.427902
	H72	H	0.917848	0.616204	0.108111
	H73	H	0.094124	0.390460	0.112683
	H74	H	0.097709	0.616178	0.931699
	H75	H	0.924874	0.391364	0.929244
	H76	H	0.099761	0.918203	0.634087
	H77	H	0.100152	0.095683	0.409997
	H78	H	0.922929	0.099438	0.635301
	H79	H	0.927518	0.919002	0.414960
	H80	H	0.618277	0.088130	0.938589
	H81	H	0.394474	0.089320	0.114038
	H82	H	0.621503	0.914369	0.106630
	H83	H	0.394389	0.917198	0.932660
	H84	H	0.622431	0.919524	0.112605
	H85	H	0.393042	0.096710	0.114085
	H86	H	0.621392	0.087123	0.926348
	H87	H	0.396261	0.916772	0.937148
	H88	H	0.915702	0.093515	0.635709
	H89	H	0.099759	0.092801	0.411790
	H90	H	0.091597	0.914552	0.631341
	H91	H	0.920838	0.906879	0.409477
	H92	H	0.093622	0.615949	0.930043
	H93	H	0.094050	0.392072	0.107917
	H94	H	0.917302	0.618166	0.113989
	H95	H	0.922329	0.392239	0.935285
	H96	H	0.425295	0.114462	0.608634
	H97	H	0.597390	0.890681	0.615564
	H98	H	0.593674	0.112611	0.439675
	H99	H	0.424810	0.892958	0.434839
	H100	H	0.596705	0.410747	0.132178
	H101	H	0.596051	0.589766	0.910081
	H102	H	0.425853	0.593829	0.130803
	H103	H	0.422339	0.412871	0.908651
	H104	H	0.123296	0.592485	0.428828
	H105	H	0.898077	0.589312	0.604265
	H106	H	0.119641	0.416210	0.604592
	H107	H	0.895659	0.416105	0.434725
	H108	H	0.922366	0.615469	0.111788
	H109	H	0.098551	0.390458	0.109869
	H110	H	0.094654	0.614459	0.934042
	H111	H	0.918027	0.390288	0.930621
	H112	H	0.097290	0.909643	0.635619
	H113	H	0.097438	0.094444	0.412136
	H114	H	0.923567	0.090316	0.632173
	H115	H	0.913106	0.919460	0.410218
	H116	H	0.623624	0.097698	0.933224
	H117	H	0.395066	0.092831	0.108084
	H118	H	0.625011	0.912177	0.112811
	H119	H	0.397553	0.920367	0.934342
	C120	C	0.387557	0.012600	0.644444
	C121	C	0.629675	0.996196	0.643741
	C122	C	0.630050	0.012204	0.400672
	C123	C	0.388595	0.995316	0.401665
	C124	C	0.630781	0.380867	0.028789
	C125	C	0.629301	0.624923	1.012565
	C126	C	0.386896	0.626126	0.029163
	C127	C	0.387862	0.382478	1.012028
	C128	C	0.017337	0.624702	0.399574
	C129	C	1.000416	0.623536	0.641257
	C130	C	0.016592	0.383465	0.642029
	C131	C	0.999773	0.383249	0.400323
	C132	C	0.886668	0.512530	0.143140
	C133	C	0.128990	0.495017	0.142018
	C134	C	0.130062	0.512266	0.898662
	C135	C	0.887851	0.494640	0.899266
	C136	C	0.130145	0.881933	0.530928
	C137	C	0.131047	0.126556	0.514970
	C138	C	0.887627	0.126297	0.531058
	C139	C	0.886916	0.881815	0.513991
	C140	C	0.516905	0.124589	0.900045
	C141	C	0.499379	0.125220	0.142838
	C142	C	0.518284	0.882978	0.143203
	C143	C	0.499649	0.883764	0.901000
	C144	C	0.384653	0.893953	0.704417
	C145	C	0.633456	0.114152	0.704459
	C146	C	0.634619	0.894323	0.339888
	C147	C	0.386162	0.114207	0.342564
	C148	C	0.689359	0.380714	0.909911
	C149	C	0.688777	0.625425	0.130411
	C150	C	0.325072	0.630384	0.912278
	C151	C	0.326534	0.380559	0.129431
	C152	C	0.898286	0.685301	0.397843
	C153	C	0.119586	0.683563	0.643784
	C154	C	0.897636	0.322789	0.645208
	C155	C	0.119158	0.323139	0.398568
	C156	C	0.898525	0.378568	0.704136
	C157	C	0.118326	0.628246	0.703258
	C158	C	0.898314	0.627802	0.339972
	C159	C	0.118946	0.380126	0.340354
	C160	C	0.381868	0.689474	0.913236
	C161	C	0.631981	0.684755	0.130298
	C162	C	0.632042	0.321697	0.910409
	C163	C	0.384407	0.322291	0.129494
	C164	C	0.690121	0.893278	0.400049
	C165	C	0.690319	0.114745	0.645846
	C166	C	0.327904	0.893493	0.645787
	C167	C	0.330078	0.115037	0.402341
	C168	C	0.883575	0.394379	0.203690
	C169	C	0.133923	0.612512	0.203680
	C170	C	0.135438	0.394925	0.836819
	C171	C	0.881988	0.612006	0.837365
	C172	C	0.191958	0.879922	0.413972
	C173	C	0.190478	0.128578	0.632908
	C174	C	0.826410	0.128306	0.413604
	C175	C	0.826377	0.879279	0.631316
	C176	C	0.398033	0.186273	0.896697
	C177	C	0.618864	0.184532	0.143860
	C178	C	0.399106	0.822566	0.146437
	C179	C	0.618463	0.822334	0.897808
	C180	C	0.399441	0.879847	0.204144
	C181	C	0.618913	0.127610	0.202007
	C182	C	0.398593	0.129945	0.838392
	C183	C	0.618262	0.879270	0.839705
	C184	C	0.884252	0.186473	0.413194
	C185	C	0.133653	0.187938	0.631801
	C186	C	0.135122	0.820780	0.413852
	C187	C	0.882496	0.819153	0.629937
	C188	C	0.192195	0.394362	0.895722
	C189	C	0.189947	0.613276	0.144099
	C190	C	0.827718	0.393406	0.143936
	C191	C	0.826289	0.613020	0.897101
	C192	C	0.413375	0.095179	0.619191
	C193	C	0.603725	0.913737	0.618645
	C194	C	0.604052	0.094648	0.425240
	C195	C	0.413783	0.912526	0.425567
	C196	C	0.605998	0.405132	0.111209
	C197	C	0.603757	0.600086	0.930455
	C198	C	0.413475	0.599189	0.109948
	C199	C	0.414047	0.407577	0.930440
	C200	C	0.100645	0.599236	0.424355
	C201	C	0.918156	0.596972	0.615119
	C202	C	0.098982	0.410033	0.615848
	C203	C	0.916358	0.408430	0.424847
	C204	C	0.911974	0.595296	0.118535
	C205	C	0.102932	0.412497	0.117094
	C206	C	0.102926	0.594236	0.924359
	C207	C	0.914151	0.412803	0.924452
	C208	C	0.103700	0.906992	0.612503
	C209	C	0.106289	0.101550	0.432770
	C210	C	0.913301	0.101576	0.612945
	C211	C	0.913035	0.907712	0.432618
	C212	C	0.599438	0.098494	0.925437
	C213	C	0.415826	0.100193	0.118725
	C214	C	0.601349	0.908140	0.117933
	C215	C	0.417518	0.910513	0.926999
	Zn216	Zn	0.508615	0.004099	0.772401
	Zn217	Zn	0.509294	0.004257	0.271239
	Zn218	Zn	0.759026	0.503176	0.020412
	Zn219	Zn	0.258209	0.504100	0.020288
	Zn220	Zn	0.009152	0.752701	0.521788
	Zn221	Zn	0.008534	0.255208	0.522410
	Zn222	Zn	0.008175	0.503610	0.770283
	Zn223	Zn	0.008797	0.503256	0.271234
	Zn224	Zn	0.508171	0.755553	0.021594
	Zn225	Zn	0.508644	0.251897	0.020466
	Zn226	Zn	0.758636	0.004193	0.522700
	Zn227	Zn	0.259223	0.003651	0.523503
	N228	N	0.420503	0.969282	0.704094
	N229	N	0.596631	0.039407	0.703260
	N230	N	0.598063	0.969237	0.340189
	N231	N	0.421658	0.038759	0.341869
	N232	N	0.688909	0.416378	0.984604
	N233	N	0.687459	0.589111	0.056101
	N234	N	0.328314	0.591427	0.985174
	N235	N	0.328575	0.417214	0.055483
	N236	N	0.973568	0.683720	0.434013
	N237	N	0.045188	0.680794	0.605953
	N238	N	0.972126	0.325873	0.607246
	N239	N	0.043977	0.324894	0.435135
	N240	N	0.973433	0.415845	0.702068
	N241	N	0.043081	0.591642	0.701798
	N242	N	0.973746	0.591259	0.340617
	N243	N	0.043650	0.416644	0.341266
	N244	N	0.419578	0.687056	0.986894
	N245	N	0.595591	0.684484	0.055832
	N246	N	0.596677	0.321475	0.985436
	N247	N	0.421603	0.323140	0.055374
	N248	N	0.687634	0.967654	0.437188
	N249	N	0.688197	0.040242	0.608819
	N250	N	0.329521	0.968357	0.609572
	N251	N	0.331131	0.040069	0.438283
	N252	N	0.919501	0.469637	0.203293
	N253	N	0.096884	0.537868	0.202574
	N254	N	0.097625	0.469412	0.838363
	N255	N	0.919279	0.537455	0.838190
	N256	N	0.188789	0.917422	0.487630
	N257	N	0.188720	0.090879	0.559263
	N258	N	0.828324	0.091662	0.487781
	N259	N	0.828941	0.917292	0.558216
	N260	N	0.472501	0.183114	0.934398
	N261	N	0.543472	0.183145	0.107935
	N262	N	0.474084	0.824282	0.109348
	N263	N	0.543642	0.824701	0.935059
	N264	N	0.474647	0.916420	0.202407
	N265	N	0.543391	0.091378	0.201574
	N266	N	0.473427	0.092210	0.840224
	N267	N	0.543436	0.916859	0.841668
	N268	N	0.921809	0.185150	0.487087
	N269	N	0.097528	0.186925	0.557248
	N270	N	0.097071	0.822160	0.487484
	N271	N	0.919631	0.820645	0.555856
	N272	N	0.188978	0.468475	0.933271
	N273	N	0.186899	0.539096	0.106380
	N274	N	0.829362	0.467888	0.107037
	N275	N	0.829674	0.538925	0.934659
	O276	O	0.580653	0.462147	0.385226
	H277	H	0.589624	0.452500	0.380344
	H278	H	0.574693	0.457573	0.378939
	O279	O	0.467693	0.640603	0.417372
	H280	H	0.475618	0.651936	0.433182
	H281	H	0.480374	0.654521	0.413834
	O282	O	0.557042	0.705164	0.720454
	H283	H	0.527280	0.682993	0.721249
	H284	H	0.551291	0.721735	0.735533
	O285	O	0.224759	1.222628	0.051424
	H286	H	0.227222	1.229408	0.071456
	H287	H	0.246915	1.235065	0.060879
	O288	O	-0.171764	-0.131022	0.209684
	H289	H	-0.171422	-0.142969	0.188550
	H290	H	-0.166404	-0.126517	0.207812
	O291	O	0.810874	1.023983	0.223661
	H292	H	0.793463	1.019290	0.219073
	H293	H	0.811073	1.022992	0.228825
	O294	O	0.023820	0.790435	-0.194217
	H295	H	0.020849	0.779920	-0.181686
	H296	H	0.041163	0.781512	-0.208722
	O297	O	1.194144	0.810909	-0.165042
	H298	H	1.177263	0.831775	-0.170343
	H299	H	1.204604	0.816006	-0.155479
	O300	O	0.521888	0.344237	0.411341
	H301	H	0.518672	0.342498	0.403458
	H302	H	0.512182	0.342711	0.404582
	O303	O	0.336304	0.330672	0.691922
	H304	H	0.370060	0.319653	0.688802
	H305	H	0.334465	0.315672	0.654839
	O306	O	0.104450	0.799309	1.110896
	H307	H	0.118481	0.785667	1.116453
	H308	H	0.107336	0.809672	1.098696
	O309	O	0.611607	0.485196	0.626760
	H310	H	0.624805	0.473368	0.614496
	H311	H	0.622404	0.491032	0.620803
	O312	O	0.716285	0.292867	0.453122
	H313	H	0.731899	0.278473	0.457861
	H314	H	0.703160	0.290391	0.448622
	O315	O	-0.150576	0.014751	1.039756
	H316	H	-0.134532	0.022289	1.031019
	H317	H	-0.162712	0.007314	1.030915
	O318	O	-0.696108	1.576575	0.311471
	H319	H	-0.701292	1.586798	0.294531
	H320	H	-0.681074	1.600740	0.323206
	O321	O	-0.210927	1.229328	-0.011868
	H322	H	-0.209180	1.227717	-0.047706
	H323	H	-0.238144	1.255059	-0.026518
	O324	O	1.070878	0.224203	0.967395
	H325	H	1.076032	0.221162	0.985305
	H326	H	1.063417	0.231101	0.996781
	O327	O	0.990287	0.141539	1.065098
	H328	H	0.969637	0.152283	1.054246
	H329	H	0.989679	0.139796	1.082375
	O330	O	1.226659	-0.028708	-0.191289
	H331	H	1.240086	-0.013851	-0.197834
	H332	H	1.244304	-0.025849	-0.193829
	O333	O	0.564177	0.703295	0.433278
	H334	H	0.576359	0.709881	0.429525
	H335	H	0.563649	0.707427	0.445909
	O336	O	1.570421	-0.695274	0.570277
	H337	H	1.569108	-0.675079	0.574188
	H338	H	1.569781	-0.698317	0.556890
	O339	O	0.516846	-0.366105	-0.526360
	H340	H	0.518643	-0.383304	-0.515360
	H341	H	0.537940	-0.359195	-0.515019
	O342	O	0.650982	0.651962	0.283549
	H343	H	0.669166	0.650721	0.299937
	H344	H	0.660782	0.666540	0.264103
	O345	O	-0.491793	0.329919	-0.639631
	H346	H	-0.487787	0.350954	-0.651691
	H347	H	-0.480199	0.324507	-0.645832
	O348	O	1.066181	-0.109638	1.195851
	H349	H	1.077319	-0.118226	1.195763
	H350	H	1.064113	-0.102606	1.190866
	O351	O	1.121705	1.119137	-0.163695
	H352	H	1.118473	1.132438	-0.146877
	H353	H	1.120633	1.116086	-0.164684
	O354	O	0.498072	0.307351	0.726179
	H355	H	0.503914	0.307088	0.730445
	H356	H	0.506068	0.316693	0.733275
	O357	O	1.040359	0.878111	1.132485
	H358	H	1.043803	0.867536	1.146120
	H359	H	1.059777	0.877343	1.128510
	O360	O	0.687242	0.479966	0.683249
	H361	H	0.681787	0.505027	0.682236
	H362	H	0.701306	0.498723	0.696141
	O363	O	0.650044	0.460615	0.646584
	H364	H	0.671745	0.463247	0.658621
	H365	H	0.654091	0.462158	0.638243
	O366	O	0.957467	0.017264	1.180767
	H367	H	0.953760	0.003089	1.184215
	H368	H	0.965939	0.003556	1.177688
	O369	O	-0.704844	0.481604	-0.570551
	H370	H	-0.717791	0.493565	-0.599861
	H371	H	-0.705339	0.506118	-0.551894
	O372	O	0.183261	0.817313	-0.014311
	H373	H	0.196028	0.805435	-0.032012
	H374	H	0.193432	0.846399	-0.010331
	O375	O	-0.019849	0.785812	1.238408
	H376	H	-0.017886	0.777285	1.251357
	H377	H	-0.018883	0.777334	1.243391
	O378	O	0.512187	0.541798	0.554028
	H379	H	0.508405	0.544173	0.562529
	H380	H	0.505972	0.528948	0.555539
	O381	O	0.952261	-0.062962	-0.180154
	H382	H	0.955355	-0.063516	-0.172331
	H383	H	0.975853	-0.061662	-0.186828
	O384	O	0.020138	-0.010900	2.025088
	H385	H	0.001747	-0.002323	2.023974
	H386	H	0.016879	-0.014394	2.028671
	O387	O	0.220944	1.036127	1.230617
	H388	H	0.223708	1.033867	1.237290
	H389	H	0.230919	1.051375	1.236085
	O390	O	0.802179	1.025331	0.809879
	H391	H	0.812192	1.012541	0.793704
	H392	H	0.795385	1.027539	0.803280
	O393	O	1.297705	0.480806	0.740416
	H394	H	1.264690	0.467719	0.771958
	H395	H	1.310571	0.437774	0.729552
	O396	O	0.562966	0.512503	0.422479
	H397	H	0.567573	0.519159	0.419213
	H398	H	0.580410	0.503967	0.429916
	O399	O	0.442989	0.608037	0.741384
	H400	H	0.432764	0.584977	0.742192
	H401	H	0.443958	0.586215	0.741903
	O402	O	-0.177656	0.193703	0.830695
	H403	H	-0.144514	0.202440	0.819491
	H404	H	-0.179468	0.160345	0.820292
	O405	O	-0.011278	0.207247	-0.187034
	H406	H	-0.003991	0.223330	-0.203984
	H407	H	0.008372	0.211190	-0.155610
	O408	O	0.209740	0.199984	0.218164
	H409	H	0.182540	0.196150	0.216975
	H410	H	0.233125	0.211941	0.238897
	O411	O	0.210002	0.899029	0.100675
	H412	H	0.206697	0.908423	0.098204
	H413	H	0.208325	0.896227	0.112398
	O414	O	0.375110	0.692531	0.357048
	H415	H	0.398281	0.696474	0.351062
	H416	H	0.378100	0.702878	0.388970
	O417	O	0.999986	-0.053597	0.895059
	H418	H	1.028324	-0.063497	0.892107
	H419	H	0.997243	-0.047944	0.919640
	O420	O	0.328984	0.358577	0.361307
	H421	H	0.344500	0.369351	0.379934
	H422	H	0.344890	0.382377	0.367556
	O423	O	0.007774	1.121607	0.043696
	H424	H	0.008291	1.138388	0.058918
	H425	H	-0.012209	1.121638	0.044098
	O426	O	1.228511	1.073030	0.945886
	H427	H	1.227603	1.061249	0.955763
	H428	H	1.214440	1.089870	0.959259
	O429	O	0.716774	0.684571	0.584062
	H430	H	0.744379	0.712430	0.600328
	H431	H	0.713788	0.665434	0.567909
	O432	O	0.316708	0.693982	0.543726
	H433	H	0.307512	0.702784	0.551227
	H434	H	0.321078	0.685937	0.556131
	O435	O	-0.244363	0.313502	0.278168
	H436	H	-0.243264	0.300570	0.269132
	H437	H	-0.240916	0.289123	0.264753
	O438	O	1.329838	0.543534	0.564754
	H439	H	1.321206	0.526381	0.576864
	H440	H	1.326452	0.547554	0.569081
	O441	O	-0.197400	-0.035944	0.008940
	H442	H	-0.196689	-0.047695	0.002753
	H443	H	-0.203823	-0.021668	-0.007615
	O444	O	0.798687	-0.206698	0.050016
	H445	H	0.814541	-0.203182	0.023780
	H446	H	0.778823	-0.229534	0.042765
	O447	O	0.562343	0.541680	0.304853
	H448	H	0.580290	0.534818	0.303973
	H449	H	0.564705	0.563594	0.289366
	O450	O	0.661924	0.605530	0.494252
	H451	H	0.660009	0.590258	0.485085
	H452	H	0.660990	0.599439	0.502846
	O453	O	0.707949	0.638182	0.721399
	H454	H	0.671738	0.658621	0.721004
	H455	H	0.727370	0.651386	0.712085
	O456	O	0.360232	0.306232	0.510787
	H457	H	0.372911	0.316372	0.489854
	H458	H	0.345082	0.305484	0.505809
	O459	O	0.041502	0.146160	0.191472
	H460	H	0.050080	0.151946	0.186356
	H461	H	0.038235	0.147912	0.212181
	O462	O	0.928727	-0.132464	-0.119773
	H463	H	0.951861	-0.130662	-0.114152
	H464	H	0.935946	-0.124860	-0.116963
	O465	O	0.912739	0.165797	0.218071
	H466	H	0.918516	0.141736	0.224314
	H467	H	0.920026	0.168613	0.208460
