data_Molecule from HDF5

_cell_length_a		16.446842
_cell_length_b		16.633490
_cell_length_c		16.699321
_cell_angle_alpha	90.052755
_cell_angle_beta	89.888871
_cell_angle_gamma	90.131112
_symmetry_space_group_name_H-M	'P 1'
_symmetry_Int_Tables_number		1

loop_
	_symmetry_equiv_pos_as_xyz
	x,y,z

loop_
	_atom_site_label
	_atom_site_type_symbol
	_atom_site_fract_x
	_atom_site_fract_y
	_atom_site_fract_z
	H0	H	0.417422	0.839196	0.720063
	H1	H	0.634437	0.148161	0.717685
	H2	H	0.631677	0.837417	0.275392
	H3	H	0.421061	0.148213	0.272850
	H4	H	0.748043	0.389843	0.838947
	H5	H	0.747232	0.596599	0.150969
	H6	H	0.307416	0.595238	0.838892
	H7	H	0.307304	0.389974	0.150753
	H8	H	0.872442	0.715052	0.389616
	H9	H	0.185361	0.714699	0.601041
	H10	H	0.869121	0.272943	0.599683
	H11	H	0.185262	0.274405	0.393018
	H12	H	0.869106	0.388933	0.715185
	H13	H	0.185312	0.599075	0.716439
	H14	H	0.873332	0.600942	0.272829
	H15	H	0.183603	0.388065	0.274350
	H16	H	0.421191	0.714871	0.839778
	H17	H	0.632251	0.714731	0.150011
	H18	H	0.634591	0.270135	0.840393
	H19	H	0.420612	0.270330	0.148987
	H20	H	0.743697	0.835460	0.396106
	H21	H	0.745464	0.150529	0.596619
	H22	H	0.305394	0.837456	0.599835
	H23	H	0.308432	0.150053	0.393362
	H24	H	0.920682	0.337956	0.218036
	H25	H	0.136132	0.646066	0.220021
	H26	H	0.133043	0.337554	0.773819
	H27	H	0.917765	0.646384	0.770423
	H28	H	0.252471	0.886068	0.341413
	H29	H	0.249920	0.097434	0.651166
	H30	H	0.809589	0.094577	0.339620
	H31	H	0.806473	0.889301	0.651982
	H32	H	0.370666	0.213143	0.891122
	H33	H	0.684016	0.216322	0.101484
	H34	H	0.369331	0.774875	0.097972
	H35	H	0.684087	0.772850	0.889119
	H36	H	0.369761	0.889211	0.215263
	H37	H	0.684549	0.099592	0.215833
	H38	H	0.372125	0.099926	0.772566
	H39	H	0.683805	0.888183	0.772996
	H40	H	0.924647	0.213408	0.341075
	H41	H	0.134008	0.215028	0.651439
	H42	H	0.140611	0.765039	0.344685
	H43	H	0.919756	0.769940	0.650144
	H44	H	0.246196	0.336372	0.893706
	H45	H	0.247307	0.648697	0.099239
	H46	H	0.805457	0.337041	0.100592
	H47	H	0.805173	0.648171	0.890405
	H48	H	0.438526	0.104208	0.582242
	H49	H	0.609191	0.882861	0.586945
	H50	H	0.621889	0.105816	0.406783
	H51	H	0.442900	0.880920	0.397675
	H52	H	0.611720	0.402742	0.104673
	H53	H	0.612692	0.584131	0.884094
	H54	H	0.433093	0.580942	0.107198
	H55	H	0.438544	0.401684	0.882856
	H56	H	0.138551	0.579832	0.413299
	H57	H	0.917109	0.581365	0.580540
	H58	H	0.140821	0.409575	0.593136
	H59	H	0.916124	0.408583	0.408900
	H60	H	0.144399	0.395278	0.587674
	H61	H	0.915895	0.577806	0.584869
	H62	H	0.138292	0.574944	0.407782
	H63	H	0.912534	0.402693	0.404019
	H64	H	0.442255	0.582718	0.104160
	H65	H	0.617569	0.584799	0.881949
	H66	H	0.617110	0.402137	0.107177
	H67	H	0.438134	0.402554	0.883430
	H68	H	0.619743	0.108529	0.399309
	H69	H	0.618051	0.881749	0.580900
	H70	H	0.440951	0.104921	0.587976
	H71	H	0.446739	0.886647	0.412444
	H72	H	0.933806	0.604909	0.084154
	H73	H	0.116442	0.383202	0.076179
	H74	H	0.112799	0.605234	0.901162
	H75	H	0.938257	0.383727	0.911906
	H76	H	0.113914	0.901921	0.606251
	H77	H	0.116060	0.078580	0.387254
	H78	H	0.937038	0.085247	0.608573
	H79	H	0.933297	0.906246	0.384576
	H80	H	0.639682	0.076474	0.903983
	H81	H	0.415654	0.085391	0.076439
	H82	H	0.642483	0.902770	0.090520
	H83	H	0.416642	0.910966	0.906791
	H84	H	0.642598	0.899221	0.082225
	H85	H	0.417324	0.073794	0.085580
	H86	H	0.641694	0.084736	0.905700
	H87	H	0.412313	0.901829	0.901386
	H88	H	0.937040	0.083371	0.608714
	H89	H	0.112339	0.088934	0.384704
	H90	H	0.116352	0.909022	0.605270
	H91	H	0.943713	0.905523	0.387235
	H92	H	0.114411	0.602482	0.909244
	H93	H	0.123369	0.376382	0.090402
	H94	H	0.942932	0.604614	0.091416
	H95	H	0.933980	0.378592	0.902709
	H96	H	0.444779	0.102804	0.583460
	H97	H	0.618499	0.879112	0.590691
	H98	H	0.614168	0.104746	0.404201
	H99	H	0.431335	0.880542	0.409453
	H100	H	0.615619	0.407571	0.104851
	H101	H	0.616505	0.579989	0.885172
	H102	H	0.436922	0.589632	0.107357
	H103	H	0.438758	0.402038	0.884524
	H104	H	0.141138	0.581598	0.406200
	H105	H	0.914481	0.583084	0.585217
	H106	H	0.138090	0.405655	0.578132
	H107	H	0.915346	0.400685	0.411463
	H108	H	0.943525	0.599970	0.080617
	H109	H	0.106588	0.381534	0.090612
	H110	H	0.120729	0.606021	0.904399
	H111	H	0.944183	0.382469	0.902738
	H112	H	0.109416	0.906685	0.602715
	H113	H	0.122965	0.086082	0.382294
	H114	H	0.938000	0.084433	0.607719
	H115	H	0.938401	0.896915	0.382828
	H116	H	0.637793	0.079838	0.912363
	H117	H	0.411173	0.085791	0.090884
	H118	H	0.638650	0.907085	0.083688
	H119	H	0.415327	0.901520	0.912489
	C120	C	0.406832	0.001464	0.617043
	C121	C	0.648016	0.984662	0.617223
	C122	C	0.649452	0.002365	0.373487
	C123	C	0.407451	0.985595	0.374779
	C124	C	0.648530	0.371594	0.003062
	C125	C	0.648318	0.614824	0.986611
	C126	C	0.405259	0.615219	0.003436
	C127	C	0.405998	0.371040	0.986455
	C128	C	0.036754	0.613328	0.375288
	C129	C	1.019512	0.613834	0.616565
	C130	C	0.036136	0.371707	0.617474
	C131	C	1.018646	0.372006	0.375633
	C132	C	0.906702	0.500919	0.117569
	C133	C	0.148361	0.483409	0.117330
	C134	C	0.148233	0.501335	0.873819
	C135	C	0.905878	0.484088	0.873631
	C136	C	0.148501	0.872219	0.503712
	C137	C	0.149513	0.115616	0.487801
	C138	C	0.906403	0.114632	0.505029
	C139	C	0.905809	0.870797	0.487561
	C140	C	0.536258	0.113495	0.874944
	C141	C	0.518983	0.114181	0.115992
	C142	C	0.536450	0.871990	0.116435
	C143	C	0.518679	0.872496	0.874159
	C144	C	0.401209	0.885493	0.678816
	C145	C	0.651703	0.101844	0.677206
	C146	C	0.649805	0.884070	0.315559
	C147	C	0.403939	0.102057	0.314068
	C148	C	0.708683	0.370497	0.885940
	C149	C	0.707652	0.616109	0.103935
	C150	C	0.346329	0.615372	0.885920
	C151	C	0.346518	0.370465	0.103688
	C152	C	0.919443	0.674868	0.371588
	C153	C	0.137960	0.674489	0.619073
	C154	C	0.916837	0.312541	0.618611
	C155	C	0.137599	0.313319	0.373646
	C156	C	0.916748	0.370439	0.675804
	C157	C	0.137869	0.616977	0.676604
	C158	C	0.919806	0.617940	0.313647
	C159	C	0.136899	0.369580	0.314893
	C160	C	0.403076	0.674621	0.886496
	C161	C	0.650492	0.674707	0.103398
	C162	C	0.652080	0.311216	0.886587
	C163	C	0.403157	0.311227	0.103072
	C164	C	0.706060	0.883191	0.374854
	C165	C	0.707030	0.102960	0.617014
	C166	C	0.345381	0.884524	0.619069
	C167	C	0.347944	0.103170	0.373908
	C168	C	0.903031	0.384336	0.177803
	C169	C	0.152833	0.599950	0.178412
	C170	C	0.150973	0.384218	0.814007
	C171	C	0.901378	0.600513	0.812383
	C172	C	0.211654	0.868184	0.387993
	C173	C	0.209805	0.116731	0.604587
	C174	C	0.848583	0.114396	0.386741
	C175	C	0.845945	0.869717	0.604748
	C176	C	0.417960	0.173708	0.872439
	C177	C	0.636861	0.175471	0.119122
	C178	C	0.416843	0.814000	0.117027
	C179	C	0.637000	0.812977	0.871427
	C180	C	0.417410	0.870920	0.175327
	C181	C	0.637158	0.117499	0.176155
	C182	C	0.418479	0.117278	0.813843
	C183	C	0.636746	0.870019	0.813479
	C184	C	0.905936	0.172920	0.387296
	C185	C	0.152159	0.175045	0.604689
	C186	C	0.155939	0.808068	0.389504
	C187	C	0.902596	0.810624	0.603832
	C188	C	0.206984	0.383402	0.873653
	C189	C	0.208497	0.601191	0.118680
	C190	C	0.845903	0.383934	0.119144
	C191	C	0.845248	0.601382	0.871730
	C192	C	0.433497	0.082784	0.591707
	C193	C	0.622568	0.902583	0.592959
	C194	C	0.625572	0.084879	0.396793
	C195	C	0.432986	0.904016	0.399609
	C196	C	0.622356	0.396837	0.084207
	C197	C	0.623023	0.589764	0.905044
	C198	C	0.430365	0.591230	0.085015
	C199	C	0.431334	0.395275	0.904586
	C200	C	0.118141	0.586554	0.401525
	C201	C	0.937293	0.588155	0.591005
	C202	C	0.119241	0.396202	0.593145
	C203	C	0.936203	0.396938	0.400856
	C204	C	0.932791	0.581962	0.092570
	C205	C	0.122686	0.401740	0.092722
	C206	C	0.123131	0.583405	0.898210
	C207	C	0.931568	0.402757	0.898715
	C208	C	0.121034	0.898623	0.583881
	C209	C	0.124414	0.091248	0.405902
	C210	C	0.930385	0.091113	0.586934
	C211	C	0.931221	0.895794	0.405957
	C212	C	0.618519	0.087615	0.900236
	C213	C	0.436250	0.088805	0.091206
	C214	C	0.619702	0.896025	0.092276
	C215	C	0.436163	0.897555	0.899730
	Zn216	Zn	0.527413	-0.006433	0.745864
	Zn217	Zn	0.527936	-0.006600	0.244644
	Zn218	Zn	0.777575	0.493053	-0.004658
	Zn219	Zn	0.277083	0.492815	-0.004686
	Zn220	Zn	0.027905	0.741951	0.495813
	Zn221	Zn	0.027692	0.244386	0.496464
	Zn222	Zn	0.027243	0.493438	0.744924
	Zn223	Zn	0.027701	0.492758	0.247511
	Zn224	Zn	0.527252	0.744142	-0.005163
	Zn225	Zn	0.527256	0.242162	-0.005237
	Zn226	Zn	0.777084	-0.007230	0.495990
	Zn227	Zn	0.278069	-0.006839	0.495627
	N228	N	0.438449	0.959434	0.677777
	N229	N	0.615699	0.027281	0.677421
	N230	N	0.616034	0.959397	0.313920
	N231	N	0.440098	0.027863	0.314509
	N232	N	0.706843	0.407215	0.959617
	N233	N	0.706738	0.579729	0.030073
	N234	N	0.347367	0.579268	0.959683
	N235	N	0.348220	0.406948	0.030052
	N236	N	0.993332	0.672377	0.409126
	N237	N	0.063155	0.672846	0.582575
	N238	N	0.992212	0.313063	0.583286
	N239	N	0.063055	0.314548	0.410752
	N240	N	0.992134	0.406343	0.675398
	N241	N	0.063049	0.580158	0.675363
	N242	N	0.993954	0.580503	0.315666
	N243	N	0.061822	0.405288	0.316024
	N244	N	0.438763	0.674943	0.960704
	N245	N	0.614709	0.674353	0.029214
	N246	N	0.615654	0.311591	0.960599
	N247	N	0.439382	0.311513	0.029037
	N248	N	0.706240	0.957880	0.410094
	N249	N	0.705220	0.028855	0.580697
	N250	N	0.348874	0.957692	0.581181
	N251	N	0.349882	0.029580	0.411005
	N252	N	0.939962	0.458185	0.177067
	N253	N	0.115972	0.525845	0.177711
	N254	N	0.115201	0.458654	0.814058
	N255	N	0.938529	0.526793	0.813570
	N256	N	0.207046	0.907711	0.459980
	N257	N	0.208390	0.080579	0.530691
	N258	N	0.848703	0.078632	0.460920
	N259	N	0.847560	0.906373	0.531148
	N260	N	0.492198	0.171337	0.909705
	N261	N	0.562213	0.173753	0.082554
	N262	N	0.491995	0.814290	0.081091
	N263	N	0.562381	0.814177	0.908376
	N264	N	0.492857	0.906227	0.175054
	N265	N	0.562680	0.080109	0.174493
	N266	N	0.493089	0.080558	0.815075
	N267	N	0.561957	0.906458	0.815066
	N268	N	0.941141	0.173259	0.461718
	N269	N	0.115582	0.174688	0.530849
	N270	N	0.117113	0.810665	0.462237
	N271	N	0.938980	0.811067	0.529674
	N272	N	0.205528	0.457472	0.910072
	N273	N	0.205943	0.527694	0.081314
	N274	N	0.847769	0.457439	0.082319
	N275	N	0.848084	0.528160	0.909544
	O276	O	-0.023789	0.764428	-0.068359
	H277	H	-0.016737	0.758017	-0.091744
	H278	H	-0.047622	0.757073	-0.072384
	O279	O	0.550459	0.508511	0.304831
	H280	H	0.548277	0.515219	0.299340
	H281	H	0.573826	0.513650	0.306748
	O282	O	0.880287	0.201028	0.792047
	H283	H	0.894386	0.186162	0.777620
	H284	H	0.884806	0.197693	0.782335
	O285	O	-0.007852	1.051572	1.196230
	H286	H	0.006633	1.066622	1.206583
	H287	H	-0.012417	1.032529	1.190638
	O288	O	-0.056590	0.105331	0.883432
	H289	H	-0.045833	0.096651	0.879184
	H290	H	-0.066538	0.098242	0.873857
	O291	O	0.736162	0.390799	0.539797
	H292	H	0.737812	0.395466	0.535567
	H293	H	0.731056	0.381842	0.536316
	O294	O	0.422253	0.615611	0.483835
	H295	H	0.431151	0.622906	0.485616
	H296	H	0.413093	0.608539	0.489798
	O297	O	0.369068	0.648987	0.468401
	H298	H	0.361147	0.641801	0.458542
	H299	H	0.356712	0.647831	0.455628
	O300	O	-0.363250	0.556786	0.671299
	H301	H	-0.378471	0.549449	0.668374
	H302	H	-0.361918	0.561601	0.679179
	O303	O	0.354248	0.558020	0.572148
	H304	H	0.362058	0.558745	0.561886
	H305	H	0.355052	0.558535	0.570667
	O306	O	0.485848	0.631432	0.461996
	H307	H	0.475447	0.629867	0.436860
	H308	H	0.477128	0.630120	0.472943
	O309	O	0.311457	0.478068	0.420934
	H310	H	0.296055	0.472388	0.416225
	H311	H	0.318776	0.475817	0.426339
	O312	O	0.507739	0.277852	0.644842
	H313	H	0.506153	0.263885	0.658303
	H314	H	0.491283	0.295073	0.635647
	O315	O	0.802221	1.047938	0.973222
	H316	H	0.788962	1.052401	0.957341
	H317	H	0.801144	1.048044	0.966213
	O318	O	1.017014	0.204906	0.092513
	H319	H	1.020058	0.196497	0.090722
	H320	H	1.017081	0.201235	0.065473
	O321	O	0.063242	1.202729	1.207418
	H322	H	0.055090	1.208343	1.196980
	H323	H	0.056343	1.215964	1.205266
	O324	O	0.889851	1.132548	0.096682
	H325	H	0.876258	1.130754	0.079437
	H326	H	0.905571	1.130894	0.094477
	O327	O	-0.131641	-0.063403	0.980459
	H328	H	-0.132030	-0.076842	0.987704
	H329	H	-0.125213	-0.067469	0.989155
	O330	O	0.736366	0.700447	0.705250
	H331	H	0.735563	0.683925	0.710330
	H332	H	0.717618	0.693255	0.684701
	O333	O	0.049592	0.770648	0.772308
	H334	H	0.066422	0.748205	0.751228
	H335	H	0.082300	0.772556	0.768895
	O336	O	0.528610	0.640734	0.427818
	H337	H	0.535364	0.642080	0.434199
	H338	H	0.523952	0.641582	0.435055
	O339	O	0.841681	-0.025049	1.212849
	H340	H	0.852801	-0.010701	1.208960
	H341	H	0.818274	-0.021049	1.223150
	O342	O	0.139428	0.087812	-0.057492
	H343	H	0.138506	0.072344	-0.052818
	H344	H	0.132121	0.087264	-0.037207
	O345	O	-0.417040	1.334586	1.292727
	H346	H	-0.409063	1.337411	1.284635
	H347	H	-0.413746	1.316337	1.287286
	O348	O	0.711496	0.389365	0.370843
	H349	H	0.710993	0.392564	0.400772
	H350	H	0.733106	0.367636	0.363415
	O351	O	0.820166	0.046445	0.842106
	H352	H	0.808336	0.047977	0.832700
	H353	H	0.824700	0.023045	0.844876
	O354	O	0.243646	-0.035723	1.023685
	H355	H	0.234289	-0.040311	1.037865
	H356	H	0.242209	-0.026302	1.040071
	O357	O	0.342125	0.309494	0.307866
	H358	H	0.360866	0.328173	0.317791
	H359	H	0.354257	0.318918	0.324770
	O360	O	0.550513	0.650676	0.714658
	H361	H	0.558848	0.667652	0.725240
	H362	H	0.557378	0.656493	0.699660
	O363	O	0.100367	-0.226879	0.051075
	H364	H	0.076102	-0.230417	0.065943
	H365	H	0.087040	-0.214572	0.035371
	O366	O	0.392261	0.680627	0.622347
	H367	H	0.395927	0.672388	0.607680
	H368	H	0.381776	0.684579	0.627648
	O369	O	1.573190	0.407443	-0.290620
	H370	H	1.564888	0.404182	-0.286941
	H371	H	1.559425	0.420433	-0.297002
	O372	O	1.063478	0.918247	-0.068331
	H373	H	1.056035	0.905686	-0.068837
	H374	H	1.060812	0.907939	-0.075249
	O375	O	0.843590	-0.192536	-0.190371
	H376	H	0.858651	-0.185002	-0.173607
	H377	H	0.825190	-0.203953	-0.204052
	O378	O	-0.691165	0.274179	0.527897
	H379	H	-0.690001	0.265679	0.557673
	H380	H	-0.711927	0.255493	0.544503
	O381	O	0.243301	0.965607	0.776880
	H382	H	0.264247	0.974922	0.762956
	H383	H	0.258663	0.975719	0.802638
	O384	O	1.224623	0.053771	0.916551
	H385	H	1.213912	0.054899	0.931614
	H386	H	1.226977	0.043497	0.942362
	O387	O	1.061132	1.064148	-0.218158
	H388	H	1.063648	1.054794	-0.215839
	H389	H	1.050633	1.041634	-0.219769
	O390	O	0.504988	0.267725	0.390325
	H391	H	0.498063	0.258835	0.387512
	H392	H	0.517660	0.262813	0.394649
	O393	O	0.818912	0.785142	0.205490
	H394	H	0.793804	0.770671	0.220405
	H395	H	0.818569	0.813409	0.219028
	O396	O	0.203671	1.139356	1.049258
	H397	H	0.211513	1.146324	1.055947
	H398	H	0.190421	1.144797	1.066004
	O399	O	0.002640	-0.224924	1.213113
	H400	H	-0.008263	-0.239419	1.228893
	H401	H	-0.016896	-0.227130	1.217736
	O402	O	0.777391	0.244437	0.254934
	H403	H	0.803802	0.222777	0.225731
	H404	H	0.771987	0.228655	0.271750
	O405	O	0.808220	-0.232815	1.027776
	H406	H	0.808564	-0.230208	1.054809
	H407	H	0.784169	-0.259118	1.036371
	O408	O	0.047031	0.220068	-0.024994
	H409	H	0.032142	0.216726	-0.031056
	H410	H	0.049350	0.219624	-0.040174
	O411	O	0.431084	0.447066	0.532259
	H412	H	0.432399	0.458164	0.541600
	H413	H	0.428577	0.435097	0.537569
	O414	O	0.680225	0.308463	0.655577
	H415	H	0.676586	0.314539	0.648383
	H416	H	0.646743	0.311712	0.667688
	O417	O	-0.301631	0.685814	0.342868
	H418	H	-0.318975	0.681738	0.368168
	H419	H	-0.317803	0.664824	0.343918
	O420	O	0.211838	0.802265	1.184806
	H421	H	0.181885	0.809222	1.181275
	H422	H	0.199260	0.824045	1.162519
	O423	O	0.007763	0.170974	0.839603
	H424	H	0.013932	0.161828	0.828154
	H425	H	0.017838	0.173622	0.824562
	O426	O	0.336660	0.472630	0.711244
	H427	H	0.326102	0.479654	0.701201
	H428	H	0.329513	0.480241	0.723459
	O429	O	1.249008	1.015505	1.201797
	H430	H	1.263715	1.028823	1.215147
	H431	H	1.252121	1.050254	1.211167
	O432	O	0.214798	0.798319	0.795207
	H433	H	0.222294	0.807728	0.826138
	H434	H	0.227016	0.826343	0.803628
	O435	O	-0.253780	0.709657	0.528850
	H436	H	-0.249283	0.696530	0.531507
	H437	H	-0.231890	0.728218	0.527115
	O438	O	-0.253878	0.501387	-0.711326
	H439	H	-0.242501	0.472949	-0.728111
	H440	H	-0.257779	0.480959	-0.713884
	O441	O	0.028880	0.011856	0.054742
	H442	H	0.020698	0.024276	0.058927
	H443	H	0.027528	0.005411	0.055508
	O444	O	0.498336	0.716824	0.271089
	H445	H	0.491274	0.738031	0.242371
	H446	H	0.463529	0.711045	0.271449
	O447	O	0.080779	0.931853	1.235519
	H448	H	0.084086	0.924804	1.234121
	H449	H	0.090908	0.929738	1.239045
	O450	O	-0.193650	1.215110	0.970142
	H451	H	-0.220046	1.243737	0.960068
	H452	H	-0.188778	1.208010	0.926773
	O453	O	0.324398	-0.306345	1.287766
	H454	H	0.319066	-0.342694	1.297836
	H455	H	0.298023	-0.280802	1.263940
	O456	O	-0.059411	-0.060198	1.056873
	H457	H	-0.073722	-0.060832	1.061801
	H458	H	-0.060323	-0.079312	1.060338
	O459	O	0.236727	0.201626	0.206896
	H460	H	0.243357	0.228599	0.232849
	H461	H	0.216220	0.209517	0.194010
	O462	O	0.451547	0.311759	0.606067
	H463	H	0.434463	0.297921	0.619932
	H464	H	0.460912	0.325877	0.605976
	O465	O	0.979577	-0.062703	-0.234519
	H466	H	0.983194	-0.079808	-0.234194
	H467	H	0.972478	-0.075324	-0.231458
	O468	O	0.540752	0.365959	0.522682
	H469	H	0.542777	0.367955	0.531936
	H470	H	0.538726	0.380513	0.506462
	O471	O	0.405521	0.488580	0.285466
	H472	H	0.408251	0.489378	0.279704
	H473	H	0.412954	0.472601	0.287058
	O474	O	0.718522	0.334252	0.494836
	H475	H	0.704480	0.340282	0.507267
	H476	H	0.731950	0.327540	0.514458
	O477	O	0.238746	-0.224705	0.955857
	H478	H	0.246226	-0.234038	0.969511
	H479	H	0.235211	-0.237602	0.975284
	O480	O	0.642502	0.521183	0.448890
	H481	H	0.640902	0.518880	0.439480
	H482	H	0.641615	0.503707	0.440932
	O483	O	0.260272	1.227407	-0.239294
	H484	H	0.254731	1.229984	-0.229092
	H485	H	0.240865	1.200924	-0.217633
	O486	O	0.611619	0.581114	0.586506
	H487	H	0.635737	0.601006	0.588683
	H488	H	0.602924	0.574146	0.576448
	O489	O	1.498560	0.513808	-0.448043
	H490	H	1.503001	0.510254	-0.447458
	H491	H	1.498294	0.515774	-0.445342
