data_Molecule from HDF5

_cell_length_a		16.186318
_cell_length_b		16.330793
_cell_length_c		16.284792
_cell_angle_alpha	89.601355
_cell_angle_beta	89.350197
_cell_angle_gamma	90.667235
_symmetry_space_group_name_H-M	'P 1'
_symmetry_Int_Tables_number		1

loop_
	_symmetry_equiv_pos_as_xyz
	x,y,z

loop_
	_atom_site_label
	_atom_site_type_symbol
	_atom_site_fract_x
	_atom_site_fract_y
	_atom_site_fract_z
	H0	H	0.407252	0.855268	0.713578
	H1	H	0.613058	0.179739	0.707356
	H2	H	0.613406	0.853922	0.276656
	H3	H	0.416300	0.179689	0.277795
	H4	H	0.727383	0.420251	0.830649
	H5	H	0.723943	0.614766	0.157885
	H6	H	0.303146	0.613643	0.828820
	H7	H	0.291605	0.415044	0.156059
	H8	H	0.847077	0.732680	0.392942
	H9	H	0.175348	0.733872	0.588442
	H10	H	0.848796	0.298589	0.596437
	H11	H	0.176847	0.307515	0.393097
	H12	H	0.848075	0.414966	0.711298
	H13	H	0.176106	0.618511	0.704103
	H14	H	0.845900	0.614452	0.280551
	H15	H	0.174845	0.420886	0.275992
	H16	H	0.413614	0.734723	0.831895
	H17	H	0.613049	0.732943	0.156383
	H18	H	0.613253	0.303049	0.830488
	H19	H	0.405108	0.296226	0.155795
	H20	H	0.726544	0.853351	0.394989
	H21	H	0.727652	0.180098	0.589007
	H22	H	0.293199	0.854357	0.596264
	H23	H	0.303220	0.181962	0.397855
	H24	H	0.905160	0.355443	0.212862
	H25	H	0.111732	0.679927	0.205387
	H26	H	0.111153	0.354930	0.776837
	H27	H	0.912760	0.679634	0.775840
	H28	H	0.227480	0.922281	0.330425
	H29	H	0.224068	0.115113	0.658597
	H30	H	0.801149	0.115821	0.329436
	H31	H	0.793672	0.915605	0.656493
	H32	H	0.347181	0.230992	0.893053
	H33	H	0.674696	0.235354	0.091801
	H34	H	0.348556	0.797724	0.098380
	H35	H	0.675663	0.803878	0.891482
	H36	H	0.348813	0.913337	0.213021
	H37	H	0.676748	0.117445	0.204548
	H38	H	0.347460	0.116902	0.778710
	H39	H	0.675159	0.919255	0.776553
	H40	H	0.915224	0.234404	0.330403
	H41	H	0.113604	0.234590	0.656701
	H42	H	0.114355	0.803778	0.330306
	H43	H	0.907309	0.798263	0.656369
	H44	H	0.226302	0.354467	0.891529
	H45	H	0.226350	0.679906	0.088250
	H46	H	0.791542	0.355339	0.094536
	H47	H	0.798128	0.680981	0.892790
	H48	H	0.412676	0.134344	0.583759
	H49	H	0.602961	0.899863	0.587998
	H50	H	0.605454	0.133955	0.390991
	H51	H	0.420429	0.901549	0.403366
	H52	H	0.599111	0.417597	0.110823
	H53	H	0.610954	0.604706	0.877601
	H54	H	0.426863	0.609420	0.108628
	H55	H	0.408253	0.422501	0.873158
	H56	H	0.129393	0.611427	0.394949
	H57	H	0.891273	0.612806	0.588091
	H58	H	0.127803	0.425171	0.581362
	H59	H	0.890832	0.414575	0.402596
	H60	H	0.128592	0.429492	0.586149
	H61	H	0.897298	0.606753	0.579061
	H62	H	0.128112	0.615875	0.398726
	H63	H	0.898961	0.425939	0.413806
	H64	H	0.412424	0.612831	0.114168
	H65	H	0.596637	0.610061	0.880406
	H66	H	0.605230	0.428617	0.110977
	H67	H	0.424149	0.432428	0.881495
	H68	H	0.601874	0.129404	0.403417
	H69	H	0.598356	0.901390	0.587990
	H70	H	0.419557	0.136206	0.596290
	H71	H	0.419694	0.902271	0.405030
	H72	H	0.915179	0.636554	0.093195
	H73	H	0.094508	0.402061	0.088269
	H74	H	0.111919	0.635910	0.895408
	H75	H	0.915596	0.403066	0.907740
	H76	H	0.105869	0.929752	0.610019
	H77	H	0.111763	0.108231	0.378262
	H78	H	0.923910	0.111664	0.609036
	H79	H	0.928382	0.927023	0.380424
	H80	H	0.630749	0.117456	0.898114
	H81	H	0.396542	0.100347	0.086473
	H82	H	0.625979	0.927560	0.079752
	H83	H	0.395989	0.925279	0.907789
	H84	H	0.629320	0.928478	0.089574
	H85	H	0.393525	0.107010	0.092006
	H86	H	0.625663	0.109453	0.907050
	H87	H	0.394719	0.926533	0.903775
	H88	H	0.914996	0.108304	0.610868
	H89	H	0.102571	0.113494	0.379777
	H90	H	0.093260	0.925277	0.607433
	H91	H	0.919605	0.915651	0.374358
	H92	H	0.102287	0.633241	0.894264
	H93	H	0.100171	0.401983	0.080995
	H94	H	0.925436	0.630975	0.087242
	H95	H	0.914951	0.400043	0.898440
	H96	H	0.426745	0.130207	0.584584
	H97	H	0.600890	0.902654	0.583642
	H98	H	0.613732	0.133545	0.401099
	H99	H	0.418971	0.901330	0.403285
	H100	H	0.593794	0.428086	0.106606
	H101	H	0.606953	0.619708	0.874636
	H102	H	0.415406	0.598470	0.107767
	H103	H	0.425644	0.413043	0.875852
	H104	H	0.126364	0.609679	0.399715
	H105	H	0.894558	0.601530	0.589785
	H106	H	0.130987	0.422918	0.586821
	H107	H	0.894480	0.431207	0.396653
	H108	H	0.914575	0.633708	0.080136
	H109	H	0.103104	0.399434	0.088227
	H110	H	0.106644	0.631254	0.903680
	H111	H	0.924129	0.402969	0.902441
	H112	H	0.102811	0.916402	0.613005
	H113	H	0.110784	0.118394	0.374508
	H114	H	0.921828	0.102762	0.606564
	H115	H	0.913447	0.929450	0.377390
	H116	H	0.627710	0.105681	0.896102
	H117	H	0.394996	0.107994	0.083253
	H118	H	0.631190	0.919110	0.085039
	H119	H	0.395149	0.922090	0.905987
	C120	C	0.388643	0.026040	0.617877
	C121	C	0.632234	1.008601	0.614712
	C122	C	0.635439	0.024958	0.370052
	C123	C	0.391871	1.009084	0.373904
	C124	C	0.630704	0.396599	0.001548
	C125	C	0.633643	0.639732	0.985488
	C126	C	0.390550	0.637118	0.002276
	C127	C	0.387539	0.392569	0.984481
	C128	C	0.019132	0.639855	0.370098
	C129	C	1.002921	0.637584	0.613199
	C130	C	0.020900	0.395106	0.615605
	C131	C	1.003183	0.396674	0.372854
	C132	C	0.887264	0.526314	0.116684
	C133	C	0.130719	0.508551	0.113082
	C134	C	0.134472	0.525746	0.869621
	C135	C	0.890020	0.509412	0.872417
	C136	C	0.131808	0.896605	0.502223
	C137	C	0.135592	0.141267	0.485394
	C138	C	0.892316	0.137542	0.501391
	C139	C	0.889055	0.893872	0.484905
	C140	C	0.519606	0.138786	0.872219
	C141	C	0.503227	0.136855	0.114760
	C142	C	0.520738	0.894016	0.116363
	C143	C	0.503188	0.896175	0.874094
	C144	C	0.388070	0.903728	0.674820
	C145	C	0.632170	0.131158	0.669265
	C146	C	0.633629	0.902535	0.314670
	C147	C	0.395723	0.131601	0.317176
	C148	C	0.688998	0.399334	0.879321
	C149	C	0.687816	0.636263	0.108457
	C150	C	0.338493	0.635074	0.878512
	C151	C	0.329563	0.393950	0.107120
	C152	C	0.896054	0.694510	0.373260
	C153	C	0.126666	0.694911	0.609352
	C154	C	0.897777	0.337259	0.616069
	C155	C	0.127185	0.343813	0.373244
	C156	C	0.897271	0.395557	0.672808
	C157	C	0.126835	0.637542	0.666802
	C158	C	0.895372	0.635768	0.317227
	C159	C	0.126290	0.400591	0.315090
	C160	C	0.393441	0.695367	0.880192
	C161	C	0.632450	0.694870	0.107841
	C162	C	0.631741	0.341378	0.879223
	C163	C	0.386182	0.335103	0.107169
	C164	C	0.689423	0.902003	0.373825
	C165	C	0.689433	0.131096	0.610647
	C166	C	0.331580	0.903206	0.616313
	C167	C	0.339359	0.132588	0.376794
	C168	C	0.886718	0.403998	0.173831
	C169	C	0.131145	0.631203	0.167566
	C170	C	0.131763	0.403639	0.814237
	C171	C	0.892656	0.631304	0.814846
	C172	C	0.189475	0.900796	0.379330
	C173	C	0.188551	0.137158	0.609118
	C174	C	0.838437	0.135923	0.378186
	C175	C	0.831887	0.895274	0.607653
	C176	C	0.396288	0.193517	0.873567
	C177	C	0.625904	0.195984	0.112071
	C178	C	0.397589	0.836352	0.117275
	C179	C	0.626535	0.841606	0.873035
	C180	C	0.397882	0.893844	0.174560
	C181	C	0.627210	0.137115	0.167958
	C182	C	0.396321	0.136668	0.816598
	C183	C	0.626104	0.898937	0.815445
	C184	C	0.894908	0.195093	0.378948
	C185	C	0.133153	0.196332	0.608141
	C186	C	0.132733	0.842208	0.379140
	C187	C	0.888227	0.836631	0.607268
	C188	C	0.189024	0.403292	0.871684
	C189	C	0.188196	0.631168	0.109518
	C190	C	0.829900	0.403882	0.115191
	C191	C	0.835688	0.632061	0.873212
	C192	C	0.412591	0.111376	0.594902
	C193	C	0.607900	0.923316	0.593034
	C194	C	0.613535	0.110253	0.392006
	C195	C	0.413411	0.923794	0.397090
	C196	C	0.606463	0.418416	0.087230
	C197	C	0.611341	0.617815	0.899834
	C198	C	0.411819	0.613721	0.087929
	C199	C	0.412246	0.415754	0.899128
	C200	C	0.105661	0.618544	0.391529
	C201	C	0.916787	0.613894	0.591900
	C202	C	0.106898	0.418981	0.591830
	C203	C	0.917032	0.417603	0.397243
	C204	C	0.911329	0.611638	0.093519
	C205	C	0.106471	0.423323	0.091824
	C206	C	0.113231	0.611225	0.891326
	C207	C	0.911811	0.424195	0.896047
	C208	C	0.107614	0.917585	0.587957
	C209	C	0.114571	0.119692	0.399722
	C210	C	0.913935	0.114385	0.586676
	C211	C	0.913367	0.917175	0.399397
	C212	C	0.605634	0.117178	0.894071
	C213	C	0.417282	0.112184	0.093457
	C214	C	0.606762	0.917874	0.091825
	C215	C	0.417362	0.918181	0.898595
	Zn216	Zn	0.511201	0.017515	0.745153
	Zn217	Zn	0.513120	0.016318	0.243184
	Zn218	Zn	0.760409	0.518037	-0.006191
	Zn219	Zn	0.260607	0.516391	-0.007650
	Zn220	Zn	0.010728	0.766866	0.492985
	Zn221	Zn	0.013319	0.268106	0.493944
	Zn222	Zn	0.011773	0.517481	0.742566
	Zn223	Zn	0.010235	0.517461	0.243207
	Zn224	Zn	0.512218	0.766785	-0.005594
	Zn225	Zn	0.510495	0.265761	-0.006911
	Zn226	Zn	0.762458	0.016336	0.492925
	Zn227	Zn	0.261340	0.017601	0.495153
	N228	N	0.422877	0.980992	0.676053
	N229	N	0.597360	0.053934	0.671921
	N230	N	0.600707	0.979763	0.312390
	N231	N	0.427468	0.053731	0.315150
	N232	N	0.688243	0.433219	0.956427
	N233	N	0.688769	0.602732	0.031181
	N234	N	0.336494	0.599577	0.955410
	N235	N	0.330064	0.428810	0.029852
	N236	N	0.974350	0.697336	0.405543
	N237	N	0.048696	0.695032	0.576731
	N238	N	0.975529	0.337202	0.581067
	N239	N	0.049604	0.341545	0.408744
	N240	N	0.974862	0.430904	0.672396
	N241	N	0.048893	0.602827	0.669318
	N242	N	0.973042	0.602723	0.315043
	N243	N	0.048160	0.432772	0.314832
	N244	N	0.425252	0.696508	0.958126
	N245	N	0.599673	0.697346	0.030316
	N246	N	0.596251	0.339616	0.956388
	N247	N	0.421179	0.333950	0.029797
	N248	N	0.690739	0.979004	0.407633
	N249	N	0.689594	0.053930	0.577514
	N250	N	0.331553	0.980386	0.581796
	N251	N	0.336782	0.055440	0.411530
	N252	N	0.921555	0.481348	0.174792
	N253	N	0.096069	0.554081	0.170020
	N254	N	0.098784	0.480798	0.812544
	N255	N	0.925855	0.554176	0.814365
	N256	N	0.188715	0.934043	0.456897
	N257	N	0.190716	0.103845	0.531791
	N258	N	0.836668	0.100644	0.455294
	N259	N	0.832188	0.930067	0.530499
	N260	N	0.473828	0.194978	0.907391
	N261	N	0.547715	0.195949	0.079772
	N262	N	0.475043	0.836740	0.081594
	N263	N	0.549148	0.839831	0.908918
	N264	N	0.475588	0.928977	0.174059
	N265	N	0.549980	0.100892	0.169714
	N266	N	0.473951	0.103032	0.815692
	N267	N	0.548293	0.932173	0.816080
	N268	N	0.927640	0.196222	0.456402
	N269	N	0.100956	0.198977	0.530268
	N270	N	0.097751	0.839303	0.456583
	N271	N	0.923255	0.835909	0.529839
	N272	N	0.190848	0.480283	0.905573
	N273	N	0.188047	0.553925	0.076321
	N274	N	0.830105	0.480819	0.080460
	N275	N	0.833909	0.555220	0.908652
	O276	O	-0.111923	-0.048209	0.923435
	H277	H	-0.122999	-0.046410	0.927822
	H278	H	-0.106692	-0.061368	0.922046
	O279	O	0.902037	0.029244	0.969550
	H280	H	0.903426	0.007945	0.962690
	H281	H	0.893780	0.038149	0.982816
	O282	O	1.042742	0.985841	-0.024995
	H283	H	1.045480	0.983975	-0.039508
	H284	H	1.043441	0.974715	-0.039285
	O285	O	0.966067	0.152491	1.066917
	H286	H	0.959192	0.152490	1.056117
	H287	H	0.957169	0.131553	1.075823
	O288	O	0.583338	0.514283	0.434004
	H289	H	0.586928	0.519437	0.429437
	H290	H	0.584179	0.518140	0.436347
	O291	O	0.566301	0.462541	0.503861
	H292	H	0.561118	0.458404	0.494291
	H293	H	0.569172	0.464377	0.500712
	O294	O	0.575447	0.544706	0.535421
	H295	H	0.574328	0.552639	0.532586
	H296	H	0.565958	0.550212	0.530917
	O297	O	-0.044221	-0.052185	1.061739
	H298	H	-0.051154	-0.053292	1.058832
	H299	H	-0.038486	-0.042370	1.061287
	O300	O	0.067384	-0.084119	-0.135921
	H301	H	0.080321	-0.080564	-0.137647
	H302	H	0.065194	-0.080244	-0.144354
	O303	O	0.540604	0.546488	0.442531
	H304	H	0.522786	0.537794	0.435809
	H305	H	0.546214	0.552226	0.443448
	O306	O	0.103949	0.981893	0.834223
	H307	H	0.097055	0.988497	0.835535
	H308	H	0.110298	0.983785	0.826034
	O309	O	0.427336	0.525802	0.508599
	H310	H	0.415759	0.524479	0.516902
	H311	H	0.425530	0.515320	0.512347
	O312	O	-0.502022	0.503339	0.480038
	H313	H	-0.500990	0.499636	0.476363
	H314	H	-0.489589	0.499059	0.484302
	O315	O	0.452287	-0.540398	-0.439077
	H316	H	0.453143	-0.542366	-0.438540
	H317	H	0.450145	-0.541534	-0.441671
	O318	O	1.021042	0.943453	1.109907
	H319	H	1.015302	0.948510	1.101190
	H320	H	1.026919	0.956626	1.110372
	O321	O	-0.042407	0.018835	0.879826
	H322	H	-0.050001	0.023902	0.880814
	H323	H	-0.035588	0.025993	0.881716
	O324	O	0.457809	0.516578	0.569796
	H325	H	0.458398	0.510524	0.564850
	H326	H	0.451814	0.514691	0.562710
	O327	O	0.013708	-0.100789	0.049835
	H328	H	0.017316	-0.105831	0.048844
	H329	H	0.016991	-0.101051	0.049425
	O330	O	1.057085	0.940799	0.041250
	H331	H	1.067093	0.935525	0.043267
	H332	H	1.064525	0.948664	0.029349
	O333	O	0.136476	1.096488	0.989483
	H334	H	0.133205	1.108575	1.004971
	H335	H	0.144340	1.096135	0.988780
	O336	O	-0.009694	0.113917	0.012352
	H337	H	-0.026464	0.118103	0.008353
	H338	H	-0.000525	0.112615	0.012583
	O339	O	0.512919	0.541381	0.479895
	H340	H	0.513662	0.544946	0.487722
	H341	H	0.510918	0.536519	0.481514
	O342	O	1.093685	1.051808	0.973148
	H343	H	1.092152	1.053605	0.975540
	H344	H	1.075505	1.054219	0.992432
	O345	O	1.052451	1.123726	-0.012134
	H346	H	1.059339	1.133829	0.003751
	H347	H	1.063452	1.123563	-0.001364
	O348	O	0.508298	0.461656	0.480973
	H349	H	0.509538	0.459680	0.478891
	H350	H	0.505423	0.460610	0.481612
	O351	O	0.926597	0.085733	0.032914
	H352	H	0.915240	0.085365	0.034565
	H353	H	0.921262	0.076361	0.031519
	O354	O	0.437322	0.472324	0.543956
	H355	H	0.436436	0.463650	0.540048
	H356	H	0.440746	0.468870	0.553207
	O357	O	0.533230	0.554297	1.482389
	H358	H	0.528166	0.555367	1.488192
	H359	H	0.535643	0.555710	1.479766
	O360	O	0.057657	-0.043500	0.086772
	H361	H	0.065300	-0.048917	0.087369
	H362	H	0.060366	-0.038984	0.086196
	O363	O	0.516545	0.526028	0.518524
	H364	H	0.521791	0.528122	0.516990
	H365	H	0.507936	0.525749	0.529551
	O366	O	0.930095	1.056718	0.995602
	H367	H	0.921914	1.063571	0.999175
	H368	H	0.938184	1.044700	0.998266
	O369	O	0.993687	0.051444	0.960174
	H370	H	1.003321	0.035845	0.957125
	H371	H	0.996504	0.054442	0.957590
	O372	O	0.148609	0.128110	0.117045
	H373	H	0.133136	0.126258	0.121119
	H374	H	0.157580	0.128917	0.117314
	O375	O	0.535091	-0.436892	0.486338
	H376	H	0.542978	-0.430749	0.473661
	H377	H	0.545331	-0.445257	0.490226
	O378	O	0.916455	-0.087707	0.967584
	H379	H	0.914537	-0.096709	0.981292
	H380	H	0.925281	-0.087163	0.959981
	O381	O	0.490445	0.499338	0.471527
	H382	H	0.502893	0.501163	0.475688
	H383	H	0.491686	0.506627	0.471932
