data_Molecule from HDF5

_cell_length_a		16.238104
_cell_length_b		16.403840
_cell_length_c		16.144769
_cell_angle_alpha	89.888583
_cell_angle_beta	89.821142
_cell_angle_gamma	89.624783
_symmetry_space_group_name_H-M	'P 1'
_symmetry_Int_Tables_number		1

loop_
	_symmetry_equiv_pos_as_xyz
	x,y,z

loop_
	_atom_site_label
	_atom_site_type_symbol
	_atom_site_fract_x
	_atom_site_fract_y
	_atom_site_fract_z
	H0	H	0.408384	0.837407	0.708450
	H1	H	0.601409	0.164075	0.707524
	H2	H	0.603847	0.837611	0.279424
	H3	H	0.406111	0.163193	0.278443
	H4	H	0.719835	0.402539	0.828603
	H5	H	0.715193	0.595250	0.160310
	H6	H	0.292832	0.598862	0.828751
	H7	H	0.293694	0.404590	0.160108
	H8	H	0.841534	0.718592	0.395501
	H9	H	0.169065	0.715520	0.594378
	H10	H	0.841402	0.285644	0.596527
	H11	H	0.167656	0.284257	0.391227
	H12	H	0.839527	0.406477	0.708006
	H13	H	0.169334	0.597214	0.706341
	H14	H	0.838392	0.598972	0.283658
	H15	H	0.168850	0.404752	0.281066
	H16	H	0.403523	0.718179	0.830508
	H17	H	0.604152	0.714858	0.158397
	H18	H	0.606924	0.284607	0.829422
	H19	H	0.405222	0.285276	0.158613
	H20	H	0.722646	0.838666	0.393505
	H21	H	0.718440	0.163492	0.591869
	H22	H	0.290942	0.837993	0.593291
	H23	H	0.287873	0.163059	0.392484
	H24	H	0.905987	0.338860	0.210135
	H25	H	0.099799	0.664279	0.206424
	H26	H	0.105001	0.337666	0.778925
	H27	H	0.907167	0.664481	0.781453
	H28	H	0.218839	0.903864	0.327928
	H29	H	0.216918	0.097341	0.659093
	H30	H	0.791344	0.100063	0.328219
	H31	H	0.793087	0.905418	0.659548
	H32	H	0.342067	0.218522	0.893399
	H33	H	0.668825	0.213931	0.093317
	H34	H	0.341997	0.786095	0.095381
	H35	H	0.668072	0.782608	0.891450
	H36	H	0.340636	0.904561	0.207048
	H37	H	0.669079	0.097047	0.206498
	H38	H	0.339482	0.098227	0.782142
	H39	H	0.669247	0.902016	0.779791
	H40	H	0.903580	0.219061	0.329931
	H41	H	0.103500	0.215770	0.658185
	H42	H	0.107866	0.784644	0.329784
	H43	H	0.905746	0.786844	0.658455
	H44	H	0.223589	0.338424	0.893670
	H45	H	0.219804	0.663427	0.093679
	H46	H	0.791682	0.337436	0.093869
	H47	H	0.786969	0.662716	0.894283
	H48	H	0.404308	0.116748	0.585053
	H49	H	0.593512	0.884443	0.595272
	H50	H	0.599152	0.117231	0.398192
	H51	H	0.413924	0.881208	0.385722
	H52	H	0.601343	0.403511	0.113158
	H53	H	0.593514	0.597251	0.876273
	H54	H	0.406297	0.588666	0.111341
	H55	H	0.422642	0.402979	0.878013
	H56	H	0.125388	0.601611	0.394322
	H57	H	0.889780	0.594465	0.581319
	H58	H	0.123027	0.399947	0.586220
	H59	H	0.884400	0.408613	0.393115
	H60	H	0.117865	0.409485	0.578930
	H61	H	0.887616	0.593110	0.591342
	H62	H	0.119560	0.596582	0.409724
	H63	H	0.886411	0.400111	0.409055
	H64	H	0.420295	0.592359	0.109631
	H65	H	0.601422	0.591972	0.875529
	H66	H	0.597839	0.409072	0.110502
	H67	H	0.407200	0.403849	0.873445
	H68	H	0.595382	0.115797	0.399753
	H69	H	0.595370	0.889112	0.577916
	H70	H	0.411268	0.116876	0.592300
	H71	H	0.423576	0.891475	0.409671
	H72	H	0.907607	0.617776	0.087723
	H73	H	0.088769	0.385418	0.099348
	H74	H	0.097012	0.615901	0.899486
	H75	H	0.912577	0.384181	0.897620
	H76	H	0.099319	0.910681	0.611411
	H77	H	0.092044	0.100455	0.376409
	H78	H	0.912023	0.093858	0.610735
	H79	H	0.905155	0.911713	0.374235
	H80	H	0.624339	0.092031	0.890481
	H81	H	0.388391	0.094323	0.084631
	H82	H	0.621500	0.908752	0.085261
	H83	H	0.388852	0.904415	0.908784
	H84	H	0.622305	0.905616	0.086540
	H85	H	0.387642	0.094695	0.086874
	H86	H	0.623550	0.102745	0.904733
	H87	H	0.389830	0.914898	0.901754
	H88	H	0.912264	0.096769	0.611539
	H89	H	0.103352	0.094572	0.373442
	H90	H	0.093348	0.907562	0.609860
	H91	H	0.921323	0.915633	0.380428
	H92	H	0.098718	0.615202	0.903144
	H93	H	0.095497	0.390602	0.072314
	H94	H	0.909177	0.616643	0.088380
	H95	H	0.917344	0.386658	0.903476
	H96	H	0.414023	0.114009	0.583003
	H97	H	0.609360	0.882179	0.587322
	H98	H	0.598321	0.115418	0.401877
	H99	H	0.397772	0.882839	0.407661
	H100	H	0.595098	0.402776	0.111454
	H101	H	0.593494	0.588268	0.879075
	H102	H	0.410873	0.601317	0.114910
	H103	H	0.414911	0.416835	0.879656
	H104	H	0.119585	0.585975	0.397019
	H105	H	0.886721	0.602292	0.587420
	H106	H	0.121660	0.411698	0.590729
	H107	H	0.892095	0.417304	0.406900
	H108	H	0.908529	0.616763	0.086040
	H109	H	0.114170	0.380358	0.089327
	H110	H	0.101114	0.616778	0.900371
	H111	H	0.909478	0.385648	0.904520
	H112	H	0.098622	0.904085	0.612503
	H113	H	0.093852	0.088596	0.379076
	H114	H	0.909909	0.094704	0.611572
	H115	H	0.917612	0.899383	0.374602
	H116	H	0.617948	0.086060	0.906499
	H117	H	0.387888	0.096282	0.085654
	H118	H	0.621743	0.905595	0.082753
	H119	H	0.385208	0.903960	0.896128
	C120	C	0.382060	0.008634	0.615966
	C121	C	0.626729	0.992513	0.615344
	C122	C	0.627176	0.009008	0.370997
	C123	C	0.382943	0.992513	0.371738
	C124	C	0.627488	0.377487	0.002601
	C125	C	0.625281	0.620865	0.985877
	C126	C	0.383729	0.622683	0.002758
	C127	C	0.385473	0.379615	0.985972
	C128	C	0.012829	0.623463	0.372131
	C129	C	0.996591	0.623611	0.615286
	C130	C	0.012574	0.379688	0.615468
	C131	C	0.995783	0.379753	0.373110
	C132	C	0.881527	0.509312	0.116468
	C133	C	0.126792	0.492860	0.115403
	C134	C	0.128303	0.508830	0.871632
	C135	C	0.883412	0.492868	0.872899
	C136	C	0.126537	0.879023	0.502001
	C137	C	0.125369	0.122625	0.485284
	C138	C	0.882678	0.123643	0.502446
	C139	C	0.884962	0.880679	0.485321
	C140	C	0.513393	0.122451	0.872588
	C141	C	0.496440	0.122405	0.114735
	C142	C	0.513601	0.879152	0.114720
	C143	C	0.496520	0.878811	0.872910
	C144	C	0.386701	0.886174	0.670964
	C145	C	0.622467	0.115298	0.669917
	C146	C	0.624618	0.886348	0.316628
	C147	C	0.385317	0.114783	0.316328
	C148	C	0.682535	0.381247	0.878120
	C149	C	0.679007	0.616679	0.110397
	C150	C	0.329495	0.619842	0.878419
	C151	C	0.330593	0.383017	0.110418
	C152	C	0.889781	0.679486	0.375091
	C153	C	0.119935	0.677642	0.613600
	C154	C	0.889868	0.324447	0.615378
	C155	C	0.119051	0.323636	0.373155
	C156	C	0.889147	0.383878	0.671311
	C157	C	0.120209	0.619078	0.669443
	C158	C	0.888496	0.620286	0.319260
	C159	C	0.119498	0.383194	0.317812
	C160	C	0.384506	0.679225	0.879276
	C161	C	0.623845	0.676335	0.109565
	C162	C	0.626395	0.322558	0.878528
	C163	C	0.386367	0.324069	0.109844
	C164	C	0.683519	0.886792	0.373667
	C165	C	0.680739	0.115045	0.612257
	C166	C	0.328119	0.886488	0.613791
	C167	C	0.326628	0.114607	0.373134
	C168	C	0.885364	0.387145	0.172018
	C169	C	0.121837	0.615572	0.169375
	C170	C	0.125761	0.386560	0.816200
	C171	C	0.885881	0.615589	0.818411
	C172	C	0.181633	0.882510	0.377664
	C173	C	0.179910	0.118775	0.609431
	C174	C	0.828245	0.120898	0.377872
	C175	C	0.829963	0.883721	0.609764
	C176	C	0.390253	0.179200	0.873741
	C177	C	0.619650	0.176727	0.113307
	C178	C	0.390482	0.824196	0.114387
	C179	C	0.619322	0.821560	0.872712
	C180	C	0.389855	0.883283	0.169872
	C181	C	0.620116	0.118108	0.169318
	C182	C	0.389009	0.119507	0.818462
	C183	C	0.620149	0.881238	0.817338
	C184	C	0.884076	0.180007	0.378771
	C185	C	0.123577	0.177604	0.609213
	C186	C	0.126290	0.823298	0.378591
	C187	C	0.886070	0.824879	0.609308
	C188	C	0.184595	0.386634	0.873624
	C189	C	0.181694	0.614979	0.113435
	C190	C	0.828405	0.386550	0.114131
	C191	C	0.826335	0.614648	0.874447
	C192	C	0.403549	0.093848	0.593396
	C193	C	0.605689	0.907239	0.593397
	C194	C	0.604375	0.094281	0.393307
	C195	C	0.405332	0.907249	0.394249
	C196	C	0.604865	0.398954	0.089398
	C197	C	0.602778	0.598938	0.899362
	C198	C	0.406182	0.600721	0.089640
	C199	C	0.408233	0.401512	0.899307
	C200	C	0.099434	0.601303	0.393912
	C201	C	0.910279	0.602660	0.593261
	C202	C	0.098560	0.400931	0.592248
	C203	C	0.909842	0.401946	0.396269
	C204	C	0.902269	0.594997	0.094119
	C205	C	0.105643	0.407514	0.093473
	C206	C	0.105635	0.593879	0.894323
	C207	C	0.906440	0.407609	0.895176
	C208	C	0.103751	0.900934	0.588779
	C209	C	0.102991	0.100990	0.398573
	C210	C	0.904785	0.101546	0.588935
	C211	C	0.907929	0.902524	0.398799
	C212	C	0.599512	0.100198	0.894162
	C213	C	0.410347	0.101308	0.092339
	C214	C	0.599678	0.900313	0.091586
	C215	C	0.410359	0.901158	0.895615
	Zn216	Zn	0.504666	0.000774	0.744908
	Zn217	Zn	0.505150	0.000601	0.242484
	Zn218	Zn	0.753893	0.499829	-0.005838
	Zn219	Zn	0.257381	0.500729	-0.005506
	Zn220	Zn	0.005415	0.751407	0.493800
	Zn221	Zn	0.004485	0.251026	0.494140
	Zn222	Zn	0.004956	0.501498	0.743323
	Zn223	Zn	0.003625	0.501268	0.244472
	Zn224	Zn	0.504611	0.750368	-0.005532
	Zn225	Zn	0.505256	0.250760	-0.006107
	Zn226	Zn	0.756034	0.001200	0.493222
	Zn227	Zn	0.253661	0.000536	0.493590
	N228	N	0.419195	0.963338	0.672813
	N229	N	0.589389	0.038174	0.671824
	N230	N	0.590166	0.963242	0.315174
	N231	N	0.420057	0.038061	0.315594
	N232	N	0.683108	0.414626	0.956161
	N233	N	0.680020	0.582948	0.032371
	N234	N	0.328755	0.585679	0.956392
	N235	N	0.330137	0.416961	0.032496
	N236	N	0.968011	0.681524	0.407177
	N237	N	0.041750	0.680864	0.580710
	N238	N	0.967601	0.321911	0.581291
	N239	N	0.041106	0.321462	0.406862
	N240	N	0.966488	0.417578	0.671350
	N241	N	0.042868	0.585783	0.670282
	N242	N	0.966170	0.586039	0.317447
	N243	N	0.041985	0.417457	0.317697
	N244	N	0.417456	0.681145	0.957683
	N245	N	0.591107	0.679168	0.031206
	N246	N	0.593074	0.319831	0.957042
	N247	N	0.419654	0.321887	0.031308
	N248	N	0.685483	0.964044	0.406355
	N249	N	0.683645	0.037874	0.579297
	N250	N	0.325490	0.963526	0.580017
	N251	N	0.324934	0.037533	0.406832
	N252	N	0.917756	0.464489	0.173585
	N253	N	0.088315	0.538735	0.170906
	N254	N	0.091497	0.463576	0.814779
	N255	N	0.920636	0.538929	0.817319
	N256	N	0.181998	0.916426	0.455644
	N257	N	0.181152	0.085347	0.531253
	N258	N	0.827284	0.086532	0.455721
	N259	N	0.829273	0.917861	0.531874
	N260	N	0.468288	0.181130	0.906541
	N261	N	0.541710	0.179239	0.079900
	N262	N	0.468445	0.821445	0.080786
	N263	N	0.541435	0.819986	0.906650
	N264	N	0.467374	0.916576	0.170315
	N265	N	0.542638	0.084964	0.170322
	N266	N	0.466524	0.084999	0.817400
	N267	N	0.542904	0.916102	0.817325
	N268	N	0.917012	0.182040	0.457186
	N269	N	0.090509	0.179944	0.530938
	N270	N	0.092669	0.821196	0.456903
	N271	N	0.919798	0.823058	0.530913
	N272	N	0.186431	0.463588	0.907084
	N273	N	0.184703	0.537781	0.080465
	N274	N	0.825660	0.463635	0.080428
	N275	N	0.824762	0.537372	0.907777
	O276	O	0.922539	0.934202	0.067142
	H277	H	0.919360	0.926587	0.062366
	H278	H	0.912085	0.928393	0.076585
	O279	O	-0.103289	0.062171	1.002838
	H280	H	-0.107717	0.065947	1.010801
	H281	H	-0.108522	0.049131	1.004543
	O282	O	0.071284	-0.037602	-0.026904
	H283	H	0.074344	-0.026333	-0.032603
	H284	H	0.075847	-0.038799	-0.029713
	O285	O	0.451793	0.491335	0.518336
	H286	H	0.462769	0.491597	0.511803
	H287	H	0.450993	0.486749	0.515635
	O288	O	0.049449	-0.003095	-0.015274
	H289	H	0.050882	-0.005597	-0.017385
	H290	H	0.048507	0.003817	-0.027297
	O291	O	0.003414	1.024719	-0.012131
	H292	H	0.000093	1.021408	-0.007053
	H293	H	-0.002855	1.026593	-0.017299
	O294	O	-0.074668	1.062867	0.015236
	H295	H	-0.078931	1.063244	0.013826
	H296	H	-0.066385	1.057350	0.021872
	O297	O	0.465292	0.409468	0.526045
	H298	H	0.455938	0.401379	0.530384
	H299	H	0.459620	0.403846	0.536548
	O300	O	0.509261	0.508123	0.446538
	H301	H	0.511933	0.505265	0.445871
	H302	H	0.518014	0.504255	0.448898
	O303	O	0.972948	0.042173	0.985338
	H304	H	0.966598	0.045309	0.989818
	H305	H	0.973076	0.045026	0.980747
	O306	O	-0.035388	0.959693	1.007801
	H307	H	-0.029080	0.950412	1.012643
	H308	H	-0.024134	0.960181	0.997534
	O309	O	-0.021290	0.970357	1.014240
	H310	H	-0.017756	0.966120	1.019123
	H311	H	-0.004547	0.968117	1.014247
	O312	O	0.089352	-0.007210	0.985387
	H313	H	0.098296	-0.002871	0.985557
	H314	H	0.089751	0.002144	0.989664
	O315	O	0.525565	0.451534	0.493852
	H316	H	0.529065	0.444793	0.485418
	H317	H	0.523243	0.456024	0.494863
	O318	O	0.033630	0.010842	0.975207
	H319	H	0.027491	0.009240	0.971893
	H320	H	0.036514	0.013790	0.979538
	O321	O	0.431751	0.446098	0.563017
	H322	H	0.433691	0.442192	0.560474
	H323	H	0.437253	0.450142	0.560413
	O324	O	0.972923	-0.015588	1.013858
	H325	H	0.957678	-0.011485	1.017482
	H326	H	0.973690	-0.020066	1.009515
	O327	O	0.953305	0.984696	0.960580
	H328	H	0.939113	0.987797	0.953675
	H329	H	0.957194	0.978081	0.968886
	O330	O	0.585432	0.422041	0.456078
	H331	H	0.585705	0.419681	0.448253
	H332	H	0.581408	0.418515	0.460074
	O333	O	0.497741	0.450226	0.553864
	H334	H	0.495000	0.463388	0.559196
	H335	H	0.489649	0.437004	0.565922
	O336	O	0.454598	0.469873	0.534595
	H337	H	0.438576	0.465494	0.546005
	H338	H	0.453075	0.467306	0.531163
	O339	O	0.495378	0.469605	0.499706
	H340	H	0.482206	0.473549	0.519826
	H341	H	0.497816	0.477109	0.495089
	O342	O	0.502402	0.474191	0.482037
	H343	H	0.506594	0.478811	0.463821
	H344	H	0.500031	0.464696	0.481758
	O345	O	0.527127	0.447953	0.470472
	H346	H	0.532808	0.447956	0.474128
	H347	H	0.537590	0.449567	0.463987
