data_Molecule from HDF5

_cell_length_a		16.577463
_cell_length_b		16.478827
_cell_length_c		16.610804
_cell_angle_alpha	89.995468
_cell_angle_beta	90.057287
_cell_angle_gamma	89.989837
_symmetry_space_group_name_H-M	'P 1'
_symmetry_Int_Tables_number		1

loop_
	_symmetry_equiv_pos_as_xyz
	x,y,z

loop_
	_atom_site_label
	_atom_site_type_symbol
	_atom_site_fract_x
	_atom_site_fract_y
	_atom_site_fract_z
	H0	H	0.394844	0.841634	0.715792
	H1	H	0.604538	0.157405	0.714816
	H2	H	0.601744	0.841705	0.275279
	H3	H	0.390064	0.154951	0.270282
	H4	H	0.720672	0.391880	0.838457
	H5	H	0.719349	0.601922	0.150438
	H6	H	0.277144	0.604880	0.836857
	H7	H	0.276470	0.392858	0.149391
	H8	H	0.842006	0.716864	0.392708
	H9	H	0.157617	0.716182	0.595452
	H10	H	0.840643	0.280677	0.593371
	H11	H	0.156752	0.278635	0.390725
	H12	H	0.841397	0.394213	0.713213
	H13	H	0.156371	0.601239	0.714473
	H14	H	0.842670	0.601906	0.273284
	H15	H	0.156857	0.393792	0.273681
	H16	H	0.395655	0.719759	0.836683
	H17	H	0.601037	0.717182	0.151819
	H18	H	0.603291	0.276405	0.838605
	H19	H	0.391766	0.275968	0.149090
	H20	H	0.717624	0.841271	0.391684
	H21	H	0.720470	0.156863	0.599290
	H22	H	0.278688	0.840802	0.599408
	H23	H	0.274779	0.154985	0.386876
	H24	H	0.892195	0.341451	0.216486
	H25	H	0.105345	0.654575	0.215195
	H26	H	0.101704	0.339778	0.774743
	H27	H	0.895406	0.656526	0.774152
	H28	H	0.222352	0.892145	0.339510
	H29	H	0.222678	0.106687	0.649459
	H30	H	0.776750	0.103415	0.337517
	H31	H	0.777534	0.892788	0.650406
	H32	H	0.342983	0.221305	0.888508
	H33	H	0.653591	0.223327	0.101209
	H34	H	0.341817	0.779971	0.096673
	H35	H	0.656970	0.780008	0.892695
	H36	H	0.342854	0.895051	0.215315
	H37	H	0.654126	0.105938	0.217401
	H38	H	0.343604	0.107613	0.770002
	H39	H	0.656271	0.894307	0.773812
	H40	H	0.893577	0.219487	0.336493
	H41	H	0.106146	0.222377	0.649956
	H42	H	0.103371	0.777784	0.337880
	H43	H	0.896456	0.777698	0.651025
	H44	H	0.220475	0.341316	0.888076
	H45	H	0.219827	0.655596	0.096928
	H46	H	0.775754	0.342181	0.101240
	H47	H	0.778666	0.656366	0.889735
	H48	H	0.413320	0.110154	0.583310
	H49	H	0.587010	0.885149	0.588870
	H50	H	0.590632	0.111537	0.408533
	H51	H	0.405667	0.886946	0.409191
	H52	H	0.585539	0.409245	0.105956
	H53	H	0.586029	0.592336	0.881441
	H54	H	0.410050	0.590687	0.105564
	H55	H	0.411601	0.413367	0.883642
	H56	H	0.109822	0.579772	0.403458
	H57	H	0.887597	0.582692	0.586006
	H58	H	0.108089	0.416200	0.584731
	H59	H	0.886232	0.409084	0.403538
	H60	H	0.113416	0.406592	0.589262
	H61	H	0.884762	0.590776	0.587469
	H62	H	0.115681	0.589941	0.396887
	H63	H	0.887908	0.409923	0.402861
	H64	H	0.405096	0.590427	0.107062
	H65	H	0.593282	0.590988	0.879576
	H66	H	0.590035	0.412833	0.105623
	H67	H	0.411250	0.409174	0.881862
	H68	H	0.590023	0.114012	0.402101
	H69	H	0.585008	0.888741	0.581581
	H70	H	0.411368	0.109602	0.579822
	H71	H	0.412707	0.885298	0.399682
	H72	H	0.908560	0.608667	0.078775
	H73	H	0.084612	0.387630	0.079553
	H74	H	0.085172	0.609603	0.903608
	H75	H	0.899786	0.381704	0.902233
	H76	H	0.092006	0.908785	0.607222
	H77	H	0.091159	0.092101	0.380087
	H78	H	0.902963	0.087815	0.607299
	H79	H	0.910906	0.912765	0.384811
	H80	H	0.608395	0.090679	0.914611
	H81	H	0.383241	0.102081	0.078303
	H82	H	0.613537	0.905194	0.088821
	H83	H	0.386036	0.909949	0.901263
	H84	H	0.611185	0.908264	0.081314
	H85	H	0.395304	0.076798	0.070291
	H86	H	0.608261	0.077427	0.903011
	H87	H	0.387564	0.908749	0.906663
	H88	H	0.912081	0.083898	0.602561
	H89	H	0.090075	0.078083	0.385797
	H90	H	0.087399	0.911226	0.605379
	H91	H	0.911525	0.903528	0.381307
	H92	H	0.090013	0.610643	0.906208
	H93	H	0.091979	0.384731	0.080903
	H94	H	0.909533	0.611963	0.086094
	H95	H	0.915224	0.384896	0.895819
	H96	H	0.409246	0.111366	0.582637
	H97	H	0.592986	0.886059	0.582641
	H98	H	0.584503	0.111678	0.405387
	H99	H	0.416707	0.890907	0.409298
	H100	H	0.584979	0.414364	0.103621
	H101	H	0.588577	0.585070	0.882052
	H102	H	0.407585	0.586618	0.104878
	H103	H	0.407002	0.411446	0.881841
	H104	H	0.111606	0.591984	0.409062
	H105	H	0.888708	0.588916	0.579895
	H106	H	0.110855	0.406547	0.577507
	H107	H	0.887250	0.409228	0.401972
	H108	H	0.915547	0.608792	0.082063
	H109	H	0.086478	0.384569	0.086437
	H110	H	0.089146	0.612984	0.900883
	H111	H	0.910893	0.389588	0.911931
	H112	H	0.087437	0.905699	0.606986
	H113	H	0.078662	0.087597	0.386587
	H114	H	0.911953	0.094681	0.605678
	H115	H	0.903532	0.908607	0.380617
	H116	H	0.615130	0.093144	0.898575
	H117	H	0.384621	0.079518	0.097794
	H118	H	0.611196	0.913520	0.087323
	H119	H	0.388821	0.913727	0.904277
	C120	C	0.378860	0.006598	0.614926
	C121	C	0.620518	0.990914	0.615813
	C122	C	0.619772	0.008044	0.373699
	C123	C	0.377899	0.990826	0.373206
	C124	C	0.619865	0.377729	0.002493
	C125	C	0.620454	0.620114	0.985203
	C126	C	0.376358	0.621181	0.001821
	C127	C	0.377283	0.378226	0.985384
	C128	C	0.008125	0.619063	0.372262
	C129	C	0.991156	0.618779	0.615434
	C130	C	0.007115	0.377388	0.614936
	C131	C	0.990814	0.376926	0.371567
	C132	C	0.878250	0.506325	0.114996
	C133	C	0.120101	0.489710	0.114045
	C134	C	0.119600	0.506566	0.872511
	C135	C	0.876920	0.489750	0.871946
	C136	C	0.120974	0.876759	0.502988
	C137	C	0.120255	0.119691	0.486557
	C138	C	0.877319	0.120196	0.501784
	C139	C	0.877459	0.876821	0.485978
	C140	C	0.507558	0.120503	0.872308
	C141	C	0.490081	0.120191	0.115602
	C142	C	0.507791	0.877530	0.116373
	C143	C	0.491021	0.878153	0.872819
	C144	C	0.376431	0.888536	0.675542
	C145	C	0.622330	0.109853	0.674868
	C146	C	0.620596	0.888985	0.314857
	C147	C	0.373029	0.108312	0.311580
	C148	C	0.680289	0.374181	0.885497
	C149	C	0.679453	0.620798	0.103623
	C150	C	0.317158	0.623085	0.883904
	C151	C	0.316396	0.374778	0.102388
	C152	C	0.889365	0.677901	0.372249
	C153	C	0.110280	0.676891	0.615306
	C154	C	0.888198	0.319037	0.614053
	C155	C	0.109349	0.317977	0.371294
	C156	C	0.888502	0.375707	0.673277
	C157	C	0.109750	0.619727	0.674175
	C158	C	0.889658	0.620810	0.313306
	C159	C	0.109210	0.375230	0.312835
	C160	C	0.376142	0.680175	0.883719
	C161	C	0.620655	0.677950	0.104301
	C162	C	0.621917	0.316725	0.885283
	C163	C	0.374120	0.316866	0.102436
	C164	C	0.678168	0.888691	0.372734
	C165	C	0.680390	0.109492	0.617475
	C166	C	0.318900	0.888177	0.617455
	C167	C	0.315753	0.108092	0.369599
	C168	C	0.874337	0.388733	0.176257
	C169	C	0.122994	0.607788	0.174426
	C170	C	0.120819	0.387397	0.813953
	C171	C	0.876107	0.608850	0.813375
	C172	C	0.181315	0.874397	0.385889
	C173	C	0.181646	0.123773	0.603089
	C174	C	0.816923	0.122155	0.384195
	C175	C	0.817928	0.874544	0.603560
	C176	C	0.389939	0.181156	0.870050
	C177	C	0.607148	0.182295	0.119279
	C178	C	0.389131	0.819341	0.116103
	C179	C	0.609616	0.819272	0.872933
	C180	C	0.389519	0.876249	0.175131
	C181	C	0.607344	0.124184	0.176974
	C182	C	0.390422	0.124524	0.811082
	C183	C	0.609150	0.876263	0.814049
	C184	C	0.875211	0.179674	0.383831
	C185	C	0.123312	0.181475	0.603196
	C186	C	0.122687	0.817049	0.385149
	C187	C	0.876998	0.817555	0.604132
	C188	C	0.180065	0.388346	0.870022
	C189	C	0.180009	0.608222	0.115964
	C190	C	0.816662	0.388921	0.118464
	C191	C	0.818215	0.608809	0.870979
	C192	C	0.404156	0.088965	0.589238
	C193	C	0.595446	0.908040	0.591261
	C194	C	0.595333	0.090793	0.398200
	C195	C	0.404267	0.909115	0.398928
	C196	C	0.594018	0.404549	0.083958
	C197	C	0.596431	0.596326	0.902686
	C198	C	0.400629	0.596455	0.084254
	C199	C	0.402661	0.403942	0.903769
	C200	C	0.090776	0.594380	0.396193
	C201	C	0.908493	0.594528	0.591370
	C202	C	0.089423	0.402431	0.590911
	C203	C	0.908339	0.402073	0.395920
	C204	C	0.904008	0.588568	0.089375
	C205	C	0.094826	0.407018	0.089327
	C206	C	0.095089	0.589502	0.896741
	C207	C	0.901417	0.406820	0.896226
	C208	C	0.096114	0.901633	0.585239
	C209	C	0.093960	0.093291	0.405120
	C210	C	0.901692	0.095708	0.583866
	C211	C	0.901659	0.901228	0.403660
	C212	C	0.589325	0.094455	0.897970
	C213	C	0.408985	0.093707	0.089477
	C214	C	0.590509	0.902209	0.092666
	C215	C	0.408763	0.903497	0.897301
	Zn216	Zn	0.499373	-0.000359	0.744072
	Zn217	Zn	0.498565	-0.000444	0.245078
	Zn218	Zn	0.749312	0.498390	-0.005921
	Zn219	Zn	0.248188	0.498640	-0.006938
	Zn220	Zn	-0.000321	0.747567	0.494338
	Zn221	Zn	-0.001086	0.249064	0.493098
	Zn222	Zn	-0.001175	0.498031	0.744267
	Zn223	Zn	-0.000602	0.498154	0.242713
	Zn224	Zn	0.498950	0.749294	-0.005762
	Zn225	Zn	0.498512	0.249005	-0.005634
	Zn226	Zn	0.748357	-0.001288	0.494275
	Zn227	Zn	0.249789	-0.001493	0.494493
	N228	N	0.412997	0.963369	0.674121
	N229	N	0.585951	0.034986	0.674031
	N230	N	0.585038	0.964248	0.315213
	N231	N	0.411060	0.034450	0.313750
	N232	N	0.679204	0.411162	0.959518
	N233	N	0.679814	0.585929	0.028450
	N234	N	0.317273	0.587033	0.958426
	N235	N	0.318106	0.411939	0.028468
	N236	N	0.964141	0.677233	0.407821
	N237	N	0.035482	0.676479	0.579616
	N238	N	0.963076	0.319629	0.578939
	N239	N	0.034663	0.319063	0.406981
	N240	N	0.963668	0.410793	0.674401
	N241	N	0.034646	0.584503	0.674343
	N242	N	0.964697	0.585231	0.313114
	N243	N	0.034234	0.410973	0.312593
	N244	N	0.411933	0.679364	0.958304
	N245	N	0.584854	0.677873	0.029785
	N246	N	0.585158	0.318897	0.959293
	N247	N	0.411185	0.318652	0.028509
	N248	N	0.677958	0.963805	0.408445
	N249	N	0.679504	0.034358	0.581636
	N250	N	0.320091	0.962657	0.580787
	N251	N	0.318651	0.034041	0.407372
	N252	N	0.912277	0.462706	0.173871
	N253	N	0.086417	0.533025	0.173323
	N254	N	0.083950	0.461906	0.815294
	N255	N	0.911703	0.533634	0.813722
	N256	N	0.180219	0.910711	0.460296
	N257	N	0.179932	0.086104	0.529433
	N258	N	0.818245	0.085649	0.458552
	N259	N	0.818294	0.910805	0.529199
	N260	N	0.463693	0.178802	0.907621
	N261	N	0.533300	0.179918	0.081791
	N262	N	0.463681	0.820137	0.080350
	N263	N	0.535023	0.820324	0.908779
	N264	N	0.464470	0.911690	0.175538
	N265	N	0.533689	0.086234	0.174889
	N266	N	0.464791	0.087753	0.812402
	N267	N	0.534177	0.911913	0.813717
	N268	N	0.912111	0.178624	0.457827
	N269	N	0.085730	0.178958	0.529473
	N270	N	0.085633	0.818581	0.458995
	N271	N	0.913336	0.818652	0.529892
	N272	N	0.179383	0.463574	0.905627
	N273	N	0.178182	0.533757	0.079114
	N274	N	0.819261	0.463043	0.080631
	N275	N	0.818385	0.533559	0.906539
	O276	O	0.795666	0.794832	0.196662
	H277	H	0.789911	0.848236	0.204149
	H278	H	0.771793	0.768924	0.229561
	O279	O	-0.069853	-0.047980	0.824799
	H280	H	-0.082202	-0.033742	0.818096
	H281	H	-0.055628	-0.057184	0.822574
	O282	O	0.470585	0.678304	0.666447
	H283	H	0.488671	0.675835	0.665918
	H284	H	0.484394	0.667418	0.647442
	O285	O	0.384781	0.510052	0.462451
	H286	H	0.369468	0.514121	0.455121
	H287	H	0.392148	0.500847	0.464078
	O288	O	0.884783	-0.161652	0.877072
	H289	H	0.897402	-0.142096	0.882226
	H290	H	0.889451	-0.155857	0.887837
	O291	O	1.016771	0.990079	0.969646
	H292	H	1.013975	0.992582	0.972977
	H293	H	1.012659	0.983648	0.971799
	O294	O	0.216121	0.181936	0.006513
	H295	H	0.238147	0.207750	-0.001292
	H296	H	0.204986	0.165525	0.006512
	O297	O	0.964494	-0.221708	0.213745
	H298	H	0.950206	-0.242968	0.237432
	H299	H	0.939665	-0.223341	0.216181
	O300	O	0.031587	0.213396	0.214193
	H301	H	0.043804	0.229812	0.223317
	H302	H	0.031420	0.218238	0.210215
	O303	O	0.162072	0.048119	-0.111680
	H304	H	0.161509	0.051273	-0.110018
	H305	H	0.171848	0.048290	-0.117626
	O306	O	1.217668	-0.209276	-0.033877
	H307	H	1.232592	-0.222542	-0.053735
	H308	H	1.223336	-0.210557	-0.023124
	O309	O	0.670372	0.674690	0.305289
	H310	H	0.661638	0.652221	0.325390
	H311	H	0.647989	0.656888	0.317632
	O312	O	0.509863	0.286424	0.299667
	H313	H	0.539413	0.286401	0.293920
	H314	H	0.520759	0.268941	0.302686
	O315	O	0.590460	0.495873	0.623935
	H316	H	0.592563	0.486476	0.622325
	H317	H	0.591928	0.494441	0.628071
	O318	O	1.152872	0.907988	0.000151
	H319	H	1.144685	0.907277	-0.010671
	H320	H	1.162317	0.918398	0.014332
	O321	O	0.199869	0.800714	0.803601
	H322	H	0.164794	0.806575	0.797909
	H323	H	0.215564	0.780390	0.813405
	O324	O	0.785621	0.212322	0.962672
	H325	H	0.781226	0.220753	0.966015
	H326	H	0.781157	0.218581	0.967126
	O327	O	0.716642	0.528985	0.709789
	H328	H	0.714791	0.531016	0.716425
	H329	H	0.728255	0.535685	0.727222
	O330	O	0.073878	1.025123	-0.148977
	H331	H	0.076694	1.029492	-0.147389
	H332	H	0.071549	1.006456	-0.145731
	O333	O	0.564620	0.375961	0.652149
	H334	H	0.561004	0.375870	0.657411
	H335	H	0.544073	0.370173	0.660854
	O336	O	0.693140	0.386012	0.530686
	H337	H	0.687269	0.397684	0.518115
	H338	H	0.672145	0.396334	0.533780
	O339	O	0.296646	0.402331	0.606709
	H340	H	0.302012	0.401006	0.591182
	H341	H	0.285765	0.415168	0.611090
	O342	O	0.034640	0.787393	-0.215106
	H343	H	0.019850	0.784311	-0.211408
	H344	H	0.034588	0.784214	-0.212280
	O345	O	0.538668	0.461054	0.468267
	H346	H	0.531698	0.443441	0.481089
	H347	H	0.545578	0.468222	0.460441
	O348	O	0.458663	0.620912	0.713361
	H349	H	0.462955	0.615521	0.708505
	H350	H	0.463336	0.647910	0.716601
	O351	O	0.368641	0.298815	1.362971
	H352	H	0.392882	0.291992	1.355288
	H353	H	0.350224	0.291102	1.345250
	O354	O	1.033490	-0.075313	1.213009
	H355	H	1.031248	-0.082215	1.204239
	H356	H	1.013715	-0.078954	1.212809
	O357	O	0.358451	0.613636	0.522190
	H358	H	0.354373	0.621344	0.530811
	H359	H	0.343921	0.609693	0.519311
	O360	O	0.449553	0.473326	0.391618
	H361	H	0.457024	0.466771	0.387981
	H362	H	0.456672	0.475187	0.389477
	O363	O	0.687528	0.310409	0.299657
	H364	H	0.701362	0.319648	0.280230
	H365	H	0.693696	0.323988	0.327298
	O366	O	0.629631	0.582931	0.525525
	H367	H	0.633537	0.582962	0.533384
	H368	H	0.630047	0.586002	0.533332
	O369	O	-0.075437	-0.166861	0.953761
	H370	H	-0.079419	-0.181877	0.976384
	H371	H	-0.091304	-0.167999	0.960230
	O372	O	0.202259	1.194353	1.193495
	H373	H	0.200134	1.166738	1.178053
	H374	H	0.179472	1.182403	1.186077
	O375	O	1.002746	0.042923	-0.085254
	H376	H	1.008068	0.026807	-0.084494
	H377	H	0.991390	0.037200	-0.087258
	O378	O	0.485706	0.675303	0.641432
	H379	H	0.502995	0.684481	0.625692
	H380	H	0.495433	0.683406	0.649646
	O381	O	-0.200227	1.196943	-0.207166
	H382	H	-0.189586	1.204743	-0.172567
	H383	H	-0.199560	1.209378	-0.225416
	O384	O	0.549339	0.518926	0.518298
	H385	H	0.563360	0.518843	0.506493
	H386	H	0.544589	0.518986	0.514654
	O387	O	0.167455	1.021740	1.202363
	H388	H	0.176430	1.019778	1.210647
	H389	H	0.149690	1.007642	1.197674
	O390	O	-0.054306	1.069237	1.003321
	H391	H	-0.056277	1.070410	0.985755
	H392	H	-0.063167	1.063915	1.003023
	O393	O	0.974033	0.202176	0.042887
	H394	H	0.989325	0.207081	0.032909
	H395	H	0.968740	0.201646	0.038027
	O396	O	0.304309	0.533933	0.282094
	H397	H	0.306724	0.526436	0.273528
	H398	H	0.303766	0.517640	0.275611
	O399	O	0.500752	0.383397	0.497276
	H400	H	0.486962	0.378551	0.494326
	H401	H	0.490922	0.369109	0.496831
	O402	O	0.968371	0.212984	0.775169
	H403	H	0.971837	0.212487	0.757938
	H404	H	0.971340	0.211108	0.756920
	O405	O	0.499142	0.670537	0.352098
	H406	H	0.490437	0.678500	0.360013
	H407	H	0.491385	0.676906	0.352052
	O408	O	0.781178	1.029740	0.777311
	H409	H	0.769759	1.044302	0.765230
	H410	H	0.778044	1.052729	0.770528
	O411	O	1.064997	0.786712	0.051495
	H412	H	1.075018	0.778013	0.058481
	H413	H	1.064223	0.788169	0.055308
	O414	O	0.222127	-0.202819	0.194184
	H415	H	0.217971	-0.184960	0.189890
	H416	H	0.225754	-0.196555	0.188011
	O417	O	0.126996	0.136785	0.882251
	H418	H	0.130382	0.141033	0.878387
	H419	H	0.115136	0.145925	0.878039
	O420	O	0.864907	0.018493	0.940753
	H421	H	0.861368	0.027410	0.922920
	H422	H	0.856586	0.005177	0.944939
	O423	O	1.003573	1.084877	0.165029
	H424	H	1.011756	1.079386	0.165005
	H425	H	1.014154	1.106747	0.157006
	O426	O	0.324640	0.293618	0.505448
	H427	H	0.312001	0.277462	0.503649
	H428	H	0.328689	0.299936	0.500842
	O429	O	0.300831	0.417748	0.692189
	H430	H	0.307516	0.432152	0.689405
	H431	H	0.295783	0.422163	0.711172
	O432	O	0.808754	0.144484	1.148458
	H433	H	0.814456	0.130179	1.127559
	H434	H	0.826621	0.148697	1.151792
	O435	O	0.735415	0.734749	0.727399
	H436	H	0.746117	0.765821	0.748242
	H437	H	0.741313	0.714981	0.737918
	O438	O	0.288306	0.656877	0.480881
	H439	H	0.282570	0.658795	0.461306
	H440	H	0.273259	0.662271	0.474778
	O441	O	0.780515	0.774901	0.031030
	H442	H	0.755494	0.752254	0.044896
	H443	H	0.777779	0.773640	0.069815
	O444	O	0.528284	0.639761	0.351551
	H445	H	0.528257	0.650938	0.346387
	H446	H	0.513461	0.650050	0.357333
	O447	O	0.475947	0.287724	0.704211
	H448	H	0.458625	0.274961	0.717290
	H449	H	0.455646	0.284740	0.701963
	O450	O	1.219065	-0.029780	-0.225435
	H451	H	1.220908	-0.051197	-0.228010
	H452	H	1.240261	-0.037702	-0.239223
	O453	O	0.697377	0.294383	0.460296
	H454	H	0.707059	0.292669	0.456879
	H455	H	0.690118	0.291261	0.468474
	O456	O	0.128372	1.188137	0.878289
	H457	H	0.125024	1.166550	0.882363
	H458	H	0.110098	1.186363	0.879059
	O459	O	0.518463	0.592725	0.528011
	H460	H	0.515222	0.593117	0.536086
	H461	H	0.521384	0.607162	0.535511
	O462	O	0.646899	0.486546	0.290120
	H463	H	0.634390	0.493887	0.287802
	H464	H	0.657332	0.483964	0.306188
	O465	O	0.715891	0.651373	0.497150
	H466	H	0.722527	0.664380	0.512553
	H467	H	0.713657	0.646261	0.527703
	O468	O	0.296398	0.703626	0.289355
	H469	H	0.283186	0.723857	0.283616
	H470	H	0.301699	0.662030	0.281142
	O471	O	0.425673	0.524685	0.481575
	H472	H	0.419156	0.533881	0.472571
	H473	H	0.419434	0.520108	0.488385
	O474	O	0.842240	1.027150	0.124726
	H475	H	0.834755	1.033451	0.110238
	H476	H	0.838568	1.012203	0.113586
	O477	O	-0.174091	-0.034004	1.182192
	H478	H	-0.184198	-0.021266	1.178227
	H479	H	-0.165352	-0.015102	1.186242
