data_Molecule from HDF5

_cell_length_a		16.217157
_cell_length_b		16.418671
_cell_length_c		16.143285
_cell_angle_alpha	90.572389
_cell_angle_beta	89.917444
_cell_angle_gamma	90.504278
_symmetry_space_group_name_H-M	'P 1'
_symmetry_Int_Tables_number		1

loop_
	_symmetry_equiv_pos_as_xyz
	x,y,z

loop_
	_atom_site_label
	_atom_site_type_symbol
	_atom_site_fract_x
	_atom_site_fract_y
	_atom_site_fract_z
	H0	H	0.398212	0.837582	0.715115
	H1	H	0.597983	0.163578	0.716571
	H2	H	0.594576	0.839008	0.283051
	H3	H	0.401093	0.163872	0.287955
	H4	H	0.711821	0.403609	0.833983
	H5	H	0.716701	0.602967	0.164401
	H6	H	0.290498	0.596543	0.833221
	H7	H	0.284272	0.404306	0.163626
	H8	H	0.836551	0.713950	0.398367
	H9	H	0.162986	0.720569	0.601076
	H10	H	0.837381	0.283973	0.599327
	H11	H	0.163422	0.282233	0.394876
	H12	H	0.836058	0.403256	0.711491
	H13	H	0.166018	0.600902	0.711124
	H14	H	0.836260	0.594276	0.286047
	H15	H	0.165644	0.402720	0.284310
	H16	H	0.402675	0.714729	0.835493
	H17	H	0.603456	0.719937	0.164346
	H18	H	0.602479	0.281962	0.837483
	H19	H	0.397775	0.288600	0.164443
	H20	H	0.711738	0.837737	0.399170
	H21	H	0.718126	0.162058	0.602771
	H22	H	0.279706	0.838818	0.600052
	H23	H	0.285511	0.163635	0.404405
	H24	H	0.900261	0.337342	0.211629
	H25	H	0.102107	0.662101	0.217763
	H26	H	0.097915	0.338795	0.781406
	H27	H	0.904128	0.664213	0.785468
	H28	H	0.212530	0.901496	0.335000
	H29	H	0.213416	0.102171	0.664884
	H30	H	0.787628	0.094393	0.334873
	H31	H	0.783564	0.901480	0.664731
	H32	H	0.335958	0.215341	0.901122
	H33	H	0.662354	0.220778	0.104536
	H34	H	0.337036	0.781792	0.102165
	H35	H	0.663962	0.785798	0.897524
	H36	H	0.333536	0.903779	0.212707
	H37	H	0.664121	0.100069	0.214057
	H38	H	0.333561	0.094394	0.790801
	H39	H	0.663297	0.903055	0.784315
	H40	H	0.900190	0.212232	0.335521
	H41	H	0.103569	0.221628	0.662363
	H42	H	0.100080	0.783511	0.336701
	H43	H	0.897565	0.784981	0.664060
	H44	H	0.215554	0.339108	0.896334
	H45	H	0.217927	0.663073	0.099737
	H46	H	0.780711	0.340118	0.098504
	H47	H	0.786488	0.663937	0.900668
	H48	H	0.408552	0.113503	0.592188
	H49	H	0.587298	0.888788	0.585381
	H50	H	0.586402	0.114081	0.410179
	H51	H	0.397809	0.883630	0.405721
	H52	H	0.590170	0.415973	0.115055
	H53	H	0.588573	0.589985	0.885744
	H54	H	0.410260	0.599628	0.117589
	H55	H	0.416647	0.402245	0.883632
	H56	H	0.122240	0.601465	0.400216
	H57	H	0.882041	0.597235	0.594846
	H58	H	0.114266	0.415087	0.586122
	H59	H	0.882251	0.400413	0.407040
	H60	H	0.118975	0.409714	0.594845
	H61	H	0.884937	0.594174	0.586454
	H62	H	0.114454	0.597541	0.422376
	H63	H	0.885043	0.406507	0.407891
	H64	H	0.404926	0.591038	0.118149
	H65	H	0.591995	0.601419	0.881324
	H66	H	0.587143	0.408570	0.116694
	H67	H	0.404080	0.400073	0.878709
	H68	H	0.600435	0.115663	0.416260
	H69	H	0.599838	0.882732	0.592176
	H70	H	0.401779	0.116969	0.596387
	H71	H	0.409981	0.885445	0.401199
	H72	H	0.911087	0.614516	0.090509
	H73	H	0.099923	0.383999	0.087247
	H74	H	0.098320	0.617943	0.902253
	H75	H	0.911608	0.386474	0.900795
	H76	H	0.086463	0.914320	0.614652
	H77	H	0.093704	0.080629	0.385495
	H78	H	0.908376	0.087081	0.614807
	H79	H	0.909082	0.905020	0.383948
	H80	H	0.614294	0.096714	0.916579
	H81	H	0.382544	0.100542	0.088529
	H82	H	0.614947	0.909892	0.090151
	H83	H	0.382296	0.899104	0.910712
	H84	H	0.615071	0.912069	0.092415
	H85	H	0.385029	0.088852	0.093286
	H86	H	0.614426	0.086972	0.909872
	H87	H	0.385636	0.908848	0.913457
	H88	H	0.915520	0.096002	0.615873
	H89	H	0.081482	0.096083	0.384444
	H90	H	0.085083	0.906089	0.617507
	H91	H	0.904835	0.901631	0.381336
	H92	H	0.094542	0.616814	0.905987
	H93	H	0.091540	0.383842	0.095915
	H94	H	0.908035	0.615942	0.092851
	H95	H	0.906456	0.388068	0.910092
	H96	H	0.408744	0.115986	0.600156
	H97	H	0.586415	0.883671	0.599249
	H98	H	0.597921	0.119997	0.402294
	H99	H	0.406898	0.888635	0.413878
	H100	H	0.595354	0.409932	0.119400
	H101	H	0.600504	0.591411	0.881328
	H102	H	0.414633	0.590915	0.114633
	H103	H	0.407375	0.412978	0.883392
	H104	H	0.113676	0.580274	0.405937
	H105	H	0.885075	0.587807	0.593826
	H106	H	0.118046	0.404892	0.584682
	H107	H	0.882826	0.403621	0.401376
	H108	H	0.911738	0.615530	0.094579
	H109	H	0.089293	0.387923	0.085167
	H110	H	0.099170	0.616849	0.907481
	H111	H	0.901663	0.383905	0.901546
	H112	H	0.092986	0.910096	0.618887
	H113	H	0.100919	0.097781	0.378456
	H114	H	0.905117	0.097096	0.619849
	H115	H	0.904101	0.906919	0.382111
	H116	H	0.617465	0.097845	0.905962
	H117	H	0.379686	0.097377	0.100886
	H118	H	0.616335	0.909289	0.092810
	H119	H	0.382262	0.906980	0.904413
	C120	C	0.375908	0.008568	0.624187
	C121	C	0.621099	0.992284	0.622527
	C122	C	0.621683	0.009439	0.378623
	C123	C	0.376967	0.993017	0.379165
	C124	C	0.620621	0.381160	0.008499
	C125	C	0.623397	0.624318	0.991457
	C126	C	0.381252	0.621451	0.007711
	C127	C	0.378794	0.378814	0.990803
	C128	C	0.008890	0.620898	0.379213
	C129	C	0.992249	0.623372	0.620889
	C130	C	0.008903	0.380292	0.618181
	C131	C	0.992179	0.376375	0.375889
	C132	C	0.879517	0.508450	0.120562
	C133	C	0.123299	0.492081	0.120345
	C134	C	0.124248	0.509813	0.875341
	C135	C	0.879027	0.493695	0.876687
	C136	C	0.118583	0.880356	0.508631
	C137	C	0.121439	0.122438	0.491040
	C138	C	0.879730	0.120518	0.508231
	C139	C	0.876372	0.876662	0.491086
	C140	C	0.507356	0.121572	0.881180
	C141	C	0.490655	0.125018	0.124079
	C142	C	0.507271	0.880217	0.121414
	C143	C	0.491397	0.877754	0.878778
	C144	C	0.377759	0.886327	0.677966
	C145	C	0.619273	0.114629	0.679086
	C146	C	0.616568	0.887074	0.321562
	C147	C	0.380103	0.115139	0.325006
	C148	C	0.675184	0.382641	0.883946
	C149	C	0.679282	0.623086	0.115086
	C150	C	0.327284	0.617936	0.883087
	C151	C	0.322319	0.383296	0.114454
	C152	C	0.885474	0.675450	0.379536
	C153	C	0.114559	0.681287	0.620438
	C154	C	0.886072	0.323074	0.618127
	C155	C	0.115184	0.321202	0.376398
	C156	C	0.885324	0.382739	0.673679
	C157	C	0.116194	0.621712	0.675006
	C158	C	0.885206	0.616186	0.323515
	C159	C	0.116099	0.380699	0.320896
	C160	C	0.383319	0.676366	0.884101
	C161	C	0.623130	0.681343	0.115046
	C162	C	0.620597	0.322214	0.885643
	C163	C	0.378532	0.325419	0.114994
	C164	C	0.674602	0.886441	0.379226
	C165	C	0.678774	0.113864	0.622284
	C166	C	0.318523	0.887056	0.621201
	C167	C	0.322343	0.114985	0.382688
	C168	C	0.880144	0.386257	0.174571
	C169	C	0.122345	0.613886	0.178647
	C170	C	0.119750	0.387535	0.819125
	C171	C	0.882793	0.615560	0.822659
	C172	C	0.174821	0.881594	0.384554
	C173	C	0.176513	0.122211	0.615192
	C174	C	0.824764	0.115704	0.384167
	C175	C	0.821134	0.880368	0.615177
	C176	C	0.384647	0.177214	0.881641
	C177	C	0.613618	0.181834	0.123335
	C178	C	0.385082	0.821879	0.121077
	C179	C	0.614826	0.823446	0.878535
	C180	C	0.383278	0.882613	0.175850
	C181	C	0.614392	0.122015	0.178324
	C182	C	0.383346	0.116754	0.827090
	C183	C	0.614503	0.881714	0.822105
	C184	C	0.880582	0.174489	0.384498
	C185	C	0.121775	0.181542	0.613952
	C186	C	0.119074	0.822855	0.385339
	C187	C	0.877566	0.822262	0.614740
	C188	C	0.177982	0.387535	0.876526
	C189	C	0.179698	0.614491	0.119897
	C190	C	0.820877	0.387610	0.118125
	C191	C	0.824197	0.615206	0.880010
	C192	C	0.399203	0.093558	0.602457
	C193	C	0.598050	0.907147	0.599006
	C194	C	0.601060	0.094326	0.402456
	C195	C	0.398561	0.908036	0.400847
	C196	C	0.597654	0.404742	0.094640
	C197	C	0.600049	0.601166	0.905194
	C198	C	0.403520	0.600057	0.094272
	C199	C	0.402436	0.399332	0.904399
	C200	C	0.094551	0.599506	0.402739
	C201	C	0.906205	0.599936	0.598442
	C202	C	0.094892	0.403297	0.595228
	C203	C	0.906002	0.397314	0.398638
	C204	C	0.903412	0.593538	0.099094
	C205	C	0.100238	0.407366	0.096403
	C206	C	0.103418	0.595195	0.898370
	C207	C	0.900249	0.408320	0.897987
	C208	C	0.095018	0.903348	0.594668
	C209	C	0.098603	0.098473	0.404986
	C210	C	0.902721	0.099344	0.594643
	C211	C	0.899131	0.898152	0.404539
	C212	C	0.593182	0.100266	0.904111
	C213	C	0.404700	0.102171	0.101034
	C214	C	0.593152	0.903600	0.098456
	C215	C	0.405495	0.898593	0.902573
	Zn216	Zn	0.498878	0.000221	0.752097
	Zn217	Zn	0.498814	0.001952	0.250014
	Zn218	Zn	0.749525	0.501949	-0.000698
	Zn219	Zn	0.252511	0.501137	-0.001959
	Zn220	Zn	-0.000794	0.750701	0.499751
	Zn221	Zn	0.000620	0.249349	0.498530
	Zn222	Zn	0.001372	0.501548	0.747429
	Zn223	Zn	0.001221	0.499489	0.249767
	Zn224	Zn	0.501056	0.750570	0.000520
	Zn225	Zn	0.499396	0.251632	0.001370
	Zn226	Zn	0.750613	-0.000148	0.500197
	Zn227	Zn	0.247686	0.000410	0.500663
	N228	N	0.412718	0.962977	0.679975
	N229	N	0.584239	0.037901	0.679406
	N230	N	0.584292	0.964286	0.320995
	N231	N	0.413335	0.038341	0.322666
	N232	N	0.675218	0.418530	0.961235
	N233	N	0.679544	0.588311	0.037220
	N234	N	0.326030	0.584434	0.960839
	N235	N	0.322160	0.415576	0.036101
	N236	N	0.963302	0.678364	0.413539
	N237	N	0.036407	0.682404	0.587588
	N238	N	0.963930	0.321693	0.584289
	N239	N	0.036953	0.318084	0.409611
	N240	N	0.962721	0.417491	0.674057
	N241	N	0.038853	0.586297	0.675431
	N242	N	0.962726	0.582882	0.323146
	N243	N	0.038650	0.414357	0.320585
	N244	N	0.416002	0.678932	0.962630
	N245	N	0.589461	0.682572	0.036895
	N246	N	0.587254	0.321093	0.964125
	N247	N	0.413118	0.322531	0.037247
	N248	N	0.678025	0.963313	0.413826
	N249	N	0.680147	0.036850	0.588094
	N250	N	0.317556	0.964047	0.588401
	N251	N	0.320234	0.038083	0.415663
	N252	N	0.915824	0.462527	0.176184
	N253	N	0.088214	0.536894	0.179092
	N254	N	0.087405	0.464637	0.818038
	N255	N	0.916383	0.538989	0.820632
	N256	N	0.174731	0.916780	0.462303
	N257	N	0.176474	0.086140	0.537939
	N258	N	0.824119	0.082795	0.462316
	N259	N	0.820238	0.913466	0.537308
	N260	N	0.462708	0.180129	0.914852
	N261	N	0.535378	0.184027	0.090471
	N262	N	0.463187	0.820365	0.088061
	N263	N	0.537170	0.820629	0.913077
	N264	N	0.460489	0.918341	0.176100
	N265	N	0.536895	0.087455	0.178840
	N266	N	0.460789	0.083043	0.826602
	N267	N	0.536889	0.914652	0.822238
	N268	N	0.914069	0.177574	0.462522
	N269	N	0.088197	0.181825	0.535813
	N270	N	0.084699	0.822206	0.463231
	N271	N	0.911126	0.819708	0.536381
	N272	N	0.181058	0.464650	0.910677
	N273	N	0.180508	0.537982	0.084279
	N274	N	0.820369	0.464674	0.085235
	N275	N	0.821760	0.538167	0.912844
	O276	O	0.492367	0.543706	0.502704
	H277	H	0.483072	0.539006	0.499165
	H278	H	0.490181	0.544965	0.506497
	O279	O	0.550417	0.475676	0.458279
	H280	H	0.560437	0.476405	0.468896
	H281	H	0.557828	0.477711	0.454632
	O282	O	0.989476	1.045768	0.037882
	H283	H	0.981644	1.053136	0.035303
	H284	H	0.985908	1.048942	0.040933
	O285	O	1.045733	-0.038460	0.980922
	H286	H	1.049514	-0.039462	0.974891
	H287	H	1.043396	-0.051730	0.982948
	O288	O	0.561987	0.561360	0.487635
	H289	H	0.556290	0.555344	0.487277
	H290	H	0.559586	0.573568	0.494889
	O291	O	0.478600	0.557175	0.494607
	H292	H	0.466130	0.551955	0.496166
	H293	H	0.477112	0.568678	0.497785
	O294	O	0.615885	0.472238	0.471136
	H295	H	0.620663	0.477167	0.469661
	H296	H	0.608433	0.488846	0.466601
	O297	O	-0.097837	0.007822	0.940808
	H298	H	-0.104928	0.003346	0.944399
	H299	H	-0.097791	0.001525	0.933689
	O300	O	0.468923	0.501680	0.466611
	H301	H	0.467830	0.512161	0.461047
	H302	H	0.475349	0.503004	0.470355
	O303	O	1.036397	0.995540	0.035528
	H304	H	1.026492	0.999586	0.037272
	H305	H	1.034863	1.001383	0.035729
	O306	O	-0.038849	0.956289	0.972352
	H307	H	-0.031591	0.952316	0.988152
	H308	H	-0.059999	0.950098	0.973336
	O309	O	0.512863	0.529019	0.593636
	H310	H	0.520653	0.540163	0.593735
	H311	H	0.509230	0.521606	0.601510
	O312	O	-0.076829	0.057955	-0.055992
	H313	H	-0.074466	0.056523	-0.059063
	H314	H	-0.081082	0.054826	-0.047777
	O315	O	0.901457	-0.070323	0.022445
	H316	H	0.893574	-0.068886	0.028669
	H317	H	0.900601	-0.051582	0.020742
	O318	O	1.029550	0.876901	0.980223
	H319	H	1.031736	0.872628	0.970628
	H320	H	1.043041	0.866817	0.993572
	O321	O	0.018794	0.138614	1.109090
	H322	H	0.019199	0.134524	1.108461
	H323	H	0.033329	0.149705	1.120885
	O324	O	0.554862	0.423896	0.503483
	H325	H	0.557645	0.414748	0.502349
	H326	H	0.562091	0.422048	0.501415
	O327	O	0.039401	-0.038410	-0.024353
	H328	H	0.044645	-0.035194	-0.022692
	H329	H	0.034334	-0.043723	-0.027870
	O330	O	0.510022	0.610122	0.568965
	H331	H	0.503639	0.609881	0.575294
	H332	H	0.501920	0.606269	0.564152
	O333	O	-0.082467	1.018644	0.927474
	H334	H	-0.091012	1.014762	0.914945
	H335	H	-0.072942	1.015779	0.926426
	O336	O	0.068190	-0.014797	-0.043752
	H337	H	0.065309	-0.017634	-0.038110
	H338	H	0.077110	-0.007958	-0.047100
	O339	O	0.464924	0.461403	0.493179
	H340	H	0.465372	0.451780	0.489732
	H341	H	0.470886	0.448321	0.488624
	O342	O	1.019792	1.069630	0.934584
	H343	H	1.024059	1.077707	0.936347
	H344	H	1.020172	1.065367	0.924698
	O345	O	1.098496	0.977919	0.028697
	H346	H	1.098047	0.985358	0.027715
	H347	H	1.095819	0.963110	0.026980
	O348	O	0.520594	0.403177	0.533947
	H349	H	0.518084	0.406417	0.532844
	H350	H	0.528363	0.406526	0.543493
	O351	O	0.568649	0.476568	0.518456
	H352	H	0.565860	0.474629	0.518061
	H353	H	0.567150	0.471263	0.513744
	O354	O	0.573981	0.420035	0.381089
	H355	H	0.586052	0.420064	0.370896
	H356	H	0.578403	0.410680	0.368757
	O357	O	1.029219	0.030623	0.958267
	H358	H	1.032011	0.016360	0.951837
	H359	H	1.033262	0.036709	0.959466
	O360	O	0.545699	0.469497	0.501832
	H361	H	0.539918	0.469664	0.507623
	H362	H	0.555300	0.482078	0.509217
	O363	O	0.407654	0.538504	0.434865
	H364	H	0.413053	0.541679	0.433878
	H365	H	0.408675	0.521932	0.439252
	O366	O	0.880474	0.894016	0.990336
	H367	H	0.880449	0.895224	1.000372
	H368	H	0.870074	0.876007	0.997175
	O369	O	0.914508	0.129601	1.053467
	H370	H	0.918367	0.138730	1.062385
	H371	H	0.916111	0.134576	1.039162
	O372	O	0.112481	0.013760	0.062019
	H373	H	0.111052	0.026312	0.067320
	H374	H	0.119119	0.024537	0.053997
	O375	O	0.939942	-0.004257	0.067311
	H376	H	0.934384	-0.003175	0.077187
	H377	H	0.935635	-0.011965	0.064677
	O378	O	0.444018	0.521210	0.481658
	H379	H	0.450432	0.521450	0.499064
	H380	H	0.442150	0.516726	0.477742
	O381	O	0.497895	0.498627	0.578633
	H382	H	0.498401	0.499229	0.569471
	H383	H	0.486570	0.503575	0.579321
