data_Molecule from HDF5

_cell_length_a		16.569131
_cell_length_b		16.535827
_cell_length_c		16.542272
_cell_angle_alpha	89.920628
_cell_angle_beta	90.038630
_cell_angle_gamma	90.086168
_symmetry_space_group_name_H-M	'P 1'
_symmetry_Int_Tables_number		1

loop_
	_symmetry_equiv_pos_as_xyz
	x,y,z

loop_
	_atom_site_label
	_atom_site_type_symbol
	_atom_site_fract_x
	_atom_site_fract_y
	_atom_site_fract_z
	H0	H	0.396975	0.844323	0.717325
	H1	H	0.604071	0.160023	0.719340
	H2	H	0.599992	0.843989	0.281789
	H3	H	0.396899	0.160772	0.279650
	H4	H	0.718253	0.396380	0.840414
	H5	H	0.719782	0.604979	0.154029
	H6	H	0.280014	0.604712	0.841191
	H7	H	0.279753	0.398637	0.157280
	H8	H	0.842021	0.720968	0.394875
	H9	H	0.155663	0.721304	0.601279
	H10	H	0.840322	0.280399	0.603915
	H11	H	0.156713	0.283407	0.396942
	H12	H	0.840040	0.396882	0.719725
	H13	H	0.156081	0.604916	0.717878
	H14	H	0.842764	0.605527	0.277533
	H15	H	0.155120	0.396513	0.277586
	H16	H	0.397056	0.720739	0.840715
	H17	H	0.603703	0.721496	0.155383
	H18	H	0.601632	0.281173	0.840800
	H19	H	0.395169	0.281822	0.156389
	H20	H	0.717518	0.844175	0.396935
	H21	H	0.721931	0.159097	0.605159
	H22	H	0.277716	0.845501	0.603342
	H23	H	0.280871	0.161854	0.396703
	H24	H	0.890953	0.345218	0.222007
	H25	H	0.103793	0.657546	0.219936
	H26	H	0.104647	0.345361	0.776980
	H27	H	0.894524	0.658819	0.778222
	H28	H	0.219206	0.897713	0.341889
	H29	H	0.220065	0.108203	0.655420
	H30	H	0.777864	0.106957	0.341931
	H31	H	0.778375	0.896257	0.654535
	H32	H	0.342541	0.225762	0.890825
	H33	H	0.653482	0.225267	0.106001
	H34	H	0.342002	0.780018	0.104425
	H35	H	0.655395	0.781146	0.894273
	H36	H	0.342230	0.895945	0.221053
	H37	H	0.654213	0.108343	0.221624
	H38	H	0.343114	0.109728	0.774920
	H39	H	0.654478	0.895160	0.775167
	H40	H	0.892930	0.224476	0.342141
	H41	H	0.102775	0.223171	0.655891
	H42	H	0.104098	0.780542	0.342039
	H43	H	0.894514	0.780655	0.654365
	H44	H	0.221408	0.345872	0.892622
	H45	H	0.219777	0.658018	0.104354
	H46	H	0.773974	0.345330	0.106363
	H47	H	0.776120	0.656969	0.892924
	H48	H	0.411768	0.112909	0.582567
	H49	H	0.592396	0.891069	0.583259
	H50	H	0.590382	0.111247	0.421374
	H51	H	0.406542	0.888442	0.407126
	H52	H	0.591525	0.412265	0.112605
	H53	H	0.583010	0.600507	0.884017
	H54	H	0.405889	0.591863	0.112789
	H55	H	0.410748	0.414720	0.887635
	H56	H	0.109321	0.587977	0.413538
	H57	H	0.886811	0.588925	0.585827
	H58	H	0.112714	0.409418	0.594492
	H59	H	0.888556	0.415697	0.411778
	H60	H	0.108631	0.407906	0.583447
	H61	H	0.885624	0.589974	0.591849
	H62	H	0.111919	0.587828	0.403905
	H63	H	0.885881	0.413894	0.407475
	H64	H	0.410498	0.589096	0.110393
	H65	H	0.596271	0.590285	0.882914
	H66	H	0.585517	0.418945	0.107459
	H67	H	0.409306	0.411608	0.885703
	H68	H	0.597738	0.119648	0.404782
	H69	H	0.587078	0.888958	0.593030
	H70	H	0.401917	0.117935	0.588936
	H71	H	0.410165	0.890432	0.409863
	H72	H	0.910564	0.612539	0.088520
	H73	H	0.090636	0.388185	0.086938
	H74	H	0.085824	0.612531	0.910431
	H75	H	0.902405	0.385768	0.907749
	H76	H	0.084927	0.910651	0.610920
	H77	H	0.083272	0.096982	0.386997
	H78	H	0.912383	0.089184	0.609877
	H79	H	0.911530	0.913941	0.386493
	H80	H	0.612268	0.089799	0.903595
	H81	H	0.387553	0.086932	0.089113
	H82	H	0.611439	0.914084	0.094523
	H83	H	0.389634	0.917362	0.911215
	H84	H	0.613024	0.907182	0.089841
	H85	H	0.385725	0.092753	0.088630
	H86	H	0.610975	0.097319	0.914194
	H87	H	0.386146	0.913733	0.907043
	H88	H	0.909357	0.094797	0.612153
	H89	H	0.093863	0.093590	0.383748
	H90	H	0.090814	0.910865	0.611836
	H91	H	0.909123	0.910157	0.384591
	H92	H	0.093150	0.615287	0.910470
	H93	H	0.086252	0.388654	0.090252
	H94	H	0.910107	0.611412	0.083746
	H95	H	0.914364	0.388953	0.905164
	H96	H	0.413009	0.116273	0.594595
	H97	H	0.581685	0.894000	0.584424
	H98	H	0.578450	0.113840	0.404668
	H99	H	0.405460	0.890302	0.412302
	H100	H	0.581909	0.409504	0.109305
	H101	H	0.581363	0.584450	0.889508
	H102	H	0.410701	0.594692	0.112361
	H103	H	0.406944	0.413955	0.885763
	H104	H	0.113296	0.596016	0.409242
	H105	H	0.884564	0.594682	0.587664
	H106	H	0.107194	0.418640	0.589064
	H107	H	0.886699	0.410718	0.411796
	H108	H	0.906698	0.613635	0.085908
	H109	H	0.086289	0.390612	0.084817
	H110	H	0.088927	0.615639	0.904554
	H111	H	0.909806	0.391785	0.916169
	H112	H	0.088030	0.915488	0.609661
	H113	H	0.087086	0.086191	0.388661
	H114	H	0.906358	0.088945	0.611325
	H115	H	0.906812	0.913944	0.385729
	H116	H	0.606321	0.085702	0.914150
	H117	H	0.387688	0.090274	0.083879
	H118	H	0.609578	0.913868	0.086357
	H119	H	0.387546	0.911040	0.912479
	C120	C	0.377327	0.011280	0.620283
	C121	C	0.620181	0.994673	0.619760
	C122	C	0.619795	0.010604	0.378798
	C123	C	0.377192	0.994642	0.378321
	C124	C	0.618933	0.380635	0.006250
	C125	C	0.619439	0.622877	0.989395
	C126	C	0.377805	0.623473	0.007600
	C127	C	0.376969	0.380815	0.990467
	C128	C	0.007579	0.622391	0.377135
	C129	C	0.990073	0.622558	0.619623
	C130	C	0.005908	0.379870	0.621157
	C131	C	0.990422	0.380921	0.378177
	C132	C	0.876343	0.509329	0.119361
	C133	C	0.119424	0.493105	0.119497
	C134	C	0.120559	0.510495	0.877107
	C135	C	0.877229	0.492692	0.877472
	C136	C	0.120426	0.880301	0.507294
	C137	C	0.119690	0.123949	0.490633
	C138	C	0.877335	0.123573	0.507377
	C139	C	0.877492	0.880546	0.489130
	C140	C	0.506719	0.124040	0.877293
	C141	C	0.490309	0.122599	0.119794
	C142	C	0.507502	0.879640	0.121927
	C143	C	0.490790	0.881428	0.877881
	C144	C	0.376878	0.892059	0.678556
	C145	C	0.622770	0.112546	0.679957
	C146	C	0.619783	0.891550	0.320611
	C147	C	0.377308	0.113632	0.319289
	C148	C	0.678433	0.378100	0.887813
	C149	C	0.679487	0.623907	0.107433
	C150	C	0.319403	0.624123	0.888477
	C151	C	0.318776	0.379528	0.109551
	C152	C	0.889105	0.681370	0.375783
	C153	C	0.108433	0.681560	0.620244
	C154	C	0.887587	0.320390	0.622527
	C155	C	0.109158	0.322383	0.377639
	C156	C	0.887597	0.378162	0.680427
	C157	C	0.108636	0.623835	0.678363
	C158	C	0.889599	0.624049	0.317524
	C159	C	0.108328	0.378612	0.318195
	C160	C	0.377424	0.681843	0.888389
	C161	C	0.621810	0.681644	0.108124
	C162	C	0.620625	0.320592	0.888114
	C163	C	0.375996	0.321242	0.109090
	C164	C	0.677987	0.891503	0.378073
	C165	C	0.681171	0.112104	0.622739
	C166	C	0.317984	0.892703	0.621670
	C167	C	0.319681	0.114015	0.377517
	C168	C	0.873229	0.391997	0.180837
	C169	C	0.121879	0.610656	0.180066
	C170	C	0.122872	0.392552	0.817179
	C171	C	0.875510	0.611271	0.817841
	C172	C	0.180010	0.878655	0.389386
	C173	C	0.179866	0.126208	0.608592
	C174	C	0.817521	0.125627	0.389060
	C175	C	0.818459	0.878314	0.607486
	C176	C	0.389399	0.184917	0.873613
	C177	C	0.606927	0.184367	0.123438
	C178	C	0.389325	0.819959	0.123189
	C179	C	0.608642	0.821294	0.875772
	C180	C	0.389350	0.877605	0.181284
	C181	C	0.607312	0.126229	0.181162
	C182	C	0.389650	0.127066	0.815945
	C183	C	0.608082	0.877981	0.816598
	C184	C	0.874751	0.184028	0.389278
	C185	C	0.121677	0.183526	0.608695
	C186	C	0.122443	0.820675	0.389192
	C187	C	0.875806	0.820411	0.607198
	C188	C	0.181202	0.392896	0.874575
	C189	C	0.179600	0.611026	0.122384
	C190	C	0.814994	0.391846	0.123276
	C191	C	0.816624	0.610415	0.874663
	C192	C	0.401788	0.094116	0.595781
	C193	C	0.594305	0.912607	0.594231
	C194	C	0.595684	0.093416	0.403100
	C195	C	0.400750	0.911629	0.402594
	C196	C	0.593678	0.406307	0.088328
	C197	C	0.594282	0.598689	0.907063
	C198	C	0.402113	0.598997	0.090244
	C199	C	0.401688	0.406066	0.907967
	C200	C	0.090013	0.597878	0.402088
	C201	C	0.907146	0.598190	0.595362
	C202	C	0.088041	0.404724	0.596153
	C203	C	0.908496	0.406171	0.403160
	C204	C	0.901900	0.591277	0.093511
	C205	C	0.094647	0.410647	0.094402
	C206	C	0.096178	0.592982	0.901599
	C207	C	0.901928	0.410377	0.902515
	C208	C	0.095141	0.905194	0.589428
	C209	C	0.095037	0.099297	0.407948
	C210	C	0.902377	0.098347	0.589818
	C211	C	0.902158	0.905559	0.406860
	C212	C	0.588594	0.098218	0.903316
	C213	C	0.408290	0.097009	0.094347
	C214	C	0.589878	0.904625	0.097245
	C215	C	0.408995	0.906776	0.903270
	Zn216	Zn	0.499252	0.002760	0.748921
	Zn217	Zn	0.498474	0.002283	0.249465
	Zn218	Zn	0.747603	0.500865	-0.002123
	Zn219	Zn	0.248671	0.502125	-0.000551
	Zn220	Zn	-0.001386	0.751736	0.497706
	Zn221	Zn	-0.001996	0.252027	0.498703
	Zn222	Zn	-0.001970	0.501839	0.748761
	Zn223	Zn	-0.001510	0.501189	0.248177
	Zn224	Zn	0.499021	0.752526	-0.001090
	Zn225	Zn	0.498161	0.252330	-0.001280
	Zn226	Zn	0.749131	0.001979	0.498927
	Zn227	Zn	0.248063	0.002983	0.498976
	N228	N	0.412699	0.967056	0.678083
	N229	N	0.585534	0.038281	0.678178
	N230	N	0.584477	0.966681	0.320698
	N231	N	0.411921	0.038094	0.319383
	N232	N	0.677595	0.414455	0.962425
	N233	N	0.678264	0.588247	0.032662
	N234	N	0.319295	0.588696	0.963694
	N235	N	0.318847	0.415416	0.034470
	N236	N	0.963705	0.680762	0.411897
	N237	N	0.033622	0.681093	0.584526
	N238	N	0.962307	0.321168	0.586542
	N239	N	0.034761	0.323782	0.414262
	N240	N	0.962277	0.414360	0.679879
	N241	N	0.033801	0.588057	0.678178
	N242	N	0.964125	0.588372	0.318196
	N243	N	0.033422	0.414028	0.318080
	N244	N	0.412514	0.681908	0.963549
	N245	N	0.585009	0.681148	0.033735
	N246	N	0.584718	0.321783	0.962979
	N247	N	0.411199	0.321831	0.033996
	N248	N	0.678363	0.966757	0.413167
	N249	N	0.679872	0.037667	0.586239
	N250	N	0.317835	0.968063	0.586521
	N251	N	0.319311	0.038980	0.413258
	N252	N	0.910693	0.466135	0.178620
	N253	N	0.085008	0.536208	0.178231
	N254	N	0.085939	0.466755	0.818393
	N255	N	0.912217	0.536982	0.819309
	N256	N	0.178884	0.915226	0.463805
	N257	N	0.178673	0.089868	0.533940
	N258	N	0.818806	0.088943	0.463681
	N259	N	0.819232	0.914872	0.533061
	N260	N	0.463326	0.183025	0.911196
	N261	N	0.533113	0.182151	0.085772
	N262	N	0.463939	0.820951	0.087002
	N263	N	0.534887	0.823589	0.913290
	N264	N	0.463960	0.913900	0.180736
	N265	N	0.533557	0.088540	0.178890
	N266	N	0.463702	0.089772	0.818226
	N267	N	0.533888	0.915039	0.817975
	N268	N	0.910961	0.182882	0.464011
	N269	N	0.085226	0.182397	0.534199
	N270	N	0.086165	0.821502	0.463707
	N271	N	0.911743	0.821464	0.532503
	N272	N	0.179965	0.467332	0.911150
	N273	N	0.178244	0.536789	0.085518
	N274	N	0.816792	0.465944	0.085721
	N275	N	0.817536	0.535702	0.910958
	O276	O	0.781445	0.785789	0.216634
	H277	H	0.775886	0.768566	0.205221
	H278	H	0.781625	0.809612	0.193291
	O279	O	0.109662	-0.069846	0.871027
	H280	H	0.117688	-0.081225	0.869118
	H281	H	0.103412	-0.084677	0.859456
	O282	O	0.678166	0.536807	0.490111
	H283	H	0.675135	0.545621	0.498398
	H284	H	0.695090	0.527655	0.483018
	O285	O	0.280020	0.393334	0.531259
	H286	H	0.277466	0.386339	0.542619
	H287	H	0.268768	0.383584	0.537713
	O288	O	0.918741	-0.211161	0.914740
	H289	H	0.925526	-0.204685	0.912423
	H290	H	0.928747	-0.214848	0.911700
	O291	O	0.821962	0.830173	0.799494
	H292	H	0.839642	0.846370	0.804681
	H293	H	0.832132	0.838016	0.820930
	O294	O	0.228527	0.063537	-0.047691
	H295	H	0.235493	0.053219	-0.068458
	H296	H	0.218014	0.055830	-0.038983
	O297	O	0.970152	-0.216202	0.217747
	H298	H	0.959074	-0.240453	0.241073
	H299	H	0.950972	-0.210917	0.210104
	O300	O	-0.052891	0.079675	0.195151
	H301	H	-0.038336	0.096370	0.192778
	H302	H	-0.029759	0.062368	0.202459
	O303	O	0.080251	0.215197	-0.090891
	H304	H	0.075150	0.208651	-0.078060
	H305	H	0.084585	0.209121	-0.088459
	O306	O	1.223362	-0.218251	-0.036060
	H307	H	1.221898	-0.200527	-0.057356
	H308	H	1.254963	-0.246126	-0.035282
	O309	O	0.662253	0.667980	0.310539
	H310	H	0.657818	0.644864	0.310871
	H311	H	0.675076	0.670283	0.314912
	O312	O	0.671811	0.353891	0.534118
	H313	H	0.684225	0.352737	0.524755
	H314	H	0.682970	0.354304	0.527779
	O315	O	0.364277	0.701110	0.630863
	H316	H	0.376512	0.701012	0.602188
	H317	H	0.389884	0.680059	0.629955
	O318	O	0.764785	0.952983	-0.047754
	H319	H	0.769395	0.947921	-0.058795
	H320	H	0.768624	0.954603	-0.072186
	O321	O	0.238476	0.762037	0.758569
	H322	H	0.260616	0.752761	0.753562
	H323	H	0.244830	0.763562	0.741518
	O324	O	0.782667	0.219091	0.964812
	H325	H	0.790416	0.212679	0.987747
	H326	H	0.761306	0.231935	0.975950
	O327	O	0.709341	0.530305	0.711109
	H328	H	0.715406	0.558427	0.716295
	H329	H	0.730256	0.528646	0.711600
	O330	O	0.267154	0.782811	0.259133
	H331	H	0.296566	0.783092	0.244808
	H332	H	0.269008	0.773339	0.273657
	O333	O	0.499803	0.363860	0.515129
	H334	H	0.519320	0.365692	0.520399
	H335	H	0.500942	0.365977	0.510104
	O336	O	0.527511	0.593342	0.372274
	H337	H	0.548168	0.595184	0.385867
	H338	H	0.521014	0.587266	0.357241
	O339	O	0.366329	0.683131	0.503535
	H340	H	0.379354	0.702549	0.491760
	H341	H	0.367266	0.682564	0.491356
	O342	O	0.035973	0.784207	-0.221990
	H343	H	0.049940	0.780743	-0.213082
	H344	H	0.036783	0.763755	-0.241782
	O345	O	0.351198	0.546561	0.603540
	H346	H	0.353136	0.552807	0.620584
	H347	H	0.340125	0.557200	0.604715
	O348	O	0.302191	0.304438	0.699415
	H349	H	0.297688	0.288911	0.702959
	H350	H	0.314002	0.289237	0.705896
	O351	O	0.187774	0.199332	1.190101
	H352	H	0.193733	0.207934	1.155942
	H353	H	0.184562	0.165796	1.202439
	O354	O	0.839188	-0.062355	1.145711
	H355	H	0.835070	-0.056492	1.159722
	H356	H	0.854273	-0.081510	1.154805
	O357	O	0.420135	0.607414	0.334710
	H358	H	0.437357	0.593649	0.340698
	H359	H	0.428300	0.621333	0.335471
	O360	O	0.349716	0.552875	0.406319
	H361	H	0.337791	0.556974	0.400254
	H362	H	0.340893	0.565140	0.391075
	O363	O	0.691292	0.308093	0.301250
	H364	H	0.668078	0.303114	0.318136
	H365	H	0.691492	0.286259	0.275462
	O366	O	0.805069	0.191211	0.803833
	H367	H	0.790859	0.207805	0.846618
	H368	H	0.817221	0.196807	0.796824
	O369	O	-0.168606	0.070322	1.018768
	H370	H	-0.176947	0.064875	1.016350
	H371	H	-0.166055	0.065895	1.032535
	O372	O	-0.147075	1.207144	1.143883
	H373	H	-0.149706	1.196713	1.131672
	H374	H	-0.128497	1.187939	1.128346
	O375	O	1.049837	-0.111287	0.149221
	H376	H	1.059130	-0.124663	0.139457
	H377	H	1.048857	-0.120146	0.150114
	O378	O	0.610056	0.358968	0.382250
	H379	H	0.622689	0.349393	0.375471
	H380	H	0.605232	0.361815	0.386605
	O381	O	0.134123	0.967103	0.101956
	H382	H	0.122258	0.974884	0.105672
	H383	H	0.144816	0.951415	0.107020
	O384	O	0.506792	0.363346	0.608416
	H385	H	0.514917	0.363135	0.604739
	H386	H	0.507834	0.356914	0.613380
	O387	O	-0.109438	1.047151	0.997316
	H388	H	-0.110313	1.029662	0.988970
	H389	H	-0.122216	1.039837	0.991768
	O390	O	0.222076	1.223509	1.028544
	H391	H	0.257759	1.253881	1.033154
	H392	H	0.219362	1.199602	1.019484
	O393	O	1.021539	0.218507	0.208926
	H394	H	1.025538	0.246745	0.236841
	H395	H	1.040587	0.208627	0.190800
	O396	O	0.407148	0.506605	0.425351
	H397	H	0.400195	0.506788	0.419884
	H398	H	0.393166	0.491550	0.429147
	O399	O	0.511378	0.691799	0.625153
	H400	H	0.503758	0.707944	0.624858
	H401	H	0.529371	0.686095	0.617028
	O402	O	0.970665	0.221640	0.780206
	H403	H	0.967358	0.239261	0.781684
	H404	H	0.957018	0.234794	0.769991
	O405	O	0.710596	0.479749	0.282154
	H406	H	0.702230	0.450560	0.281309
	H407	H	0.726507	0.466717	0.257891
	O408	O	0.783309	1.024316	0.786711
	H409	H	0.789672	1.044267	0.774590
	H410	H	0.770655	1.042026	0.770152
	O411	O	0.909920	0.971588	0.216835
	H412	H	0.940096	0.984193	0.220847
	H413	H	0.896375	0.960915	0.224423
	O414	O	0.193104	0.048144	0.191350
	H415	H	0.207572	0.038614	0.205259
	H416	H	0.193411	0.050897	0.202166
	O417	O	0.641865	0.587648	0.491853
	H418	H	0.662127	0.579697	0.487845
	H419	H	0.639895	0.584209	0.469401
	O420	O	0.973337	0.152275	0.960895
	H421	H	0.971673	0.150179	0.968657
	H422	H	0.991208	0.142326	0.966191
	O423	O	1.081631	0.952410	0.050922
	H424	H	1.078909	0.948407	0.070586
	H425	H	1.075400	0.962184	0.048321
	O426	O	0.345572	0.362355	0.483994
	H427	H	0.347656	0.357456	0.495489
	H428	H	0.333016	0.372363	0.493685
	O429	O	0.284758	0.477008	0.681177
	H430	H	0.281956	0.456843	0.697198
	H431	H	0.286046	0.467271	0.694746
	O432	O	1.012813	0.003198	0.798033
	H433	H	1.016611	0.008135	0.807145
	H434	H	1.005344	0.023998	0.794939
	O435	O	0.702745	0.699341	0.696082
	H436	H	0.676966	0.714321	0.710671
	H437	H	0.719340	0.704475	0.695840
	O438	O	0.297774	0.593973	0.308595
	H439	H	0.283540	0.607193	0.304278
	H440	H	0.299008	0.578706	0.309175
	O441	O	0.798192	0.794961	0.021189
	H442	H	0.801234	0.806588	0.015384
	H443	H	0.793797	0.793551	0.017849
	O444	O	0.485389	0.480406	0.296418
	H445	H	0.464958	0.477320	0.304679
	H446	H	0.483031	0.483337	0.290076
	O447	O	0.565060	0.310044	0.639077
	H448	H	0.555687	0.319909	0.635371
	H449	H	0.567447	0.324452	0.631380
	O450	O	0.991851	-0.049342	-0.180747
	H451	H	0.997888	-0.032726	-0.179746
	H452	H	1.004304	-0.064909	-0.175781
	O453	O	0.705173	0.678601	0.521090
	H454	H	0.711500	0.672100	0.517464
	H455	H	0.713472	0.693667	0.530209
	O456	O	0.217203	0.908458	0.784382
	H457	H	0.217583	0.902916	0.763561
	H458	H	0.219059	0.896744	0.777295
	O459	O	0.481985	0.616642	0.705694
	H460	H	0.489906	0.620264	0.700619
	H461	H	0.467740	0.604701	0.699632
	O462	O	0.396901	0.312247	0.391479
	H463	H	0.398698	0.332250	0.415329
	H464	H	0.381975	0.304666	0.400959
	O465	O	0.520061	0.448460	0.704866
	H466	H	0.524024	0.462916	0.706159
	H467	H	0.528667	0.450451	0.704104
	O468	O	0.033621	0.837902	0.068992
	H469	H	0.025205	0.836284	0.057112
	H470	H	0.048041	0.843349	0.070969
	O471	O	0.598912	0.445965	0.374922
	H472	H	0.593764	0.445770	0.355303
	H473	H	0.588510	0.433661	0.398811
	O474	O	1.127679	0.972742	0.075205
	H475	H	1.138359	0.962725	0.059335
	H476	H	1.110062	0.985709	0.061813
	O477	O	0.120415	0.117795	0.860981
	H478	H	0.109344	0.115592	0.874652
	H479	H	0.105603	0.101606	0.871099
