data_Molecule from HDF5

_cell_length_a		16.177970
_cell_length_b		16.239334
_cell_length_c		16.443506
_cell_angle_alpha	89.912814
_cell_angle_beta	89.759546
_cell_angle_gamma	90.141932
_symmetry_space_group_name_H-M	'P 1'
_symmetry_Int_Tables_number		1

loop_
	_symmetry_equiv_pos_as_xyz
	x,y,z

loop_
	_atom_site_label
	_atom_site_type_symbol
	_atom_site_fract_x
	_atom_site_fract_y
	_atom_site_fract_z
	H0	H	0.405795	0.851233	0.719912
	H1	H	0.609080	0.177412	0.717677
	H2	H	0.610403	0.853066	0.281672
	H3	H	0.404681	0.176736	0.284762
	H4	H	0.720746	0.416418	0.836332
	H5	H	0.722383	0.614695	0.160517
	H6	H	0.292197	0.612380	0.836153
	H7	H	0.286817	0.414070	0.160431
	H8	H	0.842545	0.727055	0.401812
	H9	H	0.171770	0.725594	0.595096
	H10	H	0.842321	0.298518	0.597816
	H11	H	0.171311	0.298865	0.399305
	H12	H	0.843886	0.409936	0.717362
	H13	H	0.170039	0.616020	0.714791
	H14	H	0.842443	0.614071	0.284548
	H15	H	0.169454	0.411460	0.279613
	H16	H	0.405437	0.733521	0.838858
	H17	H	0.604487	0.729359	0.161781
	H18	H	0.605299	0.297825	0.837593
	H19	H	0.403442	0.297606	0.160883
	H20	H	0.718488	0.848287	0.405084
	H21	H	0.720339	0.178126	0.596554
	H22	H	0.292518	0.849560	0.601502
	H23	H	0.293536	0.178533	0.404711
	H24	H	0.901165	0.351702	0.217355
	H25	H	0.108061	0.676244	0.215359
	H26	H	0.110033	0.352002	0.779936
	H27	H	0.903939	0.676255	0.780763
	H28	H	0.226720	0.913275	0.339795
	H29	H	0.222752	0.114370	0.663172
	H30	H	0.791017	0.113352	0.339288
	H31	H	0.790594	0.912108	0.662766
	H32	H	0.341900	0.226626	0.904294
	H33	H	0.670222	0.231463	0.098750
	H34	H	0.342497	0.798084	0.103830
	H35	H	0.670233	0.801400	0.903363
	H36	H	0.343902	0.912211	0.221195
	H37	H	0.670263	0.118814	0.217685
	H38	H	0.345168	0.119130	0.783466
	H39	H	0.669485	0.912568	0.785657
	H40	H	0.906001	0.229797	0.338965
	H41	H	0.108133	0.233005	0.660977
	H42	H	0.110051	0.797011	0.338384
	H43	H	0.906322	0.794192	0.660834
	H44	H	0.220883	0.350172	0.899041
	H45	H	0.219020	0.678168	0.095191
	H46	H	0.790239	0.350101	0.096389
	H47	H	0.793045	0.678761	0.901163
	H48	H	0.426010	0.124299	0.587973
	H49	H	0.600216	0.897180	0.594194
	H50	H	0.600439	0.130344	0.407520
	H51	H	0.414127	0.898082	0.412448
	H52	H	0.590773	0.419421	0.113016
	H53	H	0.589404	0.610311	0.887027
	H54	H	0.411904	0.606382	0.114245
	H55	H	0.408046	0.415197	0.881124
	H56	H	0.120994	0.603175	0.413386
	H57	H	0.890418	0.607330	0.586572
	H58	H	0.117820	0.424917	0.576038
	H59	H	0.887055	0.415696	0.403931
	H60	H	0.121501	0.435483	0.599250
	H61	H	0.891760	0.598438	0.590297
	H62	H	0.122495	0.596577	0.398770
	H63	H	0.892914	0.422069	0.414429
	H64	H	0.412405	0.605831	0.114364
	H65	H	0.604235	0.616226	0.880275
	H66	H	0.602442	0.419580	0.115926
	H67	H	0.410351	0.428229	0.885553
	H68	H	0.597868	0.129405	0.407755
	H69	H	0.598763	0.896667	0.599216
	H70	H	0.403594	0.132535	0.588810
	H71	H	0.419989	0.898234	0.406784
	H72	H	0.914868	0.631074	0.096420
	H73	H	0.092072	0.396515	0.095760
	H74	H	0.098583	0.629326	0.907278
	H75	H	0.907123	0.397410	0.912952
	H76	H	0.094715	0.917039	0.614566
	H77	H	0.098052	0.108648	0.387036
	H78	H	0.917106	0.107330	0.615110
	H79	H	0.924831	0.914683	0.386479
	H80	H	0.624564	0.111030	0.911076
	H81	H	0.393453	0.093949	0.095533
	H82	H	0.622170	0.917966	0.089844
	H83	H	0.388956	0.920108	0.914877
	H84	H	0.619893	0.928845	0.088867
	H85	H	0.386136	0.109398	0.103324
	H86	H	0.621032	0.101349	0.911702
	H87	H	0.391734	0.930498	0.910738
	H88	H	0.911744	0.107519	0.616265
	H89	H	0.103456	0.104496	0.385728
	H90	H	0.102149	0.916757	0.616511
	H91	H	0.905302	0.914737	0.381494
	H92	H	0.100113	0.631571	0.903559
	H93	H	0.090420	0.401414	0.085574
	H94	H	0.918289	0.627885	0.089511
	H95	H	0.912637	0.395002	0.897171
	H96	H	0.417677	0.133556	0.608161
	H97	H	0.595392	0.897469	0.596136
	H98	H	0.599033	0.129882	0.410687
	H99	H	0.421238	0.900947	0.414300
	H100	H	0.596537	0.429523	0.111350
	H101	H	0.603112	0.599884	0.885082
	H102	H	0.412803	0.606623	0.113744
	H103	H	0.420687	0.419411	0.885973
	H104	H	0.127629	0.612520	0.400909
	H105	H	0.888052	0.605344	0.596266
	H106	H	0.128689	0.410985	0.595436
	H107	H	0.891922	0.428106	0.403118
	H108	H	0.910710	0.631031	0.089092
	H109	H	0.100685	0.396689	0.088182
	H110	H	0.095594	0.630291	0.903157
	H111	H	0.922844	0.401252	0.909252
	H112	H	0.098284	0.922809	0.614158
	H113	H	0.097804	0.102133	0.388324
	H114	H	0.913704	0.102824	0.614551
	H115	H	0.913774	0.931262	0.388487
	H116	H	0.625310	0.105162	0.903344
	H117	H	0.391818	0.109903	0.085597
	H118	H	0.624067	0.924684	0.098186
	H119	H	0.387003	0.922465	0.903650
	C120	C	0.385705	0.022332	0.624518
	C121	C	0.627742	1.005458	0.623542
	C122	C	0.628918	0.022374	0.379449
	C123	C	0.386916	1.006444	0.381282
	C124	C	0.626339	0.393049	0.006987
	C125	C	0.627953	0.637232	0.991174
	C126	C	0.383564	0.636551	0.007470
	C127	C	0.382782	0.391756	0.990835
	C128	C	0.015130	0.634068	0.376698
	C129	C	0.998496	0.633624	0.619469
	C130	C	0.014862	0.392857	0.620112
	C131	C	0.998350	0.391923	0.376875
	C132	C	0.883576	0.522508	0.121135
	C133	C	0.125486	0.505761	0.119165
	C134	C	0.127609	0.522384	0.876209
	C135	C	0.884891	0.505863	0.877379
	C136	C	0.129379	0.890598	0.508387
	C137	C	0.129452	0.135741	0.492847
	C138	C	0.884893	0.135128	0.508638
	C139	C	0.884987	0.890531	0.492181
	C140	C	0.515490	0.135212	0.880077
	C141	C	0.498449	0.135677	0.123226
	C142	C	0.514491	0.893297	0.123181
	C143	C	0.497507	0.894363	0.880619
	C144	C	0.386602	0.899638	0.681014
	C145	C	0.627394	0.128685	0.678458
	C146	C	0.628902	0.900495	0.321914
	C147	C	0.386300	0.128362	0.324046
	C148	C	0.682801	0.395390	0.884995
	C149	C	0.683913	0.634864	0.112470
	C150	C	0.329297	0.633918	0.885255
	C151	C	0.325668	0.393691	0.112306
	C152	C	0.891599	0.689352	0.380971
	C153	C	0.122387	0.688672	0.616087
	C154	C	0.891417	0.336147	0.618411
	C155	C	0.122085	0.336533	0.378684
	C156	C	0.892178	0.391737	0.677541
	C157	C	0.121616	0.633799	0.675414
	C158	C	0.891404	0.633157	0.322595
	C159	C	0.120922	0.392059	0.318799
	C160	C	0.385519	0.694124	0.886531
	C161	C	0.625582	0.692283	0.112943
	C162	C	0.625452	0.336600	0.885452
	C163	C	0.383498	0.335630	0.112545
	C164	C	0.682782	0.898351	0.382888
	C165	C	0.682906	0.129094	0.618378
	C166	C	0.330179	0.898751	0.622364
	C167	C	0.330443	0.128951	0.383502
	C168	C	0.882775	0.400144	0.178025
	C169	C	0.126626	0.627803	0.176449
	C170	C	0.127655	0.400179	0.819469
	C171	C	0.885194	0.628097	0.820080
	C172	C	0.187704	0.892962	0.387673
	C173	C	0.184942	0.134402	0.614475
	C174	C	0.829103	0.133255	0.387447
	C175	C	0.828898	0.891765	0.613995
	C176	C	0.391341	0.189915	0.883266
	C177	C	0.621116	0.193592	0.120090
	C178	C	0.391559	0.836360	0.123350
	C179	C	0.620850	0.838329	0.882585
	C180	C	0.392280	0.892916	0.181754
	C181	C	0.621339	0.137226	0.179028
	C182	C	0.393183	0.136462	0.822979
	C183	C	0.620451	0.893860	0.823953
	C184	C	0.886508	0.191362	0.387239
	C185	C	0.128105	0.193634	0.613370
	C186	C	0.129727	0.834920	0.386995
	C187	C	0.886134	0.832761	0.612907
	C188	C	0.183215	0.399377	0.878726
	C189	C	0.181586	0.628953	0.116410
	C190	C	0.827449	0.399273	0.118023
	C191	C	0.830131	0.629345	0.880064
	C192	C	0.408830	0.107922	0.601679
	C193	C	0.604920	0.919421	0.602582
	C194	C	0.606001	0.107711	0.401879
	C195	C	0.411536	0.921194	0.404417
	C196	C	0.603363	0.415914	0.091277
	C197	C	0.605596	0.615206	0.906075
	C198	C	0.405801	0.613170	0.092113
	C199	C	0.406126	0.414229	0.906184
	C200	C	0.101413	0.610731	0.398060
	C201	C	0.912426	0.610385	0.597432
	C202	C	0.100353	0.416714	0.597087
	C203	C	0.912701	0.415189	0.400287
	C204	C	0.907748	0.607930	0.098286
	C205	C	0.101456	0.420308	0.096453
	C206	C	0.104674	0.608279	0.898261
	C207	C	0.907453	0.420073	0.899809
	C208	C	0.105403	0.912663	0.593068
	C209	C	0.106541	0.112124	0.408720
	C210	C	0.907663	0.112497	0.593416
	C211	C	0.907994	0.913543	0.407420
	C212	C	0.601339	0.112598	0.902368
	C213	C	0.412619	0.111366	0.101381
	C214	C	0.600050	0.917069	0.099316
	C215	C	0.411648	0.917622	0.903179
	Zn216	Zn	0.506726	0.014854	0.752915
	Zn217	Zn	0.507443	0.014610	0.251227
	Zn218	Zn	0.756680	0.514423	-0.001544
	Zn219	Zn	0.254381	0.514198	-0.001541
	Zn220	Zn	0.007386	0.761538	0.498675
	Zn221	Zn	0.007039	0.264555	0.499517
	Zn222	Zn	0.005960	0.513961	0.748175
	Zn223	Zn	0.005790	0.513560	0.248383
	Zn224	Zn	0.505471	0.766062	0.000970
	Zn225	Zn	0.505757	0.263027	-0.000187
	Zn226	Zn	0.756253	0.012675	0.501253
	Zn227	Zn	0.257926	0.013151	0.502333
	N228	N	0.420236	0.977657	0.682697
	N229	N	0.594012	0.050791	0.681651
	N230	N	0.596004	0.978405	0.319862
	N231	N	0.420611	0.051021	0.322505
	N232	N	0.683532	0.429939	0.961328
	N233	N	0.685394	0.601225	0.035778
	N234	N	0.328107	0.598883	0.961370
	N235	N	0.325026	0.427828	0.035768
	N236	N	0.969657	0.690019	0.413804
	N237	N	0.044936	0.688637	0.581979
	N238	N	0.968807	0.336572	0.583375
	N239	N	0.044892	0.336210	0.414068
	N240	N	0.969727	0.426120	0.678743
	N241	N	0.043487	0.600206	0.677652
	N242	N	0.969346	0.599698	0.319601
	N243	N	0.042929	0.425466	0.317465
	N244	N	0.418403	0.696004	0.963625
	N245	N	0.591541	0.693936	0.036497
	N246	N	0.591243	0.335009	0.962098
	N247	N	0.418344	0.334255	0.036167
	N248	N	0.683110	0.975189	0.417774
	N249	N	0.683523	0.051493	0.585014
	N250	N	0.329392	0.975873	0.587919
	N251	N	0.330809	0.052002	0.418443
	N252	N	0.916885	0.477911	0.180060
	N253	N	0.092439	0.550127	0.178140
	N254	N	0.093821	0.477737	0.817715
	N255	N	0.918619	0.550255	0.818343
	N256	N	0.187613	0.926789	0.464293
	N257	N	0.186141	0.099233	0.538413
	N258	N	0.828090	0.098960	0.463940
	N259	N	0.827980	0.926904	0.537864
	N260	N	0.468396	0.189220	0.918317
	N261	N	0.543528	0.192849	0.086029
	N262	N	0.468581	0.836388	0.087723
	N263	N	0.543348	0.838481	0.917205
	N264	N	0.469829	0.927552	0.181750
	N265	N	0.543989	0.102272	0.181194
	N266	N	0.471192	0.103207	0.820818
	N267	N	0.542858	0.928149	0.822742
	N268	N	0.920508	0.192872	0.463645
	N269	N	0.094166	0.194473	0.536904
	N270	N	0.094130	0.833427	0.462960
	N271	N	0.920309	0.831992	0.536108
	N272	N	0.183194	0.476418	0.913425
	N273	N	0.181013	0.552023	0.081688
	N274	N	0.827659	0.476393	0.083583
	N275	N	0.829755	0.552274	0.914850
	O276	O	0.034590	0.182784	1.110444
	H277	H	0.051090	0.180383	1.093623
	H278	H	0.043472	0.180834	1.128775
	O279	O	0.941334	-0.125899	0.888681
	H280	H	0.934122	-0.130436	0.892649
	H281	H	0.935748	-0.122357	0.881548
	O282	O	0.968533	1.050597	-0.176997
	H283	H	0.964541	1.065602	-0.183829
	H284	H	0.963769	1.046938	-0.187333
	O285	O	0.988814	0.145408	0.953411
	H286	H	1.013256	0.153114	0.962472
	H287	H	0.990203	0.142012	0.948402
	O288	O	0.465840	0.618202	0.438664
	H289	H	0.458548	0.623272	0.425572
	H290	H	0.461266	0.609596	0.435799
	O291	O	0.416677	0.476405	0.513232
	H292	H	0.417094	0.473286	0.514515
	H293	H	0.414370	0.471375	0.517725
	O294	O	0.474269	0.481818	0.470500
	H295	H	0.473371	0.484666	0.462677
	H296	H	0.481261	0.480083	0.467187
	O297	O	0.046831	0.021853	1.004409
	H298	H	0.063840	0.016154	1.009880
	H299	H	0.027943	0.015087	1.013521
	O300	O	0.028669	-0.074398	0.159449
	H301	H	0.029846	-0.074121	0.158717
	H302	H	0.025650	-0.066040	0.150959
	O303	O	0.534635	0.494370	0.448168
	H304	H	0.537382	0.498163	0.445013
	H305	H	0.540788	0.493757	0.439446
	O306	O	-0.018799	0.957449	1.136120
	H307	H	-0.030416	0.949347	1.148867
	H308	H	-0.010939	0.941919	1.126665
	O309	O	0.592558	0.458805	0.419090
	H310	H	0.597285	0.463472	0.420550
	H311	H	0.600437	0.460684	0.423228
	O312	O	0.067377	-0.021446	-0.030333
	H313	H	0.081073	-0.031922	-0.029009
	H314	H	0.059495	-0.017696	-0.021532
	O315	O	0.957816	0.020508	-0.055653
	H316	H	0.953887	0.024206	-0.039162
	H317	H	0.969428	0.020010	-0.059964
	O318	O	0.957574	1.079216	0.979740
	H319	H	0.949807	1.088070	0.971267
	H320	H	0.944171	1.079322	0.979808
	O321	O	-0.128865	-0.025724	1.046805
	H322	H	-0.140853	-0.036432	1.040572
	H323	H	-0.131137	-0.023418	1.063998
	O324	O	0.601633	0.493024	0.449062
	H325	H	0.604444	0.488926	0.441859
	H326	H	0.594998	0.494496	0.454175
	O327	O	-0.004542	-0.024517	0.070050
	H328	H	0.000974	-0.016830	0.068549
	H329	H	0.003506	-0.031443	0.074086
	O330	O	1.186160	0.967542	-0.133707
	H331	H	1.177205	0.945781	-0.129917
	H332	H	1.194528	0.954136	-0.138121
	O333	O	0.000795	0.866773	0.922164
	H334	H	-0.008982	0.875993	0.927834
	H335	H	-0.008556	0.874181	0.919117
	O336	O	0.000877	0.001117	0.019697
	H337	H	-0.006424	0.005955	0.039289
	H338	H	0.010701	0.016395	0.013106
	O339	O	0.465982	0.515485	0.508423
	H340	H	0.465109	0.512900	0.514485
	H341	H	0.470150	0.512713	0.511713
	O342	O	1.023490	0.859297	1.086482
	H343	H	1.011352	0.866957	1.073246
	H344	H	1.017321	0.852228	1.094848
	O345	O	0.932104	1.178340	-0.010244
	H346	H	0.943969	1.162646	-0.009092
	H347	H	0.941796	1.197865	-0.012639
	O348	O	0.567617	0.439718	0.399592
	H349	H	0.566699	0.435297	0.403231
	H350	H	0.572440	0.435954	0.399562
	O351	O	1.108816	-0.111358	-0.055424
	H352	H	1.103755	-0.111122	-0.057333
	H353	H	1.100325	-0.108298	-0.065849
	O354	O	0.585628	0.554049	0.510018
	H355	H	0.580754	0.565006	0.522868
	H356	H	0.576541	0.560597	0.506208
	O357	O	0.537009	0.467832	1.431972
	H358	H	0.534538	0.454011	1.424405
	H359	H	0.547773	0.470373	1.440206
	O360	O	-0.003867	-0.031216	0.037127
	H361	H	-0.004213	-0.027592	0.038941
	H362	H	0.002515	-0.035459	0.023401
	O363	O	0.528634	0.525659	0.429317
	H364	H	0.539503	0.520133	0.427532
	H365	H	0.528790	0.525209	0.423318
	O366	O	1.011150	1.065273	1.157015
	H367	H	1.025292	1.080939	1.160205
	H368	H	1.008028	1.064786	1.165505
	O369	O	1.106322	0.068629	0.910389
	H370	H	1.108002	0.062490	0.919676
	H371	H	1.110087	0.056519	0.916183
	O372	O	0.014414	0.146703	0.066553
	H373	H	0.008736	0.145315	0.043922
	H374	H	0.020594	0.150283	0.064825
	O375	O	0.605159	-0.213131	0.268991
	H376	H	0.599691	-0.203385	0.265221
	H377	H	0.607142	-0.212244	0.268952
	O378	O	0.540043	0.510461	0.477651
	H379	H	0.556521	0.504503	0.477419
	H380	H	0.533801	0.509081	0.490771
	O381	O	0.495312	0.496750	0.560024
	H382	H	0.487624	0.498348	0.557865
	H383	H	0.492270	0.497897	0.555033
