data_Molecule from HDF5

_cell_length_a		16.259167
_cell_length_b		16.314212
_cell_length_c		16.293227
_cell_angle_alpha	89.759770
_cell_angle_beta	89.972763
_cell_angle_gamma	90.027868
_symmetry_space_group_name_H-M	'P 1'
_symmetry_Int_Tables_number		1

loop_
	_symmetry_equiv_pos_as_xyz
	x,y,z

loop_
	_atom_site_label
	_atom_site_type_symbol
	_atom_site_fract_x
	_atom_site_fract_y
	_atom_site_fract_z
	H0	H	0.404700	0.833088	0.717370
	H1	H	0.604255	0.159983	0.716704
	H2	H	0.602120	0.832303	0.288520
	H3	H	0.405847	0.159126	0.286124
	H4	H	0.717896	0.398519	0.837054
	H5	H	0.718267	0.593281	0.164273
	H6	H	0.290391	0.594183	0.836139
	H7	H	0.288973	0.396927	0.164546
	H8	H	0.840439	0.711372	0.401499
	H9	H	0.167633	0.711293	0.599852
	H10	H	0.840730	0.280508	0.599780
	H11	H	0.167338	0.280999	0.400455
	H12	H	0.840096	0.397053	0.714784
	H13	H	0.167766	0.594421	0.713994
	H14	H	0.839852	0.595267	0.285493
	H15	H	0.167466	0.397437	0.285436
	H16	H	0.403262	0.712871	0.837891
	H17	H	0.601690	0.708657	0.164700
	H18	H	0.603558	0.280918	0.837530
	H19	H	0.404173	0.279734	0.164097
	H20	H	0.718028	0.832995	0.404917
	H21	H	0.718747	0.160600	0.597705
	H22	H	0.287858	0.833334	0.602075
	H23	H	0.290083	0.159594	0.402108
	H24	H	0.903606	0.333102	0.216717
	H25	H	0.102679	0.659290	0.214245
	H26	H	0.103835	0.333069	0.785148
	H27	H	0.904039	0.659055	0.784095
	H28	H	0.219583	0.897956	0.337479
	H29	H	0.218979	0.093860	0.664444
	H30	H	0.791123	0.094186	0.336657
	H31	H	0.790362	0.897781	0.664743
	H32	H	0.339399	0.210553	0.900883
	H33	H	0.667070	0.211016	0.099944
	H34	H	0.339655	0.780307	0.101400
	H35	H	0.667912	0.782792	0.903645
	H36	H	0.339408	0.898499	0.216118
	H37	H	0.667826	0.094054	0.214549
	H38	H	0.340407	0.093830	0.786318
	H39	H	0.667771	0.897766	0.787597
	H40	H	0.903897	0.212076	0.337840
	H41	H	0.105148	0.211659	0.663088
	H42	H	0.103390	0.782037	0.337193
	H43	H	0.904721	0.780122	0.664326
	H44	H	0.217883	0.332270	0.902824
	H45	H	0.217837	0.659440	0.097164
	H46	H	0.788180	0.333055	0.100158
	H47	H	0.789840	0.659632	0.901524
	H48	H	0.419011	0.108888	0.591687
	H49	H	0.597784	0.880403	0.595718
	H50	H	0.598214	0.111056	0.411457
	H51	H	0.411191	0.880039	0.411576
	H52	H	0.595226	0.400576	0.116580
	H53	H	0.600643	0.586262	0.884194
	H54	H	0.413824	0.586150	0.114989
	H55	H	0.409298	0.398005	0.882618
	H56	H	0.120898	0.588365	0.403298
	H57	H	0.887426	0.588176	0.592418
	H58	H	0.117597	0.398548	0.580375
	H59	H	0.891482	0.410409	0.412525
	H60	H	0.118232	0.415897	0.596143
	H61	H	0.886935	0.588533	0.593219
	H62	H	0.120018	0.592373	0.409125
	H63	H	0.885646	0.404864	0.400611
	H64	H	0.410609	0.591278	0.117705
	H65	H	0.591548	0.588811	0.886397
	H66	H	0.598243	0.402760	0.118314
	H67	H	0.408446	0.407423	0.884947
	H68	H	0.601077	0.115193	0.404706
	H69	H	0.595325	0.881277	0.595881
	H70	H	0.405159	0.112710	0.587673
	H71	H	0.409408	0.879780	0.407882
	H72	H	0.905605	0.612028	0.087761
	H73	H	0.101902	0.375894	0.101771
	H74	H	0.100689	0.610533	0.916783
	H75	H	0.907438	0.380072	0.909765
	H76	H	0.094097	0.905968	0.614902
	H77	H	0.094756	0.089471	0.385564
	H78	H	0.910299	0.094619	0.619027
	H79	H	0.910061	0.910138	0.386119
	H80	H	0.617819	0.081743	0.910643
	H81	H	0.385278	0.087476	0.099577
	H82	H	0.618334	0.902557	0.089792
	H83	H	0.389194	0.901584	0.918244
	H84	H	0.620216	0.905799	0.098792
	H85	H	0.386442	0.092894	0.091047
	H86	H	0.622866	0.090667	0.901188
	H87	H	0.388831	0.912198	0.905545
	H88	H	0.906137	0.083903	0.617244
	H89	H	0.098037	0.091562	0.383469
	H90	H	0.093899	0.899131	0.617082
	H91	H	0.917341	0.900562	0.385098
	H92	H	0.102272	0.616311	0.897441
	H93	H	0.086945	0.382033	0.096023
	H94	H	0.908178	0.614760	0.099413
	H95	H	0.911217	0.378427	0.903825
	H96	H	0.410167	0.114717	0.601772
	H97	H	0.596267	0.881693	0.593148
	H98	H	0.593461	0.111867	0.404023
	H99	H	0.413883	0.880487	0.408410
	H100	H	0.595707	0.404096	0.116103
	H101	H	0.597128	0.595335	0.882414
	H102	H	0.407287	0.586023	0.117568
	H103	H	0.416301	0.402925	0.886550
	H104	H	0.118496	0.585502	0.409022
	H105	H	0.888123	0.588827	0.592682
	H106	H	0.125791	0.394412	0.601962
	H107	H	0.886265	0.397029	0.412357
	H108	H	0.917499	0.609763	0.092218
	H109	H	0.100078	0.381223	0.085151
	H110	H	0.085488	0.608818	0.905143
	H111	H	0.913760	0.381983	0.909647
	H112	H	0.099910	0.902462	0.618134
	H113	H	0.098085	0.087650	0.384574
	H114	H	0.917812	0.085975	0.614207
	H115	H	0.905405	0.899782	0.382368
	H116	H	0.619845	0.094682	0.914704
	H117	H	0.389499	0.083361	0.091229
	H118	H	0.621878	0.896341	0.097221
	H119	H	0.383198	0.896682	0.903829
	C120	C	0.382500	0.004188	0.622924
	C121	C	0.625820	0.988872	0.623350
	C122	C	0.626128	0.004822	0.379180
	C123	C	0.382582	0.987795	0.379694
	C124	C	0.625440	0.373906	0.008891
	C125	C	0.625076	0.617541	0.992530
	C126	C	0.382443	0.616962	0.008648
	C127	C	0.382341	0.374265	0.992904
	C128	C	0.012121	0.617788	0.378409
	C129	C	0.995924	0.616991	0.621353
	C130	C	0.012429	0.374071	0.622120
	C131	C	0.995457	0.374911	0.379065
	C132	C	0.881673	0.504337	0.122232
	C133	C	0.125246	0.487558	0.122242
	C134	C	0.124960	0.504008	0.878410
	C135	C	0.882142	0.488021	0.878620
	C136	C	0.125312	0.874413	0.509096
	C137	C	0.126113	0.117975	0.492079
	C138	C	0.882878	0.117304	0.508755
	C139	C	0.882329	0.874264	0.492518
	C140	C	0.511797	0.117366	0.879718
	C141	C	0.495230	0.116932	0.122392
	C142	C	0.512045	0.873287	0.124151
	C143	C	0.495393	0.875096	0.880557
	C144	C	0.384157	0.881785	0.679209
	C145	C	0.624274	0.111364	0.678358
	C146	C	0.623008	0.881390	0.325641
	C147	C	0.385346	0.110672	0.324024
	C148	C	0.680349	0.377372	0.885986
	C149	C	0.680118	0.613720	0.115610
	C150	C	0.327751	0.614870	0.885378
	C151	C	0.326631	0.376437	0.115617
	C152	C	0.889019	0.673336	0.380839
	C153	C	0.118783	0.672907	0.619477
	C154	C	0.889631	0.318263	0.620340
	C155	C	0.118550	0.319341	0.381079
	C156	C	0.889204	0.376267	0.677354
	C157	C	0.118898	0.615047	0.676426
	C158	C	0.888638	0.615379	0.323666
	C159	C	0.118740	0.377324	0.323812
	C160	C	0.384024	0.673746	0.886248
	C161	C	0.622452	0.671355	0.115641
	C162	C	0.623248	0.319031	0.886289
	C163	C	0.384029	0.318360	0.115546
	C164	C	0.680634	0.881711	0.383295
	C165	C	0.681463	0.111533	0.619719
	C166	C	0.326380	0.881934	0.621622
	C167	C	0.327534	0.110682	0.381420
	C168	C	0.883683	0.381735	0.178264
	C169	C	0.122798	0.610525	0.176464
	C170	C	0.123403	0.381448	0.823405
	C171	C	0.884447	0.610520	0.822782
	C172	C	0.181515	0.877303	0.386251
	C173	C	0.181611	0.115065	0.615165
	C174	C	0.827879	0.115149	0.385888
	C175	C	0.827008	0.876254	0.615461
	C176	C	0.388560	0.172829	0.881169
	C177	C	0.618312	0.172879	0.120388
	C178	C	0.388515	0.818436	0.121841
	C179	C	0.618873	0.820216	0.883014
	C180	C	0.388503	0.876675	0.179058
	C181	C	0.618808	0.114404	0.176864
	C182	C	0.388841	0.115024	0.824020
	C183	C	0.618702	0.877319	0.825153
	C184	C	0.884259	0.173645	0.386431
	C185	C	0.124796	0.173209	0.614739
	C186	C	0.123629	0.819775	0.386000
	C187	C	0.883926	0.817898	0.615145
	C188	C	0.180220	0.381095	0.881793
	C189	C	0.180085	0.610601	0.118400
	C190	C	0.826069	0.381826	0.120662
	C191	C	0.827291	0.610775	0.880978
	C192	C	0.404818	0.089947	0.600182
	C193	C	0.603238	0.903151	0.601404
	C194	C	0.604228	0.090620	0.400319
	C195	C	0.404871	0.902299	0.402444
	C196	C	0.602930	0.395895	0.094973
	C197	C	0.602979	0.596306	0.906437
	C198	C	0.404277	0.594401	0.094648
	C199	C	0.404662	0.396565	0.906790
	C200	C	0.097771	0.595302	0.400573
	C201	C	0.909736	0.594847	0.599393
	C202	C	0.098221	0.396518	0.599585
	C203	C	0.909853	0.397551	0.401809
	C204	C	0.903975	0.590073	0.099742
	C205	C	0.102892	0.401929	0.100744
	C206	C	0.102675	0.589580	0.900111
	C207	C	0.904278	0.402367	0.901183
	C208	C	0.102810	0.896184	0.594660
	C209	C	0.103489	0.096104	0.406609
	C210	C	0.905088	0.094900	0.594747
	C211	C	0.904390	0.896920	0.406782
	C212	C	0.597885	0.095417	0.902323
	C213	C	0.409374	0.094638	0.100315
	C214	C	0.597791	0.895007	0.101862
	C215	C	0.409421	0.897057	0.902717
	Zn216	Zn	0.503724	-0.003855	0.751900
	Zn217	Zn	0.504277	-0.004316	0.251403
	Zn218	Zn	0.753644	0.495910	0.000303
	Zn219	Zn	0.253488	0.495616	-0.000004
	Zn220	Zn	0.003798	0.745432	0.500535
	Zn221	Zn	0.004108	0.246057	0.500563
	Zn222	Zn	0.003911	0.496117	0.749856
	Zn223	Zn	0.003459	0.496250	0.250600
	Zn224	Zn	0.503183	0.745850	0.001475
	Zn225	Zn	0.503511	0.245470	0.000720
	Zn226	Zn	0.754283	-0.003497	0.500986
	Zn227	Zn	0.253922	-0.003715	0.500654
	N228	N	0.418278	0.959059	0.680212
	N229	N	0.590362	0.034100	0.680495
	N230	N	0.589745	0.958949	0.323004
	N231	N	0.418696	0.033133	0.322600
	N232	N	0.681557	0.410957	0.963310
	N233	N	0.681949	0.581009	0.037731
	N234	N	0.326420	0.580212	0.962430
	N235	N	0.325620	0.410601	0.038100
	N236	N	0.966711	0.675004	0.414175
	N237	N	0.041060	0.674110	0.585969
	N238	N	0.967250	0.316562	0.587014
	N239	N	0.041014	0.317968	0.415050
	N240	N	0.966693	0.410293	0.678690
	N241	N	0.041579	0.581080	0.677827
	N242	N	0.966194	0.581682	0.321886
	N243	N	0.041290	0.410939	0.322332
	N244	N	0.417133	0.675047	0.964021
	N245	N	0.588858	0.673611	0.038231
	N246	N	0.589834	0.316969	0.963893
	N247	N	0.417930	0.316994	0.038287
	N248	N	0.682425	0.959205	0.415966
	N249	N	0.682539	0.034295	0.586271
	N250	N	0.325076	0.959158	0.587463
	N251	N	0.325958	0.033396	0.415389
	N252	N	0.917349	0.459169	0.179622
	N253	N	0.089246	0.533049	0.178878
	N254	N	0.089923	0.458860	0.821167
	N255	N	0.917783	0.533101	0.821117
	N256	N	0.182632	0.910543	0.463588
	N257	N	0.182493	0.081299	0.537818
	N258	N	0.827009	0.080605	0.462979
	N259	N	0.825950	0.910664	0.538317
	N260	N	0.466174	0.174428	0.914955
	N261	N	0.540611	0.174397	0.087038
	N262	N	0.466247	0.816052	0.088601
	N263	N	0.541414	0.818767	0.916995
	N264	N	0.466152	0.910116	0.180600
	N265	N	0.541333	0.080455	0.178486
	N266	N	0.466399	0.081391	0.822971
	N267	N	0.541011	0.910739	0.823490
	N268	N	0.917938	0.174776	0.463854
	N269	N	0.091127	0.175281	0.537378
	N270	N	0.089521	0.817571	0.463297
	N271	N	0.917769	0.816699	0.537772
	N272	N	0.181451	0.458260	0.915376
	N273	N	0.182014	0.533225	0.085674
	N274	N	0.824798	0.458986	0.086522
	N275	N	0.825887	0.533663	0.915167
	O276	O	0.939545	1.060318	-0.007664
	H277	H	0.936863	1.069645	0.004585
	H278	H	0.947219	1.059483	0.005594
	O279	O	-0.019375	0.004135	0.070042
	H280	H	-0.013052	0.005222	0.061852
	H281	H	-0.020460	0.001085	0.068931
	O282	O	0.011348	-0.024796	0.993920
	H283	H	0.003580	-0.017158	0.991015
	H284	H	0.002270	-0.023780	0.994145
	O285	O	0.423800	0.564693	0.501152
	H286	H	0.421856	0.565105	0.503771
	H287	H	0.423103	0.557220	0.498751
	O288	O	0.459242	0.478027	0.498401
	H289	H	0.453532	0.484334	0.503086
	H290	H	0.457456	0.474423	0.493970
	O291	O	0.470849	0.528689	0.468874
	H292	H	0.461989	0.523458	0.472894
	H293	H	0.468779	0.533995	0.464742
	O294	O	-0.048858	-0.022430	0.034303
	H295	H	-0.046899	-0.026204	0.034629
	H296	H	-0.046079	-0.023603	0.037419
	O297	O	0.493984	0.485334	0.508674
	H298	H	0.494756	0.481863	0.516907
	H299	H	0.493979	0.486104	0.510713
	O300	O	0.014521	1.052050	0.914674
	H301	H	0.003383	1.056454	0.913231
	H302	H	0.006835	1.052785	0.909761
	O303	O	0.471670	0.537221	0.449109
	H304	H	0.470009	0.533501	0.448967
	H305	H	0.467926	0.535870	0.441536
	O306	O	-0.001544	0.004568	0.947021
	H307	H	-0.005299	0.007890	0.951193
	H308	H	-0.011464	0.009297	0.943083
	O309	O	1.003295	0.947482	0.991991
	H310	H	0.998699	0.952686	0.994067
	H311	H	1.008676	0.934954	0.985434
	O312	O	0.423779	0.525592	0.486517
	H313	H	0.421613	0.533193	0.487009
	H314	H	0.432841	0.527354	0.493209
	O315	O	0.458646	0.531206	0.468840
	H316	H	0.460162	0.534408	0.465776
	H317	H	0.452035	0.537045	0.459652
	O318	O	-0.027390	1.048402	-0.031936
	H319	H	-0.024781	1.058342	-0.030134
	H320	H	-0.029496	1.048363	-0.033862
	O321	O	1.009583	1.033863	0.030852
	H322	H	1.015111	1.020286	0.029228
	H323	H	1.010422	1.034638	0.027353
