data_Molecule from HDF5

_cell_length_a		16.429913
_cell_length_b		16.192767
_cell_length_c		16.405258
_cell_angle_alpha	90.060107
_cell_angle_beta	90.397829
_cell_angle_gamma	90.084770
_symmetry_space_group_name_H-M	'P 1'
_symmetry_Int_Tables_number		1

loop_
	_symmetry_equiv_pos_as_xyz
	x,y,z

loop_
	_atom_site_label
	_atom_site_type_symbol
	_atom_site_fract_x
	_atom_site_fract_y
	_atom_site_fract_z
	H0	H	0.383711	0.813853	0.721181
	H1	H	0.591148	0.137485	0.722496
	H2	H	0.585599	0.813002	0.287445
	H3	H	0.384212	0.138624	0.285575
	H4	H	0.707082	0.369113	0.842553
	H5	H	0.711005	0.580650	0.161825
	H6	H	0.266589	0.580947	0.842925
	H7	H	0.270152	0.373371	0.163352
	H8	H	0.826620	0.693055	0.396248
	H9	H	0.148571	0.691838	0.601592
	H10	H	0.826912	0.256871	0.599243
	H11	H	0.150008	0.259434	0.402577
	H12	H	0.828895	0.366298	0.722091
	H13	H	0.146621	0.579078	0.721920
	H14	H	0.827388	0.575363	0.280143
	H15	H	0.149058	0.372415	0.284068
	H16	H	0.385833	0.693629	0.842294
	H17	H	0.587724	0.689922	0.165933
	H18	H	0.588679	0.256001	0.842651
	H19	H	0.390051	0.261315	0.165273
	H20	H	0.704076	0.813983	0.399046
	H21	H	0.707321	0.136966	0.607464
	H22	H	0.269768	0.813375	0.603774
	H23	H	0.270521	0.138975	0.400295
	H24	H	0.886395	0.312355	0.216719
	H25	H	0.091088	0.636671	0.220843
	H26	H	0.091996	0.312220	0.782919
	H27	H	0.884215	0.636075	0.780725
	H28	H	0.206543	0.871237	0.341637
	H29	H	0.208533	0.080921	0.661687
	H30	H	0.765464	0.079832	0.342424
	H31	H	0.767791	0.869311	0.662117
	H32	H	0.325822	0.193411	0.901988
	H33	H	0.648359	0.194134	0.106493
	H34	H	0.327187	0.756650	0.105087
	H35	H	0.649131	0.758683	0.903324
	H36	H	0.326556	0.872502	0.220798
	H37	H	0.647253	0.080284	0.224923
	H38	H	0.328704	0.082728	0.780343
	H39	H	0.646052	0.870742	0.782960
	H40	H	0.886691	0.190107	0.339298
	H41	H	0.090635	0.194443	0.661828
	H42	H	0.086508	0.758508	0.339791
	H43	H	0.888015	0.756486	0.662592
	H44	H	0.205520	0.312675	0.901343
	H45	H	0.204708	0.638282	0.105042
	H46	H	0.769726	0.314095	0.103718
	H47	H	0.769752	0.636875	0.896447
	H48	H	0.391085	0.094082	0.592275
	H49	H	0.574715	0.860902	0.592314
	H50	H	0.578187	0.091174	0.416841
	H51	H	0.397342	0.860062	0.410003
	H52	H	0.585344	0.389909	0.117580
	H53	H	0.573738	0.571695	0.887908
	H54	H	0.388163	0.565358	0.119585
	H55	H	0.392149	0.381552	0.885191
	H56	H	0.098330	0.565681	0.420119
	H57	H	0.873125	0.565894	0.587869
	H58	H	0.103565	0.377480	0.591928
	H59	H	0.872992	0.383346	0.405492
	H60	H	0.097812	0.388908	0.585860
	H61	H	0.875465	0.559681	0.588504
	H62	H	0.101006	0.556426	0.404483
	H63	H	0.872933	0.382141	0.406899
	H64	H	0.400904	0.561109	0.114644
	H65	H	0.585242	0.567619	0.887116
	H66	H	0.577469	0.390726	0.113964
	H67	H	0.393513	0.392721	0.890236
	H68	H	0.577631	0.092779	0.411502
	H69	H	0.577636	0.860514	0.591267
	H70	H	0.401909	0.091125	0.597118
	H71	H	0.394823	0.860202	0.412896
	H72	H	0.900094	0.591589	0.091991
	H73	H	0.086728	0.356501	0.092936
	H74	H	0.077136	0.589265	0.913694
	H75	H	0.893650	0.358873	0.913553
	H76	H	0.076448	0.886916	0.614163
	H77	H	0.072816	0.072262	0.386523
	H78	H	0.901364	0.063938	0.613557
	H79	H	0.888737	0.893309	0.389275
	H80	H	0.599838	0.064402	0.916468
	H81	H	0.374939	0.070050	0.089272
	H82	H	0.603283	0.885688	0.103927
	H83	H	0.373416	0.885061	0.910881
	H84	H	0.602739	0.879614	0.093834
	H85	H	0.374301	0.061715	0.095667
	H86	H	0.599549	0.063104	0.912882
	H87	H	0.373851	0.885268	0.912882
	H88	H	0.896864	0.067576	0.616513
	H89	H	0.088364	0.067474	0.383626
	H90	H	0.080244	0.879814	0.617605
	H91	H	0.902879	0.884647	0.390423
	H92	H	0.078780	0.590672	0.909877
	H93	H	0.074887	0.358640	0.097472
	H94	H	0.901290	0.589635	0.089552
	H95	H	0.897710	0.358031	0.906349
	H96	H	0.400364	0.088477	0.585808
	H97	H	0.576591	0.859689	0.594549
	H98	H	0.573536	0.090645	0.414205
	H99	H	0.393839	0.858192	0.410259
	H100	H	0.580070	0.382945	0.117830
	H101	H	0.575912	0.559865	0.890779
	H102	H	0.399268	0.573891	0.118831
	H103	H	0.402614	0.384795	0.890485
	H104	H	0.104729	0.574640	0.405762
	H105	H	0.873750	0.562582	0.593454
	H106	H	0.102213	0.389058	0.599411
	H107	H	0.874197	0.383861	0.407508
	H108	H	0.898633	0.590917	0.089482
	H109	H	0.077805	0.361903	0.085288
	H110	H	0.075008	0.589708	0.910059
	H111	H	0.900977	0.361269	0.913677
	H112	H	0.085018	0.886946	0.616520
	H113	H	0.077880	0.056196	0.390640
	H114	H	0.895711	0.061333	0.614975
	H115	H	0.889520	0.877374	0.383491
	H116	H	0.600805	0.066246	0.913830
	H117	H	0.370185	0.071369	0.099278
	H118	H	0.598846	0.890477	0.095121
	H119	H	0.374768	0.887104	0.911897
	C120	C	0.366208	-0.015659	0.623237
	C121	C	0.608374	0.967144	0.624569
	C122	C	0.606587	-0.015530	0.383236
	C123	C	0.365123	0.967119	0.380664
	C124	C	0.610361	0.355223	0.010747
	C125	C	0.610001	0.597655	0.994632
	C126	C	0.365383	0.597706	0.011523
	C127	C	0.366402	0.355731	0.994785
	C128	C	-0.004088	0.596551	0.378149
	C129	C	0.979455	0.595135	0.621731
	C130	C	-0.004227	0.352592	0.622839
	C131	C	0.979535	0.352837	0.378089
	C132	C	0.868949	0.483530	0.121175
	C133	C	0.110130	0.466324	0.123172
	C134	C	0.108738	0.483202	0.880312
	C135	C	0.866132	0.466141	0.879039
	C136	C	0.109493	0.854201	0.509441
	C137	C	0.110105	0.096839	0.492967
	C138	C	0.866117	0.095828	0.509484
	C139	C	0.864414	0.853189	0.493706
	C140	C	0.495033	0.097326	0.882120
	C141	C	0.478938	0.098693	0.126242
	C142	C	0.495682	0.854479	0.126348
	C143	C	0.479570	0.854287	0.881935
	C144	C	0.365000	0.862552	0.682103
	C145	C	0.609937	0.088780	0.683285
	C146	C	0.605538	0.861844	0.325754
	C147	C	0.364983	0.089601	0.323777
	C148	C	0.667632	0.352006	0.890229
	C149	C	0.670309	0.599102	0.114344
	C150	C	0.306023	0.599305	0.891063
	C151	C	0.308991	0.354682	0.115436
	C152	C	0.875085	0.654188	0.377341
	C153	C	0.100185	0.653383	0.621707
	C154	C	0.875209	0.294516	0.621015
	C155	C	0.101282	0.296895	0.381406
	C156	C	0.876301	0.349488	0.681595
	C157	C	0.099230	0.597308	0.681580
	C158	C	0.875174	0.595616	0.319593
	C159	C	0.100907	0.353254	0.322635
	C160	C	0.365648	0.655326	0.890519
	C161	C	0.609047	0.653600	0.116349
	C162	C	0.609064	0.295142	0.890653
	C163	C	0.368776	0.298877	0.116462
	C164	C	0.664168	0.862179	0.381685
	C165	C	0.667769	0.088524	0.626059
	C166	C	0.308469	0.862189	0.623432
	C167	C	0.308333	0.089839	0.381084
	C168	C	0.867815	0.361162	0.178035
	C169	C	0.110258	0.588312	0.181880
	C170	C	0.110259	0.360941	0.822315
	C171	C	0.865409	0.587714	0.820182
	C172	C	0.167086	0.852901	0.389234
	C173	C	0.169000	0.099044	0.613593
	C174	C	0.806082	0.097664	0.389514
	C175	C	0.807309	0.851439	0.614235
	C176	C	0.374556	0.155730	0.881904
	C177	C	0.600072	0.155979	0.126406
	C178	C	0.375117	0.796080	0.124309
	C179	C	0.600351	0.796747	0.882788
	C180	C	0.374775	0.853700	0.182276
	C181	C	0.599275	0.099460	0.185518
	C182	C	0.375835	0.100448	0.821255
	C183	C	0.598774	0.852553	0.822808
	C184	C	0.866713	0.152412	0.388005
	C185	C	0.110141	0.155438	0.613854
	C186	C	0.107152	0.796929	0.388322
	C187	C	0.866967	0.795027	0.614541
	C188	C	0.166900	0.361241	0.881090
	C189	C	0.166954	0.589152	0.124286
	C190	C	0.809660	0.362145	0.121983
	C191	C	0.808399	0.587953	0.877792
	C192	C	0.390657	0.069235	0.598916
	C193	C	0.583514	0.882445	0.599898
	C194	C	0.583214	0.069424	0.407298
	C195	C	0.388599	0.881647	0.404032
	C196	C	0.587630	0.380644	0.094542
	C197	C	0.585519	0.573499	0.910394
	C198	C	0.389203	0.573740	0.095672
	C199	C	0.389381	0.379535	0.910671
	C200	C	0.079641	0.572509	0.402949
	C201	C	0.895817	0.570028	0.597049
	C202	C	0.079472	0.377887	0.599360
	C203	C	0.895499	0.376210	0.400118
	C204	C	0.893190	0.568668	0.097311
	C205	C	0.086610	0.381146	0.098966
	C206	C	0.084143	0.567886	0.904109
	C207	C	0.890448	0.381431	0.903830
	C208	C	0.087028	0.877906	0.594180
	C209	C	0.086518	0.072228	0.409010
	C210	C	0.890629	0.071408	0.593225
	C211	C	0.887134	0.877954	0.409602
	C212	C	0.578467	0.071770	0.907173
	C213	C	0.394898	0.074683	0.101936
	C214	C	0.579945	0.878416	0.104021
	C215	C	0.395740	0.878738	0.905336
	Zn216	Zn	0.486780	-0.024051	0.752464
	Zn217	Zn	0.486632	-0.023574	0.254498
	Zn218	Zn	0.739711	0.475645	0.001432
	Zn219	Zn	0.236788	0.476009	0.002622
	Zn220	Zn	-0.012731	0.725168	0.501291
	Zn221	Zn	-0.012063	0.224366	0.500432
	Zn222	Zn	-0.012628	0.473865	0.751589
	Zn223	Zn	-0.011646	0.473859	0.249316
	Zn224	Zn	0.487867	0.726077	0.003801
	Zn225	Zn	0.488037	0.226827	0.003452
	Zn226	Zn	0.735959	-0.024423	0.502688
	Zn227	Zn	0.238650	-0.024159	0.501617
	N228	N	0.400312	0.939523	0.681999
	N229	N	0.573689	0.012280	0.682369
	N230	N	0.570436	0.938821	0.326573
	N231	N	0.399319	0.012214	0.323319
	N232	N	0.668665	0.388537	0.965852
	N233	N	0.671215	0.565094	0.037398
	N234	N	0.305676	0.564579	0.967504
	N235	N	0.307383	0.389198	0.038894
	N236	N	0.951000	0.654961	0.412977
	N237	N	0.024634	0.651952	0.585347
	N238	N	0.950484	0.296290	0.585223
	N239	N	0.024835	0.296101	0.415107
	N240	N	0.952463	0.384684	0.682862
	N241	N	0.023030	0.562070	0.681981
	N242	N	0.951442	0.560836	0.319595
	N243	N	0.024237	0.386962	0.320232
	N244	N	0.401647	0.654769	0.966337
	N245	N	0.572316	0.652715	0.040732
	N246	N	0.574129	0.296915	0.966470
	N247	N	0.403739	0.299213	0.040574
	N248	N	0.664928	0.939232	0.416861
	N249	N	0.667017	0.011679	0.590364
	N250	N	0.309193	0.939021	0.587684
	N251	N	0.308228	0.012479	0.415722
	N252	N	0.903962	0.437718	0.177486
	N253	N	0.075555	0.510938	0.181193
	N254	N	0.074657	0.437876	0.821822
	N255	N	0.900396	0.510744	0.820616
	N256	N	0.168609	0.887711	0.465734
	N257	N	0.169207	0.063388	0.537518
	N258	N	0.805926	0.062895	0.465911
	N259	N	0.805653	0.886813	0.538028
	N260	N	0.449765	0.153811	0.919158
	N261	N	0.524389	0.155641	0.090181
	N262	N	0.451277	0.796422	0.089999
	N263	N	0.525092	0.797613	0.918694
	N264	N	0.450703	0.889345	0.183463
	N265	N	0.522836	0.064627	0.185636
	N266	N	0.451630	0.064701	0.821456
	N267	N	0.522711	0.887845	0.822266
	N268	N	0.903333	0.151523	0.463631
	N269	N	0.074272	0.154363	0.537901
	N270	N	0.071930	0.797809	0.464061
	N271	N	0.901408	0.795725	0.538429
	N272	N	0.166128	0.438221	0.916329
	N273	N	0.166864	0.512467	0.088428
	N274	N	0.810113	0.439425	0.087391
	N275	N	0.808676	0.511277	0.913638
	O276	O	0.624942	0.547121	0.558972
	H277	H	0.619086	0.549597	0.560703
	H278	H	0.632901	0.545124	0.575818
	O279	O	0.509861	0.375253	0.414035
	H280	H	0.510461	0.393433	0.427179
	H281	H	0.525102	0.377076	0.419122
	O282	O	0.935487	-0.062431	0.901967
	H283	H	0.931140	-0.075716	0.914491
	H284	H	0.939016	-0.058718	0.895826
	O285	O	0.489173	0.497732	0.487886
	H286	H	0.489083	0.505039	0.481666
	H287	H	0.481807	0.491055	0.488253
	O288	O	0.853299	1.141525	0.852762
	H289	H	0.886430	1.147720	0.858946
	H290	H	0.851014	1.129431	0.849421
	O291	O	-0.207301	1.120095	-0.063136
	H292	H	-0.218538	1.129820	-0.081588
	H293	H	-0.204802	1.124198	-0.074904
	O294	O	0.403253	0.579742	0.565888
	H295	H	0.389592	0.578082	0.565244
	H296	H	0.403051	0.566495	0.557326
	O297	O	0.431138	0.408952	0.671732
	H298	H	0.425305	0.410467	0.660714
	H299	H	0.438679	0.417951	0.682603
	O300	O	0.425312	0.556151	0.396029
	H301	H	0.410105	0.573078	0.389673
	H302	H	0.422973	0.552015	0.384532
	O303	O	0.488160	0.408629	0.659508
	H304	H	0.477508	0.405838	0.650117
	H305	H	0.477344	0.395121	0.650270
	O306	O	0.379116	0.544613	0.477450
	H307	H	0.376931	0.540119	0.485907
	H308	H	0.376206	0.557436	0.487583
	O309	O	0.991831	1.016366	0.161047
	H310	H	0.990277	1.034573	0.153803
	H311	H	1.014352	1.017523	0.175498
	O312	O	-0.036682	-0.083284	0.114153
	H313	H	-0.045533	-0.090209	0.120132
	H314	H	-0.045782	-0.080850	0.113240
	O315	O	0.450590	0.455583	0.533874
	H316	H	0.453046	0.443386	0.515706
	H317	H	0.440719	0.477023	0.533911
	O318	O	-0.145478	0.864716	1.128151
	H319	H	-0.154392	0.877572	1.114509
	H320	H	-0.136608	0.871548	1.127267
	O321	O	0.359545	0.392252	0.517759
	H322	H	0.379677	0.382001	0.521826
	H323	H	0.354901	0.395883	0.512406
	O324	O	-0.013952	1.053135	-0.089903
	H325	H	-0.019609	1.061362	-0.097626
	H326	H	-0.021987	1.061990	-0.079597
	O327	O	0.379397	0.461320	0.424528
	H328	H	0.378677	0.454954	0.422480
	H329	H	0.379084	0.452893	0.422082
	O330	O	-0.829612	0.794580	1.895348
	H331	H	-0.834740	0.799769	1.894568
	H332	H	-0.823677	0.784430	1.904881
	O333	O	0.061899	0.106951	1.083517
	H334	H	0.059946	0.111837	1.090968
	H335	H	0.057242	0.110165	1.071151
	O336	O	0.630622	0.388385	0.475894
	H337	H	0.636654	0.394945	0.475227
	H338	H	0.634246	0.397603	0.473737
	O339	O	1.112302	0.011994	-0.075772
	H340	H	1.122704	0.002280	-0.065141
	H341	H	1.114093	-0.004583	-0.076270
	O342	O	-0.159025	-0.016116	0.034138
	H343	H	-0.167028	-0.001352	0.025970
	H344	H	-0.160756	0.004577	0.043051
	O345	O	1.454031	0.626308	0.453431
	H346	H	1.460089	0.631133	0.464714
	H347	H	1.467829	0.632953	0.451953
	O348	O	1.433321	1.411028	0.463520
	H349	H	1.440474	1.404236	0.466028
	H350	H	1.441353	1.410670	0.462409
	O351	O	0.590158	0.559659	0.420444
	H352	H	0.602246	0.578107	0.437475
	H353	H	0.584920	0.547404	0.425160
	O354	O	1.158561	-0.077253	0.877126
	H355	H	1.171526	-0.089141	0.874255
	H356	H	1.153203	-0.078625	0.877095
	O357	O	0.579866	0.494500	0.391748
	H358	H	0.582013	0.503981	0.395849
	H359	H	0.578399	0.501700	0.395612
	O360	O	0.667567	0.620702	0.676658
	H361	H	0.661941	0.595086	0.675632
	H362	H	0.659546	0.616447	0.693581
	O363	O	0.158982	0.896276	1.085517
	H364	H	0.152827	0.899551	1.078788
	H365	H	0.149982	0.896351	1.096293
	O366	O	0.874188	0.925395	-0.029995
	H367	H	0.871809	0.935340	-0.032535
	H368	H	0.881283	0.929897	-0.032923
	O369	O	-0.051713	0.978393	-0.015159
	H370	H	-0.063916	0.985143	-0.018571
	H371	H	-0.048993	0.974797	-0.014529
	O372	O	0.805744	-0.208983	0.044021
	H373	H	0.797838	-0.212394	0.050241
	H374	H	0.799428	-0.218284	0.060857
	O375	O	0.428337	0.357922	0.631230
	H376	H	0.434132	0.359153	0.635859
	H377	H	0.425281	0.362597	0.613208
	O378	O	1.602691	1.399318	0.393257
	H379	H	1.603560	1.395713	0.394241
	H380	H	1.614535	1.411542	0.398571
	O381	O	0.927406	0.049318	-0.170389
	H382	H	0.935955	0.064383	-0.178659
	H383	H	0.928642	0.043157	-0.173728
	O384	O	1.020510	1.012005	-0.180700
	H385	H	1.028026	1.010490	-0.183723
	H386	H	1.022397	1.006772	-0.182991
	O387	O	0.021641	-0.060909	0.079472
	H388	H	0.018820	-0.048305	0.082201
	H389	H	0.038838	-0.061471	0.080120
	O390	O	-0.072573	1.033711	-0.027469
	H391	H	-0.087101	1.035110	-0.019710
	H392	H	-0.067811	1.020834	-0.028833
	O393	O	1.117122	0.901132	1.120588
	H394	H	1.130424	0.898017	1.118713
	H395	H	1.116010	0.895333	1.124558
	O396	O	0.523696	0.298126	0.568283
	H397	H	0.525024	0.311956	0.544181
	H398	H	0.533372	0.288671	0.569692
	O399	O	0.041153	1.089141	1.140114
	H400	H	0.045085	1.087558	1.143541
	H401	H	0.051095	1.076015	1.147616
	O402	O	0.537535	0.613752	0.623468
	H403	H	0.542468	0.619277	0.641768
	H404	H	0.538758	0.612838	0.637010
	O405	O	1.036027	1.020130	0.143672
	H406	H	1.039069	1.011270	0.135550
	H407	H	1.044080	1.004314	0.135996
	O408	O	1.114639	0.780905	-0.012106
	H409	H	1.099873	0.775548	-0.016399
	H410	H	1.102285	0.779579	0.008761
	O411	O	0.973959	-0.064513	0.962866
	H412	H	0.972616	-0.067964	0.958931
	H413	H	0.977144	-0.058507	0.948979
	O414	O	0.530594	0.561328	0.482970
	H415	H	0.513296	0.565060	0.480338
	H416	H	0.525225	0.568920	0.480337
	O417	O	0.429859	0.492265	0.558513
	H418	H	0.442062	0.492595	0.562589
	H419	H	0.424821	0.481344	0.556080
