data_Molecule from HDF5

_cell_length_a		16.537810
_cell_length_b		16.452010
_cell_length_c		16.518595
_cell_angle_alpha	89.903777
_cell_angle_beta	90.006311
_cell_angle_gamma	89.951072
_symmetry_space_group_name_H-M	'P 1'
_symmetry_Int_Tables_number		1

loop_
	_symmetry_equiv_pos_as_xyz
	x,y,z

loop_
	_atom_site_label
	_atom_site_type_symbol
	_atom_site_fract_x
	_atom_site_fract_y
	_atom_site_fract_z
	H0	H	0.396477	0.848223	0.742493
	H1	H	0.605948	0.162889	0.737216
	H2	H	0.607534	0.847032	0.296157
	H3	H	0.396280	0.163656	0.298025
	H4	H	0.721967	0.403392	0.861833
	H5	H	0.727309	0.613439	0.176440
	H6	H	0.279909	0.613004	0.862834
	H7	H	0.279883	0.398756	0.176147
	H8	H	0.845219	0.726267	0.412839
	H9	H	0.160907	0.724896	0.622759
	H10	H	0.845558	0.284749	0.622102
	H11	H	0.160896	0.283153	0.414929
	H12	H	0.847001	0.399587	0.740172
	H13	H	0.160713	0.609314	0.739728
	H14	H	0.845019	0.610923	0.296278
	H15	H	0.160697	0.398977	0.297063
	H16	H	0.399162	0.726649	0.861214
	H17	H	0.610832	0.728903	0.176492
	H18	H	0.605058	0.287013	0.861649
	H19	H	0.398104	0.285165	0.177554
	H20	H	0.723974	0.845739	0.411856
	H21	H	0.722931	0.162280	0.620979
	H22	H	0.281151	0.846758	0.625781
	H23	H	0.279401	0.161860	0.413193
	H24	H	0.897845	0.346700	0.239618
	H25	H	0.108633	0.662432	0.240347
	H26	H	0.109976	0.345995	0.798621
	H27	H	0.900483	0.661960	0.798195
	H28	H	0.226995	0.896680	0.363714
	H29	H	0.227472	0.113044	0.675177
	H30	H	0.781167	0.109717	0.361621
	H31	H	0.781645	0.898486	0.675411
	H32	H	0.344630	0.226863	0.913875
	H33	H	0.659427	0.226356	0.122455
	H34	H	0.347196	0.781468	0.125816
	H35	H	0.659877	0.783073	0.913227
	H36	H	0.346445	0.898530	0.242282
	H37	H	0.658766	0.111538	0.240786
	H38	H	0.345441	0.112190	0.795494
	H39	H	0.658910	0.898192	0.795598
	H40	H	0.897684	0.226543	0.361476
	H41	H	0.108820	0.227012	0.675919
	H42	H	0.109342	0.782059	0.362423
	H43	H	0.899848	0.784045	0.676776
	H44	H	0.227002	0.347722	0.912553
	H45	H	0.225537	0.661965	0.125968
	H46	H	0.782910	0.346604	0.122064
	H47	H	0.781841	0.662206	0.913027
	H48	H	0.413718	0.116618	0.606871
	H49	H	0.596918	0.890414	0.604504
	H50	H	0.583919	0.114586	0.429125
	H51	H	0.412428	0.892849	0.433492
	H52	H	0.590198	0.419131	0.130714
	H53	H	0.586151	0.595763	0.910243
	H54	H	0.413521	0.598259	0.132844
	H55	H	0.403461	0.421898	0.906208
	H56	H	0.113191	0.595935	0.434784
	H57	H	0.891928	0.589647	0.608439
	H58	H	0.115077	0.418421	0.608289
	H59	H	0.890452	0.413223	0.431069
	H60	H	0.117769	0.413387	0.611263
	H61	H	0.889888	0.593897	0.611336
	H62	H	0.112199	0.585726	0.429836
	H63	H	0.892859	0.417389	0.430755
	H64	H	0.410848	0.587534	0.129864
	H65	H	0.595478	0.598524	0.904623
	H66	H	0.592204	0.411712	0.133979
	H67	H	0.422067	0.424621	0.912393
	H68	H	0.596140	0.115790	0.436276
	H69	H	0.591103	0.888963	0.614197
	H70	H	0.415166	0.117114	0.606892
	H71	H	0.415278	0.892252	0.427775
	H72	H	0.906046	0.618351	0.100250
	H73	H	0.090227	0.395622	0.100408
	H74	H	0.097045	0.617054	0.935419
	H75	H	0.909066	0.389538	0.930136
	H76	H	0.091308	0.918462	0.630397
	H77	H	0.088193	0.088216	0.410457
	H78	H	0.914750	0.091161	0.629409
	H79	H	0.916767	0.914971	0.407151
	H80	H	0.613586	0.092260	0.923942
	H81	H	0.388306	0.096217	0.109677
	H82	H	0.614307	0.917967	0.108874
	H83	H	0.393435	0.917186	0.937555
	H84	H	0.614031	0.917184	0.106392
	H85	H	0.389627	0.096152	0.107408
	H86	H	0.616498	0.101321	0.927760
	H87	H	0.392169	0.923519	0.927796
	H88	H	0.913273	0.095279	0.630959
	H89	H	0.089233	0.095909	0.406984
	H90	H	0.088614	0.912244	0.630802
	H91	H	0.912842	0.911231	0.404057
	H92	H	0.092960	0.619297	0.922877
	H93	H	0.098901	0.389501	0.108892
	H94	H	0.913707	0.621030	0.117705
	H95	H	0.915078	0.390513	0.926725
	H96	H	0.414572	0.117162	0.605719
	H97	H	0.586460	0.893906	0.605315
	H98	H	0.594929	0.120893	0.422956
	H99	H	0.419071	0.894400	0.433579
	H100	H	0.597500	0.417212	0.134242
	H101	H	0.594830	0.588544	0.909150
	H102	H	0.420898	0.591685	0.127976
	H103	H	0.416868	0.407443	0.904348
	H104	H	0.116578	0.594279	0.424283
	H105	H	0.890869	0.594809	0.606076
	H106	H	0.115667	0.412648	0.605408
	H107	H	0.890944	0.415668	0.427311
	H108	H	0.924084	0.612832	0.103961
	H109	H	0.086408	0.392471	0.113173
	H110	H	0.084451	0.613985	0.931558
	H111	H	0.914105	0.393582	0.933006
	H112	H	0.094480	0.913393	0.632981
	H113	H	0.095459	0.089963	0.406696
	H114	H	0.910431	0.091051	0.631911
	H115	H	0.910708	0.917495	0.405893
	H116	H	0.612157	0.094476	0.933958
	H117	H	0.390314	0.094197	0.108983
	H118	H	0.613803	0.919532	0.107004
	H119	H	0.388781	0.912246	0.928202
	C120	C	0.381540	0.013158	0.640002
	C121	C	0.623489	0.995721	0.639359
	C122	C	0.624415	0.012829	0.396597
	C123	C	0.381467	0.996849	0.398103
	C124	C	0.624084	0.384613	0.028450
	C125	C	0.625583	0.627528	1.011322
	C126	C	0.382180	0.626118	0.027163
	C127	C	0.381148	0.384716	1.011440
	C128	C	0.010649	0.625426	0.397013
	C129	C	0.995070	0.625067	0.640157
	C130	C	0.012135	0.382707	0.640298
	C131	C	0.995266	0.383254	0.397692
	C132	C	0.881763	0.513240	0.139853
	C133	C	0.124245	0.496292	0.140127
	C134	C	0.124603	0.512824	0.897886
	C135	C	0.881480	0.495644	0.897515
	C136	C	0.124520	0.882321	0.527901
	C137	C	0.124091	0.125094	0.511221
	C138	C	0.880979	0.125306	0.526963
	C139	C	0.881312	0.882237	0.509657
	C140	C	0.510211	0.127816	0.896692
	C141	C	0.493213	0.127445	0.140650
	C142	C	0.511031	0.884517	0.140622
	C143	C	0.494893	0.884578	0.898274
	C144	C	0.378405	0.894781	0.701572
	C145	C	0.624916	0.115271	0.697899
	C146	C	0.626282	0.894329	0.336097
	C147	C	0.378147	0.115588	0.337577
	C148	C	0.682546	0.383912	0.909394
	C149	C	0.686889	0.631213	0.129078
	C150	C	0.320745	0.630596	0.909530
	C151	C	0.320395	0.381321	0.129271
	C152	C	0.892415	0.686201	0.394580
	C153	C	0.113633	0.684888	0.641464
	C154	C	0.893339	0.324156	0.641250
	C155	C	0.113688	0.323327	0.396053
	C156	C	0.893855	0.381126	0.700082
	C157	C	0.113760	0.627163	0.699557
	C158	C	0.892365	0.628503	0.336588
	C159	C	0.113465	0.380849	0.337479
	C160	C	0.380265	0.686788	0.908813
	C161	C	0.628687	0.688870	0.129167
	C162	C	0.624496	0.326101	0.909191
	C163	C	0.379432	0.324850	0.130046
	C164	C	0.684291	0.893690	0.393654
	C165	C	0.682908	0.114865	0.639891
	C166	C	0.320944	0.894537	0.643786
	C167	C	0.319967	0.114842	0.395077
	C168	C	0.879379	0.394180	0.199665
	C169	C	0.126948	0.614659	0.200792
	C170	C	0.127658	0.393801	0.838340
	C171	C	0.880667	0.614797	0.837783
	C172	C	0.186115	0.879193	0.410487
	C173	C	0.186069	0.129648	0.628595
	C174	C	0.820770	0.128488	0.408781
	C175	C	0.821588	0.879943	0.628194
	C176	C	0.392055	0.187581	0.894919
	C177	C	0.611986	0.186990	0.142104
	C178	C	0.393739	0.822368	0.144220
	C179	C	0.612775	0.823623	0.895280
	C180	C	0.393251	0.880676	0.201751
	C181	C	0.611574	0.129841	0.200751
	C182	C	0.392560	0.130265	0.836071
	C183	C	0.612174	0.880904	0.836539
	C184	C	0.879142	0.186088	0.408728
	C185	C	0.127229	0.186608	0.628974
	C186	C	0.127373	0.822157	0.409777
	C187	C	0.880444	0.822940	0.628759
	C188	C	0.186072	0.394601	0.895173
	C189	C	0.185013	0.614716	0.143479
	C190	C	0.822294	0.394108	0.141341
	C191	C	0.821983	0.614656	0.894968
	C192	C	0.407031	0.095371	0.614034
	C193	C	0.598666	0.912652	0.614991
	C194	C	0.599233	0.095523	0.422275
	C195	C	0.407990	0.914730	0.424052
	C196	C	0.600120	0.408848	0.111248
	C197	C	0.599584	0.601658	0.929333
	C198	C	0.407793	0.599747	0.108843
	C199	C	0.406701	0.410615	0.929178
	C200	C	0.092611	0.599493	0.422320
	C201	C	0.912472	0.599928	0.615692
	C202	C	0.094782	0.407588	0.615404
	C203	C	0.912752	0.408200	0.422734
	C204	C	0.907179	0.595844	0.114587
	C205	C	0.099034	0.413959	0.114586
	C206	C	0.098913	0.595357	0.922927
	C207	C	0.905929	0.412685	0.922550
	C208	C	0.098874	0.907547	0.609999
	C209	C	0.098283	0.098893	0.429504
	C210	C	0.905709	0.099698	0.609322
	C211	C	0.906087	0.907603	0.426997
	C212	C	0.592787	0.102894	0.921478
	C213	C	0.410930	0.102531	0.115889
	C214	C	0.592682	0.910793	0.114741
	C215	C	0.412819	0.910182	0.924072
	Zn216	Zn	0.502108	0.004813	0.768041
	Zn217	Zn	0.502357	0.005661	0.269108
	Zn218	Zn	0.753208	0.505402	0.019690
	Zn219	Zn	0.252573	0.505573	0.018791
	Zn220	Zn	0.002710	0.753558	0.518780
	Zn221	Zn	0.003252	0.253969	0.518661
	Zn222	Zn	0.004041	0.504079	0.769685
	Zn223	Zn	0.002448	0.504427	0.268487
	Zn224	Zn	0.503175	0.755280	0.019659
	Zn225	Zn	0.501778	0.256230	0.019244
	Zn226	Zn	0.752373	0.003263	0.517930
	Zn227	Zn	0.253247	0.004277	0.519669
	N228	N	0.415349	0.969526	0.699337
	N229	N	0.588855	0.040118	0.697740
	N230	N	0.590002	0.969470	0.337632
	N231	N	0.415493	0.040886	0.339194
	N232	N	0.682357	0.419394	0.984452
	N233	N	0.685053	0.593854	0.054747
	N234	N	0.321830	0.593388	0.984020
	N235	N	0.321519	0.417973	0.054479
	N236	N	0.966861	0.684517	0.431448
	N237	N	0.038960	0.683573	0.605100
	N238	N	0.968123	0.324638	0.605301
	N239	N	0.039079	0.324584	0.432546
	N240	N	0.968899	0.416721	0.699820
	N241	N	0.038985	0.590787	0.699042
	N242	N	0.967033	0.591585	0.337780
	N243	N	0.038685	0.417343	0.338303
	N244	N	0.417512	0.684450	0.983057
	N245	N	0.591201	0.686803	0.054957
	N246	N	0.588796	0.326271	0.984309
	N247	N	0.416294	0.326730	0.055580
	N248	N	0.683227	0.968566	0.430441
	N249	N	0.682263	0.039365	0.604463
	N250	N	0.322588	0.969156	0.606487
	N251	N	0.321694	0.039885	0.431711
	N252	N	0.915555	0.469323	0.199026
	N253	N	0.089858	0.539964	0.199024
	N254	N	0.090107	0.468223	0.840008
	N255	N	0.917008	0.539735	0.839183
	N256	N	0.184541	0.915955	0.485060
	N257	N	0.184123	0.091979	0.554481
	N258	N	0.821907	0.091378	0.483201
	N259	N	0.821844	0.915624	0.552983
	N260	N	0.466343	0.186150	0.931975
	N261	N	0.537493	0.185868	0.105554
	N262	N	0.467855	0.824656	0.106885
	N263	N	0.538827	0.825876	0.932937
	N264	N	0.467124	0.918645	0.199548
	N265	N	0.536664	0.093807	0.200091
	N266	N	0.467256	0.093900	0.836882
	N267	N	0.537809	0.918239	0.838274
	N268	N	0.915862	0.184525	0.483356
	N269	N	0.089122	0.183648	0.555120
	N270	N	0.089811	0.823818	0.483843
	N271	N	0.916660	0.823930	0.553805
	N272	N	0.184500	0.469713	0.931349
	N273	N	0.183642	0.540055	0.106476
	N274	N	0.823635	0.469347	0.105092
	N275	N	0.822456	0.539621	0.931416
	O276	O	0.409097	0.423748	0.368751
	H277	H	0.426183	0.409571	0.370444
	H278	H	0.432310	0.439026	0.368065
	O279	O	0.310364	0.716452	0.475370
	H280	H	0.320249	0.722358	0.467262
	H281	H	0.297592	0.730387	0.477085
	O282	O	0.461383	0.598481	0.648039
	H283	H	0.463673	0.602317	0.648956
	H284	H	0.453767	0.597237	0.652370
	O285	O	0.208934	1.110510	0.203100
	H286	H	0.203616	1.109370	0.198296
	H287	H	0.220348	1.097486	0.223591
	O288	O	-0.178041	-0.178859	0.201449
	H289	H	-0.182427	-0.168413	0.174753
	H290	H	-0.155935	-0.191126	0.185160
	O291	O	0.870780	0.797591	0.008018
	H292	H	0.877512	0.798469	0.010814
	H293	H	0.878479	0.795051	0.006373
	O294	O	0.025909	0.798748	-0.184069
	H295	H	0.023723	0.801054	-0.205344
	H296	H	0.040320	0.794513	-0.169712
	O297	O	1.208452	0.892623	-0.187906
	H298	H	1.209972	0.907080	-0.184894
	H299	H	1.221128	0.900845	-0.213534
	O300	O	0.698841	0.308603	0.321836
	H301	H	0.714520	0.303170	0.335410
	H302	H	0.699404	0.318412	0.309459
	O303	O	0.302477	0.375876	0.719633
	H304	H	0.295250	0.363393	0.695474
	H305	H	0.287207	0.393765	0.723201
	O306	O	0.169563	0.786529	1.186972
	H307	H	0.167468	0.788927	1.186561
	H308	H	0.167215	0.797800	1.181803
	O309	O	0.504660	0.606030	0.594487
	H310	H	0.488120	0.607492	0.582802
	H311	H	0.526227	0.606158	0.595277
	O312	O	0.406133	0.472803	0.490605
	H313	H	0.410542	0.487763	0.490568
	H314	H	0.396544	0.489310	0.489477
	O315	O	-0.066758	-0.030360	0.881932
	H316	H	-0.061242	-0.010947	0.895211
	H317	H	-0.067294	-0.020100	0.864722
	O318	O	-0.607689	1.597179	0.452450
	H319	H	-0.611939	1.610694	0.446121
	H320	H	-0.609200	1.590984	0.453095
	O321	O	-0.035139	1.220979	-0.195235
	H322	H	-0.064724	1.220326	-0.195832
	H323	H	-0.043486	1.245441	-0.215368
	O324	O	0.799642	0.200781	0.989426
	H325	H	0.784256	0.188408	1.010221
	H326	H	0.803193	0.202324	1.009400
	O327	O	1.097886	-0.025953	1.177794
	H328	H	1.085795	-0.024592	1.168296
	H329	H	1.093051	-0.038331	1.170448
	O330	O	1.003416	-0.015065	-0.118348
	H331	H	1.005092	-0.014232	-0.122960
	H332	H	0.992626	-0.015171	-0.111666
	O333	O	0.711516	0.711224	0.646301
	H334	H	0.725140	0.719154	0.650938
	H335	H	0.716267	0.705697	0.650055
	O336	O	1.624981	-0.435633	0.549795
	H337	H	1.633747	-0.424100	0.552701
	H338	H	1.612631	-0.426656	0.559399
	O339	O	0.530134	-0.703038	-0.695045
	H340	H	0.546975	-0.721404	-0.714884
	H341	H	0.545773	-0.693597	-0.700056
	O342	O	0.505610	0.510081	0.416888
	H343	H	0.515231	0.524269	0.436411
	H344	H	0.515434	0.503705	0.411827
	O345	O	-0.647849	0.696197	-0.671865
	H346	H	-0.659991	0.703506	-0.657088
	H347	H	-0.655965	0.677767	-0.684342
	O348	O	1.196614	-0.057186	1.159945
	H349	H	1.219287	-0.055065	1.188282
	H350	H	1.197635	-0.074330	1.145087
	O351	O	0.833044	1.014254	-0.157987
	H352	H	0.845489	1.043402	-0.152069
	H353	H	0.809982	1.023255	-0.191946
	O354	O	0.475325	0.291842	0.730172
	H355	H	0.458211	0.274393	0.746623
	H356	H	0.457660	0.286327	0.730675
	O357	O	1.053914	1.217632	1.235546
	H358	H	1.071753	1.226048	1.249247
	H359	H	1.080606	1.224730	1.243103
	O360	O	0.704930	0.564079	0.715426
	H361	H	0.705802	0.555222	0.723412
	H362	H	0.700523	0.565038	0.721911
	O363	O	0.522448	0.704396	0.663905
	H364	H	0.534540	0.699710	0.666232
	H365	H	0.540606	0.713499	0.660145
	O366	O	1.199623	0.182745	1.116383
	H367	H	1.204432	0.189817	1.103947
	H368	H	1.203977	0.177910	1.103706
	O369	O	-0.260012	0.768610	-0.312318
	H370	H	-0.244462	0.771978	-0.317861
	H371	H	-0.251427	0.786395	-0.296065
	O372	O	0.081076	0.887539	-0.061998
	H373	H	0.073672	0.886238	-0.075835
	H374	H	0.081911	0.905525	-0.067229
	O375	O	-0.017390	0.794866	1.229483
	H376	H	-0.018113	0.785396	1.232014
	H377	H	-0.014988	0.796622	1.234166
	O378	O	0.568668	0.559889	0.301891
	H379	H	0.562531	0.578527	0.301348
	H380	H	0.579943	0.553362	0.301609
	O381	O	1.076863	0.097636	-0.127494
	H382	H	1.053523	0.106057	-0.122698
	H383	H	1.058835	0.097535	-0.130018
	O384	O	-0.188919	0.200099	1.830140
	H385	H	-0.188431	0.207486	1.875955
	H386	H	-0.213565	0.228736	1.813921
	O387	O	-0.215813	0.978997	1.235277
	H388	H	-0.201701	0.951398	1.235038
	H389	H	-0.235894	0.976830	1.264892
	O390	O	0.778168	1.053033	1.071423
	H391	H	0.775311	1.028479	1.064577
	H392	H	0.773281	1.024126	1.085805
	O393	O	1.303570	0.524228	0.654558
	H394	H	1.300866	0.530576	0.658689
	H395	H	1.309597	0.526997	0.662046
	O396	O	0.465966	0.657011	0.590520
	H397	H	0.470037	0.660353	0.567343
	H398	H	0.473948	0.641495	0.592006
	O399	O	0.526882	0.464444	0.669500
	H400	H	0.520404	0.469809	0.657150
	H401	H	0.512528	0.448910	0.677432
	O402	O	-0.094696	0.051566	0.905781
	H403	H	-0.097435	0.059444	0.900438
	H404	H	-0.089141	0.073459	0.909791
	O405	O	0.006921	0.211814	-0.002645
	H406	H	-0.004007	0.208481	0.022469
	H407	H	-0.001032	0.222271	-0.023643
	O408	O	0.304475	0.309212	0.600838
	H409	H	0.307126	0.306901	0.588002
	H410	H	0.301113	0.315758	0.577309
	O411	O	0.090367	1.014082	0.124428
	H412	H	0.097681	1.033125	0.123858
	H413	H	0.102907	1.016238	0.122431
	O414	O	0.647900	0.340249	0.693874
	H415	H	0.636874	0.363995	0.679631
	H416	H	0.625555	0.344404	0.680078
	O417	O	0.838724	-0.109377	0.916259
	H418	H	0.849872	-0.105011	0.912346
	H419	H	0.850272	-0.114404	0.905422
	O420	O	0.712564	0.303154	0.493411
	H421	H	0.717029	0.301694	0.481287
	H422	H	0.711265	0.288112	0.502498
	O423	O	0.214579	1.018963	-0.095445
	H424	H	0.214522	1.008019	-0.090423
	H425	H	0.209886	1.026858	-0.112529
	O426	O	1.140729	0.806656	1.022134
	H427	H	1.150368	0.795507	1.003997
	H428	H	1.136587	0.811102	0.989052
	O429	O	0.633616	0.471522	0.315806
	H430	H	0.647907	0.478833	0.309103
	H431	H	0.616154	0.469943	0.309279
	O432	O	0.683414	0.553386	0.507166
	H433	H	0.684409	0.561328	0.507454
	H434	H	0.685226	0.541980	0.515818
	O435	O	0.064760	0.105638	-0.054523
	H436	H	0.060859	0.109167	-0.040844
	H437	H	0.052703	0.106601	-0.052766
	O438	O	1.522960	0.290316	0.522559
	H439	H	1.527956	0.282537	0.516838
	H440	H	1.516181	0.302566	0.510496
	O441	O	0.196780	0.080299	0.036354
	H442	H	0.194291	0.099417	0.029076
	H443	H	0.197207	0.068988	0.011254
	O444	O	0.839924	-0.039338	0.073030
	H445	H	0.833855	-0.056807	0.065259
	H446	H	0.836517	-0.034977	0.073753
	O447	O	0.369575	0.313390	0.466204
	H448	H	0.363760	0.334200	0.465460
	H449	H	0.390477	0.309875	0.443769
	O450	O	0.305467	0.539613	0.321681
	H451	H	0.316367	0.530958	0.318069
	H452	H	0.294151	0.536092	0.305152
	O453	O	0.696187	0.471906	0.590323
	H454	H	0.705403	0.455314	0.580774
	H455	H	0.688079	0.468052	0.589593
	O456	O	0.514529	0.713679	0.507181
	H457	H	0.519848	0.723975	0.514291
	H458	H	0.514290	0.711604	0.504725
	O459	O	-0.119357	0.207479	0.173749
	H460	H	-0.104770	0.200911	0.168718
	H461	H	-0.116519	0.196107	0.170404
	O462	O	0.947375	0.053280	0.225215
	H463	H	0.937856	0.047611	0.216047
	H464	H	0.950869	0.073280	0.234419
	O465	O	1.337775	-0.313006	-0.195040
	H466	H	1.355276	-0.324097	-0.201674
	H467	H	1.334887	-0.309884	-0.193929
