data_Molecule from HDF5

_cell_length_a		16.318969
_cell_length_b		16.264339
_cell_length_c		16.455923
_cell_angle_alpha	90.220580
_cell_angle_beta	89.780963
_cell_angle_gamma	89.877320
_symmetry_space_group_name_H-M	'P 1'
_symmetry_Int_Tables_number		1

loop_
	_symmetry_equiv_pos_as_xyz
	x,y,z

loop_
	_atom_site_label
	_atom_site_type_symbol
	_atom_site_fract_x
	_atom_site_fract_y
	_atom_site_fract_z
	H0	H	0.389696	0.821283	0.718700
	H1	H	0.596405	0.144468	0.721775
	H2	H	0.599992	0.823374	0.277790
	H3	H	0.388694	0.144870	0.282775
	H4	H	0.710670	0.378012	0.840770
	H5	H	0.711306	0.589039	0.159617
	H6	H	0.271032	0.586549	0.841026
	H7	H	0.268332	0.379498	0.160029
	H8	H	0.831004	0.702826	0.400159
	H9	H	0.152053	0.701828	0.605595
	H10	H	0.829876	0.264252	0.602160
	H11	H	0.153122	0.263182	0.396655
	H12	H	0.830183	0.379019	0.720574
	H13	H	0.150241	0.588152	0.721993
	H14	H	0.830973	0.589553	0.281125
	H15	H	0.150187	0.373656	0.276108
	H16	H	0.389345	0.700962	0.840195
	H17	H	0.594150	0.704518	0.159239
	H18	H	0.591692	0.264916	0.840194
	H19	H	0.385424	0.264087	0.160697
	H20	H	0.712256	0.822284	0.396839
	H21	H	0.708577	0.145886	0.603134
	H22	H	0.274033	0.821867	0.604131
	H23	H	0.274888	0.145116	0.400236
	H24	H	0.885262	0.321166	0.219223
	H25	H	0.094638	0.642854	0.222466
	H26	H	0.093672	0.322423	0.781689
	H27	H	0.884873	0.644446	0.781202
	H28	H	0.212571	0.878494	0.341006
	H29	H	0.209394	0.085111	0.660889
	H30	H	0.772117	0.088256	0.341627
	H31	H	0.772186	0.881104	0.660919
	H32	H	0.328258	0.198008	0.903217
	H33	H	0.653166	0.201580	0.100074
	H34	H	0.328384	0.768376	0.101235
	H35	H	0.653352	0.764484	0.898601
	H36	H	0.331283	0.880249	0.221222
	H37	H	0.652502	0.089908	0.219687
	H38	H	0.330400	0.085071	0.783439
	H39	H	0.653736	0.879745	0.781753
	H40	H	0.891722	0.199216	0.339855
	H41	H	0.093802	0.202067	0.660136
	H42	H	0.096735	0.761428	0.341506
	H43	H	0.889080	0.765776	0.661569
	H44	H	0.207031	0.321872	0.899604
	H45	H	0.206662	0.645543	0.104041
	H46	H	0.773936	0.320686	0.099644
	H47	H	0.772850	0.645142	0.899877
	H48	H	0.411858	0.090782	0.579322
	H49	H	0.586728	0.868828	0.586424
	H50	H	0.585374	0.097081	0.416175
	H51	H	0.404245	0.869103	0.411179
	H52	H	0.584939	0.401131	0.113696
	H53	H	0.579813	0.570665	0.888660
	H54	H	0.402331	0.575205	0.113706
	H55	H	0.402427	0.389983	0.887552
	H56	H	0.102984	0.566141	0.413708
	H57	H	0.875564	0.573744	0.594943
	H58	H	0.103812	0.397346	0.591425
	H59	H	0.877727	0.392936	0.412513
	H60	H	0.108082	0.390986	0.596206
	H61	H	0.876222	0.575325	0.589950
	H62	H	0.105287	0.568214	0.408543
	H63	H	0.876815	0.393533	0.407985
	H64	H	0.396203	0.579374	0.116242
	H65	H	0.580611	0.574630	0.886998
	H66	H	0.572407	0.394030	0.111129
	H67	H	0.395655	0.390580	0.885128
	H68	H	0.585488	0.101081	0.404333
	H69	H	0.584463	0.866069	0.596252
	H70	H	0.385923	0.103162	0.589475
	H71	H	0.403030	0.867551	0.409311
	H72	H	0.903112	0.598125	0.095103
	H73	H	0.077926	0.370041	0.086467
	H74	H	0.083980	0.601681	0.909781
	H75	H	0.899608	0.368751	0.912612
	H76	H	0.081768	0.890916	0.614935
	H77	H	0.083825	0.065667	0.388819
	H78	H	0.905282	0.070676	0.612385
	H79	H	0.906233	0.897764	0.390996
	H80	H	0.603828	0.064378	0.910088
	H81	H	0.373681	0.073665	0.099842
	H82	H	0.606036	0.891746	0.088175
	H83	H	0.377437	0.897121	0.905147
	H84	H	0.604249	0.896913	0.087307
	H85	H	0.376424	0.079331	0.088300
	H86	H	0.610314	0.076547	0.901847
	H87	H	0.374765	0.888776	0.906434
	H88	H	0.900777	0.079161	0.616776
	H89	H	0.080082	0.076840	0.386675
	H90	H	0.085666	0.892174	0.616388
	H91	H	0.906116	0.888032	0.386974
	H92	H	0.077382	0.599744	0.906531
	H93	H	0.081730	0.367639	0.089724
	H94	H	0.904210	0.595808	0.089101
	H95	H	0.897647	0.365932	0.906260
	H96	H	0.409370	0.100867	0.608127
	H97	H	0.576889	0.870835	0.590791
	H98	H	0.575065	0.096005	0.409406
	H99	H	0.405605	0.869022	0.408635
	H100	H	0.584090	0.386617	0.117135
	H101	H	0.583709	0.571573	0.886403
	H102	H	0.395729	0.571877	0.114440
	H103	H	0.398820	0.395181	0.888274
	H104	H	0.105268	0.571536	0.412995
	H105	H	0.877451	0.570777	0.591348
	H106	H	0.105197	0.389618	0.588053
	H107	H	0.876021	0.389001	0.410167
	H108	H	0.898519	0.598384	0.090833
	H109	H	0.076536	0.369030	0.091695
	H110	H	0.078649	0.597207	0.913321
	H111	H	0.903827	0.368612	0.906706
	H112	H	0.083276	0.895251	0.613853
	H113	H	0.090735	0.073465	0.383797
	H114	H	0.895403	0.070790	0.615438
	H115	H	0.898099	0.894345	0.386337
	H116	H	0.605648	0.078360	0.916933
	H117	H	0.379906	0.067083	0.090568
	H118	H	0.606267	0.895016	0.092243
	H119	H	0.378937	0.893596	0.913415
	C120	C	0.371186	-0.008428	0.622581
	C121	C	0.613148	0.975389	0.622143
	C122	C	0.614007	-0.008254	0.378480
	C123	C	0.372241	0.975295	0.379789
	C124	C	0.611623	0.362145	0.008410
	C125	C	0.613005	0.605089	0.991915
	C126	C	0.367935	0.605694	0.009119
	C127	C	0.367490	0.361162	0.992487
	C128	C	-0.000880	0.602278	0.380687
	C129	C	0.982321	0.604596	0.623147
	C130	C	-0.000810	0.361335	0.622270
	C131	C	0.982982	0.359949	0.378301
	C132	C	0.869245	0.491174	0.122326
	C133	C	0.110671	0.474701	0.121979
	C134	C	0.111029	0.492712	0.879140
	C135	C	0.868773	0.474380	0.878465
	C136	C	0.114853	0.860485	0.509408
	C137	C	0.114274	0.103531	0.492114
	C138	C	0.870047	0.104614	0.509054
	C139	C	0.871481	0.862336	0.493400
	C140	C	0.499715	0.103660	0.879643
	C141	C	0.483261	0.105527	0.122722
	C142	C	0.499554	0.863028	0.120832
	C143	C	0.483509	0.861518	0.877835
	C144	C	0.370755	0.869916	0.679976
	C145	C	0.614307	0.096372	0.681342
	C146	C	0.617459	0.871199	0.318123
	C147	C	0.370368	0.096599	0.322053
	C148	C	0.670796	0.360131	0.888469
	C149	C	0.671816	0.607286	0.111856
	C150	C	0.310439	0.605619	0.888707
	C151	C	0.308137	0.360753	0.112329
	C152	C	0.878866	0.663072	0.380481
	C153	C	0.103432	0.663116	0.624307
	C154	C	0.878265	0.303150	0.621685
	C155	C	0.104470	0.301797	0.377476
	C156	C	0.878214	0.360379	0.680537
	C157	C	0.102576	0.606399	0.682365
	C158	C	0.878803	0.606394	0.321388
	C159	C	0.102853	0.357129	0.317505
	C160	C	0.369042	0.662781	0.888384
	C161	C	0.613543	0.664735	0.111797
	C162	C	0.611743	0.303765	0.887887
	C163	C	0.366632	0.303146	0.112636
	C164	C	0.673201	0.870644	0.377506
	C165	C	0.670367	0.097167	0.622551
	C166	C	0.313206	0.870009	0.622754
	C167	C	0.313432	0.096544	0.380402
	C168	C	0.867088	0.369814	0.180137
	C169	C	0.112440	0.595227	0.182035
	C170	C	0.111812	0.370605	0.821198
	C171	C	0.867044	0.596182	0.820690
	C172	C	0.173467	0.859181	0.389153
	C173	C	0.170715	0.104366	0.613036
	C174	C	0.811208	0.106608	0.389409
	C175	C	0.811696	0.861890	0.612991
	C176	C	0.377384	0.160147	0.882025
	C177	C	0.604673	0.163385	0.120747
	C178	C	0.377604	0.806004	0.121017
	C179	C	0.604779	0.803200	0.878603
	C180	C	0.378903	0.861809	0.180596
	C181	C	0.604282	0.107630	0.180194
	C182	C	0.378402	0.104106	0.822533
	C183	C	0.605087	0.860522	0.820402
	C184	C	0.870835	0.161905	0.388434
	C185	C	0.113229	0.162287	0.612569
	C186	C	0.115645	0.801045	0.389327
	C187	C	0.870124	0.804683	0.613504
	C188	C	0.168511	0.370418	0.879542
	C189	C	0.168359	0.596498	0.122999
	C190	C	0.811434	0.369450	0.120721
	C191	C	0.811090	0.596546	0.879613
	C192	C	0.395420	0.076357	0.599045
	C193	C	0.589581	0.890460	0.598105
	C194	C	0.589048	0.076162	0.402785
	C195	C	0.397124	0.890682	0.402918
	C196	C	0.587341	0.386860	0.092247
	C197	C	0.588631	0.579680	0.908957
	C198	C	0.391156	0.582257	0.092831
	C199	C	0.391911	0.385057	0.908611
	C200	C	0.082587	0.576213	0.404879
	C201	C	0.898302	0.580207	0.599022
	C202	C	0.083623	0.385671	0.598788
	C203	C	0.898761	0.384737	0.403147
	C204	C	0.894648	0.575677	0.098519
	C205	C	0.085885	0.390647	0.096586
	C206	C	0.087103	0.577245	0.902933
	C207	C	0.893319	0.389849	0.901786
	C208	C	0.090538	0.885362	0.593115
	C209	C	0.091605	0.079165	0.408260
	C210	C	0.893575	0.080695	0.592822
	C211	C	0.896343	0.886273	0.409886
	C212	C	0.584469	0.079938	0.902829
	C213	C	0.398583	0.080596	0.099712
	C214	C	0.583636	0.887639	0.096369
	C215	C	0.399065	0.886066	0.901414
	Zn216	Zn	0.492376	-0.016897	0.750376
	Zn217	Zn	0.492538	-0.016223	0.250173
	Zn218	Zn	0.741156	0.482965	0.000611
	Zn219	Zn	0.238837	0.483944	0.000568
	Zn220	Zn	-0.007964	0.731888	0.501778
	Zn221	Zn	-0.007706	0.231857	0.500030
	Zn222	Zn	-0.009703	0.483643	0.751156
	Zn223	Zn	-0.010010	0.481793	0.250808
	Zn224	Zn	0.490637	0.733575	0.000442
	Zn225	Zn	0.490788	0.233073	0.000819
	Zn226	Zn	0.741344	-0.016128	0.500778
	Zn227	Zn	0.243678	-0.017144	0.501301
	N228	N	0.406131	0.946456	0.680068
	N229	N	0.579369	0.019535	0.681101
	N230	N	0.581226	0.947627	0.318616
	N231	N	0.406360	0.020166	0.321644
	N232	N	0.670583	0.395865	0.964354
	N233	N	0.671487	0.570771	0.036357
	N234	N	0.309530	0.570873	0.964647
	N235	N	0.308713	0.396235	0.036587
	N236	N	0.954587	0.660756	0.416609
	N237	N	0.027645	0.661972	0.587990
	N238	N	0.954633	0.303537	0.586201
	N239	N	0.028949	0.303468	0.414571
	N240	N	0.954389	0.395993	0.680956
	N241	N	0.026279	0.570872	0.681817
	N242	N	0.954529	0.569107	0.321558
	N243	N	0.026253	0.392515	0.317955
	N244	N	0.404268	0.662730	0.964034
	N245	N	0.577732	0.663542	0.036402
	N246	N	0.575459	0.305014	0.963392
	N247	N	0.402927	0.303386	0.037037
	N248	N	0.671309	0.946626	0.414187
	N249	N	0.669678	0.020805	0.586314
	N250	N	0.313375	0.946731	0.587772
	N251	N	0.314485	0.020009	0.415539
	N252	N	0.902095	0.446701	0.181376
	N253	N	0.077294	0.518487	0.181285
	N254	N	0.076772	0.447547	0.820878
	N255	N	0.902125	0.519127	0.819630
	N256	N	0.173267	0.895352	0.464885
	N257	N	0.171556	0.068687	0.537141
	N258	N	0.810428	0.071733	0.465489
	N259	N	0.812280	0.897224	0.537156
	N260	N	0.453800	0.160004	0.916940
	N261	N	0.528175	0.162218	0.085930
	N262	N	0.453615	0.806608	0.084640
	N263	N	0.528153	0.803526	0.913410
	N264	N	0.455851	0.896556	0.180753
	N265	N	0.527631	0.072573	0.181659
	N266	N	0.455365	0.069809	0.821070
	N267	N	0.528622	0.895905	0.819729
	N268	N	0.906533	0.160930	0.463841
	N269	N	0.078847	0.161943	0.536389
	N270	N	0.080205	0.801596	0.465293
	N271	N	0.906613	0.804820	0.538151
	N272	N	0.168264	0.447179	0.914755
	N273	N	0.167535	0.520434	0.086313
	N274	N	0.812693	0.446024	0.085602
	N275	N	0.811910	0.519985	0.914771
	O276	O	0.531432	0.313089	0.543980
	H277	H	0.532359	0.319083	0.541170
	H278	H	0.532107	0.317603	0.548635
	O279	O	0.517588	0.349262	0.558296
	H280	H	0.503001	0.353909	0.561135
	H281	H	0.525597	0.336134	0.537470
	O282	O	1.043941	-0.140870	0.999663
	H283	H	1.040682	-0.150368	1.002255
	H284	H	1.041235	-0.134242	1.002380
	O285	O	0.545499	0.459397	0.561117
	H286	H	0.542132	0.458446	0.549095
	H287	H	0.560606	0.465474	0.566402
	O288	O	1.021981	0.909251	0.838495
	H289	H	1.037412	0.900851	0.825612
	H290	H	1.029158	0.929776	0.844432
	O291	O	-0.066823	0.883417	0.062019
	H292	H	-0.059516	0.889770	0.052436
	H293	H	-0.066724	0.880481	0.057640
	O294	O	0.466437	0.541237	0.313297
	H295	H	0.466270	0.533147	0.307464
	H296	H	0.476297	0.536810	0.303842
	O297	O	0.636842	0.487775	0.556518
	H298	H	0.645406	0.483132	0.571634
	H299	H	0.637936	0.490988	0.552869
	O300	O	0.661124	0.478587	0.373078
	H301	H	0.662189	0.474403	0.362118
	H302	H	0.659222	0.482813	0.391940
	O303	O	0.282136	0.572051	0.418899
	H304	H	0.269070	0.564665	0.423947
	H305	H	0.278509	0.572083	0.395512
	O306	O	0.495526	0.609733	0.388579
	H307	H	0.502401	0.602449	0.400833
	H308	H	0.502210	0.609281	0.387452
	O309	O	0.653511	0.600318	0.596954
	H310	H	0.627989	0.602750	0.602916
	H311	H	0.657097	0.578863	0.603956
	O312	O	0.101073	-0.094762	0.011730
	H313	H	0.096972	-0.097223	0.019253
	H314	H	0.093510	-0.081722	0.013487
	O315	O	0.537970	0.673758	0.693022
	H316	H	0.541061	0.677307	0.697020
	H317	H	0.529394	0.678060	0.696997
	O318	O	0.065128	0.879254	1.020437
	H319	H	0.049255	0.882111	1.023320
	H320	H	0.077480	0.886797	1.022730
	O321	O	0.605074	0.403595	0.328527
	H322	H	0.600942	0.413100	0.319789
	H323	H	0.611913	0.403501	0.350612
	O324	O	0.091713	1.117759	0.123349
	H325	H	0.097872	1.118285	0.123804
	H326	H	0.093518	1.114304	0.127388
	O327	O	0.513371	0.373799	0.381815
	H328	H	0.513698	0.362050	0.380704
	H329	H	0.526244	0.375934	0.389762
	O330	O	-0.564708	0.365076	1.647960
	H331	H	-0.563109	0.371053	1.646373
	H332	H	-0.569200	0.353093	1.660292
	O333	O	-0.073390	-0.011138	1.039131
	H334	H	-0.080151	-0.014573	1.035655
	H335	H	-0.066858	-0.024273	1.046034
	O336	O	0.347322	0.463118	0.667587
	H337	H	0.337469	0.457790	0.671502
	H338	H	0.343928	0.469105	0.667852
	O339	O	0.906697	0.028123	-0.154602
	H340	H	0.897801	0.017881	-0.149037
	H341	H	0.904859	0.036646	-0.151949
	O342	O	-0.058174	0.004762	0.138204
	H343	H	-0.061710	0.005124	0.128311
	H344	H	-0.041956	0.003975	0.140605
	O345	O	1.390909	0.555573	0.508617
	H346	H	1.390575	0.548011	0.503692
	H347	H	1.385154	0.560751	0.514132
	O348	O	1.351778	1.290827	0.632974
	H349	H	1.354123	1.294327	0.644607
	H350	H	1.372738	1.293076	0.631091
	O351	O	0.313386	0.601960	0.543782
	H352	H	0.306852	0.602075	0.531664
	H353	H	0.302676	0.598422	0.532278
	O354	O	0.908974	0.109463	0.965334
	H355	H	0.909382	0.105136	0.967259
	H356	H	0.921399	0.123495	0.958056
	O357	O	0.541721	0.498210	0.403971
	H358	H	0.541855	0.504676	0.397980
	H359	H	0.531039	0.508710	0.403351
	O360	O	0.633030	0.610373	0.579929
	H361	H	0.640585	0.613286	0.589921
	H362	H	0.629611	0.614025	0.585397
	O363	O	-0.132458	1.022532	0.942505
	H364	H	-0.137547	1.004040	0.956964
	H365	H	-0.128022	1.026113	0.940585
	O366	O	0.487291	0.328235	0.388275
	H367	H	0.499630	0.317741	0.373505
	H368	H	0.484586	0.340839	0.388735
	O369	O	-0.105096	0.857650	-0.118573
	H370	H	-0.088968	0.861244	-0.116520
	H371	H	-0.101340	0.843649	-0.121981
	O372	O	0.884851	0.144950	0.019199
	H373	H	0.882027	0.138647	0.020577
	H374	H	0.887831	0.142171	0.007413
	O375	O	0.373952	0.544962	0.337343
	H376	H	0.389050	0.538657	0.335936
	H377	H	0.373521	0.535175	0.335750
	O378	O	1.371265	1.390030	0.466993
	H379	H	1.375823	1.394614	0.483643
	H380	H	1.367240	1.394103	0.457613
	O381	O	1.149960	-0.085606	-0.057252
	H382	H	1.155614	-0.077467	-0.063689
	H383	H	1.152773	-0.091466	-0.052715
	O384	O	1.103396	0.856028	-0.044018
	H385	H	1.086571	0.875746	-0.037909
	H386	H	1.106315	0.836504	-0.033348
	O387	O	-0.211513	-0.056548	0.157143
	H388	H	-0.215133	-0.062253	0.162221
	H389	H	-0.226257	-0.059494	0.161006
	O390	O	0.072787	1.011411	0.125537
	H391	H	0.069821	1.029810	0.131458
	H392	H	0.072277	1.011032	0.121543
	O393	O	0.913399	0.941915	0.999016
	H394	H	0.922200	0.946074	1.007353
	H395	H	0.922110	0.939761	0.993848
	O396	O	0.508015	0.657989	0.552320
	H397	H	0.499423	0.644515	0.545775
	H398	H	0.492162	0.660686	0.555635
	O399	O	0.124549	1.108134	1.011782
	H400	H	0.113621	1.104219	1.003327
	H401	H	0.128032	1.106028	0.990278
	O402	O	0.484117	0.423443	0.519901
	H403	H	0.488433	0.437867	0.520837
	H404	H	0.491058	0.419471	0.512450
	O405	O	1.089875	1.031157	-0.163827
	H406	H	1.073182	1.026418	-0.165195
	H407	H	1.092323	1.025847	-0.167438
	O408	O	1.005953	0.919833	0.181901
	H409	H	1.003166	0.911348	0.177007
	H410	H	1.012355	0.930816	0.177797
	O411	O	0.982723	-0.018953	0.971785
	H412	H	0.983325	-0.018429	0.979410
	H413	H	0.987043	-0.033087	0.967141
	O414	O	0.521668	0.674785	0.373538
	H415	H	0.542476	0.675877	0.386376
	H416	H	0.511565	0.688522	0.362740
	O417	O	0.455179	0.427763	0.618369
	H418	H	0.457618	0.434452	0.588785
	H419	H	0.477001	0.444378	0.626873
