data_Molecule from HDF5

_cell_length_a		16.369757
_cell_length_b		16.280895
_cell_length_c		16.454548
_cell_angle_alpha	90.009024
_cell_angle_beta	89.869443
_cell_angle_gamma	89.994217
_symmetry_space_group_name_H-M	'P 1'
_symmetry_Int_Tables_number		1

loop_
	_symmetry_equiv_pos_as_xyz
	x,y,z

loop_
	_atom_site_label
	_atom_site_type_symbol
	_atom_site_fract_x
	_atom_site_fract_y
	_atom_site_fract_z
	H0	H	0.399696	0.856610	0.720977
	H1	H	0.607991	0.178066	0.723410
	H2	H	0.607893	0.857971	0.281948
	H3	H	0.394907	0.176371	0.281289
	H4	H	0.721562	0.412941	0.842894
	H5	H	0.720235	0.625587	0.160787
	H6	H	0.279083	0.621896	0.841848
	H7	H	0.276419	0.412611	0.159971
	H8	H	0.839399	0.735219	0.406153
	H9	H	0.162359	0.735077	0.605097
	H10	H	0.841474	0.296037	0.609155
	H11	H	0.160820	0.300907	0.398515
	H12	H	0.840402	0.412875	0.723362
	H13	H	0.159342	0.623804	0.723179
	H14	H	0.839822	0.626102	0.284030
	H15	H	0.157800	0.413622	0.279994
	H16	H	0.395586	0.738124	0.841737
	H17	H	0.599738	0.737322	0.161758
	H18	H	0.602740	0.298666	0.841536
	H19	H	0.393717	0.297434	0.160659
	H20	H	0.719296	0.856560	0.400789
	H21	H	0.721269	0.178962	0.605974
	H22	H	0.282134	0.857226	0.607746
	H23	H	0.281290	0.177799	0.398173
	H24	H	0.891683	0.359453	0.224533
	H25	H	0.101051	0.680548	0.219672
	H26	H	0.103192	0.358685	0.782160
	H27	H	0.894768	0.680058	0.783972
	H28	H	0.222208	0.913342	0.343602
	H29	H	0.221495	0.121487	0.662041
	H30	H	0.780904	0.122387	0.342839
	H31	H	0.780583	0.913313	0.661850
	H32	H	0.338779	0.232340	0.901956
	H33	H	0.659899	0.238763	0.105412
	H34	H	0.338394	0.802348	0.103680
	H35	H	0.661188	0.800018	0.902540
	H36	H	0.343020	0.911419	0.225680
	H37	H	0.660643	0.123226	0.222352
	H38	H	0.342907	0.120673	0.782395
	H39	H	0.661202	0.910916	0.783227
	H40	H	0.897097	0.238981	0.343710
	H41	H	0.103096	0.238706	0.662466
	H42	H	0.105211	0.797918	0.343248
	H43	H	0.901773	0.802210	0.664294
	H44	H	0.218429	0.358020	0.897856
	H45	H	0.217245	0.680303	0.103381
	H46	H	0.780118	0.357873	0.105024
	H47	H	0.782038	0.680875	0.900833
	H48	H	0.407827	0.135910	0.597949
	H49	H	0.588210	0.902690	0.599342
	H50	H	0.593848	0.134877	0.410866
	H51	H	0.408612	0.901435	0.411822
	H52	H	0.595254	0.435185	0.114303
	H53	H	0.587164	0.606346	0.889424
	H54	H	0.409016	0.606599	0.113492
	H55	H	0.407129	0.422029	0.885924
	H56	H	0.115802	0.609773	0.409513
	H57	H	0.887906	0.608401	0.588987
	H58	H	0.112718	0.434058	0.593004
	H59	H	0.886929	0.431181	0.414109
	H60	H	0.114704	0.429827	0.594156
	H61	H	0.885244	0.605438	0.599021
	H62	H	0.113989	0.608206	0.413502
	H63	H	0.885446	0.429406	0.411836
	H64	H	0.408101	0.612460	0.115951
	H65	H	0.589643	0.610813	0.887650
	H66	H	0.580379	0.433184	0.110648
	H67	H	0.404499	0.431189	0.888431
	H68	H	0.587199	0.132164	0.410583
	H69	H	0.588441	0.906405	0.587794
	H70	H	0.419270	0.131550	0.594878
	H71	H	0.419553	0.903923	0.411421
	H72	H	0.902621	0.635707	0.093720
	H73	H	0.081703	0.408390	0.085466
	H74	H	0.091503	0.634215	0.912862
	H75	H	0.909936	0.407675	0.923319
	H76	H	0.096912	0.926927	0.618080
	H77	H	0.087912	0.109247	0.390741
	H78	H	0.903747	0.103307	0.616687
	H79	H	0.914702	0.934195	0.392389
	H80	H	0.614524	0.105917	0.915320
	H81	H	0.384868	0.109935	0.095068
	H82	H	0.615918	0.924429	0.093534
	H83	H	0.385063	0.928973	0.907206
	H84	H	0.613633	0.928778	0.088166
	H85	H	0.388734	0.106002	0.087914
	H86	H	0.616165	0.106023	0.910375
	H87	H	0.385771	0.926015	0.911627
	H88	H	0.917583	0.101785	0.611335
	H89	H	0.094915	0.111559	0.387396
	H90	H	0.091820	0.932653	0.614659
	H91	H	0.916500	0.920130	0.388200
	H92	H	0.087397	0.634478	0.909470
	H93	H	0.094381	0.403309	0.088838
	H94	H	0.913168	0.634695	0.098136
	H95	H	0.901512	0.400495	0.907678
	H96	H	0.409772	0.131596	0.586744
	H97	H	0.598240	0.900471	0.592799
	H98	H	0.591536	0.131536	0.416904
	H99	H	0.414065	0.905139	0.420879
	H100	H	0.587839	0.421659	0.116531
	H101	H	0.592723	0.606008	0.889098
	H102	H	0.403690	0.608151	0.116653
	H103	H	0.413204	0.427838	0.889940
	H104	H	0.114361	0.604822	0.409469
	H105	H	0.883669	0.615532	0.595628
	H106	H	0.112424	0.430338	0.589586
	H107	H	0.885167	0.428316	0.414822
	H108	H	0.911119	0.631352	0.087229
	H109	H	0.084007	0.402735	0.098618
	H110	H	0.086797	0.632975	0.914248
	H111	H	0.920295	0.405328	0.906924
	H112	H	0.089259	0.924721	0.616505
	H113	H	0.093844	0.104347	0.390694
	H114	H	0.913704	0.114901	0.617522
	H115	H	0.903275	0.927245	0.387113
	H116	H	0.616356	0.110694	0.912948
	H117	H	0.387818	0.101308	0.095971
	H118	H	0.614728	0.930721	0.094634
	H119	H	0.386939	0.930626	0.912535
	C120	C	0.381131	0.026281	0.624095
	C121	C	0.623774	1.009147	0.624690
	C122	C	0.622763	0.026646	0.381479
	C123	C	0.381349	1.009032	0.381986
	C124	C	0.620603	0.397152	0.009511
	C125	C	0.620315	0.639565	0.994079
	C126	C	0.376576	0.640150	0.009606
	C127	C	0.376424	0.395568	0.993268
	C128	C	0.008766	0.639847	0.381236
	C129	C	0.991700	0.640823	0.625267
	C130	C	0.008258	0.398077	0.624344
	C131	C	0.991168	0.397511	0.380867
	C132	C	0.877097	0.528013	0.124479
	C133	C	0.118998	0.510962	0.122370
	C134	C	0.119959	0.527781	0.880589
	C135	C	0.878539	0.510532	0.881439
	C136	C	0.124007	0.895975	0.511246
	C137	C	0.123456	0.140168	0.494748
	C138	C	0.879770	0.139215	0.510325
	C139	C	0.880468	0.896477	0.494747
	C140	C	0.509850	0.138284	0.881636
	C141	C	0.492343	0.139109	0.124135
	C142	C	0.509074	0.896546	0.123534
	C143	C	0.491994	0.896274	0.880260
	C144	C	0.380573	0.905102	0.682284
	C145	C	0.625765	0.130011	0.683703
	C146	C	0.625117	0.905859	0.322149
	C147	C	0.378091	0.128994	0.321685
	C148	C	0.681111	0.394920	0.890348
	C149	C	0.679627	0.642469	0.113352
	C150	C	0.318583	0.640759	0.889632
	C151	C	0.316625	0.394036	0.112371
	C152	C	0.887620	0.697606	0.384375
	C153	C	0.113294	0.697410	0.624809
	C154	C	0.889060	0.336532	0.627055
	C155	C	0.112052	0.339137	0.379245
	C156	C	0.888484	0.394739	0.683981
	C157	C	0.111975	0.641750	0.683530
	C158	C	0.887801	0.642819	0.324012
	C159	C	0.110603	0.395578	0.320278
	C160	C	0.376269	0.699080	0.889856
	C161	C	0.619821	0.698449	0.113923
	C162	C	0.622135	0.337651	0.889789
	C163	C	0.374785	0.336411	0.112786
	C164	C	0.681066	0.905259	0.380907
	C165	C	0.682479	0.130387	0.625299
	C166	C	0.321819	0.905472	0.625805
	C167	C	0.321071	0.129449	0.379845
	C168	C	0.874299	0.407292	0.184178
	C169	C	0.120059	0.632147	0.180617
	C170	C	0.121752	0.406769	0.821329
	C171	C	0.876548	0.631728	0.822990
	C172	C	0.182987	0.894441	0.391465
	C173	C	0.182071	0.140913	0.614410
	C174	C	0.820420	0.141135	0.390833
	C175	C	0.821034	0.895274	0.614393
	C176	C	0.387983	0.194670	0.882049
	C177	C	0.612201	0.199372	0.124731
	C178	C	0.387471	0.839743	0.123636
	C179	C	0.612872	0.837735	0.881607
	C180	C	0.389693	0.894122	0.184253
	C181	C	0.612645	0.141772	0.182837
	C182	C	0.389851	0.138972	0.822675
	C183	C	0.612862	0.893130	0.822375
	C184	C	0.878193	0.199266	0.391258
	C185	C	0.123353	0.199009	0.614667
	C186	C	0.124463	0.837137	0.391368
	C187	C	0.881241	0.839621	0.615691
	C188	C	0.179109	0.406365	0.878973
	C189	C	0.177777	0.632210	0.122514
	C190	C	0.818580	0.406601	0.124940
	C191	C	0.820357	0.632156	0.881286
	C192	C	0.405371	0.110989	0.600041
	C193	C	0.599006	0.925048	0.600242
	C194	C	0.597950	0.110813	0.405734
	C195	C	0.406781	0.925258	0.407331
	C196	C	0.595201	0.422697	0.092393
	C197	C	0.596656	0.614861	0.910452
	C198	C	0.399994	0.615808	0.093538
	C199	C	0.401116	0.419991	0.909718
	C200	C	0.092965	0.614786	0.404214
	C201	C	0.907344	0.616700	0.601608
	C202	C	0.091531	0.423965	0.599394
	C203	C	0.907800	0.422215	0.406155
	C204	C	0.901861	0.611883	0.100229
	C205	C	0.094084	0.426785	0.097914
	C206	C	0.095563	0.611912	0.905090
	C207	C	0.903271	0.426479	0.905429
	C208	C	0.099687	0.920901	0.594777
	C209	C	0.099295	0.115552	0.411209
	C210	C	0.904431	0.113960	0.593598
	C211	C	0.904502	0.920423	0.410832
	C212	C	0.593924	0.114388	0.905914
	C213	C	0.408798	0.113280	0.099913
	C214	C	0.592900	0.920901	0.099039
	C215	C	0.407757	0.921369	0.903665
	Zn216	Zn	0.502757	0.017567	0.752744
	Zn217	Zn	0.501809	0.017044	0.252672
	Zn218	Zn	0.750083	0.519026	0.002034
	Zn219	Zn	0.247913	0.518352	0.001442
	Zn220	Zn	0.001830	0.767213	0.503372
	Zn221	Zn	0.000608	0.269731	0.503284
	Zn222	Zn	-0.000888	0.519279	0.752967
	Zn223	Zn	-0.001674	0.519555	0.252316
	Zn224	Zn	0.498559	0.768705	0.001580
	Zn225	Zn	0.499029	0.267745	0.002065
	Zn226	Zn	0.750410	0.017645	0.502208
	Zn227	Zn	0.253150	0.017313	0.502729
	N228	N	0.416482	0.981531	0.681662
	N229	N	0.589963	0.053681	0.683400
	N230	N	0.589663	0.982401	0.322069
	N231	N	0.414831	0.053014	0.322895
	N232	N	0.680297	0.431310	0.965813
	N233	N	0.679886	0.606460	0.037738
	N234	N	0.318671	0.604871	0.965247
	N235	N	0.317583	0.430148	0.036976
	N236	N	0.963811	0.695783	0.419281
	N237	N	0.037302	0.697079	0.589421
	N238	N	0.964580	0.338532	0.590570
	N239	N	0.036718	0.339899	0.416077
	N240	N	0.963576	0.432291	0.682482
	N241	N	0.035273	0.607283	0.684023
	N242	N	0.964094	0.607519	0.322132
	N243	N	0.034541	0.431047	0.321023
	N244	N	0.411622	0.698811	0.965629
	N245	N	0.583463	0.696578	0.038817
	N246	N	0.584967	0.339081	0.964829
	N247	N	0.411483	0.337356	0.037587
	N248	N	0.679828	0.981342	0.416936
	N249	N	0.681395	0.054277	0.589395
	N250	N	0.322028	0.981844	0.590398
	N251	N	0.323261	0.053844	0.416738
	N252	N	0.909732	0.483814	0.184223
	N253	N	0.084192	0.555832	0.180516
	N254	N	0.085694	0.483016	0.822390
	N255	N	0.912115	0.555212	0.822848
	N256	N	0.182690	0.930442	0.466903
	N257	N	0.182403	0.105403	0.538502
	N258	N	0.821314	0.104465	0.466005
	N259	N	0.820327	0.929898	0.538113
	N260	N	0.463597	0.194331	0.918182
	N261	N	0.536319	0.197951	0.089164
	N262	N	0.462710	0.841138	0.086628
	N263	N	0.536747	0.839619	0.916929
	N264	N	0.466216	0.928760	0.184451
	N265	N	0.536932	0.105428	0.182895
	N266	N	0.466718	0.105018	0.822119
	N267	N	0.536725	0.929006	0.821576
	N268	N	0.914230	0.198279	0.466656
	N269	N	0.087953	0.198784	0.539197
	N270	N	0.088716	0.837789	0.466971
	N271	N	0.917406	0.840211	0.540171
	N272	N	0.178221	0.482499	0.914886
	N273	N	0.177358	0.555597	0.087322
	N274	N	0.819883	0.482546	0.088648
	N275	N	0.821146	0.555771	0.916708
	O276	O	0.926077	0.154711	0.845846
	H277	H	0.910069	0.159281	0.821238
	H278	H	0.931467	0.166028	0.856778
	O279	O	0.288332	0.303342	0.545321
	H280	H	0.283806	0.308969	0.562701
	H281	H	0.263379	0.279568	0.561901
	O282	O	0.426369	0.662808	0.554494
	H283	H	0.419261	0.656674	0.537110
	H284	H	0.425606	0.668663	0.536084
	O285	O	1.010466	-0.072851	-0.145251
	H286	H	1.021703	-0.091553	-0.150055
	H287	H	0.995612	-0.065244	-0.166223
	O288	O	-0.000859	-0.045922	0.978919
	H289	H	-0.004716	-0.046052	0.972658
	H290	H	0.016788	-0.049064	0.982666
	O291	O	0.583487	0.444327	0.563323
	H292	H	0.580603	0.437406	0.576322
	H293	H	0.578495	0.444991	0.558772
	O294	O	0.582737	0.498724	0.586906
	H295	H	0.578727	0.508235	0.585458
	H296	H	0.576219	0.495514	0.587920
	O297	O	0.998916	1.084760	1.156076
	H298	H	0.984408	1.066919	1.163508
	H299	H	0.993196	1.090591	1.150956
	O300	O	-0.093864	-0.081283	0.140955
	H301	H	-0.092918	-0.079346	0.130681
	H302	H	-0.089372	-0.076952	0.150573
	O303	O	0.664704	0.361828	0.445652
	H304	H	0.665535	0.358653	0.473059
	H305	H	0.651548	0.387110	0.449830
	O306	O	1.273451	-0.243150	0.206048
	H307	H	1.289864	-0.233470	0.207320
	H308	H	1.271142	-0.273297	0.197517
	O309	O	0.546002	0.568199	0.419725
	H310	H	0.550509	0.579250	0.437681
	H311	H	0.541671	0.555283	0.428266
	O312	O	1.099346	0.963987	0.071074
	H313	H	1.105765	0.989636	0.084297
	H314	H	1.095223	0.977095	0.078612
	O315	O	0.545517	0.307719	0.292274
	H316	H	0.561664	0.299262	0.286634
	H317	H	0.570025	0.298554	0.291839
	O318	O	0.554005	0.547614	0.627405
	H319	H	0.552960	0.535753	0.631857
	H320	H	0.575074	0.556302	0.638606
	O321	O	0.925145	0.115873	0.894947
	H322	H	0.931455	0.116386	0.904100
	H323	H	0.936033	0.117970	0.913485
	O324	O	0.063322	0.010581	0.953264
	H325	H	0.051602	-0.002747	0.969107
	H326	H	0.066517	0.008359	0.950426
	O327	O	0.548992	0.437670	0.494144
	H328	H	0.536297	0.434457	0.506066
	H329	H	0.548537	0.429728	0.487907
	O330	O	0.474483	0.565236	0.360980
	H331	H	0.478188	0.562477	0.350411
	H332	H	0.491270	0.557680	0.360793
	O333	O	0.438148	0.689479	0.431742
	H334	H	0.423452	0.704921	0.421430
	H335	H	0.445803	0.695482	0.427179
	O336	O	0.527197	0.441790	0.555010
	H337	H	0.529482	0.435805	0.563277
	H338	H	0.541590	0.445175	0.548319
	O339	O	1.137604	0.190880	1.085279
	H340	H	1.154518	0.184340	1.085004
	H341	H	1.136090	0.183017	1.080577
	O342	O	-0.550219	0.562396	0.361316
	H343	H	-0.542418	0.542936	0.348421
	H344	H	-0.534268	0.558217	0.366909
	O345	O	-0.124332	1.051878	1.027394
	H346	H	-0.122211	1.044079	1.034070
	H347	H	-0.134853	1.048603	1.018729
	O348	O	-0.591458	0.544829	-0.647737
	H349	H	-0.577433	0.549434	-0.646869
	H350	H	-0.594115	0.549794	-0.661872
	O351	O	-0.143737	0.011227	0.203571
	H352	H	-0.132597	0.009333	0.209754
	H353	H	-0.144294	-0.010718	0.214798
	O354	O	1.332900	1.622228	0.474266
	H355	H	1.327800	1.591599	0.469759
	H356	H	1.322041	1.631490	0.463681
	O357	O	0.105382	1.142624	0.147718
	H358	H	0.129249	1.132703	0.146955
	H359	H	0.117363	1.161695	0.153473
	O360	O	0.505735	0.337352	0.690293
	H361	H	0.500637	0.333548	0.687599
	H362	H	0.506877	0.324728	0.694101
	O363	O	0.319381	0.532904	0.398956
	H364	H	0.314321	0.518730	0.375893
	H365	H	0.326309	0.513877	0.409298
	O366	O	0.303423	0.479488	0.639172
	H367	H	0.308728	0.492992	0.651693
	H368	H	0.299941	0.493112	0.620387
	O369	O	0.465776	0.632683	0.653072
	H370	H	0.447610	0.632251	0.638040
	H371	H	0.455143	0.620706	0.652506
	O372	O	0.571905	0.441518	0.524459
	H373	H	0.571046	0.433897	0.521602
	H374	H	0.572416	0.469421	0.525917
	O375	O	0.659555	0.684978	0.547949
	H376	H	0.637481	0.681588	0.545034
	H377	H	0.656241	0.672964	0.562887
	O378	O	0.602998	0.670206	0.669095
	H379	H	0.587944	0.686208	0.669836
	H380	H	0.586948	0.673964	0.646878
	O381	O	0.009913	0.116639	0.846873
	H382	H	-0.002259	0.124951	0.851656
	H383	H	0.001809	0.119379	0.851988
	O384	O	-0.068666	0.988993	0.974995
	H385	H	-0.069777	0.992403	0.979187
	H386	H	-0.068565	0.978345	0.978837
	O387	O	1.181188	1.037609	-0.105110
	H388	H	1.180529	1.023202	-0.103055
	H389	H	1.161794	1.034840	-0.094737
	O390	O	0.706621	0.430359	0.324824
	H391	H	0.726206	0.432097	0.311193
	H392	H	0.706328	0.423890	0.341893
	O393	O	1.050249	-0.076993	1.007662
	H394	H	1.051008	-0.094124	1.003390
	H395	H	1.039752	-0.070142	1.006076
	O396	O	-0.099466	-0.073384	-0.159279
	H397	H	-0.109708	-0.043570	-0.162895
	H398	H	-0.114206	-0.069863	-0.159598
	O399	O	1.053869	0.015652	0.188405
	H400	H	1.061339	0.031022	0.179469
	H401	H	1.018636	0.017994	0.185067
	O402	O	0.669700	0.493422	1.498049
	H403	H	0.671733	0.486273	1.516001
	H404	H	0.672619	0.493025	1.501983
	O405	O	0.059491	-0.080667	0.175399
	H406	H	0.063640	-0.088614	0.176323
	H407	H	0.062652	-0.087429	0.186711
	O408	O	0.828601	1.127225	0.996452
	H409	H	0.834150	1.124851	1.025749
	H410	H	0.838814	1.132774	0.999249
	O411	O	1.532900	0.590449	-0.575973
	H412	H	1.539593	0.583097	-0.586513
	H413	H	1.530777	0.574692	-0.547905
	O414	O	0.003196	0.082286	0.840794
	H415	H	0.012806	0.077283	0.834079
	H416	H	0.007465	0.073976	0.838656
	O417	O	0.898785	0.081771	0.935359
	H418	H	0.894447	0.080243	0.931270
	H419	H	0.904766	0.091119	0.938099
	O420	O	-0.131896	0.852482	0.082175
	H421	H	-0.129533	0.857323	0.076168
	H422	H	-0.146454	0.843523	0.083443
	O423	O	1.157876	-0.067395	-0.087124
	H424	H	1.164203	-0.084771	-0.103894
	H425	H	1.169003	-0.068457	-0.079183
	O426	O	0.150507	0.168114	0.972407
	H427	H	0.150248	0.155932	0.965877
	H428	H	0.145754	0.172319	0.975380
	O429	O	0.335428	0.329233	0.692634
	H430	H	0.323431	0.336544	0.712803
	H431	H	0.350735	0.337504	0.691216
