data_Molecule from HDF5

_cell_length_a		16.638636
_cell_length_b		16.785374
_cell_length_c		16.542394
_cell_angle_alpha	90.078590
_cell_angle_beta	89.977853
_cell_angle_gamma	89.939269
_symmetry_space_group_name_H-M	'P 1'
_symmetry_Int_Tables_number		1

loop_
	_symmetry_equiv_pos_as_xyz
	x,y,z

loop_
	_atom_site_label
	_atom_site_type_symbol
	_atom_site_fract_x
	_atom_site_fract_y
	_atom_site_fract_z
	H0	H	0.395089	0.845021	0.705757
	H1	H	0.608148	0.151473	0.713148
	H2	H	0.600709	0.845628	0.266436
	H3	H	0.391124	0.154000	0.264226
	H4	H	0.716147	0.396284	0.830414
	H5	H	0.719261	0.605994	0.141487
	H6	H	0.280161	0.603262	0.827528
	H7	H	0.270829	0.392604	0.139671
	H8	H	0.843154	0.723099	0.380051
	H9	H	0.151986	0.722023	0.592515
	H10	H	0.844958	0.275519	0.595465
	H11	H	0.148207	0.272710	0.373014
	H12	H	0.840858	0.398416	0.703547
	H13	H	0.153597	0.602817	0.704898
	H14	H	0.842633	0.605190	0.265020
	H15	H	0.149681	0.391046	0.260043
	H16	H	0.394793	0.718757	0.828402
	H17	H	0.601421	0.719316	0.142785
	H18	H	0.603617	0.277845	0.832203
	H19	H	0.382847	0.272829	0.137710
	H20	H	0.719916	0.846734	0.380701
	H21	H	0.726459	0.149297	0.600137
	H22	H	0.277775	0.846296	0.590725
	H23	H	0.275188	0.154286	0.382115
	H24	H	0.887401	0.348837	0.213553
	H25	H	0.101165	0.655140	0.207541
	H26	H	0.103918	0.347204	0.763250
	H27	H	0.892808	0.654533	0.765549
	H28	H	0.218116	0.895984	0.330272
	H29	H	0.215441	0.102508	0.643744
	H30	H	0.774470	0.108040	0.331617
	H31	H	0.776522	0.894560	0.642025
	H32	H	0.345492	0.226359	0.874884
	H33	H	0.649821	0.224997	0.095591
	H34	H	0.341169	0.780412	0.090409
	H35	H	0.655504	0.782669	0.884464
	H36	H	0.340043	0.897776	0.205053
	H37	H	0.652139	0.106006	0.207961
	H38	H	0.341084	0.103017	0.767562
	H39	H	0.655103	0.898276	0.768827
	H40	H	0.886573	0.226103	0.334000
	H41	H	0.104271	0.222154	0.640471
	H42	H	0.103785	0.779509	0.330545
	H43	H	0.893870	0.781891	0.644009
	H44	H	0.220075	0.347596	0.878695
	H45	H	0.217811	0.655631	0.090631
	H46	H	0.771441	0.348950	0.097537
	H47	H	0.774888	0.653219	0.880949
	H48	H	0.405816	0.110318	0.574016
	H49	H	0.589041	0.888147	0.577580
	H50	H	0.584468	0.108852	0.402545
	H51	H	0.406599	0.890032	0.398481
	H52	H	0.586627	0.413036	0.099671
	H53	H	0.590995	0.591696	0.870787
	H54	H	0.410217	0.591583	0.098236
	H55	H	0.411038	0.417601	0.877352
	H56	H	0.109113	0.590682	0.398575
	H57	H	0.885091	0.592570	0.576053
	H58	H	0.106719	0.411791	0.569199
	H59	H	0.886869	0.406675	0.405947
	H60	H	0.109345	0.412896	0.577361
	H61	H	0.885366	0.593201	0.574153
	H62	H	0.109441	0.589828	0.397322
	H63	H	0.892792	0.420276	0.407715
	H64	H	0.405034	0.594566	0.099732
	H65	H	0.586168	0.588939	0.874325
	H66	H	0.580707	0.418843	0.095253
	H67	H	0.414334	0.411264	0.876659
	H68	H	0.590052	0.111476	0.398528
	H69	H	0.580796	0.892072	0.575924
	H70	H	0.404293	0.113154	0.578715
	H71	H	0.405621	0.888720	0.394996
	H72	H	0.908554	0.608863	0.071490
	H73	H	0.087023	0.392412	0.068315
	H74	H	0.086532	0.611763	0.893866
	H75	H	0.909394	0.388967	0.895030
	H76	H	0.091183	0.908926	0.600916
	H77	H	0.086978	0.089366	0.373127
	H78	H	0.913945	0.092038	0.598297
	H79	H	0.916455	0.911481	0.376731
	H80	H	0.604370	0.085294	0.906719
	H81	H	0.388441	0.084264	0.072389
	H82	H	0.608618	0.910831	0.076205
	H83	H	0.384570	0.906635	0.894347
	H84	H	0.610178	0.908494	0.078959
	H85	H	0.385901	0.088398	0.073759
	H86	H	0.608678	0.084542	0.893431
	H87	H	0.386017	0.906984	0.898300
	H88	H	0.907027	0.083854	0.597593
	H89	H	0.087051	0.085850	0.374136
	H90	H	0.087032	0.912903	0.597806
	H91	H	0.907956	0.905176	0.372535
	H92	H	0.086405	0.610355	0.897279
	H93	H	0.086123	0.389945	0.076256
	H94	H	0.907367	0.610362	0.074280
	H95	H	0.906872	0.390259	0.897628
	H96	H	0.409677	0.111137	0.578050
	H97	H	0.586806	0.891615	0.568924
	H98	H	0.583515	0.110328	0.395801
	H99	H	0.408960	0.889988	0.395983
	H100	H	0.578327	0.409895	0.097575
	H101	H	0.585788	0.594592	0.872819
	H102	H	0.404901	0.588857	0.098937
	H103	H	0.407838	0.412030	0.874470
	H104	H	0.109099	0.591733	0.397478
	H105	H	0.885977	0.590903	0.574643
	H106	H	0.110926	0.405788	0.573326
	H107	H	0.886520	0.416503	0.394628
	H108	H	0.910728	0.609154	0.074197
	H109	H	0.079793	0.393589	0.071974
	H110	H	0.089330	0.612492	0.896772
	H111	H	0.905885	0.388554	0.894271
	H112	H	0.085289	0.907000	0.599624
	H113	H	0.084182	0.088088	0.374531
	H114	H	0.917353	0.083237	0.592910
	H115	H	0.905623	0.916244	0.375179
	H116	H	0.611019	0.096640	0.900979
	H117	H	0.388237	0.088677	0.069291
	H118	H	0.608766	0.906687	0.075538
	H119	H	0.386145	0.910226	0.895634
	C120	C	0.375644	0.009114	0.608645
	C121	C	0.619566	0.991256	0.608519
	C122	C	0.618434	0.008414	0.365707
	C123	C	0.374877	0.991591	0.364464
	C124	C	0.616203	0.380159	-0.004778
	C125	C	0.619221	0.622357	0.976794
	C126	C	0.376328	0.622083	-0.005478
	C127	C	0.375731	0.379382	0.977690
	C128	C	0.006306	0.622740	0.365178
	C129	C	0.988794	0.622384	0.606860
	C130	C	0.006736	0.378167	0.606607
	C131	C	0.989086	0.379576	0.366086
	C132	C	0.875431	0.508679	0.108018
	C133	C	0.117751	0.493022	0.106221
	C134	C	0.119295	0.509619	0.863461
	C135	C	0.875696	0.491300	0.864148
	C136	C	0.119932	0.878103	0.495723
	C137	C	0.118207	0.120229	0.477235
	C138	C	0.877671	0.120604	0.494541
	C139	C	0.877551	0.879158	0.478071
	C140	C	0.506008	0.121094	0.866122
	C141	C	0.488591	0.121187	0.106729
	C142	C	0.505524	0.878449	0.107939
	C143	C	0.489451	0.878301	0.865332
	C144	C	0.375470	0.892075	0.666714
	C145	C	0.624855	0.105517	0.671822
	C146	C	0.620054	0.892232	0.305821
	C147	C	0.372654	0.107838	0.304628
	C148	C	0.676614	0.377620	0.877913
	C149	C	0.678877	0.624100	0.094651
	C150	C	0.318773	0.622240	0.875449
	C151	C	0.311952	0.374656	0.093283
	C152	C	0.889646	0.682682	0.362092
	C153	C	0.105823	0.681491	0.609703
	C154	C	0.890722	0.317029	0.611563
	C155	C	0.103031	0.315030	0.357722
	C156	C	0.888798	0.378031	0.665523
	C157	C	0.106479	0.622337	0.665654
	C158	C	0.889224	0.624079	0.305172
	C159	C	0.103770	0.374064	0.301576
	C160	C	0.376011	0.679788	0.875734
	C161	C	0.620517	0.680591	0.095289
	C162	C	0.620532	0.318848	0.878549
	C163	C	0.367610	0.315289	0.092362
	C164	C	0.678910	0.892700	0.362825
	C165	C	0.683942	0.104371	0.615442
	C166	C	0.317292	0.892488	0.609422
	C167	C	0.314893	0.107843	0.362769
	C168	C	0.870722	0.394533	0.171628
	C169	C	0.119886	0.608977	0.167116
	C170	C	0.121646	0.393586	0.803447
	C171	C	0.873810	0.607782	0.804897
	C172	C	0.178712	0.877257	0.377619
	C173	C	0.176639	0.121531	0.595977
	C174	C	0.814897	0.125251	0.378747
	C175	C	0.817066	0.876951	0.595285
	C176	C	0.390811	0.183860	0.859645
	C177	C	0.603861	0.183490	0.111993
	C178	C	0.388083	0.820010	0.109203
	C179	C	0.608017	0.821447	0.865496
	C180	C	0.387393	0.878702	0.165947
	C181	C	0.605000	0.124363	0.168012
	C182	C	0.388897	0.122770	0.805785
	C183	C	0.607888	0.879217	0.808214
	C184	C	0.870964	0.183875	0.379550
	C185	C	0.121226	0.180799	0.594444
	C186	C	0.121837	0.819186	0.377772
	C187	C	0.875488	0.820685	0.596393
	C188	C	0.179465	0.393778	0.861078
	C189	C	0.177571	0.609228	0.108797
	C190	C	0.812564	0.394550	0.114211
	C191	C	0.815325	0.607104	0.862395
	C192	C	0.399885	0.090470	0.584279
	C193	C	0.592836	0.911370	0.581764
	C194	C	0.593162	0.089161	0.391556
	C195	C	0.399954	0.910731	0.389372
	C196	C	0.589394	0.406331	0.076373
	C197	C	0.594844	0.598531	0.894268
	C198	C	0.399965	0.598493	0.077383
	C199	C	0.403341	0.406141	0.896998
	C200	C	0.088117	0.597793	0.390405
	C201	C	0.906787	0.598861	0.582021
	C202	C	0.087773	0.403036	0.580596
	C203	C	0.909450	0.406783	0.394645
	C204	C	0.901601	0.588568	0.080956
	C205	C	0.091775	0.412782	0.079917
	C206	C	0.094348	0.590528	0.888753
	C207	C	0.900447	0.410214	0.888799
	C208	C	0.094878	0.902521	0.578100
	C209	C	0.093135	0.095095	0.395319
	C210	C	0.905067	0.093752	0.575310
	C211	C	0.902887	0.903780	0.396261
	C212	C	0.586995	0.095939	0.892909
	C213	C	0.408286	0.094822	0.079634
	C214	C	0.587824	0.902056	0.083773
	C215	C	0.407005	0.901306	0.889230
	Zn216	Zn	0.498074	0.000301	0.737236
	Zn217	Zn	0.496997	0.000402	0.236012
	Zn218	Zn	0.745935	0.499741	-0.013355
	Zn219	Zn	0.248304	0.501107	-0.014379
	Zn220	Zn	-0.001978	0.751047	0.486363
	Zn221	Zn	-0.001971	0.249525	0.485672
	Zn222	Zn	-0.002803	0.500027	0.734667
	Zn223	Zn	-0.002962	0.500416	0.237022
	Zn224	Zn	0.497472	0.749608	-0.013594
	Zn225	Zn	0.496235	0.250689	-0.013543
	Zn226	Zn	0.748742	0.000138	0.486623
	Zn227	Zn	0.246982	0.000024	0.487040
	N228	N	0.410868	0.965873	0.666695
	N229	N	0.585227	0.034057	0.667533
	N230	N	0.583375	0.965439	0.307298
	N231	N	0.408996	0.034354	0.305242
	N232	N	0.674274	0.415111	0.951704
	N233	N	0.678367	0.588623	0.019900
	N234	N	0.318567	0.587089	0.950463
	N235	N	0.316725	0.413914	0.020737
	N236	N	0.963722	0.682159	0.398400
	N237	N	0.031365	0.681949	0.574296
	N238	N	0.965072	0.316936	0.575502
	N239	N	0.030823	0.318514	0.397370
	N240	N	0.962031	0.415356	0.662760
	N241	N	0.032514	0.586274	0.664308
	N242	N	0.963076	0.587526	0.306828
	N243	N	0.031884	0.413718	0.306600
	N244	N	0.410852	0.680108	0.951064
	N245	N	0.584230	0.679847	0.020829
	N246	N	0.583973	0.319993	0.952829
	N247	N	0.406854	0.318326	0.019450
	N248	N	0.678450	0.966250	0.399190
	N249	N	0.680621	0.032381	0.576218
	N250	N	0.317085	0.966365	0.574132
	N251	N	0.315999	0.034438	0.399172
	N252	N	0.909124	0.466473	0.167837
	N253	N	0.083595	0.535572	0.165908
	N254	N	0.084841	0.466750	0.804708
	N255	N	0.910523	0.534636	0.805619
	N256	N	0.177872	0.913144	0.452188
	N257	N	0.175091	0.084614	0.522040
	N258	N	0.818654	0.086513	0.451612
	N259	N	0.817607	0.912204	0.520513
	N260	N	0.464603	0.182914	0.896557
	N261	N	0.530326	0.181712	0.074469
	N262	N	0.462768	0.819593	0.073916
	N263	N	0.533069	0.820291	0.900173
	N264	N	0.461569	0.914311	0.165415
	N265	N	0.532203	0.086277	0.165114
	N266	N	0.461689	0.084318	0.809485
	N267	N	0.533032	0.913702	0.807642
	N268	N	0.909393	0.181089	0.452905
	N269	N	0.085693	0.180515	0.519558
	N270	N	0.085955	0.819577	0.452360
	N271	N	0.912263	0.821497	0.522195
	N272	N	0.178365	0.467021	0.897670
	N273	N	0.176646	0.535973	0.071749
	N274	N	0.815234	0.466653	0.075072
	N275	N	0.815901	0.533495	0.898313
	O276	O	-0.067234	0.933404	0.063164
	H277	H	-0.067583	0.942045	0.055918
	H278	H	-0.068834	0.934464	0.061435
	O279	O	0.777485	0.778394	1.026208
	H280	H	0.776864	0.752853	1.013422
	H281	H	0.787633	0.765959	1.009487
	O282	O	0.777119	-0.034375	1.211448
	H283	H	0.754684	-0.046585	1.232279
	H284	H	0.770783	-0.064286	1.213205
	O285	O	0.309179	0.411514	0.430718
	H286	H	0.310996	0.417484	0.424736
	H287	H	0.304891	0.389398	0.414826
	O288	O	0.702002	0.707306	0.687808
	H289	H	0.723098	0.724371	0.697458
	H290	H	0.692760	0.678664	0.684320
	O291	O	0.279639	0.722123	0.458387
	H292	H	0.264459	0.722664	0.448040
	H293	H	0.280159	0.728569	0.459723
	O294	O	1.218665	-0.027785	0.799916
	H295	H	1.226813	-0.014096	0.803952
	H296	H	1.231685	-0.005664	0.802554
	O297	O	0.690278	0.693369	0.293197
	H298	H	0.681364	0.667205	0.313468
	H299	H	0.669199	0.678807	0.313213
	O300	O	0.015248	0.210825	1.196960
	H301	H	0.016408	0.207610	1.202433
	H302	H	0.012188	0.218471	1.196923
	O303	O	0.446389	0.325326	0.383087
	H304	H	0.454267	0.306342	0.377784
	H305	H	0.449350	0.323350	0.403707
	O306	O	0.429694	0.444361	0.251840
	H307	H	0.437968	0.438974	0.247381
	H308	H	0.423144	0.451868	0.248535
	O309	O	0.371098	0.713035	0.283802
	H310	H	0.371186	0.692730	0.277657
	H311	H	0.348652	0.711159	0.287449
	O312	O	0.518409	0.417059	0.656200
	H313	H	0.534136	0.406422	0.662865
	H314	H	0.515667	0.399423	0.666911
	O315	O	0.714420	0.505651	1.311778
	H316	H	0.735811	0.492951	1.295962
	H317	H	0.713155	0.508916	1.339689
	O318	O	0.325021	0.567436	0.490245
	H319	H	0.326611	0.554974	0.485548
	H320	H	0.322946	0.571678	0.496509
	O321	O	-0.670918	0.277688	0.505157
	H322	H	-0.664587	0.277474	0.493739
	H323	H	-0.677065	0.273506	0.484137
	O324	O	1.220826	1.021545	-0.092343
	H325	H	1.217326	1.035275	-0.077073
	H326	H	1.232539	1.010315	-0.073265
	O327	O	-0.064229	0.054520	1.215807
	H328	H	-0.093521	0.064844	1.216898
	H329	H	-0.086956	0.055872	1.215368
	O330	O	0.493021	0.562656	0.399408
	H331	H	0.467970	0.568357	0.385511
	H332	H	0.493259	0.565723	0.410757
	O333	O	0.250918	0.261189	0.670694
	H334	H	0.243170	0.239718	0.680898
	H335	H	0.227955	0.253617	0.656238
	O336	O	0.442892	0.721217	0.533060
	H337	H	0.441894	0.715994	0.535200
	H338	H	0.456118	0.728614	0.525022
	O339	O	0.980129	-0.064826	0.786487
	H340	H	0.993131	-0.086651	0.779271
	H341	H	0.994792	-0.076228	0.809408
	O342	O	0.398114	-0.285480	0.269820
	H343	H	0.373892	-0.278971	0.268051
	H344	H	0.390787	-0.281739	0.257450
	O345	O	-0.180770	1.173668	0.926794
	H346	H	-0.182229	1.160902	0.926589
	H347	H	-0.202833	1.185400	0.926977
	O348	O	-0.033373	-0.222954	0.207136
	H349	H	-0.047007	-0.247635	0.228877
	H350	H	-0.063817	-0.216928	0.209537
	O351	O	0.010447	0.101356	0.780926
	H352	H	0.017526	0.094761	0.779268
	H353	H	0.012061	0.083136	0.788029
	O354	O	-0.463123	0.378726	0.586996
	H355	H	-0.449104	0.380799	0.604059
	H356	H	-0.464634	0.385656	0.585480
	O357	O	0.509532	0.520620	0.491665
	H358	H	0.512737	0.534628	0.495581
	H359	H	0.503129	0.521351	0.483259
	O360	O	0.717573	0.544358	0.700833
	H361	H	0.737291	0.537433	0.724575
	H362	H	0.704472	0.548822	0.698096
	O363	O	0.216592	-0.224404	-0.042401
	H364	H	0.228277	-0.238132	-0.073763
	H365	H	0.230401	-0.229095	-0.063886
	O366	O	0.536924	0.726151	0.709999
	H367	H	0.553031	0.724073	0.713711
	H368	H	0.544165	0.738952	0.736819
	O369	O	0.771388	0.068282	0.052502
	H370	H	0.771279	0.070176	0.059539
	H371	H	0.771539	0.052193	0.081180
	O372	O	1.069127	1.220586	-0.181092
	H373	H	1.058523	1.224649	-0.186713
	H374	H	1.055012	1.212051	-0.173159
	O375	O	1.033401	-0.228186	-0.234060
	H376	H	1.078174	-0.223190	-0.227600
	H377	H	1.034044	-0.255474	-0.271623
	O378	O	0.561086	0.315772	0.523915
	H379	H	0.544567	0.314626	0.533205
	H380	H	0.563341	0.313655	0.536480
	O381	O	0.046677	0.770932	1.029979
	H382	H	0.054652	0.768110	1.047147
	H383	H	0.069704	0.771563	1.044023
	O384	O	0.822340	-0.033683	0.798341
	H385	H	0.808363	-0.030592	0.820614
	H386	H	0.852455	-0.026850	0.801524
	O387	O	1.570189	1.342444	0.273753
	H388	H	1.561136	1.330353	0.259181
	H389	H	1.581000	1.344008	0.278826
	O390	O	0.276802	0.538789	0.265442
	H391	H	0.264388	0.529844	0.248507
	H392	H	0.271157	0.526636	0.273494
	O393	O	0.718332	0.289560	0.474641
	H394	H	0.727288	0.266495	0.481456
	H395	H	0.713799	0.295944	0.485201
	O396	O	0.300187	0.370610	0.652960
	H397	H	0.305373	0.384305	0.631362
	H398	H	0.283554	0.348647	0.659561
	O399	O	0.120783	0.112170	0.797922
	H400	H	0.123714	0.113071	0.803334
	H401	H	0.108558	0.106247	0.794699
	O402	O	-0.052551	1.166399	-0.023506
	H403	H	-0.053599	1.168042	-0.028176
	H404	H	-0.066137	1.162155	-0.023896
	O405	O	0.665648	-0.572088	1.577180
	H406	H	0.672113	-0.578020	1.588833
	H407	H	0.667258	-0.559340	1.578408
	O408	O	0.059243	-0.075645	-0.067331
	H409	H	0.061769	-0.092842	-0.057381
	H410	H	0.059641	-0.067382	-0.061662
	O411	O	0.551473	0.538859	0.258428
	H412	H	0.555968	0.553285	0.258511
	H413	H	0.560487	0.540361	0.261404
	O414	O	1.013520	0.210936	1.047454
	H415	H	1.001958	0.197916	1.043975
	H416	H	0.994589	0.228125	1.038005
	O417	O	0.200140	0.791174	0.783054
	H418	H	0.205163	0.842852	0.776391
	H419	H	0.231091	0.767096	0.749267
	O420	O	0.427189	0.540894	0.625552
	H421	H	0.408272	0.523006	0.626036
	H422	H	0.440198	0.553299	0.619304
	O423	O	-0.278641	-0.274307	1.516301
	H424	H	-0.273672	-0.264973	1.532964
	H425	H	-0.279669	-0.253896	1.521040
	O426	O	0.788684	0.794843	0.195857
	H427	H	0.756204	0.760515	0.226187
	H428	H	0.785633	0.789100	0.149779
	O429	O	0.917832	0.770312	0.931671
	H430	H	0.956539	0.766179	0.937940
	H431	H	0.928710	0.773923	0.917177
	O432	O	0.303977	0.694344	0.671853
	H433	H	0.316972	0.674818	0.655619
	H434	H	0.326908	0.686401	0.648986
	O435	O	0.212833	1.209856	0.200856
	H436	H	0.193482	1.192348	0.185168
	H437	H	0.193943	1.181898	0.194005
	O438	O	0.214078	0.048653	0.179066
	H439	H	0.222366	0.036397	0.198857
	H440	H	0.198424	0.026028	0.193829
	O441	O	0.208492	-0.107468	0.068100
	H442	H	0.195109	-0.106404	0.065504
	H443	H	0.207412	-0.112881	0.060537
	O444	O	0.379374	0.493995	0.502400
	H445	H	0.383166	0.485156	0.502423
	H446	H	0.380289	0.491440	0.508643
	O447	O	0.094002	0.959807	1.204235
	H448	H	0.081490	0.950162	1.201204
	H449	H	0.060805	0.958370	1.207957
	O450	O	-0.276441	1.278577	0.707658
	H451	H	-0.251060	1.256594	0.740226
	H452	H	-0.276571	1.281174	0.708358
	O453	O	0.580946	0.359400	0.446233
	H454	H	0.589310	0.360458	0.473992
	H455	H	0.554525	0.356882	0.447566
	O456	O	0.149610	0.215644	0.982434
	H457	H	0.147265	0.217328	0.988626
	H458	H	0.140364	0.223400	0.984617
	O459	O	0.625070	0.521423	0.561096
	H460	H	0.613424	0.512617	0.571224
	H461	H	0.611265	0.521221	0.563375
	O462	O	0.778192	0.226897	0.844193
	H463	H	0.787466	0.206693	0.840121
	H464	H	0.773554	0.216411	0.874175
	O465	O	1.562844	-0.269365	0.435596
	H466	H	1.552944	-0.270827	0.425058
	H467	H	1.563639	-0.277616	0.441261
	O468	O	0.708948	0.282903	0.271484
	H469	H	0.705513	0.290918	0.309266
	H470	H	0.684567	0.310074	0.276475
	O471	O	0.807530	0.803353	0.797954
	H472	H	0.823745	0.813573	0.810643
	H473	H	0.816671	0.821601	0.798538
	O474	O	-0.225090	0.938059	-0.031615
	H475	H	-0.216548	0.919431	-0.030151
	H476	H	-0.236531	0.929814	-0.014569
	O477	O	0.278235	0.469820	1.703175
	H478	H	0.272520	0.460591	1.717666
	H479	H	0.267012	0.447563	1.713077
	O480	O	0.816578	0.186304	0.169424
	H481	H	0.788591	0.214652	0.193096
	H482	H	0.834491	0.193193	0.156833
	O483	O	0.067852	1.126152	-0.017217
	H484	H	0.081444	1.141626	-0.001323
	H485	H	0.068351	1.119822	-0.006291
	O486	O	1.683322	-0.453471	0.502600
	H487	H	1.682155	-0.448609	0.509923
	H488	H	1.680420	-0.443132	0.517011
	O489	O	1.308249	1.311168	0.301716
	H490	H	1.344882	1.313021	0.301519
	H491	H	1.279764	1.278494	0.267600
	O492	O	0.467654	0.277082	-0.297559
	H493	H	0.446213	0.290297	-0.293248
	H494	H	0.455128	0.259420	-0.269912
	O495	O	0.118731	0.850216	1.175724
	H496	H	0.111684	0.833457	1.190135
	H497	H	0.101898	0.874739	1.163795
	O498	O	0.876967	1.123253	0.796895
	H499	H	0.891450	1.106908	0.824903
	H500	H	0.879063	1.101438	0.780608
	O501	O	1.115714	1.025629	1.052073
	H502	H	1.110612	1.015712	1.065433
	H503	H	1.122204	1.025027	1.047217
