data_Molecule from HDF5

_cell_length_a		16.344300
_cell_length_b		16.214260
_cell_length_c		16.234736
_cell_angle_alpha	90.089256
_cell_angle_beta	89.982252
_cell_angle_gamma	90.010321
_symmetry_space_group_name_H-M	'P 1'
_symmetry_Int_Tables_number		1

loop_
	_symmetry_equiv_pos_as_xyz
	x,y,z

loop_
	_atom_site_label
	_atom_site_type_symbol
	_atom_site_fract_x
	_atom_site_fract_y
	_atom_site_fract_z
	H0	H	0.407223	0.819501	0.715715
	H1	H	0.605040	0.148142	0.717339
	H2	H	0.605148	0.818931	0.287648
	H3	H	0.409352	0.148068	0.288588
	H4	H	0.724876	0.380529	0.840896
	H5	H	0.720846	0.583618	0.167033
	H6	H	0.288698	0.584411	0.840178
	H7	H	0.291557	0.383824	0.167235
	H8	H	0.844522	0.699929	0.405956
	H9	H	0.170523	0.699683	0.603999
	H10	H	0.844589	0.268214	0.604297
	H11	H	0.169474	0.267620	0.404554
	H12	H	0.843868	0.385126	0.718661
	H13	H	0.170268	0.582977	0.719792
	H14	H	0.843799	0.583203	0.289352
	H15	H	0.169571	0.383182	0.287765
	H16	H	0.409256	0.694798	0.837625
	H17	H	0.604142	0.697593	0.166615
	H18	H	0.603708	0.271945	0.837739
	H19	H	0.407591	0.268295	0.166237
	H20	H	0.723463	0.819927	0.400793
	H21	H	0.721837	0.148400	0.602177
	H22	H	0.292704	0.819491	0.600728
	H23	H	0.290477	0.146892	0.400828
	H24	H	0.907664	0.319434	0.218975
	H25	H	0.104576	0.648029	0.218197
	H26	H	0.104206	0.319351	0.790016
	H27	H	0.908474	0.648066	0.789515
	H28	H	0.222266	0.882927	0.339539
	H29	H	0.224116	0.084702	0.665921
	H30	H	0.792587	0.084432	0.339069
	H31	H	0.788027	0.881603	0.665261
	H32	H	0.343398	0.199453	0.901185
	H33	H	0.669640	0.199552	0.100186
	H34	H	0.342699	0.768766	0.100524
	H35	H	0.668300	0.765869	0.900742
	H36	H	0.344056	0.883853	0.217945
	H37	H	0.669720	0.085307	0.218606
	H38	H	0.342762	0.081101	0.787895
	H39	H	0.669166	0.884326	0.786093
	H40	H	0.907615	0.199930	0.340801
	H41	H	0.104786	0.196595	0.668449
	H42	H	0.105566	0.768033	0.340191
	H43	H	0.908241	0.770703	0.668200
	H44	H	0.221662	0.320428	0.902654
	H45	H	0.222295	0.647316	0.105444
	H46	H	0.790854	0.319612	0.104041
	H47	H	0.790386	0.646999	0.902763
	H48	H	0.416307	0.102422	0.602270
	H49	H	0.593925	0.869679	0.590824
	H50	H	0.601979	0.101412	0.409290
	H51	H	0.415487	0.869927	0.416815
	H52	H	0.590459	0.393926	0.116067
	H53	H	0.594112	0.583685	0.884384
	H54	H	0.414722	0.577521	0.119243
	H55	H	0.419520	0.390906	0.887725
	H56	H	0.121652	0.574023	0.410377
	H57	H	0.891771	0.581679	0.592236
	H58	H	0.119972	0.399603	0.593502
	H59	H	0.892802	0.400021	0.408522
	H60	H	0.126236	0.388835	0.608038
	H61	H	0.893944	0.571131	0.594901
	H62	H	0.124001	0.578403	0.408864
	H63	H	0.888229	0.384933	0.408134
	H64	H	0.411319	0.576507	0.120061
	H65	H	0.610342	0.573343	0.883736
	H66	H	0.599456	0.382443	0.122716
	H67	H	0.408726	0.386480	0.882807
	H68	H	0.599308	0.100338	0.408123
	H69	H	0.601870	0.868235	0.588641
	H70	H	0.418578	0.097462	0.589155
	H71	H	0.406601	0.863889	0.408606
	H72	H	0.910040	0.602114	0.098666
	H73	H	0.097344	0.365629	0.100248
	H74	H	0.097916	0.599229	0.916485
	H75	H	0.916019	0.368940	0.915884
	H76	H	0.101106	0.892784	0.620591
	H77	H	0.104395	0.080268	0.384095
	H78	H	0.909200	0.067761	0.618717
	H79	H	0.919919	0.889012	0.387662
	H80	H	0.621778	0.068079	0.903074
	H81	H	0.394121	0.077330	0.084509
	H82	H	0.623635	0.889365	0.097534
	H83	H	0.392053	0.892568	0.910000
	H84	H	0.621452	0.887679	0.090237
	H85	H	0.393130	0.066229	0.098407
	H86	H	0.626398	0.086462	0.903982
	H87	H	0.389081	0.889545	0.905202
	H88	H	0.921905	0.075734	0.617748
	H89	H	0.100566	0.069645	0.388606
	H90	H	0.099691	0.895301	0.619550
	H91	H	0.910411	0.890813	0.385268
	H92	H	0.101077	0.601727	0.911059
	H93	H	0.097171	0.369245	0.092120
	H94	H	0.916968	0.598971	0.097863
	H95	H	0.910117	0.365962	0.912193
	H96	H	0.405587	0.102984	0.592136
	H97	H	0.598937	0.867012	0.596220
	H98	H	0.600088	0.099162	0.411222
	H99	H	0.419149	0.866487	0.404079
	H100	H	0.605777	0.397226	0.120111
	H101	H	0.594522	0.565190	0.890435
	H102	H	0.413255	0.573472	0.119396
	H103	H	0.409241	0.398654	0.887581
	H104	H	0.122624	0.577489	0.413841
	H105	H	0.889277	0.578461	0.602830
	H106	H	0.123926	0.382129	0.590484
	H107	H	0.894167	0.391045	0.421441
	H108	H	0.912230	0.599218	0.092303
	H109	H	0.104111	0.365028	0.095643
	H110	H	0.095211	0.600450	0.910764
	H111	H	0.916375	0.367102	0.908269
	H112	H	0.098851	0.892489	0.619053
	H113	H	0.093222	0.078862	0.388065
	H114	H	0.908916	0.081880	0.623006
	H115	H	0.916247	0.898285	0.389224
	H116	H	0.618597	0.077462	0.919235
	H117	H	0.388027	0.083510	0.099878
	H118	H	0.620444	0.895225	0.093262
	H119	H	0.389916	0.887094	0.910288
	C120	C	0.384747	-0.007780	0.623703
	C121	C	0.627496	0.976169	0.622305
	C122	C	0.629436	-0.008015	0.379931
	C123	C	0.385282	0.975205	0.380437
	C124	C	0.627924	0.362197	0.011498
	C125	C	0.628125	0.604564	0.994222
	C126	C	0.384221	0.604535	0.011337
	C127	C	0.384192	0.362177	0.994433
	C128	C	0.015296	0.605724	0.382218
	C129	C	0.999171	0.606063	0.625827
	C130	C	0.015625	0.361557	0.626306
	C131	C	0.998857	0.362141	0.382923
	C132	C	0.884525	0.491885	0.125436
	C133	C	0.128324	0.475012	0.125391
	C134	C	0.127156	0.492253	0.883174
	C135	C	0.884935	0.475299	0.882424
	C136	C	0.128802	0.862728	0.512034
	C137	C	0.128554	0.105085	0.495230
	C138	C	0.884943	0.105361	0.511944
	C139	C	0.885581	0.862753	0.495381
	C140	C	0.514489	0.105858	0.879466
	C141	C	0.499176	0.105030	0.123504
	C142	C	0.514440	0.861853	0.122786
	C143	C	0.497587	0.860751	0.878988
	C144	C	0.386915	0.868645	0.678251
	C145	C	0.625194	0.099322	0.678664
	C146	C	0.626661	0.868112	0.324809
	C147	C	0.388473	0.098855	0.325736
	C148	C	0.685090	0.362274	0.888970
	C149	C	0.683161	0.603523	0.117840
	C150	C	0.327809	0.603506	0.888459
	C151	C	0.329320	0.363648	0.118054
	C152	C	0.892801	0.661695	0.384701
	C153	C	0.121766	0.661513	0.623843
	C154	C	0.893073	0.306374	0.624326
	C155	C	0.121177	0.306288	0.384570
	C156	C	0.892833	0.364547	0.681291
	C157	C	0.121696	0.603642	0.681686
	C158	C	0.892710	0.603815	0.326698
	C159	C	0.120882	0.363515	0.326181
	C160	C	0.387240	0.658860	0.887471
	C161	C	0.624610	0.659955	0.117747
	C162	C	0.624987	0.308095	0.887393
	C163	C	0.387075	0.306358	0.117395
	C164	C	0.685486	0.868861	0.381015
	C165	C	0.683565	0.099241	0.621770
	C166	C	0.329701	0.868821	0.621161
	C167	C	0.329326	0.098287	0.381659
	C168	C	0.887080	0.368447	0.180938
	C169	C	0.125583	0.598672	0.180910
	C170	C	0.124618	0.368493	0.827877
	C171	C	0.887350	0.598803	0.826767
	C172	C	0.184381	0.863201	0.388659
	C173	C	0.184935	0.103731	0.617755
	C174	C	0.829936	0.104418	0.388548
	C175	C	0.828076	0.863251	0.617367
	C176	C	0.392077	0.161004	0.881488
	C177	C	0.621100	0.161383	0.120985
	C178	C	0.391600	0.806560	0.120964
	C179	C	0.619954	0.804803	0.881007
	C180	C	0.392374	0.863758	0.179405
	C181	C	0.621231	0.104320	0.179672
	C182	C	0.391651	0.102060	0.825195
	C183	C	0.620353	0.863217	0.823623
	C184	C	0.887398	0.161576	0.389345
	C185	C	0.125709	0.159494	0.618992
	C186	C	0.126460	0.806325	0.388856
	C187	C	0.887861	0.808000	0.618720
	C188	C	0.182932	0.369061	0.884058
	C189	C	0.183944	0.598367	0.124611
	C190	C	0.828978	0.368532	0.123861
	C191	C	0.828914	0.598345	0.883506
	C192	C	0.406986	0.078664	0.601161
	C193	C	0.604843	0.890317	0.598870
	C194	C	0.607006	0.077904	0.402771
	C195	C	0.407357	0.888984	0.403060
	C196	C	0.605224	0.384623	0.097289
	C197	C	0.606182	0.581186	0.908555
	C198	C	0.406492	0.582174	0.097258
	C199	C	0.405969	0.385262	0.908313
	C200	C	0.100621	0.583251	0.404387
	C201	C	0.913759	0.583728	0.603134
	C202	C	0.101430	0.383549	0.603933
	C203	C	0.913790	0.385298	0.405976
	C204	C	0.906622	0.577791	0.102897
	C205	C	0.106061	0.389034	0.102523
	C206	C	0.104756	0.578313	0.906182
	C207	C	0.907614	0.389579	0.905266
	C208	C	0.106340	0.886467	0.597549
	C209	C	0.106053	0.082800	0.409290
	C210	C	0.906950	0.082026	0.597811
	C211	C	0.908818	0.885895	0.409655
	C212	C	0.600160	0.083735	0.901966
	C213	C	0.413763	0.082252	0.101012
	C214	C	0.599793	0.884180	0.100100
	C215	C	0.412485	0.883150	0.901708
	Zn216	Zn	0.506216	-0.016458	0.750861
	Zn217	Zn	0.507103	-0.016776	0.252528
	Zn218	Zn	0.756002	0.483200	0.003749
	Zn219	Zn	0.255794	0.483706	0.003640
	Zn220	Zn	0.007050	0.734873	0.504467
	Zn221	Zn	0.006974	0.233140	0.504722
	Zn222	Zn	0.006846	0.483859	0.754428
	Zn223	Zn	0.006902	0.483663	0.253008
	Zn224	Zn	0.506242	0.732371	0.001909
	Zn225	Zn	0.506154	0.234396	0.001766
	Zn226	Zn	0.757079	-0.016102	0.502237
	Zn227	Zn	0.257198	-0.016350	0.502371
	N228	N	0.420166	0.946495	0.680098
	N229	N	0.591256	0.021692	0.679180
	N230	N	0.592339	0.945545	0.324085
	N231	N	0.422381	0.021209	0.324891
	N232	N	0.686998	0.395381	0.967071
	N233	N	0.685473	0.569810	0.040103
	N234	N	0.325763	0.570498	0.966546
	N235	N	0.327306	0.397573	0.040485
	N236	N	0.969918	0.663107	0.418378
	N237	N	0.044613	0.663015	0.590044
	N238	N	0.970479	0.304534	0.590894
	N239	N	0.044198	0.305035	0.418962
	N240	N	0.970084	0.398062	0.682665
	N241	N	0.044537	0.569793	0.683089
	N242	N	0.969890	0.569830	0.324936
	N243	N	0.043713	0.397459	0.324976
	N244	N	0.421686	0.659587	0.964632
	N245	N	0.591445	0.660985	0.039888
	N246	N	0.590213	0.307584	0.964661
	N247	N	0.420249	0.305221	0.039455
	N248	N	0.687500	0.946914	0.414346
	N249	N	0.685040	0.021615	0.587321
	N250	N	0.328428	0.946832	0.587756
	N251	N	0.327152	0.020305	0.415008
	N252	N	0.921201	0.445981	0.181736
	N253	N	0.091522	0.521028	0.181377
	N254	N	0.090642	0.446154	0.827033
	N255	N	0.921427	0.521296	0.825887
	N256	N	0.185949	0.897705	0.466184
	N257	N	0.186717	0.070491	0.539800
	N258	N	0.828436	0.069942	0.465823
	N259	N	0.826672	0.896543	0.539569
	N260	N	0.469417	0.163291	0.914732
	N261	N	0.544208	0.161779	0.086580
	N262	N	0.468453	0.805536	0.086289
	N263	N	0.542591	0.802836	0.914351
	N264	N	0.469729	0.897437	0.180638
	N265	N	0.544339	0.069803	0.180972
	N266	N	0.468911	0.068235	0.823961
	N267	N	0.543351	0.897232	0.822208
	N268	N	0.920786	0.162502	0.467145
	N269	N	0.091285	0.160419	0.541755
	N270	N	0.092464	0.806144	0.466323
	N271	N	0.922909	0.807666	0.541649
	N272	N	0.184625	0.447066	0.917572
	N273	N	0.185729	0.520491	0.090590
	N274	N	0.827097	0.446311	0.090207
	N275	N	0.827387	0.520715	0.917522
	O276	O	-0.007428	-0.066761	0.071091
	H277	H	-0.006279	-0.078185	0.074849
	H278	H	-0.015057	-0.071306	0.084844
	O279	O	0.486362	0.423209	0.480196
	H280	H	0.493994	0.419394	0.491694
	H281	H	0.476638	0.415444	0.482226
	O282	O	0.554568	0.523667	0.553706
	H283	H	0.561290	0.527155	0.549317
	H284	H	0.561364	0.520260	0.548880
	O285	O	0.920704	-0.002718	0.998702
	H286	H	0.913254	0.007564	1.004704
	H287	H	0.914986	0.000668	1.007179
	O288	O	1.049239	0.013503	-0.042074
	H289	H	1.046009	0.017489	-0.026445
	H290	H	1.051521	0.000542	-0.046556
	O291	O	-0.067236	1.030963	-0.026438
	H292	H	-0.057441	1.024545	-0.022703
	H293	H	-0.068947	1.025831	-0.015134
	O294	O	1.537225	0.506984	1.555077
	H295	H	1.542857	0.515443	1.556534
	H296	H	1.535325	0.519144	1.565905
	O297	O	0.007472	-0.106517	0.087718
	H298	H	0.006851	-0.098965	0.088073
	H299	H	0.013562	-0.111911	0.085697
	O300	O	-0.078024	1.014350	0.003243
	H301	H	-0.081609	1.008893	-0.005675
	H302	H	-0.071054	1.019320	0.000753
	O303	O	0.580717	0.499359	0.505356
	H304	H	0.569521	0.503739	0.503256
	H305	H	0.584379	0.499674	0.506993
	O306	O	0.951667	-0.058443	-0.133472
	H307	H	0.939190	-0.055535	-0.138304
	H308	H	0.954287	-0.055118	-0.140323
	O309	O	0.076921	-0.020746	1.000366
	H310	H	0.076792	-0.010497	1.002936
	H311	H	0.079448	-0.023907	0.993984
	O312	O	1.089307	1.039722	0.985028
	H313	H	1.083729	1.035103	0.979030
	H314	H	1.091537	1.039050	0.983142
	O315	O	0.589719	0.500486	0.532859
	H316	H	0.587760	0.509925	0.530058
	H317	H	0.589909	0.498544	0.531476
	O318	O	0.480953	0.504171	0.477266
	H319	H	0.481921	0.493849	0.473608
	H320	H	0.480146	0.501183	0.477241
	O321	O	-0.080296	0.901950	1.072885
	H322	H	-0.086455	0.879026	1.070885
	H323	H	-0.080623	0.902825	1.070311
	O324	O	0.580120	0.543611	0.538490
	H325	H	0.587068	0.540207	0.530952
	H326	H	0.576531	0.548499	0.535025
	O327	O	1.040149	1.051808	-0.070037
	H328	H	1.044888	1.060828	-0.067657
	H329	H	1.045036	1.059326	-0.076671
	O330	O	0.027651	1.034844	0.097387
	H331	H	0.031432	1.039525	0.107652
	H332	H	0.026132	1.038551	0.102566
	O333	O	-0.048906	0.974009	1.012206
	H334	H	-0.041338	0.980311	1.002408
	H335	H	-0.049566	0.979921	1.015466
	O336	O	0.460056	0.521341	0.499379
	H337	H	0.463208	0.517178	0.502252
	H338	H	0.453098	0.520020	0.495332
	O339	O	1.003616	1.022126	0.056278
	H340	H	1.004601	1.018138	0.042717
	H341	H	0.999092	1.018491	0.065107
	O342	O	0.992508	0.909310	0.083724
	H343	H	0.988352	0.898584	0.085987
	H344	H	1.005183	0.903484	0.077811
	O345	O	0.551324	0.509710	0.524400
	H346	H	0.556468	0.507524	0.530666
	H347	H	0.550030	0.505009	0.527734
	O348	O	0.006943	0.022267	0.005162
	H349	H	0.009409	0.022740	-0.001475
	H350	H	0.004555	0.019037	0.001787
	O351	O	0.102412	0.948530	1.065936
	H352	H	0.098382	0.949439	1.060585
	H353	H	0.108744	0.957299	1.068388
	O354	O	0.513615	0.541792	0.529469
	H355	H	0.513644	0.540963	0.538879
	H356	H	0.509430	0.549157	0.531614
	O357	O	0.033122	1.016837	1.040762
	H358	H	0.028584	1.016372	1.045377
	H359	H	0.026634	1.024305	1.047447
