data_Molecule from HDF5

_cell_length_a		16.630527
_cell_length_b		16.526666
_cell_length_c		16.807786
_cell_angle_alpha	90.012339
_cell_angle_beta	90.036361
_cell_angle_gamma	90.009460
_symmetry_space_group_name_H-M	'P 1'
_symmetry_Int_Tables_number		1

loop_
	_symmetry_equiv_pos_as_xyz
	x,y,z

loop_
	_atom_site_label
	_atom_site_type_symbol
	_atom_site_fract_x
	_atom_site_fract_y
	_atom_site_fract_z
	H0	H	0.400000	0.859990	0.703168
	H1	H	0.613502	0.170848	0.705783
	H2	H	0.611447	0.860872	0.261718
	H3	H	0.399334	0.172716	0.261963
	H4	H	0.724806	0.413211	0.828259
	H5	H	0.719564	0.613251	0.141294
	H6	H	0.288875	0.616379	0.826529
	H7	H	0.282361	0.409529	0.136403
	H8	H	0.849164	0.733527	0.381376
	H9	H	0.160742	0.734856	0.586291
	H10	H	0.850947	0.294637	0.588200
	H11	H	0.161388	0.295764	0.378732
	H12	H	0.851412	0.407777	0.706011
	H13	H	0.157557	0.624071	0.707484
	H14	H	0.849997	0.620665	0.263203
	H15	H	0.160090	0.407765	0.259748
	H16	H	0.407532	0.731567	0.825421
	H17	H	0.601508	0.729482	0.141960
	H18	H	0.607308	0.296506	0.828020
	H19	H	0.398984	0.293457	0.137204
	H20	H	0.728212	0.862262	0.376577
	H21	H	0.726372	0.172492	0.588136
	H22	H	0.285530	0.859642	0.586976
	H23	H	0.285606	0.172993	0.379362
	H24	H	0.902430	0.358917	0.201960
	H25	H	0.111864	0.672519	0.204081
	H26	H	0.113930	0.362425	0.758663
	H27	H	0.899357	0.672357	0.762716
	H28	H	0.230414	0.907934	0.331514
	H29	H	0.232663	0.126753	0.634462
	H30	H	0.779530	0.127216	0.332069
	H31	H	0.781539	0.909454	0.634073
	H32	H	0.351547	0.239904	0.875005
	H33	H	0.661751	0.234968	0.084722
	H34	H	0.347940	0.800412	0.082138
	H35	H	0.665515	0.802722	0.885834
	H36	H	0.349332	0.912892	0.201533
	H37	H	0.660286	0.122455	0.203748
	H38	H	0.353327	0.126007	0.756892
	H39	H	0.663068	0.913844	0.764782
	H40	H	0.897104	0.242494	0.331590
	H41	H	0.114339	0.241862	0.634830
	H42	H	0.114155	0.790978	0.330966
	H43	H	0.897760	0.791723	0.633467
	H44	H	0.228321	0.360587	0.876207
	H45	H	0.224814	0.673341	0.087222
	H46	H	0.789583	0.356977	0.083199
	H47	H	0.788753	0.674219	0.882088
	H48	H	0.420533	0.126281	0.569708
	H49	H	0.589651	0.906085	0.570096
	H50	H	0.590092	0.126938	0.395073
	H51	H	0.419296	0.904722	0.391676
	H52	H	0.602120	0.424745	0.095896
	H53	H	0.600428	0.611315	0.869764
	H54	H	0.419018	0.611939	0.095012
	H55	H	0.416485	0.429194	0.873776
	H56	H	0.114230	0.596385	0.396503
	H57	H	0.891407	0.606840	0.574852
	H58	H	0.116063	0.432479	0.571205
	H59	H	0.895469	0.433116	0.389772
	H60	H	0.116982	0.430581	0.573195
	H61	H	0.894650	0.604304	0.568477
	H62	H	0.120795	0.602965	0.383153
	H63	H	0.892051	0.424775	0.391126
	H64	H	0.407470	0.610478	0.097768
	H65	H	0.600222	0.608840	0.870506
	H66	H	0.594931	0.429969	0.092407
	H67	H	0.418042	0.430472	0.874706
	H68	H	0.596958	0.129328	0.395157
	H69	H	0.597124	0.903772	0.568573
	H70	H	0.417528	0.127676	0.570195
	H71	H	0.416570	0.904387	0.394613
	H72	H	0.917600	0.627800	0.072344
	H73	H	0.088882	0.405976	0.073743
	H74	H	0.094590	0.626224	0.899027
	H75	H	0.916823	0.403300	0.892484
	H76	H	0.093276	0.929178	0.591945
	H77	H	0.094378	0.106181	0.373335
	H78	H	0.917711	0.103387	0.592265
	H79	H	0.915454	0.923987	0.370537
	H80	H	0.617394	0.110964	0.896290
	H81	H	0.391685	0.105656	0.076975
	H82	H	0.617804	0.920566	0.067790
	H83	H	0.393590	0.924567	0.891190
	H84	H	0.616703	0.934807	0.077332
	H85	H	0.394175	0.107165	0.067923
	H86	H	0.612188	0.098415	0.899404
	H87	H	0.393827	0.926669	0.889853
	H88	H	0.918648	0.104766	0.591732
	H89	H	0.095883	0.101918	0.374980
	H90	H	0.094521	0.924898	0.593710
	H91	H	0.914740	0.931820	0.373256
	H92	H	0.095647	0.629386	0.892886
	H93	H	0.094802	0.405867	0.066983
	H94	H	0.908381	0.630879	0.073988
	H95	H	0.917760	0.403223	0.893322
	H96	H	0.420049	0.128174	0.572632
	H97	H	0.594162	0.903433	0.575925
	H98	H	0.592555	0.130587	0.389338
	H99	H	0.416386	0.902460	0.390814
	H100	H	0.594283	0.420269	0.094496
	H101	H	0.598587	0.610603	0.871005
	H102	H	0.412882	0.602610	0.090892
	H103	H	0.418542	0.428118	0.874699
	H104	H	0.119633	0.612375	0.396889
	H105	H	0.893876	0.599554	0.574432
	H106	H	0.115734	0.430517	0.570352
	H107	H	0.896136	0.429482	0.397660
	H108	H	0.915188	0.630224	0.081548
	H109	H	0.096901	0.402200	0.074605
	H110	H	0.089701	0.626621	0.893884
	H111	H	0.916415	0.403457	0.893793
	H112	H	0.098139	0.928532	0.593811
	H113	H	0.091440	0.102583	0.375037
	H114	H	0.917213	0.105199	0.592735
	H115	H	0.922190	0.927695	0.375268
	H116	H	0.617875	0.100572	0.886774
	H117	H	0.396183	0.098651	0.072037
	H118	H	0.623101	0.920439	0.083995
	H119	H	0.392936	0.924077	0.888769
	C120	C	0.385628	0.024695	0.603537
	C121	C	0.626555	1.007705	0.603591
	C122	C	0.626559	0.025826	0.361167
	C123	C	0.384731	1.007642	0.361460
	C124	C	0.627353	0.394416	-0.008570
	C125	C	0.627426	0.638055	0.975105
	C126	C	0.383780	0.638223	-0.008910
	C127	C	0.383965	0.394917	0.975120
	C128	C	0.014780	0.636602	0.361398
	C129	C	0.995864	0.636938	0.604925
	C130	C	0.013889	0.396858	0.603979
	C131	C	0.997169	0.395561	0.361137
	C132	C	0.884265	0.524469	0.104960
	C133	C	0.125993	0.508059	0.103810
	C134	C	0.126101	0.524710	0.862210
	C135	C	0.885129	0.507468	0.862459
	C136	C	0.128310	0.893845	0.492128
	C137	C	0.127525	0.137928	0.474919
	C138	C	0.884093	0.138699	0.491614
	C139	C	0.884446	0.895149	0.473867
	C140	C	0.513861	0.137084	0.861020
	C141	C	0.496836	0.136495	0.103492
	C142	C	0.514608	0.894829	0.105309
	C143	C	0.498101	0.895621	0.861574
	C144	C	0.382474	0.907084	0.663260
	C145	C	0.630411	0.124529	0.664659
	C146	C	0.629967	0.908111	0.301502
	C147	C	0.381726	0.125484	0.302117
	C148	C	0.685205	0.394090	0.874636
	C149	C	0.681306	0.634102	0.094263
	C150	C	0.327722	0.636603	0.873186
	C151	C	0.322887	0.391546	0.090398
	C152	C	0.896571	0.694804	0.361672
	C153	C	0.113275	0.696231	0.605980
	C154	C	0.897609	0.334883	0.606811
	C155	C	0.114384	0.335199	0.359794
	C156	C	0.897911	0.391164	0.665469
	C157	C	0.111928	0.641167	0.665918
	C158	C	0.897078	0.638894	0.302726
	C159	C	0.113647	0.391043	0.300727
	C160	C	0.386521	0.693941	0.872974
	C161	C	0.622900	0.691770	0.094419
	C162	C	0.626973	0.336210	0.874308
	C163	C	0.381037	0.333833	0.090678
	C164	C	0.687751	0.908767	0.358724
	C165	C	0.686430	0.125458	0.605988
	C166	C	0.325570	0.907023	0.605364
	C167	C	0.325019	0.125691	0.360239
	C168	C	0.883896	0.405814	0.162330
	C169	C	0.129386	0.625363	0.164030
	C170	C	0.130432	0.408083	0.800443
	C171	C	0.882474	0.625384	0.803226
	C172	C	0.189577	0.890182	0.377048
	C173	C	0.190596	0.143378	0.589055
	C174	C	0.821374	0.143990	0.377477
	C175	C	0.822557	0.891275	0.588465
	C176	C	0.397938	0.199128	0.857133
	C177	C	0.614541	0.195831	0.104278
	C178	C	0.395593	0.838261	0.102904
	C179	C	0.617348	0.839812	0.864356
	C180	C	0.396150	0.894481	0.161812
	C181	C	0.613841	0.139550	0.163071
	C182	C	0.398813	0.142426	0.798607
	C183	C	0.616287	0.895304	0.804590
	C184	C	0.879707	0.201271	0.377338
	C185	C	0.131965	0.200690	0.589427
	C186	C	0.131738	0.832160	0.377005
	C187	C	0.880202	0.833018	0.588316
	C188	C	0.187202	0.407417	0.858794
	C189	C	0.185598	0.625891	0.105553
	C190	C	0.827535	0.405095	0.103669
	C191	C	0.827088	0.626327	0.862453
	C192	C	0.411839	0.106442	0.578127
	C193	C	0.600894	0.925695	0.578527
	C194	C	0.600697	0.107676	0.386041
	C195	C	0.409956	0.925292	0.385554
	C196	C	0.603843	0.417970	0.072945
	C197	C	0.606126	0.616570	0.892112
	C198	C	0.406342	0.615150	0.072934
	C199	C	0.410320	0.421532	0.895297
	C200	C	0.096886	0.611302	0.385491
	C201	C	0.914385	0.610901	0.579794
	C202	C	0.095074	0.423516	0.578714
	C203	C	0.915843	0.421590	0.385741
	C204	C	0.907112	0.607789	0.082393
	C205	C	0.100766	0.425961	0.078925
	C206	C	0.100420	0.606307	0.887923
	C207	C	0.909798	0.424896	0.886370
	C208	C	0.102535	0.920146	0.572310
	C209	C	0.101119	0.111146	0.395088
	C210	C	0.910430	0.111877	0.571423
	C211	C	0.910217	0.920838	0.393940
	C212	C	0.594847	0.110782	0.886963
	C213	C	0.415148	0.111157	0.079054
	C214	C	0.597605	0.918640	0.082814
	C215	C	0.414987	0.918598	0.883643
	Zn216	Zn	0.506144	0.016075	0.732070
	Zn217	Zn	0.505268	0.016476	0.233252
	Zn218	Zn	0.756681	0.516081	-0.016485
	Zn219	Zn	0.254255	0.516526	-0.017096
	Zn220	Zn	0.005551	0.764774	0.482707
	Zn221	Zn	0.005988	0.267880	0.483199
	Zn222	Zn	0.005402	0.515849	0.733919
	Zn223	Zn	0.005996	0.516216	0.232710
	Zn224	Zn	0.505810	0.767426	-0.016866
	Zn225	Zn	0.505441	0.265225	-0.017323
	Zn226	Zn	0.754579	0.017229	0.482780
	Zn227	Zn	0.256839	0.016409	0.482934
	N228	N	0.419285	0.981465	0.662356
	N229	N	0.593691	0.050257	0.663237
	N230	N	0.592630	0.981976	0.302822
	N231	N	0.418093	0.050877	0.302557
	N232	N	0.685688	0.429340	0.948472
	N233	N	0.684697	0.601721	0.018969
	N234	N	0.325378	0.603074	0.947739
	N235	N	0.324284	0.428719	0.017406
	N236	N	0.970905	0.693744	0.397264
	N237	N	0.039827	0.694082	0.569076
	N238	N	0.970903	0.337973	0.569367
	N239	N	0.040743	0.337457	0.396429
	N240	N	0.971370	0.429044	0.663863
	N241	N	0.037649	0.605253	0.665674
	N242	N	0.971890	0.603636	0.302123
	N243	N	0.039677	0.427750	0.301274
	N244	N	0.420385	0.695428	0.947346
	N245	N	0.590521	0.694585	0.019193
	N246	N	0.591830	0.336090	0.948100
	N247	N	0.418107	0.335379	0.017765
	N248	N	0.685841	0.983079	0.395284
	N249	N	0.684220	0.051599	0.568625
	N250	N	0.327431	0.981327	0.568791
	N251	N	0.326779	0.051305	0.396509
	N252	N	0.918455	0.481112	0.163391
	N253	N	0.092925	0.550849	0.163181
	N254	N	0.093085	0.482019	0.802458
	N255	N	0.917946	0.550505	0.803020
	N256	N	0.187589	0.927842	0.449764
	N257	N	0.187807	0.104879	0.516922
	N258	N	0.824037	0.105552	0.449620
	N259	N	0.824928	0.929132	0.516270
	N260	N	0.470564	0.195737	0.895607
	N261	N	0.540657	0.194272	0.067822
	N262	N	0.470331	0.838389	0.068220
	N263	N	0.542556	0.839551	0.898850
	N264	N	0.471380	0.928726	0.163666
	N265	N	0.539618	0.103520	0.162848
	N266	N	0.471976	0.104463	0.800946
	N267	N	0.540796	0.928758	0.802148
	N268	N	0.918354	0.198006	0.449333
	N269	N	0.093179	0.197399	0.517561
	N270	N	0.094111	0.834240	0.449637
	N271	N	0.918353	0.835331	0.516246
	N272	N	0.184663	0.480917	0.896752
	N273	N	0.183832	0.551757	0.068762
	N274	N	0.827448	0.480118	0.068700
	N275	N	0.828203	0.551810	0.898574
	O276	O	-0.161401	1.203998	-0.006919
	H277	H	-0.182817	1.221975	0.015820
	H278	H	-0.177329	1.204388	-0.008505
	O279	O	0.546920	0.743287	0.709133
	H280	H	0.558631	0.743148	0.701662
	H281	H	0.543797	0.770900	0.734991
	O282	O	0.950782	0.080236	1.221829
	H283	H	0.950613	0.078058	1.218251
	H284	H	0.964015	0.095183	1.223523
	O285	O	0.515539	0.488662	0.326140
	H286	H	0.499927	0.495233	0.319970
	H287	H	0.510893	0.506210	0.344392
	O288	O	0.494126	0.540956	0.257817
	H289	H	0.492102	0.542761	0.257764
	H290	H	0.477362	0.547620	0.265178
	O291	O	0.363729	0.299982	0.477028
	H292	H	0.369294	0.305158	0.481022
	H293	H	0.359857	0.283059	0.478355
	O294	O	0.984109	0.201182	0.790877
	H295	H	0.982608	0.202111	0.788051
	H296	H	0.983377	0.220590	0.794102
	O297	O	0.288439	0.546050	0.268611
	H298	H	0.270580	0.557934	0.257850
	H299	H	0.279919	0.560325	0.270859
	O300	O	-0.205879	0.037367	0.763361
	H301	H	-0.225733	0.037925	0.773826
	H302	H	-0.198738	0.046821	0.753392
	O303	O	0.208853	0.216175	0.776619
	H304	H	0.212546	0.227739	0.762104
	H305	H	0.206077	0.209285	0.784800
	O306	O	0.580857	0.380230	0.645944
	H307	H	0.580011	0.380007	0.637782
	H308	H	0.575054	0.392367	0.655583
	O309	O	0.560978	0.465123	0.385561
	H310	H	0.561731	0.463156	0.389104
	H311	H	0.557180	0.474377	0.396906
	O312	O	0.483321	0.695137	0.523294
	H313	H	0.485505	0.698038	0.544717
	H314	H	0.465738	0.692822	0.526716
	O315	O	0.662770	0.670067	1.276451
	H316	H	0.657382	0.661934	1.293908
	H317	H	0.673055	0.672352	1.277739
	O318	O	0.721281	0.658106	0.455650
	H319	H	0.710818	0.657872	0.479420
	H320	H	0.735477	0.675184	0.457049
	O321	O	-0.188513	0.822475	0.780172
	H322	H	-0.170786	0.858871	0.778706
	H323	H	-0.169379	0.829226	0.815464
	O324	O	0.986802	0.796953	0.192141
	H325	H	0.984118	0.771161	0.203915
	H326	H	0.994769	0.787400	0.163804
	O327	O	0.177770	-0.133884	1.186382
	H328	H	0.169205	-0.123426	1.155852
	H329	H	0.157691	-0.111426	1.187150
	O330	O	0.560275	0.605278	0.502092
	H331	H	0.552742	0.605414	0.486333
	H332	H	0.560357	0.613003	0.530899
	O333	O	0.712859	0.307715	0.281269
	H334	H	0.697464	0.314845	0.300832
	H335	H	0.683806	0.316062	0.296730
	O336	O	0.527423	0.525941	0.701614
	H337	H	0.529104	0.509942	0.703095
	H338	H	0.531975	0.525050	0.701210
	O339	O	0.894195	-0.095412	0.998823
	H340	H	0.891664	-0.064192	1.001286
	H341	H	0.878871	-0.107365	1.016351
	O342	O	0.283006	-0.269346	0.263958
	H343	H	0.320204	-0.262657	0.248404
	H344	H	0.266466	-0.239174	0.238954
	O345	O	-0.028683	0.783685	0.910189
	H346	H	-0.056664	0.779394	0.917399
	H347	H	-0.025480	0.796861	0.930844
	O348	O	0.209431	0.221923	0.189853
	H349	H	0.203534	0.191602	0.190069
	H350	H	0.234260	0.236971	0.198923
	O351	O	0.193479	0.129004	0.925294
	H352	H	0.203095	0.131566	0.921093
	H353	H	0.188689	0.132756	0.928267
	O354	O	-0.223474	0.063609	1.048020
	H355	H	-0.222737	0.068254	1.060292
	H356	H	-0.216544	0.074089	1.039027
	O357	O	0.329045	0.625251	0.543192
	H358	H	0.326439	0.643086	0.536268
	H359	H	0.324565	0.639315	0.532252
	O360	O	0.719054	0.371889	0.500904
	H361	H	0.707083	0.387600	0.499569
	H362	H	0.740538	0.370502	0.496288
	O363	O	-0.000770	-0.072085	0.005880
	H364	H	-0.005826	-0.066755	0.000257
	H365	H	0.001313	-0.043331	0.014048
	O366	O	0.530174	0.300843	0.319472
	H367	H	0.527899	0.309775	0.313549
	H368	H	0.524106	0.302791	0.297721
	O369	O	0.815245	0.205222	0.178330
	H370	H	0.821799	0.198898	0.186774
	H371	H	0.800202	0.217663	0.206933
	O372	O	1.227485	1.236749	0.014486
	H373	H	1.235324	1.237232	0.021560
	H374	H	1.246114	1.253774	0.018087
	O375	O	1.048950	-0.069037	0.219726
	H376	H	1.050816	-0.057193	0.210446
	H377	H	1.032939	-0.091112	0.217613
	O378	O	0.385114	0.382356	0.281876
	H379	H	0.392640	0.399597	0.291231
	H380	H	0.387902	0.406031	0.292085
	O381	O	-0.173589	1.135874	0.925808
	H382	H	-0.177971	1.128026	0.906156
	H383	H	-0.180696	1.151180	0.898925
	O384	O	1.190832	-0.092303	1.025947
	H385	H	1.215700	-0.106914	0.996525
	H386	H	1.190769	-0.052460	1.019780
	O387	O	1.232375	0.790562	-0.062599
	H388	H	1.238628	0.788630	-0.085170
	H389	H	1.246252	0.772110	-0.063209
	O390	O	0.734408	0.504416	0.478429
	H391	H	0.733073	0.527128	0.475967
	H392	H	0.729545	0.520689	0.477970
	O393	O	0.531142	0.419249	0.489566
	H394	H	0.522647	0.425384	0.499378
	H395	H	0.529219	0.416434	0.494695
	O396	O	0.313939	0.696928	0.669643
	H397	H	0.333021	0.688323	0.654103
	H398	H	0.285688	0.733380	0.698546
	O399	O	0.223509	-0.010525	0.764870
	H400	H	0.208376	-0.010351	0.765358
	H401	H	0.233164	0.000087	0.751045
	O402	O	0.364287	0.403203	0.450975
	H403	H	0.355105	0.409175	0.457983
	H404	H	0.354326	0.414139	0.454044
	O405	O	0.712549	-0.691453	1.695082
	H406	H	0.702525	-0.670512	1.666537
	H407	H	0.729265	-0.698470	1.694432
	O408	O	0.216532	0.054748	0.204371
	H409	H	0.221215	0.053948	0.214340
	H410	H	0.208212	0.048290	0.218055
	O411	O	0.711358	0.719420	0.689386
	H412	H	0.690198	0.698407	0.695946
	H413	H	0.744626	0.752103	0.720825
	O414	O	0.983381	0.055161	0.912943
	H415	H	0.979591	0.071900	0.914445
	H416	H	0.981468	0.062276	0.903215
	O417	O	0.587533	0.732616	0.415452
	H418	H	0.572799	0.737858	0.417044
	H419	H	0.599579	0.739370	0.435022
	O420	O	0.372720	0.467526	0.528701
	H421	H	0.363404	0.488400	0.542670
	H422	H	0.370305	0.470908	0.529939
	O423	O	-0.207792	-0.196966	1.207185
	H424	H	-0.182370	-0.202917	1.218089
	H425	H	-0.201282	-0.170341	1.214198
	O426	O	0.289952	0.408174	0.370833
	H427	H	0.300594	0.408099	0.385389
	H428	H	0.284486	0.422601	0.377702
	O429	O	0.774864	0.786155	1.034464
	H430	H	0.759776	0.773195	1.059699
	H431	H	0.761415	0.770481	1.062504
	O432	O	0.308107	0.335088	0.682139
	H433	H	0.319875	0.345707	0.687436
	H434	H	0.309843	0.346667	0.658562
	O435	O	-0.064211	1.010836	-0.241113
	H436	H	-0.053350	1.024476	-0.243727
	H437	H	-0.061324	1.001599	-0.244685
	O438	O	0.030279	0.041939	0.065921
	H439	H	0.019398	0.050168	0.059357
	H440	H	0.026623	0.056129	0.070606
	O441	O	0.035545	0.237518	0.209077
	H442	H	0.067761	0.241250	0.206281
	H443	H	0.035071	0.260694	0.228147
	O444	O	0.440186	0.556233	0.662930
	H445	H	0.449599	0.561900	0.674409
	H446	H	0.458625	0.549924	0.663547
	O447	O	-0.202469	0.992706	1.202515
	H448	H	-0.212932	0.999508	1.218236
	H449	H	-0.194611	1.001125	1.195488
	O450	O	0.085808	0.888006	0.824626
	H451	H	0.064962	0.870597	0.835057
	H452	H	0.081237	0.905732	0.833264
	O453	O	0.500151	0.296828	0.519462
	H454	H	0.488472	0.319479	0.518208
	H455	H	0.515092	0.288369	0.500264
	O456	O	0.058654	0.205022	0.960082
	H457	H	0.061289	0.213519	0.961231
	H458	H	0.055962	0.207041	0.968860
	O459	O	0.292311	0.726244	0.454239
	H460	H	0.280681	0.731796	0.433789
	H461	H	0.284887	0.739831	0.424925
	O462	O	0.840435	0.231464	0.808974
	H463	H	0.838386	0.214991	0.834542
	H464	H	0.840258	0.245133	0.798033
	O465	O	1.047790	-0.201495	0.074298
	H466	H	1.048208	-0.177970	0.066105
	H467	H	1.057537	-0.194903	0.060081
	O468	O	0.447418	0.715224	0.275218
	H469	H	0.466512	0.709375	0.273866
	H470	H	0.456536	0.711073	0.270855
	O471	O	0.330102	0.507011	0.626568
	H472	H	0.339630	0.509575	0.628054
	H473	H	0.323029	0.515118	0.637240
	O474	O	0.009522	0.842134	-0.253156
	H475	H	0.012254	0.835771	-0.219256
	H476	H	0.001320	0.818501	-0.277287
	O477	O	0.726378	0.544832	1.704712
	H478	H	0.751918	0.551163	1.719477
	H479	H	0.720598	0.548745	1.701121
	O480	O	0.728732	0.477979	0.262350
	H481	H	0.729035	0.472898	0.250036
	H482	H	0.740135	0.458804	0.256895
	O483	O	0.479299	0.305136	0.698833
	H484	H	0.469768	0.302288	0.690570
	H485	H	0.482286	0.283600	0.705504
	O486	O	1.218554	-0.191425	0.763637
	H487	H	1.182605	-0.192213	0.781636
	H488	H	1.211037	-0.151456	0.763216
	O489	O	0.796250	0.956963	-0.077062
	H490	H	0.791324	0.956241	-0.048837
	H491	H	0.806956	0.951542	-0.066236
	O492	O	0.190233	0.060527	-0.003190
	H493	H	0.184555	0.068522	-0.017704
	H494	H	0.198748	0.076617	0.025841
	O495	O	0.053926	1.092653	0.739302
	H496	H	0.052435	1.094742	0.742809
	H497	H	0.059239	1.096306	0.739925
	O498	O	1.022724	1.199514	1.023975
	H499	H	1.005797	1.201235	1.031995
	H500	H	1.030935	1.211684	1.027268
	O501	O	0.649517	0.663384	0.530778
	H502	H	0.654870	0.687581	0.542429
	H503	H	0.640028	0.665999	0.544948
