data_Molecule from HDF5

_cell_length_a		16.169975
_cell_length_b		16.207962
_cell_length_c		16.377436
_cell_angle_alpha	89.714543
_cell_angle_beta	90.547484
_cell_angle_gamma	90.096023
_symmetry_space_group_name_H-M	'P 1'
_symmetry_Int_Tables_number		1

loop_
	_symmetry_equiv_pos_as_xyz
	x,y,z

loop_
	_atom_site_label
	_atom_site_type_symbol
	_atom_site_fract_x
	_atom_site_fract_y
	_atom_site_fract_z
	H0	H	0.399883	0.838032	0.711327
	H1	H	0.601571	0.165275	0.712819
	H2	H	0.599575	0.836836	0.282105
	H3	H	0.396767	0.164559	0.277088
	H4	H	0.708067	0.403982	0.831306
	H5	H	0.714284	0.599872	0.156606
	H6	H	0.280594	0.600420	0.831653
	H7	H	0.282581	0.401184	0.157753
	H8	H	0.833680	0.717189	0.394562
	H9	H	0.163349	0.712352	0.593377
	H10	H	0.833570	0.285483	0.592141
	H11	H	0.163205	0.289582	0.398717
	H12	H	0.832206	0.400046	0.707760
	H13	H	0.159557	0.602758	0.713386
	H14	H	0.833888	0.605307	0.276422
	H15	H	0.161226	0.402345	0.280536
	H16	H	0.395107	0.718649	0.833289
	H17	H	0.596970	0.713981	0.158851
	H18	H	0.592691	0.286717	0.832012
	H19	H	0.397090	0.283493	0.157452
	H20	H	0.711512	0.835923	0.402746
	H21	H	0.714147	0.166225	0.594834
	H22	H	0.286229	0.836559	0.593539
	H23	H	0.284222	0.166343	0.395614
	H24	H	0.894529	0.339304	0.212126
	H25	H	0.098254	0.665741	0.209970
	H26	H	0.094130	0.337440	0.780350
	H27	H	0.894839	0.665669	0.776888
	H28	H	0.212244	0.902841	0.332706
	H29	H	0.215116	0.098859	0.658742
	H30	H	0.780250	0.102052	0.334314
	H31	H	0.787361	0.901810	0.660507
	H32	H	0.331825	0.213386	0.895219
	H33	H	0.662297	0.215105	0.093922
	H34	H	0.332077	0.788318	0.091745
	H35	H	0.662131	0.787165	0.901079
	H36	H	0.333918	0.899049	0.211815
	H37	H	0.662786	0.101509	0.211476
	H38	H	0.335160	0.103871	0.775903
	H39	H	0.662729	0.901395	0.784203
	H40	H	0.897088	0.216780	0.333196
	H41	H	0.100576	0.217316	0.658341
	H42	H	0.096211	0.787102	0.332766
	H43	H	0.901683	0.784090	0.658246
	H44	H	0.207340	0.335886	0.899207
	H45	H	0.211015	0.666180	0.091834
	H46	H	0.784657	0.336236	0.090284
	H47	H	0.782059	0.666411	0.895104
	H48	H	0.407889	0.117284	0.584247
	H49	H	0.589753	0.885352	0.593797
	H50	H	0.586818	0.117256	0.401203
	H51	H	0.401683	0.881289	0.397039
	H52	H	0.598175	0.409460	0.111647
	H53	H	0.589631	0.595126	0.878407
	H54	H	0.403934	0.588260	0.108649
	H55	H	0.393137	0.414409	0.878147
	H56	H	0.115112	0.586411	0.395471
	H57	H	0.880684	0.584570	0.589983
	H58	H	0.113225	0.405660	0.580516
	H59	H	0.876885	0.405054	0.394595
	H60	H	0.111422	0.420249	0.590089
	H61	H	0.875934	0.602010	0.589710
	H62	H	0.118092	0.601914	0.398460
	H63	H	0.881462	0.406190	0.410077
	H64	H	0.408661	0.597965	0.110947
	H65	H	0.585358	0.594851	0.879276
	H66	H	0.585241	0.414341	0.107070
	H67	H	0.410229	0.410341	0.882515
	H68	H	0.589370	0.116773	0.406488
	H69	H	0.593538	0.884634	0.589889
	H70	H	0.406795	0.119336	0.588644
	H71	H	0.415059	0.887512	0.401172
	H72	H	0.902574	0.619352	0.087097
	H73	H	0.092899	0.384019	0.086798
	H74	H	0.087176	0.618704	0.898540
	H75	H	0.892518	0.381887	0.900655
	H76	H	0.093732	0.902055	0.612938
	H77	H	0.085838	0.095704	0.381272
	H78	H	0.901291	0.104173	0.616756
	H79	H	0.911043	0.913270	0.383608
	H80	H	0.614863	0.088138	0.898532
	H81	H	0.377592	0.096190	0.093225
	H82	H	0.616226	0.909786	0.099737
	H83	H	0.382052	0.911395	0.905334
	H84	H	0.616499	0.900064	0.088939
	H85	H	0.382435	0.093903	0.081009
	H86	H	0.617791	0.102388	0.903455
	H87	H	0.380699	0.913122	0.898817
	H88	H	0.901991	0.084343	0.610422
	H89	H	0.091843	0.100600	0.378349
	H90	H	0.096749	0.908521	0.612629
	H91	H	0.903613	0.902115	0.378253
	H92	H	0.084704	0.616754	0.903053
	H93	H	0.086971	0.384427	0.094507
	H94	H	0.906951	0.618901	0.088512
	H95	H	0.905677	0.383384	0.891403
	H96	H	0.410783	0.117531	0.588476
	H97	H	0.594536	0.882543	0.595108
	H98	H	0.591848	0.118489	0.401619
	H99	H	0.403713	0.886685	0.411470
	H100	H	0.586585	0.401056	0.111997
	H101	H	0.587167	0.598009	0.878404
	H102	H	0.397986	0.595959	0.113962
	H103	H	0.399302	0.397217	0.875799
	H104	H	0.112467	0.592067	0.409978
	H105	H	0.882554	0.594381	0.575616
	H106	H	0.118272	0.405907	0.597389
	H107	H	0.883154	0.419398	0.400183
	H108	H	0.905625	0.618510	0.083448
	H109	H	0.084188	0.386780	0.086129
	H110	H	0.089517	0.617901	0.903466
	H111	H	0.906909	0.387313	0.906854
	H112	H	0.090023	0.908337	0.610039
	H113	H	0.093863	0.093184	0.379962
	H114	H	0.918858	0.095929	0.609332
	H115	H	0.896722	0.914465	0.380307
	H116	H	0.611855	0.092087	0.912568
	H117	H	0.382516	0.083902	0.089433
	H118	H	0.611957	0.913441	0.086384
	H119	H	0.378728	0.907080	0.900383
	C120	C	0.379078	0.009811	0.616280
	C121	C	0.621861	0.992918	0.620423
	C122	C	0.619078	0.009177	0.375936
	C123	C	0.376495	0.993140	0.373199
	C124	C	0.617338	0.379934	0.002685
	C125	C	0.617811	0.623487	0.986522
	C126	C	0.373972	0.623529	0.003548
	C127	C	0.373460	0.378102	0.986627
	C128	C	0.006447	0.623632	0.372055
	C129	C	0.988668	0.622315	0.615132
	C130	C	0.005761	0.380439	0.616705
	C131	C	0.989069	0.380731	0.373407
	C132	C	0.875473	0.510500	0.115458
	C133	C	0.117948	0.493420	0.117057
	C134	C	0.115476	0.509399	0.873897
	C135	C	0.873155	0.493150	0.871070
	C136	C	0.120826	0.878779	0.503962
	C137	C	0.120429	0.124221	0.487487
	C138	C	0.876631	0.123746	0.504586
	C139	C	0.876804	0.879959	0.488198
	C140	C	0.506451	0.123442	0.874013
	C141	C	0.489308	0.121340	0.116751
	C142	C	0.506303	0.878532	0.119080
	C143	C	0.489285	0.880812	0.874861
	C144	C	0.380456	0.886773	0.672600
	C145	C	0.621211	0.116269	0.675161
	C146	C	0.618542	0.885667	0.320763
	C147	C	0.377335	0.115888	0.315933
	C148	C	0.670867	0.382791	0.880135
	C149	C	0.675056	0.620065	0.108526
	C150	C	0.318557	0.620886	0.880649
	C151	C	0.319395	0.380171	0.108959
	C152	C	0.882954	0.679618	0.373783
	C153	C	0.113270	0.675987	0.613692
	C154	C	0.882350	0.323703	0.613153
	C155	C	0.113527	0.326602	0.377433
	C156	C	0.881629	0.380851	0.670446
	C157	C	0.111536	0.621232	0.673229
	C158	C	0.883011	0.623780	0.315210
	C159	C	0.112572	0.382735	0.318590
	C160	C	0.375076	0.680112	0.881519
	C161	C	0.617015	0.676866	0.109722
	C162	C	0.613620	0.324401	0.880694
	C163	C	0.376522	0.321895	0.108804
	C164	C	0.673940	0.884990	0.380899
	C165	C	0.677422	0.116620	0.616704
	C166	C	0.323975	0.885958	0.613890
	C167	C	0.321066	0.116691	0.374888
	C168	C	0.875965	0.387685	0.172395
	C169	C	0.117307	0.616758	0.171709
	C170	C	0.113778	0.386111	0.818874
	C171	C	0.874892	0.616676	0.815198
	C172	C	0.174709	0.882109	0.381295
	C173	C	0.176779	0.120442	0.610092
	C174	C	0.818968	0.121820	0.382776
	C175	C	0.824077	0.881775	0.611310
	C176	C	0.381964	0.177388	0.874694
	C177	C	0.612977	0.177857	0.114915
	C178	C	0.381655	0.824824	0.113988
	C179	C	0.613189	0.825548	0.879913
	C180	C	0.382723	0.880017	0.173514
	C181	C	0.613388	0.121134	0.173011
	C182	C	0.383537	0.122327	0.815640
	C183	C	0.613509	0.882384	0.822000
	C184	C	0.877046	0.179011	0.382054
	C185	C	0.119799	0.179348	0.609632
	C186	C	0.117151	0.824606	0.381344
	C187	C	0.881100	0.823242	0.610204
	C188	C	0.169886	0.385197	0.878027
	C189	C	0.173694	0.616987	0.113276
	C190	C	0.821192	0.386205	0.111953
	C191	C	0.818830	0.616923	0.873906
	C192	C	0.401801	0.095835	0.593523
	C193	C	0.599218	0.906581	0.599060
	C194	C	0.596016	0.095026	0.396918
	C195	C	0.399883	0.907257	0.396576
	C196	C	0.596199	0.401839	0.088176
	C197	C	0.594253	0.602369	0.900982
	C198	C	0.396905	0.600737	0.089058
	C199	C	0.394635	0.400684	0.901189
	C200	C	0.092773	0.600424	0.394657
	C201	C	0.902042	0.599996	0.591862
	C202	C	0.091972	0.403660	0.595510
	C203	C	0.902988	0.403615	0.395241
	C204	C	0.898309	0.596644	0.092931
	C205	C	0.094756	0.407366	0.095589
	C206	C	0.093563	0.595473	0.895324
	C207	C	0.895215	0.406504	0.893177
	C208	C	0.099935	0.900150	0.589620
	C209	C	0.097276	0.102882	0.401845
	C210	C	0.900361	0.101548	0.590036
	C211	C	0.897777	0.903079	0.402823
	C212	C	0.592608	0.100806	0.897958
	C213	C	0.403236	0.098087	0.094370
	C214	C	0.592632	0.900966	0.097915
	C215	C	0.402762	0.903664	0.895418
	Zn216	Zn	0.499248	0.002336	0.746723
	Zn217	Zn	0.498533	0.000896	0.245850
	Zn218	Zn	0.746445	0.502014	-0.006000
	Zn219	Zn	0.245268	0.501011	-0.005006
	Zn220	Zn	-0.001197	0.750247	0.494736
	Zn221	Zn	-0.001517	0.252864	0.495026
	Zn222	Zn	-0.004875	0.502027	0.743784
	Zn223	Zn	-0.003343	0.502521	0.244943
	Zn224	Zn	0.496818	0.751959	-0.004058
	Zn225	Zn	0.496203	0.250054	-0.004577
	Zn226	Zn	0.747938	0.001348	0.497649
	Zn227	Zn	0.249295	0.001378	0.495612
	N228	N	0.414096	0.964724	0.674137
	N229	N	0.587459	0.038357	0.677735
	N230	N	0.585166	0.963837	0.317403
	N231	N	0.410911	0.037980	0.314825
	N232	N	0.673381	0.416595	0.956996
	N233	N	0.675795	0.587803	0.030977
	N234	N	0.317442	0.586610	0.957651
	N235	N	0.317258	0.414377	0.032011
	N236	N	0.960692	0.679655	0.408500
	N237	N	0.035790	0.676523	0.578130
	N238	N	0.960428	0.323367	0.580278
	N239	N	0.035766	0.324970	0.410590
	N240	N	0.959335	0.415365	0.672828
	N241	N	0.032889	0.588820	0.674255
	N242	N	0.960868	0.589716	0.314094
	N243	N	0.034164	0.415698	0.316084
	N244	N	0.409160	0.681515	0.958898
	N245	N	0.582024	0.679064	0.032744
	N246	N	0.580999	0.322597	0.957943
	N247	N	0.409224	0.320373	0.031608
	N248	N	0.674468	0.962626	0.414250
	N249	N	0.677758	0.038941	0.583338
	N250	N	0.323120	0.963517	0.579532
	N251	N	0.320446	0.039194	0.409755
	N252	N	0.909130	0.465811	0.174610
	N253	N	0.083432	0.538957	0.173921
	N254	N	0.080484	0.464103	0.816500
	N255	N	0.907600	0.538405	0.813062
	N256	N	0.177335	0.915027	0.458568
	N257	N	0.177336	0.086835	0.533179
	N258	N	0.818782	0.088049	0.460061
	N259	N	0.821362	0.916417	0.534471
	N260	N	0.459138	0.177850	0.910558
	N261	N	0.534895	0.178083	0.080621
	N262	N	0.459486	0.823637	0.080907
	N263	N	0.534990	0.824529	0.912138
	N264	N	0.461229	0.912672	0.176848
	N265	N	0.535613	0.086616	0.174442
	N266	N	0.462132	0.089716	0.814896
	N267	N	0.535351	0.916049	0.818774
	N268	N	0.912316	0.180296	0.458749
	N269	N	0.085514	0.181668	0.532331
	N270	N	0.084294	0.822632	0.458442
	N271	N	0.913422	0.822113	0.532704
	N272	N	0.171397	0.462921	0.911535
	N273	N	0.174348	0.539180	0.079953
	N274	N	0.820811	0.463722	0.077238
	N275	N	0.817800	0.539150	0.908009
	O276	O	0.031528	-0.007027	0.010744
	H277	H	0.025361	-0.005019	-0.000069
	H278	H	0.046566	0.007282	0.029616
	O279	O	0.452396	0.494625	0.451265
	H280	H	0.448507	0.501900	0.452197
	H281	H	0.450320	0.491251	0.460440
	O282	O	0.544101	0.520817	0.517130
	H283	H	0.541411	0.513915	0.512904
	H284	H	0.540464	0.520297	0.519399
	O285	O	-0.045199	0.943579	1.048315
	H286	H	-0.054931	0.941120	1.053028
	H287	H	-0.048240	0.941362	1.051422
	O288	O	0.453187	0.582725	0.464396
	H289	H	0.446779	0.579335	0.467242
	H290	H	0.456694	0.585869	0.462118
	O291	O	0.980615	1.056639	1.024108
	H292	H	0.974765	1.046627	1.026385
	H293	H	0.973965	1.059195	1.015474
	O294	O	0.979338	1.000505	1.025260
	H295	H	0.981663	0.994091	1.019787
	H296	H	0.979001	1.002833	1.028414
	O297	O	0.990227	-0.010982	0.922937
	H298	H	0.991582	-0.001812	0.919329
	H299	H	0.983276	-0.012655	0.917051
	O300	O	0.501532	0.475897	0.459748
	H301	H	0.500464	0.478554	0.458326
	H302	H	0.502617	0.469263	0.450536
	O303	O	1.005993	0.044869	-0.066569
	H304	H	1.001311	0.052543	-0.073039
	H305	H	1.021581	0.040843	-0.065856
	O306	O	-0.021707	1.069494	0.991454
	H307	H	-0.022312	1.058659	1.000650
	H308	H	-0.020928	1.074871	0.991428
	O309	O	0.542839	0.484084	0.563413
	H310	H	0.546769	0.486945	0.564235
	H311	H	0.545002	0.483719	0.552433
	O312	O	0.993082	0.043916	1.100548
	H313	H	0.989036	0.041564	1.108082
	H314	H	0.991760	0.045014	1.092116
	O315	O	0.435329	0.462923	0.604488
	H316	H	0.447913	0.463336	0.603306
	H317	H	0.433573	0.463529	0.608355
	O318	O	0.495935	0.532805	0.378007
	H319	H	0.495427	0.529115	0.375958
	H320	H	0.486391	0.533055	0.372607
	O321	O	1.008865	1.027310	1.062795
	H322	H	1.020217	1.024704	1.063830
	H323	H	1.015912	1.036307	1.058775
	O324	O	0.495964	0.518526	0.397448
	H325	H	0.495064	0.526569	0.405398
	H326	H	0.494452	0.516260	0.393826
	O327	O	0.483840	0.454819	0.556958
	H328	H	0.486001	0.459092	0.558559
	H329	H	0.472964	0.454651	0.568620
	O330	O	1.043724	-0.013580	1.011047
	H331	H	1.038793	-0.016833	1.015289
	H332	H	1.040694	-0.013174	1.010625
	O333	O	1.003294	0.973665	-0.013984
	H334	H	0.994064	0.962504	-0.025899
	H335	H	1.015491	0.973239	-0.023817
	O336	O	0.442479	0.470456	0.443964
	H337	H	0.439654	0.469914	0.450370
	H338	H	0.451322	0.478502	0.434711
	O339	O	0.563502	0.523361	0.512022
	H340	H	0.564913	0.525370	0.514986
	H341	H	0.561147	0.521252	0.519058
	O342	O	-0.035140	1.073254	-0.041903
	H343	H	-0.040638	1.073767	-0.045451
	H344	H	-0.027575	1.072970	-0.032328
	O345	O	0.040132	-0.004833	0.058882
	H346	H	0.039137	0.001940	0.063511
	H347	H	0.042657	0.000206	0.056984
	O348	O	0.595987	0.414284	0.491490
	H349	H	0.601399	0.405998	0.487702
	H350	H	0.597443	0.415024	0.488335
	O351	O	0.528289	0.469020	0.461077
	H352	H	0.531542	0.463436	0.463770
	H353	H	0.526672	0.474187	0.464607
	O354	O	0.504233	0.511955	0.427355
	H355	H	0.507091	0.513055	0.428322
	H356	H	0.506784	0.521175	0.420121
	O357	O	0.460832	0.534295	0.590632
	H358	H	0.455703	0.526562	0.595771
	H359	H	0.453446	0.529751	0.595348
	O360	O	-0.011940	-0.008160	0.068651
	H361	H	-0.003879	-0.016723	0.072325
	H362	H	-0.008198	-0.003161	0.072555
	O363	O	0.440526	0.480774	0.531673
	H364	H	0.440213	0.479177	0.530279
	H365	H	0.450224	0.484886	0.531621
	O366	O	-0.042422	0.031399	0.988206
	H367	H	-0.039523	0.035079	1.003835
	H368	H	-0.047309	0.035062	0.988188
	O369	O	0.504705	0.460890	0.531818
	H370	H	0.501983	0.461915	0.517502
	H371	H	0.506708	0.452652	0.535946
