data_Molecule from HDF5

_cell_length_a		16.563716
_cell_length_b		16.371649
_cell_length_c		16.294148
_cell_angle_alpha	90.034779
_cell_angle_beta	89.980639
_cell_angle_gamma	89.967802
_symmetry_space_group_name_H-M	'P 1'
_symmetry_Int_Tables_number		1

loop_
	_symmetry_equiv_pos_as_xyz
	x,y,z

loop_
	_atom_site_label
	_atom_site_type_symbol
	_atom_site_fract_x
	_atom_site_fract_y
	_atom_site_fract_z
	H0	H	0.398232	0.832863	0.720313
	H1	H	0.603698	0.152904	0.721978
	H2	H	0.604508	0.833015	0.281635
	H3	H	0.397979	0.151359	0.281364
	H4	H	0.722705	0.385717	0.843309
	H5	H	0.721153	0.599926	0.161499
	H6	H	0.277267	0.597960	0.843641
	H7	H	0.277055	0.383731	0.160766
	H8	H	0.843995	0.717644	0.395399
	H9	H	0.156870	0.716819	0.610074
	H10	H	0.841494	0.272664	0.604638
	H11	H	0.156418	0.268465	0.392757
	H12	H	0.841646	0.388594	0.722123
	H13	H	0.157774	0.596741	0.723543
	H14	H	0.843437	0.600182	0.279798
	H15	H	0.158245	0.389953	0.281172
	H16	H	0.395449	0.710767	0.841704
	H17	H	0.599125	0.709051	0.163465
	H18	H	0.602813	0.274004	0.841731
	H19	H	0.396153	0.273362	0.162672
	H20	H	0.723240	0.834604	0.394979
	H21	H	0.721461	0.152143	0.607796
	H22	H	0.275981	0.837921	0.612485
	H23	H	0.277210	0.150645	0.392184
	H24	H	0.894421	0.335271	0.223889
	H25	H	0.104895	0.651910	0.222946
	H26	H	0.103763	0.332732	0.780391
	H27	H	0.896272	0.652821	0.782271
	H28	H	0.225183	0.884927	0.344250
	H29	H	0.224806	0.104252	0.659941
	H30	H	0.777841	0.099493	0.343062
	H31	H	0.778811	0.885181	0.661226
	H32	H	0.342826	0.216855	0.894914
	H33	H	0.656413	0.216848	0.109694
	H34	H	0.342157	0.769369	0.110092
	H35	H	0.657583	0.769538	0.897800
	H36	H	0.344342	0.884965	0.227359
	H37	H	0.658908	0.096653	0.222363
	H38	H	0.342657	0.097894	0.779991
	H39	H	0.658855	0.886614	0.781669
	H40	H	0.894764	0.212333	0.341642
	H41	H	0.103023	0.213351	0.662184
	H42	H	0.105468	0.772809	0.342245
	H43	H	0.897881	0.774828	0.662917
	H44	H	0.222325	0.333753	0.893622
	H45	H	0.224966	0.649149	0.111815
	H46	H	0.777471	0.335763	0.109817
	H47	H	0.777481	0.651225	0.894699
	H48	H	0.413130	0.108630	0.594030
	H49	H	0.587932	0.878496	0.595830
	H50	H	0.589724	0.108896	0.405395
	H51	H	0.407587	0.878878	0.416982
	H52	H	0.588050	0.398280	0.118746
	H53	H	0.588889	0.581817	0.887360
	H54	H	0.405054	0.584038	0.120174
	H55	H	0.412109	0.401893	0.887191
	H56	H	0.112081	0.583044	0.414474
	H57	H	0.889565	0.583007	0.587967
	H58	H	0.112075	0.397110	0.583530
	H59	H	0.885621	0.397885	0.412574
	H60	H	0.108966	0.411396	0.588455
	H61	H	0.887730	0.582086	0.592748
	H62	H	0.112180	0.581394	0.413287
	H63	H	0.890481	0.404889	0.418375
	H64	H	0.408379	0.573342	0.114911
	H65	H	0.591371	0.579354	0.888255
	H66	H	0.596587	0.408474	0.117511
	H67	H	0.407835	0.407219	0.888416
	H68	H	0.584290	0.102279	0.418167
	H69	H	0.590404	0.881054	0.585043
	H70	H	0.417428	0.104444	0.587868
	H71	H	0.414153	0.879220	0.411266
	H72	H	0.908607	0.604727	0.083753
	H73	H	0.091760	0.379054	0.088130
	H74	H	0.078937	0.598510	0.921519
	H75	H	0.908056	0.378679	0.912976
	H76	H	0.091857	0.905553	0.617204
	H77	H	0.091737	0.084446	0.387028
	H78	H	0.907640	0.084602	0.618224
	H79	H	0.911548	0.905915	0.388775
	H80	H	0.610076	0.081874	0.918265
	H81	H	0.390570	0.080924	0.087872
	H82	H	0.610649	0.902129	0.086415
	H83	H	0.387926	0.899600	0.913786
	H84	H	0.612006	0.904380	0.093099
	H85	H	0.389392	0.079196	0.093260
	H86	H	0.613285	0.079440	0.908681
	H87	H	0.389160	0.904718	0.912663
	H88	H	0.909198	0.078120	0.615570
	H89	H	0.092682	0.075143	0.388537
	H90	H	0.089213	0.910049	0.614343
	H91	H	0.910992	0.907930	0.388466
	H92	H	0.100469	0.606599	0.920800
	H93	H	0.087630	0.378903	0.093090
	H94	H	0.905015	0.610175	0.093225
	H95	H	0.911271	0.380015	0.912688
	H96	H	0.409213	0.106929	0.586218
	H97	H	0.597964	0.876490	0.592002
	H98	H	0.598558	0.107705	0.418416
	H99	H	0.415137	0.881855	0.420021
	H100	H	0.584655	0.409572	0.113028
	H101	H	0.588102	0.578647	0.888119
	H102	H	0.416172	0.582685	0.115331
	H103	H	0.414796	0.406889	0.890646
	H104	H	0.112742	0.583275	0.412964
	H105	H	0.887226	0.586428	0.591351
	H106	H	0.114865	0.401592	0.597751
	H107	H	0.887651	0.407218	0.409245
	H108	H	0.915801	0.606498	0.092560
	H109	H	0.086066	0.381296	0.087694
	H110	H	0.087160	0.608941	0.902435
	H111	H	0.909630	0.379621	0.915130
	H112	H	0.086468	0.905084	0.615569
	H113	H	0.084881	0.079584	0.390712
	H114	H	0.913890	0.083325	0.615011
	H115	H	0.912896	0.907047	0.388991
	H116	H	0.614258	0.088990	0.912451
	H117	H	0.387325	0.084207	0.091118
	H118	H	0.612858	0.897747	0.091085
	H119	H	0.386358	0.901084	0.908580
	C120	C	0.380043	0.002440	0.623192
	C121	C	0.622996	0.984367	0.623361
	C122	C	0.622578	0.001290	0.381104
	C123	C	0.379969	0.984383	0.381791
	C124	C	0.621620	0.372515	0.010959
	C125	C	0.620425	0.612693	0.993656
	C126	C	0.377367	0.612802	0.011404
	C127	C	0.379089	0.371978	0.993952
	C128	C	0.008786	0.615797	0.380428
	C129	C	0.992174	0.615304	0.623871
	C130	C	0.007605	0.371041	0.622703
	C131	C	0.991444	0.370922	0.379710
	C132	C	0.878189	0.502257	0.123157
	C133	C	0.121376	0.484064	0.123240
	C134	C	0.121101	0.500045	0.881383
	C135	C	0.878114	0.484386	0.880917
	C136	C	0.122373	0.873006	0.510970
	C137	C	0.121831	0.113734	0.493625
	C138	C	0.878542	0.113808	0.510398
	C139	C	0.879529	0.873229	0.493897
	C140	C	0.508411	0.115438	0.880376
	C141	C	0.492715	0.114013	0.123394
	C142	C	0.508248	0.869247	0.124322
	C143	C	0.492161	0.869914	0.879850
	C144	C	0.378685	0.881857	0.682106
	C145	C	0.623355	0.104637	0.682809
	C146	C	0.623625	0.881146	0.321209
	C147	C	0.378498	0.103835	0.320661
	C148	C	0.681744	0.368969	0.890698
	C149	C	0.680217	0.616558	0.113850
	C150	C	0.316975	0.615955	0.891370
	C151	C	0.318022	0.367168	0.113370
	C152	C	0.890807	0.677129	0.377580
	C153	C	0.110222	0.675627	0.627036
	C154	C	0.889054	0.311688	0.624002
	C155	C	0.109461	0.309852	0.375914
	C156	C	0.889232	0.369486	0.682454
	C157	C	0.110431	0.616425	0.684051
	C158	C	0.890565	0.618428	0.320130
	C159	C	0.110634	0.370178	0.320093
	C160	C	0.376162	0.671864	0.890292
	C161	C	0.619826	0.671104	0.114974
	C162	C	0.622264	0.312988	0.890146
	C163	C	0.377149	0.311967	0.114206
	C164	C	0.682516	0.881854	0.377848
	C165	C	0.681685	0.104395	0.625819
	C166	C	0.317771	0.884222	0.628328
	C167	C	0.318574	0.103410	0.376146
	C168	C	0.876208	0.382992	0.183938
	C169	C	0.123705	0.603637	0.183905
	C170	C	0.122523	0.380396	0.820411
	C171	C	0.877416	0.604632	0.821329
	C172	C	0.184213	0.868137	0.391694
	C173	C	0.183129	0.119728	0.612887
	C174	C	0.818262	0.116893	0.390630
	C175	C	0.819198	0.868903	0.613535
	C176	C	0.390189	0.176204	0.877038
	C177	C	0.610054	0.175687	0.126891
	C178	C	0.390004	0.809065	0.128010
	C179	C	0.610503	0.809937	0.878998
	C180	C	0.390734	0.866933	0.186333
	C181	C	0.611171	0.115661	0.183150
	C182	C	0.389995	0.116923	0.819817
	C183	C	0.611102	0.868291	0.821159
	C184	C	0.876631	0.173096	0.389957
	C185	C	0.122755	0.174604	0.613680
	C186	C	0.124526	0.812424	0.390641
	C187	C	0.878399	0.813453	0.614255
	C188	C	0.181533	0.380986	0.876863
	C189	C	0.183459	0.602365	0.128335
	C190	C	0.817895	0.383210	0.126980
	C191	C	0.818013	0.603855	0.877367
	C192	C	0.405981	0.085170	0.596959
	C193	C	0.599003	0.900537	0.598378
	C194	C	0.597830	0.084604	0.406629
	C195	C	0.405129	0.901629	0.408525
	C196	C	0.596993	0.398153	0.094563
	C197	C	0.596500	0.587375	0.909718
	C198	C	0.402407	0.587665	0.094927
	C199	C	0.404258	0.398083	0.910389
	C200	C	0.090876	0.589933	0.406174
	C201	C	0.909622	0.590854	0.598216
	C202	C	0.090334	0.396251	0.597335
	C203	C	0.909318	0.396183	0.405604
	C204	C	0.902972	0.585546	0.097332
	C205	C	0.095814	0.401325	0.097130
	C206	C	0.096045	0.583059	0.907467
	C207	C	0.902707	0.401073	0.906191
	C208	C	0.096664	0.899330	0.594052
	C209	C	0.097141	0.087163	0.410316
	C210	C	0.903110	0.088951	0.594394
	C211	C	0.904635	0.899323	0.410566
	C212	C	0.590950	0.090368	0.905803
	C213	C	0.410517	0.088628	0.097934
	C214	C	0.590416	0.894277	0.097829
	C215	C	0.409269	0.894805	0.904549
	Zn216	Zn	0.501008	-0.007211	0.751283
	Zn217	Zn	0.500796	-0.007901	0.253001
	Zn218	Zn	0.749697	0.493603	0.002011
	Zn219	Zn	0.250314	0.491033	0.002666
	Zn220	Zn	0.000940	0.744961	0.502246
	Zn221	Zn	-0.000241	0.241075	0.501217
	Zn222	Zn	-0.000083	0.492329	0.752779
	Zn223	Zn	-0.000155	0.493356	0.251444
	Zn224	Zn	0.499150	0.740083	0.001949
	Zn225	Zn	0.499818	0.244485	0.002729
	Zn226	Zn	0.751138	-0.006887	0.502241
	Zn227	Zn	0.251184	-0.006215	0.502259
	N228	N	0.416717	0.956390	0.679098
	N229	N	0.587729	0.028939	0.681531
	N230	N	0.587192	0.956432	0.323179
	N231	N	0.415827	0.029057	0.324066
	N232	N	0.681744	0.404812	0.966984
	N233	N	0.680827	0.581091	0.037281
	N234	N	0.317605	0.580229	0.967605
	N235	N	0.319077	0.403623	0.037523
	N236	N	0.965347	0.675636	0.414389
	N237	N	0.035529	0.675027	0.590355
	N238	N	0.963908	0.312659	0.587383
	N239	N	0.034382	0.309829	0.411971
	N240	N	0.964054	0.405621	0.681621
	N241	N	0.036032	0.579449	0.682090
	N242	N	0.964745	0.581029	0.321961
	N243	N	0.036162	0.407127	0.322230
	N244	N	0.413011	0.670184	0.965966
	N245	N	0.583171	0.668593	0.039377
	N246	N	0.585626	0.315074	0.965785
	N247	N	0.414505	0.314782	0.038883
	N248	N	0.681858	0.957478	0.414589
	N249	N	0.681772	0.028405	0.589937
	N250	N	0.318412	0.960240	0.592388
	N251	N	0.319181	0.027949	0.413371
	N252	N	0.913024	0.458097	0.181648
	N253	N	0.085735	0.529075	0.180900
	N254	N	0.085621	0.455566	0.822969
	N255	N	0.914001	0.529311	0.823337
	N256	N	0.183024	0.904974	0.467596
	N257	N	0.182737	0.082738	0.537155
	N258	N	0.819167	0.080841	0.466791
	N259	N	0.819678	0.905221	0.537505
	N260	N	0.464739	0.175147	0.914057
	N261	N	0.535452	0.174596	0.090379
	N262	N	0.463898	0.810570	0.089871
	N263	N	0.535288	0.810387	0.914471
	N264	N	0.465256	0.903782	0.183982
	N265	N	0.537205	0.077844	0.181082
	N266	N	0.464552	0.079780	0.821710
	N267	N	0.536354	0.904708	0.821398
	N268	N	0.913493	0.171228	0.465422
	N269	N	0.085335	0.170972	0.538486
	N270	N	0.086884	0.815153	0.465734
	N271	N	0.915468	0.816034	0.538860
	N272	N	0.180846	0.456277	0.914003
	N273	N	0.182173	0.526954	0.091333
	N274	N	0.818910	0.458580	0.090012
	N275	N	0.818133	0.527985	0.913379
	O276	O	0.477217	0.514941	0.344965
	H277	H	0.477586	0.505953	0.352753
	H278	H	0.480447	0.517194	0.342646
	O279	O	0.588965	0.528992	0.330746
	H280	H	0.597077	0.510300	0.316662
	H281	H	0.602163	0.539452	0.330606
	O282	O	0.655225	0.677787	0.681819
	H283	H	0.661009	0.657704	0.672269
	H284	H	0.635721	0.670204	0.686490
	O285	O	1.170942	1.142077	0.010264
	H286	H	1.175221	1.149652	-0.007316
	H287	H	1.176944	1.124745	-0.004542
	O288	O	0.489489	0.652315	0.552505
	H289	H	0.474991	0.648552	0.562608
	H290	H	0.484706	0.665873	0.557769
	O291	O	0.382818	0.398690	0.454340
	H292	H	0.386792	0.398275	0.446644
	H293	H	0.373425	0.399638	0.458496
	O294	O	1.013443	0.933215	1.057143
	H295	H	1.009810	0.920570	1.053124
	H296	H	1.017358	0.925343	1.063663
	O297	O	0.695865	0.399473	0.349580
	H298	H	0.698971	0.392868	0.332499
	H299	H	0.703627	0.391885	0.361026
	O300	O	0.639613	0.302150	0.565618
	H301	H	0.636248	0.294896	0.549270
	H302	H	0.635923	0.318324	0.577440
	O303	O	0.281757	0.275229	0.525585
	H304	H	0.260092	0.255617	0.546354
	H305	H	0.277847	0.274632	0.558766
	O306	O	0.024050	0.210434	1.218632
	H307	H	0.059944	0.212675	1.221581
	H308	H	0.044314	0.228230	1.239757
	O309	O	1.178099	0.155065	0.161250
	H310	H	1.183518	0.109041	0.155890
	H311	H	1.189390	0.165097	0.124033
	O312	O	0.372032	0.696923	0.399725
	H313	H	0.381383	0.704673	0.366805
	H314	H	0.371836	0.707976	0.410524
	O315	O	0.443862	0.448496	0.309020
	H316	H	0.427574	0.435520	0.307402
	H317	H	0.440942	0.439956	0.298005
	O318	O	0.210748	0.040266	0.202296
	H319	H	0.223981	0.040583	0.209680
	H320	H	0.214454	0.033154	0.202281
	O321	O	0.706806	0.541720	0.447708
	H322	H	0.712691	0.564654	0.447179
	H323	H	0.686383	0.545312	0.443527
	O324	O	0.732557	0.282586	0.745361
	H325	H	0.728788	0.262643	0.734087
	H326	H	0.770680	0.296962	0.744135
	O327	O	0.316140	0.329387	0.677285
	H328	H	0.308514	0.377094	0.689208
	H329	H	0.358909	0.325005	0.687573
	O330	O	-0.062117	1.094766	0.830241
	H331	H	-0.065712	1.101797	0.823267
	H332	H	-0.046305	1.095927	0.844552
	O333	O	-0.065483	1.180162	-0.009045
	H334	H	-0.071622	1.190207	-0.003102
	H335	H	-0.052690	1.176573	0.007326
	O336	O	0.878090	0.978749	-0.077002
	H337	H	0.886749	0.994474	-0.086403
	H338	H	0.857720	0.997677	-0.093930
	O339	O	0.003293	0.912790	1.025240
	H340	H	-0.003091	0.911663	1.031530
	H341	H	0.003194	0.905444	1.019883
	O342	O	0.098373	0.798350	-0.048116
	H343	H	0.079749	0.804598	-0.047333
	H344	H	0.089852	0.799288	-0.042225
	O345	O	0.072233	0.104231	0.850003
	H346	H	0.079854	0.099104	0.852474
	H347	H	0.074611	0.106437	0.858171
	O348	O	0.359456	0.477028	0.567181
	H349	H	0.373410	0.493154	0.572452
	H350	H	0.347433	0.493145	0.565393
	O351	O	0.815677	0.968683	0.186549
	H352	H	0.813580	0.977653	0.186076
	H353	H	0.844487	0.973588	0.182747
	O354	O	0.980795	0.853133	0.942199
	H355	H	0.989466	0.865785	0.940024
	H356	H	0.966715	0.841551	0.953122
	O357	O	0.159974	-0.201252	-0.112871
	H358	H	0.159217	-0.209090	-0.107552
	H359	H	0.146982	-0.216916	-0.123452
	O360	O	0.525023	0.364877	0.676035
	H361	H	0.534885	0.358238	0.686583
	H362	H	0.536259	0.375141	0.667416
	O363	O	0.827821	-0.152913	0.101902
	H364	H	0.837186	-0.140438	0.118581
	H365	H	0.822162	-0.153450	0.101021
	O366	O	-0.186149	0.105462	0.969275
	H367	H	-0.156284	0.121944	0.970044
	H368	H	-0.192913	0.122200	0.982826
	O369	O	0.987996	-0.067027	0.888409
	H370	H	0.994360	-0.083926	0.877671
	H371	H	0.967774	-0.065827	0.882016
	O372	O	0.553631	0.376629	0.598472
	H373	H	0.541933	0.379680	0.586950
	H374	H	0.558139	0.381032	0.604364
	O375	O	0.215813	-0.062357	0.790578
	H376	H	0.229347	-0.084838	0.778572
	H377	H	0.208216	-0.073411	0.776434
	O378	O	0.636459	0.655053	0.453460
	H379	H	0.631850	0.666662	0.467495
	H380	H	0.640968	0.638007	0.450411
	O381	O	0.198909	1.022933	-0.073879
	H382	H	0.195212	1.003231	-0.079022
	H383	H	0.191816	1.014298	-0.087940
	O384	O	0.467099	0.443728	0.687506
	H385	H	0.469434	0.441835	0.680467
	H386	H	0.474097	0.456300	0.690494
	O387	O	0.557817	0.316619	0.326673
	H388	H	0.553138	0.319488	0.327417
	H389	H	0.554561	0.301529	0.327274
	O390	O	0.981462	0.987431	0.204587
	H391	H	0.984126	1.000273	0.209320
	H392	H	0.973439	1.002793	0.200435
	O393	O	0.857918	0.194150	0.919958
	H394	H	0.872025	0.181807	0.888914
	H395	H	0.853332	0.217451	0.925221
	O396	O	0.571863	0.523701	0.411132
	H397	H	0.571022	0.517941	0.416615
	H398	H	0.577179	0.515781	0.411987
	O399	O	0.685071	0.478639	0.453746
	H400	H	0.677079	0.461571	0.439099
	H401	H	0.689624	0.483561	0.443397
	O402	O	0.937699	0.892161	0.163705
	H403	H	0.926832	0.901028	0.168961
	H404	H	0.952966	0.908191	0.154994
	O405	O	0.373241	0.480376	0.588351
	H406	H	0.376962	0.478615	0.578765
	H407	H	0.390605	0.480822	0.599512
	O408	O	0.487588	0.628163	0.641512
	H409	H	0.483539	0.635236	0.610496
	H410	H	0.488518	0.636774	0.649710
	O411	O	0.784033	1.019319	0.791019
	H412	H	0.779502	1.024636	0.803422
	H413	H	0.760771	1.032867	0.767739
	O414	O	0.442401	0.346259	0.470043
	H415	H	0.442272	0.343687	0.473166
	H416	H	0.445878	0.343299	0.467600
	O417	O	0.137899	0.958714	1.107337
	H418	H	0.136163	0.952652	1.092766
	H419	H	0.122765	0.964780	1.092862
	O420	O	-0.031818	1.192692	1.010807
	H421	H	-0.014793	1.193554	1.027144
	H422	H	-0.039600	1.191962	1.012893
	O423	O	-0.144022	0.874660	0.003662
	H424	H	-0.134457	0.878626	0.026338
	H425	H	-0.145987	0.864444	0.011931
	O426	O	0.302488	0.594216	0.446544
	H427	H	0.299526	0.602921	0.451487
	H428	H	0.308979	0.579333	0.434332
	O429	O	0.705125	0.540912	0.700582
	H430	H	0.704830	0.535995	0.697364
	H431	H	0.720472	0.540750	0.705456
	O432	O	0.460180	0.681407	0.642130
	H433	H	0.477816	0.674426	0.624250
	H434	H	0.453014	0.703953	0.644245
	O435	O	-0.021516	-0.179190	0.065697
	H436	H	-0.016216	-0.155905	0.068854
	H437	H	-0.029975	-0.191589	0.091328
	O438	O	0.069702	0.804267	0.994611
	H439	H	0.075107	0.795733	1.007456
	H440	H	0.052197	0.804549	1.003105
	O441	O	0.324317	0.630951	0.336582
	H442	H	0.366731	0.645700	0.331965
	H443	H	0.311971	0.594987	0.325077
