data_Molecule from HDF5

_cell_length_a		16.314083
_cell_length_b		16.280252
_cell_length_c		16.343126
_cell_angle_alpha	90.156864
_cell_angle_beta	89.971416
_cell_angle_gamma	90.013402
_symmetry_space_group_name_H-M	'P 1'
_symmetry_Int_Tables_number		1

loop_
	_symmetry_equiv_pos_as_xyz
	x,y,z

loop_
	_atom_site_label
	_atom_site_type_symbol
	_atom_site_fract_x
	_atom_site_fract_y
	_atom_site_fract_z
	H0	H	0.402959	0.841042	0.708369
	H1	H	0.599843	0.168921	0.710063
	H2	H	0.600535	0.841309	0.281164
	H3	H	0.403275	0.169192	0.282140
	H4	H	0.715622	0.407010	0.830906
	H5	H	0.716444	0.602566	0.157576
	H6	H	0.287368	0.602039	0.831735
	H7	H	0.286056	0.406344	0.157562
	H8	H	0.837384	0.717618	0.398245
	H9	H	0.165058	0.719274	0.592156
	H10	H	0.837282	0.291667	0.591782
	H11	H	0.165436	0.290690	0.397736
	H12	H	0.837649	0.408698	0.707807
	H13	H	0.165534	0.602376	0.708086
	H14	H	0.837887	0.601857	0.281045
	H15	H	0.166161	0.406438	0.280469
	H16	H	0.403123	0.719711	0.831993
	H17	H	0.599670	0.718735	0.158466
	H18	H	0.599533	0.289643	0.831744
	H19	H	0.405624	0.292809	0.159761
	H20	H	0.715929	0.841722	0.397265
	H21	H	0.715650	0.168211	0.594502
	H22	H	0.287997	0.840901	0.592056
	H23	H	0.287474	0.169028	0.399169
	H24	H	0.903373	0.341589	0.209132
	H25	H	0.099587	0.669192	0.208996
	H26	H	0.100486	0.341114	0.779365
	H27	H	0.903034	0.669140	0.780992
	H28	H	0.216498	0.905908	0.331989
	H29	H	0.214505	0.102910	0.659129
	H30	H	0.784985	0.103588	0.331809
	H31	H	0.786694	0.907030	0.658270
	H32	H	0.337697	0.218014	0.899064
	H33	H	0.666281	0.219110	0.093380
	H34	H	0.338444	0.791695	0.093151
	H35	H	0.665693	0.790527	0.897666
	H36	H	0.338659	0.907242	0.209981
	H37	H	0.666195	0.103442	0.210769
	H38	H	0.337964	0.104142	0.781198
	H39	H	0.664867	0.904782	0.778702
	H40	H	0.902739	0.218947	0.331536
	H41	H	0.098793	0.220115	0.658274
	H42	H	0.098715	0.790832	0.331352
	H43	H	0.903870	0.792169	0.658903
	H44	H	0.215392	0.340573	0.897028
	H45	H	0.216319	0.668769	0.093596
	H46	H	0.788159	0.340512	0.091917
	H47	H	0.787960	0.668565	0.898601
	H48	H	0.413074	0.121403	0.592383
	H49	H	0.595311	0.886160	0.595240
	H50	H	0.591479	0.124263	0.390129
	H51	H	0.398888	0.887899	0.408319
	H52	H	0.594551	0.400812	0.113515
	H53	H	0.594461	0.599633	0.878475
	H54	H	0.414818	0.597255	0.108446
	H55	H	0.407193	0.396624	0.875243
	H56	H	0.115410	0.596646	0.407239
	H57	H	0.884658	0.601353	0.586776
	H58	H	0.116200	0.407921	0.579151
	H59	H	0.884889	0.409866	0.399758
	H60	H	0.115386	0.421091	0.589077
	H61	H	0.886073	0.596506	0.588140
	H62	H	0.117586	0.593541	0.396410
	H63	H	0.886519	0.411602	0.402592
	H64	H	0.405456	0.606728	0.113812
	H65	H	0.596990	0.597017	0.878479
	H66	H	0.606186	0.416593	0.111807
	H67	H	0.396503	0.418611	0.878203
	H68	H	0.584373	0.116583	0.410060
	H69	H	0.588102	0.890387	0.585878
	H70	H	0.406230	0.120452	0.583483
	H71	H	0.407428	0.884845	0.390604
	H72	H	0.900392	0.624953	0.094017
	H73	H	0.087216	0.391407	0.086468
	H74	H	0.102835	0.622730	0.902717
	H75	H	0.914769	0.391147	0.902143
	H76	H	0.084061	0.918587	0.605731
	H77	H	0.092021	0.100339	0.379644
	H78	H	0.907385	0.095818	0.610365
	H79	H	0.907975	0.901781	0.376523
	H80	H	0.614920	0.093902	0.908470
	H81	H	0.386086	0.099111	0.090232
	H82	H	0.617214	0.915386	0.086951
	H83	H	0.382147	0.907124	0.896775
	H84	H	0.619908	0.911993	0.093399
	H85	H	0.386011	0.098582	0.089898
	H86	H	0.618074	0.092651	0.896367
	H87	H	0.388447	0.909202	0.909935
	H88	H	0.910853	0.099968	0.610075
	H89	H	0.098773	0.098933	0.377722
	H90	H	0.093333	0.898541	0.614454
	H91	H	0.898773	0.915613	0.377906
	H92	H	0.092109	0.622658	0.894092
	H93	H	0.099884	0.388407	0.082220
	H94	H	0.917789	0.620198	0.092948
	H95	H	0.904375	0.388230	0.904970
	H96	H	0.402849	0.124368	0.593761
	H97	H	0.600095	0.888459	0.583776
	H98	H	0.606020	0.124034	0.407507
	H99	H	0.418472	0.892949	0.406021
	H100	H	0.587459	0.418203	0.106741
	H101	H	0.593184	0.596570	0.880183
	H102	H	0.401558	0.593005	0.111674
	H103	H	0.420230	0.415506	0.884262
	H104	H	0.119937	0.604168	0.399861
	H105	H	0.883855	0.599404	0.591503
	H106	H	0.121396	0.407142	0.594570
	H107	H	0.886230	0.413462	0.399146
	H108	H	0.907477	0.618074	0.078525
	H109	H	0.096790	0.386200	0.094684
	H110	H	0.090539	0.618522	0.907412
	H111	H	0.907896	0.386352	0.894137
	H112	H	0.106377	0.918040	0.612391
	H113	H	0.094363	0.093783	0.380862
	H114	H	0.905414	0.100429	0.610741
	H115	H	0.914979	0.915793	0.382637
	H116	H	0.619079	0.104005	0.901899
	H117	H	0.386240	0.099195	0.090154
	H118	H	0.618854	0.907974	0.086811
	H119	H	0.388507	0.920302	0.900489
	C120	C	0.379541	0.013284	0.617147
	C121	C	0.622645	0.996709	0.616747
	C122	C	0.622499	0.013213	0.374436
	C123	C	0.379904	0.996946	0.374063
	C124	C	0.624038	0.383213	0.003000
	C125	C	0.623463	0.626369	0.986593
	C126	C	0.379334	0.626854	0.003398
	C127	C	0.380122	0.383117	0.987192
	C128	C	0.009483	0.626030	0.373397
	C129	C	0.993157	0.626873	0.616615
	C130	C	0.009583	0.383974	0.615493
	C131	C	0.994019	0.382983	0.372547
	C132	C	0.880545	0.513162	0.116150
	C133	C	0.123270	0.497104	0.116266
	C134	C	0.123231	0.512745	0.873000
	C135	C	0.880087	0.496722	0.872742
	C136	C	0.123030	0.883271	0.502849
	C137	C	0.123173	0.126603	0.487189
	C138	C	0.879121	0.126694	0.502780
	C139	C	0.879208	0.883170	0.486889
	C140	C	0.509481	0.125617	0.874336
	C141	C	0.494314	0.127012	0.118155
	C142	C	0.510597	0.883837	0.116975
	C143	C	0.494015	0.883309	0.873548
	C144	C	0.382330	0.890054	0.671223
	C145	C	0.619910	0.119913	0.671929
	C146	C	0.620356	0.890120	0.319408
	C147	C	0.382662	0.120211	0.319897
	C148	C	0.678439	0.385893	0.879812
	C149	C	0.678753	0.623832	0.109129
	C150	C	0.325364	0.622659	0.880351
	C151	C	0.324911	0.386240	0.109636
	C152	C	0.886315	0.680303	0.377020
	C153	C	0.116387	0.681243	0.612985
	C154	C	0.886299	0.329443	0.612311
	C155	C	0.116809	0.328231	0.376116
	C156	C	0.886479	0.387183	0.670066
	C157	C	0.116523	0.623591	0.670837
	C158	C	0.886547	0.622780	0.318808
	C159	C	0.117116	0.385824	0.318162
	C160	C	0.382621	0.681351	0.880634
	C161	C	0.620431	0.681104	0.109594
	C162	C	0.620619	0.328081	0.880026
	C163	C	0.383627	0.329223	0.110437
	C164	C	0.677570	0.890187	0.376974
	C165	C	0.677502	0.119743	0.614612
	C166	C	0.325303	0.889804	0.613273
	C167	C	0.325422	0.120372	0.378231
	C168	C	0.883117	0.389856	0.170676
	C169	C	0.120511	0.620296	0.171374
	C170	C	0.120839	0.389909	0.817616
	C171	C	0.882967	0.620154	0.818896
	C172	C	0.178426	0.885522	0.380642
	C173	C	0.177272	0.123965	0.610225
	C174	C	0.823523	0.123795	0.380192
	C175	C	0.824896	0.886722	0.609921
	C176	C	0.386507	0.180295	0.877940
	C177	C	0.617393	0.181688	0.114732
	C178	C	0.387159	0.829494	0.113875
	C179	C	0.617000	0.828069	0.876504
	C180	C	0.387335	0.886838	0.171900
	C181	C	0.617234	0.124307	0.173148
	C182	C	0.386624	0.123518	0.819275
	C183	C	0.616624	0.884966	0.817623
	C184	C	0.881731	0.181149	0.380014
	C185	C	0.119316	0.181783	0.609846
	C186	C	0.120024	0.828250	0.380293
	C187	C	0.882844	0.829217	0.609919
	C188	C	0.177634	0.389553	0.876276
	C189	C	0.178023	0.620240	0.113672
	C190	C	0.825825	0.389469	0.112705
	C191	C	0.825435	0.619900	0.876721
	C192	C	0.401029	0.099795	0.596070
	C193	C	0.600896	0.910560	0.594704
	C194	C	0.600326	0.099493	0.396241
	C195	C	0.401742	0.910745	0.395497
	C196	C	0.602443	0.405286	0.088466
	C197	C	0.601317	0.604209	0.901016
	C198	C	0.400833	0.605426	0.089369
	C199	C	0.401699	0.403900	0.901347
	C200	C	0.095519	0.604556	0.394920
	C201	C	0.907242	0.605334	0.595125
	C202	C	0.095542	0.405466	0.593756
	C203	C	0.908199	0.405208	0.394328
	C204	C	0.902301	0.598917	0.094738
	C205	C	0.101159	0.411015	0.094263
	C206	C	0.101586	0.599134	0.894838
	C207	C	0.902429	0.410700	0.894262
	C208	C	0.100894	0.905256	0.588831
	C209	C	0.101509	0.104161	0.401535
	C210	C	0.901268	0.105015	0.587968
	C211	C	0.900668	0.904824	0.401130
	C212	C	0.595357	0.103421	0.895897
	C213	C	0.408423	0.105155	0.096417
	C214	C	0.596388	0.905435	0.095447
	C215	C	0.408511	0.905722	0.895852
	Zn216	Zn	0.501289	0.004911	0.744786
	Zn217	Zn	0.502242	0.005330	0.246270
	Zn218	Zn	0.752348	0.504640	-0.005292
	Zn219	Zn	0.251138	0.504760	-0.005123
	Zn220	Zn	0.001232	0.754929	0.495150
	Zn221	Zn	0.001143	0.255092	0.494362
	Zn222	Zn	0.001602	0.505447	0.744720
	Zn223	Zn	0.001975	0.504743	0.244224
	Zn224	Zn	0.501976	0.754841	-0.004737
	Zn225	Zn	0.501976	0.254752	-0.004492
	Zn226	Zn	0.750821	0.005234	0.495136
	Zn227	Zn	0.251556	0.004977	0.495720
	N228	N	0.415567	0.967774	0.673278
	N229	N	0.586535	0.042309	0.673504
	N230	N	0.586905	0.967617	0.317932
	N231	N	0.415853	0.042549	0.317355
	N232	N	0.680614	0.419429	0.957085
	N233	N	0.680671	0.590413	0.031731
	N234	N	0.323205	0.589670	0.957947
	N235	N	0.322582	0.418889	0.032105
	N236	N	0.963851	0.682494	0.410108
	N237	N	0.038794	0.683565	0.580094
	N238	N	0.963831	0.327412	0.579048
	N239	N	0.039342	0.326443	0.409034
	N240	N	0.964101	0.420214	0.672422
	N241	N	0.038933	0.590496	0.672982
	N242	N	0.964002	0.589560	0.316696
	N243	N	0.039491	0.419200	0.315740
	N244	N	0.415455	0.683809	0.958117
	N245	N	0.586614	0.682559	0.032521
	N246	N	0.587597	0.326098	0.957479
	N247	N	0.417290	0.327303	0.033270
	N248	N	0.678731	0.967779	0.410815
	N249	N	0.679118	0.042217	0.580785
	N250	N	0.323317	0.967581	0.580469
	N251	N	0.323432	0.042510	0.410872
	N252	N	0.916187	0.467440	0.173202
	N253	N	0.086841	0.542772	0.172741
	N254	N	0.087806	0.467677	0.815483
	N255	N	0.916025	0.542373	0.816223
	N256	N	0.180130	0.919071	0.458126
	N257	N	0.179478	0.090234	0.533065
	N258	N	0.821893	0.090644	0.457554
	N259	N	0.822399	0.919532	0.532455
	N260	N	0.463761	0.181626	0.911520
	N261	N	0.539958	0.183547	0.081244
	N262	N	0.464534	0.827495	0.080291
	N263	N	0.539854	0.826947	0.910542
	N264	N	0.464968	0.919992	0.174037
	N265	N	0.539682	0.091068	0.175122
	N266	N	0.464231	0.090201	0.817044
	N267	N	0.539279	0.918655	0.815823
	N268	N	0.915908	0.182786	0.456889
	N269	N	0.086438	0.183564	0.532184
	N270	N	0.086267	0.826925	0.457371
	N271	N	0.916152	0.827112	0.532519
	N272	N	0.179128	0.467182	0.910011
	N273	N	0.179944	0.542552	0.080215
	N274	N	0.824253	0.466963	0.079262
	N275	N	0.823770	0.542271	0.909668
	O276	O	1.078096	0.016688	0.948309
	H277	H	1.081760	0.019350	0.951369
	H278	H	1.081516	0.008983	0.942782
	O279	O	0.068915	0.061737	0.988228
	H280	H	0.068801	0.058837	0.988926
	H281	H	0.070963	0.052838	0.978291
	O282	O	1.069937	1.037601	-0.033668
	H283	H	1.068671	1.045144	-0.027438
	H284	H	1.071084	1.042726	-0.035031
	O285	O	0.053695	0.083955	0.989468
	H286	H	0.061531	0.083269	0.982265
	H287	H	0.049344	0.090225	0.995206
