data_Molecule from HDF5

_cell_length_a		16.549192
_cell_length_b		16.539901
_cell_length_c		16.565120
_cell_angle_alpha	89.910881
_cell_angle_beta	90.015326
_cell_angle_gamma	89.962963
_symmetry_space_group_name_H-M	'P 1'
_symmetry_Int_Tables_number		1

loop_
	_symmetry_equiv_pos_as_xyz
	x,y,z

loop_
	_atom_site_label
	_atom_site_type_symbol
	_atom_site_fract_x
	_atom_site_fract_y
	_atom_site_fract_z
	H0	H	0.406772	0.846104	0.714588
	H1	H	0.612449	0.162629	0.713264
	H2	H	0.615812	0.848340	0.272470
	H3	H	0.408239	0.161835	0.276638
	H4	H	0.731160	0.399077	0.836371
	H5	H	0.731234	0.607874	0.150619
	H6	H	0.288597	0.610739	0.836585
	H7	H	0.293581	0.405539	0.152227
	H8	H	0.853758	0.725777	0.388848
	H9	H	0.167400	0.723866	0.597479
	H10	H	0.852270	0.284566	0.596102
	H11	H	0.168163	0.285213	0.391089
	H12	H	0.851673	0.400805	0.713035
	H13	H	0.168136	0.606095	0.713319
	H14	H	0.853672	0.608611	0.273789
	H15	H	0.166662	0.399929	0.272603
	H16	H	0.405195	0.726921	0.837243
	H17	H	0.615958	0.725002	0.150317
	H18	H	0.610635	0.286547	0.835107
	H19	H	0.409923	0.287893	0.152447
	H20	H	0.733083	0.848997	0.388168
	H21	H	0.730804	0.162021	0.598921
	H22	H	0.290197	0.845767	0.598738
	H23	H	0.293695	0.162174	0.394691
	H24	H	0.905582	0.348000	0.215785
	H25	H	0.117052	0.659638	0.217924
	H26	H	0.113054	0.345757	0.776169
	H27	H	0.904930	0.660963	0.772850
	H28	H	0.229707	0.899651	0.336855
	H29	H	0.230319	0.106342	0.652061
	H30	H	0.790925	0.106417	0.336983
	H31	H	0.785550	0.896341	0.649516
	H32	H	0.350623	0.223313	0.890373
	H33	H	0.668050	0.221271	0.095012
	H34	H	0.353788	0.782033	0.099320
	H35	H	0.667179	0.780413	0.886454
	H36	H	0.352638	0.898834	0.213984
	H37	H	0.667667	0.105349	0.212353
	H38	H	0.351112	0.106980	0.773974
	H39	H	0.666375	0.897672	0.770370
	H40	H	0.907933	0.222643	0.336490
	H41	H	0.112843	0.223275	0.652157
	H42	H	0.115350	0.781829	0.338678
	H43	H	0.901626	0.779428	0.648772
	H44	H	0.230850	0.347247	0.890681
	H45	H	0.232940	0.660543	0.101938
	H46	H	0.791367	0.346190	0.097217
	H47	H	0.789657	0.661410	0.889977
	H48	H	0.415357	0.118981	0.587260
	H49	H	0.592004	0.892893	0.587256
	H50	H	0.600064	0.115637	0.408382
	H51	H	0.419017	0.890610	0.405358
	H52	H	0.606051	0.415962	0.107333
	H53	H	0.599638	0.596772	0.880069
	H54	H	0.422455	0.591595	0.104631
	H55	H	0.422815	0.406227	0.879567
	H56	H	0.118811	0.591942	0.413557
	H57	H	0.894793	0.596011	0.589959
	H58	H	0.125340	0.410344	0.590077
	H59	H	0.899330	0.416771	0.407388
	H60	H	0.123244	0.410001	0.580748
	H61	H	0.899148	0.597239	0.575608
	H62	H	0.121418	0.585337	0.401871
	H63	H	0.895642	0.415078	0.399452
	H64	H	0.421339	0.595006	0.105900
	H65	H	0.602356	0.587893	0.882440
	H66	H	0.596896	0.412909	0.105611
	H67	H	0.411018	0.416592	0.878547
	H68	H	0.601727	0.118158	0.401534
	H69	H	0.597652	0.895530	0.574629
	H70	H	0.424757	0.114645	0.586107
	H71	H	0.416814	0.888998	0.402648
	H72	H	0.915715	0.618903	0.084991
	H73	H	0.098767	0.393277	0.080264
	H74	H	0.099759	0.617817	0.900252
	H75	H	0.919380	0.391593	0.905699
	H76	H	0.101043	0.915447	0.606600
	H77	H	0.102212	0.099063	0.379649
	H78	H	0.918335	0.089680	0.606383
	H79	H	0.919429	0.918752	0.382951
	H80	H	0.621137	0.093945	0.904282
	H81	H	0.397292	0.094177	0.084509
	H82	H	0.624640	0.909125	0.083049
	H83	H	0.400850	0.914953	0.910501
	H84	H	0.618515	0.917980	0.077155
	H85	H	0.394162	0.095325	0.090192
	H86	H	0.621846	0.094087	0.903067
	H87	H	0.400483	0.919740	0.906394
	H88	H	0.924709	0.094396	0.605776
	H89	H	0.105197	0.092239	0.382259
	H90	H	0.096960	0.915121	0.605263
	H91	H	0.924746	0.916129	0.384921
	H92	H	0.096426	0.616339	0.903667
	H93	H	0.100103	0.392315	0.082889
	H94	H	0.924696	0.616697	0.086519
	H95	H	0.919588	0.390473	0.902506
	H96	H	0.418073	0.114265	0.578642
	H97	H	0.604980	0.890399	0.585218
	H98	H	0.594520	0.116624	0.403083
	H99	H	0.420588	0.888645	0.402221
	H100	H	0.603592	0.406349	0.108032
	H101	H	0.593488	0.590495	0.884916
	H102	H	0.418867	0.592827	0.105265
	H103	H	0.425139	0.421473	0.884678
	H104	H	0.125102	0.598226	0.402965
	H105	H	0.900706	0.584256	0.583288
	H106	H	0.121338	0.418047	0.585977
	H107	H	0.896125	0.408068	0.405152
	H108	H	0.921152	0.615163	0.078172
	H109	H	0.097758	0.393651	0.082796
	H110	H	0.101442	0.617188	0.905023
	H111	H	0.922246	0.392136	0.904083
	H112	H	0.099176	0.911590	0.607004
	H113	H	0.098092	0.093998	0.383283
	H114	H	0.917891	0.097211	0.608254
	H115	H	0.920441	0.913113	0.381402
	H116	H	0.621515	0.095025	0.904052
	H117	H	0.394343	0.099827	0.085356
	H118	H	0.621748	0.920358	0.088351
	H119	H	0.398472	0.913701	0.904524
	C120	C	0.388022	0.012232	0.616113
	C121	C	0.630246	0.996878	0.614707
	C122	C	0.631046	0.013248	0.372680
	C123	C	0.388301	0.994321	0.373219
	C124	C	0.632667	0.381290	0.002523
	C125	C	0.631084	0.624068	0.985857
	C126	C	0.388409	0.626324	0.002082
	C127	C	0.389159	0.384123	0.985375
	C128	C	0.018420	0.624728	0.373583
	C129	C	1.001852	0.624719	0.614998
	C130	C	0.018365	0.382073	0.615948
	C131	C	1.001534	0.382511	0.372787
	C132	C	0.888966	0.512779	0.115168
	C133	C	0.131309	0.496208	0.115156
	C134	C	0.131031	0.512895	0.872623
	C135	C	0.888505	0.495519	0.872249
	C136	C	0.130596	0.882513	0.502571
	C137	C	0.132775	0.126030	0.485979
	C138	C	0.889024	0.125041	0.502720
	C139	C	0.888204	0.882658	0.485784
	C140	C	0.517254	0.125598	0.872321
	C141	C	0.500629	0.125840	0.116105
	C142	C	0.518543	0.882668	0.115442
	C143	C	0.502788	0.883015	0.873130
	C144	C	0.387498	0.893409	0.675189
	C145	C	0.631595	0.115270	0.674033
	C146	C	0.633841	0.895085	0.312663
	C147	C	0.388890	0.114214	0.316005
	C148	C	0.691166	0.380488	0.883791
	C149	C	0.691404	0.626188	0.103483
	C150	C	0.328642	0.628828	0.883918
	C151	C	0.332291	0.385111	0.104867
	C152	C	0.900708	0.685286	0.370801
	C153	C	0.120443	0.683957	0.616654
	C154	C	0.899335	0.324121	0.615607
	C155	C	0.120591	0.324358	0.372100
	C156	C	0.899198	0.381967	0.673613
	C157	C	0.120748	0.625761	0.674254
	C158	C	0.900402	0.626921	0.313764
	C159	C	0.119720	0.381159	0.313057
	C160	C	0.386594	0.686562	0.884097
	C161	C	0.634095	0.684627	0.103288
	C162	C	0.631379	0.324425	0.883001
	C163	C	0.389847	0.326707	0.104742
	C164	C	0.692100	0.895646	0.370047
	C165	C	0.689979	0.115172	0.616818
	C166	C	0.329481	0.893281	0.617665
	C167	C	0.331649	0.114339	0.374335
	C168	C	0.887189	0.394728	0.175403
	C169	C	0.134341	0.613235	0.176888
	C170	C	0.132140	0.393516	0.815111
	C171	C	0.886543	0.613846	0.812853
	C172	C	0.190211	0.880786	0.384421
	C173	C	0.190728	0.126104	0.604817
	C174	C	0.830611	0.125623	0.384110
	C175	C	0.826378	0.878685	0.602751
	C176	C	0.398159	0.183887	0.871545
	C177	C	0.620242	0.182542	0.114755
	C178	C	0.400987	0.822039	0.117500
	C179	C	0.620362	0.821865	0.869270
	C180	C	0.400369	0.880236	0.174818
	C181	C	0.620229	0.124913	0.173048
	C182	C	0.398537	0.126197	0.813530
	C183	C	0.619812	0.879845	0.811261
	C184	C	0.888522	0.183448	0.383920
	C185	C	0.132546	0.183992	0.604994
	C186	C	0.133000	0.822540	0.384843
	C187	C	0.884110	0.820594	0.602315
	C188	C	0.190856	0.394505	0.871852
	C189	C	0.192186	0.613690	0.119233
	C190	C	0.830525	0.393829	0.116578
	C191	C	0.829158	0.614069	0.871159
	C192	C	0.412474	0.094627	0.591090
	C193	C	0.605366	0.914537	0.589595
	C194	C	0.605865	0.095393	0.397437
	C195	C	0.411934	0.911087	0.396728
	C196	C	0.609249	0.404931	0.085491
	C197	C	0.605818	0.598951	0.903707
	C198	C	0.413668	0.600735	0.083986
	C199	C	0.412743	0.407815	0.902492
	C200	C	0.100457	0.599133	0.398985
	C201	C	0.919710	0.599721	0.590233
	C202	C	0.101507	0.406175	0.592381
	C203	C	0.918761	0.406446	0.396998
	C204	C	0.913564	0.595384	0.090186
	C205	C	0.105944	0.414368	0.089174
	C206	C	0.106271	0.595422	0.896301
	C207	C	0.913234	0.412985	0.897017
	C208	C	0.106077	0.907032	0.584868
	C209	C	0.108700	0.102055	0.403290
	C210	C	0.913380	0.100712	0.585274
	C211	C	0.914098	0.908728	0.404171
	C212	C	0.600018	0.101258	0.896768
	C213	C	0.417127	0.102889	0.093285
	C214	C	0.600568	0.908540	0.090128
	C215	C	0.421207	0.908812	0.899708
	Zn216	Zn	0.509830	0.004267	0.743918
	Zn217	Zn	0.509629	0.003767	0.244551
	Zn218	Zn	0.760581	0.503792	-0.005868
	Zn219	Zn	0.259835	0.505127	-0.005649
	Zn220	Zn	0.009770	0.753636	0.494155
	Zn221	Zn	0.010218	0.253870	0.494333
	Zn222	Zn	0.010093	0.503812	0.743933
	Zn223	Zn	0.010153	0.504351	0.244074
	Zn224	Zn	0.511131	0.753914	-0.006335
	Zn225	Zn	0.509211	0.253888	-0.006380
	Zn226	Zn	0.759589	0.004471	0.494554
	Zn227	Zn	0.259925	0.002802	0.494664
	N228	N	0.422771	0.968514	0.674724
	N229	N	0.595311	0.040569	0.672918
	N230	N	0.596542	0.969118	0.314237
	N231	N	0.422826	0.038350	0.314489
	N232	N	0.692355	0.414742	0.959176
	N233	N	0.689496	0.589235	0.029427
	N234	N	0.329333	0.592313	0.958439
	N235	N	0.331443	0.419632	0.029540
	N236	N	0.975116	0.683997	0.407076
	N237	N	0.045556	0.683716	0.580893
	N238	N	0.974518	0.323831	0.580731
	N239	N	0.046048	0.325068	0.408554
	N240	N	0.974613	0.416753	0.674196
	N241	N	0.045894	0.589998	0.673711
	N242	N	0.974823	0.590208	0.314937
	N243	N	0.044578	0.416365	0.313131
	N244	N	0.423026	0.685212	0.958570
	N245	N	0.597270	0.683442	0.029067
	N246	N	0.595811	0.324445	0.957998
	N247	N	0.424236	0.325767	0.029401
	N248	N	0.690459	0.970063	0.406762
	N249	N	0.689650	0.040324	0.580888
	N250	N	0.329570	0.968150	0.581706
	N251	N	0.330958	0.038720	0.408829
	N252	N	0.922762	0.469742	0.174702
	N253	N	0.096948	0.539202	0.174390
	N254	N	0.095645	0.468056	0.815259
	N255	N	0.922539	0.539041	0.813231
	N256	N	0.188786	0.917503	0.458554
	N257	N	0.191210	0.091006	0.529763
	N258	N	0.830491	0.090421	0.459214
	N259	N	0.828819	0.916726	0.529159
	N260	N	0.473163	0.183807	0.907205
	N261	N	0.544708	0.183496	0.080337
	N262	N	0.475803	0.823238	0.081331
	N263	N	0.546581	0.823788	0.907055
	N264	N	0.474572	0.917290	0.173679
	N265	N	0.544628	0.090499	0.174141
	N266	N	0.473618	0.090700	0.813926
	N267	N	0.545702	0.917358	0.813617
	N268	N	0.924204	0.183190	0.458718
	N269	N	0.097262	0.184087	0.530017
	N270	N	0.096754	0.823453	0.459371
	N271	N	0.921938	0.823091	0.528650
	N272	N	0.190388	0.469706	0.907019
	N273	N	0.190245	0.539895	0.081269
	N274	N	0.831333	0.468400	0.080088
	N275	N	0.830241	0.539229	0.907348
	O276	O	1.107974	1.118707	-0.204558
	H277	H	1.095518	1.106544	-0.188137
	H278	H	1.098944	1.117302	-0.206789
	O279	O	-0.028765	0.220416	0.775696
	H280	H	-0.043807	0.224997	0.763047
	H281	H	-0.030878	0.226461	0.772517
	O282	O	0.726481	0.539794	0.713491
	H283	H	0.729074	0.535907	0.727290
	H284	H	0.735877	0.525463	0.716390
	O285	O	0.709060	1.425876	0.544538
	H286	H	0.692516	1.428817	0.537685
	H287	H	0.716749	1.398783	0.510431
	O288	O	1.536941	-0.475646	1.405881
	H289	H	1.526076	-0.489063	1.410310
	H290	H	1.556050	-0.498198	1.412598
	O291	O	1.451739	0.730540	0.543071
	H292	H	1.440696	0.720874	0.549820
	H293	H	1.453268	0.730976	0.558507
	O294	O	-0.206742	0.055063	0.070647
	H295	H	-0.215442	0.050187	0.054392
	H296	H	-0.202523	0.060571	0.041526
	O297	O	0.931946	0.209268	0.082016
	H298	H	0.946958	0.207866	0.067862
	H299	H	0.949552	0.214456	0.090899
	O300	O	-0.198911	-0.206676	0.165063
	H301	H	-0.197599	-0.216129	0.180151
	H302	H	-0.195219	-0.172869	0.170556
	O303	O	-0.285399	0.299474	-0.679660
	H304	H	-0.266380	0.295723	-0.697813
	H305	H	-0.272376	0.317696	-0.691791
	O306	O	0.305878	-0.334362	0.453455
	H307	H	0.304245	-0.343547	0.440158
	H308	H	0.292001	-0.316849	0.449560
	O309	O	-0.211396	1.221869	0.957635
	H310	H	-0.191437	1.223744	0.956647
	H311	H	-0.239158	1.255401	0.949257
	O312	O	0.318821	0.316686	0.305773
	H313	H	0.340876	0.332607	0.322585
	H314	H	0.335927	0.338073	0.323823
	O315	O	0.084896	-0.155937	-0.052264
	H316	H	0.057103	-0.160322	-0.042743
	H317	H	0.097025	-0.169183	-0.056010
	O318	O	0.849965	1.001449	-0.048205
	H319	H	0.853113	0.994088	-0.049607
	H320	H	0.847397	0.979919	-0.050872
	O321	O	0.165493	0.928037	0.995554
	H322	H	0.173013	0.926223	0.992340
	H323	H	0.153318	0.929543	1.002390
	O324	O	0.953916	-0.018304	0.796993
	H325	H	0.959899	-0.004314	0.790374
	H326	H	0.971009	-0.025754	0.797361
	O327	O	0.526224	0.365610	0.695156
	H328	H	0.518222	0.373374	0.694386
	H329	H	0.517051	0.348802	0.698893
	O330	O	-0.028373	0.793894	0.203769
	H331	H	-0.020036	0.794290	0.211276
	H332	H	-0.031302	0.795764	0.220381
	O333	O	0.077597	0.051419	-0.045101
	H334	H	0.076971	0.053072	-0.030833
	H335	H	0.073909	0.072785	-0.044142
	O336	O	0.215703	1.115718	0.883881
	H337	H	0.216462	1.116411	0.894236
	H338	H	0.201544	1.102869	0.881181
	O339	O	0.488498	0.714260	0.292009
	H340	H	0.484349	0.733100	0.286442
	H341	H	0.501443	0.718865	0.298372
	O342	O	0.225114	0.837656	-0.000397
	H343	H	0.236502	0.831907	-0.004056
	H344	H	0.217382	0.825718	-0.008288
	O345	O	0.646909	0.700229	0.359121
	H346	H	0.639448	0.687818	0.370229
	H347	H	0.649491	0.722236	0.360441
	O348	O	-0.203074	0.846566	1.018719
	H349	H	-0.212475	0.834348	1.030354
	H350	H	-0.205098	0.842265	1.032899
	O351	O	0.701359	0.564258	1.403769
	H352	H	0.698004	0.566663	1.417762
	H353	H	0.692323	0.567608	1.398766
	O354	O	1.315260	-0.588455	1.511918
	H355	H	1.319323	-0.596973	1.531111
	H356	H	1.315656	-0.607350	1.515528
	O357	O	0.376668	0.559092	0.629895
	H358	H	0.369270	0.562242	0.619806
	H359	H	0.392091	0.574670	0.627965
	O360	O	0.722286	0.470795	0.282352
	H361	H	0.726763	0.488718	0.289183
	H362	H	0.726563	0.485211	0.262927
	O363	O	0.542805	0.539738	0.527094
	H364	H	0.545059	0.541709	0.531476
	H365	H	0.531090	0.538321	0.534558
	O366	O	0.216585	0.214246	0.200903
	H367	H	0.250171	0.243204	0.235984
	H368	H	0.223238	0.160904	0.210457
	O369	O	0.227683	-0.027141	0.781028
	H370	H	0.232858	-0.028939	0.766818
	H371	H	0.229227	-0.027841	0.778054
	O372	O	0.023553	0.788626	1.019570
	H373	H	0.003676	0.781283	1.022814
	H374	H	0.022252	0.792178	1.028758
	O375	O	1.231083	0.045978	0.214606
	H376	H	1.232344	0.020519	0.208270
	H377	H	1.248989	0.029001	0.229451
	O378	O	0.709280	0.708017	0.696250
	H379	H	0.714490	0.691042	0.688450
	H380	H	0.719017	0.704421	0.692749
	O381	O	-0.579458	1.290345	-0.380917
	H382	H	-0.595842	1.291036	-0.382530
	H383	H	-0.588439	1.267727	-0.363827
	O384	O	0.559482	0.370331	0.579455
	H385	H	0.570150	0.371296	0.583867
	H386	H	0.561361	0.384125	0.590546
	O387	O	0.483715	1.295717	1.469330
	H388	H	0.479840	1.293946	1.491871
	H389	H	0.503727	1.295672	1.465502
	O390	O	-0.767187	1.212980	1.026637
	H391	H	-0.752344	1.223061	1.046107
	H392	H	-0.753816	1.228166	1.050242
	O393	O	1.052088	-0.203052	-0.207411
	H394	H	1.057533	-0.217110	-0.222429
	H395	H	1.069635	-0.204180	-0.202718
	O396	O	0.794685	0.033051	0.782867
	H397	H	0.794558	0.037574	0.771802
	H398	H	0.789027	0.028116	0.777717
	O399	O	0.537280	0.292654	0.280214
	H400	H	0.546530	0.269712	0.271858
	H401	H	0.571722	0.286873	0.280351
	O402	O	1.061293	-0.052922	1.199366
	H403	H	1.055320	-0.041414	1.198422
	H404	H	1.065971	-0.052311	1.182318
	O405	O	0.031613	0.204734	0.206045
	H406	H	0.054787	0.217828	0.216293
	H407	H	0.056208	0.209698	0.211879
	O408	O	1.180427	0.822453	0.826079
	H409	H	1.187475	0.829894	0.850744
	H410	H	1.174991	0.838541	0.829415
	O411	O	1.792430	0.217381	-0.792780
	H412	H	1.793361	0.192881	-0.811890
	H413	H	1.821148	0.206565	-0.800255
	O414	O	0.294401	-0.528692	0.560487
	H415	H	0.276006	-0.535342	0.560638
	H416	H	0.290539	-0.550533	0.569043
	O417	O	0.516061	-0.420342	0.703590
	H418	H	0.522625	-0.404468	0.695114
	H419	H	0.521002	-0.423271	0.710499
	O420	O	1.312258	0.302336	0.698207
	H421	H	1.304714	0.327643	0.692037
	H422	H	1.299536	0.281258	0.722966
	O423	O	0.556008	1.562398	0.293512
	H424	H	0.545743	1.579689	0.301998
	H425	H	0.570925	1.563676	0.295131
	O426	O	-0.126898	0.999457	0.209036
	H427	H	-0.126185	1.022232	0.200086
	H428	H	-0.132135	1.016852	0.214313
	O429	O	0.583592	0.451394	0.607197
	H430	H	0.579139	0.455128	0.593174
	H431	H	0.564493	0.470630	0.616438
	O432	O	1.077830	0.003833	0.947271
	H433	H	1.071955	-0.001828	0.949048
	H434	H	1.075375	-0.002976	0.938251
	O435	O	0.311240	0.551880	0.401029
	H436	H	0.333595	0.537342	0.390552
	H437	H	0.309095	0.550573	0.407045
	O438	O	0.675002	0.687518	0.504869
	H439	H	0.687583	0.682410	0.500713
	H440	H	0.666844	0.694640	0.500797
	O441	O	0.925946	0.992250	0.162824
	H442	H	0.942496	0.998426	0.168613
	H443	H	0.943671	1.001576	0.152325
	O444	O	0.699371	0.290026	0.480007
	H445	H	0.711122	0.273604	0.469774
	H446	H	0.690415	0.282791	0.452714
	O447	O	0.015983	0.070507	0.956161
	H448	H	0.014960	0.067618	0.969533
	H449	H	0.009005	0.071789	0.965273
	O450	O	0.323389	0.692536	0.297770
	H451	H	0.338927	0.680690	0.307002
	H452	H	0.323625	0.684247	0.281926
	O453	O	0.465025	0.440479	0.325850
	H454	H	0.478507	0.459306	0.334798
	H455	H	0.490007	0.419662	0.314592
	O456	O	1.208458	0.837132	0.159668
	H457	H	1.214521	0.827478	0.162359
	H458	H	1.194022	0.849720	0.146855
	O459	O	0.484375	0.717071	0.638781
	H460	H	0.489429	0.721066	0.635334
	H461	H	0.496371	0.730878	0.642012
	O462	O	0.491009	0.648100	0.529150
	H463	H	0.477795	0.643496	0.525019
	H464	H	0.480997	0.643259	0.548851
	O465	O	0.807033	0.200973	0.792968
	H466	H	0.821096	0.206414	0.816844
	H467	H	0.788412	0.187320	0.773925
	O468	O	0.034078	1.177794	-0.015769
	H469	H	0.037075	1.179549	-0.019878
	H470	H	0.042387	1.183879	-0.016759
	O471	O	0.887940	-0.170063	0.864860
	H472	H	0.899147	-0.181884	0.858837
	H473	H	0.876849	-0.151088	0.865615
	O474	O	0.912067	0.907748	-0.058034
	H475	H	0.909929	0.919822	-0.056414
	H476	H	0.917440	0.914677	-0.060772
	O477	O	-0.700020	0.433930	1.670216
	H478	H	-0.689827	0.445036	1.676158
	H479	H	-0.711638	0.440987	1.668875
