data_Molecule from HDF5

_cell_length_a		16.168309
_cell_length_b		16.195750
_cell_length_c		16.399932
_cell_angle_alpha	89.453073
_cell_angle_beta	90.063847
_cell_angle_gamma	90.262022
_symmetry_space_group_name_H-M	'P 1'
_symmetry_Int_Tables_number		1

loop_
	_symmetry_equiv_pos_as_xyz
	x,y,z

loop_
	_atom_site_label
	_atom_site_type_symbol
	_atom_site_fract_x
	_atom_site_fract_y
	_atom_site_fract_z
	H0	H	0.388481	0.841099	0.719870
	H1	H	0.593149	0.167620	0.713579
	H2	H	0.591335	0.837914	0.287211
	H3	H	0.391130	0.165696	0.281844
	H4	H	0.707035	0.406830	0.838569
	H5	H	0.708240	0.601377	0.164323
	H6	H	0.277293	0.602823	0.839283
	H7	H	0.276873	0.400387	0.164687
	H8	H	0.827255	0.716055	0.403228
	H9	H	0.158005	0.714170	0.597309
	H10	H	0.828274	0.286507	0.601354
	H11	H	0.158772	0.293474	0.406577
	H12	H	0.828748	0.399738	0.717759
	H13	H	0.155191	0.604993	0.717974
	H14	H	0.828579	0.605118	0.283906
	H15	H	0.155750	0.404600	0.286265
	H16	H	0.393466	0.719612	0.839810
	H17	H	0.591194	0.717105	0.164314
	H18	H	0.589951	0.290866	0.837388
	H19	H	0.393694	0.283342	0.162951
	H20	H	0.704874	0.837172	0.404356
	H21	H	0.706446	0.167472	0.596010
	H22	H	0.278070	0.838594	0.599503
	H23	H	0.279653	0.168042	0.401763
	H24	H	0.890448	0.338988	0.218235
	H25	H	0.093380	0.666480	0.214945
	H26	H	0.091466	0.339155	0.787832
	H27	H	0.890825	0.665959	0.783309
	H28	H	0.205777	0.906579	0.338004
	H29	H	0.209394	0.101408	0.663342
	H30	H	0.778320	0.102586	0.337497
	H31	H	0.776203	0.900978	0.663485
	H32	H	0.327671	0.216904	0.900889
	H33	H	0.657503	0.214617	0.095342
	H34	H	0.327636	0.787420	0.100619
	H35	H	0.657585	0.791758	0.905746
	H36	H	0.327531	0.900890	0.216241
	H37	H	0.655520	0.103191	0.215208
	H38	H	0.328690	0.105096	0.783151
	H39	H	0.655812	0.903913	0.785682
	H40	H	0.893680	0.221042	0.339899
	H41	H	0.093594	0.217149	0.664020
	H42	H	0.092400	0.789134	0.338573
	H43	H	0.892240	0.783894	0.663351
	H44	H	0.203163	0.337675	0.906060
	H45	H	0.206674	0.666507	0.098501
	H46	H	0.779809	0.337884	0.098944
	H47	H	0.781381	0.668390	0.904858
	H48	H	0.400682	0.122019	0.595595
	H49	H	0.582440	0.886412	0.593745
	H50	H	0.580127	0.118032	0.406629
	H51	H	0.397429	0.884699	0.407122
	H52	H	0.580270	0.405169	0.115852
	H53	H	0.588093	0.595683	0.885831
	H54	H	0.403873	0.591900	0.115593
	H55	H	0.392554	0.409976	0.885009
	H56	H	0.112460	0.592601	0.394724
	H57	H	0.875820	0.596762	0.587514
	H58	H	0.112541	0.408017	0.598519
	H59	H	0.874776	0.410038	0.409939
	H60	H	0.109207	0.410132	0.593261
	H61	H	0.877064	0.586110	0.592223
	H62	H	0.111993	0.609136	0.410465
	H63	H	0.875854	0.412777	0.409815
	H64	H	0.399344	0.599625	0.119087
	H65	H	0.582997	0.598690	0.886873
	H66	H	0.588483	0.404301	0.118681
	H67	H	0.398353	0.413323	0.886944
	H68	H	0.587896	0.119808	0.408366
	H69	H	0.584318	0.884603	0.597068
	H70	H	0.403762	0.119490	0.590481
	H71	H	0.401069	0.886088	0.408333
	H72	H	0.901331	0.622607	0.101657
	H73	H	0.079865	0.384749	0.101385
	H74	H	0.085804	0.618795	0.912885
	H75	H	0.904464	0.386950	0.910067
	H76	H	0.084744	0.915738	0.614475
	H77	H	0.076421	0.100366	0.388065
	H78	H	0.908987	0.106664	0.617461
	H79	H	0.898051	0.913822	0.386224
	H80	H	0.610172	0.103089	0.911809
	H81	H	0.380172	0.080807	0.085903
	H82	H	0.611022	0.914357	0.103473
	H83	H	0.374319	0.910933	0.908682
	H84	H	0.611730	0.902282	0.094012
	H85	H	0.369814	0.092578	0.106893
	H86	H	0.606744	0.088181	0.907973
	H87	H	0.375057	0.911300	0.910528
	H88	H	0.883959	0.093638	0.621178
	H89	H	0.090239	0.105829	0.382719
	H90	H	0.079502	0.903780	0.616585
	H91	H	0.902100	0.906728	0.386109
	H92	H	0.087824	0.622819	0.902730
	H93	H	0.079604	0.387677	0.091682
	H94	H	0.908807	0.616579	0.089710
	H95	H	0.895440	0.385601	0.913095
	H96	H	0.398016	0.120228	0.590290
	H97	H	0.580344	0.885987	0.597136
	H98	H	0.584939	0.120567	0.401599
	H99	H	0.397040	0.886049	0.409910
	H100	H	0.586547	0.412285	0.115660
	H101	H	0.587870	0.601350	0.884444
	H102	H	0.394457	0.591300	0.118467
	H103	H	0.399579	0.407249	0.884970
	H104	H	0.104904	0.587559	0.415230
	H105	H	0.873124	0.594264	0.598710
	H106	H	0.108867	0.414658	0.598423
	H107	H	0.874794	0.411332	0.407427
	H108	H	0.893650	0.620747	0.088677
	H109	H	0.087728	0.383545	0.095938
	H110	H	0.077634	0.618826	0.905469
	H111	H	0.897854	0.383621	0.904777
	H112	H	0.092210	0.905980	0.618975
	H113	H	0.088306	0.089766	0.386703
	H114	H	0.906668	0.079335	0.610209
	H115	H	0.894196	0.907637	0.383736
	H116	H	0.612934	0.098068	0.897472
	H117	H	0.372953	0.105196	0.084096
	H118	H	0.606146	0.914780	0.089463
	H119	H	0.375652	0.912985	0.909077
	C120	C	0.370313	0.012562	0.622522
	C121	C	0.612867	0.994394	0.622692
	C122	C	0.612813	0.010439	0.378741
	C123	C	0.369723	0.993960	0.378626
	C124	C	0.613647	0.380744	0.009286
	C125	C	0.614731	0.625947	0.993169
	C126	C	0.369996	0.624502	0.010319
	C127	C	0.368710	0.379648	0.992845
	C128	C	0.001076	0.625511	0.378306
	C129	C	0.983794	0.622697	0.621780
	C130	C	0.001329	0.380889	0.624952
	C131	C	0.983877	0.382934	0.381064
	C132	C	0.870926	0.511457	0.123248
	C133	C	0.112756	0.493802	0.123596
	C134	C	0.112449	0.511334	0.880186
	C135	C	0.870505	0.494084	0.879802
	C136	C	0.114052	0.881102	0.509247
	C137	C	0.114880	0.125886	0.493204
	C138	C	0.870816	0.124164	0.509441
	C139	C	0.869085	0.879332	0.492535
	C140	C	0.501095	0.125337	0.877334
	C141	C	0.483110	0.122496	0.120859
	C142	C	0.501016	0.880384	0.123964
	C143	C	0.483732	0.882978	0.880826
	C144	C	0.370322	0.889371	0.680041
	C145	C	0.612742	0.118216	0.676310
	C146	C	0.611124	0.886987	0.324841
	C147	C	0.371783	0.117377	0.321365
	C148	C	0.669003	0.385582	0.886925
	C149	C	0.670314	0.622366	0.115574
	C150	C	0.314928	0.623010	0.888054
	C151	C	0.314787	0.380904	0.115723
	C152	C	0.876948	0.679827	0.381505
	C153	C	0.108226	0.677613	0.618556
	C154	C	0.877667	0.324407	0.622021
	C155	C	0.108791	0.329987	0.385270
	C156	C	0.877764	0.380928	0.679743
	C157	C	0.107008	0.622868	0.678329
	C158	C	0.877586	0.624424	0.322378
	C159	C	0.107439	0.385166	0.325415
	C160	C	0.372703	0.681208	0.888311
	C161	C	0.612004	0.679787	0.115748
	C162	C	0.610801	0.328013	0.886140
	C163	C	0.372721	0.322576	0.114879
	C164	C	0.667286	0.886383	0.383346
	C165	C	0.668841	0.118170	0.617613
	C166	C	0.315103	0.888236	0.620494
	C167	C	0.316297	0.118509	0.380677
	C168	C	0.871389	0.388198	0.179781
	C169	C	0.112328	0.617538	0.177250
	C170	C	0.111014	0.388018	0.825727
	C171	C	0.871433	0.617261	0.822532
	C172	C	0.168438	0.885427	0.386784
	C173	C	0.171178	0.121934	0.614780
	C174	C	0.815926	0.122820	0.386766
	C175	C	0.813603	0.880480	0.614775
	C176	C	0.376997	0.180263	0.879934
	C177	C	0.607849	0.177348	0.116929
	C178	C	0.377120	0.824538	0.121209
	C179	C	0.607886	0.828581	0.884231
	C180	C	0.376971	0.881214	0.178626
	C181	C	0.606871	0.121922	0.176347
	C182	C	0.377655	0.124728	0.821221
	C183	C	0.607058	0.884590	0.824718
	C184	C	0.873092	0.181753	0.387868
	C185	C	0.113366	0.179694	0.615369
	C186	C	0.111801	0.827039	0.386892
	C187	C	0.871529	0.822394	0.614653
	C188	C	0.166451	0.387384	0.884836
	C189	C	0.168843	0.617411	0.119451
	C190	C	0.816316	0.387425	0.120343
	C191	C	0.816979	0.618528	0.882671
	C192	C	0.393970	0.098326	0.599049
	C193	C	0.589299	0.907905	0.601944
	C194	C	0.590848	0.096982	0.399587
	C195	C	0.391988	0.907874	0.401830
	C196	C	0.591579	0.401056	0.094596
	C197	C	0.592713	0.604835	0.907812
	C198	C	0.392524	0.601083	0.095709
	C199	C	0.390339	0.403098	0.907814
	C200	C	0.087363	0.603089	0.400122
	C201	C	0.897555	0.599243	0.599472
	C202	C	0.087923	0.404082	0.603244
	C203	C	0.897513	0.405021	0.402823
	C204	C	0.894388	0.597797	0.100175
	C205	C	0.089181	0.407665	0.102368
	C206	C	0.090143	0.597815	0.900934
	C207	C	0.892759	0.407745	0.902545
	C208	C	0.091992	0.902152	0.594652
	C209	C	0.091934	0.104978	0.407674
	C210	C	0.893285	0.100263	0.594456
	C211	C	0.891503	0.902520	0.407291
	C212	C	0.587452	0.102837	0.899266
	C213	C	0.396675	0.099613	0.098800
	C214	C	0.587452	0.903451	0.102035
	C215	C	0.397320	0.905205	0.902941
	Zn216	Zn	0.491795	0.004047	0.750854
	Zn217	Zn	0.491354	0.002012	0.250250
	Zn218	Zn	0.743338	0.503179	0.001805
	Zn219	Zn	0.240100	0.502475	0.002048
	Zn220	Zn	-0.007196	0.751543	0.500812
	Zn221	Zn	-0.007048	0.254429	0.502505
	Zn222	Zn	-0.008610	0.502599	0.751336
	Zn223	Zn	-0.008531	0.503210	0.251436
	Zn224	Zn	0.492360	0.753934	0.002435
	Zn225	Zn	0.492171	0.250984	-0.000111
	Zn226	Zn	0.740799	0.002206	0.500671
	Zn227	Zn	0.242785	0.003140	0.500574
	N228	N	0.404181	0.967512	0.681195
	N229	N	0.578693	0.040154	0.679638
	N230	N	0.578009	0.964984	0.321867
	N231	N	0.404266	0.038821	0.319860
	N232	N	0.670865	0.417730	0.964314
	N233	N	0.672086	0.589447	0.038488
	N234	N	0.313224	0.588457	0.965030
	N235	N	0.312199	0.415785	0.038839
	N236	N	0.954655	0.680461	0.415561
	N237	N	0.030645	0.677529	0.583938
	N238	N	0.955641	0.324322	0.588627
	N239	N	0.030890	0.328424	0.419121
	N240	N	0.955701	0.415346	0.681557
	N241	N	0.028539	0.589467	0.680443
	N242	N	0.955773	0.591276	0.320345
	N243	N	0.029011	0.417468	0.322798
	N244	N	0.406167	0.682203	0.965447
	N245	N	0.578317	0.682111	0.038801
	N246	N	0.577071	0.324970	0.963071
	N247	N	0.405311	0.321391	0.037560
	N248	N	0.668593	0.964342	0.416318
	N249	N	0.669205	0.040062	0.585078
	N250	N	0.315136	0.965629	0.585246
	N251	N	0.314802	0.041053	0.415417
	N252	N	0.904614	0.466501	0.181591
	N253	N	0.078065	0.539615	0.180047
	N254	N	0.077939	0.466146	0.822732
	N255	N	0.903568	0.538765	0.820495
	N256	N	0.169950	0.918233	0.463851
	N257	N	0.171970	0.089240	0.537628
	N258	N	0.814398	0.087603	0.463485
	N259	N	0.811905	0.915023	0.537790
	N260	N	0.454718	0.180724	0.914136
	N261	N	0.529856	0.177794	0.083092
	N262	N	0.455233	0.824013	0.087958
	N263	N	0.530258	0.827582	0.918390
	N264	N	0.455112	0.915188	0.180524
	N265	N	0.528253	0.088714	0.179008
	N266	N	0.455726	0.091328	0.819596
	N267	N	0.528790	0.917598	0.822442
	N268	N	0.906261	0.182822	0.465110
	N269	N	0.079007	0.182302	0.538613
	N270	N	0.078543	0.824218	0.464121
	N271	N	0.905371	0.821663	0.537689
	N272	N	0.167548	0.465197	0.917931
	N273	N	0.169258	0.539414	0.087002
	N274	N	0.816061	0.465141	0.085787
	N275	N	0.816161	0.540913	0.917589
	O276	O	-0.016485	0.032817	-0.021936
	H277	H	-0.003850	0.028107	-0.021940
	H278	H	-0.019489	0.039185	-0.031154
	O279	O	0.426819	0.549558	0.464273
	H280	H	0.421725	0.545588	0.464188
	H281	H	0.430842	0.555602	0.460225
	O282	O	0.549571	0.494913	0.463297
	H283	H	0.550632	0.492024	0.468523
	H284	H	0.543169	0.505890	0.464754
	O285	O	-0.015603	1.015072	1.031524
	H286	H	-0.013225	1.015014	1.024263
	H287	H	-0.013532	1.003387	1.035307
	O288	O	0.465347	0.500603	0.499170
	H289	H	0.464462	0.509165	0.496846
	H290	H	0.461355	0.494533	0.508040
	O291	O	1.046804	1.093361	0.931734
	H292	H	1.039686	1.107474	0.936384
	H293	H	1.046872	1.094292	0.944084
	O294	O	0.953310	0.934277	0.964954
	H295	H	0.947984	0.938631	0.971384
	H296	H	0.958345	0.939548	0.958686
	O297	O	1.027059	-0.010784	1.078779
	H298	H	1.031802	-0.017886	1.083283
	H299	H	1.007532	-0.003837	1.089333
	O300	O	0.461827	0.583452	0.474275
	H301	H	0.461674	0.584787	0.476355
	H302	H	0.472163	0.583829	0.470709
	O303	O	0.898187	0.114867	-0.016934
	H304	H	0.892250	0.116529	-0.018140
	H305	H	0.897884	0.118593	-0.020991
	O306	O	-0.084602	1.084078	0.936844
	H307	H	-0.081818	1.075174	0.933816
	H308	H	-0.074991	1.073800	0.938076
	O309	O	0.572387	0.540413	0.553436
	H310	H	0.569896	0.539916	0.552679
	H311	H	0.579493	0.551115	0.544822
	O312	O	1.047547	-0.003584	0.903938
	H313	H	1.047872	-0.000287	0.909333
	H314	H	1.053234	-0.000286	0.900092
	O315	O	0.503837	0.391738	0.498322
	H316	H	0.506774	0.393918	0.500517
	H317	H	0.514256	0.388439	0.499804
	O318	O	0.551315	0.437781	0.483540
	H319	H	0.541519	0.438855	0.485351
	H320	H	0.561282	0.449745	0.470187
	O321	O	0.971028	1.009759	1.017125
	H322	H	0.984901	1.008083	1.013323
	H323	H	0.973572	1.019694	1.002130
	O324	O	0.540272	0.526619	0.583054
	H325	H	0.545081	0.520793	0.587053
	H326	H	0.548418	0.530215	0.583899
	O327	O	0.474852	0.520966	0.481584
	H328	H	0.478666	0.521347	0.477879
	H329	H	0.479082	0.521170	0.484602
	O330	O	1.007106	-0.056343	1.077843
	H331	H	1.003147	-0.062547	1.079885
	H332	H	1.009265	-0.063878	1.072931
	O333	O	0.976053	0.897927	0.038328
	H334	H	0.969869	0.899299	0.057177
	H335	H	0.982200	0.901858	0.039301
	O336	O	0.536819	0.472677	0.497206
	H337	H	0.538549	0.467794	0.489593
	H338	H	0.540234	0.473685	0.500776
	O339	O	0.492674	0.461640	0.435345
	H340	H	0.490554	0.460905	0.426428
	H341	H	0.509661	0.456970	0.426205
	O342	O	0.039893	1.107828	0.057260
	H343	H	0.040111	1.104879	0.053342
	H344	H	0.032757	1.114404	0.069704
	O345	O	0.060978	-0.082155	-0.057718
	H346	H	0.069894	-0.084994	-0.061611
	H347	H	0.066518	-0.078800	-0.054218
	O348	O	0.473183	0.501777	0.549071
	H349	H	0.482626	0.498159	0.562932
	H350	H	0.470523	0.516559	0.550983
	O351	O	0.463440	0.574919	0.559986
	H352	H	0.456679	0.580728	0.557425
	H353	H	0.461048	0.573921	0.563680
	O354	O	0.730606	0.765546	0.230384
	H355	H	0.738660	0.769222	0.220954
	H356	H	0.725110	0.757636	0.244315
	O357	O	0.015343	-0.071486	1.073879
	H358	H	0.006464	-0.072023	1.068273
	H359	H	0.012059	-0.073857	1.075380
	O360	O	-0.027939	-0.052568	0.042294
	H361	H	-0.042234	-0.056996	0.034560
	H362	H	-0.043171	-0.048895	0.040251
	O363	O	0.567444	0.571324	0.523153
	H364	H	0.556716	0.569265	0.532568
	H365	H	0.568568	0.565314	0.513304
	O366	O	0.019311	-0.005589	0.956084
	H367	H	0.017972	-0.020575	0.949734
	H368	H	0.030564	0.001277	0.961976
	O369	O	1.454567	0.504748	-0.613924
	H370	H	1.445592	0.502294	-0.601440
	H371	H	1.447651	0.502035	-0.614474
