data_Molecule from HDF5

_cell_length_a		16.301542
_cell_length_b		16.298792
_cell_length_c		16.321804
_cell_angle_alpha	89.977070
_cell_angle_beta	89.986120
_cell_angle_gamma	89.996403
_symmetry_space_group_name_H-M	'P 1'
_symmetry_Int_Tables_number		1

loop_
	_symmetry_equiv_pos_as_xyz
	x,y,z

loop_
	_atom_site_label
	_atom_site_type_symbol
	_atom_site_fract_x
	_atom_site_fract_y
	_atom_site_fract_z
	H0	H	0.404833	0.840378	0.709796
	H1	H	0.600879	0.168041	0.709772
	H2	H	0.601345	0.840024	0.281262
	H3	H	0.405286	0.167495	0.282010
	H4	H	0.717900	0.405755	0.831959
	H5	H	0.716256	0.600503	0.159782
	H6	H	0.289732	0.601479	0.832357
	H7	H	0.288383	0.406650	0.159681
	H8	H	0.838033	0.716329	0.399502
	H9	H	0.166829	0.718148	0.592231
	H10	H	0.838702	0.290901	0.593781
	H11	H	0.166740	0.290906	0.398376
	H12	H	0.839258	0.406934	0.710437
	H13	H	0.167959	0.601679	0.708331
	H14	H	0.839292	0.602586	0.280774
	H15	H	0.166017	0.406244	0.281409
	H16	H	0.405348	0.718235	0.832395
	H17	H	0.600743	0.717603	0.159548
	H18	H	0.600999	0.288621	0.832092
	H19	H	0.405230	0.289748	0.159839
	H20	H	0.716756	0.839719	0.398017
	H21	H	0.716801	0.167604	0.593172
	H22	H	0.288592	0.839938	0.593670
	H23	H	0.288950	0.167790	0.398975
	H24	H	0.904442	0.341098	0.210162
	H25	H	0.101106	0.667855	0.209734
	H26	H	0.101344	0.340570	0.781104
	H27	H	0.904657	0.668230	0.780814
	H28	H	0.216925	0.905751	0.331995
	H29	H	0.216174	0.101414	0.659704
	H30	H	0.789335	0.101781	0.331330
	H31	H	0.788762	0.907056	0.659387
	H32	H	0.338880	0.217936	0.898850
	H33	H	0.667096	0.218174	0.094321
	H34	H	0.339391	0.789690	0.094032
	H35	H	0.667016	0.789985	0.898566
	H36	H	0.339837	0.904426	0.211249
	H37	H	0.667036	0.101317	0.210442
	H38	H	0.338824	0.102875	0.781014
	H39	H	0.666652	0.906293	0.781562
	H40	H	0.904242	0.219317	0.332378
	H41	H	0.100566	0.218119	0.659353
	H42	H	0.100357	0.789916	0.331600
	H43	H	0.904888	0.790413	0.659532
	H44	H	0.217173	0.340172	0.897124
	H45	H	0.216944	0.668489	0.092855
	H46	H	0.789002	0.340778	0.094220
	H47	H	0.788846	0.668540	0.898151
	H48	H	0.398057	0.124264	0.592749
	H49	H	0.591662	0.888617	0.590801
	H50	H	0.596132	0.118841	0.406779
	H51	H	0.406706	0.885896	0.400169
	H52	H	0.600952	0.415823	0.111000
	H53	H	0.594989	0.599538	0.879243
	H54	H	0.408290	0.603843	0.114235
	H55	H	0.407667	0.405809	0.877771
	H56	H	0.118384	0.595478	0.401141
	H57	H	0.888735	0.592640	0.588563
	H58	H	0.118782	0.413927	0.590709
	H59	H	0.884767	0.411965	0.399039
	H60	H	0.120489	0.408289	0.591318
	H61	H	0.884550	0.599016	0.594835
	H62	H	0.119463	0.598926	0.401564
	H63	H	0.885902	0.408541	0.404886
	H64	H	0.403992	0.591469	0.112042
	H65	H	0.598780	0.598713	0.879128
	H66	H	0.589883	0.411319	0.108937
	H67	H	0.406764	0.414683	0.880657
	H68	H	0.599249	0.121212	0.400531
	H69	H	0.597602	0.888563	0.584623
	H70	H	0.418963	0.119826	0.596686
	H71	H	0.414107	0.888807	0.401507
	H72	H	0.913058	0.621252	0.091473
	H73	H	0.094393	0.391557	0.079534
	H74	H	0.093822	0.621264	0.897687
	H75	H	0.910649	0.388952	0.903947
	H76	H	0.101474	0.909063	0.613349
	H77	H	0.098632	0.099128	0.378177
	H78	H	0.912817	0.096382	0.609756
	H79	H	0.914853	0.901294	0.378416
	H80	H	0.615489	0.093725	0.910178
	H81	H	0.388611	0.095959	0.086574
	H82	H	0.621040	0.907892	0.091416
	H83	H	0.384575	0.907235	0.899906
	H84	H	0.618366	0.910697	0.085073
	H85	H	0.387288	0.094572	0.091844
	H86	H	0.618532	0.090868	0.896852
	H87	H	0.387270	0.909408	0.906144
	H88	H	0.909100	0.101012	0.612251
	H89	H	0.096250	0.094574	0.379779
	H90	H	0.094422	0.916994	0.608875
	H91	H	0.898430	0.909728	0.375580
	H92	H	0.094423	0.618015	0.905812
	H93	H	0.105498	0.384806	0.091164
	H94	H	0.910825	0.619569	0.084509
	H95	H	0.908908	0.388595	0.902640
	H96	H	0.410311	0.116239	0.577155
	H97	H	0.599720	0.886078	0.592022
	H98	H	0.592338	0.119130	0.400782
	H99	H	0.408849	0.888131	0.407185
	H100	H	0.599053	0.404321	0.113966
	H101	H	0.595985	0.595754	0.879631
	H102	H	0.416902	0.595128	0.109914
	H103	H	0.414694	0.410343	0.881466
	H104	H	0.118113	0.597800	0.404457
	H105	H	0.886330	0.602144	0.585260
	H106	H	0.118526	0.409980	0.586099
	H107	H	0.888031	0.414990	0.403851
	H108	H	0.906250	0.621928	0.089690
	H109	H	0.088871	0.388037	0.095749
	H110	H	0.101387	0.622545	0.901606
	H111	H	0.910947	0.388270	0.901518
	H112	H	0.090577	0.906254	0.610824
	H113	H	0.093207	0.099392	0.380103
	H114	H	0.906660	0.095210	0.611390
	H115	H	0.912770	0.919470	0.383259
	H116	H	0.619967	0.103719	0.901502
	H117	H	0.385842	0.100313	0.090035
	H118	H	0.618457	0.914968	0.091233
	H119	H	0.387346	0.914207	0.900601
	C120	C	0.381006	0.012177	0.617035
	C121	C	0.624620	0.996020	0.617262
	C122	C	0.624332	0.011550	0.374207
	C123	C	0.381063	0.995343	0.374258
	C124	C	0.624923	0.382054	0.003593
	C125	C	0.624791	0.625766	0.987670
	C126	C	0.381647	0.625418	0.004158
	C127	C	0.381451	0.382464	0.987859
	C128	C	0.010668	0.625734	0.374131
	C129	C	0.995014	0.626109	0.617312
	C130	C	0.011154	0.382662	0.617581
	C131	C	0.994360	0.382853	0.374091
	C132	C	0.881554	0.512812	0.117095
	C133	C	0.124628	0.496317	0.116886
	C134	C	0.124823	0.512208	0.873802
	C135	C	0.881717	0.496644	0.874406
	C136	C	0.124115	0.882257	0.503383
	C137	C	0.124344	0.125721	0.487822
	C138	C	0.880632	0.126227	0.503500
	C139	C	0.880925	0.882467	0.487440
	C140	C	0.510417	0.125156	0.874252
	C141	C	0.495373	0.125053	0.117420
	C142	C	0.511289	0.882459	0.117674
	C143	C	0.494781	0.882321	0.874260
	C144	C	0.383610	0.888944	0.672095
	C145	C	0.621502	0.119035	0.672167
	C146	C	0.621837	0.888683	0.319340
	C147	C	0.384270	0.118809	0.319607
	C148	C	0.679729	0.385122	0.880582
	C149	C	0.679189	0.622031	0.110757
	C150	C	0.327500	0.622479	0.881121
	C151	C	0.326294	0.385326	0.110958
	C152	C	0.887395	0.680053	0.377294
	C153	C	0.118243	0.680516	0.613646
	C154	C	0.887714	0.328576	0.614142
	C155	C	0.117758	0.328387	0.377457
	C156	C	0.887746	0.386255	0.672001
	C157	C	0.118762	0.622526	0.671085
	C158	C	0.887794	0.622797	0.319170
	C159	C	0.117483	0.385781	0.319476
	C160	C	0.384849	0.680400	0.881264
	C161	C	0.621624	0.679921	0.110679
	C162	C	0.621975	0.326854	0.880726
	C163	C	0.384673	0.328000	0.111266
	C164	C	0.679052	0.888456	0.377506
	C165	C	0.679367	0.118907	0.614511
	C166	C	0.326414	0.888678	0.614113
	C167	C	0.326651	0.118835	0.377730
	C168	C	0.884030	0.389759	0.172015
	C169	C	0.121995	0.619071	0.171987
	C170	C	0.122179	0.389238	0.818798
	C171	C	0.884124	0.619489	0.818857
	C172	C	0.179077	0.885136	0.380745
	C173	C	0.178347	0.121963	0.610938
	C174	C	0.826391	0.122881	0.380403
	C175	C	0.826826	0.886164	0.610715
	C176	C	0.387416	0.180132	0.877851
	C177	C	0.618505	0.180116	0.114462
	C178	C	0.388231	0.827107	0.115018
	C179	C	0.618227	0.828010	0.877791
	C180	C	0.388333	0.884598	0.172802
	C181	C	0.618523	0.122007	0.172125
	C182	C	0.387570	0.123018	0.819219
	C183	C	0.617827	0.885145	0.819135
	C184	C	0.883713	0.180989	0.380728
	C185	C	0.121167	0.180353	0.610643
	C186	C	0.120963	0.827831	0.380288
	C187	C	0.883954	0.827852	0.610673
	C188	C	0.179694	0.389190	0.876612
	C189	C	0.179278	0.619486	0.113753
	C190	C	0.826615	0.389788	0.114616
	C191	C	0.827011	0.619842	0.877374
	C192	C	0.402796	0.097806	0.595272
	C193	C	0.602747	0.909840	0.595428
	C194	C	0.602284	0.097573	0.396163
	C195	C	0.403282	0.909610	0.396331
	C196	C	0.603083	0.403899	0.089309
	C197	C	0.602936	0.604329	0.901434
	C198	C	0.403440	0.603229	0.090005
	C199	C	0.403196	0.403855	0.902292
	C200	C	0.096499	0.603856	0.396079
	C201	C	0.908955	0.604425	0.595814
	C202	C	0.097053	0.404318	0.595876
	C203	C	0.908382	0.405063	0.396112
	C204	C	0.903597	0.598748	0.095111
	C205	C	0.102767	0.410394	0.095155
	C206	C	0.103042	0.598196	0.895398
	C207	C	0.903734	0.410720	0.896351
	C208	C	0.102038	0.904199	0.589038
	C209	C	0.102490	0.103989	0.401522
	C210	C	0.902981	0.104062	0.589031
	C211	C	0.902364	0.903745	0.401461
	C212	C	0.595892	0.102701	0.896337
	C213	C	0.409368	0.103284	0.095799
	C214	C	0.597019	0.904576	0.095623
	C215	C	0.408707	0.904060	0.895819
	Zn216	Zn	0.502451	0.003824	0.745238
	Zn217	Zn	0.502975	0.003841	0.246209
	Zn218	Zn	0.753397	0.504473	-0.004383
	Zn219	Zn	0.252988	0.504300	-0.004466
	Zn220	Zn	0.002361	0.753905	0.495472
	Zn221	Zn	0.002791	0.254205	0.495611
	Zn222	Zn	0.003340	0.504327	0.745765
	Zn223	Zn	0.003063	0.504263	0.245373
	Zn224	Zn	0.503082	0.753970	-0.003783
	Zn225	Zn	0.503061	0.253615	-0.003917
	Zn226	Zn	0.752867	0.004223	0.495165
	Zn227	Zn	0.252785	0.003863	0.496218
	N228	N	0.417069	0.966413	0.673863
	N229	N	0.588232	0.041423	0.673933
	N230	N	0.588273	0.966105	0.317462
	N231	N	0.417554	0.041187	0.317471
	N232	N	0.681734	0.418622	0.958018
	N233	N	0.680964	0.588901	0.033238
	N234	N	0.325335	0.589164	0.958415
	N235	N	0.324358	0.418633	0.033512
	N236	N	0.964734	0.681814	0.410978
	N237	N	0.040500	0.682718	0.580997
	N238	N	0.965452	0.326209	0.580911
	N239	N	0.040124	0.326277	0.410395
	N240	N	0.965402	0.419007	0.674300
	N241	N	0.040947	0.589241	0.673529
	N242	N	0.965528	0.589958	0.316817
	N243	N	0.039904	0.419073	0.317397
	N244	N	0.417933	0.682205	0.958958
	N245	N	0.588570	0.682279	0.033176
	N246	N	0.588561	0.325159	0.958118
	N247	N	0.418190	0.325903	0.033924
	N248	N	0.680594	0.966020	0.410879
	N249	N	0.681433	0.041458	0.581214
	N250	N	0.324826	0.966191	0.580560
	N251	N	0.324617	0.041257	0.410859
	N252	N	0.917647	0.467100	0.173589
	N253	N	0.088458	0.541577	0.173765
	N254	N	0.088900	0.466728	0.816778
	N255	N	0.917474	0.541859	0.816973
	N256	N	0.180988	0.918345	0.458135
	N257	N	0.180340	0.088748	0.533388
	N258	N	0.824637	0.089367	0.457822
	N259	N	0.824829	0.919217	0.533165
	N260	N	0.464794	0.181594	0.911290
	N261	N	0.540866	0.182096	0.081373
	N262	N	0.465582	0.825725	0.081342
	N263	N	0.540711	0.826142	0.911239
	N264	N	0.465762	0.918245	0.174651
	N265	N	0.540954	0.088614	0.174160
	N266	N	0.465098	0.089703	0.816767
	N267	N	0.540233	0.918185	0.816868
	N268	N	0.916887	0.183135	0.458133
	N269	N	0.088353	0.182714	0.532920
	N270	N	0.087629	0.825699	0.457754
	N271	N	0.917114	0.825492	0.533114
	N272	N	0.181240	0.466769	0.910198
	N273	N	0.181123	0.541956	0.080453
	N274	N	0.824785	0.467412	0.081213
	N275	N	0.825282	0.542405	0.910935
	O276	O	1.052448	0.104227	0.967468
	H277	H	1.052313	0.096184	0.964545
	H278	H	1.057400	0.110410	0.967745
	O279	O	-0.018797	0.065056	0.930863
	H280	H	-0.025803	0.069152	0.931018
	H281	H	-0.018402	0.067997	0.930980
	O282	O	1.030309	1.071446	-0.051410
	H283	H	1.017157	1.067643	-0.055466
	H284	H	1.028602	1.067161	-0.058191
	O285	O	0.004245	0.094114	0.948063
	H286	H	0.015981	0.097112	0.947902
	H287	H	0.012828	0.101228	0.955534
