data_Molecule from HDF5

_cell_length_a		16.658768
_cell_length_b		16.734017
_cell_length_c		16.520579
_cell_angle_alpha	90.067824
_cell_angle_beta	90.105306
_cell_angle_gamma	90.105459
_symmetry_space_group_name_H-M	'P 1'
_symmetry_Int_Tables_number		1

loop_
	_symmetry_equiv_pos_as_xyz
	x,y,z

loop_
	_atom_site_label
	_atom_site_type_symbol
	_atom_site_fract_x
	_atom_site_fract_y
	_atom_site_fract_z
	H0	H	0.404578	0.838736	0.710797
	H1	H	0.615624	0.146853	0.714045
	H2	H	0.618079	0.843482	0.263954
	H3	H	0.403078	0.149775	0.267795
	H4	H	0.727201	0.391391	0.832820
	H5	H	0.725791	0.595751	0.148477
	H6	H	0.286975	0.600091	0.834885
	H7	H	0.284219	0.384788	0.143639
	H8	H	0.858236	0.720190	0.380876
	H9	H	0.164211	0.717214	0.597013
	H10	H	0.854659	0.273734	0.594885
	H11	H	0.165316	0.274285	0.385683
	H12	H	0.852480	0.393444	0.707381
	H13	H	0.164775	0.600092	0.712380
	H14	H	0.855609	0.600157	0.268961
	H15	H	0.163253	0.388816	0.267795
	H16	H	0.400817	0.716967	0.836672
	H17	H	0.610492	0.711563	0.148672
	H18	H	0.614849	0.273101	0.833801
	H19	H	0.397852	0.268375	0.142679
	H20	H	0.738567	0.846226	0.376504
	H21	H	0.733849	0.146667	0.599886
	H22	H	0.286254	0.839728	0.595361
	H23	H	0.287447	0.149799	0.384652
	H24	H	0.904497	0.339715	0.211156
	H25	H	0.121556	0.644454	0.218809
	H26	H	0.112278	0.340477	0.768073
	H27	H	0.905304	0.651333	0.771331
	H28	H	0.231790	0.888306	0.336394
	H29	H	0.229455	0.098265	0.648149
	H30	H	0.788008	0.101615	0.336015
	H31	H	0.785040	0.886192	0.643520
	H32	H	0.356587	0.216368	0.881284
	H33	H	0.662046	0.219634	0.099032
	H34	H	0.355520	0.771625	0.098417
	H35	H	0.662881	0.770179	0.882776
	H36	H	0.354279	0.890449	0.211799
	H37	H	0.660946	0.104922	0.215996
	H38	H	0.354192	0.095696	0.770179
	H39	H	0.662915	0.885227	0.765826
	H40	H	0.904403	0.216125	0.335310
	H41	H	0.115942	0.216056	0.647681
	H42	H	0.118171	0.770254	0.337276
	H43	H	0.899602	0.770799	0.643944
	H44	H	0.234294	0.343058	0.878927
	H45	H	0.236842	0.644878	0.102187
	H46	H	0.787071	0.340194	0.094910
	H47	H	0.787647	0.650521	0.886806
	H48	H	0.416244	0.104244	0.573032
	H49	H	0.598440	0.884452	0.572789
	H50	H	0.593797	0.103702	0.404484
	H51	H	0.422980	0.885938	0.400445
	H52	H	0.598030	0.406015	0.102504
	H53	H	0.594314	0.588373	0.877088
	H54	H	0.425023	0.587127	0.103216
	H55	H	0.423586	0.405372	0.878918
	H56	H	0.121768	0.583562	0.400722
	H57	H	0.897196	0.582622	0.583206
	H58	H	0.122654	0.404469	0.583188
	H59	H	0.899379	0.409236	0.403097
	H60	H	0.121464	0.402880	0.578455
	H61	H	0.896319	0.590383	0.579286
	H62	H	0.118996	0.585375	0.411094
	H63	H	0.896130	0.402262	0.399403
	H64	H	0.415437	0.580265	0.104225
	H65	H	0.602366	0.584949	0.875972
	H66	H	0.596629	0.405230	0.101227
	H67	H	0.420520	0.407908	0.878242
	H68	H	0.599330	0.105497	0.408232
	H69	H	0.599046	0.882743	0.577522
	H70	H	0.415359	0.108210	0.585904
	H71	H	0.419105	0.885511	0.404571
	H72	H	0.913387	0.607589	0.078945
	H73	H	0.098449	0.384057	0.076199
	H74	H	0.096994	0.603623	0.905115
	H75	H	0.920238	0.386945	0.904498
	H76	H	0.099995	0.914127	0.602147
	H77	H	0.100869	0.079436	0.378991
	H78	H	0.928211	0.090750	0.603663
	H79	H	0.922912	0.913805	0.380748
	H80	H	0.623809	0.087501	0.899398
	H81	H	0.398500	0.079221	0.078443
	H82	H	0.621760	0.899056	0.073853
	H83	H	0.400164	0.909742	0.902151
	H84	H	0.616475	0.911197	0.073792
	H85	H	0.396275	0.085566	0.077470
	H86	H	0.619532	0.083743	0.908878
	H87	H	0.395913	0.902143	0.897344
	H88	H	0.914011	0.084214	0.606916
	H89	H	0.094245	0.087349	0.379748
	H90	H	0.089947	0.905661	0.600344
	H91	H	0.930343	0.910691	0.382091
	H92	H	0.098594	0.605351	0.903134
	H93	H	0.091978	0.385078	0.078642
	H94	H	0.920283	0.607371	0.085296
	H95	H	0.908996	0.381407	0.900246
	H96	H	0.426493	0.102863	0.581691
	H97	H	0.594564	0.884644	0.576168
	H98	H	0.599090	0.106117	0.401068
	H99	H	0.417815	0.883968	0.399693
	H100	H	0.596927	0.404362	0.102756
	H101	H	0.595697	0.579418	0.878771
	H102	H	0.424882	0.575865	0.099709
	H103	H	0.424454	0.409309	0.879888
	H104	H	0.117447	0.575552	0.406839
	H105	H	0.899526	0.583663	0.574555
	H106	H	0.121249	0.407959	0.579696
	H107	H	0.899355	0.401841	0.407358
	H108	H	0.921806	0.603248	0.076658
	H109	H	0.093067	0.386902	0.072330
	H110	H	0.095610	0.605257	0.902499
	H111	H	0.919420	0.381979	0.892260
	H112	H	0.101386	0.901333	0.605809
	H113	H	0.104087	0.088912	0.375621
	H114	H	0.925543	0.075944	0.599336
	H115	H	0.924583	0.906420	0.378684
	H116	H	0.619242	0.077420	0.899902
	H117	H	0.400099	0.082605	0.072489
	H118	H	0.622623	0.906482	0.084771
	H119	H	0.399259	0.900962	0.906727
	C120	C	0.387469	0.002447	0.611864
	C121	C	0.630914	0.985166	0.610920
	C122	C	0.631361	0.004441	0.368817
	C123	C	0.387869	0.987429	0.369193
	C124	C	0.629586	0.373414	-0.001515
	C125	C	0.628799	0.615080	0.981733
	C126	C	0.387751	0.615142	-0.000025
	C127	C	0.388037	0.372975	0.980952
	C128	C	0.018521	0.615673	0.370571
	C129	C	1.000387	0.617506	0.612210
	C130	C	0.018561	0.373881	0.611835
	C131	C	1.001000	0.372622	0.370105
	C132	C	0.886951	0.503237	0.112063
	C133	C	0.130266	0.485583	0.111403
	C134	C	0.129707	0.503316	0.869325
	C135	C	0.885555	0.486556	0.868555
	C136	C	0.130412	0.874007	0.499767
	C137	C	0.131618	0.116790	0.482247
	C138	C	0.889768	0.115964	0.500028
	C139	C	0.889949	0.874856	0.481364
	C140	C	0.518597	0.114586	0.869037
	C141	C	0.499979	0.116723	0.110976
	C142	C	0.517890	0.873677	0.111269
	C143	C	0.500745	0.871443	0.868984
	C144	C	0.385771	0.885250	0.670834
	C145	C	0.634193	0.100403	0.673775
	C146	C	0.636091	0.890030	0.304822
	C147	C	0.385299	0.103516	0.308491
	C148	C	0.688805	0.372008	0.880498
	C149	C	0.686478	0.614851	0.101179
	C150	C	0.326910	0.618274	0.882429
	C151	C	0.324679	0.367315	0.096813
	C152	C	0.903449	0.678096	0.364743
	C153	C	0.117483	0.677237	0.615384
	C154	C	0.901177	0.314345	0.613158
	C155	C	0.117983	0.313290	0.366933
	C156	C	0.900091	0.373552	0.669213
	C157	C	0.117880	0.618685	0.672298
	C158	C	0.902376	0.618964	0.308668
	C159	C	0.117311	0.370590	0.308879
	C160	C	0.383702	0.676338	0.883113
	C161	C	0.629065	0.672235	0.101219
	C162	C	0.632616	0.313308	0.880968
	C163	C	0.381654	0.309739	0.096587
	C164	C	0.695775	0.890919	0.360891
	C165	C	0.692654	0.100622	0.616624
	C166	C	0.327020	0.885971	0.613589
	C167	C	0.327517	0.103304	0.366484
	C168	C	0.885562	0.386485	0.171534
	C169	C	0.137289	0.599135	0.176329
	C170	C	0.131609	0.387276	0.807703
	C171	C	0.885754	0.604220	0.810593
	C172	C	0.191338	0.870476	0.382729
	C173	C	0.190187	0.117523	0.600889
	C174	C	0.828764	0.119143	0.382792
	C175	C	0.826467	0.869534	0.597232
	C176	C	0.402319	0.174869	0.864687
	C177	C	0.615569	0.178846	0.116111
	C178	C	0.401462	0.812855	0.115362
	C179	C	0.616656	0.810471	0.865015
	C180	C	0.401163	0.871696	0.171884
	C181	C	0.615412	0.121582	0.174057
	C182	C	0.401270	0.114917	0.809467
	C183	C	0.616794	0.867915	0.807111
	C184	C	0.886829	0.175956	0.382463
	C185	C	0.133968	0.176139	0.600402
	C186	C	0.135076	0.811825	0.383359
	C187	C	0.883516	0.811968	0.597298
	C188	C	0.191890	0.388269	0.863175
	C189	C	0.194923	0.599229	0.118417
	C190	C	0.827176	0.386681	0.113857
	C191	C	0.827014	0.603756	0.867700
	C192	C	0.412385	0.083869	0.587300
	C193	C	0.604650	0.904882	0.583296
	C194	C	0.604806	0.084249	0.396705
	C195	C	0.412807	0.906275	0.394450
	C196	C	0.604413	0.398125	0.080670
	C197	C	0.604634	0.591130	0.898864
	C198	C	0.414211	0.588743	0.081182
	C199	C	0.415236	0.399835	0.900137
	C200	C	0.098631	0.589037	0.398371
	C201	C	0.918971	0.592690	0.586348
	C202	C	0.100459	0.398261	0.587580
	C203	C	0.919439	0.397587	0.395767
	C204	C	0.911414	0.584764	0.087328
	C205	C	0.102355	0.405894	0.083469
	C206	C	0.104347	0.583913	0.896064
	C207	C	0.909245	0.404683	0.892349
	C208	C	0.104433	0.899674	0.581480
	C209	C	0.106938	0.092205	0.399534
	C210	C	0.915360	0.090599	0.582226
	C211	C	0.918017	0.902368	0.401206
	C212	C	0.599759	0.089936	0.895161
	C213	C	0.419385	0.090021	0.083842
	C214	C	0.599044	0.898538	0.084967
	C215	C	0.419621	0.896942	0.894800
	Zn216	Zn	0.510140	-0.007414	0.740519
	Zn217	Zn	0.509269	-0.004085	0.239729
	Zn218	Zn	0.757409	0.494938	-0.009378
	Zn219	Zn	0.259944	0.493654	-0.009864
	Zn220	Zn	0.009748	0.745911	0.490543
	Zn221	Zn	0.010733	0.244180	0.491510
	Zn222	Zn	0.008227	0.495706	0.740122
	Zn223	Zn	0.009158	0.494263	0.241490
	Zn224	Zn	0.508923	0.743597	-0.008907
	Zn225	Zn	0.508726	0.244823	-0.010701
	Zn226	Zn	0.760974	-0.004893	0.490126
	Zn227	Zn	0.258340	-0.005070	0.490511
	N228	N	0.422625	0.958629	0.670037
	N229	N	0.596449	0.027531	0.670213
	N230	N	0.596670	0.961806	0.309497
	N231	N	0.422026	0.030251	0.309848
	N232	N	0.687195	0.408689	0.954894
	N233	N	0.686915	0.580500	0.025677
	N234	N	0.329087	0.580860	0.956255
	N235	N	0.328459	0.405972	0.023704
	N236	N	0.976817	0.676284	0.402276
	N237	N	0.043214	0.677084	0.579202
	N238	N	0.975974	0.314027	0.578627
	N239	N	0.044415	0.314289	0.404076
	N240	N	0.974249	0.409545	0.668916
	N241	N	0.043734	0.582595	0.670861
	N242	N	0.975062	0.580744	0.311927
	N243	N	0.043436	0.406757	0.310741
	N244	N	0.420528	0.674828	0.957503
	N245	N	0.594213	0.672779	0.025795
	N246	N	0.596512	0.313854	0.955551
	N247	N	0.420333	0.312862	0.023226
	N248	N	0.693008	0.963298	0.399947
	N249	N	0.691151	0.027675	0.578452
	N250	N	0.327885	0.959954	0.577792
	N251	N	0.328852	0.029952	0.403534
	N252	N	0.922034	0.460039	0.170588
	N253	N	0.097552	0.527461	0.172090
	N254	N	0.093797	0.459974	0.811233
	N255	N	0.921535	0.530398	0.810745
	N256	N	0.188449	0.908617	0.456182
	N257	N	0.188845	0.081159	0.526336
	N258	N	0.830436	0.082435	0.457007
	N259	N	0.830267	0.908186	0.524117
	N260	N	0.476342	0.174896	0.901091
	N261	N	0.542574	0.176142	0.077899
	N262	N	0.475288	0.813605	0.078614
	N263	N	0.543348	0.812258	0.902692
	N264	N	0.474660	0.908757	0.169757
	N265	N	0.542380	0.083558	0.170970
	N266	N	0.474704	0.078269	0.811750
	N267	N	0.543725	0.905252	0.809530
	N268	N	0.924052	0.174184	0.456559
	N269	N	0.098270	0.175745	0.525422
	N270	N	0.097764	0.814096	0.457143
	N271	N	0.922482	0.815152	0.524266
	N272	N	0.190879	0.461460	0.900791
	N273	N	0.190592	0.527498	0.078438
	N274	N	0.827630	0.460518	0.077816
	N275	N	0.826618	0.529402	0.902863
	O276	O	-0.225552	1.054670	0.056843
	H277	H	-0.231415	1.036929	0.063580
	H278	H	-0.222189	1.044349	0.028534
	O279	O	0.363486	0.656183	0.276498
	H280	H	0.355590	0.660033	0.291166
	H281	H	0.404789	0.658270	0.284909
	O282	O	1.228399	0.218976	0.993709
	H283	H	1.241073	0.234312	1.008985
	H284	H	1.227711	0.220756	1.019733
	O285	O	0.535574	0.713716	0.701867
	H286	H	0.542581	0.723177	0.721897
	H287	H	0.550266	0.714883	0.700019
	O288	O	0.396690	0.480556	0.368724
	H289	H	0.412092	0.486291	0.359046
	H290	H	0.391675	0.474857	0.357298
	O291	O	0.703263	0.298380	0.678916
	H292	H	0.681370	0.305993	0.652163
	H293	H	0.685480	0.325688	0.666749
	O294	O	1.224986	-0.115789	1.102428
	H295	H	1.217393	-0.136516	1.095497
	H296	H	1.235487	-0.129393	1.113698
	O297	O	0.180898	0.837276	0.248070
	H298	H	0.182883	0.834492	0.274379
	H299	H	0.219262	0.836614	0.249605
	O300	O	-0.211075	0.210280	0.959333
	H301	H	-0.213637	0.203402	0.966333
	H302	H	-0.226949	0.221243	0.958995
	O303	O	0.474677	0.713430	0.276794
	H304	H	0.494618	0.721789	0.300782
	H305	H	0.484095	0.733843	0.261830
	O306	O	0.558715	0.472865	0.399329
	H307	H	0.558440	0.474014	0.397716
	H308	H	0.559094	0.472982	0.406699
	O309	O	0.722971	0.655582	0.700228
	H310	H	0.749004	0.672556	0.731151
	H311	H	0.727599	0.617190	0.700751
	O312	O	0.358967	0.486202	0.465520
	H313	H	0.359337	0.487894	0.450197
	H314	H	0.370149	0.486958	0.461177
	O315	O	1.130573	0.789354	1.112399
	H316	H	1.150402	0.780659	1.116847
	H317	H	1.125384	0.775848	1.097405
	O318	O	0.731660	0.516908	0.661789
	H319	H	0.722691	0.512627	0.660812
	H320	H	0.734586	0.508290	0.676348
	O321	O	-0.003526	0.951827	1.047195
	H322	H	-0.017639	0.935584	1.056946
	H323	H	0.005235	0.949940	1.060837
	O324	O	0.981035	1.086312	0.198540
	H325	H	0.988185	1.066843	0.211825
	H326	H	0.978556	1.085858	0.197625
	O327	O	-0.206770	-0.020122	1.204920
	H328	H	-0.197078	-0.029426	1.202772
	H329	H	-0.232575	-0.026925	1.214798
	O330	O	0.722264	0.718307	0.496909
	H331	H	0.737162	0.712922	0.521251
	H332	H	0.729325	0.722607	0.521871
	O333	O	0.136142	1.035579	1.092272
	H334	H	0.138967	1.011094	1.084262
	H335	H	0.119282	1.029891	1.098087
	O336	O	0.316434	0.659591	0.680926
	H337	H	0.308106	0.670803	0.682092
	H338	H	0.327174	0.652500	0.681100
	O339	O	0.945083	0.112670	0.923864
	H340	H	0.937462	0.119348	0.921724
	H341	H	0.932161	0.116411	0.939263
	O342	O	-0.179562	-0.149562	-0.008691
	H343	H	-0.155431	-0.147553	-0.008548
	H344	H	-0.199004	-0.175099	-0.001559
	O345	O	-0.279040	1.287290	1.286013
	H346	H	-0.259162	1.262706	1.256877
	H347	H	-0.299475	1.276715	1.296157
	O348	O	0.226580	-0.219524	-0.028090
	H349	H	0.229085	-0.217925	-0.041585
	H350	H	0.239799	-0.241781	-0.024834
	O351	O	0.600286	0.438304	0.692007
	H352	H	0.587878	0.420724	0.670241
	H353	H	0.562291	0.440608	0.700814
	O354	O	-0.211595	-0.076031	0.939386
	H355	H	-0.203814	-0.079568	0.921424
	H356	H	-0.210403	-0.108003	0.949466
	O357	O	0.741736	0.550743	0.450666
	H358	H	0.741590	0.549967	0.442558
	H359	H	0.740175	0.548595	0.445839
	O360	O	0.372786	0.348230	0.540381
	H361	H	0.376307	0.358222	0.540507
	H362	H	0.371400	0.342755	0.534304
	O363	O	0.028477	0.220914	0.090427
	H364	H	0.024684	0.219914	0.079218
	H365	H	0.036406	0.212896	0.072869
	O366	O	0.736085	0.464557	0.270522
	H367	H	0.749149	0.441975	0.257847
	H368	H	0.742311	0.437837	0.255369
	O369	O	0.527613	0.452249	0.275509
	H370	H	0.517750	0.452989	0.283865
	H371	H	0.516064	0.460425	0.278969
	O372	O	0.912648	0.988646	-0.182784
	H373	H	0.924062	0.994920	-0.168116
	H374	H	0.904078	1.014310	-0.192270
	O375	O	1.240865	0.017866	-0.059685
	H376	H	1.242398	0.023043	-0.062648
	H377	H	1.235741	0.025057	-0.048115
	O378	O	0.052268	0.773900	0.768629
	H379	H	0.037596	0.771987	0.751171
	H380	H	0.074953	0.762095	0.758610
	O381	O	0.036937	0.835194	0.913968
	H382	H	0.033267	0.831958	0.913870
	H383	H	0.026931	0.832233	0.905206
	O384	O	0.491582	-0.461772	0.309487
	H385	H	0.512159	-0.485384	0.303160
	H386	H	0.494662	-0.465076	0.316809
	O387	O	1.227828	1.234959	0.217851
	H388	H	1.231554	1.194505	0.207513
	H389	H	1.185176	1.236323	0.211829
	O390	O	0.299911	0.465014	0.350496
	H391	H	0.289316	0.473984	0.330228
	H392	H	0.308351	0.482580	0.351417
	O393	O	0.475583	0.271431	0.715103
	H394	H	0.460776	0.261304	0.710544
	H395	H	0.454053	0.251562	0.733567
	O396	O	-0.178905	0.805034	0.799241
	H397	H	-0.176716	0.827009	0.805578
	H398	H	-0.164546	0.814732	0.815016
	O399	O	0.054016	0.158269	1.157323
	H400	H	0.038485	0.153733	1.150966
	H401	H	0.050088	0.178724	1.173205
	O402	O	1.048974	0.234760	-0.070592
	H403	H	1.044746	0.227323	-0.083036
	H404	H	1.057444	0.240309	-0.077521
	O405	O	1.049186	0.066186	0.985164
	H406	H	1.044543	0.063757	0.980450
	H407	H	1.045851	0.074038	0.982406
	O408	O	0.227045	-0.042054	-0.224423
	H409	H	0.230160	-0.027731	-0.223207
	H410	H	0.237386	-0.045149	-0.234773
	O411	O	0.390478	0.292219	0.364092
	H412	H	0.375536	0.297614	0.360769
	H413	H	0.374760	0.292910	0.361958
	O414	O	0.804893	0.207823	0.781264
	H415	H	0.770975	0.238823	0.749079
	H416	H	0.813527	0.210722	0.811547
	O417	O	0.372107	0.261593	0.479603
	H418	H	0.362675	0.264260	0.452964
	H419	H	0.352344	0.257222	0.469046
	O420	O	0.301509	0.451135	0.688584
	H421	H	0.293599	0.432497	0.703255
	H422	H	0.285556	0.425596	0.698625
	O423	O	-0.053418	-0.145974	1.058484
	H424	H	-0.031157	-0.146273	1.059376
	H425	H	-0.048075	-0.150676	1.052027
	O426	O	0.623494	0.636211	0.602070
	H427	H	0.619557	0.616787	0.609900
	H428	H	0.607824	0.639466	0.607159
	O429	O	0.924080	0.776907	1.036963
	H430	H	0.913295	0.783281	1.056862
	H431	H	0.911681	0.768193	1.048568
	O432	O	0.481516	0.503816	0.512743
	H433	H	0.474306	0.488274	0.528818
	H434	H	0.479860	0.506238	0.509647
	O435	O	0.214813	0.791521	-0.200778
	H436	H	0.194304	0.780769	-0.177133
	H437	H	0.225744	0.824699	-0.216130
	O438	O	0.024939	-0.067061	0.143178
	H439	H	0.035978	-0.062810	0.137973
	H440	H	0.020417	-0.098055	0.154773
	O441	O	0.163017	0.044713	0.214224
	H442	H	0.166891	0.052943	0.201303
	H443	H	0.181401	0.036897	0.230145
	O444	O	0.683966	0.315775	0.447103
	H445	H	0.676892	0.319717	0.429406
	H446	H	0.705571	0.296403	0.456024
	O447	O	-0.000621	0.929522	0.854757
	H448	H	-0.002109	0.913170	0.856613
	H449	H	0.002093	0.914967	0.862240
	O450	O	0.202618	1.188757	0.800962
	H451	H	0.195468	1.181560	0.836227
	H452	H	0.180048	1.159149	0.809909
	O453	O	0.352089	0.667884	0.409958
	H454	H	0.345580	0.661696	0.420511
	H455	H	0.356487	0.677459	0.424758
	O456	O	0.301206	0.288015	0.698309
	H457	H	0.301040	0.275087	0.660571
	H458	H	0.270600	0.262431	0.726631
	O459	O	0.699242	0.690273	0.303423
	H460	H	0.679884	0.664295	0.315963
	H461	H	0.685671	0.684313	0.335266
	O462	O	0.540702	0.273105	0.269907
	H463	H	0.530102	0.279251	0.261655
	H464	H	0.549604	0.257403	0.252881
	O465	O	0.976247	0.220427	-0.229120
	H466	H	0.966607	0.237061	-0.251864
	H467	H	0.959432	0.224502	-0.225625
	O468	O	0.285862	0.560136	0.551998
	H469	H	0.288767	0.553319	0.560089
	H470	H	0.288126	0.539945	0.561072
	O471	O	0.530216	0.485795	0.621035
	H472	H	0.526557	0.474153	0.623499
	H473	H	0.529896	0.483577	0.624089
	O474	O	0.453185	0.709213	0.421241
	H475	H	0.448095	0.693064	0.438042
	H476	H	0.465709	0.716152	0.437995
	O477	O	0.439958	0.565857	1.709626
	H478	H	0.440806	0.576018	1.701840
	H479	H	0.423591	0.560931	1.711801
	O480	O	0.448476	0.724762	0.540576
	H481	H	0.448810	0.731067	0.546917
	H482	H	0.449296	0.711334	0.548146
	O483	O	0.572210	0.264663	0.546913
	H484	H	0.548983	0.258875	0.531492
	H485	H	0.577790	0.264696	0.538258
	O486	O	1.089813	0.061728	0.778588
	H487	H	1.057411	0.057655	0.780549
	H488	H	1.088505	0.048394	0.770110
	O489	O	0.817994	1.187379	0.180765
	H490	H	0.838570	1.173563	0.161536
	H491	H	0.830066	1.162223	0.162151
	O492	O	-0.005987	-0.233434	0.208994
	H493	H	-0.005435	-0.254595	0.206524
	H494	H	-0.022189	-0.242520	0.217149
	O495	O	-0.209717	1.010071	0.770869
	H496	H	-0.225161	1.022350	0.750953
	H497	H	-0.217503	1.032935	0.776747
	O498	O	0.796398	0.777138	1.194723
	H499	H	0.764374	0.749288	1.230930
	H500	H	0.810074	0.796205	1.187411
	O501	O	0.723438	0.373530	0.507481
	H502	H	0.716887	0.363367	0.501683
	H503	H	0.728182	0.372269	0.500514
