data_Molecule from HDF5

_cell_length_a		16.340441
_cell_length_b		16.220043
_cell_length_c		16.271689
_cell_angle_alpha	90.055210
_cell_angle_beta	89.940585
_cell_angle_gamma	90.128721
_symmetry_space_group_name_H-M	'P 1'
_symmetry_Int_Tables_number		1

loop_
	_symmetry_equiv_pos_as_xyz
	x,y,z

loop_
	_atom_site_label
	_atom_site_type_symbol
	_atom_site_fract_x
	_atom_site_fract_y
	_atom_site_fract_z
	H0	H	0.393993	0.830100	0.706161
	H1	H	0.589262	0.158116	0.707371
	H2	H	0.588330	0.830021	0.279384
	H3	H	0.393826	0.158647	0.280061
	H4	H	0.706424	0.395328	0.829824
	H5	H	0.706547	0.593968	0.156944
	H6	H	0.276947	0.592302	0.828977
	H7	H	0.275944	0.394922	0.156437
	H8	H	0.827650	0.707363	0.396114
	H9	H	0.154548	0.708145	0.590127
	H10	H	0.827253	0.279795	0.590958
	H11	H	0.154970	0.281510	0.396528
	H12	H	0.828218	0.394541	0.709029
	H13	H	0.155059	0.592453	0.706974
	H14	H	0.827698	0.592906	0.278284
	H15	H	0.154151	0.395307	0.277603
	H16	H	0.395494	0.706396	0.828428
	H17	H	0.588221	0.707741	0.157459
	H18	H	0.588970	0.280475	0.829277
	H19	H	0.394505	0.281514	0.157959
	H20	H	0.705574	0.830504	0.394096
	H21	H	0.704726	0.158617	0.591479
	H22	H	0.276542	0.830216	0.592153
	H23	H	0.277759	0.158706	0.394633
	H24	H	0.893390	0.329717	0.206621
	H25	H	0.088355	0.658673	0.206435
	H26	H	0.087967	0.328759	0.780479
	H27	H	0.894936	0.658253	0.780164
	H28	H	0.207337	0.894680	0.330209
	H29	H	0.204298	0.092915	0.657029
	H30	H	0.777022	0.093956	0.329393
	H31	H	0.775994	0.894847	0.657079
	H32	H	0.327688	0.207338	0.896470
	H33	H	0.654752	0.208900	0.090846
	H34	H	0.327714	0.778996	0.092666
	H35	H	0.654889	0.780810	0.894803
	H36	H	0.327772	0.895341	0.208948
	H37	H	0.654576	0.093549	0.208007
	H38	H	0.328053	0.091433	0.779472
	H39	H	0.654202	0.895863	0.778320
	H40	H	0.894977	0.207577	0.328880
	H41	H	0.087076	0.207203	0.657135
	H42	H	0.089325	0.780202	0.328308
	H43	H	0.894098	0.781018	0.657750
	H44	H	0.204974	0.329399	0.894724
	H45	H	0.205821	0.658428	0.091747
	H46	H	0.775762	0.330436	0.092984
	H47	H	0.778390	0.658243	0.894546
	H48	H	0.399806	0.111998	0.592191
	H49	H	0.582926	0.874871	0.595257
	H50	H	0.579640	0.108422	0.407366
	H51	H	0.394142	0.878856	0.407522
	H52	H	0.583081	0.411523	0.106721
	H53	H	0.591691	0.593345	0.873408
	H54	H	0.397401	0.577424	0.107018
	H55	H	0.395698	0.403947	0.876920
	H56	H	0.110051	0.594378	0.396262
	H57	H	0.871634	0.595965	0.589132
	H58	H	0.103698	0.406534	0.581251
	H59	H	0.872909	0.396281	0.397370
	H60	H	0.109036	0.402819	0.595747
	H61	H	0.878004	0.584073	0.579848
	H62	H	0.105320	0.586327	0.407009
	H63	H	0.876465	0.400472	0.404090
	H64	H	0.405785	0.590850	0.108214
	H65	H	0.588585	0.579241	0.878160
	H66	H	0.577701	0.395796	0.110069
	H67	H	0.401938	0.400910	0.877841
	H68	H	0.594860	0.114333	0.401904
	H69	H	0.578032	0.879903	0.580171
	H70	H	0.400263	0.109945	0.581812
	H71	H	0.394317	0.874507	0.394899
	H72	H	0.902404	0.609779	0.084581
	H73	H	0.085211	0.377249	0.083104
	H74	H	0.090950	0.610486	0.906066
	H75	H	0.896447	0.376125	0.901306
	H76	H	0.083770	0.905747	0.607326
	H77	H	0.092091	0.093270	0.372129
	H78	H	0.899944	0.096530	0.611591
	H79	H	0.894246	0.909163	0.379079
	H80	H	0.608310	0.093033	0.902320
	H81	H	0.371034	0.089121	0.099549
	H82	H	0.606812	0.900802	0.089076
	H83	H	0.375203	0.898749	0.902806
	H84	H	0.606595	0.900135	0.083693
	H85	H	0.374723	0.097199	0.079433
	H86	H	0.605422	0.083153	0.902713
	H87	H	0.376438	0.903343	0.899857
	H88	H	0.888236	0.085136	0.612471
	H89	H	0.088618	0.078965	0.377645
	H90	H	0.080555	0.897953	0.609371
	H91	H	0.906354	0.901749	0.379405
	H92	H	0.087673	0.613604	0.892732
	H93	H	0.086101	0.376378	0.087479
	H94	H	0.895547	0.612084	0.083662
	H95	H	0.897965	0.376650	0.898953
	H96	H	0.391469	0.113431	0.585835
	H97	H	0.593880	0.875048	0.582336
	H98	H	0.581577	0.112841	0.390557
	H99	H	0.405566	0.879111	0.400206
	H100	H	0.593549	0.399875	0.113214
	H101	H	0.577341	0.589364	0.879143
	H102	H	0.391007	0.590600	0.112749
	H103	H	0.396613	0.396753	0.875132
	H104	H	0.107041	0.580618	0.393727
	H105	H	0.874381	0.580781	0.595428
	H106	H	0.108918	0.391950	0.583954
	H107	H	0.874862	0.404750	0.396820
	H108	H	0.898244	0.611895	0.090218
	H109	H	0.082190	0.377565	0.086166
	H110	H	0.077821	0.608966	0.901533
	H111	H	0.898847	0.377371	0.901634
	H112	H	0.088841	0.899996	0.611688
	H113	H	0.077397	0.090501	0.377033
	H114	H	0.903028	0.081027	0.606497
	H115	H	0.894667	0.895330	0.373466
	H116	H	0.608726	0.087485	0.893840
	H117	H	0.379562	0.076317	0.083716
	H118	H	0.605835	0.905004	0.086054
	H119	H	0.373550	0.898727	0.896503
	C120	C	0.369242	0.002826	0.614712
	C121	C	0.612824	0.985654	0.614285
	C122	C	0.613185	0.003188	0.371485
	C123	C	0.369998	0.986057	0.372353
	C124	C	0.612868	0.373561	0.001674
	C125	C	0.613823	0.616292	0.985127
	C126	C	0.369904	0.615172	0.001313
	C127	C	0.369825	0.372289	0.984807
	C128	C	-0.000661	0.615656	0.371128
	C129	C	0.982886	0.615385	0.615346
	C130	C	-0.000948	0.372200	0.615001
	C131	C	0.982943	0.372389	0.371104
	C132	C	0.869914	0.502758	0.114655
	C133	C	0.112670	0.485669	0.114207
	C134	C	0.113007	0.502412	0.871514
	C135	C	0.869955	0.485361	0.872028
	C136	C	0.113033	0.872341	0.501470
	C137	C	0.113111	0.115860	0.484332
	C138	C	0.869479	0.115901	0.501600
	C139	C	0.869635	0.873069	0.485472
	C140	C	0.499725	0.115819	0.871941
	C141	C	0.483136	0.116182	0.115418
	C142	C	0.498998	0.872915	0.115348
	C143	C	0.482937	0.872138	0.871566
	C144	C	0.372681	0.879208	0.668966
	C145	C	0.609610	0.109366	0.669241
	C146	C	0.609848	0.879184	0.316719
	C147	C	0.373215	0.109662	0.317619
	C148	C	0.668294	0.375139	0.878566
	C149	C	0.668298	0.613951	0.108269
	C150	C	0.315442	0.612478	0.877676
	C151	C	0.314633	0.375157	0.108077
	C152	C	0.876324	0.670020	0.375063
	C153	C	0.105849	0.670345	0.611439
	C154	C	0.875928	0.317780	0.611663
	C155	C	0.105866	0.318150	0.374534
	C156	C	0.876287	0.374996	0.670084
	C157	C	0.106030	0.612843	0.669530
	C158	C	0.876195	0.612892	0.316740
	C159	C	0.105677	0.375003	0.315915
	C160	C	0.374000	0.669330	0.877568
	C161	C	0.609726	0.670498	0.108570
	C162	C	0.609814	0.318200	0.878359
	C163	C	0.373230	0.318640	0.108812
	C164	C	0.667813	0.879485	0.373833
	C165	C	0.667247	0.109423	0.611827
	C166	C	0.314382	0.879345	0.612248
	C167	C	0.315665	0.109682	0.374751
	C168	C	0.872731	0.378891	0.169019
	C169	C	0.109508	0.609689	0.168734
	C170	C	0.109278	0.378188	0.817481
	C171	C	0.874011	0.609313	0.817616
	C172	C	0.168904	0.874133	0.378479
	C173	C	0.166982	0.113317	0.607986
	C174	C	0.814953	0.113850	0.378184
	C175	C	0.814455	0.875141	0.608485
	C176	C	0.376311	0.169881	0.875264
	C177	C	0.606199	0.171253	0.112018
	C178	C	0.376341	0.817319	0.113181
	C179	C	0.605946	0.817976	0.874304
	C180	C	0.376569	0.874926	0.171257
	C181	C	0.605983	0.113736	0.169960
	C182	C	0.376643	0.112504	0.817166
	C183	C	0.605669	0.875598	0.816515
	C184	C	0.873691	0.170041	0.377884
	C185	C	0.108664	0.170160	0.608080
	C186	C	0.109970	0.817712	0.377666
	C187	C	0.872985	0.818218	0.608619
	C188	C	0.167499	0.378559	0.874100
	C189	C	0.167589	0.609552	0.111680
	C190	C	0.814220	0.379265	0.112769
	C191	C	0.815887	0.609233	0.874512
	C192	C	0.390913	0.089633	0.593099
	C193	C	0.591265	0.898853	0.592329
	C194	C	0.591860	0.089616	0.393376
	C195	C	0.391508	0.899770	0.394379
	C196	C	0.591157	0.395835	0.087733
	C197	C	0.592262	0.593917	0.898981
	C198	C	0.391624	0.592943	0.087366
	C199	C	0.391790	0.393924	0.898743
	C200	C	0.085303	0.593511	0.392586
	C201	C	0.896903	0.593362	0.594401
	C202	C	0.085135	0.394015	0.593459
	C203	C	0.896978	0.394193	0.392956
	C204	C	0.892090	0.588927	0.092741
	C205	C	0.090971	0.399402	0.092177
	C206	C	0.091665	0.588860	0.893414
	C207	C	0.891360	0.399019	0.894158
	C208	C	0.090924	0.894767	0.587276
	C209	C	0.092086	0.094033	0.397957
	C210	C	0.890730	0.093956	0.587831
	C211	C	0.891717	0.895521	0.399386
	C212	C	0.585441	0.094483	0.893269
	C213	C	0.397195	0.094177	0.093788
	C214	C	0.584499	0.895448	0.092785
	C215	C	0.397218	0.893766	0.893382
	Zn216	Zn	0.491147	-0.005766	0.742714
	Zn217	Zn	0.491141	-0.005141	0.244099
	Zn218	Zn	0.741938	0.494346	-0.006425
	Zn219	Zn	0.241344	0.494062	-0.007230
	Zn220	Zn	-0.008761	0.743932	0.492908
	Zn221	Zn	-0.009097	0.243936	0.493069
	Zn222	Zn	-0.008668	0.493822	0.744132
	Zn223	Zn	-0.008871	0.494200	0.242550
	Zn224	Zn	0.491351	0.743804	-0.006437
	Zn225	Zn	0.491119	0.244404	-0.006183
	Zn226	Zn	0.741106	-0.005265	0.492913
	Zn227	Zn	0.241287	-0.005576	0.493032
	N228	N	0.406068	0.956991	0.670663
	N229	N	0.576478	0.031239	0.670898
	N230	N	0.576470	0.957124	0.315134
	N231	N	0.406516	0.031856	0.316112
	N232	N	0.670107	0.408934	0.956205
	N233	N	0.670703	0.580769	0.030449
	N234	N	0.312927	0.579583	0.955517
	N235	N	0.312256	0.407719	0.029997
	N236	N	0.953857	0.671711	0.408155
	N237	N	0.028320	0.672050	0.578465
	N238	N	0.953231	0.316035	0.578187
	N239	N	0.028588	0.316613	0.408260
	N240	N	0.953953	0.408098	0.672065
	N241	N	0.028769	0.579116	0.671656
	N242	N	0.953680	0.579780	0.314399
	N243	N	0.028039	0.407850	0.313589
	N244	N	0.407100	0.670975	0.955563
	N245	N	0.576507	0.671923	0.030922
	N246	N	0.575985	0.317053	0.955944
	N247	N	0.406761	0.316866	0.031252
	N248	N	0.669866	0.957478	0.407062
	N249	N	0.669354	0.031486	0.578580
	N250	N	0.312005	0.957535	0.579364
	N251	N	0.313702	0.031812	0.408228
	N252	N	0.906519	0.456617	0.170492
	N253	N	0.076050	0.531812	0.170540
	N254	N	0.076288	0.456090	0.815716
	N255	N	0.906850	0.531290	0.815896
	N256	N	0.170858	0.907505	0.456248
	N257	N	0.169702	0.080248	0.530039
	N258	N	0.812490	0.080611	0.455985
	N259	N	0.812490	0.908681	0.530797
	N260	N	0.453593	0.172129	0.908511
	N261	N	0.528773	0.172580	0.078696
	N262	N	0.453367	0.815811	0.079238
	N263	N	0.528728	0.816024	0.907928
	N264	N	0.453865	0.908929	0.172527
	N265	N	0.528467	0.080263	0.172177
	N266	N	0.454195	0.079356	0.815066
	N267	N	0.528063	0.908324	0.814411
	N268	N	0.906912	0.171435	0.455534
	N269	N	0.075870	0.171918	0.530192
	N270	N	0.076088	0.816383	0.455160
	N271	N	0.906549	0.816816	0.531004
	N272	N	0.169887	0.456762	0.907189
	N273	N	0.169645	0.531440	0.078459
	N274	N	0.812559	0.457133	0.079476
	N275	N	0.813364	0.531129	0.907603
	O276	O	0.945976	-0.037601	1.043818
	H277	H	0.946332	-0.037343	1.042973
	H278	H	0.945796	-0.038615	1.044213
	O279	O	0.969172	0.953196	1.059309
	H280	H	0.960045	0.950608	1.061646
	H281	H	0.973382	0.947853	1.060521
	O282	O	0.960109	0.957189	0.020852
	H283	H	0.956390	0.961944	0.027070
	H284	H	0.966957	0.952624	0.020622
	O285	O	0.955426	0.957592	1.044521
	H286	H	0.955275	0.956193	1.040117
	H287	H	0.950345	0.959445	1.048298
