data_Molecule from HDF5

_cell_length_a		16.271223
_cell_length_b		16.273992
_cell_length_c		16.194978
_cell_angle_alpha	89.974973
_cell_angle_beta	90.448813
_cell_angle_gamma	89.682547
_symmetry_space_group_name_H-M	'P 1'
_symmetry_Int_Tables_number		1

loop_
	_symmetry_equiv_pos_as_xyz
	x,y,z

loop_
	_atom_site_label
	_atom_site_type_symbol
	_atom_site_fract_x
	_atom_site_fract_y
	_atom_site_fract_z
	H0	H	0.401692	0.834534	0.715615
	H1	H	0.594593	0.163453	0.719645
	H2	H	0.596612	0.835638	0.289639
	H3	H	0.396635	0.163119	0.289782
	H4	H	0.708655	0.399025	0.838238
	H5	H	0.711038	0.597277	0.166799
	H6	H	0.277644	0.599765	0.839095
	H7	H	0.282041	0.399318	0.167416
	H8	H	0.832565	0.716917	0.401721
	H9	H	0.160310	0.711013	0.602965
	H10	H	0.832082	0.284516	0.601177
	H11	H	0.159291	0.283623	0.404711
	H12	H	0.830467	0.402659	0.715080
	H13	H	0.158243	0.596496	0.720311
	H14	H	0.831603	0.598919	0.287317
	H15	H	0.159148	0.400485	0.290482
	H16	H	0.393649	0.714830	0.838727
	H17	H	0.594781	0.712138	0.167554
	H18	H	0.593134	0.283008	0.838787
	H19	H	0.396874	0.283498	0.166508
	H20	H	0.711320	0.835100	0.406587
	H21	H	0.713315	0.162943	0.604852
	H22	H	0.283628	0.835378	0.603163
	H23	H	0.278938	0.161724	0.402817
	H24	H	0.898809	0.335101	0.216410
	H25	H	0.093058	0.663713	0.217918
	H26	H	0.092021	0.334885	0.791066
	H27	H	0.893916	0.662804	0.786840
	H28	H	0.211121	0.898583	0.338844
	H29	H	0.211523	0.096533	0.667552
	H30	H	0.779264	0.099294	0.339042
	H31	H	0.785450	0.900294	0.667778
	H32	H	0.331134	0.214190	0.902900
	H33	H	0.658763	0.214017	0.104525
	H34	H	0.330543	0.785840	0.100998
	H35	H	0.657806	0.780811	0.905624
	H36	H	0.331047	0.902445	0.216854
	H37	H	0.659601	0.096649	0.219379
	H38	H	0.331723	0.097894	0.786906
	H39	H	0.660651	0.899641	0.792563
	H40	H	0.894270	0.215588	0.339220
	H41	H	0.096076	0.213128	0.667156
	H42	H	0.094990	0.783781	0.338826
	H43	H	0.900310	0.784982	0.667188
	H44	H	0.209291	0.336009	0.905189
	H45	H	0.209831	0.663089	0.102939
	H46	H	0.781794	0.335490	0.101103
	H47	H	0.776195	0.662190	0.900997
	H48	H	0.388802	0.118063	0.590650
	H49	H	0.590553	0.880983	0.605955
	H50	H	0.578714	0.111825	0.414390
	H51	H	0.401143	0.885617	0.422846
	H52	H	0.588106	0.406379	0.119437
	H53	H	0.580472	0.585886	0.889100
	H54	H	0.401598	0.594755	0.121459
	H55	H	0.397424	0.412992	0.886168
	H56	H	0.112572	0.590884	0.409199
	H57	H	0.877861	0.593170	0.598305
	H58	H	0.110346	0.401815	0.587756
	H59	H	0.875685	0.396393	0.408660
	H60	H	0.109619	0.415895	0.599188
	H61	H	0.878624	0.597696	0.592268
	H62	H	0.112995	0.593489	0.412371
	H63	H	0.883030	0.410376	0.420170
	H64	H	0.400000	0.589702	0.119810
	H65	H	0.582411	0.598189	0.884495
	H66	H	0.588785	0.405954	0.120410
	H67	H	0.408373	0.406247	0.888230
	H68	H	0.595366	0.115010	0.419642
	H69	H	0.587227	0.885396	0.592970
	H70	H	0.407232	0.118824	0.610817
	H71	H	0.395021	0.877765	0.403268
	H72	H	0.908559	0.616541	0.103786
	H73	H	0.093413	0.383057	0.091674
	H74	H	0.092110	0.617674	0.913197
	H75	H	0.903507	0.381025	0.902919
	H76	H	0.088105	0.897289	0.621418
	H77	H	0.077106	0.087541	0.390163
	H78	H	0.903479	0.094840	0.621450
	H79	H	0.906345	0.917931	0.389538
	H80	H	0.611593	0.091711	0.913934
	H81	H	0.375780	0.087499	0.109938
	H82	H	0.607542	0.908329	0.088578
	H83	H	0.377889	0.903740	0.909664
	H84	H	0.612581	0.910015	0.105182
	H85	H	0.375954	0.106679	0.092066
	H86	H	0.611062	0.090441	0.911368
	H87	H	0.379988	0.909477	0.911181
	H88	H	0.903668	0.089031	0.619113
	H89	H	0.088828	0.103066	0.382164
	H90	H	0.099402	0.905847	0.622893
	H91	H	0.911984	0.899122	0.386448
	H92	H	0.084016	0.617592	0.905205
	H93	H	0.091925	0.380367	0.101888
	H94	H	0.906127	0.611369	0.084771
	H95	H	0.905862	0.385869	0.913654
	H96	H	0.414114	0.109994	0.585744
	H97	H	0.599771	0.881272	0.596185
	H98	H	0.589733	0.118961	0.402883
	H99	H	0.415257	0.884424	0.406402
	H100	H	0.588655	0.407030	0.119029
	H101	H	0.592179	0.589042	0.885130
	H102	H	0.405941	0.592221	0.119063
	H103	H	0.397935	0.400641	0.882349
	H104	H	0.111395	0.589298	0.413186
	H105	H	0.880577	0.589965	0.591365
	H106	H	0.115922	0.398989	0.605070
	H107	H	0.878504	0.414675	0.401354
	H108	H	0.891029	0.618710	0.094930
	H109	H	0.084004	0.384824	0.096361
	H110	H	0.082502	0.613026	0.916067
	H111	H	0.895351	0.380856	0.911415
	H112	H	0.087254	0.911300	0.617648
	H113	H	0.097426	0.084490	0.385564
	H114	H	0.909204	0.092511	0.618860
	H115	H	0.893846	0.905138	0.382228
	H116	H	0.612783	0.093038	0.912023
	H117	H	0.385075	0.082915	0.085505
	H118	H	0.614147	0.895482	0.097400
	H119	H	0.378122	0.908187	0.905593
	C120	C	0.375759	0.007448	0.624291
	C121	C	0.620304	0.991097	0.627054
	C122	C	0.617448	0.007391	0.383381
	C123	C	0.374225	0.990344	0.381826
	C124	C	0.616982	0.376927	0.011263
	C125	C	0.615275	0.619849	0.994611
	C126	C	0.372966	0.621217	0.011398
	C127	C	0.373856	0.378237	0.994477
	C128	C	0.003962	0.621165	0.381296
	C129	C	0.987029	0.620821	0.624120
	C130	C	0.003554	0.377734	0.624922
	C131	C	0.987262	0.378088	0.381722
	C132	C	0.873937	0.507325	0.123536
	C133	C	0.117752	0.491135	0.125577
	C134	C	0.115161	0.507916	0.882457
	C135	C	0.871736	0.490610	0.879864
	C136	C	0.119638	0.876040	0.511709
	C137	C	0.117553	0.120330	0.494584
	C138	C	0.874449	0.121410	0.511635
	C139	C	0.876267	0.878552	0.494716
	C140	C	0.503315	0.120623	0.882303
	C141	C	0.487166	0.120894	0.125359
	C142	C	0.503450	0.877062	0.125449
	C143	C	0.487105	0.877283	0.881872
	C144	C	0.380348	0.883736	0.678640
	C145	C	0.616210	0.114442	0.682083
	C146	C	0.615883	0.884303	0.328082
	C147	C	0.375858	0.113860	0.326610
	C148	C	0.670955	0.378904	0.887227
	C149	C	0.672566	0.617674	0.117885
	C150	C	0.316604	0.619502	0.887896
	C151	C	0.319719	0.379987	0.118286
	C152	C	0.881301	0.678112	0.382169
	C153	C	0.110833	0.674239	0.623275
	C154	C	0.880689	0.322352	0.621918
	C155	C	0.110431	0.322299	0.384760
	C156	C	0.879750	0.381264	0.678454
	C157	C	0.109981	0.617301	0.681491
	C158	C	0.880795	0.619681	0.324878
	C159	C	0.110488	0.380214	0.327828
	C160	C	0.373877	0.676958	0.887905
	C161	C	0.614872	0.674971	0.118167
	C162	C	0.613629	0.321283	0.887582
	C163	C	0.376702	0.322258	0.117988
	C164	C	0.673418	0.884170	0.385893
	C165	C	0.675251	0.114132	0.625191
	C166	C	0.321631	0.884159	0.622379
	C167	C	0.317513	0.113358	0.383096
	C168	C	0.877666	0.384153	0.178757
	C169	C	0.114129	0.614461	0.180467
	C170	C	0.112382	0.384080	0.828540
	C171	C	0.873427	0.613897	0.824954
	C172	C	0.173317	0.878966	0.387864
	C173	C	0.173731	0.117726	0.618264
	C174	C	0.817556	0.119580	0.388109
	C175	C	0.822764	0.880720	0.618662
	C176	C	0.380129	0.176195	0.883156
	C177	C	0.610086	0.175872	0.124219
	C178	C	0.379690	0.823054	0.121988
	C179	C	0.609860	0.820472	0.885706
	C180	C	0.379934	0.880935	0.179584
	C181	C	0.610579	0.117515	0.181092
	C182	C	0.380540	0.118510	0.825546
	C183	C	0.611112	0.879312	0.829238
	C184	C	0.874493	0.177509	0.388265
	C185	C	0.116318	0.175537	0.618131
	C186	C	0.115891	0.821495	0.387879
	C187	C	0.879832	0.823273	0.618463
	C188	C	0.171002	0.384681	0.884958
	C189	C	0.172384	0.614193	0.123527
	C190	C	0.819676	0.384176	0.121353
	C191	C	0.814863	0.613566	0.881406
	C192	C	0.397071	0.093374	0.602199
	C193	C	0.598948	0.904770	0.604880
	C194	C	0.594696	0.093102	0.405868
	C195	C	0.397109	0.904894	0.404134
	C196	C	0.595025	0.399653	0.097316
	C197	C	0.591848	0.597400	0.908471
	C198	C	0.395938	0.598936	0.097740
	C199	C	0.395053	0.400065	0.908156
	C200	C	0.090050	0.598019	0.404542
	C201	C	0.901120	0.599668	0.600735
	C202	C	0.089574	0.399323	0.603767
	C203	C	0.901237	0.400549	0.403623
	C204	C	0.895555	0.593339	0.101117
	C205	C	0.096205	0.405056	0.103268
	C206	C	0.092663	0.593884	0.904651
	C207	C	0.894713	0.404790	0.902665
	C208	C	0.098035	0.898298	0.598381
	C209	C	0.094522	0.098207	0.408113
	C210	C	0.898303	0.098637	0.597615
	C211	C	0.897615	0.900928	0.408262
	C212	C	0.589458	0.098310	0.905675
	C213	C	0.401154	0.099010	0.102565
	C214	C	0.589175	0.898395	0.103749
	C215	C	0.400855	0.900349	0.902533
	Zn216	Zn	0.496615	-0.001144	0.753816
	Zn217	Zn	0.495802	-0.000987	0.254090
	Zn218	Zn	0.744274	0.498730	0.002289
	Zn219	Zn	0.245098	0.499534	0.003004
	Zn220	Zn	-0.003493	0.749759	0.503001
	Zn221	Zn	-0.004150	0.249007	0.502834
	Zn222	Zn	-0.005529	0.499617	0.753446
	Zn223	Zn	-0.004507	0.499187	0.253229
	Zn224	Zn	0.494253	0.748720	0.003564
	Zn225	Zn	0.495064	0.249520	0.003276
	Zn226	Zn	0.747446	-0.000398	0.503737
	Zn227	Zn	0.246453	-0.001209	0.503241
	N228	N	0.413434	0.961351	0.679925
	N229	N	0.582894	0.036968	0.683242
	N230	N	0.581740	0.961812	0.326451
	N231	N	0.410705	0.036686	0.325918
	N232	N	0.673274	0.412639	0.965100
	N233	N	0.672920	0.584025	0.039971
	N234	N	0.315822	0.585489	0.965683
	N235	N	0.317730	0.414196	0.040417
	N236	N	0.958929	0.678990	0.416413
	N237	N	0.033501	0.676429	0.588267
	N238	N	0.958381	0.320111	0.589372
	N239	N	0.032687	0.321026	0.417659
	N240	N	0.957148	0.414977	0.680510
	N241	N	0.032094	0.584859	0.682105
	N242	N	0.958073	0.584747	0.324684
	N243	N	0.032907	0.414272	0.325946
	N244	N	0.408351	0.677871	0.965775
	N245	N	0.579919	0.676369	0.040537
	N246	N	0.580843	0.319877	0.965693
	N247	N	0.409613	0.320962	0.040201
	N248	N	0.674387	0.961674	0.419631
	N249	N	0.677775	0.036378	0.591679
	N250	N	0.318638	0.961990	0.589220
	N251	N	0.316323	0.035857	0.416808
	N252	N	0.910592	0.461921	0.180114
	N253	N	0.080668	0.536909	0.181710
	N254	N	0.078360	0.461639	0.826972
	N255	N	0.908016	0.536671	0.824048
	N256	N	0.175816	0.911975	0.466128
	N257	N	0.174318	0.083904	0.540418
	N258	N	0.817397	0.085621	0.465855
	N259	N	0.820286	0.914384	0.540761
	N260	N	0.457681	0.177497	0.917843
	N261	N	0.532390	0.178011	0.090261
	N262	N	0.457399	0.820476	0.089170
	N263	N	0.531765	0.819153	0.917350
	N264	N	0.457655	0.913963	0.181853
	N265	N	0.533139	0.083996	0.181880
	N266	N	0.458246	0.084734	0.824955
	N267	N	0.533726	0.914093	0.826894
	N268	N	0.909315	0.178533	0.465957
	N269	N	0.081866	0.176997	0.540296
	N270	N	0.083198	0.819655	0.465923
	N271	N	0.912350	0.821885	0.540376
	N272	N	0.172642	0.462582	0.918000
	N273	N	0.174735	0.536454	0.090170
	N274	N	0.817291	0.461790	0.087670
	N275	N	0.813903	0.535847	0.915108
	O276	O	0.456138	0.496035	0.505758
	H277	H	0.464159	0.498279	0.506843
	H278	H	0.469755	0.492399	0.504537
	O279	O	0.488512	0.519510	0.493599
	H280	H	0.487247	0.521420	0.487897
	H281	H	0.482342	0.516424	0.499441
	O282	O	0.445403	0.561741	0.492414
	H283	H	0.448909	0.554264	0.486072
	H284	H	0.448279	0.557174	0.487744
	O285	O	0.475335	1.526857	0.445647
	H286	H	0.483502	1.521729	0.445683
	H287	H	0.475916	1.523892	0.442970
	O288	O	0.500698	0.490123	0.569350
	H289	H	0.497144	0.487833	0.572231
	H290	H	0.506041	0.497045	0.563155
	O291	O	-0.068868	0.081956	1.001159
	H292	H	-0.070496	0.083949	1.004542
	H293	H	-0.066344	0.086908	1.004779
	O294	O	0.662438	0.348393	0.665826
	H295	H	0.669454	0.348461	0.669335
	H296	H	0.652698	0.351946	0.656652
	O297	O	0.534886	0.464670	0.507058
	H298	H	0.541194	0.458303	0.502982
	H299	H	0.531009	0.464074	0.512901
	O300	O	0.492465	0.490853	0.496749
	H301	H	0.495512	0.488879	0.492024
	H302	H	0.491756	0.491860	0.495894
	O303	O	0.469881	0.527068	0.458772
	H304	H	0.477800	0.525373	0.447146
	H305	H	0.469400	0.531558	0.472742
	O306	O	0.959863	0.002507	0.982497
	H307	H	0.955143	0.002804	0.992177
	H308	H	0.967053	0.000683	0.980582
	O309	O	0.477736	0.547317	0.494130
	H310	H	0.471249	0.548001	0.492530
	H311	H	0.480570	0.557624	0.492042
	O312	O	0.551990	0.492695	0.479954
	H313	H	0.547706	0.500275	0.486294
	H314	H	0.552536	0.495855	0.480381
	O315	O	0.962322	-0.031972	0.928617
	H316	H	0.956932	-0.029570	0.921145
	H317	H	0.959993	-0.027093	0.932757
	O318	O	-0.080194	-0.007116	-0.032631
	H319	H	-0.090488	-0.006580	-0.043682
	H320	H	-0.079842	-0.003938	-0.034757
	O321	O	0.501401	0.448587	0.425468
	H322	H	0.505232	0.441242	0.429613
	H323	H	0.498041	0.451225	0.429256
	O324	O	0.968274	0.005910	-0.027555
	H325	H	0.966258	0.004808	-0.028249
	H326	H	0.964768	0.000021	-0.019141
	O327	O	0.970407	0.998398	-0.032804
	H328	H	0.973229	0.994258	-0.044148
	H329	H	0.980294	1.003413	-0.033032
	O330	O	0.463155	0.580068	0.479675
	H331	H	0.458112	0.568223	0.481914
	H332	H	0.455765	0.576445	0.481691
	O333	O	0.490415	0.458096	0.417004
	H334	H	0.483168	0.468694	0.423528
	H335	H	0.485111	0.464996	0.411111
