data_Molecule from HDF5

_cell_length_a		16.257134
_cell_length_b		16.309472
_cell_length_c		16.295714
_cell_angle_alpha	90.016537
_cell_angle_beta	90.035913
_cell_angle_gamma	89.962183
_symmetry_space_group_name_H-M	'P 1'
_symmetry_Int_Tables_number		1

loop_
	_symmetry_equiv_pos_as_xyz
	x,y,z

loop_
	_atom_site_label
	_atom_site_type_symbol
	_atom_site_fract_x
	_atom_site_fract_y
	_atom_site_fract_z
	H0	H	0.402402	0.836412	0.713440
	H1	H	0.598759	0.162734	0.715126
	H2	H	0.597709	0.836030	0.286855
	H3	H	0.401028	0.163389	0.284694
	H4	H	0.713893	0.402222	0.835833
	H5	H	0.713278	0.596938	0.163491
	H6	H	0.285849	0.597820	0.835622
	H7	H	0.286642	0.403480	0.163922
	H8	H	0.835775	0.713682	0.403181
	H9	H	0.164218	0.713842	0.598135
	H10	H	0.836711	0.285894	0.597825
	H11	H	0.164497	0.286484	0.402617
	H12	H	0.835368	0.402924	0.712424
	H13	H	0.164185	0.597523	0.714341
	H14	H	0.835736	0.597915	0.286638
	H15	H	0.164677	0.402050	0.285995
	H16	H	0.402224	0.714273	0.835934
	H17	H	0.598186	0.714058	0.163340
	H18	H	0.597762	0.285878	0.835453
	H19	H	0.401398	0.285793	0.163253
	H20	H	0.715136	0.836804	0.401475
	H21	H	0.713338	0.164052	0.597407
	H22	H	0.286574	0.836459	0.597036
	H23	H	0.285670	0.164257	0.402206
	H24	H	0.902053	0.336665	0.214415
	H25	H	0.097466	0.663797	0.213548
	H26	H	0.097510	0.336339	0.785873
	H27	H	0.902810	0.662884	0.785694
	H28	H	0.214085	0.903040	0.336236
	H29	H	0.213100	0.096215	0.664812
	H30	H	0.786372	0.097455	0.336012
	H31	H	0.786521	0.903642	0.664298
	H32	H	0.335249	0.213252	0.901982
	H33	H	0.663996	0.214033	0.098346
	H34	H	0.335735	0.786269	0.097029
	H35	H	0.664229	0.785898	0.902502
	H36	H	0.336991	0.901233	0.215023
	H37	H	0.664667	0.097286	0.213655
	H38	H	0.335995	0.097290	0.785631
	H39	H	0.664296	0.901641	0.785780
	H40	H	0.901699	0.214703	0.336825
	H41	H	0.099179	0.215168	0.663454
	H42	H	0.098650	0.785327	0.336090
	H43	H	0.902489	0.785813	0.664100
	H44	H	0.213460	0.336135	0.902199
	H45	H	0.213915	0.663446	0.097116
	H46	H	0.786091	0.335882	0.096878
	H47	H	0.786735	0.664303	0.902155
	H48	H	0.406206	0.115750	0.590812
	H49	H	0.596593	0.885226	0.584869
	H50	H	0.592146	0.117130	0.401288
	H51	H	0.412427	0.886106	0.408437
	H52	H	0.590425	0.407035	0.115134
	H53	H	0.585439	0.598852	0.883203
	H54	H	0.409991	0.593923	0.115246
	H55	H	0.410046	0.407186	0.884796
	H56	H	0.114498	0.587936	0.408737
	H57	H	0.885465	0.591297	0.588477
	H58	H	0.114577	0.410565	0.590552
	H59	H	0.882620	0.404374	0.406075
	H60	H	0.118057	0.407453	0.599856
	H61	H	0.883881	0.589529	0.597753
	H62	H	0.118760	0.593635	0.402185
	H63	H	0.884184	0.407752	0.410335
	H64	H	0.404873	0.596778	0.117135
	H65	H	0.600171	0.597356	0.879390
	H66	H	0.593400	0.403505	0.116583
	H67	H	0.405645	0.401501	0.881650
	H68	H	0.590448	0.114969	0.410197
	H69	H	0.599651	0.879596	0.600042
	H70	H	0.404248	0.117842	0.595500
	H71	H	0.402532	0.884464	0.410586
	H72	H	0.909022	0.615260	0.093026
	H73	H	0.087459	0.383652	0.097792
	H74	H	0.095918	0.617616	0.906984
	H75	H	0.902639	0.384783	0.912547
	H76	H	0.095970	0.911699	0.615305
	H77	H	0.100447	0.095733	0.380929
	H78	H	0.907737	0.095061	0.616700
	H79	H	0.915439	0.904439	0.385889
	H80	H	0.616676	0.084479	0.898405
	H81	H	0.384391	0.086291	0.097858
	H82	H	0.615612	0.913420	0.095598
	H83	H	0.382657	0.901047	0.911792
	H84	H	0.620161	0.901536	0.098490
	H85	H	0.379877	0.100262	0.098211
	H86	H	0.621205	0.104995	0.904011
	H87	H	0.385845	0.914319	0.908437
	H88	H	0.904675	0.093590	0.617791
	H89	H	0.091004	0.084895	0.386867
	H90	H	0.087068	0.905479	0.615169
	H91	H	0.901930	0.899067	0.380297
	H92	H	0.092806	0.617415	0.903516
	H93	H	0.093200	0.385864	0.087072
	H94	H	0.903196	0.616170	0.091126
	H95	H	0.902049	0.380656	0.901446
	H96	H	0.409088	0.116344	0.594717
	H97	H	0.584601	0.885157	0.595548
	H98	H	0.598803	0.117595	0.407232
	H99	H	0.406282	0.882507	0.401470
	H100	H	0.594666	0.407858	0.115599
	H101	H	0.592911	0.585800	0.885630
	H102	H	0.404671	0.591051	0.116078
	H103	H	0.403030	0.408701	0.882688
	H104	H	0.117362	0.596489	0.411033
	H105	H	0.881810	0.597745	0.593934
	H106	H	0.118197	0.400777	0.592072
	H107	H	0.884364	0.409560	0.405010
	H108	H	0.905333	0.617844	0.096824
	H109	H	0.099589	0.380636	0.096589
	H110	H	0.091329	0.615165	0.907980
	H111	H	0.912367	0.384954	0.905305
	H112	H	0.096777	0.901231	0.618632
	H113	H	0.086069	0.099115	0.384102
	H114	H	0.907058	0.092254	0.615214
	H115	H	0.902950	0.914170	0.384706
	H116	H	0.612781	0.090770	0.919065
	H117	H	0.385679	0.094651	0.085631
	H118	H	0.615835	0.904677	0.086823
	H119	H	0.381372	0.905700	0.899022
	C120	C	0.378566	0.008264	0.621412
	C121	C	0.621567	0.991510	0.621496
	C122	C	0.621687	0.008386	0.378356
	C123	C	0.378069	0.992213	0.377964
	C124	C	0.621501	0.378031	0.007784
	C125	C	0.621207	0.621579	0.991410
	C126	C	0.378002	0.622233	0.007810
	C127	C	0.378528	0.378221	0.991475
	C128	C	0.008185	0.621020	0.379125
	C129	C	0.992017	0.621255	0.621846
	C130	C	0.008355	0.378769	0.622123
	C131	C	0.992293	0.378713	0.378712
	C132	C	0.877929	0.508432	0.121678
	C133	C	0.121182	0.491744	0.121299
	C134	C	0.121406	0.508416	0.878015
	C135	C	0.877995	0.491430	0.878343
	C136	C	0.122098	0.877768	0.508312
	C137	C	0.121477	0.121536	0.491976
	C138	C	0.878376	0.121623	0.508682
	C139	C	0.878546	0.878201	0.491918
	C140	C	0.508157	0.121577	0.878705
	C141	C	0.492071	0.121668	0.121961
	C142	C	0.508647	0.878700	0.121562
	C143	C	0.491846	0.879000	0.878347
	C144	C	0.381630	0.885306	0.675961
	C145	C	0.618970	0.114585	0.676632
	C146	C	0.618794	0.885050	0.323995
	C147	C	0.381059	0.114990	0.323179
	C148	C	0.676138	0.381250	0.884548
	C149	C	0.675650	0.617967	0.114730
	C150	C	0.323798	0.618731	0.884490
	C151	C	0.323880	0.381779	0.114783
	C152	C	0.884874	0.676195	0.381876
	C153	C	0.115394	0.675860	0.618718
	C154	C	0.885266	0.323998	0.618554
	C155	C	0.115658	0.323871	0.381790
	C156	C	0.884755	0.382050	0.675644
	C157	C	0.115337	0.618101	0.676358
	C158	C	0.884600	0.618435	0.324451
	C159	C	0.115470	0.381042	0.323640
	C160	C	0.381162	0.676935	0.884825
	C161	C	0.618723	0.676207	0.114525
	C162	C	0.618507	0.323445	0.884466
	C163	C	0.381263	0.323579	0.114605
	C164	C	0.676709	0.885269	0.381327
	C165	C	0.675707	0.115060	0.618202
	C166	C	0.324128	0.885214	0.618282
	C167	C	0.323437	0.115261	0.381272
	C168	C	0.881318	0.384958	0.176111
	C169	C	0.118417	0.614976	0.175904
	C170	C	0.118184	0.384999	0.823794
	C171	C	0.881176	0.614300	0.822876
	C172	C	0.176859	0.881350	0.385134
	C173	C	0.175704	0.117878	0.615603
	C174	C	0.824030	0.118414	0.384974
	C175	C	0.824083	0.881849	0.615306
	C176	C	0.384418	0.175929	0.881489
	C177	C	0.615295	0.176134	0.118835
	C178	C	0.384961	0.823710	0.118373
	C179	C	0.615376	0.823912	0.881459
	C180	C	0.385256	0.881177	0.176344
	C181	C	0.615523	0.118288	0.176213
	C182	C	0.384699	0.118278	0.823841
	C183	C	0.615538	0.881330	0.823644
	C184	C	0.881141	0.176633	0.385372
	C185	C	0.118985	0.176616	0.615162
	C186	C	0.119418	0.823248	0.384907
	C187	C	0.881403	0.823287	0.615211
	C188	C	0.175830	0.385001	0.881265
	C189	C	0.176152	0.614809	0.118229
	C190	C	0.823498	0.384937	0.118302
	C191	C	0.823725	0.614986	0.880772
	C192	C	0.400132	0.094396	0.599974
	C193	C	0.599979	0.905607	0.599875
	C194	C	0.600148	0.094297	0.399815
	C195	C	0.400461	0.906435	0.400278
	C196	C	0.599414	0.399751	0.093627
	C197	C	0.599346	0.600128	0.905091
	C198	C	0.399896	0.600365	0.093977
	C199	C	0.399919	0.399715	0.905193
	C200	C	0.094623	0.599056	0.400811
	C201	C	0.905944	0.599474	0.599750
	C202	C	0.094975	0.400032	0.600650
	C203	C	0.906011	0.400709	0.400675
	C204	C	0.899446	0.594220	0.100132
	C205	C	0.099660	0.405638	0.100119
	C206	C	0.099800	0.594465	0.899741
	C207	C	0.899436	0.405551	0.900022
	C208	C	0.099893	0.899615	0.594346
	C209	C	0.099088	0.099649	0.406044
	C210	C	0.900020	0.099958	0.594466
	C211	C	0.900314	0.899595	0.405854
	C212	C	0.594578	0.099845	0.900751
	C213	C	0.405613	0.100196	0.100257
	C214	C	0.594888	0.900198	0.100071
	C215	C	0.405532	0.900846	0.900131
	Zn216	Zn	0.500137	-0.000061	0.750313
	Zn217	Zn	0.500178	0.000176	0.250168
	Zn218	Zn	0.749594	0.500028	-0.000560
	Zn219	Zn	0.249839	0.499849	-0.000516
	Zn220	Zn	0.000470	0.749472	0.500035
	Zn221	Zn	0.000013	0.250394	0.500139
	Zn222	Zn	0.000098	0.499856	0.750391
	Zn223	Zn	0.000163	0.500004	0.250018
	Zn224	Zn	0.499940	0.750850	-0.000277
	Zn225	Zn	0.500064	0.249843	0.000041
	Zn226	Zn	0.749711	0.000038	0.500192
	Zn227	Zn	0.249732	0.000219	0.500535
	N228	N	0.414725	0.963023	0.678096
	N229	N	0.585909	0.037107	0.678738
	N230	N	0.585202	0.962542	0.322184
	N231	N	0.414124	0.037454	0.321014
	N232	N	0.678087	0.414528	0.962104
	N233	N	0.677137	0.584634	0.037174
	N234	N	0.321811	0.585426	0.962033
	N235	N	0.322252	0.415289	0.037214
	N236	N	0.962531	0.677460	0.415482
	N237	N	0.037531	0.678195	0.585826
	N238	N	0.963193	0.321974	0.585784
	N239	N	0.038009	0.322511	0.415438
	N240	N	0.962460	0.415316	0.677837
	N241	N	0.037542	0.584980	0.678368
	N242	N	0.962380	0.584939	0.322552
	N243	N	0.037619	0.414409	0.321570
	N244	N	0.414447	0.678955	0.962504
	N245	N	0.585583	0.678612	0.036814
	N246	N	0.585096	0.321502	0.962042
	N247	N	0.414217	0.321400	0.036917
	N248	N	0.678548	0.962802	0.414467
	N249	N	0.677567	0.037514	0.584716
	N250	N	0.322229	0.962662	0.585085
	N251	N	0.321347	0.037814	0.414723
	N252	N	0.914271	0.462686	0.178514
	N253	N	0.084976	0.537589	0.177833
	N254	N	0.085141	0.462602	0.821793
	N255	N	0.914123	0.536520	0.821373
	N256	N	0.178509	0.914505	0.462789
	N257	N	0.177211	0.084319	0.538094
	N258	N	0.821996	0.084937	0.462519
	N259	N	0.822271	0.915227	0.537837
	N260	N	0.462251	0.177819	0.915082
	N261	N	0.537557	0.178139	0.085572
	N262	N	0.462751	0.822173	0.084945
	N263	N	0.537593	0.822451	0.914892
	N264	N	0.462985	0.914460	0.178380
	N265	N	0.537621	0.085224	0.178246
	N266	N	0.462657	0.085327	0.821880
	N267	N	0.537743	0.914592	0.821602
	N268	N	0.914432	0.178666	0.463008
	N269	N	0.086050	0.178936	0.537344
	N270	N	0.086015	0.820962	0.462549
	N271	N	0.914826	0.821116	0.537577
	N272	N	0.178102	0.462715	0.914288
	N273	N	0.178061	0.537246	0.084976
	N274	N	0.821338	0.462471	0.085048
	N275	N	0.821588	0.537745	0.914632
