data_Molecule from HDF5

_cell_length_a		16.295624
_cell_length_b		16.172213
_cell_length_c		16.230629
_cell_angle_alpha	90.248759
_cell_angle_beta	89.456736
_cell_angle_gamma	89.927530
_symmetry_space_group_name_H-M	'P 1'
_symmetry_Int_Tables_number		1

loop_
	_symmetry_equiv_pos_as_xyz
	x,y,z

loop_
	_atom_site_label
	_atom_site_type_symbol
	_atom_site_fract_x
	_atom_site_fract_y
	_atom_site_fract_z
	H0	H	0.401130	0.835282	0.706627
	H1	H	0.596770	0.164836	0.706832
	H2	H	0.600042	0.835175	0.278763
	H3	H	0.403741	0.166334	0.282261
	H4	H	0.718966	0.399645	0.829208
	H5	H	0.712797	0.599478	0.157810
	H6	H	0.289521	0.597101	0.828252
	H7	H	0.283621	0.399640	0.156396
	H8	H	0.836423	0.716817	0.398982
	H9	H	0.165311	0.716084	0.590344
	H10	H	0.837593	0.288282	0.594627
	H11	H	0.164148	0.286149	0.392714
	H12	H	0.837800	0.405097	0.709657
	H13	H	0.164920	0.600896	0.707131
	H14	H	0.836903	0.602013	0.281314
	H15	H	0.164391	0.402075	0.276971
	H16	H	0.406797	0.710654	0.827108
	H17	H	0.595682	0.714497	0.157604
	H18	H	0.601406	0.285497	0.828219
	H19	H	0.402381	0.287845	0.157219
	H20	H	0.717081	0.836331	0.391993
	H21	H	0.713199	0.165295	0.592317
	H22	H	0.285086	0.836249	0.592997
	H23	H	0.287472	0.165634	0.395581
	H24	H	0.900852	0.336903	0.208714
	H25	H	0.096315	0.667551	0.205797
	H26	H	0.100924	0.337734	0.776886
	H27	H	0.904225	0.666126	0.783782
	H28	H	0.218074	0.901138	0.329784
	H29	H	0.214106	0.101642	0.657885
	H30	H	0.787208	0.100448	0.328957
	H31	H	0.783461	0.902523	0.656711
	H32	H	0.337065	0.214789	0.896600
	H33	H	0.664758	0.215030	0.091097
	H34	H	0.335709	0.787959	0.091534
	H35	H	0.664959	0.787317	0.893536
	H36	H	0.337234	0.901664	0.210933
	H37	H	0.664800	0.098829	0.207022
	H38	H	0.336599	0.099492	0.780825
	H39	H	0.663363	0.900205	0.775410
	H40	H	0.904435	0.215258	0.329035
	H41	H	0.096503	0.216145	0.658958
	H42	H	0.100789	0.787258	0.329987
	H43	H	0.903457	0.793276	0.659548
	H44	H	0.216074	0.336461	0.891842
	H45	H	0.214176	0.665831	0.091019
	H46	H	0.786274	0.336105	0.093242
	H47	H	0.787980	0.664973	0.896574
	H48	H	0.407233	0.115424	0.580611
	H49	H	0.597915	0.880163	0.588457
	H50	H	0.602626	0.121576	0.396715
	H51	H	0.397929	0.879585	0.399584
	H52	H	0.593002	0.408591	0.109028
	H53	H	0.591248	0.588056	0.879093
	H54	H	0.420558	0.592554	0.105714
	H55	H	0.404186	0.402969	0.872572
	H56	H	0.116925	0.596438	0.401418
	H57	H	0.883052	0.596398	0.595495
	H58	H	0.121178	0.410690	0.596197
	H59	H	0.883748	0.404197	0.403070
	H60	H	0.119360	0.398963	0.580549
	H61	H	0.882540	0.602029	0.590173
	H62	H	0.116623	0.592125	0.398864
	H63	H	0.886103	0.413622	0.406362
	H64	H	0.400556	0.606269	0.115544
	H65	H	0.595366	0.601306	0.872828
	H66	H	0.592815	0.407621	0.109472
	H67	H	0.407753	0.412559	0.876984
	H68	H	0.586999	0.117597	0.395245
	H69	H	0.587325	0.883123	0.585908
	H70	H	0.400781	0.121821	0.591216
	H71	H	0.416832	0.882718	0.392385
	H72	H	0.898846	0.620271	0.084708
	H73	H	0.098352	0.381750	0.087836
	H74	H	0.097495	0.620801	0.897818
	H75	H	0.905674	0.382820	0.903246
	H76	H	0.103592	0.900561	0.617547
	H77	H	0.098300	0.091857	0.376335
	H78	H	0.910293	0.087911	0.606403
	H79	H	0.912953	0.909237	0.377389
	H80	H	0.618323	0.097380	0.899194
	H81	H	0.385303	0.096996	0.086551
	H82	H	0.619419	0.900788	0.084784
	H83	H	0.379858	0.905161	0.889834
	H84	H	0.614656	0.908232	0.080551
	H85	H	0.385907	0.090362	0.087668
	H86	H	0.614471	0.088695	0.904027
	H87	H	0.382790	0.896400	0.907225
	H88	H	0.910310	0.103339	0.611418
	H89	H	0.092979	0.091129	0.378416
	H90	H	0.097954	0.922651	0.609058
	H91	H	0.908540	0.905827	0.374757
	H92	H	0.093260	0.618131	0.901540
	H93	H	0.088124	0.384836	0.088308
	H94	H	0.907017	0.621109	0.096047
	H95	H	0.909334	0.381432	0.896083
	H96	H	0.412354	0.117691	0.592419
	H97	H	0.594806	0.883943	0.578000
	H98	H	0.594334	0.115781	0.409051
	H99	H	0.412967	0.887779	0.411562
	H100	H	0.593803	0.408843	0.110039
	H101	H	0.605129	0.589509	0.873696
	H102	H	0.397412	0.581965	0.108864
	H103	H	0.415116	0.404148	0.876786
	H104	H	0.117946	0.596125	0.396844
	H105	H	0.884968	0.595492	0.587892
	H106	H	0.114141	0.417576	0.579655
	H107	H	0.883267	0.411401	0.397242
	H108	H	0.912450	0.615705	0.084548
	H109	H	0.093313	0.385920	0.079871
	H110	H	0.098609	0.619003	0.903321
	H111	H	0.913592	0.383681	0.902827
	H112	H	0.082110	0.905107	0.608669
	H113	H	0.094626	0.096214	0.376420
	H114	H	0.895979	0.094377	0.612784
	H115	H	0.907190	0.911902	0.376454
	H116	H	0.617804	0.088466	0.893022
	H117	H	0.383493	0.094154	0.091723
	H118	H	0.617057	0.909687	0.090028
	H119	H	0.387345	0.915755	0.904304
	C120	C	0.378486	0.008989	0.616106
	C121	C	0.620976	0.991403	0.613253
	C122	C	0.623342	0.009053	0.370993
	C123	C	0.380597	0.992598	0.373030
	C124	C	0.623204	0.378629	0.001240
	C125	C	0.623238	0.622021	0.984045
	C126	C	0.379426	0.621421	0.001063
	C127	C	0.379641	0.378649	0.984173
	C128	C	0.008883	0.623525	0.372841
	C129	C	0.992321	0.625015	0.617226
	C130	C	0.010100	0.381084	0.615244
	C131	C	0.992383	0.380261	0.372044
	C132	C	0.877969	0.509846	0.116509
	C133	C	0.121566	0.492997	0.114275
	C134	C	0.123853	0.510159	0.871483
	C135	C	0.881379	0.492077	0.873405
	C136	C	0.123811	0.879919	0.502690
	C137	C	0.122683	0.122806	0.485608
	C138	C	0.878565	0.123373	0.501600
	C139	C	0.880325	0.881019	0.485386
	C140	C	0.508883	0.121277	0.871366
	C141	C	0.492787	0.122562	0.115904
	C142	C	0.508807	0.878358	0.114821
	C143	C	0.491870	0.877829	0.870730
	C144	C	0.380626	0.884814	0.669869
	C145	C	0.617596	0.115823	0.668820
	C146	C	0.621053	0.884917	0.315527
	C147	C	0.383508	0.116892	0.319299
	C148	C	0.680093	0.379769	0.877952
	C149	C	0.675635	0.619448	0.108604
	C150	C	0.326276	0.618413	0.877222
	C151	C	0.322790	0.380348	0.107506
	C152	C	0.885534	0.679200	0.377524
	C153	C	0.116109	0.678888	0.612150
	C154	C	0.886473	0.326584	0.614045
	C155	C	0.115379	0.324183	0.372690
	C156	C	0.886666	0.384139	0.671606
	C157	C	0.116053	0.621838	0.670074
	C158	C	0.885733	0.622032	0.318887
	C159	C	0.115280	0.381683	0.314947
	C160	C	0.384593	0.674759	0.876874
	C161	C	0.617706	0.676980	0.108415
	C162	C	0.621935	0.322607	0.877652
	C163	C	0.381868	0.324874	0.108043
	C164	C	0.678869	0.885222	0.372310
	C165	C	0.675328	0.115938	0.611782
	C166	C	0.323156	0.885330	0.613012
	C167	C	0.325527	0.116441	0.375639
	C168	C	0.880851	0.385806	0.170755
	C169	C	0.117774	0.617713	0.168809
	C170	C	0.121401	0.386576	0.815146
	C171	C	0.884026	0.616678	0.820383
	C172	C	0.179904	0.881196	0.378979
	C173	C	0.176442	0.121516	0.609104
	C174	C	0.824606	0.120716	0.378071
	C175	C	0.822972	0.883243	0.608298
	C176	C	0.385958	0.176978	0.875253
	C177	C	0.615995	0.177263	0.111990
	C178	C	0.385147	0.824374	0.112913
	C179	C	0.615568	0.824055	0.872859
	C180	C	0.385687	0.881410	0.171690
	C181	C	0.615993	0.119735	0.169776
	C182	C	0.385648	0.119433	0.817920
	C183	C	0.614970	0.880413	0.814344
	C184	C	0.882810	0.177904	0.378059
	C185	C	0.118128	0.178569	0.609468
	C186	C	0.121344	0.824798	0.378927
	C187	C	0.882759	0.828909	0.609751
	C188	C	0.178520	0.385922	0.872459
	C189	C	0.176587	0.616835	0.112157
	C190	C	0.823461	0.385642	0.113764
	C191	C	0.826192	0.616067	0.876653
	C192	C	0.400441	0.095772	0.594783
	C193	C	0.599592	0.904828	0.590718
	C194	C	0.601160	0.095756	0.393625
	C195	C	0.402659	0.905844	0.394740
	C196	C	0.599952	0.401564	0.087326
	C197	C	0.603369	0.599507	0.897613
	C198	C	0.399923	0.599929	0.087582
	C199	C	0.402263	0.400326	0.897741
	C200	C	0.094917	0.601451	0.393018
	C201	C	0.906051	0.604132	0.597235
	C202	C	0.095954	0.402823	0.592272
	C203	C	0.906699	0.402896	0.395366
	C204	C	0.899529	0.596658	0.094847
	C205	C	0.099766	0.406448	0.091939
	C206	C	0.102629	0.596952	0.894232
	C207	C	0.903247	0.405269	0.894416
	C208	C	0.101339	0.902703	0.589342
	C209	C	0.101444	0.099805	0.399380
	C210	C	0.899331	0.101832	0.587923
	C211	C	0.902949	0.902489	0.398605
	C212	C	0.594674	0.098343	0.892588
	C213	C	0.407231	0.100428	0.094758
	C214	C	0.594706	0.900092	0.091882
	C215	C	0.405596	0.899554	0.893636
	Zn216	Zn	0.499763	-0.000288	0.742718
	Zn217	Zn	0.501226	0.000771	0.244192
	Zn218	Zn	0.752390	0.500272	-0.006876
	Zn219	Zn	0.251620	0.500155	-0.007226
	Zn220	Zn	0.000992	0.752981	0.494858
	Zn221	Zn	0.001206	0.251802	0.493486
	Zn222	Zn	0.001942	0.501942	0.744662
	Zn223	Zn	0.000062	0.501541	0.243269
	Zn224	Zn	0.500381	0.749817	-0.007540
	Zn225	Zn	0.500973	0.250702	-0.006986
	Zn226	Zn	0.750522	0.000668	0.492673
	Zn227	Zn	0.251666	0.001565	0.493601
	N228	N	0.414332	0.962701	0.671648
	N229	N	0.584412	0.037549	0.670060
	N230	N	0.587105	0.962943	0.314753
	N231	N	0.416955	0.038629	0.317495
	N232	N	0.681163	0.413867	0.955768
	N233	N	0.679344	0.586033	0.030354
	N234	N	0.323113	0.585724	0.955353
	N235	N	0.321279	0.412964	0.029227
	N236	N	0.963139	0.680141	0.410382
	N237	N	0.038315	0.681268	0.580264
	N238	N	0.964061	0.324249	0.579724
	N239	N	0.037954	0.323027	0.407254
	N240	N	0.964616	0.417031	0.672660
	N241	N	0.038055	0.589063	0.673562
	N242	N	0.963236	0.588445	0.315451
	N243	N	0.037788	0.415874	0.314504
	N244	N	0.416859	0.676721	0.954790
	N245	N	0.585866	0.678640	0.030237
	N246	N	0.587189	0.321938	0.955299
	N247	N	0.416284	0.323521	0.030345
	N248	N	0.680310	0.963400	0.406036
	N249	N	0.677641	0.037757	0.578037
	N250	N	0.321746	0.963683	0.580096
	N251	N	0.323931	0.038229	0.408465
	N252	N	0.913775	0.464142	0.172943
	N253	N	0.084124	0.539734	0.169949
	N254	N	0.088215	0.464694	0.814644
	N255	N	0.917760	0.538613	0.818411
	N256	N	0.181495	0.914673	0.457138
	N257	N	0.179438	0.087656	0.531170
	N258	N	0.821696	0.087754	0.456022
	N259	N	0.821530	0.915098	0.529881
	N260	N	0.463530	0.178275	0.907698
	N261	N	0.538463	0.179186	0.079194
	N262	N	0.462527	0.822653	0.078145
	N263	N	0.538066	0.822421	0.907042
	N264	N	0.463604	0.914089	0.173170
	N265	N	0.538447	0.086415	0.172390
	N266	N	0.463133	0.085395	0.815393
	N267	N	0.536879	0.913312	0.812854
	N268	N	0.915420	0.179939	0.455955
	N269	N	0.085325	0.179344	0.531454
	N270	N	0.087492	0.823867	0.456906
	N271	N	0.917746	0.827577	0.532161
	N272	N	0.180219	0.463853	0.907067
	N273	N	0.179139	0.538323	0.078837
	N274	N	0.821785	0.463698	0.080516
	N275	N	0.824588	0.537660	0.908908
	O276	O	1.065267	0.957766	0.025504
	H277	H	1.057096	0.966573	0.020511
	H278	H	1.070823	0.955649	0.031065
	O279	O	0.544413	-0.588415	1.483470
	H280	H	0.551265	-0.594704	1.481601
	H281	H	0.550029	-0.586134	1.473219
	O282	O	0.027588	0.098751	0.004834
	H283	H	0.033484	0.096673	0.001791
	H284	H	0.028629	0.102431	0.009616
	O285	O	0.425615	0.512095	0.472012
	H286	H	0.421292	0.510895	0.471130
	H287	H	0.429782	0.514378	0.480189
	O288	O	-0.069358	-0.020161	0.044868
	H289	H	-0.066430	-0.014653	0.047638
	H290	H	-0.068498	-0.025689	0.051007
	O291	O	0.069509	0.978095	0.038873
	H292	H	0.080034	0.979691	0.033724
	H293	H	0.072469	0.975561	0.033137
	O294	O	-0.007254	1.101561	-0.053071
	H295	H	-0.016787	1.097850	-0.060156
	H296	H	-0.021888	1.117876	-0.054356
	O297	O	0.452812	0.523732	0.441258
	H298	H	0.455930	0.530952	0.447193
	H299	H	0.468737	0.519957	0.437354
	O300	O	0.502331	0.458985	0.505753
	H301	H	0.507163	0.452529	0.495149
	H302	H	0.497532	0.456621	0.509355
	O303	O	0.985097	0.002872	1.040185
	H304	H	0.989657	-0.002740	1.040809
	H305	H	0.980183	-0.004012	1.044372
	O306	O	0.030817	1.027544	0.949483
	H307	H	0.016930	1.040451	0.949446
	H308	H	0.019795	1.020784	0.954582
	O309	O	-0.083016	1.039578	1.026809
	H310	H	-0.083016	1.041745	1.024406
	H311	H	-0.079235	1.035417	1.024588
	O312	O	-0.058403	-0.036986	1.044346
	H313	H	-0.062337	-0.044628	1.046613
	H314	H	-0.047655	-0.033021	1.046715
	O315	O	0.508879	0.516997	0.397959
	H316	H	0.506895	0.536511	0.384502
	H317	H	0.511523	0.508075	0.395842
	O318	O	-0.031626	-0.024474	0.964484
	H319	H	-0.027968	-0.015724	0.963244
	H320	H	-0.026039	-0.030084	0.962153
	O321	O	0.451054	0.462896	0.450243
	H322	H	0.443897	0.456138	0.449241
	H323	H	0.443300	0.474964	0.458254
	O324	O	1.020113	0.089967	0.984149
	H325	H	1.014964	0.093613	0.987521
	H326	H	1.030830	0.083774	0.976110
	O327	O	1.022861	1.036518	0.957963
	H328	H	1.023092	1.033533	0.954384
	H329	H	1.032779	1.034856	0.956986
	O330	O	0.564194	0.426043	0.486102
	H331	H	0.552131	0.420769	0.490657
	H332	H	0.575618	0.421876	0.481750
	O333	O	0.539669	0.468101	0.497006
	H334	H	0.532422	0.465494	0.494618
	H335	H	0.537845	0.461714	0.491780
	O336	O	0.471525	0.505592	0.508923
	H337	H	0.466261	0.498735	0.507731
	H338	H	0.484044	0.495030	0.510075
	O339	O	0.567595	0.505565	0.404364
	H340	H	0.553138	0.512972	0.408177
	H341	H	0.569647	0.500047	0.410444
	O342	O	0.407425	0.498129	0.477453
	H343	H	0.407581	0.493877	0.472240
	H344	H	0.408895	0.499090	0.472584
	O345	O	0.461619	0.463844	0.430316
	H346	H	0.468710	0.475677	0.438184
	H347	H	0.465078	0.461977	0.427825
