data_Molecule from HDF5

_cell_length_a		16.325012
_cell_length_b		16.501678
_cell_length_c		16.261087
_cell_angle_alpha	89.792153
_cell_angle_beta	89.711908
_cell_angle_gamma	90.170143
_symmetry_space_group_name_H-M	'P 1'
_symmetry_Int_Tables_number		1

loop_
	_symmetry_equiv_pos_as_xyz
	x,y,z

loop_
	_atom_site_label
	_atom_site_type_symbol
	_atom_site_fract_x
	_atom_site_fract_y
	_atom_site_fract_z
	H0	H	0.398175	0.839964	0.718786
	H1	H	0.609056	0.157416	0.717957
	H2	H	0.605533	0.839571	0.278410
	H3	H	0.398963	0.158490	0.274201
	H4	H	0.723553	0.397665	0.834403
	H5	H	0.723319	0.602597	0.155974
	H6	H	0.289409	0.602668	0.831100
	H7	H	0.283198	0.396774	0.154901
	H8	H	0.845503	0.721307	0.387738
	H9	H	0.165062	0.719801	0.597161
	H10	H	0.845154	0.276903	0.603283
	H11	H	0.164337	0.278371	0.388180
	H12	H	0.844210	0.396288	0.715185
	H13	H	0.166601	0.600683	0.709566
	H14	H	0.842993	0.600604	0.277133
	H15	H	0.166735	0.400295	0.278525
	H16	H	0.401524	0.720871	0.834409
	H17	H	0.608155	0.717919	0.156477
	H18	H	0.612462	0.277568	0.836813
	H19	H	0.394865	0.278826	0.154542
	H20	H	0.721382	0.840065	0.394803
	H21	H	0.726335	0.156843	0.603196
	H22	H	0.280454	0.840609	0.603613
	H23	H	0.282554	0.158593	0.391051
	H24	H	0.898307	0.339335	0.216594
	H25	H	0.104717	0.659601	0.210716
	H26	H	0.109732	0.339679	0.773759
	H27	H	0.906263	0.658988	0.776714
	H28	H	0.221963	0.900218	0.335506
	H29	H	0.222544	0.103181	0.657745
	H30	H	0.785673	0.102185	0.334492
	H31	H	0.786439	0.897654	0.657833
	H32	H	0.343434	0.220285	0.890428
	H33	H	0.661876	0.224206	0.103656
	H34	H	0.342690	0.781041	0.098409
	H35	H	0.663929	0.781640	0.891268
	H36	H	0.341385	0.901044	0.212063
	H37	H	0.665353	0.100952	0.212206
	H38	H	0.342534	0.100874	0.778001
	H39	H	0.665276	0.900076	0.779210
	H40	H	0.899745	0.218163	0.335067
	H41	H	0.110606	0.220629	0.655604
	H42	H	0.107050	0.784697	0.334000
	H43	H	0.898430	0.777412	0.654804
	H44	H	0.225747	0.340878	0.889202
	H45	H	0.220016	0.660191	0.091207
	H46	H	0.778263	0.342248	0.103356
	H47	H	0.787888	0.659212	0.892263
	H48	H	0.410972	0.112808	0.588390
	H49	H	0.590906	0.887449	0.587770
	H50	H	0.600558	0.114278	0.408156
	H51	H	0.406205	0.883375	0.402306
	H52	H	0.592340	0.411984	0.110008
	H53	H	0.604128	0.600035	0.874688
	H54	H	0.410408	0.590149	0.110491
	H55	H	0.418991	0.402939	0.878414
	H56	H	0.116288	0.590484	0.412798
	H57	H	0.887563	0.593589	0.588396
	H58	H	0.117552	0.412963	0.583400
	H59	H	0.893144	0.416302	0.408073
	H60	H	0.121063	0.404698	0.584683
	H61	H	0.892598	0.591048	0.575295
	H62	H	0.119958	0.584870	0.395481
	H63	H	0.886896	0.405186	0.397624
	H64	H	0.412716	0.589830	0.109421
	H65	H	0.597926	0.579586	0.882946
	H66	H	0.588537	0.415054	0.107635
	H67	H	0.409086	0.410731	0.877333
	H68	H	0.593601	0.114133	0.399306
	H69	H	0.593784	0.886515	0.583712
	H70	H	0.416713	0.110714	0.588124
	H71	H	0.420193	0.888339	0.403040
	H72	H	0.915408	0.611600	0.087393
	H73	H	0.088331	0.387261	0.086184
	H74	H	0.094373	0.611154	0.904545
	H75	H	0.911499	0.384659	0.904207
	H76	H	0.095173	0.909698	0.613348
	H77	H	0.093124	0.087084	0.382513
	H78	H	0.913147	0.092953	0.612563
	H79	H	0.918585	0.907629	0.380644
	H80	H	0.617755	0.087268	0.904960
	H81	H	0.388699	0.089131	0.086549
	H82	H	0.623153	0.892893	0.084650
	H83	H	0.391086	0.912340	0.912908
	H84	H	0.613516	0.915206	0.074716
	H85	H	0.388834	0.091184	0.085046
	H86	H	0.617524	0.093752	0.909016
	H87	H	0.387242	0.909605	0.903138
	H88	H	0.911460	0.084315	0.610652
	H89	H	0.091137	0.089614	0.383100
	H90	H	0.088258	0.910311	0.610099
	H91	H	0.909936	0.906089	0.377805
	H92	H	0.103244	0.614671	0.902018
	H93	H	0.095078	0.386720	0.079148
	H94	H	0.916430	0.609935	0.082609
	H95	H	0.917332	0.385783	0.904213
	H96	H	0.413009	0.110558	0.583235
	H97	H	0.595481	0.884933	0.588866
	H98	H	0.589893	0.109900	0.409211
	H99	H	0.411751	0.889874	0.414752
	H100	H	0.587518	0.410762	0.108810
	H101	H	0.582594	0.596376	0.882438
	H102	H	0.412410	0.592485	0.110607
	H103	H	0.420136	0.414698	0.882272
	H104	H	0.123370	0.602148	0.400593
	H105	H	0.892078	0.580984	0.585206
	H106	H	0.116954	0.407049	0.577004
	H107	H	0.889528	0.400923	0.413094
	H108	H	0.911486	0.611989	0.083813
	H109	H	0.097250	0.384246	0.088208
	H110	H	0.096315	0.614786	0.894889
	H111	H	0.914486	0.387274	0.909277
	H112	H	0.090426	0.903607	0.612190
	H113	H	0.094563	0.089430	0.381127
	H114	H	0.919223	0.087766	0.608752
	H115	H	0.912164	0.914293	0.381325
	H116	H	0.615669	0.086657	0.912550
	H117	H	0.390646	0.089028	0.084157
	H118	H	0.621528	0.914078	0.099910
	H119	H	0.388334	0.902512	0.910778
	C120	C	0.381268	0.006677	0.619077
	C121	C	0.625238	0.990886	0.618552
	C122	C	0.625409	0.007853	0.374335
	C123	C	0.381185	0.991784	0.374853
	C124	C	0.623624	0.379780	0.003623
	C125	C	0.625668	0.621649	0.986869
	C126	C	0.382831	0.621483	0.003061
	C127	C	0.382475	0.378099	0.985603
	C128	C	0.013490	0.622066	0.372256
	C129	C	0.996893	0.619664	0.614005
	C130	C	0.013149	0.377064	0.615749
	C131	C	0.996083	0.377148	0.373967
	C132	C	0.881409	0.507065	0.117663
	C133	C	0.124600	0.491455	0.114483
	C134	C	0.128274	0.508095	0.870200
	C135	C	0.884217	0.491056	0.874155
	C136	C	0.123485	0.878906	0.505060
	C137	C	0.125127	0.120482	0.488165
	C138	C	0.882861	0.119973	0.504426
	C139	C	0.882239	0.877589	0.486586
	C140	C	0.511368	0.120922	0.875851
	C141	C	0.494957	0.121667	0.117740
	C142	C	0.512488	0.877554	0.117390
	C143	C	0.494978	0.878226	0.876003
	C144	C	0.379749	0.887303	0.678934
	C145	C	0.627337	0.109911	0.678110
	C146	C	0.625119	0.887743	0.316918
	C147	C	0.380367	0.110950	0.314442
	C148	C	0.684314	0.378111	0.882973
	C149	C	0.683730	0.621450	0.107977
	C150	C	0.327318	0.621634	0.880373
	C151	C	0.322443	0.377649	0.106467
	C152	C	0.893023	0.681063	0.370166
	C153	C	0.117100	0.679764	0.615556
	C154	C	0.892705	0.317599	0.620012
	C155	C	0.116504	0.318319	0.371137
	C156	C	0.892474	0.376827	0.675885
	C157	C	0.118231	0.620332	0.671530
	C158	C	0.891734	0.621014	0.315052
	C159	C	0.117597	0.378615	0.315829
	C160	C	0.382867	0.680763	0.882032
	C161	C	0.626598	0.679064	0.108224
	C162	C	0.628748	0.318643	0.884235
	C163	C	0.378181	0.318840	0.106514
	C164	C	0.682967	0.887817	0.374724
	C165	C	0.686014	0.109624	0.621030
	C166	C	0.321106	0.887779	0.621401
	C167	C	0.322143	0.110955	0.372683
	C168	C	0.879643	0.387374	0.177352
	C169	C	0.124152	0.611804	0.171475
	C170	C	0.128388	0.387648	0.812667
	C171	C	0.885613	0.611058	0.815450
	C172	C	0.182544	0.880245	0.383538
	C173	C	0.183950	0.121744	0.609180
	C174	C	0.824370	0.121209	0.383184
	C175	C	0.824615	0.877526	0.608600
	C176	C	0.391274	0.180243	0.873151
	C177	C	0.614583	0.182809	0.120902
	C178	C	0.391064	0.819949	0.118049
	C179	C	0.616097	0.820735	0.873421
	C180	C	0.390180	0.879714	0.174115
	C181	C	0.616431	0.121517	0.174957
	C182	C	0.390759	0.120919	0.817018
	C183	C	0.616790	0.879730	0.817771
	C184	C	0.881471	0.178794	0.383278
	C185	C	0.128010	0.180342	0.608176
	C186	C	0.125314	0.823166	0.382560
	C187	C	0.880382	0.817875	0.607268
	C188	C	0.186563	0.388232	0.869835
	C189	C	0.181580	0.612104	0.112303
	C190	C	0.819996	0.388601	0.120844
	C191	C	0.826935	0.611210	0.873078
	C192	C	0.406427	0.089564	0.593906
	C193	C	0.600457	0.907961	0.593836
	C194	C	0.601465	0.091210	0.398415
	C195	C	0.405607	0.908780	0.399805
	C196	C	0.597208	0.405297	0.087153
	C197	C	0.601802	0.598560	0.902028
	C198	C	0.405432	0.597573	0.087962
	C199	C	0.408618	0.402299	0.901161
	C200	C	0.097840	0.599080	0.395977
	C201	C	0.912652	0.595491	0.589971
	C202	C	0.096776	0.401299	0.589357
	C203	C	0.911791	0.400592	0.398976
	C204	C	0.906900	0.589794	0.092006
	C205	C	0.100719	0.407810	0.091180
	C206	C	0.104717	0.591685	0.893693
	C207	C	0.907626	0.407686	0.898853
	C208	C	0.098509	0.901367	0.589883
	C209	C	0.100303	0.095788	0.404172
	C210	C	0.907516	0.095590	0.588687
	C211	C	0.906488	0.902245	0.401955
	C212	C	0.595118	0.096402	0.901295
	C213	C	0.411120	0.097037	0.092695
	C214	C	0.597320	0.900621	0.093542
	C215	C	0.410832	0.901448	0.901475
	Zn216	Zn	0.503546	-0.001052	0.747513
	Zn217	Zn	0.503832	-0.000362	0.245813
	Zn218	Zn	0.753136	0.499893	-0.004927
	Zn219	Zn	0.255515	0.499529	-0.007172
	Zn220	Zn	0.004179	0.749650	0.494277
	Zn221	Zn	0.004018	0.248051	0.495683
	Zn222	Zn	0.005522	0.498675	0.743356
	Zn223	Zn	0.004226	0.498860	0.245864
	Zn224	Zn	0.504420	0.749011	-0.004149
	Zn225	Zn	0.503428	0.250397	-0.004232
	Zn226	Zn	0.754265	-0.000361	0.496123
	Zn227	Zn	0.252156	-0.000686	0.497504
	N228	N	0.416346	0.962360	0.677747
	N229	N	0.590352	0.035217	0.676708
	N230	N	0.590048	0.963381	0.316725
	N231	N	0.416594	0.035927	0.315882
	N232	N	0.681393	0.415245	0.958446
	N233	N	0.683440	0.586755	0.031317
	N234	N	0.326987	0.585447	0.956697
	N235	N	0.324808	0.413680	0.030109
	N236	N	0.969728	0.682096	0.404719
	N237	N	0.040532	0.679498	0.580616
	N238	N	0.968842	0.317532	0.583187
	N239	N	0.039738	0.317109	0.406480
	N240	N	0.968278	0.412818	0.673319
	N241	N	0.042649	0.583406	0.670614
	N242	N	0.967594	0.584909	0.316149
	N243	N	0.041692	0.414253	0.317380
	N244	N	0.416778	0.680760	0.959222
	N245	N	0.591285	0.679291	0.031682
	N246	N	0.591805	0.319558	0.960315
	N247	N	0.414807	0.319059	0.030305
	N248	N	0.683424	0.963637	0.409643
	N249	N	0.684811	0.034664	0.584505
	N250	N	0.321777	0.963025	0.585252
	N251	N	0.322743	0.035959	0.409665
	N252	N	0.917072	0.462167	0.175630
	N253	N	0.089295	0.535846	0.172853
	N254	N	0.093284	0.463358	0.812371
	N255	N	0.920437	0.535305	0.815956
	N256	N	0.181654	0.914177	0.460674
	N257	N	0.182125	0.085135	0.533467
	N258	N	0.825046	0.085351	0.459600
	N259	N	0.825552	0.913917	0.532430
	N260	N	0.467535	0.180453	0.908774
	N261	N	0.537941	0.183188	0.086153
	N262	N	0.468325	0.818224	0.083870
	N263	N	0.539468	0.819694	0.908825
	N264	N	0.466752	0.914392	0.174019
	N265	N	0.541079	0.084227	0.173042
	N266	N	0.466523	0.084824	0.818560
	N267	N	0.540418	0.914690	0.818992
	N268	N	0.917045	0.178197	0.459719
	N269	N	0.092129	0.179766	0.531980
	N270	N	0.089263	0.822260	0.459067
	N271	N	0.915237	0.817764	0.530148
	N272	N	0.186701	0.463927	0.904713
	N273	N	0.181963	0.536237	0.077610
	N274	N	0.820886	0.463888	0.084513
	N275	N	0.825791	0.535499	0.908719
	O276	O	0.708028	0.657470	0.576129
	H277	H	0.729376	0.669752	0.584782
	H278	H	0.692266	0.664635	0.587251
	O279	O	0.614134	0.419373	0.602884
	H280	H	0.616561	0.433391	0.595309
	H281	H	0.617753	0.400316	0.593395
	O282	O	0.625955	0.554995	0.502199
	H283	H	0.651241	0.534929	0.506733
	H284	H	0.618054	0.566432	0.488999
	O285	O	0.516308	-0.326534	-0.411381
	H286	H	0.508777	-0.343261	-0.392128
	H287	H	0.521291	-0.316353	-0.415505
	O288	O	0.477326	-0.541866	0.518937
	H289	H	0.480060	-0.541884	0.516948
	H290	H	0.481557	-0.535605	0.510202
	O291	O	0.481254	0.475430	0.384504
	H292	H	0.495935	0.482613	0.376769
	H293	H	0.490202	0.492926	0.383062
	O294	O	0.576366	0.532345	0.697016
	H295	H	0.583924	0.535428	0.714628
	H296	H	0.549105	0.537226	0.692546
	O297	O	0.886812	1.052152	1.080499
	H298	H	0.889360	1.062903	1.076718
	H299	H	0.886028	1.053933	1.069382
	O300	O	-0.594988	0.556959	0.615196
	H301	H	-0.601314	0.557362	0.611213
	H302	H	-0.596619	0.535587	0.622622
	O303	O	0.584307	0.696529	0.508116
	H304	H	0.579004	0.697699	0.488486
	H305	H	0.582577	0.704138	0.515964
	O306	O	0.935257	-0.109325	0.046482
	H307	H	0.935219	-0.104144	0.054045
	H308	H	0.943723	-0.100959	0.054032
	O309	O	0.403272	0.392537	0.416262
	H310	H	0.396336	0.391077	0.420453
	H311	H	0.416671	0.405964	0.428692
	O312	O	0.507735	0.440921	-0.605277
	H313	H	0.506321	0.449257	-0.616182
	H314	H	0.521685	0.443939	-0.607704
	O315	O	0.546718	0.595102	0.426230
	H316	H	0.549733	0.596503	0.419881
	H317	H	0.520744	0.585104	0.427141
	O318	O	0.686072	0.515545	0.585577
	H319	H	0.695813	0.521495	0.575713
	H320	H	0.696361	0.499221	0.586662
	O321	O	1.039081	0.016754	1.031791
	H322	H	1.034579	0.015890	1.009555
	H323	H	1.037029	0.023640	1.024658
	O324	O	-0.005036	-0.017563	1.168991
	H325	H	-0.003854	-0.010444	1.179791
	H326	H	0.001496	-0.008574	1.174041
	O327	O	0.470626	0.584026	0.360981
	H328	H	0.474921	0.583789	0.347795
	H329	H	0.452809	0.594889	0.370370
	O330	O	0.395803	0.616021	0.598415
	H331	H	0.395791	0.598008	0.614543
	H332	H	0.398362	0.622373	0.610990
	O333	O	1.046366	0.984973	1.116909
	H334	H	1.032523	0.978740	1.101310
	H335	H	1.039194	1.000802	1.125410
	O336	O	0.308215	0.557445	0.302588
	H337	H	0.309891	0.561892	0.315078
	H338	H	0.300378	0.551946	0.304849
	O339	O	1.097969	-0.069336	0.967000
	H340	H	1.088835	-0.079310	0.980383
	H341	H	1.103196	-0.073324	0.962531
	O342	O	0.026456	1.140285	1.044428
	H343	H	0.022727	1.147817	1.046835
	H344	H	0.036209	1.120686	1.049313
	O345	O	-0.051593	1.068405	1.151031
	H346	H	-0.059865	1.072752	1.156144
	H347	H	-0.050738	1.065199	1.149740
	O348	O	1.089688	0.930003	0.913496
	H349	H	1.081789	0.937754	0.913838
	H350	H	1.086771	0.932231	0.905205
	O351	O	-0.023784	-0.188207	0.026205
	H352	H	-0.018769	-0.190578	0.027155
	H353	H	-0.025143	-0.194437	0.027455
	O354	O	1.137445	1.130270	-0.019303
	H355	H	1.141722	1.140105	-0.038684
	H356	H	1.131139	1.130379	-0.022060
	O357	O	0.045627	0.921629	-0.037533
	H358	H	0.045344	0.923723	-0.039292
	H359	H	0.044614	0.927177	-0.027727
	O360	O	0.618379	0.422933	0.531745
	H361	H	0.618940	0.427807	0.520708
	H362	H	0.618478	0.433190	0.531422
	O363	O	0.599175	0.352654	0.325103
	H364	H	0.604671	0.338920	0.344754
	H365	H	0.568928	0.356238	0.320522
	O366	O	0.824960	0.890597	1.118329
	H367	H	0.834352	0.883850	1.132513
	H368	H	0.807037	0.872797	1.127648
	O369	O	0.438658	0.614231	0.590815
	H370	H	0.442773	0.598039	0.598712
	H371	H	0.443087	0.609337	0.594970
	O372	O	-0.036679	1.183438	-0.089882
	H373	H	-0.043506	1.168775	-0.095262
	H374	H	-0.044138	1.192698	-0.101810
	O375	O	0.327964	0.303263	0.504895
	H376	H	0.335219	0.308689	0.482140
	H377	H	0.321516	0.288892	0.490120
	O378	O	0.687445	0.400571	0.460024
	H379	H	0.680601	0.406868	0.461054
	H380	H	0.688928	0.385200	0.470849
	O381	O	0.374614	0.365654	0.691506
	H382	H	0.375619	0.355833	0.705996
	H383	H	0.384080	0.355813	0.683188
	O384	O	-0.094540	1.195485	0.888333
	H385	H	-0.094568	1.182278	0.871771
	H386	H	-0.068454	1.191016	0.892478
	O387	O	0.817836	1.183769	-0.049398
	H388	H	0.819914	1.194846	-0.062515
	H389	H	0.815352	1.189152	-0.054029
	O390	O	0.162478	-0.064434	1.011864
	H391	H	0.158902	-0.069704	1.017408
	H392	H	0.182732	-0.070568	1.032179
	O393	O	1.307930	0.701658	1.378682
	H394	H	1.312973	0.696601	1.404934
	H395	H	1.293454	0.719436	1.384844
	O396	O	-0.029586	0.934101	0.974701
	H397	H	-0.036930	0.933719	0.965913
	H398	H	-0.026363	0.933202	0.978905
	O399	O	0.338918	0.459071	0.586654
	H400	H	0.321364	0.459087	0.579835
	H401	H	0.363450	0.441711	0.588309
	O402	O	0.848391	-0.027608	0.849951
	H403	H	0.860525	-0.042226	0.860074
	H404	H	0.841785	-0.024607	0.855537
	O405	O	0.181040	0.107693	-0.003537
	H406	H	0.175706	0.106979	0.005403
	H407	H	0.186527	0.118535	-0.009681
	O408	O	1.050613	0.859385	1.006558
	H409	H	1.055281	0.864351	1.012697
	H410	H	1.046793	0.866339	1.022267
	O411	O	0.857590	0.994703	-0.107114
	H412	H	0.850275	0.978574	-0.110720
	H413	H	0.860704	0.988567	-0.085359
	O414	O	0.100608	0.009906	1.124878
	H415	H	0.090415	0.023730	1.136710
	H416	H	0.099354	0.007928	1.116379
	O417	O	0.643146	0.509406	0.302728
	H418	H	0.633791	0.499274	0.301588
	H419	H	0.657202	0.499603	0.294683
	O420	O	0.027247	0.916224	0.010598
	H421	H	0.040810	0.913926	-0.004541
	H422	H	0.019159	0.936364	0.021502
	O423	O	1.092127	-0.075600	-0.151735
	H424	H	1.101873	-0.083572	-0.149577
	H425	H	1.078878	-0.094238	-0.138558
	O426	O	-0.394645	-0.639656	0.296559
	H427	H	-0.403565	-0.629833	0.303850
	H428	H	-0.387935	-0.640072	0.283172
	O429	O	0.486838	0.292711	0.620536
	H430	H	0.484999	0.292168	0.621564
	H431	H	0.495006	0.296681	0.613869
