data_Molecule from HDF5

_cell_length_a		16.361320
_cell_length_b		16.424504
_cell_length_c		16.291275
_cell_angle_alpha	90.066073
_cell_angle_beta	90.595190
_cell_angle_gamma	89.991156
_symmetry_space_group_name_H-M	'P 1'
_symmetry_Int_Tables_number		1

loop_
	_symmetry_equiv_pos_as_xyz
	x,y,z

loop_
	_atom_site_label
	_atom_site_type_symbol
	_atom_site_fract_x
	_atom_site_fract_y
	_atom_site_fract_z
	H0	H	0.394685	0.847945	0.713202
	H1	H	0.607568	0.163523	0.713416
	H2	H	0.601724	0.846376	0.269745
	H3	H	0.394911	0.166666	0.273496
	H4	H	0.718825	0.401442	0.833422
	H5	H	0.720792	0.610471	0.153508
	H6	H	0.273019	0.613949	0.835283
	H7	H	0.285424	0.402767	0.155696
	H8	H	0.841887	0.725031	0.381919
	H9	H	0.159294	0.725027	0.601509
	H10	H	0.841295	0.280745	0.597108
	H11	H	0.160290	0.282733	0.391211
	H12	H	0.840318	0.397385	0.712413
	H13	H	0.156744	0.610854	0.719842
	H14	H	0.840327	0.603716	0.272623
	H15	H	0.161978	0.398566	0.277235
	H16	H	0.390489	0.728575	0.832916
	H17	H	0.605490	0.727339	0.152658
	H18	H	0.604997	0.284941	0.833860
	H19	H	0.397070	0.285341	0.152036
	H20	H	0.719507	0.844993	0.384205
	H21	H	0.725773	0.160872	0.600277
	H22	H	0.280270	0.846338	0.595648
	H23	H	0.277524	0.164820	0.386693
	H24	H	0.903471	0.341374	0.205404
	H25	H	0.104095	0.662712	0.215936
	H26	H	0.105028	0.344624	0.773636
	H27	H	0.890671	0.661278	0.767600
	H28	H	0.213268	0.904703	0.329197
	H29	H	0.222771	0.109735	0.651830
	H30	H	0.779591	0.106888	0.331270
	H31	H	0.776689	0.893754	0.650283
	H32	H	0.340173	0.226821	0.885920
	H33	H	0.660085	0.226030	0.097968
	H34	H	0.341660	0.784557	0.097049
	H35	H	0.657583	0.782256	0.884867
	H36	H	0.337913	0.906061	0.206351
	H37	H	0.659732	0.109156	0.213361
	H38	H	0.341892	0.114085	0.767352
	H39	H	0.660344	0.901899	0.773826
	H40	H	0.894970	0.222559	0.331509
	H41	H	0.106703	0.224108	0.652623
	H42	H	0.101735	0.784967	0.331727
	H43	H	0.892780	0.779304	0.650385
	H44	H	0.221246	0.345855	0.891146
	H45	H	0.222738	0.663655	0.102823
	H46	H	0.780325	0.345532	0.096251
	H47	H	0.777760	0.664070	0.886456
	H48	H	0.405714	0.122876	0.584249
	H49	H	0.586283	0.893526	0.575049
	H50	H	0.590568	0.117225	0.409354
	H51	H	0.410660	0.893200	0.401600
	H52	H	0.592902	0.417356	0.108909
	H53	H	0.588991	0.592784	0.878928
	H54	H	0.408110	0.596008	0.109152
	H55	H	0.414091	0.421228	0.881153
	H56	H	0.115032	0.596299	0.408106
	H57	H	0.885740	0.594252	0.578878
	H58	H	0.111829	0.413689	0.576523
	H59	H	0.885038	0.410281	0.397825
	H60	H	0.112379	0.420309	0.586289
	H61	H	0.889009	0.590697	0.573804
	H62	H	0.112536	0.591069	0.407182
	H63	H	0.885731	0.409814	0.401832
	H64	H	0.416673	0.592422	0.104081
	H65	H	0.584949	0.595635	0.879454
	H66	H	0.588985	0.418887	0.106038
	H67	H	0.410504	0.414191	0.877575
	H68	H	0.593320	0.119594	0.400752
	H69	H	0.593317	0.889703	0.581804
	H70	H	0.418836	0.117887	0.581603
	H71	H	0.402725	0.890359	0.400459
	H72	H	0.920960	0.615006	0.083320
	H73	H	0.096970	0.388673	0.085660
	H74	H	0.085741	0.616016	0.909288
	H75	H	0.909138	0.393074	0.907922
	H76	H	0.091940	0.913816	0.607659
	H77	H	0.098720	0.090764	0.374697
	H78	H	0.915028	0.092121	0.605830
	H79	H	0.909057	0.914959	0.377591
	H80	H	0.612954	0.097806	0.908340
	H81	H	0.386717	0.100573	0.073644
	H82	H	0.613896	0.913325	0.079724
	H83	H	0.384974	0.916267	0.898505
	H84	H	0.611630	0.922292	0.078812
	H85	H	0.386386	0.092447	0.083888
	H86	H	0.613533	0.093115	0.903053
	H87	H	0.387795	0.916388	0.907221
	H88	H	0.912072	0.092105	0.606422
	H89	H	0.080355	0.087097	0.382395
	H90	H	0.090249	0.915823	0.607304
	H91	H	0.911302	0.914593	0.378610
	H92	H	0.086457	0.616475	0.906903
	H93	H	0.092265	0.389547	0.087305
	H94	H	0.904181	0.618629	0.076264
	H95	H	0.906368	0.389908	0.903781
	H96	H	0.408814	0.116785	0.571406
	H97	H	0.583553	0.891918	0.585087
	H98	H	0.584666	0.116812	0.402281
	H99	H	0.408740	0.890641	0.394034
	H100	H	0.589246	0.414513	0.108189
	H101	H	0.588974	0.597649	0.876179
	H102	H	0.416250	0.602437	0.107228
	H103	H	0.406107	0.421332	0.877855
	H104	H	0.115704	0.593591	0.403229
	H105	H	0.888271	0.587400	0.580027
	H106	H	0.116727	0.408748	0.586562
	H107	H	0.886576	0.413595	0.400175
	H108	H	0.907257	0.622409	0.093930
	H109	H	0.094264	0.390595	0.082145
	H110	H	0.083575	0.615028	0.907272
	H111	H	0.912473	0.391300	0.902464
	H112	H	0.089470	0.913575	0.606773
	H113	H	0.085007	0.105322	0.374671
	H114	H	0.913374	0.089177	0.604845
	H115	H	0.910025	0.912670	0.377258
	H116	H	0.615275	0.099740	0.902719
	H117	H	0.381114	0.104441	0.084972
	H118	H	0.615344	0.918622	0.086605
	H119	H	0.388352	0.923835	0.902094
	C120	C	0.378874	0.014551	0.611898
	C121	C	0.622325	0.995800	0.613912
	C122	C	0.620398	0.012784	0.370615
	C123	C	0.376205	0.996965	0.368170
	C124	C	0.621615	0.385193	0.002093
	C125	C	0.621154	0.627721	0.983885
	C126	C	0.377999	0.629210	0.001836
	C127	C	0.380074	0.386498	0.985056
	C128	C	0.009303	0.624774	0.371721
	C129	C	0.991564	0.624769	0.613464
	C130	C	0.008284	0.381701	0.614500
	C131	C	0.991889	0.380340	0.370751
	C132	C	0.880176	0.512469	0.114122
	C133	C	0.124851	0.495076	0.117621
	C134	C	0.119262	0.511913	0.874662
	C135	C	0.876631	0.495990	0.870919
	C136	C	0.120522	0.883625	0.500534
	C137	C	0.120964	0.125910	0.483604
	C138	C	0.879876	0.123443	0.500273
	C139	C	0.878008	0.881084	0.482887
	C140	C	0.508931	0.129256	0.870571
	C141	C	0.490721	0.129682	0.113956
	C142	C	0.507944	0.886682	0.112422
	C143	C	0.491629	0.885664	0.870549
	C144	C	0.376631	0.895268	0.673003
	C145	C	0.626054	0.115245	0.674190
	C146	C	0.620858	0.893721	0.309644
	C147	C	0.375508	0.117998	0.311183
	C148	C	0.679907	0.383246	0.881435
	C149	C	0.680996	0.629283	0.105234
	C150	C	0.314202	0.631993	0.882640
	C151	C	0.323378	0.384556	0.106520
	C152	C	0.889362	0.684361	0.366032
	C153	C	0.110756	0.685565	0.619055
	C154	C	0.888772	0.321109	0.615758
	C155	C	0.112470	0.321681	0.371637
	C156	C	0.888389	0.379138	0.673201
	C157	C	0.110045	0.628363	0.677693
	C158	C	0.888824	0.623921	0.311307
	C159	C	0.113243	0.379718	0.315085
	C160	C	0.372898	0.688968	0.881384
	C161	C	0.623870	0.687647	0.104663
	C162	C	0.623323	0.325145	0.881740
	C163	C	0.378834	0.325750	0.104685
	C164	C	0.679513	0.893015	0.366861
	C165	C	0.684970	0.113887	0.617751
	C166	C	0.319453	0.894509	0.614439
	C167	C	0.317030	0.116982	0.367777
	C168	C	0.882035	0.390579	0.168914
	C169	C	0.124106	0.615143	0.176763
	C170	C	0.122684	0.392558	0.813947
	C171	C	0.873383	0.614505	0.808792
	C172	C	0.176524	0.884119	0.378555
	C173	C	0.182308	0.127518	0.603895
	C174	C	0.819387	0.125276	0.379315
	C175	C	0.817305	0.876865	0.602568
	C176	C	0.388637	0.188160	0.867658
	C177	C	0.611745	0.187160	0.116551
	C178	C	0.388604	0.825720	0.114497
	C179	C	0.610710	0.823751	0.867716
	C180	C	0.386675	0.886300	0.168682
	C181	C	0.611613	0.128993	0.173760
	C182	C	0.389323	0.131664	0.808718
	C183	C	0.612017	0.883356	0.812163
	C184	C	0.876607	0.183046	0.379722
	C185	C	0.124099	0.184463	0.604641
	C186	C	0.120476	0.825093	0.379404
	C187	C	0.875111	0.819560	0.602688
	C188	C	0.180764	0.393103	0.872320
	C189	C	0.182710	0.615827	0.119993
	C190	C	0.820948	0.392765	0.114285
	C191	C	0.817352	0.615827	0.868233
	C192	C	0.403936	0.097464	0.586493
	C193	C	0.595453	0.913284	0.588100
	C194	C	0.596386	0.096134	0.396703
	C195	C	0.400412	0.913290	0.391818
	C196	C	0.597450	0.410004	0.085987
	C197	C	0.595160	0.602792	0.900202
	C198	C	0.405484	0.604104	0.085115
	C199	C	0.403678	0.411706	0.900925
	C200	C	0.092871	0.600703	0.398671
	C201	C	0.909107	0.598381	0.585577
	C202	C	0.091983	0.407030	0.590160
	C203	C	0.907657	0.404326	0.393347
	C204	C	0.903936	0.596650	0.091245
	C205	C	0.101425	0.411356	0.092426
	C206	C	0.092736	0.594343	0.900277
	C207	C	0.902051	0.412936	0.897073
	C208	C	0.097219	0.907510	0.585031
	C209	C	0.095273	0.101537	0.399233
	C210	C	0.905760	0.098335	0.583822
	C211	C	0.902995	0.906634	0.399516
	C212	C	0.592376	0.104125	0.896978
	C213	C	0.406549	0.106017	0.088257
	C214	C	0.591705	0.911150	0.088630
	C215	C	0.408592	0.911427	0.895512
	Zn216	Zn	0.500211	0.006687	0.741805
	Zn217	Zn	0.498765	0.006801	0.241152
	Zn218	Zn	0.749635	0.505883	-0.006657
	Zn219	Zn	0.251047	0.505871	-0.005611
	Zn220	Zn	0.000194	0.754247	0.491964
	Zn221	Zn	-0.000141	0.253488	0.492571
	Zn222	Zn	-0.001383	0.503308	0.742821
	Zn223	Zn	0.001543	0.502169	0.243920
	Zn224	Zn	0.500151	0.757150	-0.008044
	Zn225	Zn	0.500293	0.257598	-0.007522
	Zn226	Zn	0.750294	0.003061	0.491465
	Zn227	Zn	0.249249	0.004742	0.491098
	N228	N	0.412774	0.970898	0.671805
	N229	N	0.588001	0.040789	0.672033
	N230	N	0.584800	0.969287	0.312000
	N231	N	0.411685	0.042346	0.311026
	N232	N	0.678693	0.420074	0.957057
	N233	N	0.679542	0.592890	0.029183
	N234	N	0.317204	0.595723	0.958742
	N235	N	0.324023	0.421973	0.031009
	N236	N	0.965248	0.685041	0.402942
	N237	N	0.036084	0.683411	0.579610
	N238	N	0.964448	0.322602	0.580053
	N239	N	0.035862	0.321858	0.405583
	N240	N	0.963793	0.416140	0.672439
	N241	N	0.034971	0.591274	0.674357
	N242	N	0.964362	0.587409	0.314768
	N243	N	0.037536	0.415669	0.314565
	N244	N	0.411779	0.687425	0.956487
	N245	N	0.587350	0.686938	0.028267
	N246	N	0.587685	0.326302	0.957756
	N247	N	0.413415	0.326907	0.028266
	N248	N	0.679066	0.968080	0.404285
	N249	N	0.683081	0.038432	0.581160
	N250	N	0.320621	0.969581	0.577446
	N251	N	0.317252	0.040796	0.402519
	N252	N	0.918243	0.466068	0.168932
	N253	N	0.089036	0.539148	0.175544
	N254	N	0.084929	0.467474	0.815347
	N255	N	0.909662	0.538998	0.810485
	N256	N	0.176757	0.919754	0.454917
	N257	N	0.180407	0.091993	0.527444
	N258	N	0.821229	0.088806	0.455269
	N259	N	0.818546	0.914258	0.527186
	N260	N	0.464299	0.186725	0.905437
	N261	N	0.535423	0.187872	0.080223
	N262	N	0.464713	0.826120	0.079687
	N263	N	0.534954	0.825027	0.903362
	N264	N	0.461975	0.923301	0.167788
	N265	N	0.535352	0.094071	0.172223
	N266	N	0.465045	0.095664	0.810336
	N267	N	0.536971	0.921295	0.813890
	N268	N	0.913678	0.182114	0.455772
	N269	N	0.086731	0.183503	0.528825
	N270	N	0.086805	0.824342	0.456358
	N271	N	0.911901	0.822061	0.527254
	N272	N	0.178684	0.468294	0.909354
	N273	N	0.183437	0.540086	0.084139
	N274	N	0.819817	0.469642	0.080852
	N275	N	0.819072	0.540945	0.905752
	O276	O	0.622581	0.462069	0.622269
	H277	H	0.624523	0.459595	0.596954
	H278	H	0.626257	0.439485	0.617672
	O279	O	0.353985	0.457942	0.509029
	H280	H	0.357355	0.472401	0.495996
	H281	H	0.337683	0.468315	0.507657
	O282	O	0.296750	0.547367	0.280952
	H283	H	0.274511	0.556371	0.255606
	H284	H	0.298085	0.588950	0.285812
	O285	O	0.579691	-0.480546	-0.537273
	H286	H	0.580962	-0.492243	-0.543970
	H287	H	0.559578	-0.495651	-0.548755
	O288	O	0.601174	-0.545972	0.621138
	H289	H	0.604640	-0.576545	0.613651
	H290	H	0.600993	-0.553044	0.618897
	O291	O	0.480832	0.591005	0.635800
	H292	H	0.476349	0.558008	0.626789
	H293	H	0.495247	0.608912	0.635882
	O294	O	0.384306	0.621484	0.597322
	H295	H	0.388182	0.633923	0.610246
	H296	H	0.401243	0.610501	0.599404
	O297	O	0.948856	0.821979	1.021674
	H298	H	0.940832	0.835156	1.031789
	H299	H	0.934464	0.815333	0.996971
	O300	O	-0.502053	0.362679	0.374348
	H301	H	-0.516751	0.368920	0.362423
	H302	H	-0.504265	0.376022	0.368160
	O303	O	0.486560	0.467046	0.673657
	H304	H	0.495208	0.451519	0.655419
	H305	H	0.485238	0.452711	0.683272
	O306	O	1.048092	0.084128	0.070375
	H307	H	1.054674	0.074453	0.077804
	H308	H	1.047290	0.075052	0.064351
	O309	O	0.972749	0.928626	0.079052
	H310	H	0.960980	0.941151	0.080763
	H311	H	0.976062	0.933058	0.085427
	O312	O	0.687187	0.643363	-0.452661
	H313	H	0.690964	0.602149	-0.430022
	H314	H	0.655511	0.635607	-0.466528
	O315	O	0.330343	0.679217	0.320186
	H316	H	0.357187	0.694377	0.315914
	H317	H	0.324878	0.689147	0.368591
	O318	O	0.641023	0.375040	0.369294
	H319	H	0.655473	0.391961	0.364589
	H320	H	0.650366	0.381321	0.375837
	O321	O	1.116953	0.015215	0.891989
	H322	H	1.114695	0.008317	0.894808
	H323	H	1.121650	0.027255	0.886108
	O324	O	0.129866	-0.058916	1.076321
	H325	H	0.127007	-0.069600	1.068089
	H326	H	0.134436	-0.057889	1.081169
	O327	O	0.436000	0.325031	0.489913
	H328	H	0.428602	0.321364	0.483779
	H329	H	0.437998	0.334312	0.494605
	O330	O	0.558224	0.500010	0.497987
	H331	H	0.559592	0.498665	0.495570
	H332	H	0.559311	0.496964	0.487657
	O333	O	0.930347	1.013043	0.865812
	H334	H	0.936053	1.006379	0.868277
	H335	H	0.935029	0.998827	0.853997
	O336	O	0.437192	0.403951	0.630679
	H337	H	0.424949	0.398227	0.612590
	H338	H	0.445323	0.406672	0.621318
	O339	O	1.299345	-0.295234	1.473385
	H340	H	1.283235	-0.276934	1.483567
	H341	H	1.322291	-0.295845	1.498648
	O342	O	-0.206664	0.981026	0.936213
	H343	H	-0.220801	0.965183	0.921830
	H344	H	-0.198612	0.989922	0.927435
	O345	O	-0.196387	1.071948	0.842620
	H346	H	-0.198262	1.076785	0.823489
	H347	H	-0.185365	1.050595	0.835818
	O348	O	1.061059	0.810477	0.799250
	H349	H	1.057287	0.788875	0.786663
	H350	H	1.052198	0.794468	0.830812
	O351	O	-0.019884	-0.063620	0.078453
	H352	H	-0.032380	-0.059238	0.085028
	H353	H	-0.033004	-0.058614	0.079633
	O354	O	0.837018	0.828753	0.114720
	H355	H	0.851941	0.820239	0.114580
	H356	H	0.831894	0.841039	0.119373
	O357	O	-0.124270	1.197348	-0.177781
	H358	H	-0.091495	1.209815	-0.176723
	H359	H	-0.130483	1.179579	-0.174426
	O360	O	0.596282	0.433938	0.609576
	H361	H	0.582203	0.424796	0.600643
	H362	H	0.606499	0.429254	0.627976
	O363	O	0.640486	0.716742	0.477780
	H364	H	0.665606	0.726830	0.496184
	H365	H	0.644496	0.713747	0.505846
	O366	O	0.938249	0.867149	0.946841
	H367	H	0.944703	0.895819	0.952799
	H368	H	0.923910	0.856151	0.954509
	O369	O	-0.182498	0.129738	0.983627
	H370	H	-0.197057	0.136343	0.973066
	H371	H	-0.184664	0.125899	0.969912
	O372	O	-0.012569	1.059380	0.078296
	H373	H	-0.004605	1.057915	0.086437
	H374	H	-0.027031	1.052421	0.074557
	O375	O	0.477738	0.697982	0.398809
	H376	H	0.487414	0.700887	0.409654
	H377	H	0.493009	0.696273	0.421633
	O378	O	0.532408	0.378132	0.291425
	H379	H	0.522673	0.360189	0.266469
	H380	H	0.563168	0.388500	0.297343
	O381	O	0.340113	0.393996	0.445084
	H382	H	0.370902	0.397578	0.429655
	H383	H	0.328050	0.410998	0.435369
	O384	O	0.161668	1.097412	1.024597
	H385	H	0.151106	1.106586	1.030334
	H386	H	0.174883	1.089643	1.023974
	O387	O	1.116173	1.103122	-0.019891
	H388	H	1.123168	1.102741	-0.021902
	H389	H	1.118509	1.105605	-0.007448
	O390	O	0.579689	-0.378410	1.461189
	H391	H	0.595899	-0.369150	1.486696
	H392	H	0.589243	-0.378997	1.456278
	O393	O	1.463470	0.364643	1.677811
	H394	H	1.469689	0.366077	1.665098
	H395	H	1.457833	0.348184	1.674980
	O396	O	0.189308	0.909184	0.902179
	H397	H	0.199609	0.924380	0.885293
	H398	H	0.169983	0.890422	0.893247
	O399	O	0.537212	0.564836	0.598308
	H400	H	0.526000	0.575492	0.615982
	H401	H	0.518693	0.542729	0.589473
	O402	O	1.155337	-0.101381	1.009247
	H403	H	1.129688	-0.105891	0.991686
	H404	H	1.180697	-0.129134	0.999426
	O405	O	0.011212	0.016066	-0.181826
	H406	H	0.013061	0.030390	-0.175110
	H407	H	0.018592	0.017522	-0.185722
	O408	O	1.116456	1.061702	1.144325
	H409	H	1.122428	1.062424	1.134100
	H410	H	1.113761	1.050009	1.141228
	O411	O	0.976151	1.142430	-0.070652
	H412	H	0.983027	1.145113	-0.081413
	H413	H	0.995014	1.140822	-0.064524
	O414	O	-0.063639	0.070598	1.112170
	H415	H	-0.051023	0.083453	1.120755
	H416	H	-0.057233	0.070688	1.092310
	O417	O	0.427194	0.575704	0.427424
	H418	H	0.412975	0.578313	0.420926
	H419	H	0.421291	0.578602	0.434761
	O420	O	0.011828	1.009020	0.073634
	H421	H	0.017549	1.002062	0.086598
	H422	H	0.029055	1.019298	0.073882
	O423	O	0.897085	-0.091700	-0.032174
	H424	H	0.877741	-0.087772	-0.025611
	H425	H	0.905530	-0.090991	-0.007983
	O426	O	-0.416119	-0.449413	0.340700
	H427	H	-0.421221	-0.454880	0.356310
	H428	H	-0.442283	-0.433465	0.334499
	O429	O	0.680162	0.329258	0.493809
	H430	H	0.672520	0.320421	0.487240
	H431	H	0.679451	0.329074	0.477559
