data_Molecule from HDF5

_cell_length_a		16.570767
_cell_length_b		16.666442
_cell_length_c		16.682692
_cell_angle_alpha	90.003843
_cell_angle_beta	90.242079
_cell_angle_gamma	89.981698
_symmetry_space_group_name_H-M	'P 1'
_symmetry_Int_Tables_number		1

loop_
	_symmetry_equiv_pos_as_xyz
	x,y,z

loop_
	_atom_site_label
	_atom_site_type_symbol
	_atom_site_fract_x
	_atom_site_fract_y
	_atom_site_fract_z
	H0	H	0.414604	0.839216	0.728713
	H1	H	0.630406	0.145507	0.728698
	H2	H	0.627149	0.837762	0.281677
	H3	H	0.416017	0.147136	0.283744
	H4	H	0.740442	0.387545	0.848219
	H5	H	0.744039	0.596060	0.158401
	H6	H	0.299670	0.595872	0.848649
	H7	H	0.298201	0.385215	0.157812
	H8	H	0.864291	0.711233	0.399714
	H9	H	0.178036	0.711286	0.608788
	H10	H	0.864222	0.273542	0.604638
	H11	H	0.175901	0.267874	0.397179
	H12	H	0.864751	0.388361	0.721418
	H13	H	0.177782	0.594998	0.724776
	H14	H	0.864781	0.595480	0.283404
	H15	H	0.175410	0.383376	0.280747
	H16	H	0.415598	0.712962	0.849050
	H17	H	0.629275	0.714117	0.158228
	H18	H	0.626469	0.269678	0.849751
	H19	H	0.415255	0.269752	0.158645
	H20	H	0.741030	0.836241	0.400859
	H21	H	0.745416	0.145820	0.611369
	H22	H	0.298949	0.838352	0.610948
	H23	H	0.301731	0.148165	0.401782
	H24	H	0.915603	0.337471	0.225400
	H25	H	0.130346	0.645006	0.229321
	H26	H	0.124314	0.335382	0.785616
	H27	H	0.917606	0.647819	0.784013
	H28	H	0.242025	0.886775	0.350072
	H29	H	0.242201	0.095854	0.660058
	H30	H	0.799289	0.095179	0.349264
	H31	H	0.799188	0.885067	0.658234
	H32	H	0.365988	0.213517	0.899160
	H33	H	0.676935	0.211429	0.109585
	H34	H	0.366130	0.767992	0.110607
	H35	H	0.676766	0.770664	0.898981
	H36	H	0.366191	0.883977	0.226528
	H37	H	0.676664	0.094463	0.224545
	H38	H	0.366070	0.098420	0.782068
	H39	H	0.676694	0.886407	0.783582
	H40	H	0.913780	0.214150	0.350791
	H41	H	0.126706	0.213071	0.659395
	H42	H	0.125494	0.769765	0.349656
	H43	H	0.915619	0.768179	0.658645
	H44	H	0.240495	0.335957	0.902933
	H45	H	0.244182	0.646324	0.111220
	H46	H	0.801279	0.336505	0.107355
	H47	H	0.801687	0.647507	0.900141
	H48	H	0.435839	0.106604	0.604337
	H49	H	0.607644	0.880745	0.598528
	H50	H	0.606290	0.103930	0.409637
	H51	H	0.433197	0.880760	0.416240
	H52	H	0.611186	0.400479	0.116357
	H53	H	0.606872	0.580214	0.894132
	H54	H	0.433200	0.575992	0.112889
	H55	H	0.434880	0.404130	0.895028
	H56	H	0.133637	0.580433	0.413438
	H57	H	0.907424	0.585609	0.592148
	H58	H	0.134330	0.400582	0.594061
	H59	H	0.910458	0.401474	0.418710
	H60	H	0.135015	0.402159	0.594943
	H61	H	0.911113	0.578656	0.590071
	H62	H	0.133364	0.581907	0.416851
	H63	H	0.911347	0.405883	0.415424
	H64	H	0.438382	0.582271	0.114387
	H65	H	0.610442	0.586248	0.890235
	H66	H	0.614176	0.402541	0.116115
	H67	H	0.433282	0.400937	0.893581
	H68	H	0.606409	0.100459	0.419482
	H69	H	0.605479	0.884065	0.589865
	H70	H	0.441071	0.098730	0.587430
	H71	H	0.430427	0.880109	0.415071
	H72	H	0.933867	0.603326	0.094571
	H73	H	0.114713	0.382815	0.084957
	H74	H	0.110911	0.604060	0.913148
	H75	H	0.928903	0.379014	0.913201
	H76	H	0.107847	0.908797	0.612182
	H77	H	0.109421	0.074916	0.394498
	H78	H	0.937331	0.079186	0.613509
	H79	H	0.932871	0.908505	0.396206
	H80	H	0.634209	0.084441	0.917489
	H81	H	0.407489	0.080885	0.095732
	H82	H	0.631067	0.903105	0.091496
	H83	H	0.410715	0.902710	0.918127
	H84	H	0.631737	0.905781	0.094752
	H85	H	0.408522	0.083776	0.090453
	H86	H	0.630846	0.076777	0.920169
	H87	H	0.410508	0.906227	0.915344
	H88	H	0.933126	0.085741	0.616694
	H89	H	0.105705	0.084422	0.394099
	H90	H	0.104979	0.897052	0.615279
	H91	H	0.938670	0.896992	0.394589
	H92	H	0.108838	0.603589	0.913523
	H93	H	0.111953	0.377213	0.099745
	H94	H	0.935546	0.601740	0.092278
	H95	H	0.931263	0.378729	0.910186
	H96	H	0.422476	0.105604	0.589705
	H97	H	0.614079	0.880293	0.591628
	H98	H	0.614958	0.104841	0.415555
	H99	H	0.432741	0.879992	0.413299
	H100	H	0.610969	0.403241	0.114525
	H101	H	0.614271	0.579566	0.891936
	H102	H	0.430548	0.582497	0.116351
	H103	H	0.431388	0.404781	0.893350
	H104	H	0.132391	0.578020	0.416181
	H105	H	0.908552	0.579296	0.597662
	H106	H	0.134757	0.400663	0.595387
	H107	H	0.908630	0.401717	0.413166
	H108	H	0.932310	0.603152	0.091312
	H109	H	0.100291	0.384831	0.092256
	H110	H	0.110218	0.603156	0.914886
	H111	H	0.932839	0.380750	0.913208
	H112	H	0.116460	0.901504	0.617501
	H113	H	0.115012	0.082433	0.391280
	H114	H	0.929318	0.078107	0.615824
	H115	H	0.926291	0.898863	0.390502
	H116	H	0.634212	0.078247	0.911883
	H117	H	0.409925	0.077795	0.091106
	H118	H	0.633331	0.901712	0.094656
	H119	H	0.408669	0.902211	0.913952
	C120	C	0.400112	0.001598	0.626583
	C121	C	0.643147	0.983443	0.626506
	C122	C	0.641821	0.000387	0.382923
	C123	C	0.399805	0.983245	0.383163
	C124	C	0.643153	0.370146	0.012853
	C125	C	0.643420	0.613608	0.995089
	C126	C	0.400390	0.612855	0.012293
	C127	C	0.400415	0.370953	0.996133
	C128	C	0.029521	0.612115	0.383064
	C129	C	1.012869	0.612360	0.624999
	C130	C	0.030407	0.370175	0.625111
	C131	C	1.012660	0.370314	0.382901
	C132	C	0.901223	0.499963	0.124369
	C133	C	0.142648	0.483620	0.125588
	C134	C	0.141816	0.500170	0.883213
	C135	C	0.899625	0.482841	0.881311
	C136	C	0.142287	0.870082	0.512872
	C137	C	0.142287	0.112534	0.495918
	C138	C	0.900211	0.112679	0.512730
	C139	C	0.900250	0.869351	0.495892
	C140	C	0.530067	0.112972	0.883685
	C141	C	0.511923	0.112727	0.125042
	C142	C	0.529291	0.870438	0.125520
	C143	C	0.512814	0.871406	0.883612
	C144	C	0.396638	0.885310	0.687837
	C145	C	0.647866	0.099227	0.687727
	C146	C	0.645084	0.883994	0.322365
	C147	C	0.397410	0.100391	0.323591
	C148	C	0.701634	0.368534	0.895445
	C149	C	0.704069	0.615158	0.111796
	C150	C	0.339704	0.614817	0.895369
	C151	C	0.339094	0.367520	0.111882
	C152	C	0.911684	0.671340	0.381269
	C153	C	0.131129	0.671474	0.627249
	C154	C	0.912090	0.311902	0.624796
	C155	C	0.129288	0.308425	0.379135
	C156	C	0.911914	0.369457	0.682390
	C157	C	0.130885	0.613990	0.684901
	C158	C	0.911572	0.613702	0.323625
	C159	C	0.128952	0.366049	0.321571
	C160	C	0.397185	0.672796	0.895443
	C161	C	0.646790	0.673591	0.111618
	C162	C	0.645056	0.309826	0.896364
	C163	C	0.397206	0.309991	0.112284
	C164	C	0.701835	0.883171	0.381333
	C165	C	0.704940	0.099268	0.629413
	C166	C	0.339283	0.884976	0.629622
	C167	C	0.340614	0.100872	0.382187
	C168	C	0.898264	0.383537	0.184580
	C169	C	0.147431	0.598983	0.188133
	C170	C	0.142978	0.382282	0.825300
	C171	C	0.898861	0.600771	0.823478
	C172	C	0.201802	0.868175	0.396230
	C173	C	0.202211	0.114367	0.613259
	C174	C	0.839813	0.114056	0.395919
	C175	C	0.839987	0.866908	0.612369
	C176	C	0.412907	0.173602	0.880357
	C177	C	0.629928	0.171457	0.127484
	C178	C	0.412681	0.808958	0.128384
	C179	C	0.629864	0.810889	0.881149
	C180	C	0.412504	0.866672	0.185926
	C181	C	0.629790	0.113561	0.184825
	C182	C	0.412772	0.116038	0.822713
	C183	C	0.629936	0.868455	0.823721
	C184	C	0.896424	0.173141	0.396558
	C185	C	0.144787	0.172469	0.612800
	C186	C	0.144276	0.809960	0.396298
	C187	C	0.897555	0.808733	0.612265
	C188	C	0.200764	0.382495	0.883332
	C189	C	0.204180	0.599639	0.129581
	C190	C	0.841470	0.383181	0.125881
	C191	C	0.841266	0.600707	0.881203
	C192	C	0.425712	0.082506	0.600985
	C193	C	0.616530	0.902572	0.600668
	C194	C	0.616445	0.081839	0.407900
	C195	C	0.424920	0.901740	0.407754
	C196	C	0.619094	0.394979	0.094225
	C197	C	0.617800	0.588918	0.913376
	C198	C	0.426496	0.587625	0.093343
	C199	C	0.426180	0.396190	0.915067
	C200	C	0.111808	0.587131	0.408179
	C201	C	0.930747	0.588097	0.600365
	C202	C	0.113226	0.394287	0.601609
	C203	C	0.931441	0.395826	0.408490
	C204	C	0.926560	0.581530	0.099788
	C205	C	0.116471	0.402618	0.099588
	C206	C	0.117233	0.582203	0.906934
	C207	C	0.924114	0.400923	0.905221
	C208	C	0.116972	0.895254	0.594082
	C209	C	0.117228	0.087661	0.414565
	C210	C	0.925932	0.088013	0.594122
	C211	C	0.925273	0.894414	0.414852
	C212	C	0.611854	0.087398	0.909480
	C213	C	0.430050	0.087919	0.099725
	C214	C	0.610706	0.896235	0.100756
	C215	C	0.431088	0.896574	0.908637
	Zn216	Zn	0.521738	-0.007532	0.755028
	Zn217	Zn	0.520109	-0.008314	0.253762
	Zn218	Zn	0.771734	0.491775	0.003232
	Zn219	Zn	0.271312	0.492126	0.004431
	Zn220	Zn	0.021455	0.740593	0.504330
	Zn221	Zn	0.021689	0.241948	0.503721
	Zn222	Zn	0.021401	0.491597	0.753335
	Zn223	Zn	0.021585	0.491691	0.254498
	Zn224	Zn	0.521343	0.742091	0.003844
	Zn225	Zn	0.521383	0.241687	0.004756
	Zn226	Zn	0.771182	-0.008900	0.504569
	Zn227	Zn	0.271556	-0.008204	0.504477
	N228	N	0.433587	0.958995	0.686271
	N229	N	0.610004	0.026010	0.686035
	N230	N	0.608509	0.957946	0.323103
	N231	N	0.433464	0.026174	0.323870
	N232	N	0.701138	0.405083	0.969105
	N233	N	0.702327	0.578779	0.037936
	N234	N	0.341300	0.578356	0.969151
	N235	N	0.341020	0.404828	0.038714
	N236	N	0.986324	0.670726	0.417302
	N237	N	0.056752	0.670742	0.590783
	N238	N	0.987022	0.311997	0.590069
	N239	N	0.055816	0.310508	0.416482
	N240	N	0.986874	0.404749	0.683167
	N241	N	0.056379	0.578164	0.684051
	N242	N	0.986269	0.577708	0.324497
	N243	N	0.055374	0.403596	0.323573
	N244	N	0.434012	0.672048	0.969309
	N245	N	0.610145	0.673141	0.037635
	N246	N	0.609723	0.310203	0.970545
	N247	N	0.434662	0.311858	0.039126
	N248	N	0.700098	0.956704	0.418189
	N249	N	0.702372	0.026056	0.592009
	N250	N	0.341117	0.958159	0.592236
	N251	N	0.341854	0.026978	0.418508
	N252	N	0.934722	0.457332	0.183969
	N253	N	0.109872	0.525638	0.185894
	N254	N	0.107267	0.456468	0.824940
	N255	N	0.934227	0.526367	0.823168
	N256	N	0.200783	0.904954	0.469860
	N257	N	0.200922	0.077934	0.539534
	N258	N	0.841985	0.077165	0.469317
	N259	N	0.841503	0.904054	0.539008
	N260	N	0.486931	0.171947	0.917473
	N261	N	0.555579	0.171267	0.091305
	N262	N	0.486433	0.811058	0.091419
	N263	N	0.555985	0.812586	0.917827
	N264	N	0.486038	0.904209	0.184381
	N265	N	0.555255	0.077823	0.183699
	N266	N	0.486903	0.079153	0.824455
	N267	N	0.556141	0.905824	0.825261
	N268	N	0.933528	0.172315	0.470184
	N269	N	0.108087	0.171595	0.538856
	N270	N	0.108040	0.810997	0.470012
	N271	N	0.934330	0.810115	0.538788
	N272	N	0.200179	0.456893	0.918663
	N273	N	0.201408	0.526797	0.091380
	N274	N	0.843301	0.456600	0.088963
	N275	N	0.841373	0.526329	0.916450
	O276	O	-0.082118	0.908073	-0.108983
	H277	H	-0.087538	0.902419	-0.112220
	H278	H	-0.088378	0.914360	-0.102535
	O279	O	-0.001178	1.032916	0.213850
	H280	H	0.002480	1.051644	0.223248
	H281	H	-0.009556	1.017322	0.191759
	O282	O	1.254208	-0.071875	1.052725
	H283	H	1.257371	-0.082548	1.045777
	H284	H	1.255777	-0.079006	1.051558
	O285	O	0.553839	0.701625	0.716011
	H286	H	0.562377	0.702633	0.721646
	H287	H	0.539230	0.704049	0.716747
	O288	O	0.312272	0.424453	0.454401
	H289	H	0.316886	0.399679	0.469846
	H290	H	0.321538	0.437550	0.452486
	O291	O	0.524790	0.468825	0.696255
	H292	H	0.532972	0.463835	0.705349
	H293	H	0.530084	0.469357	0.686177
	O294	O	0.982574	-0.010975	0.972431
	H295	H	0.975767	-0.008697	0.982412
	H296	H	0.977432	-0.004403	0.973859
	O297	O	-0.005686	1.151697	0.053766
	H298	H	-0.020351	1.149445	0.055742
	H299	H	-0.016215	1.151029	0.068789
	O300	O	0.168416	-0.193846	1.149675
	H301	H	0.152038	-0.176175	1.138016
	H302	H	0.168706	-0.187636	1.144371
	O303	O	0.514217	0.456813	0.500581
	H304	H	0.507119	0.459066	0.515000
	H305	H	0.528696	0.458670	0.500410
	O306	O	0.476328	0.725005	0.536497
	H307	H	0.465085	0.722522	0.535734
	H308	H	0.476561	0.719485	0.525866
	O309	O	0.091510	0.121036	0.033394
	H310	H	0.098372	0.140782	0.050383
	H311	H	0.085512	0.122488	0.024392
	O312	O	0.708462	0.299650	0.692057
	H313	H	0.694375	0.299795	0.688956
	H314	H	0.712006	0.325678	0.673630
	O315	O	1.009396	0.764908	1.185280
	H316	H	1.005218	0.749633	1.192798
	H317	H	1.030365	0.775705	1.178141
	O318	O	0.553383	0.273986	0.280336
	H319	H	0.578417	0.262605	0.263796
	H320	H	0.571360	0.270331	0.265149
	O321	O	-0.145153	0.779213	1.213159
	H322	H	-0.108675	0.774646	1.224004
	H323	H	-0.163467	0.752807	1.235496
	O324	O	1.125768	1.189308	0.024468
	H325	H	1.123691	1.175965	0.023161
	H326	H	1.104907	1.185347	0.044187
	O327	O	0.175277	0.079355	1.015097
	H328	H	0.178349	0.097387	1.016588
	H329	H	0.171315	0.074053	1.039816
	O330	O	0.403640	0.540286	0.282951
	H331	H	0.411954	0.552239	0.289233
	H332	H	0.410858	0.527139	0.286889
	O333	O	0.236824	0.778128	0.966074
	H334	H	0.240872	0.767583	0.949016
	H335	H	0.241551	0.763267	0.967547
	O336	O	0.550822	0.604149	0.464819
	H337	H	0.541084	0.620555	0.467116
	H338	H	0.554908	0.606733	0.456776
	O339	O	1.066755	-0.074139	1.228773
	H340	H	1.095563	-0.060593	1.228239
	H341	H	1.053501	-0.071544	1.222091
	O342	O	0.048740	0.076877	0.035315
	H343	H	0.053439	0.071118	0.034331
	H344	H	0.048307	0.078544	0.053108
	O345	O	-0.192833	0.771742	1.078836
	H346	H	-0.205492	0.754511	1.099503
	H347	H	-0.195707	0.760416	1.094132
	O348	O	-0.184630	0.203426	-0.206975
	H349	H	-0.206300	0.220830	-0.213658
	H350	H	-0.137579	0.204520	-0.213377
	O351	O	0.254723	0.223873	0.224513
	H352	H	0.280325	0.246728	0.227472
	H353	H	0.259041	0.230090	0.232349
	O354	O	-0.040710	0.011442	1.107875
	H355	H	-0.046021	0.013732	1.106377
	H356	H	-0.039690	0.004020	1.121344
	O357	O	0.355314	0.303419	0.334445
	H358	H	0.376811	0.312309	0.361442
	H359	H	0.366805	0.329107	0.333807
	O360	O	0.356901	0.393787	0.728449
	H361	H	0.353128	0.365136	0.746237
	H362	H	0.343664	0.386248	0.736821
	O363	O	0.361778	0.555510	0.599574
	H364	H	0.375661	0.546111	0.616077
	H365	H	0.356440	0.541203	0.605069
	O366	O	0.236226	-0.039904	-0.213042
	H367	H	0.233164	-0.052311	-0.199412
	H368	H	0.261370	-0.042969	-0.236407
	O369	O	0.540626	0.273558	0.558004
	H370	H	0.539434	0.269045	0.560910
	H371	H	0.530767	0.277809	0.544785
	O372	O	1.242902	1.009267	0.223312
	H373	H	1.273642	1.014887	0.245000
	H374	H	1.230347	1.037072	0.209087
	O375	O	0.892658	-0.026403	0.003933
	H376	H	0.883424	-0.023753	0.006157
	H377	H	0.881432	-0.023999	-0.003173
	O378	O	0.000086	1.154993	1.222541
	H379	H	0.018115	1.160843	1.238438
	H380	H	0.011442	1.135414	1.220571
	O381	O	0.271442	0.741829	1.258146
	H382	H	0.269681	0.762391	1.290027
	H383	H	0.263201	0.751970	1.250896
	O384	O	0.140617	-0.134920	-0.171729
	H385	H	0.114281	-0.137361	-0.177059
	H386	H	0.147144	-0.139006	-0.152886
	O387	O	1.732573	1.485132	0.364633
	H388	H	1.733614	1.453489	0.355897
	H389	H	1.748197	1.476633	0.359455
	O390	O	0.302580	0.514374	0.283953
	H391	H	0.282463	0.532383	0.266777
	H392	H	0.303171	0.523437	0.285643
	O393	O	0.524766	0.269998	0.675470
	H394	H	0.522385	0.283193	0.675739
	H395	H	0.524183	0.253440	0.700093
	O396	O	-0.612514	0.682392	0.509785
	H397	H	-0.614221	0.667429	0.511851
	H398	H	-0.631086	0.704073	0.515582
	O399	O	-0.191762	0.011453	0.788822
	H400	H	-0.202284	0.036462	0.789393
	H401	H	-0.200527	0.028363	0.779755
	O402	O	0.727449	0.283114	0.291413
	H403	H	0.733121	0.274788	0.344961
	H404	H	0.761973	0.248096	0.263951
	O405	O	1.050680	-0.223303	0.784308
	H406	H	1.054486	-0.255753	0.757557
	H407	H	1.047149	-0.199700	0.795575
	O408	O	0.074961	0.061655	-0.223677
	H409	H	0.078118	0.044759	-0.222071
	H410	H	0.071398	0.052895	-0.223511
	O411	O	0.619065	0.448260	0.279521
	H412	H	0.613317	0.442141	0.266667
	H413	H	0.626002	0.412776	0.278238
	O414	O	0.708511	0.681731	0.313313
	H415	H	0.688219	0.684744	0.334078
	H416	H	0.685287	0.648879	0.314300
	O417	O	0.435869	0.656409	0.645815
	H418	H	0.439550	0.647467	0.626308
	H419	H	0.430281	0.642347	0.645728
	O420	O	0.461363	0.503689	0.701956
	H421	H	0.467514	0.492061	0.703142
	H422	H	0.471580	0.503981	0.706135
	O423	O	-0.174487	-0.040023	1.173128
	H424	H	-0.185469	-0.035991	1.180355
	H425	H	-0.178804	-0.073955	1.181152
	O426	O	0.731413	0.690085	0.558124
	H427	H	0.750059	0.716562	0.562198
	H428	H	0.713603	0.680344	0.559223
	O429	O	1.272509	0.735126	0.750511
	H430	H	1.284891	0.731830	0.745342
	H431	H	1.266758	0.738202	0.742442
	O432	O	0.734604	0.425415	0.566008
	H433	H	0.737006	0.451611	0.582374
	H434	H	0.726828	0.449433	0.554167
	O435	O	0.210453	1.180089	-0.183871
	H436	H	0.190127	1.171445	-0.157468
	H437	H	0.197605	1.159679	-0.168177
	O438	O	-0.193574	0.058735	0.064894
	H439	H	-0.199267	0.055611	0.058748
	H440	H	-0.190165	0.046920	0.063314
	O441	O	0.245688	0.036906	-0.063483
	H442	H	0.244790	0.039564	-0.069848
	H443	H	0.246487	0.031911	-0.050761
	O444	O	0.496224	0.716311	0.286103
	H445	H	0.491645	0.726098	0.271048
	H446	H	0.487772	0.711038	0.276853
	O447	O	-0.254624	0.523392	0.729474
	H448	H	-0.240239	0.552691	0.742153
	H449	H	-0.240893	0.547318	0.734551
	O450	O	0.309914	1.280383	0.713822
	H451	H	0.310536	1.263763	0.705452
	H452	H	0.292187	1.270399	0.725910
	O453	O	0.533461	0.571044	0.287857
	H454	H	0.514852	0.578435	0.289944
	H455	H	0.534823	0.555784	0.296778
	O456	O	0.732120	0.704234	0.718285
	H457	H	0.763196	0.739149	0.748531
	H458	H	0.702503	0.711518	0.701124
	O459	O	0.595652	0.565632	0.479509
	H460	H	0.594508	0.566502	0.467586
	H461	H	0.589816	0.561015	0.471562
	O462	O	0.300813	0.524810	0.572621
	H463	H	0.311208	0.513632	0.586818
	H464	H	0.291896	0.503882	0.568713
	O465	O	0.983955	0.210446	-0.221486
	H466	H	0.997289	0.212748	-0.230997
	H467	H	1.001147	0.216986	-0.233530
	O468	O	0.464031	0.277371	0.447900
	H469	H	0.477704	0.274732	0.433253
	H470	H	0.478717	0.282886	0.446168
	O471	O	0.509870	0.448883	0.604903
	H472	H	0.512238	0.458550	0.609963
	H473	H	0.529378	0.441496	0.610073
	O474	O	0.297302	0.289215	0.530111
	H475	H	0.293699	0.266776	0.534561
	H476	H	0.296300	0.291387	0.534763
	O477	O	-0.085906	0.833249	1.960508
	H478	H	-0.082064	0.819923	1.950965
	H479	H	-0.094129	0.838776	1.960156
	O480	O	0.733977	0.274565	0.456601
	H481	H	0.746470	0.272554	0.479643
	H482	H	0.728605	0.270207	0.474893
	O483	O	0.598031	0.455648	0.389485
	H484	H	0.614046	0.444543	0.390444
	H485	H	0.596202	0.452544	0.377092
	O486	O	0.798760	0.216533	0.979086
	H487	H	0.763484	0.243446	0.972919
	H488	H	0.796166	0.194305	0.953176
	O489	O	0.830651	1.182860	0.197642
	H490	H	0.859702	1.158290	0.192945
	H491	H	0.836689	1.167330	0.167396
	O492	O	-0.165856	-0.193770	-0.184463
	H493	H	-0.153281	-0.167305	-0.172039
	H494	H	-0.145104	-0.181912	-0.161971
	O495	O	-0.066838	1.020646	0.883310
	H496	H	-0.055196	1.029297	0.894323
	H497	H	-0.063192	1.021442	0.890149
	O498	O	1.011766	0.897766	1.033489
	H499	H	0.998562	0.896913	1.028184
	H500	H	1.000807	0.897783	1.046815
	O501	O	0.611534	0.712304	0.451620
	H502	H	0.612595	0.709420	0.461426
	H503	H	0.591217	0.716063	0.455285
