data_Molecule from HDF5

_cell_length_a		16.253386
_cell_length_b		16.233617
_cell_length_c		16.287720
_cell_angle_alpha	89.903500
_cell_angle_beta	90.135919
_cell_angle_gamma	89.799628
_symmetry_space_group_name_H-M	'P 1'
_symmetry_Int_Tables_number		1

loop_
	_symmetry_equiv_pos_as_xyz
	x,y,z

loop_
	_atom_site_label
	_atom_site_type_symbol
	_atom_site_fract_x
	_atom_site_fract_y
	_atom_site_fract_z
	H0	H	0.408308	0.825780	0.718194
	H1	H	0.603253	0.154208	0.717459
	H2	H	0.605711	0.825757	0.289493
	H3	H	0.406187	0.153911	0.289220
	H4	H	0.720325	0.390012	0.840163
	H5	H	0.719825	0.586285	0.167594
	H6	H	0.288181	0.589646	0.839899
	H7	H	0.292279	0.390881	0.167812
	H8	H	0.840767	0.703734	0.406251
	H9	H	0.170665	0.699935	0.602095
	H10	H	0.840996	0.275021	0.600926
	H11	H	0.169872	0.275443	0.407431
	H12	H	0.840321	0.391299	0.717295
	H13	H	0.168756	0.586077	0.719780
	H14	H	0.840703	0.588781	0.289369
	H15	H	0.168450	0.389445	0.289709
	H16	H	0.403556	0.706149	0.840139
	H17	H	0.605348	0.703368	0.167173
	H18	H	0.602500	0.276240	0.839707
	H19	H	0.409237	0.275941	0.167657
	H20	H	0.719843	0.825249	0.406230
	H21	H	0.719381	0.154067	0.601533
	H22	H	0.293894	0.825102	0.601412
	H23	H	0.290514	0.153302	0.404556
	H24	H	0.907589	0.324833	0.218575
	H25	H	0.101990	0.653473	0.218368
	H26	H	0.104370	0.323840	0.791141
	H27	H	0.903007	0.651912	0.788003
	H28	H	0.220573	0.889205	0.339614
	H29	H	0.220342	0.087662	0.666073
	H30	H	0.791650	0.087980	0.339705
	H31	H	0.792074	0.891072	0.666955
	H32	H	0.341536	0.204124	0.904347
	H33	H	0.669995	0.202059	0.102104
	H34	H	0.341260	0.774911	0.102553
	H35	H	0.669608	0.773977	0.905378
	H36	H	0.341673	0.890572	0.219369
	H37	H	0.669584	0.086807	0.217817
	H38	H	0.342065	0.089785	0.788714
	H39	H	0.670123	0.890617	0.789834
	H40	H	0.906559	0.203862	0.340475
	H41	H	0.104182	0.200993	0.667322
	H42	H	0.102877	0.774120	0.339470
	H43	H	0.908546	0.776015	0.668173
	H44	H	0.219706	0.324077	0.906808
	H45	H	0.220150	0.652967	0.104173
	H46	H	0.794035	0.323934	0.101760
	H47	H	0.790958	0.652996	0.906339
	H48	H	0.410722	0.109047	0.600212
	H49	H	0.591211	0.876203	0.594777
	H50	H	0.611257	0.107783	0.420440
	H51	H	0.408732	0.873951	0.417980
	H52	H	0.600520	0.405674	0.117857
	H53	H	0.599459	0.572624	0.890002
	H54	H	0.417476	0.580944	0.116846
	H55	H	0.421143	0.402571	0.892170
	H56	H	0.123199	0.589592	0.415856
	H57	H	0.885294	0.589698	0.600841
	H58	H	0.121386	0.397786	0.600796
	H59	H	0.888522	0.391801	0.417898
	H60	H	0.124147	0.391131	0.601429
	H61	H	0.890505	0.582906	0.588965
	H62	H	0.117747	0.572672	0.417589
	H63	H	0.890353	0.404127	0.411844
	H64	H	0.412098	0.584948	0.120470
	H65	H	0.589365	0.584195	0.889174
	H66	H	0.590472	0.389603	0.119085
	H67	H	0.412252	0.383736	0.883189
	H68	H	0.600478	0.112020	0.393962
	H69	H	0.604859	0.873178	0.590721
	H70	H	0.415684	0.105535	0.596691
	H71	H	0.411489	0.869742	0.403526
	H72	H	0.910907	0.607733	0.100115
	H73	H	0.094788	0.374560	0.091945
	H74	H	0.096260	0.605072	0.910180
	H75	H	0.910758	0.372228	0.914845
	H76	H	0.111569	0.892983	0.624115
	H77	H	0.090944	0.075144	0.390358
	H78	H	0.911543	0.072100	0.618295
	H79	H	0.925120	0.902739	0.392249
	H80	H	0.623825	0.082471	0.908221
	H81	H	0.384742	0.087653	0.103499
	H82	H	0.621932	0.893115	0.095125
	H83	H	0.388226	0.899525	0.903092
	H84	H	0.621368	0.898183	0.096385
	H85	H	0.390337	0.086208	0.088571
	H86	H	0.623439	0.084538	0.911981
	H87	H	0.387931	0.891156	0.913905
	H88	H	0.920445	0.087601	0.620216
	H89	H	0.093901	0.093110	0.383783
	H90	H	0.096174	0.906466	0.615406
	H91	H	0.913122	0.881396	0.382547
	H92	H	0.093356	0.603305	0.912814
	H93	H	0.105712	0.370718	0.097879
	H94	H	0.914726	0.605128	0.096739
	H95	H	0.909537	0.369547	0.907196
	H96	H	0.409110	0.106355	0.594168
	H97	H	0.600138	0.870403	0.604483
	H98	H	0.583728	0.100674	0.415008
	H99	H	0.422376	0.875656	0.412457
	H100	H	0.608793	0.390040	0.124616
	H101	H	0.604338	0.586060	0.884421
	H102	H	0.410049	0.578085	0.119038
	H103	H	0.399452	0.402107	0.885476
	H104	H	0.123403	0.578875	0.401377
	H105	H	0.889177	0.574875	0.602107
	H106	H	0.121544	0.393344	0.595125
	H107	H	0.885284	0.393262	0.403911
	H108	H	0.910072	0.605731	0.094722
	H109	H	0.095359	0.371004	0.104266
	H110	H	0.096368	0.604844	0.914475
	H111	H	0.916744	0.371988	0.910005
	H112	H	0.091398	0.885664	0.619431
	H113	H	0.108822	0.079807	0.384138
	H114	H	0.902677	0.087203	0.624688
	H115	H	0.899461	0.904190	0.385075
	H116	H	0.621676	0.081249	0.911858
	H117	H	0.391156	0.073783	0.097928
	H118	H	0.623092	0.894930	0.099903
	H119	H	0.392316	0.903260	0.915306
	C120	C	0.383777	-0.001656	0.625566
	C121	C	0.627391	0.981395	0.625268
	C122	C	0.627181	-0.001935	0.381961
	C123	C	0.384825	0.981398	0.382231
	C124	C	0.627869	0.366817	0.012139
	C125	C	0.626516	0.609467	0.995945
	C126	C	0.382859	0.611477	0.011228
	C127	C	0.383598	0.367627	0.995357
	C128	C	0.013022	0.609777	0.383191
	C129	C	0.996752	0.610255	0.626098
	C130	C	0.013777	0.366415	0.626503
	C131	C	0.996815	0.368006	0.383079
	C132	C	0.883931	0.497356	0.125583
	C133	C	0.126952	0.480751	0.126411
	C134	C	0.125021	0.496495	0.883790
	C135	C	0.883029	0.479766	0.881957
	C136	C	0.128052	0.866299	0.511705
	C137	C	0.126297	0.110015	0.494505
	C138	C	0.883424	0.111067	0.512521
	C139	C	0.884427	0.867472	0.495152
	C140	C	0.514287	0.111632	0.882108
	C141	C	0.496990	0.110891	0.125333
	C142	C	0.513766	0.867065	0.125934
	C143	C	0.497624	0.868620	0.882135
	C144	C	0.387295	0.874921	0.680769
	C145	C	0.624349	0.105019	0.679925
	C146	C	0.625353	0.874549	0.327551
	C147	C	0.385861	0.104585	0.326498
	C148	C	0.682177	0.369878	0.888951
	C149	C	0.682134	0.606991	0.118849
	C150	C	0.326465	0.609646	0.888806
	C151	C	0.329856	0.370703	0.118859
	C152	C	0.889776	0.665730	0.385717
	C153	C	0.121025	0.663799	0.623394
	C154	C	0.889772	0.312621	0.622289
	C155	C	0.120455	0.312737	0.386281
	C156	C	0.889564	0.370265	0.680003
	C157	C	0.120252	0.606888	0.681514
	C158	C	0.889761	0.608864	0.327493
	C159	C	0.119969	0.369696	0.328017
	C160	C	0.383972	0.667626	0.888794
	C161	C	0.624723	0.665020	0.118505
	C162	C	0.623577	0.313463	0.888597
	C163	C	0.387705	0.313254	0.118803
	C164	C	0.682431	0.874471	0.385152
	C165	C	0.681797	0.104956	0.622305
	C166	C	0.330253	0.874657	0.622665
	C167	C	0.328706	0.104536	0.384227
	C168	C	0.887268	0.373711	0.180319
	C169	C	0.123676	0.604389	0.181205
	C170	C	0.123872	0.372878	0.829024
	C171	C	0.883967	0.603126	0.826424
	C172	C	0.182965	0.868527	0.388546
	C173	C	0.181799	0.107467	0.617519
	C174	C	0.828867	0.108639	0.388900
	C175	C	0.829634	0.870348	0.618140
	C176	C	0.390525	0.166264	0.884574
	C177	C	0.620558	0.165087	0.122775
	C178	C	0.390448	0.812256	0.123139
	C179	C	0.620841	0.812200	0.884652
	C180	C	0.390545	0.869871	0.181142
	C181	C	0.620386	0.107689	0.180335
	C182	C	0.390970	0.109734	0.826610
	C183	C	0.621155	0.870205	0.827451
	C184	C	0.886434	0.165863	0.389274
	C185	C	0.123810	0.163752	0.618263
	C186	C	0.124699	0.811179	0.388433
	C187	C	0.887703	0.813352	0.618797
	C188	C	0.181002	0.372880	0.886577
	C189	C	0.182328	0.604011	0.124510
	C190	C	0.830912	0.373225	0.122154
	C191	C	0.828077	0.603789	0.885090
	C192	C	0.405296	0.084701	0.603442
	C193	C	0.605324	0.895336	0.603305
	C194	C	0.605139	0.084544	0.403433
	C195	C	0.407516	0.895416	0.404878
	C196	C	0.606322	0.388601	0.098312
	C197	C	0.604160	0.587287	0.909914
	C198	C	0.406277	0.588090	0.096729
	C199	C	0.404679	0.389620	0.909087
	C200	C	0.099251	0.586990	0.405107
	C201	C	0.910733	0.589069	0.603909
	C202	C	0.100043	0.387879	0.605455
	C203	C	0.910415	0.389972	0.404901
	C204	C	0.905448	0.583929	0.103529
	C205	C	0.105109	0.394403	0.104573
	C206	C	0.102072	0.582088	0.905865
	C207	C	0.905538	0.393650	0.904242
	C208	C	0.106256	0.888432	0.597377
	C209	C	0.104315	0.089007	0.408371
	C210	C	0.905097	0.088778	0.598780
	C211	C	0.906164	0.889522	0.408868
	C212	C	0.600676	0.089548	0.904097
	C213	C	0.410758	0.088923	0.103106
	C214	C	0.599840	0.889052	0.103847
	C215	C	0.411898	0.891274	0.904152
	Zn216	Zn	0.506225	-0.009727	0.753658
	Zn217	Zn	0.505723	-0.010543	0.254032
	Zn218	Zn	0.755950	0.488499	0.004186
	Zn219	Zn	0.254417	0.489269	0.003976
	Zn220	Zn	0.005840	0.738391	0.504211
	Zn221	Zn	0.005533	0.238645	0.503932
	Zn222	Zn	0.004827	0.488520	0.754401
	Zn223	Zn	0.004583	0.489013	0.254149
	Zn224	Zn	0.505545	0.739312	0.003110
	Zn225	Zn	0.505490	0.239062	0.003753
	Zn226	Zn	0.755754	-0.010451	0.503314
	Zn227	Zn	0.255546	-0.010548	0.503079
	N228	N	0.419814	0.953021	0.682683
	N229	N	0.591388	0.027197	0.681884
	N230	N	0.591827	0.952346	0.325538
	N231	N	0.420195	0.026989	0.325254
	N232	N	0.684864	0.402508	0.966793
	N233	N	0.683242	0.573217	0.041573
	N234	N	0.325579	0.575591	0.966202
	N235	N	0.327321	0.404015	0.041103
	N236	N	0.967361	0.666243	0.419684
	N237	N	0.043345	0.665995	0.589610
	N238	N	0.967800	0.310065	0.589702
	N239	N	0.042881	0.311800	0.419997
	N240	N	0.967573	0.402853	0.682772
	N241	N	0.042067	0.574726	0.683565
	N242	N	0.967553	0.574956	0.325736
	N243	N	0.041982	0.403179	0.325874
	N244	N	0.418299	0.668896	0.966086
	N245	N	0.590574	0.666446	0.041055
	N246	N	0.590636	0.311442	0.966330
	N247	N	0.420401	0.311305	0.041003
	N248	N	0.683530	0.952286	0.418492
	N249	N	0.683917	0.027091	0.589065
	N250	N	0.327874	0.952356	0.589080
	N251	N	0.327771	0.026862	0.417958
	N252	N	0.919467	0.451858	0.182556
	N253	N	0.090257	0.526558	0.182698
	N254	N	0.089637	0.450551	0.827148
	N255	N	0.917363	0.525143	0.824488
	N256	N	0.185151	0.902094	0.466120
	N257	N	0.183551	0.074616	0.539670
	N258	N	0.827124	0.074959	0.466573
	N259	N	0.827430	0.903352	0.540190
	N260	N	0.468149	0.167554	0.918516
	N261	N	0.542757	0.167255	0.089443
	N262	N	0.468197	0.810369	0.089553
	N263	N	0.543048	0.810913	0.917921
	N264	N	0.468201	0.903092	0.183017
	N265	N	0.542508	0.074697	0.181986
	N266	N	0.468874	0.076051	0.825278
	N267	N	0.543647	0.904526	0.825736
	N268	N	0.919351	0.167566	0.467184
	N269	N	0.090043	0.165560	0.540752
	N270	N	0.091315	0.809624	0.465864
	N271	N	0.920950	0.811388	0.541215
	N272	N	0.181900	0.450596	0.920058
	N273	N	0.184322	0.526190	0.091297
	N274	N	0.828785	0.451269	0.088824
	N275	N	0.827400	0.526088	0.919051
	O276	O	1.133818	0.941348	-0.105792
	H277	H	1.130328	0.931455	-0.118178
	H278	H	1.145560	0.954956	-0.111001
	O279	O	-0.021405	-0.000216	-0.081626
	H280	H	-0.022343	-0.001996	-0.087952
	H281	H	-0.017018	-0.008982	-0.082996
	O282	O	0.109325	-0.070149	0.943101
	H283	H	0.101982	-0.071125	0.939296
	H284	H	0.113023	-0.070472	0.950351
	O285	O	0.049926	0.997013	-0.007281
	H286	H	0.052401	1.001167	-0.006851
	H287	H	0.041010	1.004307	-0.007770
	O288	O	0.445225	0.586511	0.480569
	H289	H	0.446647	0.584942	0.487679
	H290	H	0.444450	0.586496	0.475179
	O291	O	0.488825	0.547955	0.489217
	H292	H	0.485376	0.548991	0.491468
	H293	H	0.485013	0.549520	0.495392
	O294	O	-0.583872	0.620086	0.504859
	H295	H	-0.567514	0.609380	0.497486
	H296	H	-0.595721	0.630886	0.509054
	O297	O	0.508243	0.579434	0.466601
	H298	H	0.513151	0.587654	0.462241
	H299	H	0.499062	0.584438	0.454273
	O300	O	0.044265	0.990752	0.954495
	H301	H	0.051506	0.989800	0.952703
	H302	H	0.037926	0.989990	0.948825
	O303	O	0.518773	0.578709	0.464181
	H304	H	0.515685	0.584155	0.467479
	H305	H	0.512054	0.590324	0.463083
	O306	O	0.510418	-0.438899	1.423406
	H307	H	0.514881	-0.437812	1.418156
	H308	H	0.505406	-0.435704	1.415408
	O309	O	0.975336	1.012761	0.922442
	H310	H	0.970650	1.015116	0.923643
	H311	H	0.973318	0.997162	0.917188
	O312	O	0.032168	0.966903	-0.012949
	H313	H	0.040902	0.961891	-0.011194
	H314	H	0.040201	0.960531	-0.001837
	O315	O	0.474407	0.556755	0.433473
	H316	H	0.477024	0.554316	0.432157
	H317	H	0.474654	0.552237	0.428628
	O318	O	0.066164	0.953464	-0.001195
	H319	H	0.061926	0.956299	0.001974
	H320	H	0.062473	0.958415	0.002698
	O321	O	1.092983	0.979627	-0.014513
	H322	H	1.093038	0.978271	-0.018823
	H323	H	1.087068	0.986499	-0.024434
