data_Molecule from HDF5

_cell_length_a		16.276593
_cell_length_b		16.262611
_cell_length_c		16.317768
_cell_angle_alpha	89.888305
_cell_angle_beta	90.081039
_cell_angle_gamma	90.061372
_symmetry_space_group_name_H-M	'P 1'
_symmetry_Int_Tables_number		1

loop_
	_symmetry_equiv_pos_as_xyz
	x,y,z

loop_
	_atom_site_label
	_atom_site_type_symbol
	_atom_site_fract_x
	_atom_site_fract_y
	_atom_site_fract_z
	H0	H	0.388823	0.829816	0.707958
	H1	H	0.587314	0.156084	0.706088
	H2	H	0.587012	0.828837	0.277644
	H3	H	0.390301	0.156815	0.276884
	H4	H	0.703899	0.395565	0.828392
	H5	H	0.706364	0.592452	0.155158
	H6	H	0.275294	0.591487	0.828908
	H7	H	0.274148	0.393005	0.155175
	H8	H	0.825926	0.707830	0.391928
	H9	H	0.153805	0.706666	0.588790
	H10	H	0.825505	0.278351	0.590041
	H11	H	0.153748	0.278207	0.394672
	H12	H	0.826176	0.393271	0.706183
	H13	H	0.153593	0.590622	0.705996
	H14	H	0.825932	0.590086	0.277545
	H15	H	0.153900	0.393858	0.277356
	H16	H	0.391736	0.706833	0.828738
	H17	H	0.589174	0.707213	0.155336
	H18	H	0.587468	0.279371	0.828609
	H19	H	0.392722	0.278472	0.156195
	H20	H	0.702867	0.828323	0.394034
	H21	H	0.704730	0.155743	0.591232
	H22	H	0.275908	0.828040	0.589311
	H23	H	0.274958	0.156692	0.393973
	H24	H	0.890654	0.329083	0.206865
	H25	H	0.089828	0.656671	0.207498
	H26	H	0.088280	0.327928	0.778283
	H27	H	0.891282	0.656371	0.776196
	H28	H	0.202758	0.894512	0.327964
	H29	H	0.203479	0.090005	0.655532
	H30	H	0.774167	0.090664	0.329042
	H31	H	0.774525	0.892485	0.655935
	H32	H	0.326252	0.208095	0.893459
	H33	H	0.654480	0.206395	0.090078
	H34	H	0.325545	0.778275	0.089871
	H35	H	0.653608	0.779839	0.894249
	H36	H	0.325394	0.894535	0.205741
	H37	H	0.652694	0.093482	0.208833
	H38	H	0.325774	0.092544	0.776829
	H39	H	0.652491	0.894463	0.776731
	H40	H	0.890617	0.206205	0.328497
	H41	H	0.087046	0.205440	0.655787
	H42	H	0.086988	0.778450	0.328762
	H43	H	0.890853	0.776413	0.655126
	H44	H	0.204663	0.328939	0.894198
	H45	H	0.203912	0.657467	0.089633
	H46	H	0.776664	0.328670	0.089459
	H47	H	0.777443	0.657189	0.894239
	H48	H	0.394740	0.111769	0.591483
	H49	H	0.578743	0.876725	0.585068
	H50	H	0.582495	0.109504	0.396935
	H51	H	0.398496	0.876279	0.396705
	H52	H	0.578167	0.397760	0.107165
	H53	H	0.579303	0.586218	0.876752
	H54	H	0.397039	0.591963	0.110112
	H55	H	0.392644	0.401870	0.876085
	H56	H	0.107616	0.588363	0.395593
	H57	H	0.874732	0.576702	0.588201
	H58	H	0.101936	0.412177	0.581788
	H59	H	0.872103	0.396686	0.395402
	H60	H	0.110676	0.396296	0.600034
	H61	H	0.869932	0.590674	0.588836
	H62	H	0.105768	0.588080	0.404079
	H63	H	0.874214	0.398047	0.402624
	H64	H	0.391267	0.582430	0.109012
	H65	H	0.584618	0.589658	0.874247
	H66	H	0.588227	0.396876	0.110643
	H67	H	0.399525	0.403195	0.878048
	H68	H	0.578336	0.107520	0.400749
	H69	H	0.582278	0.876427	0.583144
	H70	H	0.403402	0.106597	0.582110
	H71	H	0.394196	0.876407	0.400839
	H72	H	0.894632	0.608507	0.079849
	H73	H	0.076667	0.378270	0.085718
	H74	H	0.085431	0.608842	0.901141
	H75	H	0.900624	0.379041	0.902270
	H76	H	0.077465	0.906159	0.604752
	H77	H	0.075629	0.074364	0.380851
	H78	H	0.900583	0.091302	0.608506
	H79	H	0.886834	0.904201	0.375117
	H80	H	0.605923	0.083957	0.898723
	H81	H	0.372629	0.086067	0.088961
	H82	H	0.604204	0.903120	0.084862
	H83	H	0.369846	0.896519	0.893878
	H84	H	0.606437	0.900105	0.088569
	H85	H	0.373640	0.089232	0.081587
	H86	H	0.607038	0.087228	0.896166
	H87	H	0.373834	0.896958	0.906307
	H88	H	0.889510	0.086262	0.611197
	H89	H	0.075642	0.098561	0.374410
	H90	H	0.078342	0.890478	0.609217
	H91	H	0.902951	0.905192	0.379967
	H92	H	0.084354	0.610909	0.893843
	H93	H	0.083413	0.378298	0.079250
	H94	H	0.895290	0.612046	0.089260
	H95	H	0.890964	0.374101	0.900010
	H96	H	0.390238	0.109139	0.578642
	H97	H	0.582090	0.874623	0.586936
	H98	H	0.584211	0.108778	0.402195
	H99	H	0.393389	0.874331	0.395329
	H100	H	0.584839	0.405842	0.107114
	H101	H	0.585766	0.583825	0.876084
	H102	H	0.402192	0.583014	0.106490
	H103	H	0.397862	0.396349	0.875506
	H104	H	0.104797	0.581023	0.399010
	H105	H	0.875491	0.585636	0.576451
	H106	H	0.107168	0.387822	0.576188
	H107	H	0.874110	0.403478	0.397387
	H108	H	0.904014	0.607618	0.084517
	H109	H	0.084838	0.374810	0.088558
	H110	H	0.078512	0.608379	0.897502
	H111	H	0.898536	0.374810	0.892092
	H112	H	0.091994	0.900299	0.610358
	H113	H	0.096344	0.084784	0.372046
	H114	H	0.898602	0.079080	0.605617
	H115	H	0.896577	0.890217	0.373865
	H116	H	0.606069	0.087247	0.900257
	H117	H	0.374953	0.081170	0.082508
	H118	H	0.606473	0.897631	0.083526
	H119	H	0.374904	0.907417	0.899170
	C120	C	0.367106	0.001006	0.613332
	C121	C	0.610051	0.983829	0.613651
	C122	C	0.610320	0.000832	0.371014
	C123	C	0.366959	0.984325	0.369518
	C124	C	0.611719	0.371864	0.000349
	C125	C	0.612153	0.614991	0.983690
	C126	C	0.368343	0.614311	0.000524
	C127	C	0.368067	0.371156	0.984280
	C128	C	-0.002001	0.613894	0.370720
	C129	C	0.981519	0.613501	0.613076
	C130	C	-0.002110	0.370716	0.613775
	C131	C	0.981504	0.370771	0.369972
	C132	C	0.868878	0.501089	0.113130
	C133	C	0.111175	0.485042	0.113458
	C134	C	0.111217	0.500703	0.870055
	C135	C	0.868329	0.484526	0.869697
	C136	C	0.110329	0.871257	0.500007
	C137	C	0.110884	0.113928	0.483665
	C138	C	0.867561	0.113899	0.500410
	C139	C	0.866984	0.870403	0.484275
	C140	C	0.498076	0.114911	0.870229
	C141	C	0.481806	0.114659	0.113420
	C142	C	0.497574	0.870963	0.114046
	C143	C	0.480933	0.871662	0.870753
	C144	C	0.369223	0.878199	0.669104
	C145	C	0.608102	0.107407	0.668516
	C146	C	0.607148	0.877359	0.315958
	C147	C	0.369459	0.107771	0.314479
	C148	C	0.666510	0.374544	0.877338
	C149	C	0.667979	0.612527	0.106420
	C150	C	0.312926	0.611961	0.877775
	C151	C	0.312562	0.372986	0.106777
	C152	C	0.874543	0.669346	0.372235
	C153	C	0.104808	0.668874	0.609992
	C154	C	0.874519	0.316098	0.610557
	C155	C	0.104961	0.315831	0.373376
	C156	C	0.874780	0.373147	0.668344
	C157	C	0.104886	0.610966	0.667755
	C158	C	0.874822	0.611368	0.314979
	C159	C	0.105206	0.373600	0.315473
	C160	C	0.370507	0.669526	0.877733
	C161	C	0.609750	0.669604	0.106616
	C162	C	0.608831	0.317050	0.877396
	C163	C	0.371355	0.316033	0.107230
	C164	C	0.664675	0.877171	0.373705
	C165	C	0.666076	0.107140	0.611291
	C166	C	0.312894	0.877421	0.610361
	C167	C	0.312394	0.107671	0.372898
	C168	C	0.871216	0.377912	0.168447
	C169	C	0.110041	0.608022	0.169301
	C170	C	0.108845	0.377254	0.815710
	C171	C	0.871031	0.607600	0.814406
	C172	C	0.165053	0.873997	0.376886
	C173	C	0.165807	0.110645	0.606858
	C174	C	0.812117	0.111022	0.377727
	C175	C	0.812476	0.872640	0.607023
	C176	C	0.375148	0.170296	0.872928
	C177	C	0.605088	0.169391	0.111180
	C178	C	0.374442	0.816138	0.110310
	C179	C	0.604458	0.817148	0.873330
	C180	C	0.374219	0.873916	0.167853
	C181	C	0.604435	0.113077	0.169864
	C182	C	0.374794	0.112951	0.814933
	C183	C	0.603945	0.873892	0.814994
	C184	C	0.869681	0.168904	0.377582
	C185	C	0.107674	0.167843	0.607087
	C186	C	0.107037	0.816850	0.376994
	C187	C	0.870416	0.815045	0.606805
	C188	C	0.166350	0.377573	0.873438
	C189	C	0.166377	0.608357	0.110654
	C190	C	0.814109	0.377788	0.110405
	C191	C	0.814379	0.607953	0.872934
	C192	C	0.389435	0.087110	0.590723
	C193	C	0.587478	0.898305	0.591646
	C194	C	0.588314	0.086378	0.393361
	C195	C	0.388894	0.898000	0.391123
	C196	C	0.589973	0.393866	0.086091
	C197	C	0.589636	0.593100	0.897966
	C198	C	0.390362	0.592353	0.086446
	C199	C	0.390100	0.393565	0.898580
	C200	C	0.083824	0.592200	0.393096
	C201	C	0.895542	0.591027	0.590925
	C202	C	0.084317	0.392263	0.592249
	C203	C	0.895731	0.392890	0.391886
	C204	C	0.891531	0.587106	0.091123
	C205	C	0.088472	0.399409	0.091085
	C206	C	0.089348	0.586945	0.891260
	C207	C	0.890258	0.398178	0.891809
	C208	C	0.088847	0.892429	0.585890
	C209	C	0.089106	0.092261	0.397974
	C210	C	0.889704	0.091810	0.586327
	C211	C	0.889035	0.893072	0.398365
	C212	C	0.584126	0.092566	0.891848
	C213	C	0.395881	0.092239	0.090990
	C214	C	0.583585	0.893576	0.092127
	C215	C	0.395248	0.893752	0.893126
	Zn216	Zn	0.488800	-0.007142	0.742084
	Zn217	Zn	0.489399	-0.006751	0.241935
	Zn218	Zn	0.740648	0.493085	-0.008325
	Zn219	Zn	0.239282	0.493279	-0.007789
	Zn220	Zn	-0.011054	0.742264	0.491799
	Zn221	Zn	-0.010741	0.242703	0.492253
	Zn222	Zn	-0.010395	0.491874	0.741774
	Zn223	Zn	-0.009682	0.492969	0.241822
	Zn224	Zn	0.490402	0.742777	-0.007786
	Zn225	Zn	0.490363	0.242951	-0.007768
	Zn226	Zn	0.738494	-0.007972	0.492758
	Zn227	Zn	0.238984	-0.007877	0.491862
	N228	N	0.402410	0.956025	0.670889
	N229	N	0.573974	0.030039	0.670002
	N230	N	0.573800	0.955028	0.314407
	N231	N	0.402786	0.030193	0.312550
	N232	N	0.668378	0.407951	0.954758
	N233	N	0.669745	0.579382	0.028829
	N234	N	0.311336	0.578463	0.955275
	N235	N	0.310460	0.406521	0.029331
	N236	N	0.952022	0.670972	0.406258
	N237	N	0.027114	0.670237	0.576528
	N238	N	0.952104	0.314501	0.577343
	N239	N	0.027296	0.313953	0.406486
	N240	N	0.952528	0.406572	0.670257
	N241	N	0.027377	0.577320	0.669644
	N242	N	0.952301	0.577794	0.313828
	N243	N	0.027606	0.407005	0.313302
	N244	N	0.404330	0.671114	0.955017
	N245	N	0.575670	0.671090	0.029497
	N246	N	0.575582	0.315176	0.954802
	N247	N	0.405039	0.314863	0.030043
	N248	N	0.666928	0.954781	0.407212
	N249	N	0.667611	0.029465	0.578124
	N250	N	0.311935	0.954739	0.576119
	N251	N	0.310580	0.029848	0.406196
	N252	N	0.904567	0.455749	0.170172
	N253	N	0.076246	0.530454	0.171010
	N254	N	0.075149	0.454810	0.813652
	N255	N	0.904035	0.529691	0.812534
	N256	N	0.167095	0.907115	0.454368
	N257	N	0.167856	0.077831	0.529314
	N258	N	0.810765	0.077376	0.455300
	N259	N	0.810362	0.906264	0.529543
	N260	N	0.452703	0.171408	0.906609
	N261	N	0.527835	0.170228	0.076824
	N262	N	0.452431	0.814289	0.077467
	N263	N	0.527104	0.815442	0.907164
	N264	N	0.451719	0.907415	0.170154
	N265	N	0.526832	0.079395	0.171153
	N266	N	0.452331	0.079272	0.812933
	N267	N	0.526170	0.907094	0.813267
	N268	N	0.903420	0.170791	0.454797
	N269	N	0.074262	0.170168	0.529612
	N270	N	0.073840	0.814881	0.454441
	N271	N	0.903460	0.813620	0.529284
	N272	N	0.167950	0.455344	0.906553
	N273	N	0.166983	0.531133	0.076430
	N274	N	0.812632	0.455251	0.076677
	N275	N	0.812632	0.530329	0.906399
	O276	O	1.041722	0.007219	1.087119
	H277	H	1.045036	0.012793	1.087545
	H278	H	1.041319	-0.001659	1.083151
	O279	O	1.033059	1.021421	1.076977
	H280	H	1.023469	1.024397	1.089321
	H281	H	1.030576	1.020896	1.069523
	O282	O	0.998794	1.017884	0.087419
	H283	H	0.999872	1.017534	0.094010
	H284	H	0.998514	1.019137	0.089684
	O285	O	1.024533	1.011990	1.111107
	H286	H	1.036239	1.010441	1.102029
	H287	H	1.024568	1.019441	1.125469
