data_Molecule from HDF5

_cell_length_a		16.384695
_cell_length_b		16.253567
_cell_length_c		16.218279
_cell_angle_alpha	90.105156
_cell_angle_beta	89.913174
_cell_angle_gamma	90.047335
_symmetry_space_group_name_H-M	'P 1'
_symmetry_Int_Tables_number		1

loop_
	_symmetry_equiv_pos_as_xyz
	x,y,z

loop_
	_atom_site_label
	_atom_site_type_symbol
	_atom_site_fract_x
	_atom_site_fract_y
	_atom_site_fract_z
	H0	H	0.402159	0.835289	0.713538
	H1	H	0.597193	0.164136	0.714088
	H2	H	0.597077	0.835478	0.285225
	H3	H	0.403529	0.164619	0.287510
	H4	H	0.715338	0.399908	0.836468
	H5	H	0.714364	0.599305	0.164234
	H6	H	0.284864	0.599650	0.836412
	H7	H	0.284074	0.399678	0.163284
	H8	H	0.837014	0.714694	0.402564
	H9	H	0.163058	0.715103	0.598355
	H10	H	0.837023	0.285337	0.598366
	H11	H	0.163313	0.285668	0.401635
	H12	H	0.836279	0.403400	0.713483
	H13	H	0.162830	0.597753	0.714084
	H14	H	0.836432	0.597233	0.286823
	H15	H	0.163043	0.402245	0.285019
	H16	H	0.403931	0.712023	0.835287
	H17	H	0.597175	0.714166	0.164190
	H18	H	0.597661	0.286072	0.835884
	H19	H	0.403599	0.288044	0.164591
	H20	H	0.714822	0.836400	0.400014
	H21	H	0.714652	0.163337	0.599190
	H22	H	0.284495	0.835984	0.598391
	H23	H	0.285146	0.163457	0.400451
	H24	H	0.903570	0.334963	0.212469
	H25	H	0.095655	0.664807	0.212428
	H26	H	0.098385	0.335984	0.784951
	H27	H	0.903871	0.664428	0.787743
	H28	H	0.214757	0.900366	0.335653
	H29	H	0.214620	0.099582	0.663303
	H30	H	0.784887	0.099370	0.336648
	H31	H	0.784575	0.900125	0.663334
	H32	H	0.337230	0.215090	0.901925
	H33	H	0.662430	0.215377	0.097934
	H34	H	0.337156	0.784407	0.098828
	H35	H	0.662787	0.785318	0.901710
	H36	H	0.336700	0.902484	0.214260
	H37	H	0.662642	0.098319	0.214286
	H38	H	0.336682	0.097637	0.786288
	H39	H	0.662926	0.901755	0.785204
	H40	H	0.903235	0.212794	0.335408
	H41	H	0.096285	0.212915	0.664689
	H42	H	0.097664	0.786106	0.335744
	H43	H	0.903675	0.787966	0.664886
	H44	H	0.216022	0.336696	0.900114
	H45	H	0.215061	0.663474	0.099546
	H46	H	0.784032	0.336755	0.100670
	H47	H	0.784896	0.663265	0.901329
	H48	H	0.410897	0.114248	0.591309
	H49	H	0.590317	0.883229	0.594226
	H50	H	0.583981	0.113375	0.406931
	H51	H	0.413769	0.886315	0.410663
	H52	H	0.598088	0.418532	0.115400
	H53	H	0.587387	0.591511	0.885630
	H54	H	0.395702	0.596423	0.121579
	H55	H	0.407171	0.409430	0.882849
	H56	H	0.113916	0.590433	0.408255
	H57	H	0.881376	0.600975	0.596606
	H58	H	0.116290	0.413941	0.603148
	H59	H	0.882726	0.395856	0.409575
	H60	H	0.119320	0.394358	0.593587
	H61	H	0.887043	0.593668	0.586468
	H62	H	0.116963	0.592512	0.402897
	H63	H	0.887886	0.412655	0.413243
	H64	H	0.406992	0.581866	0.113552
	H65	H	0.596472	0.598573	0.880053
	H66	H	0.582377	0.406532	0.114334
	H67	H	0.407838	0.406640	0.882657
	H68	H	0.599472	0.115486	0.416172
	H69	H	0.593214	0.883941	0.589039
	H70	H	0.403393	0.116942	0.589394
	H71	H	0.399412	0.882359	0.411895
	H72	H	0.900200	0.618572	0.094560
	H73	H	0.092002	0.384528	0.089195
	H74	H	0.091256	0.613545	0.915206
	H75	H	0.901706	0.384370	0.916149
	H76	H	0.088998	0.914079	0.613752
	H77	H	0.092053	0.090515	0.383968
	H78	H	0.901558	0.096986	0.619298
	H79	H	0.905280	0.905677	0.382113
	H80	H	0.617050	0.096471	0.904870
	H81	H	0.387895	0.089464	0.084940
	H82	H	0.618543	0.897395	0.092661
	H83	H	0.386269	0.908681	0.911451
	H84	H	0.611579	0.911225	0.084697
	H85	H	0.383710	0.088373	0.103175
	H86	H	0.614535	0.093981	0.910392
	H87	H	0.383604	0.908193	0.901718
	H88	H	0.904929	0.084363	0.615281
	H89	H	0.092680	0.095714	0.382397
	H90	H	0.091052	0.900384	0.618757
	H91	H	0.906266	0.909750	0.382686
	H92	H	0.101238	0.619119	0.907009
	H93	H	0.097722	0.382240	0.091947
	H94	H	0.909088	0.617184	0.098113
	H95	H	0.900932	0.378984	0.899321
	H96	H	0.405637	0.117310	0.596989
	H97	H	0.595917	0.882021	0.593861
	H98	H	0.598555	0.120590	0.398892
	H99	H	0.406569	0.880452	0.398698
	H100	H	0.598996	0.399399	0.120993
	H101	H	0.598373	0.585892	0.883261
	H102	H	0.415523	0.600165	0.116463
	H103	H	0.404657	0.407486	0.882294
	H104	H	0.116266	0.597030	0.408126
	H105	H	0.885193	0.587819	0.599112
	H106	H	0.111335	0.411501	0.581420
	H107	H	0.882083	0.408162	0.396930
	H108	H	0.906797	0.614748	0.088243
	H109	H	0.091751	0.382597	0.095213
	H110	H	0.088623	0.616557	0.901714
	H111	H	0.915764	0.385469	0.906085
	H112	H	0.101782	0.909404	0.618888
	H113	H	0.096852	0.092096	0.381392
	H114	H	0.914246	0.094470	0.615558
	H115	H	0.909164	0.906774	0.383869
	H116	H	0.614905	0.090222	0.905265
	H117	H	0.380987	0.104124	0.093797
	H118	H	0.616223	0.912283	0.101366
	H119	H	0.382373	0.900379	0.907094
	C120	C	0.378181	0.007993	0.621234
	C121	C	0.621241	0.991528	0.621374
	C122	C	0.621672	0.008082	0.378363
	C123	C	0.378363	0.991500	0.378544
	C124	C	0.621304	0.379120	0.008417
	C125	C	0.621842	0.621107	0.991531
	C126	C	0.378350	0.621322	0.008718
	C127	C	0.378533	0.379388	0.991354
	C128	C	0.007951	0.621849	0.378511
	C129	C	0.991797	0.622153	0.622181
	C130	C	0.007955	0.378186	0.621423
	C131	C	0.992142	0.377691	0.378137
	C132	C	0.877893	0.508050	0.121717
	C133	C	0.121317	0.491553	0.121144
	C134	C	0.122050	0.508471	0.878583
	C135	C	0.878327	0.491416	0.878864
	C136	C	0.121852	0.879347	0.508451
	C137	C	0.121680	0.121414	0.491378
	C138	C	0.878818	0.120758	0.508413
	C139	C	0.878544	0.878814	0.491321
	C140	C	0.508110	0.122218	0.878431
	C141	C	0.491580	0.122261	0.121936
	C142	C	0.507926	0.878356	0.121474
	C143	C	0.492102	0.878171	0.878354
	C144	C	0.381465	0.884180	0.675589
	C145	C	0.618287	0.115116	0.676468
	C146	C	0.618265	0.884532	0.323273
	C147	C	0.382154	0.115317	0.324552
	C148	C	0.676970	0.380303	0.885226
	C149	C	0.676731	0.619699	0.115216
	C150	C	0.323599	0.618985	0.885056
	C151	C	0.322672	0.380281	0.114577
	C152	C	0.885567	0.676533	0.381861
	C153	C	0.114504	0.677229	0.619114
	C154	C	0.885474	0.323245	0.618871
	C155	C	0.114559	0.323165	0.380881
	C156	C	0.885243	0.381568	0.676383
	C157	C	0.114300	0.619226	0.676774
	C158	C	0.885242	0.618113	0.324433
	C159	C	0.114593	0.381314	0.323195
	C160	C	0.382805	0.674606	0.884535
	C161	C	0.618590	0.676662	0.115134
	C162	C	0.618288	0.324167	0.884751
	C163	C	0.381969	0.324851	0.115191
	C164	C	0.676575	0.884925	0.380279
	C165	C	0.676617	0.114710	0.619538
	C166	C	0.322628	0.884755	0.619085
	C167	C	0.323429	0.114843	0.380803
	C168	C	0.882047	0.384318	0.175446
	C169	C	0.117526	0.615337	0.175678
	C170	C	0.119285	0.384856	0.823027
	C171	C	0.882553	0.615277	0.825220
	C172	C	0.176764	0.880598	0.384673
	C173	C	0.176675	0.119490	0.614657
	C174	C	0.823342	0.119092	0.385173
	C175	C	0.822866	0.880230	0.614719
	C176	C	0.385826	0.177454	0.881020
	C177	C	0.613989	0.177365	0.118726
	C178	C	0.385572	0.822950	0.119014
	C179	C	0.614431	0.823542	0.881002
	C180	C	0.385325	0.881322	0.176530
	C181	C	0.614058	0.119420	0.176695
	C182	C	0.385547	0.118990	0.823713
	C183	C	0.614354	0.881208	0.823111
	C184	C	0.882097	0.175369	0.384630
	C185	C	0.118060	0.176057	0.615227
	C186	C	0.118710	0.824032	0.384652
	C187	C	0.882069	0.824639	0.615438
	C188	C	0.177565	0.385202	0.880069
	C189	C	0.176465	0.615036	0.119334
	C190	C	0.822934	0.384946	0.119629
	C191	C	0.823478	0.614812	0.881427
	C192	C	0.400096	0.094075	0.599154
	C193	C	0.599525	0.905329	0.599010
	C194	C	0.600232	0.094359	0.400657
	C195	C	0.399954	0.905287	0.400519
	C196	C	0.599576	0.401617	0.094823
	C197	C	0.600579	0.598623	0.905345
	C198	C	0.399849	0.599380	0.095099
	C199	C	0.400161	0.401453	0.904746
	C200	C	0.093769	0.599940	0.400025
	C201	C	0.906505	0.600664	0.600526
	C202	C	0.093535	0.400105	0.599325
	C203	C	0.906252	0.399215	0.400153
	C204	C	0.899120	0.594595	0.100161
	C205	C	0.100003	0.405313	0.098792
	C206	C	0.100153	0.594232	0.901367
	C207	C	0.899733	0.405121	0.900781
	C208	C	0.100342	0.901616	0.594807
	C209	C	0.100188	0.099332	0.404877
	C210	C	0.900492	0.098537	0.594453
	C211	C	0.900555	0.900830	0.405269
	C212	C	0.593572	0.100096	0.900507
	C213	C	0.406015	0.100441	0.100443
	C214	C	0.593458	0.900425	0.099534
	C215	C	0.406099	0.899613	0.900390
	Zn216	Zn	0.499671	-0.000180	0.749724
	Zn217	Zn	0.499834	0.000080	0.250670
	Zn218	Zn	0.749814	0.499818	0.000302
	Zn219	Zn	0.250401	0.500059	0.000068
	Zn220	Zn	0.000308	0.751312	0.500218
	Zn221	Zn	0.000078	0.249018	0.499818
	Zn222	Zn	0.000029	0.499692	0.750925
	Zn223	Zn	-0.000425	0.499758	0.249377
	Zn224	Zn	0.499948	0.749151	-0.000086
	Zn225	Zn	0.499639	0.251445	-0.000128
	Zn226	Zn	0.750099	-0.000251	0.500021
	Zn227	Zn	0.250066	0.000076	0.499407
	N228	N	0.415416	0.961712	0.676976
	N229	N	0.584636	0.037525	0.677600
	N230	N	0.584736	0.962192	0.321948
	N231	N	0.415505	0.037700	0.322977
	N232	N	0.679050	0.413858	0.963094
	N233	N	0.679017	0.585962	0.037412
	N234	N	0.320614	0.586682	0.963378
	N235	N	0.320587	0.413664	0.036599
	N236	N	0.962989	0.679090	0.414535
	N237	N	0.037568	0.678878	0.585326
	N238	N	0.962749	0.321025	0.585538
	N239	N	0.037296	0.320951	0.414393
	N240	N	0.962369	0.415219	0.677838
	N241	N	0.037302	0.585523	0.678712
	N242	N	0.962482	0.584845	0.322324
	N243	N	0.037421	0.414447	0.321498
	N244	N	0.416237	0.676079	0.962373
	N245	N	0.585043	0.677415	0.037338
	N246	N	0.584478	0.323263	0.962352
	N247	N	0.416079	0.324327	0.037589
	N248	N	0.678628	0.962676	0.413770
	N249	N	0.678409	0.036918	0.585825
	N250	N	0.320662	0.962589	0.585662
	N251	N	0.321339	0.036839	0.413966
	N252	N	0.915444	0.461872	0.176763
	N253	N	0.083899	0.537729	0.176749
	N254	N	0.085206	0.462208	0.822304
	N255	N	0.915883	0.537595	0.823556
	N256	N	0.178739	0.914388	0.462628
	N257	N	0.179046	0.086191	0.536576
	N258	N	0.821117	0.085833	0.463109
	N259	N	0.820616	0.913376	0.536669
	N260	N	0.462970	0.179353	0.914317
	N261	N	0.536954	0.179092	0.085446
	N262	N	0.462758	0.821011	0.085544
	N263	N	0.537259	0.821392	0.914552
	N264	N	0.462349	0.915130	0.178077
	N265	N	0.536941	0.085644	0.178698
	N266	N	0.462503	0.085281	0.822031
	N267	N	0.537139	0.914377	0.821515
	N268	N	0.915982	0.176493	0.462134
	N269	N	0.084377	0.176904	0.537588
	N270	N	0.085255	0.822942	0.462568
	N271	N	0.916161	0.823846	0.537870
	N272	N	0.179553	0.462992	0.913761
	N273	N	0.179211	0.536982	0.086329
	N274	N	0.820535	0.462927	0.086624
	N275	N	0.820861	0.536769	0.914105
