data_Molecule from HDF5

_cell_length_a		16.134070
_cell_length_b		16.419713
_cell_length_c		16.118574
_cell_angle_alpha	90.040728
_cell_angle_beta	90.035129
_cell_angle_gamma	90.472250
_symmetry_space_group_name_H-M	'P 1'
_symmetry_Int_Tables_number		1

loop_
	_symmetry_equiv_pos_as_xyz
	x,y,z

loop_
	_atom_site_label
	_atom_site_type_symbol
	_atom_site_fract_x
	_atom_site_fract_y
	_atom_site_fract_z
	H0	H	0.401380	0.832161	0.716348
	H1	H	0.602682	0.157836	0.719995
	H2	H	0.596523	0.832453	0.289070
	H3	H	0.402989	0.157894	0.287202
	H4	H	0.712983	0.398681	0.840000
	H5	H	0.714600	0.592539	0.171255
	H6	H	0.289666	0.592140	0.839654
	H7	H	0.288772	0.398167	0.171215
	H8	H	0.835474	0.710021	0.401693
	H9	H	0.162510	0.716436	0.608148
	H10	H	0.836815	0.277485	0.608094
	H11	H	0.163864	0.282038	0.402825
	H12	H	0.834777	0.398943	0.716436
	H13	H	0.165098	0.595723	0.717678
	H14	H	0.834544	0.590450	0.293084
	H15	H	0.165565	0.402055	0.293695
	H16	H	0.400550	0.709827	0.840952
	H17	H	0.604974	0.713609	0.168950
	H18	H	0.603406	0.279930	0.841383
	H19	H	0.398592	0.278004	0.168124
	H20	H	0.714447	0.833537	0.404188
	H21	H	0.716366	0.158609	0.601367
	H22	H	0.281716	0.834492	0.602895
	H23	H	0.285702	0.158687	0.403022
	H24	H	0.900881	0.333195	0.219875
	H25	H	0.100860	0.658870	0.220390
	H26	H	0.100048	0.334690	0.785729
	H27	H	0.900922	0.658540	0.789195
	H28	H	0.210861	0.900633	0.338275
	H29	H	0.216005	0.097075	0.669132
	H30	H	0.789446	0.092963	0.337748
	H31	H	0.787361	0.899757	0.668550
	H32	H	0.337696	0.212951	0.898803
	H33	H	0.664669	0.211554	0.105252
	H34	H	0.338348	0.776442	0.107762
	H35	H	0.665376	0.781804	0.904404
	H36	H	0.335329	0.896896	0.215081
	H37	H	0.665299	0.094779	0.216870
	H38	H	0.334546	0.091009	0.790102
	H39	H	0.665764	0.898523	0.790474
	H40	H	0.898720	0.213200	0.340780
	H41	H	0.103176	0.214548	0.667922
	H42	H	0.101532	0.780262	0.340804
	H43	H	0.895450	0.780083	0.667038
	H44	H	0.214677	0.332620	0.905456
	H45	H	0.219975	0.657763	0.105183
	H46	H	0.784667	0.333035	0.104569
	H47	H	0.785192	0.657189	0.906363
	H48	H	0.406542	0.111557	0.594454
	H49	H	0.597195	0.878180	0.600254
	H50	H	0.587500	0.108743	0.411444
	H51	H	0.408225	0.881873	0.413150
	H52	H	0.587013	0.401878	0.121527
	H53	H	0.596094	0.594796	0.884895
	H54	H	0.406679	0.581981	0.122456
	H55	H	0.416275	0.393707	0.886596
	H56	H	0.118396	0.593141	0.414829
	H57	H	0.880016	0.591960	0.599223
	H58	H	0.116348	0.399942	0.587100
	H59	H	0.882804	0.397215	0.422684
	H60	H	0.114580	0.413830	0.594462
	H61	H	0.883015	0.590671	0.592219
	H62	H	0.116654	0.590421	0.413503
	H63	H	0.885076	0.412396	0.413417
	H64	H	0.418946	0.587461	0.120870
	H65	H	0.596632	0.583797	0.887526
	H66	H	0.593209	0.398184	0.125142
	H67	H	0.398385	0.400517	0.883266
	H68	H	0.601302	0.111837	0.414972
	H69	H	0.588824	0.880805	0.597000
	H70	H	0.408933	0.112029	0.599801
	H71	H	0.400260	0.879451	0.411399
	H72	H	0.908352	0.611776	0.101664
	H73	H	0.089850	0.383997	0.090980
	H74	H	0.103169	0.613603	0.912250
	H75	H	0.909424	0.380530	0.908018
	H76	H	0.082758	0.906970	0.619034
	H77	H	0.088279	0.084574	0.389846
	H78	H	0.904854	0.095987	0.625191
	H79	H	0.914712	0.898352	0.386546
	H80	H	0.619770	0.096262	0.911235
	H81	H	0.386012	0.081260	0.090789
	H82	H	0.621709	0.901738	0.103658
	H83	H	0.384117	0.900853	0.914955
	H84	H	0.619073	0.897296	0.090705
	H85	H	0.380960	0.087368	0.100046
	H86	H	0.615607	0.087344	0.919783
	H87	H	0.382898	0.902510	0.911014
	H88	H	0.904347	0.080469	0.620758
	H89	H	0.087594	0.098348	0.385960
	H90	H	0.092185	0.898547	0.624322
	H91	H	0.901919	0.896250	0.381644
	H92	H	0.091813	0.611726	0.905840
	H93	H	0.103552	0.377661	0.099451
	H94	H	0.910302	0.609955	0.096980
	H95	H	0.908653	0.381098	0.915144
	H96	H	0.412632	0.109979	0.595287
	H97	H	0.596224	0.880322	0.592067
	H98	H	0.596953	0.114258	0.401185
	H99	H	0.406486	0.879605	0.405346
	H100	H	0.593735	0.405719	0.123471
	H101	H	0.586703	0.589510	0.890123
	H102	H	0.408882	0.594874	0.126205
	H103	H	0.413000	0.412117	0.891208
	H104	H	0.118358	0.592120	0.413240
	H105	H	0.882646	0.585475	0.597040
	H106	H	0.121174	0.400992	0.602797
	H107	H	0.878543	0.397603	0.404995
	H108	H	0.905668	0.612024	0.096669
	H109	H	0.088608	0.379194	0.107908
	H110	H	0.092528	0.608082	0.919020
	H111	H	0.903207	0.378536	0.911074
	H112	H	0.095756	0.910982	0.621391
	H113	H	0.100222	0.090796	0.384053
	H114	H	0.918889	0.088991	0.619138
	H115	H	0.906533	0.908854	0.385614
	H116	H	0.617140	0.083330	0.907359
	H117	H	0.382262	0.092713	0.089185
	H118	H	0.616762	0.911149	0.094316
	H119	H	0.381880	0.898575	0.912304
	C120	C	0.379004	0.004004	0.625083
	C121	C	0.623401	0.987403	0.625485
	C122	C	0.622958	0.004187	0.380371
	C123	C	0.377363	0.987561	0.380661
	C124	C	0.621249	0.373953	0.014109
	C125	C	0.622835	0.617913	0.996391
	C126	C	0.381307	0.616431	0.014004
	C127	C	0.379658	0.373092	0.996068
	C128	C	0.008874	0.618432	0.383775
	C129	C	0.990774	0.618903	0.625791
	C130	C	0.008850	0.375362	0.625141
	C131	C	0.991120	0.374978	0.384136
	C132	C	0.878616	0.504086	0.127384
	C133	C	0.123676	0.487445	0.128089
	C134	C	0.123425	0.503824	0.882657
	C135	C	0.878475	0.487352	0.882788
	C136	C	0.119654	0.876304	0.512670
	C137	C	0.122340	0.120033	0.495288
	C138	C	0.880275	0.117050	0.512699
	C139	C	0.878605	0.874009	0.494153
	C140	C	0.508880	0.117310	0.882225
	C141	C	0.491775	0.116302	0.123757
	C142	C	0.510125	0.874070	0.125430
	C143	C	0.491716	0.873048	0.883182
	C144	C	0.380241	0.881368	0.679583
	C145	C	0.622087	0.109272	0.681653
	C146	C	0.618386	0.881498	0.326186
	C147	C	0.381342	0.109662	0.324859
	C148	C	0.676275	0.377403	0.889647
	C149	C	0.677858	0.614325	0.121324
	C150	C	0.326334	0.613155	0.889458
	C151	C	0.324917	0.376554	0.120823
	C152	C	0.884817	0.672262	0.383446
	C153	C	0.114102	0.676635	0.626286
	C154	C	0.885569	0.317251	0.625899
	C155	C	0.114737	0.320305	0.384066
	C156	C	0.884381	0.377529	0.680182
	C157	C	0.115292	0.616612	0.680817
	C158	C	0.884162	0.612613	0.329205
	C159	C	0.115758	0.379874	0.329597
	C160	C	0.381636	0.671818	0.890126
	C161	C	0.623118	0.674324	0.120116
	C162	C	0.621563	0.318431	0.890450
	C163	C	0.379732	0.316958	0.119479
	C164	C	0.677241	0.882012	0.383070
	C165	C	0.678871	0.109899	0.622525
	C166	C	0.321048	0.882490	0.622804
	C167	C	0.323240	0.110051	0.382818
	C168	C	0.880816	0.381835	0.182419
	C169	C	0.121734	0.610110	0.183031
	C170	C	0.120186	0.382583	0.825239
	C171	C	0.880926	0.609559	0.827419
	C172	C	0.174003	0.879677	0.387993
	C173	C	0.178428	0.117666	0.619396
	C174	C	0.826027	0.114177	0.387677
	C175	C	0.823802	0.878171	0.618880
	C176	C	0.386127	0.173816	0.880867
	C177	C	0.615624	0.172924	0.123949
	C178	C	0.387022	0.815984	0.126030
	C179	C	0.615843	0.818937	0.884388
	C180	C	0.385293	0.875676	0.179512
	C181	C	0.615907	0.114576	0.179343
	C182	C	0.384383	0.112887	0.826968
	C183	C	0.616088	0.877254	0.827936
	C184	C	0.880560	0.173541	0.389213
	C185	C	0.122297	0.175990	0.619008
	C186	C	0.119847	0.819587	0.389516
	C187	C	0.877910	0.818706	0.617981
	C188	C	0.177389	0.381573	0.884557
	C189	C	0.180912	0.609453	0.125816
	C190	C	0.822673	0.381723	0.125084
	C191	C	0.823234	0.609120	0.885595
	C192	C	0.402516	0.089178	0.602978
	C193	C	0.600618	0.901897	0.603252
	C194	C	0.601620	0.089470	0.402520
	C195	C	0.398652	0.902430	0.403140
	C196	C	0.598195	0.395603	0.100922
	C197	C	0.599946	0.595796	0.909821
	C198	C	0.404703	0.594500	0.100767
	C199	C	0.402571	0.395487	0.909432
	C200	C	0.095308	0.597909	0.407047
	C201	C	0.904280	0.596140	0.602949
	C202	C	0.095128	0.398098	0.601558
	C203	C	0.904668	0.396210	0.407043
	C204	C	0.901375	0.589297	0.104896
	C205	C	0.100674	0.402518	0.105888
	C206	C	0.102201	0.589082	0.905667
	C207	C	0.900581	0.402217	0.904880
	C208	C	0.096854	0.898770	0.599271
	C209	C	0.098997	0.097740	0.408848
	C210	C	0.902671	0.094987	0.599316
	C211	C	0.901011	0.895061	0.407109
	C212	C	0.595157	0.095589	0.905902
	C213	C	0.405237	0.093667	0.100204
	C214	C	0.596854	0.896922	0.102956
	C215	C	0.405322	0.894433	0.906089
	Zn216	Zn	0.500491	-0.005200	0.754778
	Zn217	Zn	0.499994	-0.004632	0.251563
	Zn218	Zn	0.748895	0.495014	0.005189
	Zn219	Zn	0.253507	0.495515	0.004991
	Zn220	Zn	-0.000883	0.747051	0.504485
	Zn221	Zn	0.000100	0.246207	0.504744
	Zn222	Zn	0.000361	0.496583	0.753066
	Zn223	Zn	0.000326	0.496327	0.257101
	Zn224	Zn	0.501310	0.745696	0.005342
	Zn225	Zn	0.500821	0.245292	0.004430
	Zn226	Zn	0.752480	-0.003664	0.502534
	Zn227	Zn	0.248601	-0.003156	0.503787
	N228	N	0.415486	0.957909	0.681082
	N229	N	0.588254	0.032038	0.683616
	N230	N	0.585517	0.958577	0.324267
	N231	N	0.414015	0.032545	0.323310
	N232	N	0.676103	0.411211	0.967626
	N233	N	0.677723	0.579845	0.043338
	N234	N	0.325849	0.579622	0.967720
	N235	N	0.324773	0.410739	0.042895
	N236	N	0.963273	0.676066	0.416891
	N237	N	0.035646	0.678132	0.593028
	N238	N	0.964056	0.315761	0.592614
	N239	N	0.036289	0.317168	0.417243
	N240	N	0.962044	0.412816	0.679935
	N241	N	0.037503	0.581478	0.680747
	N242	N	0.962255	0.579750	0.329272
	N243	N	0.037740	0.413180	0.329440
	N244	N	0.415085	0.673970	0.968632
	N245	N	0.589789	0.676731	0.041506
	N246	N	0.588058	0.316160	0.968931
	N247	N	0.412912	0.314499	0.040863
	N248	N	0.680177	0.959211	0.416257
	N249	N	0.679947	0.033022	0.588379
	N250	N	0.320314	0.959682	0.589677
	N251	N	0.320532	0.033170	0.416707
	N252	N	0.914980	0.458865	0.183986
	N253	N	0.086771	0.533214	0.184618
	N254	N	0.087392	0.459780	0.823944
	N255	N	0.914630	0.532852	0.825654
	N256	N	0.173957	0.914363	0.465650
	N257	N	0.178590	0.083478	0.541433
	N258	N	0.825724	0.079586	0.465493
	N259	N	0.823972	0.912017	0.540741
	N260	N	0.464517	0.176526	0.914610
	N261	N	0.537209	0.174333	0.090176
	N262	N	0.465641	0.814829	0.093103
	N263	N	0.537640	0.816358	0.918299
	N264	N	0.462789	0.911251	0.179227
	N265	N	0.538035	0.079857	0.179171
	N266	N	0.462012	0.078689	0.827323
	N267	N	0.537933	0.910059	0.826908
	N268	N	0.913709	0.175199	0.467840
	N269	N	0.088279	0.177671	0.540753
	N270	N	0.086554	0.817526	0.468045
	N271	N	0.910884	0.815944	0.539320
	N272	N	0.179397	0.457986	0.919553
	N273	N	0.182326	0.532364	0.092556
	N274	N	0.821476	0.458520	0.091231
	N275	N	0.821669	0.532249	0.919437
	O276	O	0.545474	0.490550	0.407075
	H277	H	0.542954	0.481768	0.408509
	H278	H	0.541880	0.504527	0.401686
	O279	O	0.588475	0.490771	0.404796
	H280	H	0.593552	0.492502	0.404900
	H281	H	0.575112	0.499025	0.393752
	O282	O	0.972110	0.991259	0.026490
	H283	H	0.968666	0.991706	0.012978
	H284	H	0.969448	0.999410	0.031878
	O285	O	0.952314	-0.020376	1.049472
	H286	H	0.948112	-0.029701	1.041067
	H287	H	0.964183	-0.031237	1.039362
	O288	O	0.346969	0.417661	0.518729
	H289	H	0.340335	0.414135	0.521340
	H290	H	0.347683	0.404740	0.529777
	O291	O	0.504795	0.385912	0.551983
	H292	H	0.510960	0.391373	0.546805
	H293	H	0.512393	0.374564	0.545091
	O294	O	0.475552	0.580989	0.462695
	H295	H	0.476237	0.571813	0.466656
	H296	H	0.464250	0.583931	0.467389
	O297	O	-0.014107	-0.148953	0.869655
	H298	H	-0.012834	-0.152819	0.864480
	H299	H	0.006607	-0.150049	0.866474
	O300	O	0.436230	0.525106	0.494341
	H301	H	0.432460	0.520706	0.506723
	H302	H	0.443620	0.523382	0.489968
	O303	O	1.102568	1.005176	-0.024751
	H304	H	1.099758	0.996049	-0.021633
	H305	H	1.105046	1.018662	-0.023597
	O306	O	0.017771	1.016950	0.941885
	H307	H	0.017101	1.018544	0.952395
	H308	H	0.004633	1.020848	0.943651
	O309	O	0.528569	0.421173	0.492477
	H310	H	0.531798	0.417610	0.475567
	H311	H	0.534389	0.426286	0.480712
	O312	O	0.074302	0.086232	0.070352
	H313	H	0.069960	0.096014	0.079242
	H314	H	0.062918	0.081116	0.053838
	O315	O	1.028898	-0.031857	0.002215
	H316	H	1.020402	-0.019818	0.005839
	H317	H	1.046716	-0.030252	-0.008895
	O318	O	0.939262	0.949126	1.125828
	H319	H	0.938529	0.941371	1.128442
	H320	H	0.928233	0.937891	1.124567
	O321	O	-0.028578	0.014761	0.966806
	H322	H	-0.032595	0.013715	0.979068
	H323	H	-0.030851	0.022258	0.965644
	O324	O	0.371953	0.462604	0.586123
	H325	H	0.363073	0.448563	0.597013
	H326	H	0.367424	0.456519	0.586503
	O327	O	-0.063221	0.024859	-0.018756
	H328	H	-0.055023	0.018256	-0.022377
	H329	H	-0.065031	0.027084	-0.021033
	O330	O	0.562832	0.566014	0.524422
	H331	H	0.558171	0.582216	0.514315
	H332	H	0.552429	0.560456	0.524276
	O333	O	0.101334	0.895772	0.972280
	H334	H	0.106048	0.910926	0.974701
	H335	H	0.103919	0.892919	0.993778
	O336	O	0.046366	0.002279	0.017114
	H337	H	0.040525	-0.003321	0.033398
	H338	H	0.039367	0.014498	0.015673
	O339	O	0.544809	0.535380	0.596331
	H340	H	0.551318	0.531249	0.614918
	H341	H	0.544981	0.528371	0.594468
	O342	O	1.150445	0.873152	0.946534
	H343	H	1.156308	0.872065	0.953684
	H344	H	1.150496	0.864956	0.957436
	O345	O	0.523221	1.610295	-0.406478
	H346	H	0.512652	1.616264	-0.404598
	H347	H	0.523594	1.600678	-0.415800
	O348	O	0.525111	0.417410	0.445361
	H349	H	0.533666	0.421304	0.437173
	H350	H	0.507487	0.405157	0.451282
	O351	O	0.497207	0.518954	0.570939
	H352	H	0.498245	0.514522	0.563257
	H353	H	0.509975	0.523070	0.566852
	O354	O	0.492245	0.435064	0.605401
	H355	H	0.488011	0.424470	0.618352
	H356	H	0.505781	0.434856	0.597433
	O357	O	1.075803	0.092795	1.027691
	H358	H	1.086213	0.101800	1.031175
	H359	H	1.072110	0.087343	1.042877
	O360	O	0.501434	0.418719	0.535999
	H361	H	0.494621	0.432607	0.540696
	H362	H	0.514167	0.408684	0.548763
	O363	O	0.406511	0.567718	0.494261
	H364	H	0.410819	0.570593	0.487888
	H365	H	0.399003	0.576305	0.494810
	O366	O	0.939997	1.030073	0.993016
	H367	H	0.948694	1.018298	0.985548
	H368	H	0.936925	1.033880	0.980293
	O369	O	0.990728	-0.006125	0.919674
	H370	H	0.991351	-0.013711	0.911559
	H371	H	0.988179	-0.012640	0.911267
	O372	O	0.005334	0.124298	0.004629
	H373	H	0.001171	0.138898	0.002199
	H374	H	0.004673	0.122676	0.003233
	O375	O	0.974525	0.042214	0.076930
	H376	H	0.967660	0.031223	0.077834
	H377	H	0.975527	0.048803	0.083490
	O378	O	0.537986	0.523929	0.427955
	H379	H	0.539150	0.525597	0.451263
	H380	H	0.532470	0.532587	0.421367
	O381	O	0.860885	0.929331	0.090488
	H382	H	0.870825	0.922324	0.083237
	H383	H	0.851507	0.925151	0.088310
