data_Molecule from HDF5

_cell_length_a		16.647317
_cell_length_b		16.590094
_cell_length_c		16.513848
_cell_angle_alpha	90.004391
_cell_angle_beta	89.952583
_cell_angle_gamma	89.985825
_symmetry_space_group_name_H-M	'P 1'
_symmetry_Int_Tables_number		1

loop_
	_symmetry_equiv_pos_as_xyz
	x,y,z

loop_
	_atom_site_label
	_atom_site_type_symbol
	_atom_site_fract_x
	_atom_site_fract_y
	_atom_site_fract_z
	H0	H	0.391063	0.827737	0.703911
	H1	H	0.593266	0.143285	0.699230
	H2	H	0.598116	0.827760	0.262362
	H3	H	0.388661	0.139960	0.263305
	H4	H	0.711513	0.382509	0.828282
	H5	H	0.714273	0.590008	0.143075
	H6	H	0.272462	0.588617	0.828335
	H7	H	0.275276	0.382158	0.144318
	H8	H	0.837636	0.705947	0.377846
	H9	H	0.148082	0.704370	0.588842
	H10	H	0.835733	0.264473	0.586675
	H11	H	0.151808	0.266791	0.384830
	H12	H	0.836122	0.380477	0.704295
	H13	H	0.148822	0.587189	0.705222
	H14	H	0.836815	0.587591	0.264031
	H15	H	0.152704	0.383546	0.268915
	H16	H	0.389708	0.703735	0.827948
	H17	H	0.596636	0.704311	0.142848
	H18	H	0.593254	0.268449	0.827383
	H19	H	0.392321	0.266835	0.144380
	H20	H	0.714858	0.827121	0.378055
	H21	H	0.712329	0.141387	0.584881
	H22	H	0.272358	0.828304	0.590079
	H23	H	0.271202	0.139146	0.378559
	H24	H	0.892949	0.324508	0.202273
	H25	H	0.096125	0.640869	0.204830
	H26	H	0.095872	0.326498	0.766665
	H27	H	0.889130	0.639801	0.763814
	H28	H	0.217363	0.875291	0.328925
	H29	H	0.214435	0.089045	0.640472
	H30	H	0.773532	0.086166	0.326341
	H31	H	0.773240	0.879697	0.641659
	H32	H	0.336896	0.204692	0.882102
	H33	H	0.648271	0.207217	0.092371
	H34	H	0.339687	0.758519	0.094375
	H35	H	0.648888	0.762869	0.879548
	H36	H	0.338152	0.877145	0.207723
	H37	H	0.648784	0.089752	0.207939
	H38	H	0.337262	0.088661	0.764410
	H39	H	0.650649	0.882019	0.765665
	H40	H	0.889632	0.202523	0.326506
	H41	H	0.096812	0.203970	0.641024
	H42	H	0.100404	0.760568	0.328740
	H43	H	0.889353	0.762944	0.641134
	H44	H	0.212287	0.326655	0.882655
	H45	H	0.215064	0.639850	0.091992
	H46	H	0.774064	0.326653	0.089324
	H47	H	0.772845	0.640148	0.880475
	H48	H	0.403812	0.096904	0.577590
	H49	H	0.585807	0.870636	0.576685
	H50	H	0.584902	0.097238	0.391906
	H51	H	0.411607	0.873278	0.393677
	H52	H	0.579616	0.389783	0.099939
	H53	H	0.584674	0.579260	0.870648
	H54	H	0.410993	0.570731	0.094120
	H55	H	0.401818	0.397118	0.873432
	H56	H	0.103650	0.570330	0.394671
	H57	H	0.881613	0.575218	0.569657
	H58	H	0.104990	0.388680	0.570061
	H59	H	0.883747	0.397419	0.397479
	H60	H	0.103034	0.398362	0.574620
	H61	H	0.882659	0.568390	0.574198
	H62	H	0.105168	0.575098	0.395930
	H63	H	0.879865	0.393318	0.386203
	H64	H	0.404045	0.577286	0.099560
	H65	H	0.588365	0.568765	0.873166
	H66	H	0.590372	0.393174	0.102214
	H67	H	0.404905	0.391888	0.872291
	H68	H	0.576654	0.092464	0.396210
	H69	H	0.584727	0.870327	0.576129
	H70	H	0.404431	0.095580	0.571070
	H71	H	0.406265	0.875826	0.404127
	H72	H	0.905484	0.596408	0.080036
	H73	H	0.078187	0.372540	0.078372
	H74	H	0.083501	0.596906	0.893478
	H75	H	0.898355	0.370273	0.895860
	H76	H	0.081450	0.900155	0.594637
	H77	H	0.083827	0.066674	0.373114
	H78	H	0.901215	0.072512	0.596579
	H79	H	0.906279	0.899236	0.374305
	H80	H	0.604355	0.077106	0.898259
	H81	H	0.382006	0.070820	0.077861
	H82	H	0.604185	0.899346	0.078403
	H83	H	0.381999	0.898350	0.892512
	H84	H	0.605404	0.888582	0.070762
	H85	H	0.381091	0.077529	0.073926
	H86	H	0.605300	0.072530	0.889832
	H87	H	0.380264	0.891189	0.893263
	H88	H	0.903684	0.071974	0.596115
	H89	H	0.077190	0.076184	0.372570
	H90	H	0.078032	0.894395	0.594679
	H91	H	0.907425	0.889692	0.370946
	H92	H	0.079291	0.593804	0.896752
	H93	H	0.086459	0.373618	0.068349
	H94	H	0.907876	0.592664	0.070846
	H95	H	0.904656	0.371246	0.891857
	H96	H	0.398319	0.097573	0.573945
	H97	H	0.585551	0.870654	0.575683
	H98	H	0.585390	0.093405	0.401712
	H99	H	0.400629	0.870119	0.395684
	H100	H	0.582739	0.400663	0.098158
	H101	H	0.577893	0.571747	0.875568
	H102	H	0.401227	0.567360	0.096365
	H103	H	0.398809	0.392253	0.871197
	H104	H	0.103152	0.571915	0.399507
	H105	H	0.879156	0.575018	0.576985
	H106	H	0.107288	0.390235	0.580751
	H107	H	0.879686	0.385354	0.396382
	H108	H	0.897788	0.596358	0.072826
	H109	H	0.090076	0.368201	0.079348
	H110	H	0.084691	0.595852	0.899594
	H111	H	0.904623	0.373190	0.899472
	H112	H	0.084207	0.894445	0.597243
	H113	H	0.087741	0.076226	0.368980
	H114	H	0.903176	0.074256	0.597237
	H115	H	0.898307	0.894614	0.369874
	H116	H	0.607870	0.081670	0.890618
	H117	H	0.384192	0.071549	0.070060
	H118	H	0.600155	0.899335	0.065836
	H119	H	0.383439	0.895121	0.898953
	C120	C	0.371280	-0.006755	0.606181
	C121	C	0.615156	0.975493	0.605495
	C122	C	0.614577	-0.008702	0.363477
	C123	C	0.373126	0.975697	0.364702
	C124	C	0.614353	0.363888	-0.004821
	C125	C	0.615011	0.605098	0.977165
	C126	C	0.372975	0.604184	-0.006734
	C127	C	0.371815	0.363158	0.977147
	C128	C	0.001409	0.604812	0.363679
	C129	C	0.984478	0.604306	0.605528
	C130	C	0.001283	0.361333	0.606272
	C131	C	0.985493	0.361967	0.363377
	C132	C	0.872824	0.491484	0.106124
	C133	C	0.115751	0.474992	0.107092
	C134	C	0.114040	0.491891	0.864708
	C135	C	0.871369	0.475292	0.863925
	C136	C	0.114716	0.862562	0.492985
	C137	C	0.114332	0.104674	0.475519
	C138	C	0.872022	0.103786	0.492337
	C139	C	0.871762	0.862294	0.475508
	C140	C	0.501970	0.107550	0.862387
	C141	C	0.485215	0.105367	0.106416
	C142	C	0.501309	0.862690	0.105769
	C143	C	0.485115	0.863128	0.863146
	C144	C	0.371200	0.875184	0.665152
	C145	C	0.613897	0.095324	0.661324
	C146	C	0.616525	0.874299	0.302857
	C147	C	0.370272	0.093123	0.303677
	C148	C	0.672284	0.363463	0.875820
	C149	C	0.674123	0.607521	0.095768
	C150	C	0.312915	0.606587	0.875307
	C151	C	0.314592	0.363128	0.096823
	C152	C	0.884323	0.665490	0.360153
	C153	C	0.101596	0.664213	0.607427
	C154	C	0.882885	0.303696	0.606391
	C155	C	0.104493	0.305487	0.365139
	C156	C	0.883210	0.361181	0.664885
	C157	C	0.101947	0.605962	0.665155
	C158	C	0.884090	0.606749	0.303207
	C159	C	0.104771	0.363486	0.307264
	C160	C	0.371031	0.663914	0.875026
	C161	C	0.615811	0.664701	0.095573
	C162	C	0.613435	0.307023	0.875328
	C163	C	0.372881	0.306013	0.096947
	C164	C	0.674455	0.873929	0.360436
	C165	C	0.672728	0.094419	0.604421
	C166	C	0.312402	0.875225	0.608406
	C167	C	0.311898	0.092667	0.360807
	C168	C	0.873128	0.372540	0.163977
	C169	C	0.115733	0.593701	0.165627
	C170	C	0.114899	0.373836	0.805978
	C171	C	0.870289	0.593034	0.804148
	C172	C	0.176470	0.858151	0.375762
	C173	C	0.174025	0.107040	0.593601
	C174	C	0.813473	0.104925	0.373499
	C175	C	0.812651	0.860561	0.594267
	C176	C	0.383999	0.165826	0.862218
	C177	C	0.601897	0.166461	0.109892
	C178	C	0.385682	0.800139	0.110932
	C179	C	0.602437	0.803442	0.861295
	C180	C	0.384997	0.859021	0.167606
	C181	C	0.602073	0.108095	0.167421
	C182	C	0.384341	0.108123	0.803768
	C183	C	0.603282	0.862921	0.804899
	C184	C	0.871165	0.162764	0.373564
	C185	C	0.115723	0.164102	0.593892
	C186	C	0.118258	0.801073	0.375618
	C187	C	0.870517	0.802957	0.594212
	C188	C	0.172818	0.373904	0.863593
	C189	C	0.174966	0.592919	0.109619
	C190	C	0.813945	0.373399	0.107832
	C191	C	0.812265	0.593043	0.861775
	C192	C	0.395285	0.075482	0.581177
	C193	C	0.592124	0.892207	0.582754
	C194	C	0.589525	0.073178	0.389390
	C195	C	0.398827	0.894276	0.390530
	C196	C	0.590961	0.387732	0.078350
	C197	C	0.590756	0.580344	0.894529
	C198	C	0.398160	0.579115	0.075382
	C199	C	0.395089	0.386815	0.893983
	C200	C	0.082760	0.579780	0.389619
	C201	C	0.902541	0.579899	0.580751
	C202	C	0.083535	0.385344	0.582138
	C203	C	0.902641	0.385324	0.386682
	C204	C	0.896821	0.573768	0.081660
	C205	C	0.091690	0.392920	0.082554
	C206	C	0.089480	0.574222	0.889542
	C207	C	0.895614	0.392909	0.888616
	C208	C	0.088462	0.888793	0.574320
	C209	C	0.089843	0.079941	0.392968
	C210	C	0.895882	0.079726	0.575123
	C211	C	0.896842	0.887286	0.393126
	C212	C	0.584593	0.083830	0.886243
	C213	C	0.403822	0.080303	0.081265
	C214	C	0.582189	0.888437	0.079285
	C215	C	0.403229	0.887669	0.887843
	Zn216	Zn	0.493926	-0.015281	0.734394
	Zn217	Zn	0.493356	-0.016280	0.235256
	Zn218	Zn	0.743535	0.484027	-0.013811
	Zn219	Zn	0.243695	0.484388	-0.014385
	Zn220	Zn	-0.006947	0.734397	0.484120
	Zn221	Zn	-0.007484	0.232490	0.484455
	Zn222	Zn	-0.007381	0.483320	0.735267
	Zn223	Zn	-0.006261	0.483671	0.234626
	Zn224	Zn	0.493602	0.733612	-0.015372
	Zn225	Zn	0.493315	0.235167	-0.014383
	Zn226	Zn	0.743414	-0.017315	0.484110
	Zn227	Zn	0.242910	-0.016316	0.484340
	N228	N	0.406927	0.949715	0.664135
	N229	N	0.578979	0.020312	0.662440
	N230	N	0.580148	0.948481	0.304452
	N231	N	0.407605	0.019371	0.305899
	N232	N	0.673195	0.397757	0.951514
	N233	N	0.674133	0.571563	0.020868
	N234	N	0.313817	0.570507	0.949987
	N235	N	0.313398	0.397521	0.021267
	N236	N	0.958355	0.664759	0.396871
	N237	N	0.027414	0.663584	0.571342
	N238	N	0.957455	0.303445	0.571009
	N239	N	0.028943	0.303889	0.398749
	N240	N	0.958010	0.396113	0.665270
	N241	N	0.028160	0.569230	0.663996
	N242	N	0.957862	0.569829	0.305129
	N243	N	0.029579	0.397630	0.305666
	N244	N	0.407675	0.662730	0.949467
	N245	N	0.579887	0.663511	0.020725
	N246	N	0.578222	0.306814	0.950578
	N247	N	0.407401	0.305540	0.021362
	N248	N	0.673423	0.948052	0.397307
	N249	N	0.673888	0.018619	0.570839
	N250	N	0.312103	0.949822	0.572641
	N251	N	0.313412	0.018550	0.397852
	N252	N	0.908815	0.447187	0.163417
	N253	N	0.079607	0.519461	0.164373
	N254	N	0.079003	0.448347	0.806481
	N255	N	0.906278	0.518621	0.805348
	N256	N	0.174438	0.895755	0.449737
	N257	N	0.173351	0.070759	0.518869
	N258	N	0.813788	0.069079	0.448430
	N259	N	0.813361	0.896505	0.519424
	N260	N	0.458413	0.165656	0.897907
	N261	N	0.528226	0.165094	0.072753
	N262	N	0.459030	0.802146	0.073038
	N263	N	0.527965	0.803417	0.896975
	N264	N	0.458019	0.897329	0.164563
	N265	N	0.528498	0.070840	0.165659
	N266	N	0.458971	0.073004	0.803540
	N267	N	0.529330	0.899378	0.805905
	N268	N	0.906739	0.162391	0.448455
	N269	N	0.079271	0.162774	0.519419
	N270	N	0.080314	0.803712	0.449390
	N271	N	0.906536	0.803840	0.519268
	N272	N	0.172666	0.448548	0.899304
	N273	N	0.175256	0.518246	0.074007
	N274	N	0.813468	0.448341	0.072713
	N275	N	0.812929	0.518760	0.898445
	O276	O	0.610693	0.377242	-0.735955
	H277	H	0.616191	0.359905	-0.758634
	H278	H	0.605579	0.386375	-0.740083
	O279	O	0.526086	0.368010	0.399070
	H280	H	0.537503	0.371753	0.402567
	H281	H	0.535571	0.359835	0.392874
	O282	O	0.047623	1.026069	1.043167
	H283	H	0.043306	1.017239	1.039162
	H284	H	0.055901	1.021440	1.048228
	O285	O	1.185349	-0.182613	1.153142
	H286	H	1.177654	-0.176579	1.152968
	H287	H	1.173071	-0.174283	1.127480
	O288	O	-0.151164	0.947201	0.862843
	H289	H	-0.167714	0.943286	0.865871
	H290	H	-0.151601	0.951174	0.866746
	O291	O	0.702093	0.524253	0.693208
	H292	H	0.696964	0.517105	0.688108
	H293	H	0.708507	0.513604	0.710160
	O294	O	0.769139	-0.176359	0.979483
	H295	H	0.770797	-0.178362	1.008567
	H296	H	0.745419	-0.183609	0.971084
	O297	O	0.534080	0.693046	0.686399
	H298	H	0.534629	0.702143	0.699517
	H299	H	0.548596	0.690043	0.685068
	O300	O	0.163062	0.152008	0.782558
	H301	H	0.163042	0.127907	0.802717
	H302	H	0.127445	0.141646	0.792985
	O303	O	0.287097	0.279860	0.687669
	H304	H	0.253083	0.246736	0.716741
	H305	H	0.282844	0.292381	0.658139
	O306	O	0.963246	0.769932	0.199133
	H307	H	0.964064	0.774460	0.198785
	H308	H	0.973054	0.760259	0.210656
	O309	O	0.623040	0.578529	0.305032
	H310	H	0.609143	0.592644	0.298955
	H311	H	0.614102	0.595320	0.316357
	O312	O	1.001282	0.771129	0.803724
	H313	H	1.005812	0.759658	0.810270
	H314	H	0.994364	0.767368	0.814951
	O315	O	0.921588	0.098949	0.021079
	H316	H	0.923164	0.102831	0.017042
	H317	H	0.936251	0.094720	0.026352
	O318	O	0.620613	0.409213	0.509275
	H319	H	0.623070	0.425734	0.496116
	H320	H	0.627582	0.401480	0.498078
	O321	O	-0.211061	0.784832	1.188668
	H322	H	-0.194761	0.811274	1.196351
	H323	H	-0.198554	0.802931	1.174697
	O324	O	1.371614	1.500144	0.605197
	H325	H	1.375781	1.485382	0.594443
	H326	H	1.370226	1.516679	0.610217
	O327	O	-0.057188	0.203884	0.981000
	H328	H	-0.061065	0.209698	1.007166
	H329	H	-0.048547	0.189542	0.964266
	O330	O	0.712659	0.703683	0.512651
	H331	H	0.701308	0.695185	0.537918
	H332	H	0.743667	0.730720	0.515862
	O333	O	0.535272	0.623733	0.483910
	H334	H	0.547188	0.623889	0.495860
	H335	H	0.532531	0.619886	0.486517
	O336	O	1.057746	0.207940	0.210968
	H337	H	1.071082	0.228568	0.227244
	H338	H	1.090614	0.209749	0.217206
	O339	O	1.953353	0.085977	0.149474
	H340	H	1.954983	0.086004	0.134134
	H341	H	1.969328	0.101923	0.167992
	O342	O	0.706325	0.265946	0.453904
	H343	H	0.705308	0.272909	0.443447
	H344	H	0.724703	0.254386	0.447356
	O345	O	0.517071	1.634053	1.514583
	H346	H	0.518300	1.641402	1.525642
	H347	H	0.530410	1.642898	1.503678
	O348	O	0.682369	0.295770	0.674828
	H349	H	0.677137	0.323372	0.652994
	H350	H	0.654253	0.310412	0.659755
	O351	O	0.155483	0.783205	0.769297
	H352	H	0.142994	0.787770	0.777440
	H353	H	0.145162	0.777676	0.755640
	O354	O	0.199283	0.002560	0.858516
	H355	H	0.181415	0.001058	0.861495
	H356	H	0.209600	-0.010094	0.854514
	O357	O	0.716262	0.482187	0.488624
	H358	H	0.721580	0.498499	0.467959
	H359	H	0.709827	0.504513	0.496667
	O360	O	0.491178	0.580329	0.613950
	H361	H	0.485810	0.582423	0.620727
	H362	H	0.481063	0.576311	0.608842
	O363	O	-0.300608	-0.304106	-0.307668
	H364	H	-0.288208	-0.289904	-0.291336
	H365	H	-0.303080	-0.339441	-0.311373
	O366	O	0.491038	0.629656	0.482531
	H367	H	0.495546	0.637116	0.479575
	H368	H	0.499928	0.626882	0.479919
	O369	O	1.204963	0.014746	0.199304
	H370	H	1.217088	0.010516	0.207808
	H371	H	1.213470	0.039479	0.207630
	O372	O	1.217094	0.761489	-0.036021
	H373	H	1.223088	0.760514	-0.063065
	H374	H	1.231552	0.745692	-0.048255
	O375	O	0.806986	-0.204779	-0.201233
	H376	H	0.832210	-0.191302	-0.201825
	H377	H	0.803577	-0.204062	-0.180301
	O378	O	0.284009	0.279052	0.513137
	H379	H	0.294198	0.281107	0.510233
	H380	H	0.281992	0.261219	0.508436
	O381	O	-0.540074	0.299228	0.388952
	H382	H	-0.525534	0.287728	0.392471
	H383	H	-0.507843	0.303971	0.385655
	O384	O	1.000762	-0.036472	1.211185
	H385	H	0.985447	-0.036591	1.221190
	H386	H	1.009499	-0.028685	1.203804
	O387	O	0.776906	1.015673	-0.236863
	H388	H	0.767352	1.019819	-0.247967
	H389	H	0.775704	1.023258	-0.252016
	O390	O	0.553337	0.388569	0.674341
	H391	H	0.532204	0.374081	0.684604
	H392	H	0.529425	0.399835	0.661925
	O393	O	0.778716	0.192343	0.777966
	H394	H	0.771201	0.178039	0.787513
	H395	H	0.760635	0.220122	0.749081
	O396	O	-0.057729	1.146120	0.823919
	H397	H	-0.069281	1.144414	0.832278
	H398	H	-0.058991	1.156313	0.814276
	O399	O	-0.231793	0.205723	0.948899
	H400	H	-0.207590	0.204926	0.929712
	H401	H	-0.259753	0.243724	0.945594
	O402	O	0.989699	1.087251	-0.237494
	H403	H	0.976446	1.088996	-0.236233
	H404	H	0.971147	1.093040	-0.234740
	O405	O	1.221129	0.187191	1.013394
	H406	H	1.211265	0.182065	1.007843
	H407	H	1.243405	0.205393	1.013528
	O408	O	0.215007	-0.004012	-0.016784
	H409	H	0.209259	-0.004038	-0.021743
	H410	H	0.217415	-0.024187	-0.013549
	O411	O	0.974903	0.948089	0.786853
	H412	H	0.982835	0.936542	0.786691
	H413	H	0.979802	0.962865	0.791239
	O414	O	0.697583	0.283368	0.280233
	H415	H	0.665886	0.281301	0.291884
	H416	H	0.717513	0.285904	0.261360
	O417	O	0.461688	-0.504809	1.317110
	H418	H	0.454332	-0.509223	1.327692
	H419	H	0.465904	-0.489026	1.314098
	O420	O	-0.220369	0.952311	1.192731
	H421	H	-0.222880	0.963385	1.202678
	H422	H	-0.235257	0.976872	1.177155
	O423	O	0.177905	0.162196	1.177991
	H424	H	0.179258	0.162114	1.151181
	H425	H	0.197739	0.173589	1.196500
	O426	O	0.212907	0.900024	0.765083
	H427	H	0.213171	0.888917	0.751503
	H428	H	0.219909	0.898792	0.746037
	O429	O	0.703957	0.495290	1.334981
	H430	H	0.697612	0.509983	1.322025
	H431	H	0.713282	0.511537	1.316964
	O432	O	0.062169	0.924517	-0.084511
	H433	H	0.052409	0.935889	-0.076255
	H434	H	0.059055	0.921461	-0.088964
	O435	O	-0.243262	1.013971	0.015255
	H436	H	-0.242644	1.029907	-0.006865
	H437	H	-0.248787	1.025436	0.007736
	O438	O	0.458917	0.268309	-0.297668
	H439	H	0.449349	0.239515	-0.264539
	H440	H	0.424919	0.277768	-0.308767
	O441	O	-0.037924	-0.108992	0.010938
	H442	H	-0.047600	-0.104321	0.013134
	H443	H	-0.036447	-0.099593	0.009668
	O444	O	0.313049	0.668954	0.667150
	H445	H	0.331334	0.667657	0.639208
	H446	H	0.313827	0.658203	0.673815
	O447	O	-0.652388	1.548552	1.524017
	H448	H	-0.657270	1.549440	1.530903
	H449	H	-0.653705	1.537871	1.524077
	O450	O	0.503258	0.680177	1.276954
	H451	H	0.485536	0.678657	1.274609
	H452	H	0.482209	0.685475	1.260492
	O453	O	0.480924	0.268609	0.497883
	H454	H	0.494585	0.253834	0.477014
	H455	H	0.489338	0.279850	0.523072
	O456	O	-0.040723	-0.234831	0.996074
	H457	H	-0.034357	-0.228839	0.996909
	H458	H	-0.043526	-0.243070	0.997606
	O459	O	1.082120	1.195744	-0.092146
	H460	H	1.077847	1.184127	-0.105332
	H461	H	1.063704	1.190943	-0.086207
	O462	O	0.274714	0.449663	0.704209
	H463	H	0.254915	0.435973	0.729411
	H464	H	0.270195	0.445461	0.690304
	O465	O	1.130769	-0.050842	0.107970
	H466	H	1.115135	-0.053202	0.101259
	H467	H	1.142577	-0.038776	0.116774
	O468	O	0.294091	0.686553	0.346326
	H469	H	0.293646	0.678174	0.357967
	H470	H	0.271323	0.706088	0.346485
	O471	O	-0.047169	0.759791	0.009429
	H472	H	-0.060899	0.754524	0.017585
	H473	H	-0.042736	0.771427	0.025054
	O474	O	0.282939	0.460804	0.360582
	H475	H	0.282029	0.453503	0.363185
	H476	H	0.280148	0.473502	0.354976
	O477	O	0.488804	0.572209	1.331958
	H478	H	0.515556	0.571904	1.328218
	H479	H	0.487755	0.577718	1.341916
	O480	O	0.282749	0.578337	0.275774
	H481	H	0.287299	0.582031	0.275154
	H482	H	0.273048	0.579893	0.259871
	O483	O	0.278973	0.527367	0.457285
	H484	H	0.283652	0.539561	0.462338
	H485	H	0.287494	0.519574	0.479341
	O486	O	0.310709	0.339939	1.349986
	H487	H	0.320861	0.360355	1.367162
	H488	H	0.321040	0.353074	1.372446
	O489	O	0.797332	1.140042	0.142755
	H490	H	0.807327	1.128286	0.124906
	H491	H	0.816620	1.150433	0.132727
