data_Molecule from HDF5

_cell_length_a		16.427795
_cell_length_b		16.189826
_cell_length_c		16.115675
_cell_angle_alpha	90.182719
_cell_angle_beta	89.709970
_cell_angle_gamma	89.959190
_symmetry_space_group_name_H-M	'P 1'
_symmetry_Int_Tables_number		1

loop_
	_symmetry_equiv_pos_as_xyz
	x,y,z

loop_
	_atom_site_label
	_atom_site_type_symbol
	_atom_site_fract_x
	_atom_site_fract_y
	_atom_site_fract_z
	H0	H	0.401811	0.840999	0.703726
	H1	H	0.594750	0.171680	0.705595
	H2	H	0.595265	0.840813	0.281823
	H3	H	0.403784	0.172115	0.280854
	H4	H	0.715882	0.403645	0.829771
	H5	H	0.712021	0.607414	0.158118
	H6	H	0.284078	0.606915	0.828586
	H7	H	0.282099	0.405304	0.157014
	H8	H	0.836527	0.723110	0.396889
	H9	H	0.160918	0.725966	0.592868
	H10	H	0.836515	0.293442	0.593187
	H11	H	0.161735	0.292729	0.392340
	H12	H	0.836187	0.412053	0.707772
	H13	H	0.161914	0.608633	0.708635
	H14	H	0.836274	0.606785	0.279942
	H15	H	0.162511	0.411229	0.277877
	H16	H	0.401011	0.719636	0.828160
	H17	H	0.593306	0.718570	0.159360
	H18	H	0.596865	0.292527	0.828349
	H19	H	0.400769	0.294033	0.159181
	H20	H	0.717389	0.844608	0.389602
	H21	H	0.713484	0.171301	0.593241
	H22	H	0.279404	0.844945	0.595495
	H23	H	0.283477	0.171542	0.391856
	H24	H	0.903214	0.342277	0.205812
	H25	H	0.093936	0.673079	0.203270
	H26	H	0.096487	0.343284	0.777131
	H27	H	0.901980	0.673892	0.783774
	H28	H	0.215011	0.907402	0.328816
	H29	H	0.215018	0.111564	0.656390
	H30	H	0.784804	0.109012	0.328130
	H31	H	0.782081	0.907750	0.655858
	H32	H	0.336519	0.222143	0.893801
	H33	H	0.660519	0.222705	0.093238
	H34	H	0.335453	0.791715	0.093092
	H35	H	0.660510	0.788995	0.893326
	H36	H	0.336241	0.909115	0.208685
	H37	H	0.662100	0.103143	0.206520
	H38	H	0.335940	0.103418	0.779577
	H39	H	0.661670	0.906299	0.777149
	H40	H	0.903375	0.221086	0.326807
	H41	H	0.095217	0.221475	0.658800
	H42	H	0.096954	0.795841	0.326971
	H43	H	0.901275	0.797752	0.658034
	H44	H	0.216313	0.343937	0.888052
	H45	H	0.215050	0.669867	0.093903
	H46	H	0.781922	0.343345	0.095751
	H47	H	0.780887	0.669724	0.893378
	H48	H	0.411185	0.119258	0.573126
	H49	H	0.587565	0.891121	0.583012
	H50	H	0.607377	0.127906	0.402960
	H51	H	0.401379	0.890384	0.406051
	H52	H	0.596146	0.412050	0.113785
	H53	H	0.595344	0.598479	0.874052
	H54	H	0.395262	0.599666	0.114103
	H55	H	0.414838	0.416690	0.879309
	H56	H	0.114695	0.610683	0.407017
	H57	H	0.886332	0.602354	0.582680
	H58	H	0.113873	0.415500	0.582228
	H59	H	0.882916	0.416135	0.393614
	H60	H	0.113879	0.418338	0.584677
	H61	H	0.883994	0.598958	0.591770
	H62	H	0.111768	0.591864	0.400314
	H63	H	0.882258	0.408724	0.401302
	H64	H	0.406239	0.589726	0.107450
	H65	H	0.592523	0.591620	0.877089
	H66	H	0.591786	0.419377	0.110420
	H67	H	0.405962	0.404268	0.872156
	H68	H	0.587407	0.126990	0.387331
	H69	H	0.594692	0.890994	0.577140
	H70	H	0.390917	0.128388	0.586093
	H71	H	0.404510	0.888230	0.397196
	H72	H	0.898337	0.627123	0.088084
	H73	H	0.087512	0.390661	0.085045
	H74	H	0.093773	0.626129	0.897276
	H75	H	0.906221	0.391741	0.905880
	H76	H	0.091067	0.912124	0.612543
	H77	H	0.084234	0.088368	0.380500
	H78	H	0.908563	0.104553	0.610392
	H79	H	0.908431	0.918036	0.375047
	H80	H	0.612832	0.100221	0.904532
	H81	H	0.381449	0.099559	0.094854
	H82	H	0.615867	0.907659	0.085329
	H83	H	0.384078	0.912915	0.902277
	H84	H	0.613076	0.912748	0.083547
	H85	H	0.382734	0.106771	0.082649
	H86	H	0.614322	0.094288	0.897616
	H87	H	0.383086	0.914087	0.898112
	H88	H	0.899093	0.102446	0.612061
	H89	H	0.087089	0.116329	0.372397
	H90	H	0.095548	0.922464	0.610868
	H91	H	0.906703	0.912964	0.373094
	H92	H	0.087269	0.622176	0.903634
	H93	H	0.093243	0.390202	0.080084
	H94	H	0.907004	0.625081	0.089197
	H95	H	0.903311	0.388198	0.899839
	H96	H	0.413431	0.125145	0.597951
	H97	H	0.596083	0.887773	0.586453
	H98	H	0.585065	0.118900	0.411601
	H99	H	0.410127	0.892750	0.403607
	H100	H	0.586586	0.411425	0.111524
	H101	H	0.588045	0.598041	0.877037
	H102	H	0.410894	0.604624	0.111671
	H103	H	0.399221	0.419485	0.874156
	H104	H	0.118976	0.605587	0.387849
	H105	H	0.881815	0.608740	0.589663
	H106	H	0.114032	0.415004	0.585775
	H107	H	0.886310	0.418870	0.404069
	H108	H	0.902890	0.622890	0.080822
	H109	H	0.094332	0.387852	0.087743
	H110	H	0.097222	0.623826	0.907115
	H111	H	0.909441	0.390594	0.899169
	H112	H	0.084965	0.920675	0.607882
	H113	H	0.110020	0.098252	0.370662
	H114	H	0.905273	0.096012	0.608613
	H115	H	0.902729	0.917294	0.373156
	H116	H	0.616153	0.103688	0.896178
	H117	H	0.386559	0.092453	0.083195
	H118	H	0.614700	0.912219	0.090149
	H119	H	0.382007	0.909786	0.899584
	C120	C	0.376559	0.015634	0.614284
	C121	C	0.620323	0.998676	0.612496
	C122	C	0.621685	0.015662	0.371183
	C123	C	0.377651	0.998974	0.372744
	C124	C	0.620317	0.384908	0.002669
	C125	C	0.619348	0.626149	0.985237
	C126	C	0.376682	0.626910	0.001992
	C127	C	0.377386	0.384711	0.984383
	C128	C	0.007727	0.631032	0.370992
	C129	C	0.990891	0.632331	0.616688
	C130	C	0.007128	0.387345	0.614195
	C131	C	0.991041	0.386383	0.370527
	C132	C	0.875535	0.516162	0.115384
	C133	C	0.119794	0.498371	0.113323
	C134	C	0.121434	0.516001	0.871647
	C135	C	0.877425	0.498931	0.873022
	C136	C	0.119525	0.888620	0.501382
	C137	C	0.120794	0.129883	0.483978
	C138	C	0.877138	0.129670	0.501007
	C139	C	0.877475	0.887958	0.483220
	C140	C	0.506684	0.127640	0.871460
	C141	C	0.490729	0.128180	0.115592
	C142	C	0.507096	0.883368	0.115261
	C143	C	0.490480	0.883133	0.870463
	C144	C	0.379692	0.891084	0.668236
	C145	C	0.616174	0.122362	0.668308
	C146	C	0.617439	0.891170	0.317552
	C147	C	0.381514	0.122784	0.317534
	C148	C	0.676870	0.385053	0.878798
	C149	C	0.673877	0.626034	0.108984
	C150	C	0.321937	0.626223	0.877859
	C151	C	0.320740	0.385808	0.108139
	C152	C	0.884803	0.685214	0.375484
	C153	C	0.112710	0.688174	0.613885
	C154	C	0.884866	0.331901	0.612850
	C155	C	0.113418	0.331104	0.372475
	C156	C	0.884860	0.390285	0.670378
	C157	C	0.113091	0.629597	0.671452
	C158	C	0.885013	0.627666	0.317290
	C159	C	0.113871	0.390234	0.315697
	C160	C	0.380310	0.681893	0.877447
	C161	C	0.614831	0.681481	0.109578
	C162	C	0.617794	0.329653	0.878005
	C163	C	0.379773	0.330475	0.109235
	C164	C	0.678052	0.892824	0.371178
	C165	C	0.675142	0.122195	0.612401
	C166	C	0.319454	0.892879	0.613922
	C167	C	0.322133	0.122645	0.373072
	C168	C	0.880694	0.391744	0.169602
	C169	C	0.116058	0.623114	0.167097
	C170	C	0.117909	0.392429	0.815014
	C171	C	0.880882	0.623761	0.819944
	C172	C	0.175847	0.888859	0.377517
	C173	C	0.175827	0.129927	0.607850
	C174	C	0.822890	0.128439	0.376978
	C175	C	0.821285	0.889120	0.607159
	C176	C	0.385005	0.183695	0.873907
	C177	C	0.612664	0.184016	0.113320
	C178	C	0.384189	0.829365	0.113217
	C179	C	0.612198	0.827218	0.872461
	C180	C	0.384673	0.887484	0.170929
	C181	C	0.613306	0.124709	0.169710
	C182	C	0.384675	0.124596	0.817066
	C183	C	0.612680	0.885553	0.814725
	C184	C	0.882171	0.183691	0.376266
	C185	C	0.116830	0.185108	0.608757
	C186	C	0.117595	0.832885	0.376838
	C187	C	0.880291	0.834211	0.608199
	C188	C	0.177346	0.392720	0.870125
	C189	C	0.176186	0.621388	0.112796
	C190	C	0.820470	0.392374	0.115075
	C191	C	0.820749	0.621718	0.874723
	C192	C	0.398568	0.101766	0.592116
	C193	C	0.599123	0.912098	0.589107
	C194	C	0.599765	0.102436	0.394038
	C195	C	0.399034	0.912686	0.395663
	C196	C	0.598009	0.407705	0.089552
	C197	C	0.598035	0.602973	0.898273
	C198	C	0.397734	0.604541	0.088708
	C199	C	0.399955	0.406977	0.897723
	C200	C	0.093017	0.609365	0.392273
	C201	C	0.905852	0.609974	0.594494
	C202	C	0.092043	0.409688	0.591040
	C203	C	0.905860	0.408162	0.392999
	C204	C	0.896465	0.602506	0.092900
	C205	C	0.098201	0.411922	0.090839
	C206	C	0.099391	0.601909	0.895798
	C207	C	0.899781	0.412589	0.895214
	C208	C	0.097154	0.911629	0.588001
	C209	C	0.100026	0.107428	0.397042
	C210	C	0.897878	0.107489	0.587866
	C211	C	0.899419	0.909540	0.396265
	C212	C	0.592335	0.105732	0.893049
	C213	C	0.405687	0.106194	0.093237
	C214	C	0.592395	0.904442	0.092817
	C215	C	0.405102	0.905509	0.893204
	Zn216	Zn	0.498796	0.006000	0.741248
	Zn217	Zn	0.499221	0.006392	0.244593
	Zn218	Zn	0.747796	0.505964	-0.005974
	Zn219	Zn	0.249122	0.505901	-0.007262
	Zn220	Zn	-0.000871	0.760640	0.492855
	Zn221	Zn	-0.001004	0.257128	0.492853
	Zn222	Zn	-0.000699	0.509010	0.744827
	Zn223	Zn	-0.001169	0.508470	0.241524
	Zn224	Zn	0.498007	0.754204	-0.006814
	Zn225	Zn	0.498947	0.257278	-0.006215
	Zn226	Zn	0.749360	0.008398	0.491809
	Zn227	Zn	0.248246	0.008447	0.493125
	N228	N	0.414677	0.968309	0.668558
	N229	N	0.582810	0.044353	0.668483
	N230	N	0.582822	0.968699	0.317544
	N231	N	0.415305	0.045128	0.317342
	N232	N	0.678537	0.418486	0.957371
	N233	N	0.676626	0.592373	0.030581
	N234	N	0.319652	0.592459	0.956150
	N235	N	0.319018	0.418518	0.029526
	N236	N	0.962035	0.687730	0.407948
	N237	N	0.035854	0.689780	0.580362
	N238	N	0.961942	0.329682	0.578675
	N239	N	0.036199	0.328435	0.405739
	N240	N	0.961649	0.424177	0.671142
	N241	N	0.036276	0.595722	0.673379
	N242	N	0.962234	0.594649	0.314304
	N243	N	0.036760	0.423710	0.314260
	N244	N	0.413550	0.682699	0.955573
	N245	N	0.581537	0.681693	0.031341
	N246	N	0.583366	0.329265	0.955988
	N247	N	0.414325	0.329591	0.031272
	N248	N	0.680765	0.971431	0.403656
	N249	N	0.677633	0.044262	0.578222
	N250	N	0.317327	0.971179	0.581032
	N251	N	0.319660	0.044437	0.406661
	N252	N	0.914235	0.469568	0.169976
	N253	N	0.081602	0.545716	0.167415
	N254	N	0.083892	0.470012	0.815764
	N255	N	0.915623	0.546457	0.818942
	N256	N	0.177319	0.922800	0.455961
	N257	N	0.178553	0.096477	0.529308
	N258	N	0.819761	0.095335	0.455459
	N259	N	0.819333	0.921742	0.528416
	N260	N	0.462054	0.185447	0.907267
	N261	N	0.535527	0.186198	0.080422
	N262	N	0.461133	0.826689	0.079389
	N263	N	0.535217	0.825622	0.906296
	N264	N	0.461887	0.920503	0.172310
	N265	N	0.536493	0.090848	0.171406
	N266	N	0.461464	0.090676	0.815256
	N267	N	0.535816	0.919592	0.813376
	N268	N	0.915263	0.184625	0.454430
	N269	N	0.083254	0.185079	0.530821
	N270	N	0.083106	0.832888	0.454725
	N271	N	0.914734	0.833279	0.530269
	N272	N	0.179461	0.470493	0.904710
	N273	N	0.178603	0.542870	0.080023
	N274	N	0.817097	0.470613	0.082165
	N275	N	0.818381	0.542998	0.906849
	O276	O	0.946869	1.054088	0.001090
	H277	H	0.947542	1.046048	0.005136
	H278	H	0.942454	1.052505	-0.008933
	O279	O	1.059527	-0.978072	1.009279
	H280	H	1.061129	-0.969792	1.005162
	H281	H	1.067066	-0.980732	1.004242
	O282	O	0.064606	0.021749	-0.098058
	H283	H	0.064112	0.018249	-0.107138
	H284	H	0.062783	0.016731	-0.092424
	O285	O	0.468452	0.544534	0.586332
	H286	H	0.488255	0.553481	0.579984
	H287	H	0.468504	0.541478	0.593012
	O288	O	0.044004	-0.047054	0.019090
	H289	H	0.032218	-0.043487	0.022742
	H290	H	0.048806	-0.049848	0.028018
	O291	O	-0.519271	0.575502	0.440057
	H292	H	-0.516801	0.569083	0.428287
	H293	H	-0.516630	0.577116	0.434091
	O294	O	0.042682	0.973773	-0.037902
	H295	H	0.037248	0.966599	-0.036168
	H296	H	0.049239	0.972316	-0.031171
	O297	O	0.465564	0.506245	0.569054
	H298	H	0.457708	0.513296	0.565740
	H299	H	0.468327	0.510436	0.563158
	O300	O	0.557938	0.441625	0.434200
	H301	H	0.563690	0.429778	0.431779
	H302	H	0.548354	0.436469	0.443313
	O303	O	0.995109	0.016366	1.042896
	H304	H	0.994723	0.021393	1.040785
	H305	H	0.997610	0.011382	1.041956
	O306	O	0.036358	0.941110	0.919800
	H307	H	0.037965	0.931226	0.909086
	H308	H	0.044135	0.946433	0.925176
	O309	O	0.018985	1.016636	0.951163
	H310	H	0.026291	1.017034	0.949479
	H311	H	0.017728	1.029587	0.951783
	O312	O	0.518118	-0.542589	1.442692
	H313	H	0.510721	-0.540382	1.447965
	H314	H	0.514965	-0.552741	1.445800
	O315	O	0.465459	0.436137	0.510272
	H316	H	0.466970	0.441116	0.524242
	H317	H	0.463962	0.434292	0.512865
	O318	O	0.047742	0.033429	0.979859
	H319	H	0.040378	0.029952	0.981709
	H320	H	0.049318	0.035261	0.988307
	O321	O	-0.002477	1.014412	-0.046592
	H322	H	-0.003529	1.014831	-0.046738
	H323	H	-0.003859	1.020641	-0.045758
	O324	O	0.891554	0.046238	0.931344
	H325	H	0.888054	0.035916	0.926545
	H326	H	0.892314	0.048061	0.924298
	O327	O	1.018097	0.962448	0.948085
	H328	H	1.019748	0.965143	0.946790
	H329	H	1.017349	0.962514	0.957101
	O330	O	0.514798	0.460706	0.503765
	H331	H	0.518060	0.463582	0.493177
	H332	H	0.516498	0.459297	0.500105
	O333	O	0.503086	0.510651	0.496855
	H334	H	0.499713	0.513778	0.498673
	H335	H	0.509344	0.511611	0.506137
	O336	O	0.584207	0.497679	0.542205
	H337	H	0.586036	0.506292	0.536816
	H338	H	0.592337	0.490668	0.548853
	O339	O	0.551764	0.522503	0.538694
	H340	H	0.553648	0.527142	0.531600
	H341	H	0.538096	0.531965	0.536370
	O342	O	0.432957	0.551164	0.472773
	H343	H	0.431516	0.540154	0.461340
	H344	H	0.428878	0.549628	0.481436
	O345	O	0.503870	0.488363	0.491449
	H346	H	0.504799	0.489317	0.491826
	H347	H	0.497964	0.496887	0.496292
