data_Molecule from HDF5

_cell_length_a		16.141937
_cell_length_b		16.391158
_cell_length_c		16.184541
_cell_angle_alpha	90.071896
_cell_angle_beta	90.073299
_cell_angle_gamma	90.121575
_symmetry_space_group_name_H-M	'P 1'
_symmetry_Int_Tables_number		1

loop_
	_symmetry_equiv_pos_as_xyz
	x,y,z

loop_
	_atom_site_label
	_atom_site_type_symbol
	_atom_site_fract_x
	_atom_site_fract_y
	_atom_site_fract_z
	H0	H	0.399067	0.835802	0.710713
	H1	H	0.599110	0.160437	0.711232
	H2	H	0.599536	0.836561	0.279373
	H3	H	0.398425	0.160886	0.279267
	H4	H	0.711978	0.401496	0.831559
	H5	H	0.713233	0.597366	0.161511
	H6	H	0.286125	0.595108	0.832305
	H7	H	0.288234	0.402795	0.162843
	H8	H	0.834856	0.713126	0.395412
	H9	H	0.163282	0.715034	0.598045
	H10	H	0.835668	0.281342	0.599674
	H11	H	0.163154	0.282566	0.395418
	H12	H	0.834284	0.400925	0.710015
	H13	H	0.164593	0.597627	0.710381
	H14	H	0.834145	0.595729	0.283291
	H15	H	0.164107	0.400349	0.284036
	H16	H	0.399605	0.712877	0.832120
	H17	H	0.603446	0.717536	0.159119
	H18	H	0.599922	0.282473	0.832943
	H19	H	0.396070	0.280977	0.159965
	H20	H	0.714353	0.835934	0.396371
	H21	H	0.712908	0.161244	0.594006
	H22	H	0.283896	0.835421	0.594000
	H23	H	0.282227	0.160626	0.395867
	H24	H	0.898124	0.336156	0.212893
	H25	H	0.099357	0.659765	0.213835
	H26	H	0.098583	0.335982	0.780995
	H27	H	0.901822	0.661163	0.782267
	H28	H	0.211667	0.901220	0.331794
	H29	H	0.214218	0.096013	0.660798
	H30	H	0.785286	0.096807	0.330878
	H31	H	0.785695	0.902456	0.660950
	H32	H	0.334409	0.214135	0.893675
	H33	H	0.663091	0.215703	0.097352
	H34	H	0.336739	0.782428	0.096677
	H35	H	0.662723	0.781836	0.892716
	H36	H	0.335581	0.900762	0.207714
	H37	H	0.663962	0.098191	0.209424
	H38	H	0.334028	0.094974	0.781798
	H39	H	0.665053	0.901762	0.783821
	H40	H	0.897684	0.215486	0.332966
	H41	H	0.103868	0.217044	0.659414
	H42	H	0.100567	0.781431	0.332909
	H43	H	0.897263	0.782370	0.659842
	H44	H	0.213664	0.335129	0.899410
	H45	H	0.213458	0.661266	0.095464
	H46	H	0.782872	0.336467	0.096189
	H47	H	0.784609	0.661649	0.897650
	H48	H	0.407800	0.111770	0.584285
	H49	H	0.589104	0.884085	0.586213
	H50	H	0.586156	0.113862	0.396972
	H51	H	0.408086	0.883268	0.399606
	H52	H	0.589481	0.406863	0.113524
	H53	H	0.596939	0.595605	0.875789
	H54	H	0.411183	0.590449	0.113161
	H55	H	0.410957	0.414755	0.883796
	H56	H	0.115954	0.591099	0.406913
	H57	H	0.883051	0.585852	0.589265
	H58	H	0.116904	0.407115	0.589144
	H59	H	0.881083	0.405192	0.403651
	H60	H	0.116468	0.404533	0.587082
	H61	H	0.878975	0.595244	0.595257
	H62	H	0.116008	0.590284	0.407038
	H63	H	0.881485	0.403508	0.406848
	H64	H	0.408915	0.596548	0.114254
	H65	H	0.590799	0.584918	0.882298
	H66	H	0.589187	0.405927	0.112999
	H67	H	0.414270	0.395942	0.878675
	H68	H	0.590781	0.111407	0.410703
	H69	H	0.598203	0.880940	0.588905
	H70	H	0.403571	0.114941	0.589679
	H71	H	0.406835	0.884491	0.403883
	H72	H	0.915475	0.612252	0.094248
	H73	H	0.091187	0.379912	0.098509
	H74	H	0.082162	0.612955	0.898754
	H75	H	0.907654	0.382310	0.898426
	H76	H	0.092827	0.899124	0.616870
	H77	H	0.086877	0.094824	0.380064
	H78	H	0.907597	0.090716	0.613012
	H79	H	0.909360	0.908247	0.380994
	H80	H	0.617736	0.087768	0.892743
	H81	H	0.381800	0.090775	0.085969
	H82	H	0.617285	0.903882	0.082122
	H83	H	0.378516	0.904377	0.896204
	H84	H	0.616983	0.911961	0.086928
	H85	H	0.381937	0.091374	0.086621
	H86	H	0.618974	0.104589	0.906131
	H87	H	0.381408	0.898554	0.909510
	H88	H	0.908139	0.091900	0.613132
	H89	H	0.093355	0.091246	0.378962
	H90	H	0.094896	0.910905	0.613003
	H91	H	0.909439	0.900522	0.377945
	H92	H	0.094518	0.611347	0.914550
	H93	H	0.086415	0.385126	0.086307
	H94	H	0.906030	0.611471	0.081931
	H95	H	0.906779	0.384101	0.907140
	H96	H	0.410752	0.114051	0.590860
	H97	H	0.590892	0.880811	0.595292
	H98	H	0.599579	0.117382	0.400416
	H99	H	0.403593	0.882152	0.400902
	H100	H	0.590170	0.406979	0.113146
	H101	H	0.583885	0.596044	0.879767
	H102	H	0.405386	0.592152	0.115122
	H103	H	0.396501	0.403600	0.876179
	H104	H	0.116643	0.590891	0.406630
	H105	H	0.882085	0.595304	0.582787
	H106	H	0.116046	0.408012	0.586742
	H107	H	0.882314	0.407060	0.406419
	H108	H	0.900847	0.617256	0.094770
	H109	H	0.100669	0.380198	0.087418
	H110	H	0.102200	0.618882	0.896892
	H111	H	0.900307	0.381033	0.902215
	H112	H	0.083417	0.905517	0.611928
	H113	H	0.086896	0.087205	0.380999
	H114	H	0.907261	0.091507	0.613318
	H115	H	0.903105	0.904785	0.377463
	H116	H	0.611568	0.085637	0.913904
	H117	H	0.381603	0.091540	0.086436
	H118	H	0.619903	0.904194	0.092015
	H119	H	0.384783	0.911816	0.906753
	C120	C	0.377872	0.006288	0.617411
	C121	C	0.621412	0.989587	0.618383
	C122	C	0.621216	0.007082	0.373381
	C123	C	0.376444	0.990429	0.372557
	C124	C	0.619856	0.377429	0.005052
	C125	C	0.620892	0.621027	0.987718
	C126	C	0.378955	0.620517	0.005582
	C127	C	0.377657	0.376589	0.988422
	C128	C	0.007585	0.619474	0.376187
	C129	C	0.990342	0.620797	0.618422
	C130	C	0.007751	0.377356	0.617573
	C131	C	0.990274	0.376825	0.375841
	C132	C	0.877664	0.506748	0.119037
	C133	C	0.121501	0.489292	0.119593
	C134	C	0.121677	0.506927	0.874574
	C135	C	0.876927	0.490149	0.874762
	C136	C	0.119843	0.876423	0.505289
	C137	C	0.120345	0.120279	0.487936
	C138	C	0.877832	0.120281	0.504852
	C139	C	0.877375	0.876634	0.487552
	C140	C	0.507309	0.120475	0.874340
	C141	C	0.490617	0.120331	0.116343
	C142	C	0.509375	0.878023	0.116007
	C143	C	0.490539	0.876580	0.874496
	C144	C	0.379001	0.884248	0.672965
	C145	C	0.619422	0.111941	0.673411
	C146	C	0.619480	0.884915	0.317657
	C147	C	0.378240	0.112278	0.317039
	C148	C	0.675056	0.380280	0.881159
	C149	C	0.676394	0.618150	0.111732
	C150	C	0.323465	0.616455	0.881629
	C151	C	0.323782	0.380689	0.112839
	C152	C	0.884023	0.675365	0.375763
	C153	C	0.114267	0.676445	0.617250
	C154	C	0.884414	0.320640	0.617885
	C155	C	0.114021	0.320867	0.376291
	C156	C	0.883685	0.379934	0.673021
	C157	C	0.114801	0.618158	0.673279
	C158	C	0.883809	0.616601	0.320377
	C159	C	0.114581	0.379711	0.321079
	C160	C	0.379942	0.675083	0.881523
	C161	C	0.621433	0.677851	0.110728
	C162	C	0.619074	0.321203	0.881720
	C163	C	0.377502	0.320105	0.111404
	C164	C	0.676594	0.884723	0.375739
	C165	C	0.675937	0.112233	0.615028
	C166	C	0.321995	0.883914	0.614658
	C167	C	0.320235	0.112169	0.375137
	C168	C	0.878770	0.384594	0.174638
	C169	C	0.119471	0.611439	0.175326
	C170	C	0.118954	0.384369	0.819113
	C171	C	0.880306	0.612537	0.819896
	C172	C	0.174670	0.879692	0.381230
	C173	C	0.177031	0.117946	0.611590
	C174	C	0.822579	0.117478	0.380644
	C175	C	0.822886	0.880873	0.611710
	C176	C	0.383603	0.175710	0.874795
	C177	C	0.614110	0.177093	0.116217
	C178	C	0.385705	0.821096	0.115628
	C179	C	0.614098	0.820801	0.874583
	C180	C	0.385096	0.879928	0.170893
	C181	C	0.614566	0.118826	0.172180
	C182	C	0.383454	0.116722	0.818868
	C183	C	0.614956	0.880279	0.819933
	C184	C	0.878622	0.176464	0.381607
	C185	C	0.121731	0.177539	0.610817
	C186	C	0.119343	0.820275	0.381656
	C187	C	0.877949	0.820721	0.610882
	C188	C	0.176007	0.383943	0.877999
	C189	C	0.175913	0.612279	0.116351
	C190	C	0.821253	0.384864	0.116699
	C191	C	0.822327	0.612778	0.877476
	C192	C	0.400748	0.091444	0.594856
	C193	C	0.598955	0.904131	0.596666
	C194	C	0.598738	0.092315	0.395883
	C195	C	0.399470	0.905321	0.394817
	C196	C	0.596589	0.399846	0.091093
	C197	C	0.597409	0.598695	0.901547
	C198	C	0.401842	0.599203	0.091783
	C199	C	0.400551	0.398387	0.901943
	C200	C	0.093787	0.597242	0.400025
	C201	C	0.903727	0.598636	0.595711
	C202	C	0.094142	0.399898	0.594374
	C203	C	0.904084	0.398829	0.398829
	C204	C	0.900835	0.591794	0.096947
	C205	C	0.099265	0.403984	0.097304
	C206	C	0.099653	0.592339	0.896747
	C207	C	0.898543	0.404698	0.896270
	C208	C	0.097079	0.898757	0.591516
	C209	C	0.096313	0.097475	0.402317
	C210	C	0.900862	0.098017	0.591030
	C211	C	0.900418	0.898100	0.401164
	C212	C	0.593908	0.099020	0.897558
	C213	C	0.404200	0.097766	0.093167
	C214	C	0.595633	0.900302	0.093599
	C215	C	0.404002	0.898520	0.897439
	Zn216	Zn	0.499230	-0.001948	0.746736
	Zn217	Zn	0.499782	-0.001132	0.244036
	Zn218	Zn	0.748448	0.499292	-0.003123
	Zn219	Zn	0.250421	0.498232	-0.002587
	Zn220	Zn	-0.000982	0.747955	0.496194
	Zn221	Zn	-0.000773	0.248780	0.496977
	Zn222	Zn	-0.000442	0.498535	0.745339
	Zn223	Zn	-0.000609	0.497640	0.248481
	Zn224	Zn	0.500144	0.749700	-0.004112
	Zn225	Zn	0.498288	0.248522	-0.003743
	Zn226	Zn	0.749538	-0.001243	0.495890
	Zn227	Zn	0.247823	-0.001899	0.496396
	N228	N	0.412799	0.961287	0.674929
	N229	N	0.586371	0.034573	0.675895
	N230	N	0.585756	0.962133	0.316001
	N231	N	0.412547	0.035509	0.315413
	N232	N	0.675485	0.414771	0.958740
	N233	N	0.676059	0.583509	0.034260
	N234	N	0.322655	0.583163	0.959687
	N235	N	0.323835	0.415130	0.035288
	N236	N	0.962134	0.677498	0.409647
	N237	N	0.035803	0.678494	0.584013
	N238	N	0.962692	0.318797	0.584336
	N239	N	0.035767	0.318908	0.409654
	N240	N	0.961441	0.414571	0.672903
	N241	N	0.036675	0.584162	0.674147
	N242	N	0.961606	0.582530	0.320603
	N243	N	0.036516	0.413543	0.320514
	N244	N	0.413857	0.677717	0.959511
	N245	N	0.587951	0.679917	0.032536
	N246	N	0.585311	0.319389	0.959808
	N247	N	0.410541	0.317704	0.033083
	N248	N	0.677760	0.961594	0.409592
	N249	N	0.677362	0.035044	0.581655
	N250	N	0.321110	0.960958	0.580789
	N251	N	0.319013	0.035374	0.408973
	N252	N	0.912916	0.461428	0.176364
	N253	N	0.086324	0.534072	0.177431
	N254	N	0.086033	0.461828	0.816825
	N255	N	0.913424	0.535348	0.817903
	N256	N	0.174910	0.913795	0.458928
	N257	N	0.176410	0.083079	0.534256
	N258	N	0.821849	0.083318	0.458365
	N259	N	0.822262	0.914534	0.533944
	N260	N	0.461828	0.178174	0.908727
	N261	N	0.535897	0.178136	0.082320
	N262	N	0.463890	0.819617	0.082350
	N263	N	0.535720	0.818403	0.907725
	N264	N	0.462801	0.914743	0.171392
	N265	N	0.536774	0.084275	0.172572
	N266	N	0.461362	0.082945	0.818782
	N267	N	0.537116	0.914357	0.819754
	N268	N	0.912246	0.178194	0.459746
	N269	N	0.087137	0.179036	0.533029
	N270	N	0.086019	0.818024	0.460015
	N271	N	0.911420	0.818120	0.532640
	N272	N	0.178124	0.461068	0.911514
	N273	N	0.177483	0.535214	0.082620
	N274	N	0.820401	0.461844	0.082863
	N275	N	0.819936	0.535598	0.910647
	O276	O	0.481095	0.507545	0.405636
	H277	H	0.487911	0.502496	0.409983
	H278	H	0.472789	0.502713	0.404635
	O279	O	0.461028	0.529803	0.445489
	H280	H	0.462678	0.518252	0.446866
	H281	H	0.446416	0.522902	0.458263
	O282	O	1.001434	0.936504	-0.075117
	H283	H	1.009717	0.926877	-0.061148
	H284	H	1.001720	0.936228	-0.086408
	O285	O	0.951840	-0.023639	0.951598
	H286	H	0.944831	-0.029645	0.942501
	H287	H	0.952951	-0.022001	0.961655
	O288	O	0.527062	0.448547	0.495122
	H289	H	0.533860	0.451626	0.497264
	H290	H	0.532108	0.448356	0.491821
	O291	O	0.545716	0.626681	0.636092
	H292	H	0.550872	0.624906	0.643569
	H293	H	0.544231	0.621398	0.633872
	O294	O	0.598966	0.498938	0.577632
	H295	H	0.582511	0.498639	0.573011
	H296	H	0.604151	0.494724	0.576520
	O297	O	0.021911	0.010794	1.116490
	H298	H	0.025279	0.015926	1.123431
	H299	H	0.018939	0.021751	1.120956
	O300	O	0.533509	0.442592	0.500641
	H301	H	0.541911	0.441460	0.494197
	H302	H	0.540057	0.438946	0.487836
	O303	O	1.044011	0.976626	0.028780
	H304	H	1.038524	0.984722	0.039859
	H305	H	1.042518	0.978633	0.020704
	O306	O	-0.027578	1.060357	1.013205
	H307	H	-0.025702	1.058543	1.010333
	H308	H	-0.027367	1.068802	1.026776
	O309	O	0.523502	0.404409	0.463276
	H310	H	0.525495	0.410927	0.466867
	H311	H	0.519446	0.418280	0.454293
	O312	O	0.394922	-0.461261	0.403993
	H313	H	0.397129	-0.462294	0.402626
	H314	H	0.388052	-0.467050	0.398692
	O315	O	0.580810	-0.508812	0.486213
	H316	H	0.579534	-0.512321	0.505707
	H317	H	0.585913	-0.510616	0.483811
	O318	O	1.044806	0.982796	0.947405
	H319	H	1.053615	0.989687	0.937842
	H320	H	1.044198	0.988409	0.937628
	O321	O	0.000185	-0.009233	0.995085
	H322	H	-0.003928	0.000705	0.979310
	H323	H	0.005576	-0.008467	0.992300
	O324	O	0.398618	0.484237	0.568971
	H325	H	0.398620	0.490083	0.568158
	H326	H	0.389599	0.482527	0.569969
	O327	O	-0.144744	0.041654	-0.032642
	H328	H	-0.151436	0.035598	-0.012831
	H329	H	-0.147248	0.030277	-0.035500
	O330	O	0.411536	0.537990	0.502454
	H331	H	0.409820	0.536570	0.508731
	H332	H	0.416903	0.533900	0.499553
	O333	O	-0.017791	0.986115	0.904140
	H334	H	-0.014325	0.977212	0.895929
	H335	H	-0.014669	0.985003	0.898852
	O336	O	0.046413	0.041946	0.096920
	H337	H	0.042944	0.051766	0.096532
	H338	H	0.054735	0.053492	0.085478
	O339	O	0.347964	0.491580	0.466732
	H340	H	0.344131	0.500511	0.467597
	H341	H	0.352985	0.489321	0.474004
	O342	O	0.923868	0.935457	1.050700
	H343	H	0.941805	0.940614	1.045150
	H344	H	0.914439	0.935999	1.053728
	O345	O	0.893623	1.943560	0.012808
	H346	H	0.893413	1.941923	0.020229
	H347	H	0.899921	1.942958	0.018264
	O348	O	0.524388	0.483505	0.608206
	H349	H	0.529615	0.482149	0.612492
	H350	H	0.526410	0.478733	0.614707
	O351	O	0.506835	0.485785	0.494259
	H352	H	0.517880	0.493783	0.490031
	H353	H	0.507758	0.483893	0.496089
	O354	O	0.525755	0.539008	0.471425
	H355	H	0.520723	0.542172	0.475060
	H356	H	0.532402	0.554914	0.478813
	O357	O	0.941990	-0.043925	1.083692
	H358	H	0.934343	-0.042894	1.102893
	H359	H	0.955994	-0.058764	1.084627
	O360	O	0.576287	0.491285	0.388865
	H361	H	0.583782	0.493552	0.394858
	H362	H	0.576239	0.497544	0.390946
	O363	O	0.456246	0.569816	0.466314
	H364	H	0.461114	0.574078	0.467060
	H365	H	0.456744	0.564428	0.453268
	O366	O	1.083474	1.020584	0.960334
	H367	H	1.077881	1.025484	0.957768
	H368	H	1.083896	1.007259	0.961798
	O369	O	1.023086	0.044785	0.946475
	H370	H	1.025336	0.032334	0.950608
	H371	H	1.014610	0.052993	0.944312
	O372	O	0.055071	-0.087397	0.032094
	H373	H	0.069131	-0.090635	0.036092
	H374	H	0.054714	-0.076187	0.031435
	O375	O	1.039494	0.081218	0.092351
	H376	H	1.047596	0.086244	0.089284
	H377	H	1.027667	0.067622	0.081733
	O378	O	0.512769	0.407747	0.541044
	H379	H	0.516964	0.414307	0.529159
	H380	H	0.513656	0.406493	0.532792
	O381	O	0.927860	0.964364	-0.074057
	H382	H	0.929700	0.959346	-0.063589
	H383	H	0.914898	0.958819	-0.063192
