data_Molecule from HDF5

_cell_length_a		16.488221
_cell_length_b		16.493152
_cell_length_c		16.494800
_cell_angle_alpha	90.038519
_cell_angle_beta	90.013990
_cell_angle_gamma	89.919232
_symmetry_space_group_name_H-M	'P 1'
_symmetry_Int_Tables_number		1

loop_
	_symmetry_equiv_pos_as_xyz
	x,y,z

loop_
	_atom_site_label
	_atom_site_type_symbol
	_atom_site_fract_x
	_atom_site_fract_y
	_atom_site_fract_z
	H0	H	0.391066	0.845423	0.726196
	H1	H	0.602450	0.158784	0.723780
	H2	H	0.599283	0.842249	0.282809
	H3	H	0.390088	0.158746	0.283500
	H4	H	0.714771	0.399219	0.845860
	H5	H	0.717264	0.608734	0.161270
	H6	H	0.272709	0.608446	0.846757
	H7	H	0.272427	0.395886	0.160845
	H8	H	0.841435	0.726942	0.393873
	H9	H	0.152525	0.722368	0.610736
	H10	H	0.837797	0.278758	0.607718
	H11	H	0.154117	0.279801	0.398865
	H12	H	0.837265	0.393380	0.724740
	H13	H	0.150769	0.607362	0.727618
	H14	H	0.839591	0.609138	0.279492
	H15	H	0.153236	0.394718	0.281717
	H16	H	0.389831	0.723510	0.846293
	H17	H	0.600110	0.723779	0.161615
	H18	H	0.601346	0.280074	0.847483
	H19	H	0.387183	0.279050	0.160048
	H20	H	0.717314	0.842344	0.397485
	H21	H	0.718412	0.157435	0.607647
	H22	H	0.275741	0.844152	0.609242
	H23	H	0.275471	0.158842	0.400918
	H24	H	0.890949	0.342719	0.222803
	H25	H	0.100890	0.658307	0.226197
	H26	H	0.098610	0.342621	0.783836
	H27	H	0.888367	0.657474	0.780194
	H28	H	0.218545	0.894340	0.346147
	H29	H	0.215160	0.102834	0.662024
	H30	H	0.775225	0.105933	0.346848
	H31	H	0.772587	0.890529	0.658483
	H32	H	0.338916	0.224081	0.896987
	H33	H	0.651909	0.224097	0.110988
	H34	H	0.336216	0.781019	0.107844
	H35	H	0.652091	0.779101	0.898333
	H36	H	0.336764	0.897380	0.224257
	H37	H	0.652665	0.106110	0.225410
	H38	H	0.339273	0.109292	0.779604
	H39	H	0.652245	0.894202	0.780890
	H40	H	0.893407	0.220115	0.345644
	H41	H	0.102529	0.222569	0.660251
	H42	H	0.104789	0.777201	0.346592
	H43	H	0.891839	0.777632	0.658882
	H44	H	0.217186	0.344738	0.899044
	H45	H	0.215159	0.659636	0.109040
	H46	H	0.773894	0.344713	0.107363
	H47	H	0.775591	0.660650	0.898947
	H48	H	0.400593	0.116712	0.591775
	H49	H	0.587097	0.886315	0.595102
	H50	H	0.586376	0.112009	0.417706
	H51	H	0.405643	0.887761	0.413878
	H52	H	0.581978	0.414057	0.116508
	H53	H	0.591824	0.588661	0.890067
	H54	H	0.405073	0.595234	0.117847
	H55	H	0.404801	0.415107	0.891381
	H56	H	0.109289	0.586726	0.409636
	H57	H	0.882885	0.588144	0.591449
	H58	H	0.105214	0.414284	0.588438
	H59	H	0.884310	0.413255	0.414566
	H60	H	0.108648	0.414262	0.598642
	H61	H	0.883940	0.589593	0.588079
	H62	H	0.108615	0.591471	0.418094
	H63	H	0.882573	0.411448	0.411640
	H64	H	0.402591	0.587465	0.116373
	H65	H	0.579384	0.587708	0.894452
	H66	H	0.584854	0.412436	0.116930
	H67	H	0.408358	0.413878	0.892897
	H68	H	0.588935	0.114220	0.412432
	H69	H	0.579978	0.889723	0.592786
	H70	H	0.409543	0.115328	0.596437
	H71	H	0.408777	0.887576	0.412797
	H72	H	0.902815	0.614704	0.091342
	H73	H	0.077239	0.390355	0.095283
	H74	H	0.083886	0.615093	0.913000
	H75	H	0.903746	0.389120	0.917579
	H76	H	0.091125	0.905643	0.619658
	H77	H	0.089521	0.080809	0.391325
	H78	H	0.903257	0.092629	0.617926
	H79	H	0.909544	0.915327	0.391137
	H80	H	0.606702	0.088886	0.917750
	H81	H	0.382603	0.089750	0.094406
	H82	H	0.607248	0.911473	0.091720
	H83	H	0.385400	0.923460	0.912924
	H84	H	0.606578	0.913689	0.091608
	H85	H	0.381874	0.093120	0.094030
	H86	H	0.608798	0.089405	0.911726
	H87	H	0.379160	0.909301	0.908619
	H88	H	0.908084	0.083798	0.614781
	H89	H	0.076677	0.091846	0.392843
	H90	H	0.088273	0.917491	0.615388
	H91	H	0.910526	0.913446	0.392188
	H92	H	0.080196	0.613595	0.913526
	H93	H	0.083741	0.391016	0.084640
	H94	H	0.908687	0.615449	0.097302
	H95	H	0.901497	0.386999	0.912373
	H96	H	0.408450	0.112339	0.587177
	H97	H	0.585584	0.889430	0.588047
	H98	H	0.582240	0.113199	0.412845
	H99	H	0.408149	0.888768	0.415794
	H100	H	0.584730	0.415680	0.116136
	H101	H	0.583491	0.598568	0.889089
	H102	H	0.410063	0.589735	0.113947
	H103	H	0.406049	0.411726	0.890862
	H104	H	0.104968	0.582402	0.417173
	H105	H	0.885274	0.586363	0.589152
	H106	H	0.109635	0.405313	0.592849
	H107	H	0.882296	0.409714	0.415339
	H108	H	0.910883	0.612327	0.090074
	H109	H	0.089038	0.386492	0.095066
	H110	H	0.082677	0.612462	0.916375
	H111	H	0.907427	0.389110	0.912608
	H112	H	0.079780	0.907931	0.614201
	H113	H	0.091807	0.097016	0.386559
	H114	H	0.913370	0.091644	0.615752
	H115	H	0.909097	0.913081	0.390803
	H116	H	0.608988	0.094477	0.915992
	H117	H	0.382985	0.091140	0.091073
	H118	H	0.607078	0.912862	0.093629
	H119	H	0.385477	0.911041	0.923705
	C120	C	0.374513	0.010768	0.624664
	C121	C	0.617690	0.992205	0.624414
	C122	C	0.617468	0.008739	0.381619
	C123	C	0.374759	0.992211	0.382744
	C124	C	0.616037	0.381675	0.012273
	C125	C	0.616932	0.624340	0.995390
	C126	C	0.373922	0.623204	0.011982
	C127	C	0.373324	0.380630	0.995089
	C128	C	0.004578	0.621392	0.381418
	C129	C	0.987267	0.621145	0.623520
	C130	C	0.003501	0.378847	0.624932
	C131	C	0.987092	0.378845	0.381635
	C132	C	0.874239	0.510214	0.124818
	C133	C	0.116090	0.493199	0.124446
	C134	C	0.115193	0.509815	0.882320
	C135	C	0.872647	0.492946	0.881901
	C136	C	0.119107	0.877930	0.512291
	C137	C	0.117646	0.122047	0.494766
	C138	C	0.875900	0.121336	0.511962
	C139	C	0.875982	0.879432	0.494232
	C140	C	0.504375	0.123686	0.882093
	C141	C	0.486434	0.123475	0.125697
	C142	C	0.502879	0.880538	0.124480
	C143	C	0.486976	0.880834	0.882351
	C144	C	0.372902	0.892446	0.685703
	C145	C	0.620688	0.110959	0.684300
	C146	C	0.618714	0.889732	0.321996
	C147	C	0.372444	0.111368	0.323405
	C148	C	0.675277	0.379924	0.893420
	C149	C	0.677490	0.626968	0.113791
	C150	C	0.313639	0.625688	0.893648
	C151	C	0.312285	0.377593	0.113308
	C152	C	0.887724	0.684898	0.376719
	C153	C	0.105093	0.682106	0.627967
	C154	C	0.885094	0.318767	0.626428
	C155	C	0.106254	0.318980	0.379923
	C156	C	0.884912	0.375940	0.684740
	C157	C	0.104201	0.624836	0.686270
	C158	C	0.886794	0.626314	0.319772
	C159	C	0.105730	0.376135	0.321468
	C160	C	0.371549	0.683373	0.893545
	C161	C	0.618931	0.684038	0.114129
	C162	C	0.618947	0.320632	0.894483
	C163	C	0.369753	0.319589	0.113092
	C164	C	0.677300	0.889830	0.379171
	C165	C	0.678395	0.110295	0.626483
	C166	C	0.315589	0.891626	0.627454
	C167	C	0.314876	0.111333	0.381289
	C168	C	0.871941	0.390767	0.183700
	C169	C	0.118752	0.611221	0.185646
	C170	C	0.117505	0.390571	0.823306
	C171	C	0.870484	0.610905	0.821019
	C172	C	0.179510	0.875623	0.393918
	C173	C	0.176605	0.122778	0.613974
	C174	C	0.815601	0.123804	0.393790
	C175	C	0.814096	0.874367	0.611748
	C176	C	0.386115	0.184159	0.878940
	C177	C	0.604747	0.183738	0.128700
	C178	C	0.383695	0.820835	0.126364
	C179	C	0.605055	0.819313	0.879693
	C180	C	0.383905	0.879023	0.184028
	C181	C	0.604990	0.125160	0.185802
	C182	C	0.386493	0.126540	0.820766
	C183	C	0.605144	0.876886	0.821577
	C184	C	0.874232	0.180663	0.393248
	C185	C	0.120229	0.182018	0.613261
	C186	C	0.122272	0.817556	0.394041
	C187	C	0.873070	0.817792	0.611913
	C188	C	0.176103	0.391256	0.880681
	C189	C	0.175668	0.611982	0.127398
	C190	C	0.813774	0.391702	0.126290
	C191	C	0.814404	0.612473	0.880141
	C192	C	0.399062	0.093241	0.599087
	C193	C	0.591765	0.909877	0.599194
	C194	C	0.592997	0.091382	0.406891
	C195	C	0.399956	0.909739	0.407215
	C196	C	0.591002	0.406777	0.094945
	C197	C	0.591942	0.599004	0.912822
	C198	C	0.398790	0.597961	0.094619
	C199	C	0.399065	0.406261	0.913066
	C200	C	0.086345	0.594583	0.407635
	C201	C	0.905419	0.595316	0.596971
	C202	C	0.086251	0.404161	0.600212
	C203	C	0.904726	0.403980	0.406745
	C204	C	0.899911	0.592746	0.100046
	C205	C	0.090742	0.410687	0.098791
	C206	C	0.089626	0.592171	0.907189
	C207	C	0.897126	0.409929	0.906959
	C208	C	0.093702	0.903100	0.594882
	C209	C	0.093055	0.097104	0.411734
	C210	C	0.900994	0.096341	0.594606
	C211	C	0.902248	0.906267	0.412599
	C212	C	0.586686	0.098261	0.907836
	C213	C	0.403871	0.098588	0.100334
	C214	C	0.585263	0.905316	0.099703
	C215	C	0.404898	0.906878	0.907955
	Zn216	Zn	0.496512	0.002160	0.753136
	Zn217	Zn	0.495037	0.001013	0.253983
	Zn218	Zn	0.745122	0.502753	0.003778
	Zn219	Zn	0.244649	0.502521	0.003816
	Zn220	Zn	-0.003489	0.749976	0.502525
	Zn221	Zn	-0.003668	0.250541	0.503504
	Zn222	Zn	-0.006092	0.500506	0.753043
	Zn223	Zn	-0.004477	0.500111	0.253054
	Zn224	Zn	0.494646	0.752025	0.003620
	Zn225	Zn	0.495051	0.252573	0.004404
	Zn226	Zn	0.746531	-0.000153	0.503114
	Zn227	Zn	0.246069	0.001008	0.503035
	N228	N	0.408802	0.967546	0.684214
	N229	N	0.583853	0.036192	0.683370
	N230	N	0.582511	0.964717	0.323166
	N231	N	0.408700	0.036359	0.323940
	N232	N	0.673921	0.416860	0.967823
	N233	N	0.676268	0.590493	0.038902
	N234	N	0.314795	0.589117	0.968473
	N235	N	0.314217	0.414825	0.038888
	N236	N	0.961943	0.681970	0.414526
	N237	N	0.031416	0.679660	0.589297
	N238	N	0.960082	0.320309	0.590143
	N239	N	0.031388	0.320313	0.416562
	N240	N	0.959548	0.412638	0.683958
	N241	N	0.029960	0.587382	0.683537
	N242	N	0.960396	0.587681	0.322540
	N243	N	0.030937	0.412912	0.322568
	N244	N	0.408181	0.682000	0.968066
	N245	N	0.581906	0.682462	0.039517
	N246	N	0.582831	0.321668	0.969526
	N247	N	0.406718	0.320966	0.038495
	N248	N	0.677170	0.965015	0.415088
	N249	N	0.676669	0.035457	0.590048
	N250	N	0.316540	0.966125	0.590203
	N251	N	0.315880	0.036203	0.417109
	N252	N	0.908381	0.465698	0.183347
	N253	N	0.082561	0.536224	0.183977
	N254	N	0.080648	0.465238	0.823986
	N255	N	0.905711	0.535333	0.821581
	N256	N	0.177659	0.912357	0.468540
	N257	N	0.174843	0.085936	0.539208
	N258	N	0.816332	0.087637	0.468728
	N259	N	0.815701	0.911966	0.537346
	N260	N	0.460526	0.182508	0.916545
	N261	N	0.529906	0.182923	0.092152
	N262	N	0.458817	0.821416	0.090163
	N263	N	0.530451	0.821626	0.916759
	N264	N	0.458852	0.915209	0.183055
	N265	N	0.530253	0.088656	0.184352
	N266	N	0.461194	0.089761	0.822459
	N267	N	0.530761	0.914394	0.822861
	N268	N	0.910898	0.179383	0.467813
	N269	N	0.084695	0.181909	0.537942
	N270	N	0.085614	0.818513	0.468781
	N271	N	0.910664	0.820802	0.537791
	N272	N	0.175139	0.466586	0.916414
	N273	N	0.174201	0.537512	0.090099
	N274	N	0.814924	0.467003	0.090638
	N275	N	0.815662	0.538063	0.917333
	O276	O	0.632673	0.398449	0.293790
	H277	H	0.633821	0.402738	0.312849
	H278	H	0.644971	0.399331	0.281232
	O279	O	0.351974	0.691701	0.640235
	H280	H	0.374597	0.687708	0.638914
	H281	H	0.367765	0.669170	0.624475
	O282	O	1.066613	0.867418	0.070328
	H283	H	1.070304	0.876673	0.072597
	H284	H	1.069899	0.854067	0.075992
	O285	O	0.514628	0.283804	0.370034
	H286	H	0.531224	0.273033	0.356189
	H287	H	0.543182	0.282889	0.374144
	O288	O	-0.004959	0.136967	0.098239
	H289	H	-0.010987	0.139830	0.085406
	H290	H	-0.006912	0.114820	0.098419
	O291	O	0.805938	0.796176	0.113670
	H292	H	0.788954	0.785053	0.098772
	H293	H	0.823908	0.794865	0.121194
	O294	O	-0.134253	0.978798	0.213053
	H295	H	-0.161135	0.962770	0.228959
	H296	H	-0.125942	0.947619	0.214457
	O297	O	0.534928	0.529545	0.296691
	H298	H	0.523652	0.497667	0.304405
	H299	H	0.564777	0.514843	0.291502
	O300	O	0.360526	0.565339	0.562532
	H301	H	0.348531	0.552636	0.585387
	H302	H	0.368011	0.554485	0.544826
	O303	O	0.271315	0.470332	0.725439
	H304	H	0.265389	0.442090	0.736117
	H305	H	0.254663	0.442738	0.741948
	O306	O	0.205330	0.785445	0.979505
	H307	H	0.202430	0.779837	0.948236
	H308	H	0.220285	0.765364	0.961128
	O309	O	0.713071	0.704728	0.522016
	H310	H	0.692960	0.698939	0.545515
	H311	H	0.741263	0.723174	0.527979
	O312	O	0.477721	0.708628	0.482681
	H313	H	0.474833	0.700797	0.454865
	H314	H	0.463443	0.708173	0.461782
	O315	O	0.203145	0.016502	1.191144
	H316	H	0.210380	0.018462	1.201514
	H317	H	0.206620	0.010561	1.189973
	O318	O	0.087504	0.930782	0.033822
	H319	H	0.097013	0.941325	0.036766
	H320	H	0.089557	0.921026	0.042671
	O321	O	0.282796	0.715049	0.475606
	H322	H	0.254734	0.742127	0.480994
	H323	H	0.281532	0.692838	0.495876
	O324	O	0.829944	0.190348	0.906441
	H325	H	0.824930	0.177376	0.910919
	H326	H	0.812118	0.180521	0.922741
	O327	O	0.787094	0.184822	0.991060
	H328	H	0.784504	0.179301	1.000073
	H329	H	0.778171	0.188194	0.996309
	O330	O	0.871664	0.042608	0.202457
	H331	H	0.878279	0.022941	0.200770
	H332	H	0.856364	0.028729	0.201520
	O333	O	0.837104	0.819590	0.843898
	H334	H	0.837173	0.814608	0.842491
	H335	H	0.849711	0.823949	0.865955
	O336	O	1.063501	0.130997	0.850865
	H337	H	1.034717	0.117564	0.862308
	H338	H	1.055085	0.152581	0.826874
	O339	O	0.612891	0.485631	0.420566
	H340	H	0.612209	0.480409	0.418994
	H341	H	0.615507	0.475292	0.408346
	O342	O	0.463530	0.385276	0.509446
	H343	H	0.471166	0.385740	0.506109
	H344	H	0.448562	0.379757	0.514737
	O345	O	0.192879	0.197548	0.200561
	H346	H	0.179822	0.196711	0.181870
	H347	H	0.164816	0.182724	0.204368
	O348	O	1.046576	0.026642	0.935102
	H349	H	1.040635	0.032661	0.918021
	H350	H	1.039842	0.033670	0.921107
	O351	O	0.984414	0.932644	0.073742
	H352	H	0.989654	0.948005	0.084274
	H353	H	0.976419	0.947019	0.078171
	O354	O	0.697552	0.300989	0.473462
	H355	H	0.688985	0.292673	0.479455
	H356	H	0.710433	0.304611	0.477516
	O357	O	0.859922	0.859037	1.012588
	H358	H	0.865850	0.883471	1.017709
	H359	H	0.878927	0.865916	0.996857
	O360	O	0.290975	0.446157	0.453736
	H361	H	0.290361	0.452856	0.454566
	H362	H	0.297790	0.459501	0.435875
	O363	O	0.709353	0.592061	0.408335
	H364	H	0.714398	0.577486	0.429453
	H365	H	0.714268	0.596487	0.420895
	O366	O	0.857728	0.013144	0.786351
	H367	H	0.846479	-0.004432	0.781379
	H368	H	0.862267	0.013953	0.771647
	O369	O	0.287913	0.517927	0.293847
	H370	H	0.291849	0.528865	0.276822
	H371	H	0.285837	0.540789	0.287909
	O372	O	0.365871	0.324629	0.383404
	H373	H	0.353022	0.314662	0.372040
	H374	H	0.356456	0.344671	0.383107
	O375	O	0.205306	1.195752	1.021291
	H376	H	0.196055	1.186944	1.030285
	H377	H	0.218592	1.216947	1.022273
	O378	O	0.844203	0.139359	0.218602
	H379	H	0.828160	0.130856	0.237686
	H380	H	0.847716	0.140526	0.217392
	O381	O	0.987540	0.046738	0.127606
	H382	H	0.984886	0.041339	0.132559
	H383	H	0.995632	0.033539	0.115111
	O384	O	0.196786	-0.033109	0.800793
	H385	H	0.208046	-0.021624	0.791522
	H386	H	0.207269	-0.007686	0.820272
	O387	O	0.007155	0.800117	0.808401
	H388	H	0.023834	0.789153	0.800209
	H389	H	0.006875	0.800983	0.820379
	O390	O	0.293121	0.297327	0.704839
	H391	H	0.294870	0.285478	0.674923
	H392	H	0.290340	0.277959	0.699341
	O393	O	0.943666	0.811513	0.161843
	H394	H	0.945041	0.800599	0.147688
	H395	H	0.960917	0.797618	0.152836
	O396	O	0.567850	0.696582	0.471235
	H397	H	0.575954	0.702394	0.455162
	H398	H	0.565325	0.685922	0.463506
	O399	O	0.505773	0.511647	0.720686
	H400	H	0.512294	0.520251	0.710855
	H401	H	0.496453	0.519460	0.727140
	O402	O	-0.049080	0.047407	0.806968
	H403	H	-0.066239	0.068336	0.796840
	H404	H	-0.047160	0.047176	0.806224
	O405	O	0.189859	0.135427	-0.101888
	H406	H	0.167425	0.142511	-0.094943
	H407	H	0.193223	0.122650	-0.073946
	O408	O	0.673856	0.675438	0.675237
	H409	H	0.673409	0.672668	0.687354
	H410	H	0.641365	0.675685	0.670261
	O411	O	0.510752	0.462873	0.684186
	H412	H	0.511882	0.463399	0.678961
	H413	H	0.502395	0.462352	0.680238
	O414	O	0.461418	0.687552	0.302156
	H415	H	0.469647	0.691068	0.285774
	H416	H	0.469381	0.678342	0.288649
	O417	O	0.457430	0.492668	0.481261
	H418	H	0.465335	0.511566	0.479331
	H419	H	0.455901	0.479246	0.471228
	O420	O	0.648644	0.502270	0.574434
	H421	H	0.630117	0.506044	0.573952
	H422	H	0.646997	0.497303	0.571055
	O423	O	0.078862	1.020302	-0.039074
	H424	H	0.077140	1.013168	-0.025818
	H425	H	0.078011	1.009731	-0.047033
	O426	O	0.907172	1.069826	0.821491
	H427	H	0.904821	1.058516	0.816125
	H428	H	0.917435	1.082621	0.823006
	O429	O	0.302658	0.684152	0.313514
	H430	H	0.299261	0.680538	0.349398
	H431	H	0.334483	0.690132	0.316902
	O432	O	0.288466	0.301749	0.532199
	H433	H	0.291176	0.316032	0.511608
	H434	H	0.269590	0.304923	0.516516
	O435	O	0.048914	0.067843	0.044366
	H436	H	0.062427	0.075404	0.046339
	H437	H	0.046397	0.068950	0.045204
	O438	O	1.015528	0.209752	0.109498
	H439	H	1.007549	0.205077	0.114947
	H440	H	1.005162	0.212662	0.102694
	O441	O	0.457482	0.404936	0.390314
	H442	H	0.463611	0.376047	0.397777
	H443	H	0.441914	0.408343	0.385025
	O444	O	0.189506	0.799169	0.804447
	H445	H	0.194937	0.848345	0.795964
	H446	H	0.199781	0.780224	0.782163
	O447	O	0.497202	0.703146	0.708831
	H448	H	0.480889	0.701386	0.715153
	H449	H	0.485341	0.706325	0.708440
	O450	O	0.663076	0.332000	0.324313
	H451	H	0.681713	0.332034	0.326610
	H452	H	0.651505	0.340998	0.330281
	O453	O	0.587311	0.401068	0.603831
	H454	H	0.563259	0.393603	0.603712
	H455	H	0.577899	0.400552	0.625392
	O456	O	0.792845	0.065097	-0.011064
	H457	H	0.784971	0.060165	0.013474
	H458	H	0.800365	0.054650	-0.024354
	O459	O	0.504768	0.292239	0.705345
	H460	H	0.496609	0.306409	0.712665
	H461	H	0.495292	0.275020	0.732084
	O462	O	0.698491	0.522421	0.718015
	H463	H	0.695298	0.539982	0.714226
	H464	H	0.721461	0.526555	0.727631
	O465	O	0.787594	-0.065416	0.015632
	H466	H	0.791780	-0.056227	0.023587
	H467	H	0.791040	-0.068175	0.027744
