data_Molecule from HDF5

_cell_length_a		16.251828
_cell_length_b		16.335329
_cell_length_c		16.163951
_cell_angle_alpha	89.779522
_cell_angle_beta	89.966790
_cell_angle_gamma	90.163555
_symmetry_space_group_name_H-M	'P 1'
_symmetry_Int_Tables_number		1

loop_
	_symmetry_equiv_pos_as_xyz
	x,y,z

loop_
	_atom_site_label
	_atom_site_type_symbol
	_atom_site_fract_x
	_atom_site_fract_y
	_atom_site_fract_z
	H0	H	0.395794	0.839022	0.714925
	H1	H	0.593319	0.166352	0.710632
	H2	H	0.590984	0.837901	0.287187
	H3	H	0.398855	0.166161	0.284153
	H4	H	0.707183	0.405972	0.834155
	H5	H	0.708127	0.601112	0.163444
	H6	H	0.280057	0.602883	0.833972
	H7	H	0.280042	0.404545	0.162896
	H8	H	0.831010	0.718528	0.397809
	H9	H	0.157346	0.719601	0.599014
	H10	H	0.831301	0.286359	0.599967
	H11	H	0.158124	0.288990	0.399369
	H12	H	0.829784	0.404323	0.712128
	H13	H	0.158731	0.600515	0.712206
	H14	H	0.829741	0.599175	0.285813
	H15	H	0.158489	0.406690	0.285417
	H16	H	0.392667	0.720438	0.835099
	H17	H	0.593153	0.715720	0.163863
	H18	H	0.593891	0.290118	0.834371
	H19	H	0.394227	0.286274	0.162459
	H20	H	0.710454	0.839617	0.399141
	H21	H	0.710343	0.164920	0.596803
	H22	H	0.278261	0.839434	0.599876
	H23	H	0.281995	0.166204	0.400871
	H24	H	0.894770	0.340460	0.214545
	H25	H	0.091703	0.666888	0.211298
	H26	H	0.091684	0.339365	0.785825
	H27	H	0.895471	0.665522	0.782750
	H28	H	0.208078	0.906377	0.334289
	H29	H	0.208963	0.100888	0.664526
	H30	H	0.782652	0.101129	0.333957
	H31	H	0.780657	0.902399	0.662989
	H32	H	0.331933	0.218100	0.899024
	H33	H	0.659561	0.218057	0.098660
	H34	H	0.331760	0.786852	0.099692
	H35	H	0.658676	0.787509	0.899993
	H36	H	0.330915	0.904450	0.212324
	H37	H	0.660455	0.098254	0.210644
	H38	H	0.331459	0.099952	0.784521
	H39	H	0.659890	0.905185	0.785766
	H40	H	0.896661	0.218386	0.335194
	H41	H	0.093275	0.216153	0.664777
	H42	H	0.093998	0.789359	0.334458
	H43	H	0.893957	0.786237	0.662481
	H44	H	0.210209	0.340683	0.898357
	H45	H	0.210189	0.666003	0.097958
	H46	H	0.779044	0.340100	0.098389
	H47	H	0.779664	0.666003	0.899066
	H48	H	0.408473	0.119980	0.603203
	H49	H	0.589679	0.883117	0.598370
	H50	H	0.592387	0.115965	0.417115
	H51	H	0.388596	0.883094	0.408041
	H52	H	0.580210	0.397837	0.118944
	H53	H	0.590531	0.597393	0.880151
	H54	H	0.409151	0.587619	0.111453
	H55	H	0.411341	0.405313	0.882634
	H56	H	0.110933	0.598446	0.407576
	H57	H	0.880803	0.587056	0.586982
	H58	H	0.113728	0.399920	0.590393
	H59	H	0.874327	0.402673	0.402144
	H60	H	0.107604	0.415341	0.585360
	H61	H	0.875314	0.595862	0.599222
	H62	H	0.110645	0.595413	0.405757
	H63	H	0.879789	0.408857	0.416665
	H64	H	0.405694	0.605509	0.118459
	H65	H	0.586128	0.592713	0.882972
	H66	H	0.599085	0.410346	0.120609
	H67	H	0.393466	0.404781	0.876446
	H68	H	0.598291	0.123156	0.397011
	H69	H	0.580705	0.888148	0.590127
	H70	H	0.409326	0.112869	0.580785
	H71	H	0.404324	0.884095	0.394539
	H72	H	0.894691	0.623083	0.096145
	H73	H	0.098836	0.381767	0.097509
	H74	H	0.086076	0.618430	0.904945
	H75	H	0.897949	0.388980	0.918278
	H76	H	0.088197	0.906537	0.617889
	H77	H	0.095607	0.110783	0.375786
	H78	H	0.906794	0.099053	0.616535
	H79	H	0.901130	0.904917	0.378326
	H80	H	0.619152	0.104727	0.891622
	H81	H	0.377073	0.102317	0.089405
	H82	H	0.614346	0.908031	0.098816
	H83	H	0.383069	0.916965	0.912979
	H84	H	0.613023	0.902347	0.088659
	H85	H	0.381424	0.091038	0.085259
	H86	H	0.610920	0.106576	0.919102
	H87	H	0.376786	0.912633	0.898741
	H88	H	0.896397	0.096343	0.619193
	H89	H	0.096898	0.084267	0.383328
	H90	H	0.089275	0.912463	0.616001
	H91	H	0.897664	0.914998	0.380596
	H92	H	0.086812	0.618532	0.907897
	H93	H	0.076254	0.388310	0.098886
	H94	H	0.905704	0.619247	0.093675
	H95	H	0.889914	0.381531	0.898908
	H96	H	0.389396	0.121304	0.589487
	H97	H	0.593660	0.885839	0.586202
	H98	H	0.577698	0.116112	0.400508
	H99	H	0.407465	0.890403	0.413807
	H100	H	0.580626	0.419749	0.111499
	H101	H	0.583321	0.599354	0.881002
	H102	H	0.391358	0.592320	0.117686
	H103	H	0.401768	0.419965	0.883721
	H104	H	0.111889	0.598171	0.403831
	H105	H	0.877786	0.602385	0.584690
	H106	H	0.112914	0.413656	0.601602
	H107	H	0.879566	0.417704	0.403171
	H108	H	0.898371	0.618649	0.085253
	H109	H	0.088008	0.390841	0.078480
	H110	H	0.088751	0.619724	0.906055
	H111	H	0.911343	0.388282	0.900723
	H112	H	0.083387	0.910376	0.615370
	H113	H	0.073661	0.097174	0.386645
	H114	H	0.903967	0.088643	0.614988
	H115	H	0.908446	0.911928	0.383602
	H116	H	0.607463	0.082108	0.905138
	H117	H	0.378434	0.092511	0.097461
	H118	H	0.610241	0.913560	0.090000
	H119	H	0.378201	0.901977	0.911137
	C120	C	0.373177	0.010578	0.621053
	C121	C	0.616868	0.993959	0.619827
	C122	C	0.617301	0.010493	0.376979
	C123	C	0.372877	0.993985	0.376943
	C124	C	0.615594	0.381862	0.007790
	C125	C	0.615057	0.624184	0.990558
	C126	C	0.373061	0.624614	0.007223
	C127	C	0.373180	0.381147	0.989740
	C128	C	0.003097	0.625166	0.376675
	C129	C	0.986048	0.624213	0.619763
	C130	C	0.003121	0.380319	0.621487
	C131	C	0.986099	0.381921	0.378121
	C132	C	0.871473	0.512113	0.120849
	C133	C	0.116132	0.494778	0.120273
	C134	C	0.115852	0.511299	0.877421
	C135	C	0.871592	0.494151	0.876974
	C136	C	0.115732	0.881628	0.507817
	C137	C	0.116952	0.125302	0.490980
	C138	C	0.874075	0.123867	0.507821
	C139	C	0.873737	0.881443	0.489897
	C140	C	0.504222	0.125700	0.876516
	C141	C	0.487487	0.123891	0.119775
	C142	C	0.503751	0.880050	0.121112
	C143	C	0.487215	0.881361	0.878364
	C144	C	0.375094	0.887847	0.676951
	C145	C	0.614092	0.117030	0.673934
	C146	C	0.612707	0.887095	0.323747
	C147	C	0.377125	0.117148	0.321946
	C148	C	0.669847	0.385614	0.883385
	C149	C	0.670323	0.621539	0.114307
	C150	C	0.317679	0.623032	0.883325
	C151	C	0.317962	0.383703	0.113851
	C152	C	0.879819	0.680250	0.378593
	C153	C	0.108800	0.680364	0.618684
	C154	C	0.880017	0.324567	0.619459
	C155	C	0.109330	0.326826	0.379553
	C156	C	0.879194	0.383536	0.675157
	C157	C	0.109519	0.621327	0.674887
	C158	C	0.879096	0.621294	0.322587
	C159	C	0.109543	0.385143	0.322656
	C160	C	0.373891	0.681350	0.883888
	C161	C	0.612816	0.678312	0.114485
	C162	C	0.613397	0.327895	0.883484
	C163	C	0.374458	0.324868	0.113455
	C164	C	0.671973	0.887940	0.379518
	C165	C	0.672458	0.116453	0.617286
	C166	C	0.316838	0.888027	0.619524
	C167	C	0.319122	0.117259	0.379754
	C168	C	0.874684	0.389052	0.176143
	C169	C	0.112380	0.617877	0.174004
	C170	C	0.112560	0.388422	0.822967
	C171	C	0.874909	0.617024	0.821210
	C172	C	0.170397	0.885407	0.383529
	C173	C	0.171286	0.121881	0.615304
	C174	C	0.819456	0.121923	0.383507
	C175	C	0.818480	0.882639	0.613788
	C176	C	0.380740	0.180154	0.878484
	C177	C	0.610469	0.179799	0.118543
	C178	C	0.380610	0.824947	0.119575
	C179	C	0.609959	0.825673	0.879945
	C180	C	0.380214	0.883694	0.175381
	C181	C	0.611184	0.120135	0.173959
	C182	C	0.380606	0.121476	0.821680
	C183	C	0.610817	0.884330	0.823506
	C184	C	0.876372	0.179921	0.384064
	C185	C	0.114308	0.179584	0.615075
	C186	C	0.114115	0.827166	0.383694
	C187	C	0.874787	0.824720	0.613488
	C188	C	0.171574	0.389100	0.879023
	C189	C	0.171761	0.617435	0.118108
	C190	C	0.816706	0.388990	0.118695
	C191	C	0.817357	0.617254	0.878999
	C192	C	0.395659	0.095958	0.597912
	C193	C	0.594570	0.907905	0.598028
	C194	C	0.595814	0.096219	0.398584
	C195	C	0.393767	0.908112	0.399088
	C196	C	0.593384	0.403117	0.094477
	C197	C	0.593180	0.602675	0.903764
	C198	C	0.395411	0.601640	0.093534
	C199	C	0.395483	0.403593	0.903460
	C200	C	0.088911	0.603680	0.398983
	C201	C	0.900167	0.601870	0.596990
	C202	C	0.089258	0.403030	0.599035
	C203	C	0.900204	0.403326	0.400761
	C204	C	0.893258	0.598033	0.098351
	C205	C	0.094305	0.409104	0.097959
	C206	C	0.093680	0.596901	0.899843
	C207	C	0.893188	0.408557	0.899492
	C208	C	0.093355	0.903306	0.594197
	C209	C	0.095351	0.103725	0.404359
	C210	C	0.896172	0.101351	0.594456
	C211	C	0.895896	0.903927	0.403216
	C212	C	0.590259	0.104324	0.898849
	C213	C	0.401264	0.101771	0.097256
	C214	C	0.590301	0.901569	0.098990
	C215	C	0.401352	0.903942	0.900839
	Zn216	Zn	0.496219	0.002214	0.748753
	Zn217	Zn	0.495671	0.002066	0.248268
	Zn218	Zn	0.743186	0.503235	-0.001018
	Zn219	Zn	0.245247	0.503377	-0.001660
	Zn220	Zn	-0.005791	0.753455	0.498395
	Zn221	Zn	-0.005020	0.252931	0.499463
	Zn222	Zn	-0.005882	0.502458	0.748640
	Zn223	Zn	-0.005655	0.503004	0.248716
	Zn224	Zn	0.494638	0.752421	-0.000805
	Zn225	Zn	0.495604	0.253228	-0.001228
	Zn226	Zn	0.745863	0.002327	0.498490
	Zn227	Zn	0.244094	0.002872	0.499734
	N228	N	0.409233	0.964849	0.677964
	N229	N	0.580327	0.039661	0.675532
	N230	N	0.579320	0.964432	0.321948
	N231	N	0.409650	0.039545	0.319911
	N232	N	0.671157	0.418614	0.961611
	N233	N	0.671804	0.588447	0.036192
	N234	N	0.317001	0.588431	0.961159
	N235	N	0.317022	0.418160	0.036036
	N236	N	0.957874	0.682845	0.411541
	N237	N	0.031136	0.682173	0.585030
	N238	N	0.958188	0.322562	0.586796
	N239	N	0.031577	0.324815	0.413318
	N240	N	0.956674	0.417606	0.676436
	N241	N	0.032125	0.586879	0.675525
	N242	N	0.956667	0.587680	0.321244
	N243	N	0.032044	0.418807	0.321640
	N244	N	0.407504	0.682349	0.961915
	N245	N	0.579103	0.679946	0.036480
	N246	N	0.580499	0.325302	0.961955
	N247	N	0.408021	0.323243	0.035488
	N248	N	0.674997	0.965583	0.411846
	N249	N	0.674334	0.038945	0.584357
	N250	N	0.315160	0.965608	0.585797
	N251	N	0.316344	0.039800	0.413303
	N252	N	0.907896	0.466597	0.177638
	N253	N	0.078513	0.540553	0.175481
	N254	N	0.078745	0.465440	0.821651
	N255	N	0.907993	0.539688	0.819802
	N256	N	0.171378	0.918706	0.461600
	N257	N	0.173099	0.088776	0.537227
	N258	N	0.818100	0.087615	0.461573
	N259	N	0.817727	0.917192	0.536035
	N260	N	0.458475	0.182769	0.911717
	N261	N	0.532465	0.182064	0.085406
	N262	N	0.458407	0.822713	0.086367
	N263	N	0.532092	0.823790	0.913279
	N264	N	0.457942	0.917288	0.176498
	N265	N	0.533690	0.086196	0.174930
	N266	N	0.458465	0.088448	0.820091
	N267	N	0.533506	0.918196	0.822280
	N268	N	0.909155	0.181403	0.462349
	N269	N	0.081076	0.181695	0.536891
	N270	N	0.080919	0.824581	0.462051
	N271	N	0.908343	0.823918	0.535286
	N272	N	0.173761	0.466575	0.912085
	N273	N	0.174126	0.539851	0.085309
	N274	N	0.814728	0.466430	0.085128
	N275	N	0.815091	0.539750	0.912853
	O276	O	0.402856	0.462184	0.524364
	H277	H	0.406747	0.463638	0.524926
	H278	H	0.394402	0.454595	0.525968
	O279	O	0.479903	0.531289	0.477066
	H280	H	0.482103	0.529992	0.478368
	H281	H	0.479434	0.526632	0.482264
	O282	O	0.577276	0.484088	0.463080
	H283	H	0.572670	0.483627	0.452484
	H284	H	0.573424	0.479332	0.455126
	O285	O	0.105807	1.057462	0.970917
	H286	H	0.105854	1.047740	0.985301
	H287	H	0.111083	1.070097	0.983142
	O288	O	0.458351	0.446319	0.561705
	H289	H	0.463662	0.434925	0.564933
	H290	H	0.453399	0.446018	0.566604
	O291	O	0.049386	-0.014481	1.019421
	H292	H	0.058549	-0.017502	1.018595
	H293	H	0.052853	-0.016435	1.017733
	O294	O	0.547056	0.509362	0.550382
	H295	H	0.546244	0.512609	0.560401
	H296	H	0.547820	0.514182	0.545678
	O297	O	0.523209	0.599077	0.540345
	H298	H	0.528434	0.609913	0.538245
	H299	H	0.516725	0.595850	0.543909
	O300	O	0.430290	0.491678	0.525465
	H301	H	0.428982	0.493815	0.531844
	H302	H	0.435057	0.490229	0.530953
	O303	O	0.550873	0.462292	0.477407
	H304	H	0.557443	0.459428	0.483564
	H305	H	0.543993	0.463298	0.470910
	O306	O	1.105676	0.026462	0.991727
	H307	H	1.112376	0.015018	0.985726
	H308	H	1.099784	0.028898	0.990341
	O309	O	0.468490	0.516138	0.478927
	H310	H	0.462367	0.521379	0.481451
	H311	H	0.464246	0.503979	0.482765
	O312	O	0.482131	0.425175	0.483769
	H313	H	0.476839	0.424378	0.488738
	H314	H	0.487114	0.413694	0.469565
	O315	O	1.043664	-0.014586	0.902141
	H316	H	1.044327	-0.008935	0.896302
	H317	H	1.049596	-0.016725	0.894252
	O318	O	0.056764	0.012498	-0.060951
	H319	H	0.053857	0.016978	-0.067014
	H320	H	0.048748	0.023738	-0.057769
	O321	O	0.575879	0.476819	0.528524
	H322	H	0.575995	0.478482	0.519099
	H323	H	0.572748	0.478033	0.539839
	O324	O	1.040744	0.024563	-0.065020
	H325	H	1.041126	0.024676	-0.065363
	H326	H	1.045711	0.018970	-0.066147
	O327	O	1.056230	1.037945	-0.021338
	H328	H	1.061993	1.028546	-0.025678
	H329	H	1.047945	1.034499	-0.027150
	O330	O	0.444743	0.434391	0.559986
	H331	H	0.449389	0.437717	0.560340
	H332	H	0.443508	0.431141	0.560389
	O333	O	0.462497	0.477663	0.517838
	H334	H	0.456361	0.480481	0.516512
	H335	H	0.465777	0.486438	0.512941
