data_Molecule from HDF5

_cell_length_a		16.307138
_cell_length_b		16.317039
_cell_length_c		16.318749
_cell_angle_alpha	89.604089
_cell_angle_beta	90.060725
_cell_angle_gamma	89.624740
_symmetry_space_group_name_H-M	'P 1'
_symmetry_Int_Tables_number		1

loop_
	_symmetry_equiv_pos_as_xyz
	x,y,z

loop_
	_atom_site_label
	_atom_site_type_symbol
	_atom_site_fract_x
	_atom_site_fract_y
	_atom_site_fract_z
	H0	H	0.402364	0.814781	0.727025
	H1	H	0.605398	0.137861	0.724042
	H2	H	0.607224	0.813669	0.291136
	H3	H	0.397415	0.135563	0.285361
	H4	H	0.723203	0.371704	0.847064
	H5	H	0.721295	0.578891	0.167518
	H6	H	0.281856	0.581243	0.846553
	H7	H	0.286141	0.374006	0.169679
	H8	H	0.843088	0.698754	0.402952
	H9	H	0.165328	0.691129	0.611741
	H10	H	0.841572	0.255979	0.612698
	H11	H	0.162263	0.253167	0.403191
	H12	H	0.842181	0.370493	0.728087
	H13	H	0.164434	0.573732	0.724834
	H14	H	0.843115	0.583212	0.287101
	H15	H	0.163609	0.371387	0.289143
	H16	H	0.396127	0.697763	0.846510
	H17	H	0.605920	0.693810	0.167424
	H18	H	0.607913	0.256636	0.846911
	H19	H	0.400734	0.255814	0.168075
	H20	H	0.722306	0.814260	0.406549
	H21	H	0.720821	0.136912	0.609644
	H22	H	0.286651	0.814306	0.611345
	H23	H	0.282899	0.136916	0.402965
	H24	H	0.898361	0.315919	0.230262
	H25	H	0.105013	0.637023	0.224782
	H26	H	0.106161	0.313445	0.791565
	H27	H	0.898792	0.636492	0.787696
	H28	H	0.220901	0.874524	0.347027
	H29	H	0.220958	0.076808	0.668724
	H30	H	0.783248	0.079793	0.346520
	H31	H	0.785518	0.872626	0.669836
	H32	H	0.341828	0.195939	0.903379
	H33	H	0.663637	0.192997	0.110404
	H34	H	0.340531	0.757210	0.111682
	H35	H	0.663403	0.756373	0.904766
	H36	H	0.342384	0.871108	0.227971
	H37	H	0.664332	0.076842	0.225858
	H38	H	0.342076	0.080585	0.788405
	H39	H	0.664951	0.875266	0.792715
	H40	H	0.896186	0.197503	0.347988
	H41	H	0.103176	0.190036	0.670327
	H42	H	0.107248	0.758353	0.347375
	H43	H	0.904033	0.758622	0.670543
	H44	H	0.223898	0.315511	0.904814
	H45	H	0.219277	0.636619	0.109613
	H46	H	0.785240	0.313647	0.111477
	H47	H	0.783301	0.636679	0.904520
	H48	H	0.418575	0.089261	0.597114
	H49	H	0.589036	0.863921	0.596062
	H50	H	0.583199	0.087852	0.415844
	H51	H	0.410123	0.858246	0.413109
	H52	H	0.590465	0.387516	0.120102
	H53	H	0.594183	0.566034	0.891766
	H54	H	0.410849	0.562593	0.120875
	H55	H	0.412171	0.390398	0.893718
	H56	H	0.117387	0.562567	0.415044
	H57	H	0.888360	0.567424	0.595285
	H58	H	0.117108	0.377300	0.592632
	H59	H	0.888600	0.388712	0.418416
	H60	H	0.114721	0.389820	0.598012
	H61	H	0.888523	0.565644	0.598074
	H62	H	0.119080	0.568449	0.415499
	H63	H	0.887820	0.387242	0.419401
	H64	H	0.413847	0.569509	0.122057
	H65	H	0.590268	0.562218	0.893586
	H66	H	0.590974	0.380375	0.123158
	H67	H	0.414432	0.386345	0.893226
	H68	H	0.595619	0.088921	0.423791
	H69	H	0.599850	0.860054	0.596999
	H70	H	0.406979	0.090374	0.591371
	H71	H	0.418861	0.862238	0.418378
	H72	H	0.912812	0.590006	0.096515
	H73	H	0.100965	0.359735	0.093146
	H74	H	0.091156	0.590520	0.916309
	H75	H	0.910628	0.360959	0.920469
	H76	H	0.084805	0.887454	0.620048
	H77	H	0.086992	0.067059	0.394145
	H78	H	0.901028	0.062647	0.625129
	H79	H	0.911589	0.883887	0.392172
	H80	H	0.620160	0.070906	0.916075
	H81	H	0.391519	0.063302	0.088844
	H82	H	0.617620	0.881879	0.097936
	H83	H	0.388882	0.891314	0.915980
	H84	H	0.617005	0.884502	0.096120
	H85	H	0.388857	0.060257	0.101954
	H86	H	0.618001	0.065326	0.918739
	H87	H	0.385408	0.885304	0.914320
	H88	H	0.917406	0.057930	0.618541
	H89	H	0.094852	0.067825	0.392158
	H90	H	0.096011	0.871704	0.627887
	H91	H	0.910909	0.889904	0.394690
	H92	H	0.090348	0.590586	0.915513
	H93	H	0.093705	0.357238	0.107774
	H94	H	0.909672	0.590516	0.095064
	H95	H	0.911190	0.358548	0.915623
	H96	H	0.408329	0.094478	0.603759
	H97	H	0.592501	0.859749	0.605927
	H98	H	0.595703	0.093575	0.409277
	H99	H	0.409373	0.861280	0.423596
	H100	H	0.596811	0.384559	0.122954
	H101	H	0.588847	0.567951	0.892693
	H102	H	0.406563	0.567687	0.123634
	H103	H	0.410267	0.386126	0.892021
	H104	H	0.117676	0.565223	0.420538
	H105	H	0.887412	0.569423	0.597842
	H106	H	0.120593	0.380204	0.605787
	H107	H	0.890102	0.388589	0.420642
	H108	H	0.910279	0.590775	0.098458
	H109	H	0.085465	0.364386	0.095459
	H110	H	0.090348	0.590132	0.916415
	H111	H	0.915090	0.361617	0.917909
	H112	H	0.104761	0.890084	0.624980
	H113	H	0.092043	0.060999	0.393964
	H114	H	0.914265	0.074585	0.625284
	H115	H	0.916444	0.887111	0.394253
	H116	H	0.619101	0.065294	0.912353
	H117	H	0.385802	0.072685	0.097462
	H118	H	0.616952	0.884657	0.099761
	H119	H	0.388500	0.885624	0.920678
	C120	C	0.381430	-0.015342	0.629175
	C121	C	0.624225	0.967644	0.629411
	C122	C	0.624012	-0.016276	0.386320
	C123	C	0.381039	0.966903	0.385884
	C124	C	0.624698	0.353406	0.015973
	C125	C	0.622909	0.596545	0.998860
	C126	C	0.378916	0.598896	0.015864
	C127	C	0.381733	0.355583	0.999389
	C128	C	0.011990	0.598226	0.385552
	C129	C	0.994903	0.596101	0.628233
	C130	C	0.010998	0.352214	0.630195
	C131	C	0.994327	0.354948	0.387236
	C132	C	0.880774	0.483969	0.128979
	C133	C	0.123330	0.467229	0.128811
	C134	C	0.123375	0.483962	0.886130
	C135	C	0.880470	0.466613	0.885962
	C136	C	0.125909	0.853138	0.517732
	C137	C	0.122278	0.095688	0.499861
	C138	C	0.879613	0.097464	0.516618
	C139	C	0.882357	0.854903	0.500185
	C140	C	0.511980	0.098812	0.884806
	C141	C	0.494935	0.095818	0.127710
	C142	C	0.510793	0.853018	0.129227
	C143	C	0.494242	0.855260	0.886391
	C144	C	0.382464	0.863257	0.688215
	C145	C	0.623999	0.089351	0.685950
	C146	C	0.625403	0.862105	0.329570
	C147	C	0.378897	0.087515	0.325240
	C148	C	0.683489	0.353066	0.895097
	C149	C	0.682102	0.597648	0.119244
	C150	C	0.320305	0.600432	0.894967
	C151	C	0.324508	0.354372	0.120994
	C152	C	0.891349	0.658792	0.384526
	C153	C	0.116821	0.652299	0.629727
	C154	C	0.890024	0.294777	0.631348
	C155	C	0.114536	0.293846	0.384970
	C156	C	0.890160	0.352040	0.688837
	C157	C	0.116267	0.594009	0.686367
	C158	C	0.891218	0.601550	0.326414
	C159	C	0.115288	0.352859	0.328345
	C160	C	0.377747	0.658013	0.894823
	C161	C	0.624325	0.654740	0.119399
	C162	C	0.626111	0.295758	0.895007
	C163	C	0.381504	0.295621	0.120186
	C164	C	0.682849	0.862471	0.387006
	C165	C	0.681650	0.088748	0.628803
	C166	C	0.324927	0.862853	0.630308
	C167	C	0.321740	0.088213	0.383830
	C168	C	0.879780	0.363564	0.189678
	C169	C	0.123696	0.588560	0.186181
	C170	C	0.125258	0.362288	0.829435
	C171	C	0.879563	0.588056	0.826782
	C172	C	0.183204	0.854138	0.395721
	C173	C	0.181144	0.095670	0.621031
	C174	C	0.821687	0.098804	0.395205
	C175	C	0.824675	0.853918	0.621537
	C176	C	0.390373	0.156897	0.884469
	C177	C	0.615738	0.153569	0.128812
	C178	C	0.389407	0.795590	0.130132
	C179	C	0.615418	0.796267	0.886113
	C180	C	0.390098	0.852419	0.188154
	C181	C	0.615933	0.095878	0.186626
	C182	C	0.390273	0.099179	0.827354
	C183	C	0.616112	0.855010	0.829974
	C184	C	0.877940	0.157408	0.395793
	C185	C	0.122427	0.151966	0.621711
	C186	C	0.126268	0.796537	0.396033
	C187	C	0.883530	0.797208	0.622015
	C188	C	0.183660	0.363340	0.886258
	C189	C	0.180755	0.588494	0.128782
	C190	C	0.823431	0.362437	0.130594
	C191	C	0.822331	0.588385	0.885046
	C192	C	0.404404	0.069253	0.604485
	C193	C	0.600700	0.883181	0.606404
	C194	C	0.598880	0.068130	0.409572
	C195	C	0.405721	0.882616	0.410806
	C196	C	0.600049	0.377321	0.099993
	C197	C	0.598248	0.572418	0.914584
	C198	C	0.403377	0.573870	0.100146
	C199	C	0.405384	0.380326	0.914933
	C200	C	0.096172	0.572791	0.410066
	C201	C	0.910100	0.573878	0.604242
	C202	C	0.095663	0.375659	0.605861
	C203	C	0.910463	0.380697	0.412154
	C204	C	0.904073	0.568421	0.104108
	C205	C	0.100010	0.382615	0.105694
	C206	C	0.097981	0.568420	0.909433
	C207	C	0.904994	0.382230	0.910916
	C208	C	0.102204	0.876250	0.602347
	C209	C	0.098147	0.072187	0.415397
	C210	C	0.903846	0.072379	0.600921
	C211	C	0.906079	0.879786	0.415666
	C212	C	0.596875	0.074431	0.908684
	C213	C	0.410662	0.072031	0.103284
	C214	C	0.595169	0.876728	0.104890
	C215	C	0.409618	0.880161	0.910176
	Zn216	Zn	0.503295	-0.023323	0.757954
	Zn217	Zn	0.503279	-0.025748	0.257385
	Zn218	Zn	0.752040	0.475652	0.007500
	Zn219	Zn	0.251498	0.476393	0.007919
	Zn220	Zn	0.004289	0.725940	0.508325
	Zn221	Zn	0.002165	0.224862	0.508351
	Zn222	Zn	0.002497	0.474514	0.757392
	Zn223	Zn	0.002928	0.476005	0.257399
	Zn224	Zn	0.501955	0.725833	0.006981
	Zn225	Zn	0.503194	0.225754	0.006951
	Zn226	Zn	0.752145	-0.024581	0.507709
	Zn227	Zn	0.252531	-0.024090	0.507950
	N228	N	0.416893	0.940068	0.687756
	N229	N	0.588915	0.013027	0.686455
	N230	N	0.589524	0.938624	0.328978
	N231	N	0.414957	0.011064	0.326329
	N232	N	0.682820	0.388254	0.971419
	N233	N	0.681121	0.562021	0.043230
	N234	N	0.320815	0.564512	0.971313
	N235	N	0.324704	0.391036	0.044913
	N236	N	0.967686	0.656989	0.420669
	N237	N	0.040340	0.653934	0.594274
	N238	N	0.966389	0.294590	0.595938
	N239	N	0.038351	0.295192	0.421014
	N240	N	0.966600	0.387037	0.688301
	N241	N	0.039446	0.559739	0.685575
	N242	N	0.967107	0.564652	0.326858
	N243	N	0.039538	0.390266	0.329830
	N244	N	0.413461	0.657382	0.971220
	N245	N	0.588141	0.654073	0.043421
	N246	N	0.590135	0.295862	0.971099
	N247	N	0.416317	0.296304	0.043483
	N248	N	0.682129	0.939156	0.421430
	N249	N	0.682084	0.012065	0.594532
	N250	N	0.324328	0.939302	0.594269
	N251	N	0.323190	0.012377	0.421079
	N252	N	0.914649	0.440075	0.188889
	N253	N	0.088573	0.512165	0.186235
	N254	N	0.088454	0.438205	0.829333
	N255	N	0.914811	0.511207	0.827018
	N256	N	0.183160	0.888688	0.472366
	N257	N	0.181188	0.061430	0.544359
	N258	N	0.822307	0.062524	0.471424
	N259	N	0.823988	0.889080	0.544696
	N260	N	0.467189	0.156887	0.919278
	N261	N	0.539498	0.153557	0.092884
	N262	N	0.465644	0.795882	0.094103
	N263	N	0.538363	0.796177	0.920294
	N264	N	0.466522	0.887331	0.187847
	N265	N	0.539613	0.060544	0.186088
	N266	N	0.467133	0.063973	0.827322
	N267	N	0.539777	0.891119	0.830235
	N268	N	0.913231	0.156714	0.472402
	N269	N	0.086822	0.152109	0.545265
	N270	N	0.091754	0.795554	0.472891
	N271	N	0.918851	0.797808	0.545526
	N272	N	0.182557	0.440088	0.920710
	N273	N	0.180704	0.512077	0.093762
	N274	N	0.823825	0.438422	0.093740
	N275	N	0.822574	0.511944	0.920775
	O276	O	0.370594	0.384200	0.500736
	H277	H	0.363694	0.386100	0.500973
	H278	H	0.382295	0.378886	0.523711
	O279	O	0.588101	0.302768	0.406642
	H280	H	0.592073	0.298975	0.391313
	H281	H	0.574303	0.295613	0.398787
	O282	O	0.704000	0.428161	0.495675
	H283	H	0.694283	0.436724	0.492714
	H284	H	0.715751	0.399377	0.501566
	O285	O	0.629780	0.427777	0.476312
	H286	H	0.640603	0.424459	0.496615
	H287	H	0.654215	0.431471	0.455190
	O288	O	1.053137	0.933850	0.974648
	H289	H	1.057453	0.925442	0.981465
	H290	H	1.035805	0.932503	0.980820
	O291	O	-0.102837	0.943486	0.068353
	H292	H	-0.112322	0.941872	0.062141
	H293	H	-0.106875	0.951187	0.079497
	O294	O	0.648841	0.554609	0.559396
	H295	H	0.654351	0.557960	0.558463
	H296	H	0.652271	0.563096	0.553003
	O297	O	0.574618	0.594814	0.390282
	H298	H	0.582550	0.590045	0.394227
	H299	H	0.572965	0.600462	0.385592
	O300	O	0.562400	0.414894	0.593634
	H301	H	0.573499	0.402385	0.616090
	H302	H	0.563235	0.411234	0.580518
	O303	O	0.441703	0.614576	0.556709
	H304	H	0.438942	0.627733	0.546797
	H305	H	0.445086	0.606636	0.552147
	O306	O	0.048717	0.933833	0.952257
	H307	H	0.042839	0.918644	0.966026
	H308	H	0.058475	0.930165	0.952478
	O309	O	0.399067	0.451381	0.376203
	H310	H	0.386355	0.467887	0.378056
	H311	H	0.396908	0.460284	0.395885
	O312	O	0.111354	0.078100	0.141285
	H313	H	0.127299	0.065425	0.155555
	H314	H	0.115115	0.088544	0.134524
	O315	O	0.657079	0.665072	0.647771
	H316	H	0.665190	0.657942	0.648798
	H317	H	0.648750	0.659825	0.640619
	O318	O	0.486104	1.348947	1.386838
	H319	H	0.470337	1.337086	1.381964
	H320	H	0.484951	1.364983	1.387191
	O321	O	0.390656	0.318136	0.696255
	H322	H	0.397381	0.325005	0.690162
	H323	H	0.387285	0.310352	0.719989
	O324	O	-0.079875	0.883828	0.106241
	H325	H	-0.078586	0.864019	0.112163
	H326	H	-0.092237	0.892954	0.099686
	O327	O	0.634861	0.393700	0.524084
	H328	H	0.633130	0.393763	0.518383
	H329	H	0.638883	0.372623	0.525365
	O330	O	-0.002981	0.073315	0.904528
	H331	H	-0.003195	0.078192	0.902295
	H332	H	0.002062	0.078144	0.906590
	O333	O	-0.660017	0.573535	0.394989
	H334	H	-0.666021	0.572624	0.398212
	H335	H	-0.670753	0.559252	0.395358
	O336	O	0.483389	0.374855	0.428196
	H337	H	0.462883	0.366584	0.429925
	H338	H	0.483748	0.367816	0.423952
	O339	O	1.030306	-0.055189	0.088828
	H340	H	1.025502	-0.074199	0.087675
	H341	H	1.025306	-0.052792	0.081688
	O342	O	0.017242	0.045145	-0.103921
	H343	H	0.020147	0.035898	-0.098990
	H344	H	0.007573	0.048227	-0.109504
	O345	O	0.868958	-0.130069	1.148378
	H346	H	0.858547	-0.151947	1.152269
	H347	H	0.875609	-0.122612	1.139667
	O348	O	1.098328	1.063408	-0.003356
	H349	H	1.097416	1.063752	-0.003628
	H350	H	1.104339	1.051312	-0.012569
	O351	O	0.300100	0.313420	0.604776
	H352	H	0.291036	0.320033	0.615581
	H353	H	0.306283	0.312508	0.626258
	O354	O	0.883136	0.075873	0.930092
	H355	H	0.882642	0.081707	0.924929
	H356	H	0.878722	0.081070	0.924744
	O357	O	0.473570	0.651854	0.686598
	H358	H	0.475965	0.662887	0.700073
	H359	H	0.495089	0.643004	0.678397
	O360	O	0.594848	0.471728	0.398964
	H361	H	0.609487	0.478149	0.393750
	H362	H	0.584658	0.466779	0.392988
	O363	O	0.396889	1.576497	0.497328
	H364	H	0.370546	1.590615	0.492576
	H365	H	0.395905	1.553565	0.512206
	O366	O	1.076658	0.893057	0.038522
	H367	H	1.082059	0.902805	0.041996
	H368	H	1.073328	0.894543	0.058556
	O369	O	-0.131532	0.965397	-0.009610
	H370	H	-0.122345	0.970232	-0.020959
	H371	H	-0.138312	0.962618	-0.007674
	O372	O	0.394518	0.631719	0.326255
	H373	H	0.373901	0.641011	0.334406
	H374	H	0.388962	0.643043	0.314953
	O375	O	0.367813	0.423445	0.682155
	H376	H	0.374420	0.430671	0.684004
	H377	H	0.388628	0.429675	0.690681
	O378	O	0.479811	0.518874	-0.480880
	H379	H	0.483067	0.521710	-0.460902
	H380	H	0.489217	0.521704	-0.500082
	O381	O	0.878260	-0.019554	-0.084617
	H382	H	0.890228	-0.028908	-0.068562
	H383	H	0.875492	-0.014446	-0.084016
	O384	O	0.999389	0.870481	0.130236
	H385	H	1.000087	0.873462	0.144808
	H386	H	0.999765	0.878979	0.118776
	O387	O	0.018336	0.129541	0.154555
	H388	H	0.031651	0.132264	0.153615
	H389	H	0.016276	0.142118	0.158607
	O390	O	0.057707	0.849653	-0.106895
	H391	H	0.052928	0.855884	-0.120111
	H392	H	0.076245	0.835336	-0.106600
	O393	O	0.922226	0.961165	0.952158
	H394	H	0.928036	0.972452	0.948607
	H395	H	0.928781	0.956052	0.955391
	O396	O	0.619410	0.378794	0.517537
	H397	H	0.621013	0.369712	0.518581
	H398	H	0.621338	0.390346	0.516305
	O399	O	0.042770	1.001823	1.018874
	H400	H	0.051396	1.006335	1.016983
	H401	H	0.036214	0.994343	1.030692
	O402	O	0.104705	0.931497	1.043919
	H403	H	0.101683	0.944304	1.044499
	H404	H	0.103883	0.922710	1.044477
	O405	O	1.025796	1.038917	0.048006
	H406	H	1.026685	1.037195	0.043550
	H407	H	1.028161	1.031958	0.050466
	O408	O	1.092670	0.844204	-0.001891
	H409	H	1.080656	0.846717	-0.008134
	H410	H	1.084978	0.865270	-0.008235
	O411	O	1.089761	0.053039	0.830497
	H412	H	1.087952	0.067145	0.822347
	H413	H	1.105294	0.051770	0.832845
	O414	O	0.573891	0.563091	0.366226
	H415	H	0.580660	0.564929	0.366144
	H416	H	0.571983	0.573407	0.359481
	O417	O	0.547799	0.502899	0.703332
	H418	H	0.555608	0.490540	0.700710
	H419	H	0.548289	0.509459	0.708635
