data_Molecule from HDF5

_cell_length_a		16.330453
_cell_length_b		16.234645
_cell_length_c		16.265741
_cell_angle_alpha	90.103566
_cell_angle_beta	89.958381
_cell_angle_gamma	89.807561
_symmetry_space_group_name_H-M	'P 1'
_symmetry_Int_Tables_number		1

loop_
	_symmetry_equiv_pos_as_xyz
	x,y,z

loop_
	_atom_site_label
	_atom_site_type_symbol
	_atom_site_fract_x
	_atom_site_fract_y
	_atom_site_fract_z
	H0	H	0.402345	0.840259	0.717312
	H1	H	0.598697	0.167625	0.717311
	H2	H	0.598748	0.839876	0.289329
	H3	H	0.402279	0.168392	0.289966
	H4	H	0.717677	0.403288	0.839162
	H5	H	0.715866	0.603822	0.165306
	H6	H	0.286705	0.604714	0.839204
	H7	H	0.285423	0.404254	0.165114
	H8	H	0.839123	0.718631	0.404324
	H9	H	0.165393	0.717107	0.600242
	H10	H	0.837669	0.290935	0.600487
	H11	H	0.165215	0.287712	0.404565
	H12	H	0.838984	0.405714	0.717350
	H13	H	0.164663	0.602405	0.718076
	H14	H	0.838524	0.602775	0.288222
	H15	H	0.165391	0.402827	0.286909
	H16	H	0.403661	0.718513	0.839422
	H17	H	0.599252	0.717204	0.166378
	H18	H	0.599762	0.289014	0.839050
	H19	H	0.405131	0.291695	0.166801
	H20	H	0.716024	0.840377	0.402994
	H21	H	0.715803	0.166904	0.603489
	H22	H	0.286260	0.840237	0.602686
	H23	H	0.284420	0.167261	0.403812
	H24	H	0.904262	0.340085	0.215904
	H25	H	0.099631	0.667731	0.216659
	H26	H	0.100572	0.339665	0.787727
	H27	H	0.903768	0.668276	0.788214
	H28	H	0.217039	0.903335	0.339650
	H29	H	0.215150	0.103590	0.666145
	H30	H	0.784920	0.103703	0.339749
	H31	H	0.787118	0.906067	0.666591
	H32	H	0.338550	0.217946	0.905885
	H33	H	0.664918	0.218441	0.102279
	H34	H	0.337595	0.791360	0.100233
	H35	H	0.664469	0.789192	0.904204
	H36	H	0.338200	0.906981	0.217358
	H37	H	0.664814	0.102399	0.218270
	H38	H	0.338751	0.103744	0.787603
	H39	H	0.663846	0.903239	0.786839
	H40	H	0.902461	0.217865	0.338355
	H41	H	0.097771	0.217147	0.667143
	H42	H	0.098908	0.790075	0.338440
	H43	H	0.904125	0.790232	0.666568
	H44	H	0.217242	0.340100	0.902505
	H45	H	0.215038	0.667776	0.100667
	H46	H	0.787762	0.340354	0.100657
	H47	H	0.786255	0.668024	0.903782
	H48	H	0.408420	0.120294	0.594840
	H49	H	0.588742	0.888572	0.595431
	H50	H	0.595366	0.120866	0.412836
	H51	H	0.400853	0.885213	0.409433
	H52	H	0.582485	0.420437	0.112886
	H53	H	0.587705	0.597163	0.887354
	H54	H	0.401000	0.595983	0.121043
	H55	H	0.403818	0.412821	0.884964
	H56	H	0.113693	0.586445	0.413423
	H57	H	0.885650	0.598046	0.594869
	H58	H	0.120152	0.402923	0.594626
	H59	H	0.884362	0.402161	0.412879
	H60	H	0.114853	0.413082	0.588903
	H61	H	0.886840	0.594989	0.593783
	H62	H	0.121960	0.596320	0.398147
	H63	H	0.889696	0.418194	0.413857
	H64	H	0.410569	0.591362	0.116662
	H65	H	0.597564	0.601225	0.883240
	H66	H	0.592593	0.395482	0.123091
	H67	H	0.412014	0.413694	0.887710
	H68	H	0.593394	0.122109	0.408471
	H69	H	0.598555	0.887842	0.589366
	H70	H	0.407429	0.119825	0.593631
	H71	H	0.411797	0.886128	0.403398
	H72	H	0.911037	0.618756	0.088384
	H73	H	0.106146	0.386148	0.084560
	H74	H	0.093586	0.618519	0.915459
	H75	H	0.903516	0.386040	0.912471
	H76	H	0.097372	0.904820	0.621829
	H77	H	0.088909	0.092511	0.388621
	H78	H	0.904286	0.100679	0.621339
	H79	H	0.898730	0.907807	0.382653
	H80	H	0.622048	0.102802	0.903534
	H81	H	0.386672	0.094227	0.095631
	H82	H	0.617741	0.907787	0.091626
	H83	H	0.388900	0.917357	0.915448
	H84	H	0.616853	0.914990	0.098157
	H85	H	0.384488	0.098267	0.100497
	H86	H	0.614924	0.097095	0.920938
	H87	H	0.383184	0.913818	0.900972
	H88	H	0.905260	0.093122	0.618819
	H89	H	0.093136	0.099518	0.385818
	H90	H	0.097341	0.915861	0.618812
	H91	H	0.908382	0.919654	0.388469
	H92	H	0.099439	0.622672	0.908013
	H93	H	0.097130	0.382299	0.107737
	H94	H	0.898872	0.624180	0.095878
	H95	H	0.909926	0.386638	0.904113
	H96	H	0.406954	0.121129	0.595004
	H97	H	0.597713	0.883906	0.599807
	H98	H	0.590551	0.120082	0.412278
	H99	H	0.411125	0.889303	0.415473
	H100	H	0.609913	0.418439	0.121789
	H101	H	0.597148	0.590170	0.886381
	H102	H	0.410140	0.602933	0.120505
	H103	H	0.409421	0.405831	0.884042
	H104	H	0.119377	0.605860	0.415737
	H105	H	0.885563	0.595228	0.596640
	H106	H	0.118713	0.414363	0.601612
	H107	H	0.884123	0.412302	0.399424
	H108	H	0.912026	0.622057	0.102962
	H109	H	0.081994	0.392558	0.090120
	H110	H	0.089466	0.620018	0.906613
	H111	H	0.913370	0.389569	0.913771
	H112	H	0.088051	0.909512	0.618523
	H113	H	0.096988	0.091386	0.386542
	H114	H	0.911338	0.098105	0.618196
	H115	H	0.914693	0.904502	0.385918
	H116	H	0.616002	0.084817	0.906178
	H117	H	0.385432	0.100319	0.093903
	H118	H	0.620413	0.906732	0.100899
	H119	H	0.383661	0.902392	0.912235
	C120	C	0.379572	0.012331	0.623880
	C121	C	0.622762	0.995119	0.624034
	C122	C	0.622157	0.012465	0.382191
	C123	C	0.378563	0.995154	0.381025
	C124	C	0.623675	0.382560	0.011110
	C125	C	0.622402	0.624962	0.993817
	C126	C	0.379093	0.625977	0.011321
	C127	C	0.380185	0.382687	0.993845
	C128	C	0.010596	0.625038	0.380598
	C129	C	0.993567	0.625009	0.623986
	C130	C	0.010010	0.381818	0.624007
	C131	C	0.993796	0.380910	0.379899
	C132	C	0.879931	0.512924	0.123894
	C133	C	0.123423	0.495242	0.123627
	C134	C	0.123234	0.512059	0.880815
	C135	C	0.880241	0.495826	0.881342
	C136	C	0.122778	0.881560	0.511099
	C137	C	0.121804	0.123964	0.494791
	C138	C	0.878745	0.125845	0.511098
	C139	C	0.879325	0.882358	0.494135
	C140	C	0.509988	0.124685	0.881491
	C141	C	0.493405	0.126041	0.125409
	C142	C	0.510100	0.882206	0.124801
	C143	C	0.492872	0.881744	0.880724
	C144	C	0.382203	0.889122	0.679383
	C145	C	0.619417	0.118709	0.679278
	C146	C	0.619856	0.889147	0.326612
	C147	C	0.381208	0.118973	0.326609
	C148	C	0.679364	0.383621	0.888033
	C149	C	0.677656	0.623318	0.116821
	C150	C	0.324869	0.623952	0.887935
	C151	C	0.324673	0.384979	0.116843
	C152	C	0.887796	0.680822	0.383211
	C153	C	0.116492	0.679988	0.621469
	C154	C	0.887076	0.327591	0.621425
	C155	C	0.116380	0.325251	0.383260
	C156	C	0.887530	0.384791	0.679427
	C157	C	0.116334	0.622501	0.679303
	C158	C	0.887588	0.623109	0.325711
	C159	C	0.116443	0.382484	0.324638
	C160	C	0.382679	0.680996	0.888262
	C161	C	0.619494	0.679657	0.117314
	C162	C	0.620999	0.326983	0.887771
	C163	C	0.383367	0.328254	0.117391
	C164	C	0.677720	0.889254	0.383555
	C165	C	0.677865	0.118265	0.623027
	C166	C	0.324533	0.888988	0.622247
	C167	C	0.322904	0.118517	0.383384
	C168	C	0.883206	0.389109	0.178442
	C169	C	0.120129	0.618839	0.178748
	C170	C	0.121044	0.388511	0.825699
	C171	C	0.882769	0.619265	0.825876
	C172	C	0.178870	0.883132	0.388340
	C173	C	0.176896	0.122841	0.617545
	C174	C	0.823135	0.123887	0.388234
	C175	C	0.824927	0.885299	0.617593
	C176	C	0.387375	0.180372	0.884788
	C177	C	0.616149	0.180510	0.122741
	C178	C	0.386764	0.828362	0.121356
	C179	C	0.615603	0.826766	0.883405
	C180	C	0.386925	0.885877	0.179373
	C181	C	0.615873	0.123333	0.180924
	C182	C	0.387371	0.123504	0.826217
	C183	C	0.615321	0.883825	0.825198
	C184	C	0.881166	0.180791	0.387654
	C185	C	0.118562	0.179262	0.618139
	C186	C	0.119992	0.827132	0.387600
	C187	C	0.883023	0.827842	0.617716
	C188	C	0.179221	0.388969	0.882332
	C189	C	0.177445	0.618906	0.121202
	C190	C	0.825231	0.389269	0.121519
	C191	C	0.824758	0.619198	0.883480
	C192	C	0.401225	0.098217	0.601301
	C193	C	0.601283	0.909173	0.601788
	C194	C	0.599692	0.098750	0.404631
	C195	C	0.401076	0.909207	0.403040
	C196	C	0.601656	0.404808	0.096995
	C197	C	0.600490	0.602835	0.907893
	C198	C	0.400761	0.603445	0.097257
	C199	C	0.401976	0.404359	0.907780
	C200	C	0.096214	0.602719	0.402633
	C201	C	0.908162	0.602695	0.601558
	C202	C	0.095770	0.403829	0.601686
	C203	C	0.908219	0.404047	0.402270
	C204	C	0.901117	0.599216	0.102175
	C205	C	0.101605	0.409321	0.100941
	C206	C	0.100727	0.598171	0.903228
	C207	C	0.902588	0.409607	0.903534
	C208	C	0.100983	0.903799	0.597464
	C209	C	0.099535	0.101215	0.409093
	C210	C	0.900554	0.103843	0.597099
	C211	C	0.900776	0.904248	0.407853
	C212	C	0.595627	0.101564	0.903621
	C213	C	0.407602	0.104158	0.103168
	C214	C	0.596055	0.903506	0.103327
	C215	C	0.407259	0.904418	0.902978
	Zn216	Zn	0.500989	0.003863	0.752021
	Zn217	Zn	0.501521	0.004443	0.253485
	Zn218	Zn	0.751445	0.504352	0.002563
	Zn219	Zn	0.251367	0.504023	0.001803
	Zn220	Zn	0.001714	0.753657	0.502574
	Zn221	Zn	0.001078	0.252722	0.502640
	Zn222	Zn	0.001987	0.503580	0.752914
	Zn223	Zn	0.002150	0.503710	0.251705
	Zn224	Zn	0.501735	0.753287	0.003031
	Zn225	Zn	0.502309	0.253986	0.002884
	Zn226	Zn	0.750928	0.004152	0.502701
	Zn227	Zn	0.250970	0.003365	0.503255
	N228	N	0.415838	0.966527	0.680392
	N229	N	0.585933	0.041171	0.680106
	N230	N	0.585973	0.966743	0.325814
	N231	N	0.415103	0.041257	0.324959
	N232	N	0.680982	0.417673	0.965606
	N233	N	0.679435	0.589742	0.039221
	N234	N	0.322402	0.590531	0.965512
	N235	N	0.322388	0.417798	0.039032
	N236	N	0.965110	0.681964	0.416744
	N237	N	0.039141	0.681595	0.587615
	N238	N	0.964211	0.325757	0.587580
	N239	N	0.038964	0.323996	0.416706
	N240	N	0.964995	0.417945	0.681069
	N241	N	0.039097	0.589181	0.681139
	N242	N	0.964896	0.589015	0.324121
	N243	N	0.039136	0.416300	0.322492
	N244	N	0.416102	0.682060	0.965840
	N245	N	0.585840	0.680696	0.039763
	N246	N	0.586871	0.326329	0.965037
	N247	N	0.417418	0.326786	0.039901
	N248	N	0.679441	0.967183	0.417185
	N249	N	0.679866	0.040620	0.589013
	N250	N	0.322769	0.966628	0.588452
	N251	N	0.321119	0.040693	0.416390
	N252	N	0.916325	0.466764	0.180088
	N253	N	0.087062	0.540922	0.180185
	N254	N	0.086699	0.466053	0.824819
	N255	N	0.916375	0.541350	0.824387
	N256	N	0.180566	0.916429	0.466135
	N257	N	0.178811	0.088874	0.539942
	N258	N	0.821404	0.090616	0.465906
	N259	N	0.822612	0.918326	0.539777
	N260	N	0.464683	0.180931	0.918600
	N261	N	0.538894	0.182569	0.089201
	N262	N	0.464283	0.825902	0.088063
	N263	N	0.538620	0.825561	0.917402
	N264	N	0.464494	0.918586	0.181708
	N265	N	0.538455	0.090177	0.182393
	N266	N	0.464659	0.089636	0.824135
	N267	N	0.537814	0.917408	0.823312
	N268	N	0.915150	0.182006	0.464971
	N269	N	0.085142	0.180240	0.540618
	N270	N	0.085764	0.826237	0.464942
	N271	N	0.916186	0.825811	0.539971
	N272	N	0.180731	0.466919	0.915647
	N273	N	0.179765	0.541094	0.087662
	N274	N	0.822888	0.467287	0.088421
	N275	N	0.823086	0.541514	0.917098
	O276	O	0.555160	0.455875	0.412947
	H277	H	0.550455	0.469873	0.418738
	H278	H	0.545924	0.454599	0.407000
	O279	O	0.039758	0.095816	0.035184
	H280	H	0.032737	0.092403	0.029284
	H281	H	0.035978	0.099371	0.036568
	O282	O	0.605453	0.488736	0.477933
	H283	H	0.615944	0.501608	0.479525
	H284	H	0.605491	0.485498	0.481915
	O285	O	0.569770	0.463418	0.484199
	H286	H	0.578409	0.461588	0.481080
	H287	H	0.576786	0.461403	0.472260
	O288	O	1.068477	0.102425	0.056220
	H289	H	1.079610	0.103191	0.058893
	H290	H	1.072005	0.101991	0.060272
	O291	O	-0.451815	0.482814	-0.492510
	H292	H	-0.447673	0.484063	-0.493349
	H293	H	-0.442712	0.482555	-0.497847
	O294	O	0.529017	0.442343	0.492365
	H295	H	0.522783	0.434982	0.484660
	H296	H	0.528077	0.436052	0.490551
	O297	O	0.022533	1.071097	0.005310
	H298	H	0.026102	1.068405	0.007636
	H299	H	0.021819	1.064403	0.004813
	O300	O	1.052547	0.071173	1.038524
	H301	H	1.043653	0.073353	1.038740
	H302	H	1.052587	0.081139	1.031802
	O303	O	0.524238	0.547994	0.530518
	H304	H	0.518801	0.540825	0.537476
	H305	H	0.525011	0.530070	0.537251
	O306	O	0.089722	1.042261	1.060601
	H307	H	0.097356	1.050433	1.061898
	H308	H	0.095285	1.039432	1.070016
	O309	O	0.544799	0.540367	0.455698
	H310	H	0.536896	0.539937	0.460924
	H311	H	0.545443	0.553096	0.463988
