data_Molecule from HDF5

_cell_length_a		16.362063
_cell_length_b		16.269265
_cell_length_c		16.106024
_cell_angle_alpha	89.864694
_cell_angle_beta	89.689952
_cell_angle_gamma	90.047261
_symmetry_space_group_name_H-M	'P 1'
_symmetry_Int_Tables_number		1

loop_
	_symmetry_equiv_pos_as_xyz
	x,y,z

loop_
	_atom_site_label
	_atom_site_type_symbol
	_atom_site_fract_x
	_atom_site_fract_y
	_atom_site_fract_z
	H0	H	0.407217	0.842179	0.704543
	H1	H	0.601972	0.171132	0.701403
	H2	H	0.604978	0.842617	0.277605
	H3	H	0.410299	0.170622	0.276040
	H4	H	0.724644	0.403866	0.826795
	H5	H	0.719651	0.606695	0.154321
	H6	H	0.292416	0.606239	0.825988
	H7	H	0.289204	0.403345	0.154702
	H8	H	0.844397	0.724731	0.392618
	H9	H	0.168594	0.725777	0.592240
	H10	H	0.845077	0.290308	0.595498
	H11	H	0.167698	0.290877	0.388733
	H12	H	0.843076	0.410529	0.706702
	H13	H	0.170317	0.605424	0.703798
	H14	H	0.843730	0.608567	0.277027
	H15	H	0.169383	0.410869	0.276516
	H16	H	0.407115	0.720503	0.825485
	H17	H	0.604807	0.719002	0.154218
	H18	H	0.605638	0.294495	0.824295
	H19	H	0.405275	0.289650	0.154012
	H20	H	0.725365	0.845947	0.386696
	H21	H	0.721078	0.170755	0.590064
	H22	H	0.287865	0.844939	0.593351
	H23	H	0.289915	0.170240	0.388252
	H24	H	0.908709	0.344139	0.206865
	H25	H	0.103254	0.672329	0.201993
	H26	H	0.104037	0.342646	0.777681
	H27	H	0.910500	0.671913	0.778744
	H28	H	0.222196	0.907036	0.327495
	H29	H	0.221736	0.109266	0.655449
	H30	H	0.792984	0.109857	0.325855
	H31	H	0.789432	0.908991	0.654787
	H32	H	0.344187	0.223340	0.889851
	H33	H	0.668786	0.222588	0.089239
	H34	H	0.344628	0.788504	0.091647
	H35	H	0.669590	0.790362	0.888510
	H36	H	0.343698	0.906637	0.206270
	H37	H	0.670350	0.102924	0.202599
	H38	H	0.343126	0.104049	0.776268
	H39	H	0.670296	0.910750	0.775482
	H40	H	0.908368	0.223525	0.326457
	H41	H	0.104512	0.222193	0.656272
	H42	H	0.106361	0.794206	0.328027
	H43	H	0.907117	0.796099	0.656906
	H44	H	0.222707	0.343874	0.889919
	H45	H	0.223884	0.669070	0.091442
	H46	H	0.789977	0.344223	0.093352
	H47	H	0.789934	0.669987	0.889615
	H48	H	0.411451	0.123994	0.582757
	H49	H	0.601056	0.890853	0.578819
	H50	H	0.590271	0.120998	0.398776
	H51	H	0.405908	0.886764	0.393447
	H52	H	0.599700	0.410671	0.109097
	H53	H	0.597966	0.599772	0.871233
	H54	H	0.414256	0.599238	0.108390
	H55	H	0.422009	0.418598	0.876144
	H56	H	0.121026	0.599928	0.402416
	H57	H	0.889481	0.601550	0.587344
	H58	H	0.121589	0.420153	0.584526
	H59	H	0.890552	0.414855	0.400108
	H60	H	0.124187	0.411126	0.587980
	H61	H	0.890196	0.604581	0.584647
	H62	H	0.122457	0.600370	0.394625
	H63	H	0.890593	0.415048	0.402363
	H64	H	0.410907	0.596972	0.108547
	H65	H	0.601043	0.597440	0.870478
	H66	H	0.599000	0.417251	0.107503
	H67	H	0.414431	0.406878	0.870418
	H68	H	0.606798	0.123987	0.405085
	H69	H	0.602058	0.889098	0.583119
	H70	H	0.414759	0.123195	0.582484
	H71	H	0.422194	0.893842	0.397518
	H72	H	0.913774	0.625673	0.089292
	H73	H	0.099995	0.389579	0.083775
	H74	H	0.100492	0.620663	0.909069
	H75	H	0.914328	0.389614	0.896364
	H76	H	0.100880	0.921806	0.608589
	H77	H	0.098560	0.092509	0.376508
	H78	H	0.913491	0.098796	0.608008
	H79	H	0.911342	0.916498	0.371635
	H80	H	0.621647	0.100063	0.895488
	H81	H	0.392399	0.097784	0.078876
	H82	H	0.622608	0.907593	0.079385
	H83	H	0.389339	0.914107	0.895493
	H84	H	0.620495	0.915894	0.080196
	H85	H	0.390494	0.095447	0.085329
	H86	H	0.622692	0.101520	0.894589
	H87	H	0.389434	0.908307	0.897624
	H88	H	0.912171	0.100894	0.609080
	H89	H	0.091465	0.104565	0.374272
	H90	H	0.091473	0.918147	0.608138
	H91	H	0.917328	0.919776	0.374964
	H92	H	0.110577	0.627630	0.894972
	H93	H	0.096752	0.390556	0.085161
	H94	H	0.914336	0.621799	0.077606
	H95	H	0.916795	0.392160	0.902485
	H96	H	0.412576	0.122791	0.579898
	H97	H	0.597766	0.891017	0.581678
	H98	H	0.603031	0.128309	0.387543
	H99	H	0.409410	0.892472	0.410138
	H100	H	0.593705	0.413704	0.106306
	H101	H	0.597968	0.595906	0.873176
	H102	H	0.414164	0.595265	0.107258
	H103	H	0.407269	0.421120	0.873084
	H104	H	0.123911	0.606926	0.398482
	H105	H	0.891841	0.601170	0.583168
	H106	H	0.121672	0.412612	0.578017
	H107	H	0.890946	0.417344	0.401285
	H108	H	0.904093	0.626364	0.082023
	H109	H	0.097909	0.390347	0.081482
	H110	H	0.092633	0.622983	0.892001
	H111	H	0.909639	0.390106	0.901972
	H112	H	0.098843	0.913118	0.611373
	H113	H	0.106067	0.103642	0.370015
	H114	H	0.910691	0.098586	0.609273
	H115	H	0.917489	0.912673	0.372301
	H116	H	0.622362	0.101649	0.896474
	H117	H	0.389822	0.101937	0.083229
	H118	H	0.624430	0.911233	0.086932
	H119	H	0.392156	0.912408	0.900823
	C120	C	0.383697	0.015467	0.612053
	C121	C	0.627941	0.998475	0.610263
	C122	C	0.628845	0.016035	0.367936
	C123	C	0.384396	0.998747	0.369503
	C124	C	0.627695	0.384626	-0.001272
	C125	C	0.627524	0.626347	0.980956
	C126	C	0.385031	0.626900	-0.000828
	C127	C	0.384717	0.384853	0.981710
	C128	C	0.015129	0.631316	0.369533
	C129	C	0.998196	0.630963	0.613623
	C130	C	0.015000	0.386177	0.613431
	C131	C	0.997875	0.386832	0.370579
	C132	C	0.882956	0.516624	0.113373
	C133	C	0.127446	0.498522	0.112299
	C134	C	0.129207	0.515540	0.868959
	C135	C	0.885235	0.498552	0.870496
	C136	C	0.126845	0.888186	0.500935
	C137	C	0.127610	0.129559	0.482536
	C138	C	0.884413	0.129662	0.499600
	C139	C	0.884825	0.887561	0.482058
	C140	C	0.514981	0.129522	0.867105
	C141	C	0.498237	0.127553	0.111152
	C142	C	0.515188	0.882756	0.112175
	C143	C	0.498083	0.883716	0.868127
	C144	C	0.386600	0.891935	0.667426
	C145	C	0.623590	0.122003	0.664649
	C146	C	0.625692	0.892318	0.314282
	C147	C	0.388310	0.121573	0.313065
	C148	C	0.685485	0.385163	0.875738
	C149	C	0.681840	0.625387	0.104997
	C150	C	0.330160	0.625706	0.875095
	C151	C	0.328021	0.384517	0.105420
	C152	C	0.893078	0.687087	0.371864
	C153	C	0.120153	0.687149	0.611941
	C154	C	0.893037	0.329458	0.614009
	C155	C	0.119526	0.330078	0.369998
	C156	C	0.892214	0.388938	0.669520
	C157	C	0.121140	0.627253	0.667548
	C158	C	0.892676	0.629250	0.314435
	C159	C	0.120440	0.389876	0.314141
	C160	C	0.387293	0.682537	0.875001
	C161	C	0.624817	0.681553	0.105007
	C162	C	0.626404	0.330392	0.874382
	C163	C	0.385747	0.327978	0.105157
	C164	C	0.685851	0.894070	0.368581
	C165	C	0.682754	0.121785	0.609096
	C166	C	0.327198	0.893112	0.612011
	C167	C	0.328375	0.121353	0.368905
	C168	C	0.886775	0.393271	0.169552
	C169	C	0.124437	0.622574	0.165682
	C170	C	0.125322	0.391938	0.814514
	C171	C	0.888992	0.622658	0.815721
	C172	C	0.183494	0.888336	0.376755
	C173	C	0.183346	0.128648	0.606414
	C174	C	0.830633	0.128925	0.375269
	C175	C	0.828456	0.889366	0.606079
	C176	C	0.392621	0.185040	0.869454
	C177	C	0.620661	0.183609	0.108981
	C178	C	0.392817	0.826996	0.111313
	C179	C	0.620918	0.828881	0.869114
	C180	C	0.392396	0.885639	0.168278
	C181	C	0.621495	0.124304	0.165385
	C182	C	0.391888	0.125593	0.813343
	C183	C	0.621259	0.888537	0.812709
	C184	C	0.887789	0.185902	0.375786
	C185	C	0.125191	0.184803	0.606846
	C186	C	0.126398	0.832066	0.376960
	C187	C	0.886221	0.832656	0.606821
	C188	C	0.184435	0.392536	0.870200
	C189	C	0.184351	0.620791	0.110627
	C190	C	0.827775	0.393338	0.113195
	C191	C	0.829233	0.621527	0.871101
	C192	C	0.406248	0.101041	0.588590
	C193	C	0.606516	0.912529	0.587887
	C194	C	0.606597	0.102037	0.390597
	C195	C	0.406182	0.913133	0.393339
	C196	C	0.604238	0.407319	0.085505
	C197	C	0.605656	0.604153	0.894311
	C198	C	0.406784	0.603885	0.085481
	C199	C	0.407856	0.408574	0.895365
	C200	C	0.100389	0.608978	0.391732
	C201	C	0.912686	0.608954	0.591510
	C202	C	0.100255	0.408250	0.590315
	C203	C	0.912728	0.409278	0.394384
	C204	C	0.904361	0.602330	0.089805
	C205	C	0.104815	0.412529	0.089938
	C206	C	0.107614	0.601425	0.891947
	C207	C	0.907126	0.412840	0.893442
	C208	C	0.103807	0.911178	0.586975
	C209	C	0.105309	0.106822	0.396118
	C210	C	0.905827	0.106405	0.586461
	C211	C	0.908273	0.909897	0.395467
	C212	C	0.600078	0.107725	0.889100
	C213	C	0.413208	0.105105	0.089074
	C214	C	0.600321	0.905036	0.088966
	C215	C	0.412488	0.905219	0.891192
	Zn216	Zn	0.505995	0.006403	0.738913
	Zn217	Zn	0.506923	0.005744	0.240698
	Zn218	Zn	0.755089	0.506270	-0.009562
	Zn219	Zn	0.256641	0.505993	-0.009023
	Zn220	Zn	0.006497	0.760270	0.492000
	Zn221	Zn	0.005955	0.257146	0.491866
	Zn222	Zn	0.007049	0.507448	0.741745
	Zn223	Zn	0.005894	0.508750	0.240852
	Zn224	Zn	0.507010	0.753840	-0.010155
	Zn225	Zn	0.506694	0.257676	-0.010068
	Zn226	Zn	0.756901	0.008658	0.489307
	Zn227	Zn	0.254820	0.007773	0.491521
	N228	N	0.421084	0.969108	0.667494
	N229	N	0.590124	0.044288	0.665586
	N230	N	0.590919	0.969126	0.313893
	N231	N	0.422366	0.044245	0.313146
	N232	N	0.686382	0.418245	0.954250
	N233	N	0.683439	0.591533	0.026924
	N234	N	0.328370	0.591849	0.953302
	N235	N	0.327221	0.419198	0.027452
	N236	N	0.970375	0.688825	0.405378
	N237	N	0.042719	0.689521	0.579164
	N238	N	0.970245	0.327528	0.579731
	N239	N	0.042396	0.328383	0.404553
	N240	N	0.968988	0.423615	0.669319
	N241	N	0.044105	0.593120	0.668912
	N242	N	0.969530	0.595180	0.312882
	N243	N	0.043695	0.424258	0.314076
	N244	N	0.420687	0.683547	0.953251
	N245	N	0.591622	0.682372	0.026717
	N246	N	0.591038	0.330019	0.952136
	N247	N	0.420285	0.327966	0.027107
	N248	N	0.688017	0.972245	0.401227
	N249	N	0.685794	0.044021	0.576108
	N250	N	0.325208	0.970866	0.578370
	N251	N	0.325555	0.043751	0.403030
	N252	N	0.920132	0.471006	0.169996
	N253	N	0.089881	0.545416	0.166771
	N254	N	0.091816	0.469549	0.813551
	N255	N	0.923217	0.545357	0.815195
	N256	N	0.184061	0.922442	0.454826
	N257	N	0.185141	0.095143	0.528002
	N258	N	0.828522	0.094748	0.453444
	N259	N	0.827259	0.922488	0.527407
	N260	N	0.470096	0.187456	0.902225
	N261	N	0.543148	0.185946	0.076104
	N262	N	0.470103	0.825068	0.077117
	N263	N	0.543346	0.825675	0.902688
	N264	N	0.469441	0.919467	0.169293
	N265	N	0.544537	0.090102	0.166862
	N266	N	0.468841	0.091775	0.811455
	N267	N	0.543852	0.921710	0.811728
	N268	N	0.920523	0.186481	0.454229
	N269	N	0.091359	0.185488	0.528879
	N270	N	0.091889	0.831696	0.454914
	N271	N	0.920799	0.831563	0.528748
	N272	N	0.187157	0.470353	0.903126
	N273	N	0.186337	0.542580	0.078155
	N274	N	0.825113	0.470818	0.079188
	N275	N	0.826966	0.543584	0.904431
	O276	O	-0.580511	-0.516915	0.466002
	H277	H	-0.576030	-0.521800	0.467778
	H278	H	-0.587502	-0.514998	0.476059
	O279	O	0.449877	0.562881	0.502100
	H280	H	0.456709	0.562662	0.512965
	H281	H	0.446928	0.556420	0.508619
	O282	O	0.490918	0.573555	0.579540
	H283	H	0.494683	0.576626	0.571137
	H284	H	0.497616	0.572959	0.577154
	O285	O	0.074166	1.015398	0.960421
	H286	H	0.068130	1.024454	0.956912
	H287	H	0.083947	1.013425	0.962873
	O288	O	0.635046	0.457877	0.422316
	H289	H	0.629976	0.444626	0.423005
	H290	H	0.650817	0.453963	0.399973
	O291	O	0.979658	1.060522	0.940068
	H292	H	0.980164	1.052807	0.938255
	H293	H	0.972107	1.062264	0.924464
	O294	O	0.970900	1.044387	1.007183
	H295	H	0.974880	1.044267	1.006649
	H296	H	0.963235	1.042495	0.999409
	O297	O	0.997023	0.025385	1.033920
	H298	H	0.993923	0.034646	1.023933
	H299	H	1.001592	0.024657	1.018877
	O300	O	0.471617	0.556254	0.589133
	H301	H	0.477177	0.546002	0.578291
	H302	H	0.468908	0.567824	0.588722
	O303	O	0.918615	0.066989	0.024648
	H304	H	0.915800	0.065051	0.028233
	H305	H	0.913479	0.061003	0.027220
	O306	O	0.002295	0.903882	1.064086
	H307	H	0.000573	0.901405	1.070662
	H308	H	-0.004128	0.901357	1.067874
	O309	O	0.523123	0.647557	0.560550
	H310	H	0.526194	0.649366	0.569290
	H311	H	0.522906	0.652272	0.549980
	O312	O	0.987767	0.052979	0.992463
	H313	H	0.988411	0.058587	0.996106
	H314	H	0.982385	0.056878	0.997557
	O315	O	0.395876	0.395998	0.478814
	H316	H	0.390500	0.398542	0.492940
	H317	H	0.389814	0.404356	0.479468
	O318	O	-0.046121	0.037616	0.945163
	H319	H	-0.045284	0.027283	0.947716
	H320	H	-0.037117	0.026752	0.943173
	O321	O	1.142660	0.902276	1.028559
	H322	H	1.160720	0.901985	1.029556
	H323	H	1.144024	0.887328	1.032057
	O324	O	0.450319	0.448787	0.548740
	H325	H	0.439732	0.446394	0.555672
	H326	H	0.456815	0.449039	0.562414
	O327	O	0.592243	0.452985	0.417836
	H328	H	0.598517	0.443598	0.416866
	H329	H	0.599275	0.458524	0.417792
	O330	O	0.651283	-0.566359	0.364414
	H331	H	0.640498	-0.570178	0.359252
	H332	H	0.661774	-0.571603	0.359576
	O333	O	1.113545	1.024991	-0.099078
	H334	H	1.113619	1.021663	-0.093866
	H335	H	1.125876	1.024750	-0.107910
	O336	O	0.547127	0.504766	0.486059
	H337	H	0.548495	0.508291	0.486560
	H338	H	0.548836	0.504001	0.476839
	O339	O	0.545113	0.460213	0.518848
	H340	H	0.553725	0.463097	0.513451
	H341	H	0.557901	0.458296	0.516127
	O342	O	0.445998	1.601898	0.407397
	H343	H	0.439541	1.599489	0.404419
	H344	H	0.441122	1.608277	0.397233
	O345	O	0.177402	0.144472	0.086961
	H346	H	0.169367	0.141146	0.089141
	H347	H	0.177767	0.147820	0.083701
	O348	O	0.379702	0.587589	0.389768
	H349	H	0.379418	0.579232	0.388530
	H350	H	0.363833	0.574105	0.386584
	O351	O	-0.506897	0.564426	0.508838
	H352	H	-0.512028	0.571332	0.508022
	H353	H	-0.495893	0.573472	0.501114
	O354	O	0.455723	0.433728	0.646201
	H355	H	0.456989	0.426292	0.653316
	H356	H	0.449733	0.431227	0.649141
	O357	O	0.615978	0.485869	0.562671
	H358	H	0.607292	0.492361	0.558849
	H359	H	0.623380	0.486104	0.558992
	O360	O	0.002647	-0.014555	-0.074058
	H361	H	0.011458	-0.021644	-0.069012
	H362	H	-0.001088	-0.027762	-0.081003
	O363	O	0.579688	0.462530	0.440196
	H364	H	0.572438	0.468158	0.435771
	H365	H	0.568320	0.472215	0.440416
	O366	O	0.060002	-0.030945	1.033889
	H367	H	0.060275	-0.010457	1.037008
	H368	H	0.052489	-0.023392	1.039658
	O369	O	0.495300	0.391012	0.454145
	H370	H	0.484749	0.397850	0.466494
	H371	H	0.498839	0.384602	0.453598
