data_Molecule from HDF5

_cell_length_a		16.317792
_cell_length_b		16.283327
_cell_length_c		16.209775
_cell_angle_alpha	90.012422
_cell_angle_beta	90.049617
_cell_angle_gamma	90.053401
_symmetry_space_group_name_H-M	'P 1'
_symmetry_Int_Tables_number		1

loop_
	_symmetry_equiv_pos_as_xyz
	x,y,z

loop_
	_atom_site_label
	_atom_site_type_symbol
	_atom_site_fract_x
	_atom_site_fract_y
	_atom_site_fract_z
	H0	H	0.412079	0.832921	0.708330
	H1	H	0.606422	0.161729	0.708166
	H2	H	0.607026	0.832989	0.281590
	H3	H	0.413002	0.162002	0.281508
	H4	H	0.725058	0.398324	0.830860
	H5	H	0.725656	0.596002	0.159166
	H6	H	0.298341	0.594976	0.830290
	H7	H	0.296943	0.398827	0.159483
	H8	H	0.846879	0.712146	0.395728
	H9	H	0.173554	0.712006	0.593422
	H10	H	0.847391	0.281797	0.594180
	H11	H	0.173207	0.282343	0.395763
	H12	H	0.847139	0.399461	0.708649
	H13	H	0.174391	0.594473	0.707320
	H14	H	0.846679	0.594804	0.280482
	H15	H	0.174289	0.399229	0.281306
	H16	H	0.412552	0.711338	0.830836
	H17	H	0.609420	0.711061	0.159880
	H18	H	0.609309	0.283031	0.830547
	H19	H	0.413085	0.283733	0.159928
	H20	H	0.724565	0.832978	0.396990
	H21	H	0.725717	0.160350	0.594677
	H22	H	0.293765	0.833667	0.593894
	H23	H	0.296099	0.161565	0.396101
	H24	H	0.914350	0.332702	0.207150
	H25	H	0.108268	0.661262	0.209259
	H26	H	0.108640	0.333330	0.780205
	H27	H	0.914953	0.662548	0.782203
	H28	H	0.224263	0.899058	0.330247
	H29	H	0.223831	0.095844	0.659097
	H30	H	0.796148	0.095242	0.330884
	H31	H	0.796683	0.898439	0.659379
	H32	H	0.346894	0.212090	0.897329
	H33	H	0.674476	0.211788	0.093642
	H34	H	0.347154	0.781476	0.093998
	H35	H	0.674018	0.783972	0.897548
	H36	H	0.345706	0.901560	0.207015
	H37	H	0.674247	0.094672	0.209404
	H38	H	0.346282	0.095140	0.781322
	H39	H	0.673642	0.900386	0.781086
	H40	H	0.912725	0.210268	0.330698
	H41	H	0.107706	0.210772	0.658845
	H42	H	0.107700	0.783256	0.329794
	H43	H	0.912361	0.783454	0.659058
	H44	H	0.225473	0.333602	0.895971
	H45	H	0.226005	0.661247	0.094219
	H46	H	0.795668	0.333601	0.093059
	H47	H	0.795585	0.661007	0.895554
	H48	H	0.418729	0.109821	0.578201
	H49	H	0.606257	0.880782	0.584402
	H50	H	0.611369	0.115205	0.405565
	H51	H	0.408453	0.878107	0.400303
	H52	H	0.601541	0.408167	0.110506
	H53	H	0.604128	0.591111	0.877902
	H54	H	0.420663	0.588210	0.111083
	H55	H	0.426100	0.404491	0.880593
	H56	H	0.123623	0.583461	0.404796
	H57	H	0.894884	0.595949	0.579785
	H58	H	0.126996	0.412198	0.594582
	H59	H	0.895579	0.408754	0.402262
	H60	H	0.131125	0.393465	0.591488
	H61	H	0.896408	0.582319	0.588496
	H62	H	0.128970	0.592070	0.394282
	H63	H	0.892303	0.402199	0.396181
	H64	H	0.418372	0.592439	0.112832
	H65	H	0.603949	0.591517	0.877893
	H66	H	0.601697	0.400892	0.112270
	H67	H	0.415057	0.397674	0.875725
	H68	H	0.603044	0.115629	0.394328
	H69	H	0.604887	0.878908	0.591647
	H70	H	0.406847	0.117670	0.590058
	H71	H	0.420992	0.881037	0.395632
	H72	H	0.920215	0.612696	0.088231
	H73	H	0.113392	0.377527	0.089493
	H74	H	0.108011	0.613345	0.906110
	H75	H	0.918084	0.379576	0.895659
	H76	H	0.108487	0.910373	0.611571
	H77	H	0.094939	0.075385	0.383857
	H78	H	0.923322	0.091475	0.610839
	H79	H	0.921958	0.909023	0.380225
	H80	H	0.624844	0.083000	0.901348
	H81	H	0.392307	0.099236	0.086687
	H82	H	0.624252	0.908565	0.085538
	H83	H	0.395848	0.903314	0.908687
	H84	H	0.628455	0.904782	0.095185
	H85	H	0.396644	0.086407	0.084389
	H86	H	0.629330	0.094310	0.896315
	H87	H	0.394111	0.908632	0.898255
	H88	H	0.913915	0.094215	0.614594
	H89	H	0.094245	0.105348	0.375626
	H90	H	0.095649	0.904981	0.608629
	H91	H	0.917758	0.895378	0.374857
	H92	H	0.109421	0.616694	0.896371
	H93	H	0.099027	0.380590	0.094077
	H94	H	0.916364	0.612899	0.083876
	H95	H	0.922522	0.383684	0.905135
	H96	H	0.423814	0.113720	0.594943
	H97	H	0.599710	0.881730	0.588073
	H98	H	0.598169	0.110030	0.406814
	H99	H	0.418442	0.883631	0.408673
	H100	H	0.608052	0.405202	0.113176
	H101	H	0.604162	0.591336	0.877814
	H102	H	0.415655	0.587645	0.112618
	H103	H	0.413713	0.411097	0.878495
	H104	H	0.126922	0.597201	0.407356
	H105	H	0.890032	0.595237	0.596040
	H106	H	0.122814	0.404620	0.577262
	H107	H	0.893622	0.399593	0.404848
	H108	H	0.914732	0.615447	0.089599
	H109	H	0.103310	0.383764	0.079735
	H110	H	0.100338	0.613262	0.899472
	H111	H	0.911164	0.380807	0.904430
	H112	H	0.105087	0.897176	0.614225
	H113	H	0.120298	0.089546	0.372522
	H114	H	0.915609	0.084229	0.611334
	H115	H	0.907988	0.907293	0.375814
	H116	H	0.625428	0.094638	0.908836
	H117	H	0.392789	0.089776	0.096669
	H118	H	0.627510	0.898218	0.086303
	H119	H	0.391008	0.897688	0.899308
	C120	C	0.387974	0.005376	0.616411
	C121	C	0.631661	0.988789	0.616658
	C122	C	0.632144	0.005274	0.373816
	C123	C	0.387924	0.989506	0.373256
	C124	C	0.632153	0.376006	0.003324
	C125	C	0.632339	0.619094	0.986940
	C126	C	0.389770	0.618607	0.003657
	C127	C	0.389331	0.375834	0.986719
	C128	C	0.018480	0.619041	0.373352
	C129	C	1.001916	0.619585	0.616214
	C130	C	0.018734	0.375561	0.616224
	C131	C	1.001900	0.375456	0.373018
	C132	C	0.889039	0.505453	0.115995
	C133	C	0.132732	0.489058	0.116169
	C134	C	0.133310	0.505894	0.872616
	C135	C	0.888868	0.489365	0.872958
	C136	C	0.131354	0.875963	0.502902
	C137	C	0.131366	0.118506	0.486130
	C138	C	0.889017	0.118485	0.503710
	C139	C	0.888450	0.875670	0.486100
	C140	C	0.518475	0.119076	0.873516
	C141	C	0.502279	0.119794	0.117426
	C142	C	0.518582	0.875777	0.117009
	C143	C	0.501937	0.875415	0.873765
	C144	C	0.390790	0.881933	0.671135
	C145	C	0.627853	0.112384	0.671247
	C146	C	0.628078	0.881877	0.319293
	C147	C	0.392113	0.112915	0.319013
	C148	C	0.686942	0.378353	0.879779
	C149	C	0.687619	0.616428	0.110348
	C150	C	0.335232	0.616064	0.879537
	C151	C	0.334327	0.378167	0.110297
	C152	C	0.895609	0.674042	0.375464
	C153	C	0.124614	0.674688	0.614057
	C154	C	0.896012	0.320234	0.614051
	C155	C	0.124632	0.320356	0.375426
	C156	C	0.895977	0.378463	0.671114
	C157	C	0.125426	0.615767	0.670224
	C158	C	0.895640	0.616016	0.317828
	C159	C	0.125153	0.378333	0.318489
	C160	C	0.392258	0.673746	0.879845
	C161	C	0.629844	0.673704	0.110580
	C162	C	0.629635	0.320918	0.879716
	C163	C	0.392251	0.321168	0.110631
	C164	C	0.686547	0.881905	0.376497
	C165	C	0.687161	0.111769	0.614903
	C166	C	0.332401	0.882288	0.613871
	C167	C	0.333902	0.112857	0.375819
	C168	C	0.892845	0.381945	0.170061
	C169	C	0.129231	0.612495	0.171289
	C170	C	0.129457	0.382243	0.818237
	C171	C	0.893154	0.613000	0.818762
	C172	C	0.185919	0.878599	0.378877
	C173	C	0.186327	0.116183	0.609935
	C174	C	0.834043	0.115626	0.379874
	C175	C	0.834327	0.878195	0.610304
	C176	C	0.395537	0.174192	0.876437
	C177	C	0.625706	0.173928	0.114405
	C178	C	0.395603	0.820461	0.114226
	C179	C	0.625245	0.821529	0.876674
	C180	C	0.394943	0.879792	0.170404
	C181	C	0.625623	0.115990	0.171882
	C182	C	0.395296	0.116274	0.818764
	C183	C	0.625061	0.879261	0.818849
	C184	C	0.891722	0.172663	0.379786
	C185	C	0.128560	0.173351	0.609756
	C186	C	0.128280	0.821253	0.378798
	C187	C	0.891846	0.821136	0.610180
	C188	C	0.187664	0.382363	0.875484
	C189	C	0.187744	0.612435	0.114247
	C190	C	0.833940	0.382272	0.113611
	C191	C	0.834075	0.612450	0.875308
	C192	C	0.410064	0.091386	0.594320
	C193	C	0.610104	0.902672	0.594581
	C194	C	0.610617	0.091396	0.395745
	C195	C	0.409460	0.903252	0.395258
	C196	C	0.610155	0.398160	0.089774
	C197	C	0.610415	0.597610	0.900412
	C198	C	0.411844	0.596249	0.089880
	C199	C	0.411617	0.397848	0.900439
	C200	C	0.104316	0.597214	0.395527
	C201	C	0.915901	0.597734	0.594473
	C202	C	0.104718	0.397154	0.594326
	C203	C	0.916089	0.397208	0.394667
	C204	C	0.910544	0.591525	0.093770
	C205	C	0.111636	0.402887	0.094166
	C206	C	0.112098	0.592129	0.894100
	C207	C	0.910676	0.403497	0.895248
	C208	C	0.109631	0.897838	0.589055
	C209	C	0.109700	0.096363	0.399642
	C210	C	0.911194	0.096410	0.590032
	C211	C	0.909781	0.897588	0.399352
	C212	C	0.604468	0.097202	0.895617
	C213	C	0.416123	0.098238	0.095547
	C214	C	0.604581	0.897477	0.095330
	C215	C	0.415939	0.897036	0.895709
	Zn216	Zn	0.509718	-0.003071	0.745007
	Zn217	Zn	0.510301	-0.002198	0.245618
	Zn218	Zn	0.760096	0.497433	-0.005109
	Zn219	Zn	0.261747	0.497881	-0.005333
	Zn220	Zn	0.009916	0.748066	0.494500
	Zn221	Zn	0.009949	0.246979	0.494619
	Zn222	Zn	0.010701	0.497488	0.744378
	Zn223	Zn	0.010645	0.496988	0.244299
	Zn224	Zn	0.510733	0.746874	-0.004635
	Zn225	Zn	0.510784	0.247974	-0.004551
	Zn226	Zn	0.761042	-0.002903	0.495411
	Zn227	Zn	0.259791	-0.002450	0.494259
	N228	N	0.424862	0.959287	0.672531
	N229	N	0.593955	0.034840	0.672303
	N230	N	0.595075	0.959650	0.317536
	N231	N	0.425233	0.035195	0.317508
	N232	N	0.688735	0.411811	0.957798
	N233	N	0.689195	0.583246	0.032333
	N234	N	0.333607	0.582510	0.957500
	N235	N	0.332388	0.411442	0.032225
	N236	N	0.972980	0.675922	0.409340
	N237	N	0.046941	0.677028	0.581068
	N238	N	0.973454	0.318372	0.580459
	N239	N	0.046976	0.318431	0.408697
	N240	N	0.973369	0.412013	0.672541
	N241	N	0.047979	0.582171	0.671715
	N242	N	0.973016	0.582587	0.316406
	N243	N	0.047988	0.412108	0.316985
	N244	N	0.425643	0.675168	0.957826
	N245	N	0.596218	0.675456	0.032803
	N246	N	0.596076	0.319569	0.957499
	N247	N	0.425926	0.319784	0.032917
	N248	N	0.689124	0.959636	0.409727
	N249	N	0.689516	0.034055	0.581660
	N250	N	0.330351	0.960138	0.580730
	N251	N	0.331162	0.035024	0.408623
	N252	N	0.926375	0.459434	0.171513
	N253	N	0.095806	0.534818	0.172550
	N254	N	0.096243	0.459808	0.816427
	N255	N	0.926706	0.535422	0.817396
	N256	N	0.188106	0.911930	0.456893
	N257	N	0.188224	0.082876	0.531979
	N258	N	0.832139	0.082742	0.458063
	N259	N	0.832151	0.911360	0.532257
	N260	N	0.473129	0.176029	0.909767
	N261	N	0.548009	0.176278	0.081298
	N262	N	0.473453	0.817801	0.081783
	N263	N	0.547750	0.819048	0.909984
	N264	N	0.472317	0.913514	0.172204
	N265	N	0.548003	0.082944	0.173793
	N266	N	0.472613	0.082570	0.817076
	N267	N	0.547357	0.911966	0.817041
	N268	N	0.925160	0.174440	0.457688
	N269	N	0.094956	0.174888	0.531913
	N270	N	0.095227	0.819382	0.456904
	N271	N	0.924680	0.819477	0.531923
	N272	N	0.190291	0.460335	0.908515
	N273	N	0.190087	0.534781	0.080911
	N274	N	0.831453	0.460144	0.080717
	N275	N	0.831039	0.534579	0.907939
	O276	O	-0.487853	0.525676	1.480443
	H277	H	-0.488719	0.522301	1.482043
	H278	H	-0.491406	0.522850	1.486810
	O279	O	0.505902	0.527730	0.520745
	H280	H	0.508021	0.534267	0.518672
	H281	H	0.501149	0.530293	0.524305
	O282	O	0.517499	0.506717	0.457314
	H283	H	0.506414	0.505405	0.454522
	H284	H	0.520476	0.500163	0.461797
	O285	O	0.502940	0.549977	0.539031
	H286	H	0.494933	0.556417	0.545750
	H287	H	0.518771	0.535718	0.538000
	O288	O	0.460692	0.537064	0.492633
	H289	H	0.458968	0.549108	0.495245
	H290	H	0.462240	0.542851	0.490622
	O291	O	-0.479756	1.519833	0.551419
	H292	H	-0.477959	1.521533	0.549239
	H293	H	-0.475333	1.514486	0.552394
	O294	O	0.520134	0.523741	0.537134
	H295	H	0.526379	0.523103	0.539882
	H296	H	0.521195	0.536247	0.526436
	O297	O	0.539841	-0.479081	0.491425
	H298	H	0.537002	-0.485852	0.495661
	H299	H	0.539571	-0.479843	0.486804
