data_Molecule from HDF5

_cell_length_a		16.208626
_cell_length_b		16.252492
_cell_length_c		16.212851
_cell_angle_alpha	89.680089
_cell_angle_beta	90.680729
_cell_angle_gamma	89.631510
_symmetry_space_group_name_H-M	'P 1'
_symmetry_Int_Tables_number		1

loop_
	_symmetry_equiv_pos_as_xyz
	x,y,z

loop_
	_atom_site_label
	_atom_site_type_symbol
	_atom_site_fract_x
	_atom_site_fract_y
	_atom_site_fract_z
	H0	H	0.405184	0.835766	0.716669
	H1	H	0.602814	0.162931	0.715687
	H2	H	0.599348	0.833766	0.291200
	H3	H	0.397914	0.161326	0.279929
	H4	H	0.719215	0.399830	0.837631
	H5	H	0.721439	0.597011	0.165485
	H6	H	0.285410	0.600930	0.839324
	H7	H	0.296793	0.400113	0.166844
	H8	H	0.838931	0.714025	0.401794
	H9	H	0.167085	0.715020	0.607353
	H10	H	0.838792	0.285429	0.601792
	H11	H	0.167450	0.282325	0.407323
	H12	H	0.840002	0.398938	0.717174
	H13	H	0.169049	0.593934	0.718780
	H14	H	0.842483	0.601168	0.282088
	H15	H	0.171001	0.399734	0.295360
	H16	H	0.403106	0.713935	0.837100
	H17	H	0.606810	0.713072	0.164494
	H18	H	0.604168	0.284071	0.837255
	H19	H	0.407015	0.282080	0.164114
	H20	H	0.720164	0.836573	0.400719
	H21	H	0.716354	0.163267	0.599135
	H22	H	0.289931	0.835363	0.600105
	H23	H	0.282657	0.161932	0.395350
	H24	H	0.911995	0.333660	0.217589
	H25	H	0.108167	0.661205	0.220445
	H26	H	0.103878	0.333281	0.792736
	H27	H	0.901878	0.660939	0.784754
	H28	H	0.214966	0.899127	0.337625
	H29	H	0.221287	0.097582	0.663519
	H30	H	0.785354	0.100597	0.337006
	H31	H	0.791315	0.901801	0.666916
	H32	H	0.340401	0.217227	0.897076
	H33	H	0.668346	0.212005	0.102166
	H34	H	0.340830	0.782754	0.099128
	H35	H	0.667443	0.781870	0.901565
	H36	H	0.339687	0.898486	0.213346
	H37	H	0.666849	0.096792	0.218742
	H38	H	0.339705	0.100314	0.782750
	H39	H	0.668197	0.899819	0.789073
	H40	H	0.900431	0.217282	0.338143
	H41	H	0.102231	0.209286	0.667318
	H42	H	0.103395	0.781879	0.340217
	H43	H	0.903865	0.783320	0.666311
	H44	H	0.220261	0.334319	0.907491
	H45	H	0.220254	0.662405	0.103139
	H46	H	0.792943	0.334205	0.102860
	H47	H	0.787173	0.661162	0.900484
	H48	H	0.405675	0.114541	0.582983
	H49	H	0.600722	0.884057	0.585815
	H50	H	0.590528	0.115160	0.406870
	H51	H	0.410868	0.883098	0.408288
	H52	H	0.605363	0.407154	0.119813
	H53	H	0.593713	0.597982	0.882419
	H54	H	0.414445	0.591570	0.119253
	H55	H	0.408164	0.407338	0.882145
	H56	H	0.120161	0.589801	0.414184
	H57	H	0.886902	0.602676	0.583505
	H58	H	0.125801	0.393175	0.604083
	H59	H	0.885220	0.400881	0.407562
	H60	H	0.118566	0.402085	0.587667
	H61	H	0.892821	0.577697	0.590434
	H62	H	0.122010	0.592267	0.413351
	H63	H	0.889664	0.412604	0.416101
	H64	H	0.414450	0.591844	0.119526
	H65	H	0.602189	0.588961	0.882199
	H66	H	0.594299	0.408645	0.115556
	H67	H	0.410277	0.412489	0.885353
	H68	H	0.593538	0.115333	0.411126
	H69	H	0.605101	0.878112	0.602957
	H70	H	0.407415	0.119034	0.597589
	H71	H	0.405939	0.882401	0.409160
	H72	H	0.908719	0.617161	0.097010
	H73	H	0.104985	0.377723	0.106060
	H74	H	0.097259	0.614551	0.913597
	H75	H	0.921080	0.384998	0.913693
	H76	H	0.098842	0.907618	0.619701
	H77	H	0.094762	0.098462	0.382264
	H78	H	0.913309	0.089877	0.617090
	H79	H	0.909260	0.917326	0.388288
	H80	H	0.621673	0.089769	0.905092
	H81	H	0.386820	0.085308	0.095189
	H82	H	0.619302	0.910315	0.093591
	H83	H	0.384796	0.895318	0.913751
	H84	H	0.623399	0.904309	0.101759
	H85	H	0.383302	0.099539	0.090756
	H86	H	0.621669	0.096272	0.911020
	H87	H	0.392310	0.918209	0.914891
	H88	H	0.909687	0.097567	0.620076
	H89	H	0.093124	0.085496	0.385887
	H90	H	0.095725	0.908901	0.618944
	H91	H	0.917886	0.902637	0.387054
	H92	H	0.096953	0.615445	0.908030
	H93	H	0.096021	0.382578	0.099612
	H94	H	0.922689	0.612268	0.094945
	H95	H	0.905577	0.380769	0.915824
	H96	H	0.419229	0.112674	0.589743
	H97	H	0.586790	0.884331	0.597924
	H98	H	0.595204	0.117372	0.406547
	H99	H	0.409042	0.880880	0.404270
	H100	H	0.597516	0.398137	0.120163
	H101	H	0.591034	0.586856	0.887679
	H102	H	0.413693	0.591652	0.118201
	H103	H	0.413616	0.406967	0.884412
	H104	H	0.120786	0.591932	0.415902
	H105	H	0.881504	0.594449	0.608382
	H106	H	0.120191	0.412894	0.604484
	H107	H	0.886516	0.414652	0.401455
	H108	H	0.912329	0.611882	0.084512
	H109	H	0.107824	0.381289	0.094932
	H110	H	0.091929	0.613906	0.910093
	H111	H	0.911544	0.377865	0.901118
	H112	H	0.096493	0.905265	0.619373
	H113	H	0.083557	0.094414	0.385938
	H114	H	0.905403	0.089489	0.619726
	H115	H	0.902382	0.904098	0.381861
	H116	H	0.618703	0.087798	0.912851
	H117	H	0.390279	0.090726	0.081245
	H118	H	0.621671	0.900534	0.092803
	H119	H	0.383511	0.909110	0.893980
	C120	C	0.382154	0.007554	0.620564
	C121	C	0.625834	0.990454	0.623887
	C122	C	0.622901	0.007585	0.380101
	C123	C	0.378342	0.989819	0.376276
	C124	C	0.627270	0.376399	0.009849
	C125	C	0.626089	0.619700	0.992494
	C126	C	0.383002	0.621256	0.010847
	C127	C	0.384057	0.378594	0.992350
	C128	C	0.013154	0.621586	0.382034
	C129	C	0.995529	0.619987	0.624754
	C130	C	0.012369	0.375633	0.625898
	C131	C	0.995983	0.378740	0.382242
	C132	C	0.886204	0.506264	0.123079
	C133	C	0.130341	0.489453	0.127657
	C134	C	0.125254	0.506368	0.882975
	C135	C	0.881984	0.489081	0.879912
	C136	C	0.124552	0.877748	0.510893
	C137	C	0.122452	0.120525	0.492796
	C138	C	0.879341	0.122204	0.510449
	C139	C	0.881493	0.878580	0.493922
	C140	C	0.512547	0.121662	0.878168
	C141	C	0.495137	0.119926	0.120903
	C142	C	0.512805	0.876255	0.123111
	C143	C	0.495247	0.877536	0.879254
	C144	C	0.384870	0.884583	0.677897
	C145	C	0.622864	0.113736	0.678111
	C146	C	0.620384	0.883503	0.327241
	C147	C	0.378410	0.112486	0.318569
	C148	C	0.681678	0.379220	0.886573
	C149	C	0.683058	0.617268	0.116208
	C150	C	0.324558	0.620139	0.887841
	C151	C	0.332334	0.379733	0.117028
	C152	C	0.888984	0.676981	0.381619
	C153	C	0.118410	0.676196	0.625632
	C154	C	0.888197	0.322127	0.622478
	C155	C	0.118940	0.321263	0.386821
	C156	C	0.888854	0.379115	0.679631
	C157	C	0.119340	0.616172	0.681385
	C158	C	0.890686	0.620870	0.322243
	C159	C	0.120785	0.380107	0.331152
	C160	C	0.382758	0.676763	0.886656
	C161	C	0.626065	0.674999	0.115779
	C162	C	0.624330	0.321716	0.886358
	C163	C	0.387347	0.320976	0.115554
	C164	C	0.680213	0.884749	0.382173
	C165	C	0.679621	0.114013	0.620304
	C166	C	0.327419	0.884401	0.619887
	C167	C	0.320877	0.112716	0.376051
	C168	C	0.890189	0.382858	0.179439
	C169	C	0.127741	0.612459	0.182409
	C170	C	0.124048	0.382613	0.829488
	C171	C	0.882513	0.611949	0.822970
	C172	C	0.177947	0.879398	0.387043
	C173	C	0.181610	0.117822	0.615458
	C174	C	0.823173	0.121116	0.386613
	C175	C	0.827740	0.880931	0.617709
	C176	C	0.389249	0.178678	0.877669
	C177	C	0.618793	0.174764	0.121775
	C178	C	0.389768	0.820582	0.119555
	C179	C	0.618607	0.820770	0.881769
	C180	C	0.389061	0.878054	0.176551
	C181	C	0.617951	0.117344	0.179803
	C182	C	0.388997	0.120745	0.820749
	C183	C	0.618851	0.879156	0.825583
	C184	C	0.880141	0.179225	0.387080
	C185	C	0.122403	0.173261	0.617277
	C186	C	0.122563	0.820668	0.388704
	C187	C	0.883801	0.822069	0.617420
	C188	C	0.181869	0.383043	0.886648
	C189	C	0.183655	0.613105	0.123947
	C190	C	0.831174	0.383069	0.122483
	C191	C	0.825547	0.612343	0.880738
	C192	C	0.404253	0.093027	0.596908
	C193	C	0.603982	0.904392	0.602034
	C194	C	0.599645	0.093748	0.401635
	C195	C	0.401696	0.904201	0.400177
	C196	C	0.605465	0.398267	0.096331
	C197	C	0.602491	0.597809	0.906399
	C198	C	0.407312	0.598432	0.096637
	C199	C	0.404454	0.402083	0.906309
	C200	C	0.098752	0.598256	0.407244
	C201	C	0.909369	0.597949	0.601043
	C202	C	0.098887	0.396527	0.604828
	C203	C	0.909438	0.402393	0.402620
	C204	C	0.908120	0.591693	0.099273
	C205	C	0.109245	0.403008	0.106421
	C206	C	0.102150	0.592367	0.904243
	C207	C	0.905606	0.403482	0.903333
	C208	C	0.103386	0.900685	0.596998
	C209	C	0.097746	0.099137	0.406818
	C210	C	0.902525	0.099114	0.596688
	C211	C	0.903440	0.901336	0.407927
	C212	C	0.598450	0.098204	0.902621
	C213	C	0.409108	0.098465	0.096297
	C214	C	0.599031	0.898461	0.102186
	C215	C	0.409214	0.900623	0.901165
	Zn216	Zn	0.503473	-0.000970	0.751216
	Zn217	Zn	0.502152	-0.001852	0.250389
	Zn218	Zn	0.754883	0.498176	0.002104
	Zn219	Zn	0.255637	0.498988	0.003728
	Zn220	Zn	0.003482	0.750276	0.503629
	Zn221	Zn	0.001825	0.249620	0.503276
	Zn222	Zn	0.004264	0.497271	0.753000
	Zn223	Zn	0.007060	0.498976	0.253720
	Zn224	Zn	0.504784	0.748861	0.000777
	Zn225	Zn	0.504344	0.249571	0.000085
	Zn226	Zn	0.751955	-0.000449	0.501260
	Zn227	Zn	0.252014	-0.000718	0.499867
	N228	N	0.418327	0.962155	0.678500
	N229	N	0.590340	0.035794	0.680713
	N230	N	0.585449	0.960986	0.325805
	N231	N	0.413315	0.035156	0.318610
	N232	N	0.683851	0.412165	0.964552
	N233	N	0.683424	0.583790	0.038443
	N234	N	0.324358	0.586506	0.966052
	N235	N	0.330121	0.415124	0.039706
	N236	N	0.966127	0.677527	0.417987
	N237	N	0.040462	0.678485	0.591089
	N238	N	0.965993	0.319901	0.589621
	N239	N	0.040318	0.320526	0.418132
	N240	N	0.967087	0.411471	0.682102
	N241	N	0.041837	0.582039	0.681059
	N242	N	0.968881	0.587296	0.322070
	N243	N	0.043248	0.415207	0.328392
	N244	N	0.418412	0.677672	0.964048
	N245	N	0.591557	0.676908	0.037718
	N246	N	0.591178	0.320026	0.964194
	N247	N	0.418851	0.320213	0.037072
	N248	N	0.681872	0.963011	0.414175
	N249	N	0.681758	0.036311	0.587446
	N250	N	0.325760	0.961708	0.584896
	N251	N	0.320692	0.035400	0.411293
	N252	N	0.923697	0.460541	0.179992
	N253	N	0.095408	0.534440	0.184881
	N254	N	0.089504	0.460232	0.826962
	N255	N	0.916723	0.534181	0.822296
	N256	N	0.179359	0.914223	0.464062
	N257	N	0.181760	0.085776	0.537031
	N258	N	0.822589	0.086525	0.464249
	N259	N	0.826060	0.915500	0.539849
	N260	N	0.467252	0.179659	0.912426
	N261	N	0.541440	0.176396	0.085886
	N262	N	0.467933	0.819034	0.086990
	N263	N	0.540620	0.819571	0.914300
	N264	N	0.466424	0.911972	0.178688
	N265	N	0.539948	0.084110	0.179484
	N266	N	0.466705	0.086076	0.821076
	N267	N	0.541103	0.913707	0.823850
	N268	N	0.914525	0.180190	0.465194
	N269	N	0.086285	0.175191	0.540013
	N270	N	0.090180	0.819548	0.466837
	N271	N	0.916382	0.820512	0.539532
	N272	N	0.182837	0.461086	0.919160
	N273	N	0.185532	0.535445	0.090747
	N274	N	0.828530	0.460720	0.088109
	N275	N	0.825045	0.535007	0.915410
	O276	O	0.530112	0.432636	0.419762
	H277	H	0.524124	0.431251	0.398468
	H278	H	0.531091	0.430324	0.425599
	O279	O	0.471051	0.640040	0.572565
	H280	H	0.477570	0.641970	0.590763
	H281	H	0.460014	0.636567	0.572519
	O282	O	0.926137	1.015167	-0.101951
	H283	H	0.930275	1.013378	-0.100882
	H284	H	0.917096	1.007496	-0.095188
	O285	O	1.136836	0.059572	0.990743
	H286	H	1.132342	0.057796	1.002945
	H287	H	1.126752	0.051795	0.981907
	O288	O	0.475147	0.463625	0.472706
	H289	H	0.478549	0.455702	0.484831
	H290	H	0.489018	0.453452	0.461471
	O291	O	0.529771	0.464380	0.583840
	H292	H	0.530816	0.447631	0.582851
	H293	H	0.543484	0.458858	0.576837
	O294	O	0.512646	0.476954	0.549092
	H295	H	0.509256	0.484180	0.549439
	H296	H	0.509271	0.466731	0.537683
	O297	O	0.056709	0.036307	1.042843
	H298	H	0.062979	0.035578	1.036826
	H299	H	0.052138	0.037771	1.053785
	O300	O	0.364202	0.595081	0.456991
	H301	H	0.368718	0.603731	0.455964
	H302	H	0.355923	0.601464	0.440232
	O303	O	1.079260	0.927530	-0.132411
	H304	H	1.078544	0.926314	-0.137706
	H305	H	1.090351	0.918108	-0.127923
	O306	O	-0.075361	0.973195	0.977654
	H307	H	-0.078130	0.965735	0.981483
	H308	H	-0.089845	0.968381	0.978872
	O309	O	0.522798	0.606832	0.453739
	H310	H	0.524957	0.610880	0.461935
	H311	H	0.516639	0.606645	0.456785
	O312	O	0.004860	-0.059813	0.022932
	H313	H	0.006605	-0.058428	0.012018
	H314	H	-0.005755	-0.054895	0.029397
	O315	O	0.892607	-0.032978	0.019989
	H316	H	0.899054	-0.033455	0.006289
	H317	H	0.891661	-0.031763	0.027980
	O318	O	1.034871	1.048987	1.048731
	H319	H	1.037646	1.056002	1.043638
	H320	H	1.030089	1.045420	1.038148
	O321	O	0.125302	-0.061791	1.100618
	H322	H	0.133731	-0.043792	1.107574
	H323	H	0.115856	-0.044651	1.099686
	O324	O	0.487991	0.391814	0.577438
	H325	H	0.482079	0.386702	0.574217
	H326	H	0.492333	0.389596	0.585539
	O327	O	0.047046	-0.052685	-0.069680
	H328	H	0.050820	-0.054292	-0.059965
	H329	H	0.039353	-0.040639	-0.055430
	O330	O	0.543009	0.443976	0.419833
	H331	H	0.531150	0.459533	0.412242
	H332	H	0.548335	0.437039	0.425788
	O333	O	-0.066013	0.992546	0.909443
	H334	H	-0.063927	0.992190	0.899688
	H335	H	-0.064474	1.004033	0.905712
	O336	O	-0.082331	0.060386	0.115828
	H337	H	-0.086203	0.056616	0.108664
	H338	H	-0.072300	0.045904	0.118014
	O339	O	0.462763	0.520390	0.528059
	H340	H	0.464333	0.525310	0.542400
	H341	H	0.453315	0.525782	0.516963
	O342	O	1.008723	0.894553	0.967514
	H343	H	1.006582	0.888147	0.961282
	H344	H	0.995430	0.883491	0.963159
	O345	O	0.419465	1.449841	-0.510326
	H346	H	0.427195	1.443678	-0.515625
	H347	H	0.407637	1.436688	-0.514906
	O348	O	0.588107	0.494041	0.581689
	H349	H	0.584860	0.503717	0.583124
	H350	H	0.591588	0.497188	0.582174
	O351	O	0.432952	0.602922	0.447746
	H352	H	0.436191	0.611855	0.455086
	H353	H	0.442773	0.600506	0.435997
	O354	O	0.509589	0.531389	0.521151
	H355	H	0.502919	0.551224	0.527805
	H356	H	0.516291	0.540329	0.524637
	O357	O	1.037499	-0.054811	0.868386
	H358	H	1.042340	-0.063528	0.856669
	H359	H	1.039181	-0.051288	0.877605
	O360	O	0.518214	0.504744	0.458888
	H361	H	0.519955	0.513326	0.453925
	H362	H	0.522235	0.497358	0.448279
	O363	O	0.400286	0.427793	0.488855
	H364	H	0.392267	0.419384	0.487970
	H365	H	0.400546	0.427686	0.500546
	O366	O	0.992233	0.946165	1.141718
	H367	H	1.000420	0.955282	1.145785
	H368	H	0.985491	0.938147	1.134729
	O369	O	0.963891	-0.047001	1.067584
	H370	H	0.972025	-0.049072	1.070763
	H371	H	0.973479	-0.050300	1.076103
	O372	O	0.023395	0.084414	0.038300
	H373	H	0.020157	0.081158	0.030652
	H374	H	0.021485	0.086003	0.036652
	O375	O	0.930552	-0.019667	0.037854
	H376	H	0.938519	-0.017676	0.040967
	H377	H	0.928612	-0.013646	0.030999
	O378	O	0.595594	0.498841	0.499801
	H379	H	0.598147	0.489449	0.498097
	H380	H	0.591644	0.509408	0.497237
	O381	O	0.613533	0.539532	0.561485
	H382	H	0.606036	0.540600	0.565219
	H383	H	0.613132	0.546331	0.563361
