data_Molecule from HDF5

_cell_length_a		16.273771
_cell_length_b		16.201118
_cell_length_c		16.341749
_cell_angle_alpha	90.013584
_cell_angle_beta	90.219860
_cell_angle_gamma	90.292963
_symmetry_space_group_name_H-M	'P 1'
_symmetry_Int_Tables_number		1

loop_
	_symmetry_equiv_pos_as_xyz
	x,y,z

loop_
	_atom_site_label
	_atom_site_type_symbol
	_atom_site_fract_x
	_atom_site_fract_y
	_atom_site_fract_z
	H0	H	0.403309	0.843555	0.717331
	H1	H	0.604608	0.171928	0.718124
	H2	H	0.601410	0.843063	0.288477
	H3	H	0.405093	0.171790	0.288353
	H4	H	0.715964	0.409725	0.840597
	H5	H	0.720868	0.608521	0.166223
	H6	H	0.287191	0.605794	0.841052
	H7	H	0.286812	0.406959	0.166560
	H8	H	0.837994	0.719757	0.406060
	H9	H	0.166492	0.722539	0.600422
	H10	H	0.839032	0.292892	0.600216
	H11	H	0.167569	0.295295	0.406312
	H12	H	0.839792	0.405575	0.719076
	H13	H	0.165380	0.610414	0.720231
	H14	H	0.839337	0.605886	0.286806
	H15	H	0.166529	0.410485	0.289667
	H16	H	0.404496	0.720274	0.839563
	H17	H	0.601832	0.722289	0.167438
	H18	H	0.598609	0.294138	0.840068
	H19	H	0.404971	0.292535	0.167221
	H20	H	0.714702	0.842417	0.406255
	H21	H	0.717946	0.171808	0.600803
	H22	H	0.289619	0.843127	0.599530
	H23	H	0.290094	0.172211	0.403771
	H24	H	0.902952	0.343586	0.217499
	H25	H	0.103835	0.671818	0.218627
	H26	H	0.100856	0.344707	0.788489
	H27	H	0.903639	0.671617	0.787621
	H28	H	0.216267	0.909963	0.339365
	H29	H	0.220283	0.107330	0.666054
	H30	H	0.787874	0.105647	0.340079
	H31	H	0.788536	0.907756	0.666886
	H32	H	0.337504	0.218869	0.906096
	H33	H	0.666610	0.221558	0.100717
	H34	H	0.338654	0.792100	0.101458
	H35	H	0.666908	0.795360	0.907872
	H36	H	0.339588	0.907930	0.217971
	H37	H	0.666191	0.108518	0.219098
	H38	H	0.339974	0.105668	0.787205
	H39	H	0.666903	0.909467	0.789844
	H40	H	0.905084	0.221317	0.339615
	H41	H	0.102317	0.222387	0.667202
	H42	H	0.098395	0.794912	0.338821
	H43	H	0.906124	0.792570	0.666692
	H44	H	0.213736	0.343042	0.905740
	H45	H	0.219294	0.671007	0.102448
	H46	H	0.789059	0.343104	0.100586
	H47	H	0.788753	0.672418	0.903870
	H48	H	0.405468	0.127331	0.601137
	H49	H	0.589520	0.892064	0.595326
	H50	H	0.592216	0.123346	0.407879
	H51	H	0.408281	0.889391	0.408423
	H52	H	0.599146	0.409541	0.122146
	H53	H	0.594980	0.617122	0.883588
	H54	H	0.418104	0.590889	0.114162
	H55	H	0.402215	0.404268	0.883926
	H56	H	0.120726	0.606369	0.411077
	H57	H	0.884139	0.607868	0.594436
	H58	H	0.120534	0.417437	0.602375
	H59	H	0.887659	0.416894	0.409881
	H60	H	0.120685	0.412397	0.594534
	H61	H	0.889216	0.593559	0.589940
	H62	H	0.118658	0.598968	0.411811
	H63	H	0.886156	0.413886	0.407779
	H64	H	0.415349	0.610893	0.121295
	H65	H	0.610478	0.593844	0.885761
	H66	H	0.601739	0.419542	0.120355
	H67	H	0.402413	0.422608	0.888600
	H68	H	0.595283	0.123001	0.415159
	H69	H	0.600741	0.889961	0.593559
	H70	H	0.419756	0.124183	0.599832
	H71	H	0.411177	0.890966	0.409430
	H72	H	0.907280	0.628703	0.105138
	H73	H	0.091723	0.393731	0.088978
	H74	H	0.113068	0.631618	0.907496
	H75	H	0.901843	0.389525	0.912491
	H76	H	0.101537	0.922566	0.618002
	H77	H	0.099745	0.100557	0.386453
	H78	H	0.912289	0.101500	0.619594
	H79	H	0.915663	0.917803	0.389999
	H80	H	0.619222	0.102233	0.911662
	H81	H	0.389439	0.099332	0.085031
	H82	H	0.620284	0.915552	0.100243
	H83	H	0.387503	0.909380	0.917331
	H84	H	0.619368	0.912740	0.093970
	H85	H	0.387144	0.089509	0.103052
	H86	H	0.619088	0.101012	0.909413
	H87	H	0.388069	0.923847	0.907961
	H88	H	0.908808	0.100481	0.619764
	H89	H	0.094026	0.098753	0.388873
	H90	H	0.088544	0.914919	0.616472
	H91	H	0.907482	0.904694	0.384344
	H92	H	0.083359	0.624984	0.897491
	H93	H	0.103502	0.388055	0.097772
	H94	H	0.923274	0.620748	0.095526
	H95	H	0.911055	0.389020	0.903124
	H96	H	0.411023	0.122935	0.587609
	H97	H	0.596141	0.888313	0.604361
	H98	H	0.599944	0.126154	0.409326
	H99	H	0.408524	0.890925	0.412005
	H100	H	0.591725	0.416141	0.117885
	H101	H	0.583934	0.593019	0.894100
	H102	H	0.399244	0.596544	0.122588
	H103	H	0.418468	0.412241	0.890860
	H104	H	0.120805	0.601585	0.404345
	H105	H	0.884705	0.596080	0.604190
	H106	H	0.116618	0.421040	0.594191
	H107	H	0.886143	0.413670	0.411551
	H108	H	0.905642	0.623833	0.085691
	H109	H	0.088925	0.389862	0.104716
	H110	H	0.091544	0.619270	0.928017
	H111	H	0.914653	0.394374	0.915440
	H112	H	0.100895	0.908098	0.621979
	H113	H	0.095289	0.104381	0.386592
	H114	H	0.910897	0.097631	0.617416
	H115	H	0.899880	0.918780	0.386777
	H116	H	0.620268	0.102813	0.909363
	H117	H	0.381653	0.108896	0.101281
	H118	H	0.617651	0.919513	0.095320
	H119	H	0.382576	0.908736	0.901028
	C120	C	0.382459	0.015995	0.624126
	C121	C	0.624989	0.998875	0.625718
	C122	C	0.624031	0.015526	0.382215
	C123	C	0.381404	0.999085	0.380850
	C124	C	0.624411	0.386453	0.011915
	C125	C	0.625516	0.630089	0.995495
	C126	C	0.381698	0.628385	0.011768
	C127	C	0.379696	0.384539	0.995504
	C128	C	0.011219	0.629890	0.380739
	C129	C	0.994172	0.628876	0.624753
	C130	C	0.011263	0.387069	0.624972
	C131	C	0.994770	0.386453	0.381674
	C132	C	0.882261	0.516231	0.124166
	C133	C	0.124362	0.499244	0.125083
	C134	C	0.123645	0.516482	0.882662
	C135	C	0.880570	0.499321	0.880966
	C136	C	0.124382	0.886547	0.510797
	C137	C	0.125662	0.130044	0.495069
	C138	C	0.881497	0.128730	0.511337
	C139	C	0.880424	0.885245	0.495133
	C140	C	0.511059	0.129092	0.882146
	C141	C	0.493991	0.128944	0.125322
	C142	C	0.511108	0.886437	0.124813
	C143	C	0.494521	0.886005	0.881488
	C144	C	0.383844	0.892529	0.679043
	C145	C	0.624034	0.122826	0.680134
	C146	C	0.621572	0.892060	0.326736
	C147	C	0.384484	0.122653	0.325810
	C148	C	0.678154	0.389024	0.889101
	C149	C	0.681850	0.628140	0.118017
	C150	C	0.325735	0.626130	0.889241
	C151	C	0.324877	0.386833	0.118127
	C152	C	0.887205	0.682701	0.384825
	C153	C	0.117572	0.684580	0.621684
	C154	C	0.888162	0.330509	0.621752
	C155	C	0.118461	0.332728	0.385481
	C156	C	0.888572	0.386728	0.680604
	C157	C	0.116968	0.628849	0.680969
	C158	C	0.887921	0.626419	0.325503
	C159	C	0.117958	0.390127	0.327713
	C160	C	0.383990	0.683274	0.888928
	C161	C	0.622962	0.684978	0.118433
	C162	C	0.619934	0.331601	0.889007
	C163	C	0.383689	0.330213	0.118549
	C164	C	0.677477	0.891483	0.385530
	C165	C	0.680396	0.122675	0.621928
	C166	C	0.327297	0.892295	0.620333
	C167	C	0.327266	0.122952	0.383248
	C168	C	0.883232	0.392442	0.179318
	C169	C	0.123009	0.622804	0.180290
	C170	C	0.121005	0.393322	0.826982
	C171	C	0.883390	0.623010	0.825815
	C172	C	0.178519	0.889387	0.388184
	C173	C	0.181684	0.127556	0.617634
	C174	C	0.826145	0.126225	0.388739
	C175	C	0.826070	0.887311	0.617985
	C176	C	0.387101	0.182032	0.885246
	C177	C	0.617550	0.184472	0.122241
	C178	C	0.387730	0.830295	0.121880
	C179	C	0.618058	0.832098	0.885837
	C180	C	0.388164	0.887442	0.180199
	C181	C	0.617317	0.128217	0.180848
	C182	C	0.388192	0.125874	0.825971
	C183	C	0.618041	0.888867	0.827410
	C184	C	0.884258	0.183988	0.388768
	C185	C	0.123248	0.184811	0.618172
	C186	C	0.119668	0.832309	0.387733
	C187	C	0.884510	0.830193	0.618048
	C188	C	0.177363	0.392673	0.885125
	C189	C	0.180922	0.622350	0.123173
	C190	C	0.826686	0.392234	0.121055
	C191	C	0.826060	0.623205	0.883357
	C192	C	0.405301	0.102605	0.602454
	C193	C	0.602252	0.912437	0.604331
	C194	C	0.602102	0.101890	0.404160
	C195	C	0.402994	0.912799	0.403120
	C196	C	0.603607	0.408443	0.097838
	C197	C	0.603092	0.607856	0.909979
	C198	C	0.404343	0.606054	0.097190
	C199	C	0.401252	0.406703	0.909753
	C200	C	0.097734	0.608611	0.402589
	C201	C	0.908376	0.605901	0.602540
	C202	C	0.097100	0.410144	0.603363
	C203	C	0.908817	0.408237	0.403239
	C204	C	0.905277	0.602187	0.102024
	C205	C	0.101460	0.412921	0.103372
	C206	C	0.102247	0.603030	0.904574
	C207	C	0.902686	0.413202	0.903550
	C208	C	0.103117	0.908601	0.596726
	C209	C	0.102938	0.107863	0.409473
	C210	C	0.903902	0.106490	0.596978
	C211	C	0.901356	0.907352	0.409173
	C212	C	0.597284	0.108291	0.904009
	C213	C	0.408324	0.106116	0.102966
	C214	C	0.596757	0.909288	0.102917
	C215	C	0.408354	0.907558	0.902332
	Zn216	Zn	0.503596	0.007876	0.753193
	Zn217	Zn	0.503089	0.007463	0.253481
	Zn218	Zn	0.754151	0.508053	0.003055
	Zn219	Zn	0.252264	0.507427	0.003554
	Zn220	Zn	0.002274	0.757157	0.503459
	Zn221	Zn	0.003539	0.258227	0.503664
	Zn222	Zn	0.002595	0.508276	0.753813
	Zn223	Zn	0.002679	0.507833	0.252735
	Zn224	Zn	0.502723	0.757942	0.003473
	Zn225	Zn	0.502144	0.257539	0.004221
	Zn226	Zn	0.751961	0.006978	0.503546
	Zn227	Zn	0.254264	0.008175	0.502425
	N228	N	0.417619	0.970490	0.681088
	N229	N	0.590157	0.044970	0.682617
	N230	N	0.588786	0.970301	0.324742
	N231	N	0.417408	0.044694	0.324298
	N232	N	0.681223	0.422315	0.966410
	N233	N	0.683602	0.594732	0.040525
	N234	N	0.324265	0.592741	0.966498
	N235	N	0.322254	0.419944	0.040554
	N236	N	0.964792	0.684862	0.418315
	N237	N	0.040444	0.684330	0.586996
	N238	N	0.965502	0.330636	0.587781
	N239	N	0.040888	0.330356	0.418510
	N240	N	0.965951	0.421262	0.682588
	N241	N	0.039269	0.594960	0.683087
	N242	N	0.966110	0.594375	0.323017
	N243	N	0.040123	0.423014	0.325361
	N244	N	0.418119	0.684786	0.966172
	N245	N	0.588652	0.686248	0.041389
	N246	N	0.587157	0.330072	0.966531
	N247	N	0.417049	0.328912	0.041464
	N248	N	0.679350	0.969307	0.419041
	N249	N	0.681061	0.044449	0.588744
	N250	N	0.326349	0.970261	0.587005
	N251	N	0.325481	0.045358	0.417118
	N252	N	0.916909	0.470364	0.181454
	N253	N	0.088631	0.545145	0.181795
	N254	N	0.088248	0.471342	0.825354
	N255	N	0.916414	0.544984	0.824278
	N256	N	0.181510	0.922473	0.465614
	N257	N	0.183403	0.094360	0.540099
	N258	N	0.824516	0.092444	0.465904
	N259	N	0.823492	0.920890	0.540586
	N260	N	0.464496	0.184391	0.919123
	N261	N	0.540147	0.184897	0.088150
	N262	N	0.465272	0.829329	0.088468
	N263	N	0.540545	0.830503	0.918985
	N264	N	0.465690	0.921685	0.181971
	N265	N	0.539636	0.094457	0.182905
	N266	N	0.466239	0.093529	0.824024
	N267	N	0.540212	0.921674	0.824531
	N268	N	0.918097	0.185623	0.466007
	N269	N	0.089026	0.186381	0.541009
	N270	N	0.086911	0.830363	0.465228
	N271	N	0.917628	0.829114	0.540819
	N272	N	0.179019	0.470313	0.919314
	N273	N	0.181660	0.544650	0.089472
	N274	N	0.826012	0.470093	0.087362
	N275	N	0.824240	0.545393	0.916891
	O276	O	0.447470	0.509144	0.476973
	H277	H	0.444078	0.515728	0.477785
	H278	H	0.450258	0.501884	0.476043
	O279	O	-0.037035	0.047031	0.051609
	H280	H	-0.039491	0.044878	0.057600
	H281	H	-0.040793	0.043581	0.054891
	O282	O	0.490116	0.551031	0.465543
	H283	H	0.500658	0.542650	0.460184
	H284	H	0.483162	0.554727	0.466166
	O285	O	0.518301	0.501786	0.523472
	H286	H	0.516122	0.507612	0.530472
	H287	H	0.523430	0.503760	0.522520
	O288	O	0.969285	-0.009898	0.059196
	H289	H	0.966890	-0.003725	0.059995
	H290	H	0.973016	-0.007395	0.063628
	O291	O	-0.441223	0.539617	-0.431940
	H292	H	-0.432420	0.548012	-0.429332
	H293	H	-0.440869	0.547588	-0.438102
	O294	O	0.479416	0.440130	0.513944
	H295	H	0.475436	0.432734	0.507979
	H296	H	0.473363	0.437698	0.517558
	O297	O	-0.032957	1.040721	0.087596
	H298	H	-0.031305	1.040804	0.082013
	H299	H	-0.030942	1.037868	0.093634
	O300	O	1.503916	-0.461251	0.542157
	H301	H	1.498258	-0.467016	0.540624
	H302	H	1.513757	-0.464167	0.540512
	O303	O	0.524876	0.538083	0.550457
	H304	H	0.519345	0.542578	0.552985
	H305	H	0.528352	0.537803	0.552781
	O306	O	-0.029415	1.022193	1.070101
	H307	H	-0.028288	1.027140	1.071205
	H308	H	-0.034082	1.015703	1.062879
	O309	O	0.526085	0.490062	0.540304
	H310	H	0.530025	0.488872	0.543126
	H311	H	0.528723	0.490404	0.550355
