data_Molecule from HDF5

_cell_length_a		16.087312
_cell_length_b		16.432730
_cell_length_c		16.181276
_cell_angle_alpha	89.782054
_cell_angle_beta	90.060711
_cell_angle_gamma	89.978583
_symmetry_space_group_name_H-M	'P 1'
_symmetry_Int_Tables_number		1

loop_
	_symmetry_equiv_pos_as_xyz
	x,y,z

loop_
	_atom_site_label
	_atom_site_type_symbol
	_atom_site_fract_x
	_atom_site_fract_y
	_atom_site_fract_z
	H0	H	0.404884	0.840547	0.709530
	H1	H	0.605062	0.165198	0.707903
	H2	H	0.604518	0.839799	0.277739
	H3	H	0.405370	0.164339	0.274456
	H4	H	0.718177	0.407679	0.825481
	H5	H	0.719230	0.596335	0.156953
	H6	H	0.294062	0.600598	0.826278
	H7	H	0.294069	0.406018	0.156860
	H8	H	0.842437	0.720052	0.386650
	H9	H	0.170441	0.717698	0.590925
	H10	H	0.841445	0.286490	0.593842
	H11	H	0.169446	0.286179	0.390005
	H12	H	0.840551	0.405508	0.704439
	H13	H	0.172653	0.599758	0.702048
	H14	H	0.840576	0.600092	0.278796
	H15	H	0.171342	0.405366	0.278898
	H16	H	0.403934	0.721622	0.829555
	H17	H	0.611010	0.718313	0.156089
	H18	H	0.608877	0.285898	0.827843
	H19	H	0.404651	0.285578	0.155144
	H20	H	0.720211	0.839482	0.394886
	H21	H	0.719536	0.166137	0.588867
	H22	H	0.290673	0.839007	0.591089
	H23	H	0.290804	0.165677	0.392696
	H24	H	0.906214	0.342123	0.208480
	H25	H	0.105731	0.665912	0.206331
	H26	H	0.105488	0.340353	0.775966
	H27	H	0.906827	0.665745	0.774865
	H28	H	0.218029	0.908599	0.326136
	H29	H	0.217432	0.097682	0.658233
	H30	H	0.792146	0.099979	0.326623
	H31	H	0.794970	0.906255	0.658028
	H32	H	0.342095	0.219513	0.889272
	H33	H	0.670954	0.217299	0.092741
	H34	H	0.342631	0.785111	0.094026
	H35	H	0.671442	0.788687	0.892592
	H36	H	0.339705	0.905477	0.203172
	H37	H	0.672081	0.097905	0.203205
	H38	H	0.339917	0.099911	0.779344
	H39	H	0.672028	0.906816	0.781126
	H40	H	0.901700	0.220764	0.328381
	H41	H	0.108767	0.220014	0.655005
	H42	H	0.107461	0.788713	0.326828
	H43	H	0.904645	0.784864	0.654653
	H44	H	0.221317	0.340152	0.893476
	H45	H	0.221731	0.665963	0.088939
	H46	H	0.794822	0.339818	0.088065
	H47	H	0.791391	0.665567	0.892294
	H48	H	0.415220	0.115685	0.582568
	H49	H	0.597659	0.885740	0.592445
	H50	H	0.594018	0.118942	0.390111
	H51	H	0.409694	0.886001	0.396157
	H52	H	0.599622	0.409520	0.108212
	H53	H	0.602727	0.600731	0.871750
	H54	H	0.416716	0.589177	0.106634
	H55	H	0.418444	0.412555	0.875723
	H56	H	0.123755	0.594157	0.400791
	H57	H	0.887529	0.594428	0.587052
	H58	H	0.126513	0.400033	0.581513
	H59	H	0.886480	0.411138	0.396492
	H60	H	0.119260	0.414614	0.572898
	H61	H	0.886130	0.600129	0.580724
	H62	H	0.125402	0.597383	0.395503
	H63	H	0.887547	0.407100	0.403036
	H64	H	0.421045	0.599650	0.109086
	H65	H	0.597953	0.592140	0.876200
	H66	H	0.597522	0.405365	0.109113
	H67	H	0.416582	0.406072	0.872940
	H68	H	0.595688	0.115046	0.403919
	H69	H	0.596896	0.889046	0.583317
	H70	H	0.408753	0.118031	0.584810
	H71	H	0.414895	0.887225	0.397281
	H72	H	0.919835	0.615773	0.077655
	H73	H	0.099816	0.388834	0.084543
	H74	H	0.096347	0.619815	0.887603
	H75	H	0.915773	0.390450	0.904035
	H76	H	0.102710	0.914927	0.608113
	H77	H	0.095558	0.099404	0.374492
	H78	H	0.914839	0.096224	0.608337
	H79	H	0.921759	0.905870	0.375091
	H80	H	0.625441	0.106451	0.906543
	H81	H	0.387783	0.097325	0.083076
	H82	H	0.624063	0.914136	0.087864
	H83	H	0.387102	0.903017	0.904004
	H84	H	0.626839	0.903524	0.087161
	H85	H	0.387589	0.095993	0.082373
	H86	H	0.619007	0.085559	0.906808
	H87	H	0.391947	0.913768	0.905911
	H88	H	0.914704	0.097502	0.609268
	H89	H	0.099693	0.097224	0.373630
	H90	H	0.087857	0.909564	0.605368
	H91	H	0.906403	0.904764	0.369721
	H92	H	0.094963	0.614868	0.901968
	H93	H	0.100328	0.387782	0.086697
	H94	H	0.903076	0.621249	0.081211
	H95	H	0.904820	0.384592	0.895647
	H96	H	0.414294	0.117846	0.589531
	H97	H	0.605443	0.886007	0.586021
	H98	H	0.607426	0.120519	0.396650
	H99	H	0.410970	0.888101	0.400026
	H100	H	0.601518	0.405943	0.109774
	H101	H	0.592391	0.601521	0.874772
	H102	H	0.409439	0.596799	0.111237
	H103	H	0.411603	0.410699	0.874006
	H104	H	0.124726	0.600289	0.401805
	H105	H	0.889762	0.592525	0.578690
	H106	H	0.124668	0.414929	0.590561
	H107	H	0.890377	0.414430	0.402633
	H108	H	0.916127	0.621420	0.095054
	H109	H	0.098512	0.388066	0.086183
	H110	H	0.108563	0.620915	0.897685
	H111	H	0.918701	0.387321	0.889621
	H112	H	0.098981	0.900336	0.611994
	H113	H	0.096515	0.094000	0.376235
	H114	H	0.913801	0.096402	0.609512
	H115	H	0.911635	0.918455	0.376816
	H116	H	0.626436	0.094714	0.888264
	H117	H	0.387113	0.096005	0.083564
	H118	H	0.622817	0.909279	0.077765
	H119	H	0.385547	0.911451	0.895485
	C120	C	0.383512	0.010008	0.614589
	C121	C	0.628299	0.994642	0.615017
	C122	C	0.627881	0.010447	0.369407
	C123	C	0.383280	0.994390	0.369226
	C124	C	0.628394	0.380248	-0.000001
	C125	C	0.627613	0.624942	0.983212
	C126	C	0.386132	0.624169	0.000551
	C127	C	0.385915	0.381059	0.982953
	C128	C	0.015353	0.625109	0.369656
	C129	C	0.997473	0.623829	0.610964
	C130	C	0.014513	0.381191	0.612036
	C131	C	0.997006	0.381828	0.370781
	C132	C	0.884628	0.512108	0.113234
	C133	C	0.128542	0.495294	0.113950
	C134	C	0.128737	0.511238	0.867956
	C135	C	0.884112	0.494913	0.867574
	C136	C	0.126659	0.880839	0.499784
	C137	C	0.126758	0.124860	0.483676
	C138	C	0.884607	0.124685	0.499935
	C139	C	0.884420	0.880888	0.482812
	C140	C	0.514702	0.124130	0.870912
	C141	C	0.497252	0.123827	0.112071
	C142	C	0.515312	0.880419	0.113501
	C143	C	0.497347	0.881360	0.872282
	C144	C	0.384935	0.888541	0.670877
	C145	C	0.625122	0.116733	0.669758
	C146	C	0.625090	0.888449	0.315287
	C147	C	0.385366	0.116173	0.313313
	C148	C	0.681866	0.385733	0.875352
	C149	C	0.682416	0.618912	0.107690
	C150	C	0.330602	0.622175	0.876218
	C151	C	0.330953	0.384498	0.107267
	C152	C	0.891468	0.681266	0.368838
	C153	C	0.121559	0.679389	0.610078
	C154	C	0.890528	0.325277	0.612305
	C155	C	0.120532	0.325119	0.370863
	C156	C	0.889992	0.384378	0.667285
	C157	C	0.122692	0.620600	0.665378
	C158	C	0.890481	0.621838	0.314909
	C159	C	0.121622	0.384700	0.315784
	C160	C	0.385626	0.681935	0.877803
	C161	C	0.628142	0.679398	0.107048
	C162	C	0.627710	0.324897	0.876522
	C163	C	0.386365	0.324831	0.106422
	C164	C	0.682535	0.888193	0.373873
	C165	C	0.682385	0.117209	0.610708
	C166	C	0.328211	0.887874	0.611902
	C167	C	0.328328	0.116829	0.372268
	C168	C	0.886802	0.390205	0.169269
	C169	C	0.126321	0.617445	0.168499
	C170	C	0.126083	0.389033	0.813607
	C171	C	0.886555	0.617222	0.812785
	C172	C	0.181731	0.885954	0.375625
	C173	C	0.181196	0.120155	0.608157
	C174	C	0.829049	0.121220	0.376303
	C175	C	0.830965	0.884470	0.607849
	C176	C	0.390863	0.180296	0.870932
	C177	C	0.621759	0.178604	0.111359
	C178	C	0.391260	0.824240	0.112934
	C179	C	0.621915	0.826674	0.873236
	C180	C	0.389789	0.883909	0.167234
	C181	C	0.622384	0.119356	0.166362
	C182	C	0.389803	0.121126	0.816121
	C183	C	0.622256	0.885217	0.817617
	C184	C	0.883756	0.181133	0.377020
	C185	C	0.126828	0.180899	0.606559
	C186	C	0.126219	0.826834	0.375807
	C187	C	0.885489	0.824144	0.606118
	C188	C	0.183861	0.388865	0.871974
	C189	C	0.183646	0.617546	0.109813
	C190	C	0.831001	0.389185	0.109647
	C191	C	0.829074	0.617249	0.871015
	C192	C	0.406106	0.095170	0.592189
	C193	C	0.606452	0.909063	0.593643
	C194	C	0.605740	0.096119	0.390635
	C195	C	0.405342	0.909173	0.391248
	C196	C	0.606221	0.400720	0.086695
	C197	C	0.604412	0.604067	0.896696
	C198	C	0.408844	0.601776	0.086768
	C199	C	0.408864	0.403036	0.896524
	C200	C	0.102438	0.603729	0.392536
	C201	C	0.910534	0.602127	0.588745
	C202	C	0.101030	0.403322	0.588442
	C203	C	0.910384	0.404226	0.393860
	C204	C	0.906604	0.597411	0.091152
	C205	C	0.106065	0.410012	0.092166
	C206	C	0.106339	0.596384	0.889366
	C207	C	0.906401	0.409722	0.889887
	C208	C	0.103344	0.901918	0.586095
	C209	C	0.103946	0.103346	0.397204
	C210	C	0.907833	0.103108	0.586694
	C211	C	0.906697	0.903072	0.396335
	C212	C	0.601421	0.101957	0.893902
	C213	C	0.410052	0.102555	0.089453
	C214	C	0.602087	0.902435	0.090909
	C215	C	0.410512	0.902972	0.895218
	Zn216	Zn	0.505404	0.002091	0.744440
	Zn217	Zn	0.505515	0.002422	0.239565
	Zn218	Zn	0.755613	0.502977	-0.008903
	Zn219	Zn	0.257717	0.502894	-0.008443
	Zn220	Zn	0.006009	0.752123	0.490434
	Zn221	Zn	0.005234	0.253512	0.491424
	Zn222	Zn	0.006278	0.502986	0.738324
	Zn223	Zn	0.006187	0.504037	0.243276
	Zn224	Zn	0.506773	0.753336	-0.007205
	Zn225	Zn	0.506460	0.252136	-0.008892
	Zn226	Zn	0.757137	0.002550	0.492430
	Zn227	Zn	0.254476	0.002479	0.492426
	N228	N	0.418674	0.965509	0.672612
	N229	N	0.592172	0.039416	0.672495
	N230	N	0.591854	0.965708	0.312247
	N231	N	0.418807	0.039253	0.311389
	N232	N	0.682483	0.419280	0.953148
	N233	N	0.682324	0.585796	0.029670
	N234	N	0.331062	0.586660	0.953444
	N235	N	0.330498	0.418787	0.029462
	N236	N	0.970081	0.683309	0.402349
	N237	N	0.042692	0.681674	0.576987
	N238	N	0.969153	0.323208	0.578660
	N239	N	0.042072	0.323407	0.404270
	N240	N	0.967986	0.418348	0.667269
	N241	N	0.044546	0.586867	0.666198
	N242	N	0.968492	0.587606	0.315348
	N243	N	0.043774	0.419443	0.315824
	N244	N	0.419306	0.683393	0.955979
	N245	N	0.594838	0.683283	0.028645
	N246	N	0.595071	0.321467	0.955043
	N247	N	0.419519	0.322591	0.028002
	N248	N	0.684298	0.965209	0.406842
	N249	N	0.684638	0.040170	0.577637
	N250	N	0.327322	0.964509	0.577519
	N251	N	0.326957	0.040009	0.406463
	N252	N	0.919326	0.467559	0.171772
	N253	N	0.092700	0.540395	0.170991
	N254	N	0.092591	0.465976	0.810994
	N255	N	0.919758	0.540149	0.810418
	N256	N	0.182098	0.918848	0.453667
	N257	N	0.181282	0.086012	0.530656
	N258	N	0.829720	0.086714	0.453940
	N259	N	0.830248	0.918923	0.530202
	N260	N	0.469531	0.182377	0.904212
	N261	N	0.542822	0.181651	0.078548
	N262	N	0.470351	0.821743	0.080613
	N263	N	0.543193	0.824178	0.906498
	N264	N	0.467840	0.918178	0.167652
	N265	N	0.543910	0.086091	0.166941
	N266	N	0.467839	0.086791	0.816086
	N267	N	0.543833	0.918569	0.817124
	N268	N	0.917641	0.183411	0.455075
	N269	N	0.093930	0.183917	0.528014
	N270	N	0.092673	0.823566	0.454077
	N271	N	0.918060	0.821792	0.527464
	N272	N	0.185546	0.465734	0.905330
	N273	N	0.185173	0.540571	0.076711
	N274	N	0.829455	0.465971	0.075398
	N275	N	0.827366	0.540240	0.904501
	O276	O	0.020587	0.069098	-0.007699
	H277	H	0.017230	0.077027	-0.011903
	H278	H	0.015067	0.062547	-0.001590
	O279	O	0.439316	0.406139	0.532324
	H280	H	0.438040	0.397176	0.546375
	H281	H	0.439325	0.405965	0.531064
	O282	O	0.536862	0.458466	0.388870
	H283	H	0.543677	0.459294	0.385030
	H284	H	0.545621	0.465414	0.387068
	O285	O	0.986304	0.013236	0.954987
	H286	H	0.992119	0.010901	0.949765
	H287	H	0.985816	0.010865	0.952813
	O288	O	1.029394	-0.002526	0.029452
	H289	H	1.029585	-0.008466	0.037209
	H290	H	1.029599	-0.002412	0.037880
	O291	O	0.508563	0.562601	0.407816
	H292	H	0.506218	0.564061	0.404840
	H293	H	0.506265	0.567288	0.411926
	O294	O	0.956241	-0.006796	0.959199
	H295	H	0.958310	-0.010424	0.961705
	H296	H	0.951310	-0.007222	0.953021
	O297	O	-0.023959	0.006575	0.023931
	H298	H	-0.030547	0.014594	0.027901
	H299	H	-0.029522	0.003020	0.029557
	O300	O	0.510563	0.399651	0.440462
	H301	H	0.506556	0.406765	0.445817
	H302	H	0.509459	0.407949	0.445840
	O303	O	0.558088	0.471717	0.464859
	H304	H	0.566353	0.474381	0.460089
	H305	H	0.557632	0.472557	0.461209
	O306	O	1.002350	0.061533	0.010872
	H307	H	1.000870	0.061043	0.014210
	H308	H	1.000822	0.063232	0.010051
	O309	O	-0.035577	0.076360	0.975982
	H310	H	-0.039579	0.079867	0.966063
	H311	H	-0.042810	0.077384	0.967052
	O312	O	1.551518	0.575573	1.520500
	H313	H	1.544951	0.583737	1.515391
	H314	H	1.548122	0.577050	1.520113
	O315	O	0.482662	0.591239	0.493751
	H316	H	0.481520	0.598311	0.499054
	H317	H	0.480964	0.593447	0.490922
	O318	O	0.482858	0.533674	0.497867
	H319	H	0.483077	0.536284	0.495616
	H320	H	0.492365	0.538308	0.500545
	O321	O	0.019594	1.090477	0.959766
	H322	H	0.025944	1.097587	0.966815
	H323	H	0.028576	1.092555	0.959149
	O324	O	0.479665	0.478257	0.538461
	H325	H	0.482620	0.480165	0.532795
	H326	H	0.473398	0.479731	0.541017
	O327	O	0.478096	0.515528	0.456962
	H328	H	0.486287	0.514476	0.449953
	H329	H	0.472451	0.523929	0.454835
	O330	O	0.470430	0.558634	0.494284
	H331	H	0.462597	0.553599	0.497160
	H332	H	0.475340	0.562714	0.495435
	O333	O	0.500593	0.467753	0.605934
	H334	H	0.492721	0.457238	0.609563
	H335	H	0.486699	0.463810	0.612056
	O336	O	0.547792	0.579409	0.497024
	H337	H	0.552820	0.577970	0.496676
	H338	H	0.549054	0.577706	0.490737
	O339	O	1.005867	0.977133	-0.044146
	H340	H	1.009853	0.983464	-0.035353
	H341	H	1.004403	0.974622	-0.048144
	O342	O	0.450206	0.446978	0.547416
	H343	H	0.438952	0.434055	0.543550
	H344	H	0.457866	0.437597	0.547947
	O345	O	0.498561	0.540214	0.510124
	H346	H	0.496302	0.535055	0.511855
	H347	H	0.501839	0.529216	0.512572
	O348	O	-0.510360	0.410018	0.476797
	H349	H	-0.516462	0.413706	0.468219
	H350	H	-0.506293	0.414006	0.473890
	O351	O	-0.013358	1.006492	1.005509
	H352	H	-0.015861	1.011205	1.008941
	H353	H	-0.014525	1.000042	1.002226
	O354	O	0.528276	0.551727	0.527080
	H355	H	0.522588	0.544212	0.525693
	H356	H	0.537533	0.548497	0.530560
	O357	O	-0.030965	1.055046	0.967531
	H358	H	-0.034492	1.054727	0.958910
	H359	H	-0.029881	1.064784	0.968652
