data_Molecule from HDF5

_cell_length_a		16.240967
_cell_length_b		16.277675
_cell_length_c		16.298734
_cell_angle_alpha	89.857742
_cell_angle_beta	89.963093
_cell_angle_gamma	89.983669
_symmetry_space_group_name_H-M	'P 1'
_symmetry_Int_Tables_number		1

loop_
	_symmetry_equiv_pos_as_xyz
	x,y,z

loop_
	_atom_site_label
	_atom_site_type_symbol
	_atom_site_fract_x
	_atom_site_fract_y
	_atom_site_fract_z
	H0	H	0.413710	0.834233	0.712304
	H1	H	0.609827	0.161886	0.711508
	H2	H	0.611889	0.834271	0.283666
	H3	H	0.410936	0.160886	0.280430
	H4	H	0.726752	0.400453	0.833445
	H5	H	0.726370	0.595664	0.160296
	H6	H	0.298553	0.596321	0.833390
	H7	H	0.297404	0.398047	0.159759
	H8	H	0.847896	0.711307	0.400068
	H9	H	0.176568	0.712135	0.595283
	H10	H	0.847710	0.285330	0.596088
	H11	H	0.175216	0.284317	0.399568
	H12	H	0.849196	0.398792	0.712830
	H13	H	0.177096	0.595274	0.709966
	H14	H	0.848032	0.597210	0.283252
	H15	H	0.176095	0.399459	0.283795
	H16	H	0.414898	0.712000	0.833011
	H17	H	0.612561	0.712781	0.160126
	H18	H	0.611921	0.283723	0.834462
	H19	H	0.413170	0.282774	0.160380
	H20	H	0.726354	0.834426	0.401538
	H21	H	0.724342	0.163077	0.594290
	H22	H	0.297405	0.834755	0.597330
	H23	H	0.298341	0.162097	0.399436
	H24	H	0.913821	0.335142	0.212965
	H25	H	0.110153	0.662428	0.211310
	H26	H	0.112047	0.334881	0.782287
	H27	H	0.914498	0.661784	0.782840
	H28	H	0.226959	0.900318	0.333906
	H29	H	0.224702	0.095187	0.661566
	H30	H	0.799277	0.095690	0.333965
	H31	H	0.799531	0.901707	0.661661
	H32	H	0.348422	0.212500	0.899519
	H33	H	0.676505	0.212046	0.096105
	H34	H	0.349043	0.781639	0.096683
	H35	H	0.676638	0.785417	0.900114
	H36	H	0.348417	0.898853	0.212629
	H37	H	0.676148	0.095967	0.211131
	H38	H	0.348189	0.097363	0.782767
	H39	H	0.676213	0.900317	0.784213
	H40	H	0.913936	0.212548	0.333824
	H41	H	0.109497	0.211998	0.660990
	H42	H	0.110576	0.784541	0.333672
	H43	H	0.913663	0.783888	0.660811
	H44	H	0.225765	0.334343	0.899946
	H45	H	0.226852	0.661700	0.094664
	H46	H	0.799285	0.334243	0.095178
	H47	H	0.799559	0.662292	0.900296
	H48	H	0.419809	0.115930	0.594811
	H49	H	0.602510	0.881590	0.593224
	H50	H	0.605243	0.116216	0.398577
	H51	H	0.420934	0.880156	0.399923
	H52	H	0.599947	0.403882	0.111990
	H53	H	0.615546	0.585826	0.878992
	H54	H	0.419427	0.598110	0.115275
	H55	H	0.420934	0.409398	0.881967
	H56	H	0.129179	0.581425	0.393688
	H57	H	0.896688	0.582609	0.596430
	H58	H	0.123388	0.415865	0.581696
	H59	H	0.894555	0.409700	0.400825
	H60	H	0.133356	0.407381	0.603732
	H61	H	0.891979	0.599334	0.595391
	H62	H	0.133824	0.604527	0.401564
	H63	H	0.893261	0.401338	0.402191
	H64	H	0.414198	0.585059	0.113833
	H65	H	0.597314	0.588203	0.883963
	H66	H	0.608075	0.399226	0.116711
	H67	H	0.423398	0.401530	0.880815
	H68	H	0.600573	0.113021	0.405627
	H69	H	0.607377	0.882659	0.587452
	H70	H	0.420764	0.113698	0.589460
	H71	H	0.425436	0.884805	0.408088
	H72	H	0.913475	0.615727	0.086140
	H73	H	0.102960	0.381573	0.093360
	H74	H	0.112198	0.618978	0.896894
	H75	H	0.913694	0.379319	0.903760
	H76	H	0.103617	0.907179	0.612795
	H77	H	0.117913	0.095147	0.375928
	H78	H	0.918108	0.092389	0.614647
	H79	H	0.905311	0.901814	0.376110
	H80	H	0.633486	0.098310	0.893836
	H81	H	0.397960	0.088032	0.085011
	H82	H	0.630805	0.902529	0.092811
	H83	H	0.397937	0.912302	0.908207
	H84	H	0.627896	0.904366	0.088039
	H85	H	0.395275	0.087675	0.093773
	H86	H	0.628171	0.096411	0.914550
	H87	H	0.392220	0.904378	0.894848
	H88	H	0.918923	0.092862	0.614453
	H89	H	0.102975	0.079091	0.385604
	H90	H	0.103166	0.903169	0.613325
	H91	H	0.921591	0.917906	0.384718
	H92	H	0.095470	0.612843	0.900315
	H93	H	0.104603	0.382660	0.088538
	H94	H	0.919429	0.617190	0.098153
	H95	H	0.922994	0.381211	0.899129
	H96	H	0.415324	0.115822	0.590718
	H97	H	0.609066	0.879910	0.594562
	H98	H	0.608670	0.115591	0.406663
	H99	H	0.415603	0.881951	0.409084
	H100	H	0.608950	0.409602	0.113370
	H101	H	0.607519	0.603007	0.876966
	H102	H	0.427515	0.587699	0.109691
	H103	H	0.416317	0.404037	0.878980
	H104	H	0.124173	0.588066	0.417189
	H105	H	0.898275	0.591199	0.581196
	H106	H	0.130874	0.391417	0.583904
	H107	H	0.896018	0.405919	0.409030
	H108	H	0.926056	0.612850	0.087345
	H109	H	0.108193	0.380491	0.091523
	H110	H	0.107753	0.612553	0.913315
	H111	H	0.921840	0.383237	0.909131
	H112	H	0.106676	0.905036	0.614219
	H113	H	0.095410	0.101124	0.381415
	H114	H	0.917587	0.093090	0.615096
	H115	H	0.927682	0.894820	0.379985
	H116	H	0.626358	0.079018	0.901371
	H117	H	0.394207	0.095403	0.089353
	H118	H	0.629212	0.907564	0.092069
	H119	H	0.393138	0.896513	0.909569
	C120	C	0.390342	0.006609	0.619819
	C121	C	0.634163	0.989981	0.619444
	C122	C	0.633764	0.006684	0.375726
	C123	C	0.391012	0.990044	0.376245
	C124	C	0.634132	0.376360	0.005824
	C125	C	0.634564	0.619901	0.988390
	C126	C	0.391709	0.618998	0.004800
	C127	C	0.391204	0.376164	0.988461
	C128	C	0.020441	0.619664	0.375958
	C129	C	1.004197	0.619404	0.618758
	C130	C	0.020796	0.376895	0.618353
	C131	C	1.003045	0.377238	0.376115
	C132	C	0.890901	0.507084	0.119055
	C133	C	0.134367	0.489666	0.119401
	C134	C	0.134051	0.506638	0.875437
	C135	C	0.891190	0.489460	0.875509
	C136	C	0.133435	0.876683	0.505532
	C137	C	0.133790	0.119847	0.489127
	C138	C	0.890060	0.120818	0.506204
	C139	C	0.890414	0.876935	0.488879
	C140	C	0.520871	0.119861	0.875231
	C141	C	0.504021	0.119003	0.118211
	C142	C	0.521015	0.875615	0.119528
	C143	C	0.503477	0.876915	0.876621
	C144	C	0.393091	0.883170	0.674601
	C145	C	0.630842	0.113153	0.674054
	C146	C	0.632035	0.883302	0.321372
	C147	C	0.391740	0.112548	0.319671
	C148	C	0.689266	0.379729	0.882512
	C149	C	0.688863	0.616737	0.111655
	C150	C	0.336247	0.617010	0.882183
	C151	C	0.335143	0.377859	0.111097
	C152	C	0.896957	0.674193	0.378982
	C153	C	0.127579	0.674818	0.615887
	C154	C	0.896997	0.322895	0.615648
	C155	C	0.126564	0.322003	0.378649
	C156	C	0.897609	0.379145	0.674052
	C157	C	0.127924	0.616551	0.672707
	C158	C	0.897169	0.617465	0.320886
	C159	C	0.126877	0.379298	0.321257
	C160	C	0.394227	0.674348	0.881929
	C161	C	0.632212	0.674913	0.111300
	C162	C	0.632056	0.321839	0.882799
	C163	C	0.393238	0.320832	0.111444
	C164	C	0.688925	0.883343	0.379919
	C165	C	0.687853	0.113753	0.615829
	C166	C	0.335527	0.883454	0.617353
	C167	C	0.335447	0.113029	0.378713
	C168	C	0.893769	0.383674	0.174259
	C169	C	0.131283	0.613235	0.173818
	C170	C	0.131801	0.383523	0.820648
	C171	C	0.894004	0.613038	0.820828
	C172	C	0.189178	0.879507	0.382634
	C173	C	0.187639	0.116285	0.612450
	C174	C	0.836006	0.117364	0.382936
	C175	C	0.836415	0.880419	0.612350
	C176	C	0.397231	0.174834	0.878611
	C177	C	0.627572	0.174085	0.116365
	C178	C	0.397844	0.819848	0.117062
	C179	C	0.627488	0.822871	0.879601
	C180	C	0.397332	0.878072	0.174516
	C181	C	0.627274	0.116807	0.173883
	C182	C	0.397033	0.117429	0.820907
	C183	C	0.627305	0.879814	0.822029
	C184	C	0.893334	0.175104	0.382748
	C185	C	0.130574	0.174524	0.612124
	C186	C	0.131131	0.822223	0.382416
	C187	C	0.893131	0.821911	0.612025
	C188	C	0.188588	0.383306	0.878909
	C189	C	0.189163	0.612870	0.115929
	C190	C	0.836708	0.383453	0.116118
	C191	C	0.837163	0.613321	0.879188
	C192	C	0.412280	0.092692	0.598075
	C193	C	0.612684	0.903647	0.598112
	C194	C	0.611341	0.092769	0.397167
	C195	C	0.413990	0.904425	0.398858
	C196	C	0.612160	0.397951	0.091776
	C197	C	0.613192	0.598668	0.902308
	C198	C	0.413770	0.596575	0.090720
	C199	C	0.413433	0.398460	0.902710
	C200	C	0.106826	0.597927	0.397841
	C201	C	0.917904	0.597517	0.597311
	C202	C	0.107086	0.398757	0.596372
	C203	C	0.916940	0.399173	0.397691
	C204	C	0.913059	0.593097	0.096931
	C205	C	0.111953	0.403652	0.097630
	C206	C	0.111731	0.592813	0.897148
	C207	C	0.912982	0.403507	0.897556
	C208	C	0.110912	0.898481	0.591211
	C209	C	0.111924	0.098144	0.403114
	C210	C	0.911749	0.099137	0.592623
	C211	C	0.912002	0.898523	0.402392
	C212	C	0.607202	0.097726	0.896768
	C213	C	0.418011	0.096571	0.096111
	C214	C	0.606978	0.898135	0.097539
	C215	C	0.416961	0.898176	0.897774
	Zn216	Zn	0.512080	-0.002403	0.747858
	Zn217	Zn	0.512211	-0.001952	0.247290
	Zn218	Zn	0.762466	0.498042	-0.002933
	Zn219	Zn	0.262238	0.497972	-0.003337
	Zn220	Zn	0.011890	0.748093	0.497076
	Zn221	Zn	0.011815	0.248614	0.497343
	Zn222	Zn	0.012949	0.497739	0.746810
	Zn223	Zn	0.012219	0.498612	0.247918
	Zn224	Zn	0.512788	0.747957	-0.003248
	Zn225	Zn	0.513077	0.247582	-0.002687
	Zn226	Zn	0.762058	-0.001182	0.497896
	Zn227	Zn	0.262424	-0.001842	0.497870
	N228	N	0.426597	0.960677	0.676204
	N229	N	0.598028	0.035292	0.676272
	N230	N	0.598241	0.960767	0.318916
	N231	N	0.425809	0.035125	0.318274
	N232	N	0.690513	0.413088	0.960124
	N233	N	0.690392	0.583057	0.034483
	N234	N	0.334671	0.583159	0.959674
	N235	N	0.333861	0.411684	0.033692
	N236	N	0.974687	0.675601	0.412563
	N237	N	0.049549	0.676612	0.582810
	N238	N	0.974593	0.321247	0.581823
	N239	N	0.048790	0.320635	0.412182
	N240	N	0.975573	0.412029	0.675771
	N241	N	0.050314	0.582820	0.674588
	N242	N	0.974996	0.584017	0.319295
	N243	N	0.049251	0.413035	0.319503
	N244	N	0.427769	0.675783	0.959339
	N245	N	0.599100	0.676837	0.033602
	N246	N	0.598541	0.319743	0.960170
	N247	N	0.427481	0.319586	0.034188
	N248	N	0.690134	0.961057	0.412803
	N249	N	0.689850	0.036118	0.582566
	N250	N	0.333851	0.961009	0.583742
	N251	N	0.335074	0.035808	0.413335
	N252	N	0.926646	0.461524	0.176367
	N253	N	0.097941	0.535483	0.176091
	N254	N	0.098442	0.461235	0.818755
	N255	N	0.926888	0.535130	0.818481
	N256	N	0.190457	0.912784	0.460227
	N257	N	0.189686	0.083181	0.534863
	N258	N	0.834061	0.084302	0.460627
	N259	N	0.834694	0.913772	0.534795
	N260	N	0.475169	0.176303	0.911710
	N261	N	0.550082	0.175476	0.082477
	N262	N	0.475698	0.818139	0.083743
	N263	N	0.549725	0.820790	0.912638
	N264	N	0.474942	0.911711	0.176279
	N265	N	0.549541	0.083075	0.175082
	N266	N	0.474802	0.084127	0.818523
	N267	N	0.549277	0.913083	0.820247
	N268	N	0.926191	0.177237	0.460622
	N269	N	0.097740	0.176866	0.534428
	N270	N	0.097578	0.820187	0.459860
	N271	N	0.926026	0.819641	0.534167
	N272	N	0.190048	0.460773	0.912175
	N273	N	0.191076	0.535068	0.083029
	N274	N	0.834767	0.461162	0.082526
	N275	N	0.835343	0.535665	0.912654
	O276	O	-0.561267	0.530885	1.424966
	H277	H	-0.567765	0.532668	1.421440
	H278	H	-0.554952	0.533061	1.418177
	O279	O	0.534065	0.556016	0.466885
	H280	H	0.532015	0.565716	0.462171
	H281	H	0.537868	0.549636	0.464884
	O282	O	0.444012	0.504030	0.403702
	H283	H	0.437257	0.507822	0.402720
	H284	H	0.443174	0.510175	0.405992
	O285	O	0.489322	0.505006	0.483126
	H286	H	0.485409	0.509261	0.480322
	H287	H	0.488102	0.503579	0.496150
	O288	O	0.457058	0.465866	0.490991
	H289	H	0.448065	0.460642	0.485898
	H290	H	0.466324	0.460837	0.494779
	O291	O	-0.518255	1.491877	0.453547
	H292	H	-0.519530	1.491732	0.453495
	H293	H	-0.517164	1.487498	0.453745
	O294	O	0.468213	0.505176	0.479516
	H295	H	0.469687	0.501512	0.472268
	H296	H	0.469086	0.507768	0.478454
	O297	O	0.476492	-0.467040	0.491829
	H298	H	0.475222	-0.468863	0.488924
	H299	H	0.479154	-0.472162	0.493465
