data_Molecule from HDF5

_cell_length_a		16.327066
_cell_length_b		16.249090
_cell_length_c		16.293092
_cell_angle_alpha	89.725647
_cell_angle_beta	89.653320
_cell_angle_gamma	90.339464
_symmetry_space_group_name_H-M	'P 1'
_symmetry_Int_Tables_number		1

loop_
	_symmetry_equiv_pos_as_xyz
	x,y,z

loop_
	_atom_site_label
	_atom_site_type_symbol
	_atom_site_fract_x
	_atom_site_fract_y
	_atom_site_fract_z
	H0	H	0.395025	0.833665	0.713935
	H1	H	0.598007	0.159724	0.707774
	H2	H	0.598347	0.831919	0.279409
	H3	H	0.397819	0.157317	0.275159
	H4	H	0.722290	0.389395	0.835083
	H5	H	0.717583	0.594423	0.157687
	H6	H	0.284711	0.598884	0.833327
	H7	H	0.282068	0.390237	0.156357
	H8	H	0.837863	0.709824	0.393824
	H9	H	0.161387	0.714129	0.593464
	H10	H	0.838732	0.275543	0.598828
	H11	H	0.162230	0.280362	0.395001
	H12	H	0.839349	0.389628	0.715886
	H13	H	0.162409	0.598137	0.709637
	H14	H	0.839002	0.595644	0.277260
	H15	H	0.162429	0.395171	0.278583
	H16	H	0.403165	0.711693	0.833421
	H17	H	0.603832	0.712321	0.157140
	H18	H	0.602451	0.280459	0.831844
	H19	H	0.399221	0.276900	0.156428
	H20	H	0.717087	0.833680	0.390228
	H21	H	0.716561	0.158610	0.594030
	H22	H	0.279900	0.833418	0.597249
	H23	H	0.283354	0.159433	0.393661
	H24	H	0.899299	0.331597	0.214192
	H25	H	0.101010	0.657429	0.208797
	H26	H	0.103770	0.332737	0.775537
	H27	H	0.901623	0.657103	0.779145
	H28	H	0.217383	0.895483	0.334325
	H29	H	0.215382	0.099150	0.657201
	H30	H	0.785067	0.097108	0.331700
	H31	H	0.778941	0.891234	0.655295
	H32	H	0.339262	0.213413	0.891964
	H33	H	0.661733	0.212507	0.094802
	H34	H	0.339361	0.774612	0.098471
	H35	H	0.663021	0.780677	0.893299
	H36	H	0.337835	0.890640	0.214045
	H37	H	0.661892	0.097825	0.211140
	H38	H	0.336731	0.096240	0.780611
	H39	H	0.660231	0.895191	0.774509
	H40	H	0.900644	0.212587	0.333047
	H41	H	0.100655	0.212455	0.656956
	H42	H	0.099332	0.782706	0.331579
	H43	H	0.895244	0.775774	0.655522
	H44	H	0.216992	0.331142	0.893949
	H45	H	0.218303	0.656592	0.094833
	H46	H	0.780325	0.332609	0.102372
	H47	H	0.783950	0.656049	0.893260
	H48	H	0.411354	0.111376	0.589122
	H49	H	0.587312	0.880825	0.586195
	H50	H	0.591193	0.110435	0.401576
	H51	H	0.408110	0.880702	0.405526
	H52	H	0.582085	0.403041	0.107449
	H53	H	0.582128	0.592952	0.881192
	H54	H	0.410615	0.580763	0.108420
	H55	H	0.413460	0.396716	0.877354
	H56	H	0.120232	0.593322	0.392404
	H57	H	0.884504	0.588047	0.583950
	H58	H	0.111578	0.408015	0.577464
	H59	H	0.885550	0.409764	0.401834
	H60	H	0.115175	0.409901	0.592064
	H61	H	0.886310	0.580778	0.585072
	H62	H	0.115881	0.596219	0.408244
	H63	H	0.882614	0.399350	0.402142
	H64	H	0.411513	0.587241	0.111465
	H65	H	0.604088	0.592677	0.875458
	H66	H	0.593597	0.397021	0.114102
	H67	H	0.400852	0.405110	0.876903
	H68	H	0.590885	0.111347	0.402885
	H69	H	0.587368	0.880941	0.583724
	H70	H	0.407024	0.110861	0.581704
	H71	H	0.405569	0.881085	0.407656
	H72	H	0.916439	0.606579	0.082306
	H73	H	0.091814	0.375812	0.093027
	H74	H	0.099681	0.614717	0.893849
	H75	H	0.912942	0.379003	0.903632
	H76	H	0.090840	0.905541	0.610944
	H77	H	0.088138	0.079320	0.382975
	H78	H	0.908172	0.084699	0.609693
	H79	H	0.913841	0.901070	0.379518
	H80	H	0.617186	0.080647	0.888680
	H81	H	0.382451	0.092009	0.088511
	H82	H	0.612820	0.916388	0.091336
	H83	H	0.382403	0.902342	0.900642
	H84	H	0.620825	0.895065	0.095208
	H85	H	0.388142	0.083769	0.077061
	H86	H	0.620158	0.100625	0.900462
	H87	H	0.384420	0.898546	0.907404
	H88	H	0.905891	0.087466	0.611151
	H89	H	0.085613	0.095414	0.378422
	H90	H	0.085667	0.907263	0.608939
	H91	H	0.902463	0.899622	0.374788
	H92	H	0.084072	0.607020	0.901813
	H93	H	0.086060	0.380496	0.085239
	H94	H	0.903642	0.610526	0.080715
	H95	H	0.913139	0.380086	0.908925
	H96	H	0.402819	0.113427	0.588721
	H97	H	0.589291	0.880335	0.585521
	H98	H	0.591948	0.111831	0.401993
	H99	H	0.405179	0.880019	0.404338
	H100	H	0.593830	0.410402	0.108939
	H101	H	0.594223	0.573652	0.883501
	H102	H	0.405625	0.583634	0.111991
	H103	H	0.413573	0.411738	0.882424
	H104	H	0.114427	0.580437	0.401357
	H105	H	0.884309	0.585199	0.591177
	H106	H	0.117870	0.396616	0.585649
	H107	H	0.886765	0.403757	0.411217
	H108	H	0.908841	0.611572	0.092695
	H109	H	0.096526	0.377615	0.083387
	H110	H	0.099341	0.609007	0.912202
	H111	H	0.908546	0.378173	0.906649
	H112	H	0.086220	0.901905	0.611339
	H113	H	0.100853	0.088753	0.376485
	H114	H	0.905445	0.083538	0.610168
	H115	H	0.905619	0.911746	0.379820
	H116	H	0.610817	0.082219	0.910966
	H117	H	0.385549	0.077104	0.090284
	H118	H	0.612700	0.900847	0.073953
	H119	H	0.386626	0.906010	0.906552
	C120	C	0.376131	0.004495	0.617207
	C121	C	0.619341	0.987772	0.614866
	C122	C	0.620729	0.003708	0.372424
	C123	C	0.376825	0.987593	0.374085
	C124	C	0.621667	0.373032	0.003564
	C125	C	0.623660	0.616516	0.987076
	C126	C	0.379776	0.615480	0.003954
	C127	C	0.378599	0.372531	0.985814
	C128	C	0.009125	0.617604	0.371960
	C129	C	0.991673	0.616754	0.616207
	C130	C	0.008614	0.372963	0.617015
	C131	C	0.991594	0.374380	0.374502
	C132	C	0.878776	0.502397	0.117218
	C133	C	0.122059	0.485497	0.116090
	C134	C	0.123748	0.502892	0.872612
	C135	C	0.880571	0.485672	0.875013
	C136	C	0.118847	0.875323	0.503432
	C137	C	0.121015	0.117704	0.486521
	C138	C	0.877851	0.116481	0.503287
	C139	C	0.876145	0.872971	0.485063
	C140	C	0.508435	0.117387	0.871867
	C141	C	0.491982	0.115557	0.115190
	C142	C	0.508744	0.872365	0.117621
	C143	C	0.491298	0.873383	0.873870
	C144	C	0.375890	0.882216	0.674800
	C145	C	0.618694	0.110580	0.670595
	C146	C	0.618857	0.880923	0.316819
	C147	C	0.378240	0.109224	0.314828
	C148	C	0.681480	0.371901	0.882691
	C149	C	0.679552	0.614852	0.108985
	C150	C	0.323649	0.616973	0.881830
	C151	C	0.321368	0.371811	0.107985
	C152	C	0.886680	0.672313	0.373706
	C153	C	0.113090	0.675197	0.613804
	C154	C	0.887174	0.314303	0.617933
	C155	C	0.113830	0.318457	0.375377
	C156	C	0.887534	0.371023	0.676400
	C157	C	0.113588	0.617139	0.671449
	C158	C	0.887386	0.615597	0.315640
	C159	C	0.114025	0.375383	0.317521
	C160	C	0.382218	0.673409	0.881763
	C161	C	0.622826	0.673450	0.108815
	C162	C	0.622008	0.317422	0.881160
	C163	C	0.379274	0.314971	0.107735
	C164	C	0.677606	0.881883	0.372481
	C165	C	0.677361	0.110020	0.613634
	C166	C	0.318427	0.882269	0.617097
	C167	C	0.321047	0.110178	0.373685
	C168	C	0.879261	0.380390	0.175740
	C169	C	0.121225	0.608587	0.171223
	C170	C	0.122759	0.381051	0.814965
	C171	C	0.881332	0.608101	0.817415
	C172	C	0.177628	0.876229	0.381941
	C173	C	0.177441	0.118052	0.608496
	C174	C	0.823059	0.116413	0.380532
	C175	C	0.817855	0.872031	0.606852
	C176	C	0.387190	0.174337	0.873233
	C177	C	0.613323	0.173487	0.114362
	C178	C	0.387262	0.813954	0.117764
	C179	C	0.613966	0.818568	0.873901
	C180	C	0.386681	0.871683	0.175376
	C181	C	0.613324	0.116170	0.172375
	C182	C	0.386065	0.115983	0.817555
	C183	C	0.612531	0.875256	0.814520
	C184	C	0.880467	0.174006	0.381277
	C185	C	0.120106	0.174310	0.608394
	C186	C	0.118753	0.820218	0.380748
	C187	C	0.875755	0.814773	0.606960
	C188	C	0.179690	0.380444	0.873470
	C189	C	0.179476	0.608012	0.114448
	C190	C	0.820130	0.380891	0.119722
	C191	C	0.822793	0.607494	0.874365
	C192	C	0.400125	0.089718	0.593448
	C193	C	0.595107	0.902722	0.591761
	C194	C	0.598073	0.089088	0.395266
	C195	C	0.399565	0.902594	0.398673
	C196	C	0.597120	0.396561	0.088011
	C197	C	0.600294	0.593292	0.902181
	C198	C	0.402633	0.591094	0.088437
	C199	C	0.402490	0.397097	0.900948
	C200	C	0.094577	0.596087	0.393986
	C201	C	0.906976	0.591999	0.593293
	C202	C	0.092984	0.397663	0.592456
	C203	C	0.907015	0.397418	0.398090
	C204	C	0.902688	0.587562	0.092488
	C205	C	0.098514	0.400052	0.093735
	C206	C	0.100984	0.588148	0.895722
	C207	C	0.904409	0.401057	0.899415
	C208	C	0.094710	0.898158	0.588484
	C209	C	0.098291	0.094496	0.401494
	C210	C	0.899845	0.092345	0.588343
	C211	C	0.900227	0.897185	0.400176
	C212	C	0.593821	0.094478	0.893864
	C213	C	0.407161	0.091366	0.092086
	C214	C	0.593454	0.896906	0.093711
	C215	C	0.406571	0.895710	0.897791
	Zn216	Zn	0.498314	-0.003795	0.744345
	Zn217	Zn	0.499571	-0.005164	0.245145
	Zn218	Zn	0.750426	0.493289	-0.004360
	Zn219	Zn	0.251228	0.494153	-0.005006
	Zn220	Zn	-0.001025	0.745659	0.493666
	Zn221	Zn	0.000112	0.245055	0.495243
	Zn222	Zn	0.000873	0.494781	0.745022
	Zn223	Zn	0.000808	0.494831	0.245195
	Zn224	Zn	0.501339	0.744244	-0.004353
	Zn225	Zn	0.500749	0.244819	-0.006509
	Zn226	Zn	0.748888	-0.004642	0.493467
	Zn227	Zn	0.247681	-0.003431	0.496281
	N228	N	0.410814	0.959340	0.675073
	N229	N	0.583409	0.033478	0.671675
	N230	N	0.584032	0.957704	0.316755
	N231	N	0.412022	0.031829	0.314700
	N232	N	0.681364	0.405697	0.959643
	N233	N	0.680100	0.580254	0.032234
	N234	N	0.321951	0.581610	0.958774
	N235	N	0.320737	0.406825	0.031072
	N236	N	0.963431	0.673894	0.407734
	N237	N	0.036174	0.674941	0.580062
	N238	N	0.963446	0.315377	0.581666
	N239	N	0.036816	0.317692	0.410151
	N240	N	0.964012	0.406943	0.675753
	N241	N	0.036943	0.581556	0.673083
	N242	N	0.964675	0.582493	0.314177
	N243	N	0.037239	0.409583	0.316844
	N244	N	0.416463	0.672662	0.958629
	N245	N	0.588833	0.674677	0.031713
	N246	N	0.585325	0.317837	0.957384
	N247	N	0.414141	0.315233	0.030699
	N248	N	0.678868	0.959274	0.406411
	N249	N	0.678162	0.032476	0.579983
	N250	N	0.318311	0.959369	0.582248
	N251	N	0.320034	0.033615	0.409931
	N252	N	0.915091	0.457188	0.174379
	N253	N	0.086176	0.531598	0.172449
	N254	N	0.088864	0.458478	0.814046
	N255	N	0.916396	0.531328	0.817537
	N256	N	0.177572	0.909847	0.459139
	N257	N	0.177964	0.083255	0.531692
	N258	N	0.821222	0.081443	0.457413
	N259	N	0.818094	0.907463	0.530114
	N260	N	0.464468	0.175470	0.906238
	N261	N	0.536859	0.173168	0.079465
	N262	N	0.463978	0.814239	0.082569
	N263	N	0.537830	0.817485	0.910228
	N264	N	0.463313	0.907410	0.175209
	N265	N	0.536646	0.080802	0.173066
	N266	N	0.462650	0.081185	0.816575
	N267	N	0.535293	0.908616	0.814202
	N268	N	0.913882	0.174198	0.458627
	N269	N	0.085659	0.174188	0.531726
	N270	N	0.082794	0.819460	0.457443
	N271	N	0.911168	0.815004	0.530205
	N272	N	0.180449	0.457177	0.908463
	N273	N	0.180091	0.530349	0.080965
	N274	N	0.819696	0.457815	0.084043
	N275	N	0.822130	0.530276	0.909289
	O276	O	0.087314	-0.001320	0.019253
	H277	H	0.092271	0.005705	0.021829
	H278	H	0.086411	0.008781	0.027751
	O279	O	0.403219	0.629852	0.393832
	H280	H	0.407501	0.632661	0.383204
	H281	H	0.403090	0.612742	0.397605
	O282	O	0.907420	0.056656	0.038666
	H283	H	0.908460	0.066897	0.028748
	H284	H	0.912293	0.057521	0.031444
	O285	O	-0.095599	0.860583	0.061255
	H286	H	-0.101060	0.859789	0.060794
	H287	H	-0.086548	0.863162	0.072018
	O288	O	1.121994	0.927072	-0.193610
	H289	H	1.119360	0.910254	-0.184959
	H290	H	1.108047	0.924221	-0.199286
	O291	O	0.394801	0.488882	0.551071
	H292	H	0.394095	0.484484	0.531003
	H293	H	0.405509	0.480446	0.548759
	O294	O	0.924365	1.067476	0.865383
	H295	H	0.924718	1.059702	0.856107
	H296	H	0.932286	1.062487	0.874049
	O297	O	-0.088169	-0.091129	0.069027
	H298	H	-0.088256	-0.100318	0.068471
	H299	H	-0.084722	-0.085049	0.060531
	O300	O	0.445192	0.374900	0.472119
	H301	H	0.451555	0.365140	0.463893
	H302	H	0.449383	0.378676	0.475643
	O303	O	0.079943	1.024803	0.920239
	H304	H	0.088713	1.013431	0.915805
	H305	H	0.082372	1.009880	0.914323
	O306	O	0.544741	0.676310	0.666112
	H307	H	0.531527	0.682540	0.676880
	H308	H	0.525470	0.666306	0.658079
	O309	O	1.070753	-0.007008	0.081944
	H310	H	1.070718	-0.006050	0.082818
	H311	H	1.062632	-0.016874	0.074043
	O312	O	-0.058754	0.061041	0.955735
	H313	H	-0.061364	0.069790	0.969082
	H314	H	-0.046043	0.052681	0.953363
	O315	O	0.565683	0.523996	0.471816
	H316	H	0.565067	0.529054	0.465928
	H317	H	0.561559	0.523924	0.482433
	O318	O	0.496787	0.364144	0.617766
	H319	H	0.502086	0.366346	0.613891
	H320	H	0.487240	0.365953	0.617394
	O321	O	0.479326	0.436580	0.629451
	H322	H	0.476070	0.419235	0.655139
	H323	H	0.494782	0.429526	0.632545
	O324	O	0.570481	0.547215	0.352002
	H325	H	0.575956	0.549565	0.352525
	H326	H	0.568280	0.544846	0.346377
	O327	O	-0.036529	0.886870	1.070670
	H328	H	-0.027357	0.893305	1.064187
	H329	H	-0.050747	0.890614	1.069832
	O330	O	0.653363	0.450137	0.458809
	H331	H	0.646727	0.465890	0.453369
	H332	H	0.659019	0.465076	0.465636
	O333	O	0.020456	1.006565	1.046414
	H334	H	0.019397	1.017597	1.045912
	H335	H	0.018722	1.001811	1.057761
	O336	O	0.983531	1.070304	0.936290
	H337	H	0.981560	1.072619	0.930845
	H338	H	0.980293	1.075085	0.935634
	O339	O	0.406822	0.333566	0.530545
	H340	H	0.414114	0.343165	0.524716
	H341	H	0.411104	0.327275	0.531804
	O342	O	1.072196	0.139506	0.062579
	H343	H	1.075144	0.126873	0.052590
	H344	H	1.066850	0.143790	0.052573
	O345	O	0.545824	0.521838	0.499704
	H346	H	0.525533	0.523890	0.486861
	H347	H	0.559365	0.517733	0.489001
	O348	O	1.034997	0.843773	0.878178
	H349	H	1.030916	0.850024	0.877616
	H350	H	1.026498	0.831454	0.865726
	O351	O	0.658828	0.614212	0.519752
	H352	H	0.668352	0.619990	0.500466
	H353	H	0.637954	0.629322	0.534048
	O354	O	0.669883	0.461055	0.530344
	H355	H	0.662121	0.473004	0.531157
	H356	H	0.659062	0.465666	0.540653
	O357	O	0.460480	0.558801	0.408131
	H358	H	0.468041	0.565124	0.416903
	H359	H	0.466418	0.567134	0.403633
	O360	O	0.049283	-0.018824	0.031409
	H361	H	0.051544	-0.018067	0.029750
	H362	H	0.054244	-0.016101	0.025194
	O363	O	0.430492	0.530581	0.554858
	H364	H	0.442745	0.524694	0.557804
	H365	H	0.429490	0.512986	0.558077
	O366	O	0.524834	0.587813	0.550491
	H367	H	0.524455	0.579330	0.556615
	H368	H	0.519041	0.585531	0.548139
	O369	O	0.320764	0.490923	0.451247
	H370	H	0.320317	0.497876	0.440509
	H371	H	0.323949	0.482458	0.449781
	O372	O	-0.046257	0.906391	1.087496
	H373	H	-0.036493	0.897773	1.086373
	H374	H	-0.049593	0.908012	1.093717
	O375	O	0.479067	0.567507	0.507805
	H376	H	0.473567	0.558692	0.515894
	H377	H	0.485074	0.555185	0.510805
	O378	O	0.582295	0.594587	0.450147
	H379	H	0.579243	0.604431	0.461834
	H380	H	0.586314	0.606375	0.455178
	O381	O	0.636811	0.461031	0.591008
	H382	H	0.640088	0.474673	0.578587
	H383	H	0.651338	0.468192	0.619207
	O384	O	-0.040521	0.866828	-0.039744
	H385	H	-0.033691	0.878499	-0.026785
	H386	H	-0.045581	0.859559	-0.037279
	O387	O	0.987195	0.089956	0.979789
	H388	H	0.980373	0.086154	0.993185
	H389	H	0.988633	0.096482	0.975460
	O390	O	0.162032	0.894479	-0.102269
	H391	H	0.153235	0.904026	-0.090509
	H392	H	0.175474	0.891358	-0.101823
	O393	O	1.000724	1.117795	-0.011912
	H394	H	1.013413	1.120095	-0.020085
	H395	H	1.005739	1.106626	-0.026327
	O396	O	0.356999	0.459282	0.454652
	H397	H	0.349509	0.456055	0.435307
	H398	H	0.364176	0.456638	0.458943
	O399	O	-0.000709	1.111287	0.991941
	H400	H	0.007333	1.108085	0.992619
	H401	H	-0.011177	1.123663	0.995079
	O402	O	0.981156	0.961339	1.093085
	H403	H	0.973952	0.968726	1.096321
	H404	H	0.982458	0.949238	1.098695
	O405	O	0.518449	0.373969	0.377862
	H406	H	0.529223	0.368274	0.380694
	H407	H	0.525725	0.368981	0.379989
