data_Molecule from HDF5

_cell_length_a		16.159894
_cell_length_b		16.070879
_cell_length_c		16.496448
_cell_angle_alpha	89.833598
_cell_angle_beta	89.892342
_cell_angle_gamma	90.169744
_symmetry_space_group_name_H-M	'P 1'
_symmetry_Int_Tables_number		1

loop_
	_symmetry_equiv_pos_as_xyz
	x,y,z

loop_
	_atom_site_label
	_atom_site_type_symbol
	_atom_site_fract_x
	_atom_site_fract_y
	_atom_site_fract_z
	H0	H	0.403179	0.835498	0.710989
	H1	H	0.608814	0.163057	0.710033
	H2	H	0.608704	0.835517	0.276703
	H3	H	0.404578	0.163267	0.277589
	H4	H	0.720075	0.402495	0.831745
	H5	H	0.721949	0.598590	0.155417
	H6	H	0.290060	0.600398	0.831096
	H7	H	0.286460	0.399718	0.154234
	H8	H	0.840466	0.713463	0.395794
	H9	H	0.172259	0.708958	0.586416
	H10	H	0.840160	0.287302	0.588560
	H11	H	0.171508	0.292172	0.399094
	H12	H	0.842136	0.395050	0.710522
	H13	H	0.168269	0.601754	0.708912
	H14	H	0.841741	0.602608	0.276037
	H15	H	0.167362	0.397846	0.275808
	H16	H	0.408145	0.717063	0.832150
	H17	H	0.602339	0.712972	0.157689
	H18	H	0.602652	0.286417	0.831333
	H19	H	0.404850	0.284854	0.155961
	H20	H	0.718580	0.833039	0.398297
	H21	H	0.717376	0.165693	0.588741
	H22	H	0.293213	0.833744	0.591636
	H23	H	0.297583	0.165967	0.398857
	H24	H	0.901060	0.336074	0.210393
	H25	H	0.107915	0.663240	0.209171
	H26	H	0.104625	0.334765	0.777734
	H27	H	0.902716	0.663520	0.775338
	H28	H	0.222248	0.902913	0.331771
	H29	H	0.222510	0.099439	0.656450
	H30	H	0.789967	0.100354	0.332649
	H31	H	0.789962	0.898960	0.655457
	H32	H	0.338740	0.209244	0.898359
	H33	H	0.670104	0.212357	0.088153
	H34	H	0.339882	0.787958	0.090658
	H35	H	0.671652	0.789959	0.900827
	H36	H	0.342207	0.896514	0.211415
	H37	H	0.667787	0.104649	0.211435
	H38	H	0.342818	0.101130	0.776517
	H39	H	0.668495	0.894856	0.776765
	H40	H	0.910444	0.213577	0.330993
	H41	H	0.104802	0.216547	0.655720
	H42	H	0.105554	0.785835	0.331183
	H43	H	0.907735	0.783054	0.655718
	H44	H	0.215647	0.333356	0.896396
	H45	H	0.214376	0.666039	0.085789
	H46	H	0.792957	0.333383	0.089668
	H47	H	0.794444	0.666757	0.896830
	H48	H	0.419186	0.115813	0.584798
	H49	H	0.596558	0.881598	0.586268
	H50	H	0.603930	0.119684	0.399485
	H51	H	0.409014	0.878851	0.399481
	H52	H	0.602635	0.406304	0.110125
	H53	H	0.592861	0.595493	0.881224
	H54	H	0.399258	0.586922	0.109515
	H55	H	0.413591	0.394775	0.875944
	H56	H	0.124106	0.597761	0.398850
	H57	H	0.891401	0.588552	0.573778
	H58	H	0.120390	0.413679	0.583703
	H59	H	0.889283	0.417238	0.400305
	H60	H	0.124876	0.411238	0.594318
	H61	H	0.888829	0.578928	0.594531
	H62	H	0.119423	0.587520	0.403399
	H63	H	0.883330	0.403964	0.390714
	H64	H	0.418279	0.588236	0.104182
	H65	H	0.602237	0.600657	0.876431
	H66	H	0.596531	0.408986	0.107083
	H67	H	0.399374	0.408457	0.875915
	H68	H	0.593228	0.117513	0.395281
	H69	H	0.600092	0.879934	0.587588
	H70	H	0.412053	0.118624	0.586693
	H71	H	0.419040	0.880372	0.397316
	H72	H	0.919634	0.616604	0.087517
	H73	H	0.097321	0.379578	0.087904
	H74	H	0.099926	0.619075	0.897689
	H75	H	0.918277	0.381436	0.892720
	H76	H	0.100710	0.911147	0.607705
	H77	H	0.104148	0.097037	0.377859
	H78	H	0.913033	0.085582	0.606887
	H79	H	0.915950	0.917655	0.383168
	H80	H	0.622396	0.094728	0.903822
	H81	H	0.385341	0.090482	0.094068
	H82	H	0.625096	0.905767	0.089624
	H83	H	0.385330	0.899539	0.900519
	H84	H	0.622281	0.908927	0.084086
	H85	H	0.386314	0.094616	0.086157
	H86	H	0.621869	0.087200	0.900225
	H87	H	0.391826	0.913290	0.909100
	H88	H	0.918482	0.098213	0.608346
	H89	H	0.103577	0.093651	0.379449
	H90	H	0.095742	0.902619	0.608456
	H91	H	0.920478	0.899628	0.378563
	H92	H	0.094469	0.617720	0.894744
	H93	H	0.090171	0.382268	0.088639
	H94	H	0.913343	0.616634	0.081852
	H95	H	0.916601	0.384481	0.907651
	H96	H	0.417309	0.117977	0.591834
	H97	H	0.596444	0.880365	0.590613
	H98	H	0.595221	0.114994	0.406046
	H99	H	0.416010	0.882308	0.406599
	H100	H	0.597023	0.401970	0.109652
	H101	H	0.602851	0.589246	0.879832
	H102	H	0.409459	0.604169	0.112384
	H103	H	0.417118	0.413043	0.882589
	H104	H	0.124186	0.587504	0.392335
	H105	H	0.882907	0.601658	0.590892
	H106	H	0.124996	0.402190	0.585771
	H107	H	0.887126	0.401910	0.407400
	H108	H	0.911792	0.619800	0.089510
	H109	H	0.094084	0.382926	0.082249
	H110	H	0.094764	0.616607	0.901399
	H111	H	0.904833	0.378993	0.899631
	H112	H	0.105085	0.902970	0.610077
	H113	H	0.100716	0.095872	0.378980
	H114	H	0.905288	0.096175	0.612146
	H115	H	0.902627	0.906444	0.375587
	H116	H	0.624825	0.093497	0.896572
	H117	H	0.388950	0.085376	0.087031
	H118	H	0.622568	0.912866	0.090127
	H119	H	0.387464	0.915401	0.892668
	C120	C	0.385982	0.008085	0.615963
	C121	C	0.627001	0.990042	0.615940
	C122	C	0.627098	0.008076	0.372219
	C123	C	0.386403	0.990398	0.373622
	C124	C	0.626885	0.378086	0.001540
	C125	C	0.627918	0.622906	0.986328
	C126	C	0.381931	0.622480	0.001717
	C127	C	0.381166	0.376786	0.985039
	C128	C	0.013924	0.621108	0.370344
	C129	C	0.996827	0.619519	0.613772
	C130	C	0.014512	0.378482	0.615785
	C131	C	0.995615	0.379116	0.371695
	C132	C	0.884434	0.508716	0.114863
	C133	C	0.124325	0.490743	0.113918
	C134	C	0.125342	0.508400	0.870415
	C135	C	0.884186	0.490958	0.871446
	C136	C	0.129204	0.877429	0.501834
	C137	C	0.130531	0.123786	0.485888
	C138	C	0.884295	0.121987	0.502035
	C139	C	0.884386	0.877866	0.485842
	C140	C	0.514131	0.120506	0.872022
	C141	C	0.495671	0.120803	0.116628
	C142	C	0.514454	0.879419	0.116036
	C143	C	0.496893	0.879531	0.873158
	C144	C	0.385064	0.884414	0.672178
	C145	C	0.627048	0.114162	0.671255
	C146	C	0.627077	0.884182	0.316070
	C147	C	0.386688	0.114639	0.317270
	C148	C	0.682378	0.381373	0.880122
	C149	C	0.683783	0.619875	0.107426
	C150	C	0.327892	0.620416	0.879688
	C151	C	0.324945	0.379117	0.106283
	C152	C	0.889805	0.676088	0.374550
	C153	C	0.121989	0.673321	0.609036
	C154	C	0.889932	0.323504	0.611097
	C155	C	0.121142	0.326830	0.376375
	C156	C	0.890895	0.377109	0.671629
	C157	C	0.120203	0.619585	0.669576
	C158	C	0.890306	0.620675	0.315173
	C159	C	0.119160	0.379463	0.315188
	C160	C	0.386430	0.678534	0.880129
	C161	C	0.624186	0.676470	0.108599
	C162	C	0.623364	0.323808	0.879858
	C163	C	0.383532	0.322020	0.107063
	C164	C	0.681554	0.882813	0.376246
	C165	C	0.681494	0.115536	0.611334
	C166	C	0.330179	0.883436	0.613060
	C167	C	0.332991	0.115763	0.377266
	C168	C	0.883020	0.384745	0.171263
	C169	C	0.125102	0.614461	0.169664
	C170	C	0.124264	0.384173	0.815733
	C171	C	0.884229	0.614948	0.814846
	C172	C	0.184373	0.881541	0.379962
	C173	C	0.184574	0.120172	0.607916
	C174	C	0.828527	0.120305	0.380669
	C175	C	0.828449	0.879111	0.607225
	C176	C	0.389045	0.173783	0.876220
	C177	C	0.620222	0.176041	0.111024
	C178	C	0.389516	0.824666	0.112500
	C179	C	0.621628	0.825505	0.878264
	C180	C	0.390879	0.878692	0.172282
	C181	C	0.619181	0.122139	0.172021
	C182	C	0.390893	0.119639	0.815994
	C183	C	0.620109	0.878044	0.816758
	C184	C	0.888697	0.176359	0.379683
	C185	C	0.125987	0.178582	0.607545
	C186	C	0.126427	0.823349	0.379882
	C187	C	0.886896	0.821353	0.607274
	C188	C	0.179495	0.383461	0.874617
	C189	C	0.178623	0.615831	0.108840
	C190	C	0.829517	0.383435	0.111117
	C191	C	0.830496	0.616410	0.875242
	C192	C	0.409166	0.094977	0.593941
	C193	C	0.604220	0.903078	0.594546
	C194	C	0.604303	0.094866	0.393580
	C195	C	0.408371	0.903047	0.394900
	C196	C	0.605019	0.399551	0.086949
	C197	C	0.605797	0.601633	0.901195
	C198	C	0.402792	0.599747	0.086820
	C199	C	0.403474	0.398910	0.900110
	C200	C	0.100197	0.597912	0.391854
	C201	C	0.910256	0.596590	0.592567
	C202	C	0.101076	0.402229	0.594520
	C203	C	0.909039	0.401107	0.392996
	C204	C	0.908000	0.595338	0.092692
	C205	C	0.100726	0.403739	0.092362
	C206	C	0.102960	0.595585	0.891681
	C207	C	0.906617	0.404338	0.893322
	C208	C	0.107028	0.899228	0.586784
	C209	C	0.109181	0.101994	0.400761
	C210	C	0.906028	0.099726	0.587027
	C211	C	0.906492	0.901084	0.401145
	C212	C	0.600556	0.098411	0.893770
	C213	C	0.409309	0.097190	0.095270
	C214	C	0.600766	0.902355	0.094307
	C215	C	0.410552	0.902641	0.894563
	Zn216	Zn	0.506105	-0.000775	0.744181
	Zn217	Zn	0.505308	-0.000879	0.244835
	Zn218	Zn	0.757538	0.500244	-0.006410
	Zn219	Zn	0.251869	0.499661	-0.007471
	Zn220	Zn	0.006229	0.747954	0.492845
	Zn221	Zn	0.006009	0.252292	0.493257
	Zn222	Zn	0.004521	0.499731	0.742931
	Zn223	Zn	0.004449	0.498933	0.242716
	Zn224	Zn	0.505049	0.752329	-0.004994
	Zn225	Zn	0.504009	0.248131	-0.006464
	Zn226	Zn	0.754242	-0.000487	0.493830
	Zn227	Zn	0.259167	-0.000298	0.494383
	N228	N	0.419164	0.962979	0.673911
	N229	N	0.594060	0.035203	0.674223
	N230	N	0.593926	0.962983	0.313494
	N231	N	0.418983	0.035570	0.314832
	N232	N	0.684372	0.414519	0.956889
	N233	N	0.686027	0.587275	0.030434
	N234	N	0.325104	0.586220	0.956137
	N235	N	0.323121	0.412380	0.029347
	N236	N	0.967656	0.676424	0.408107
	N237	N	0.044337	0.673221	0.574870
	N238	N	0.967756	0.324168	0.577261
	N239	N	0.043555	0.326485	0.410848
	N240	N	0.969326	0.410705	0.674571
	N241	N	0.041233	0.587211	0.672987
	N242	N	0.968622	0.587405	0.312241
	N243	N	0.040182	0.411160	0.312094
	N244	N	0.419345	0.680015	0.956990
	N245	N	0.589937	0.678315	0.032210
	N246	N	0.589717	0.321634	0.956577
	N247	N	0.417947	0.320517	0.030632
	N248	N	0.681814	0.960923	0.410339
	N249	N	0.681755	0.037390	0.577556
	N250	N	0.330613	0.961368	0.578695
	N251	N	0.332960	0.037745	0.411949
	N252	N	0.916593	0.463449	0.173606
	N253	N	0.092002	0.535477	0.172798
	N254	N	0.091298	0.462886	0.813171
	N255	N	0.916982	0.536028	0.812237
	N256	N	0.186365	0.914442	0.456889
	N257	N	0.187349	0.086766	0.531140
	N258	N	0.825668	0.087299	0.457752
	N259	N	0.826743	0.913548	0.530769
	N260	N	0.466646	0.174347	0.910582
	N261	N	0.542371	0.175445	0.077435
	N262	N	0.467216	0.824677	0.078305
	N263	N	0.544056	0.826210	0.912659
	N264	N	0.469450	0.912163	0.174517
	N265	N	0.540808	0.088522	0.175662
	N266	N	0.469633	0.087430	0.813176
	N267	N	0.541563	0.910888	0.813424
	N268	N	0.922531	0.177676	0.456150
	N269	N	0.093261	0.180870	0.530689
	N270	N	0.092876	0.820668	0.456461
	N271	N	0.920917	0.820433	0.530651
	N272	N	0.180344	0.461895	0.907939
	N273	N	0.178106	0.537731	0.074836
	N274	N	0.830121	0.461573	0.076742
	N275	N	0.830295	0.538604	0.909927
	O276	O	0.935769	0.992402	-0.058277
	H277	H	0.925213	0.990251	-0.047421
	H278	H	0.936319	0.999908	-0.057254
	O279	O	-0.067915	0.016940	0.995692
	H280	H	-0.067914	0.018477	0.993507
	H281	H	-0.057676	0.017455	0.987399
	O282	O	-0.044202	-0.030911	-0.023896
	H283	H	-0.040759	-0.029166	-0.022158
	H284	H	-0.032701	-0.040300	-0.026339
	O285	O	0.489063	0.452016	0.527168
	H286	H	0.500889	0.442627	0.525823
	H287	H	0.496219	0.449232	0.525144
	O288	O	-0.052090	0.016715	-0.012175
	H289	H	-0.050587	0.030210	-0.007903
	H290	H	-0.059658	0.019939	-0.020348
	O291	O	-0.024215	0.991052	-0.013735
	H292	H	-0.027421	0.995379	-0.009559
	H293	H	-0.027094	0.989594	-0.012201
	O294	O	0.043493	1.010253	-0.035447
	H295	H	0.042418	1.007345	-0.031833
	H296	H	0.036155	1.001972	-0.036843
	O297	O	0.499280	0.456694	0.566002
	H298	H	0.494385	0.447070	0.571564
	H299	H	0.495891	0.451080	0.570993
	O300	O	0.540608	0.554727	0.499321
	H301	H	0.542563	0.556506	0.503412
	H302	H	0.533007	0.549183	0.491475
	O303	O	0.969217	-0.011295	0.982626
	H304	H	0.968775	-0.010572	0.989845
	H305	H	0.962394	0.000452	0.980870
	O306	O	-0.057254	0.919744	1.076064
	H307	H	-0.056089	0.929356	1.070196
	H308	H	-0.065516	0.913999	1.079082
	O309	O	-0.004589	0.959066	0.976949
	H310	H	-0.012759	0.953770	0.974547
	H311	H	-0.016118	0.964194	0.974932
	O312	O	0.007232	0.053077	0.997934
	H313	H	0.007931	0.046668	0.997454
	H314	H	0.009919	0.044828	0.982414
	O315	O	0.471934	0.435589	0.494191
	H316	H	0.474837	0.436163	0.494806
	H317	H	0.466707	0.431234	0.495975
	O318	O	-0.008270	-0.040883	0.990657
	H319	H	-0.010044	-0.041970	0.999104
	H320	H	-0.007850	-0.043519	0.988017
	O321	O	0.467348	0.487611	0.534379
	H322	H	0.462803	0.499577	0.536551
	H323	H	0.464284	0.487129	0.533924
	O324	O	0.948396	-0.007811	1.027063
	H325	H	0.955639	-0.018725	1.028837
	H326	H	0.938121	0.003291	1.020063
	O327	O	1.060839	1.050303	1.015100
	H328	H	1.060673	1.038848	1.010240
	H329	H	1.061915	1.054289	1.016576
	O330	O	0.533089	0.499767	0.526599
	H331	H	0.525477	0.500408	0.521592
	H332	H	0.532887	0.505586	0.531539
	O333	O	0.527219	0.498776	0.547144
	H334	H	0.525851	0.506387	0.548742
	H335	H	0.524539	0.496920	0.543507
	O336	O	0.462268	0.386846	0.526740
	H337	H	0.456979	0.387463	0.529703
	H338	H	0.462349	0.392715	0.530633
	O339	O	0.487204	0.538779	0.508945
	H340	H	0.479139	0.531931	0.509569
	H341	H	0.496550	0.542144	0.511832
	O342	O	0.540015	0.484474	0.454567
	H343	H	0.533942	0.487699	0.455741
	H344	H	0.552330	0.482656	0.456320
	O345	O	0.476382	0.483312	0.456637
	H346	H	0.474761	0.479419	0.453462
	H347	H	0.473498	0.475884	0.451451
