data_Molecule from HDF5

_cell_length_a		16.232916
_cell_length_b		16.270396
_cell_length_c		16.327309
_cell_angle_alpha	90.068939
_cell_angle_beta	90.045306
_cell_angle_gamma	90.050362
_symmetry_space_group_name_H-M	'P 1'
_symmetry_Int_Tables_number		1

loop_
	_symmetry_equiv_pos_as_xyz
	x,y,z

loop_
	_atom_site_label
	_atom_site_type_symbol
	_atom_site_fract_x
	_atom_site_fract_y
	_atom_site_fract_z
	H0	H	0.401204	0.835968	0.714171
	H1	H	0.598460	0.164093	0.714774
	H2	H	0.598271	0.836350	0.285630
	H3	H	0.402049	0.164069	0.286708
	H4	H	0.713113	0.403927	0.836357
	H5	H	0.713543	0.597870	0.163569
	H6	H	0.285330	0.597539	0.836176
	H7	H	0.286863	0.403018	0.163768
	H8	H	0.835715	0.712915	0.403169
	H9	H	0.164350	0.714727	0.598903
	H10	H	0.835338	0.286223	0.598033
	H11	H	0.164893	0.286903	0.403798
	H12	H	0.835691	0.401774	0.714182
	H13	H	0.164967	0.596920	0.713095
	H14	H	0.836464	0.598818	0.285865
	H15	H	0.164131	0.400656	0.285458
	H16	H	0.401596	0.714083	0.836124
	H17	H	0.597895	0.714865	0.163246
	H18	H	0.597592	0.285724	0.836250
	H19	H	0.401438	0.285585	0.162772
	H20	H	0.712846	0.835811	0.403201
	H21	H	0.713413	0.163938	0.597538
	H22	H	0.288147	0.835124	0.594762
	H23	H	0.286047	0.163953	0.402440
	H24	H	0.901976	0.336355	0.213179
	H25	H	0.099825	0.663787	0.215686
	H26	H	0.098482	0.336364	0.785056
	H27	H	0.901697	0.663767	0.785518
	H28	H	0.212760	0.903016	0.335688
	H29	H	0.214288	0.097064	0.664029
	H30	H	0.785079	0.097557	0.336678
	H31	H	0.785512	0.901594	0.663219
	H32	H	0.335418	0.212828	0.902417
	H33	H	0.664217	0.212994	0.096763
	H34	H	0.335240	0.786431	0.096580
	H35	H	0.664677	0.786867	0.902155
	H36	H	0.335562	0.902137	0.212896
	H37	H	0.663912	0.098169	0.214025
	H38	H	0.336253	0.098218	0.785308
	H39	H	0.664731	0.901797	0.785822
	H40	H	0.902026	0.213668	0.336681
	H41	H	0.098162	0.213554	0.663936
	H42	H	0.096881	0.785624	0.336059
	H43	H	0.901519	0.785015	0.663490
	H44	H	0.213634	0.335945	0.902012
	H45	H	0.214282	0.663970	0.098119
	H46	H	0.786683	0.336333	0.096328
	H47	H	0.787896	0.664865	0.903228
	H48	H	0.405074	0.117170	0.593708
	H49	H	0.586455	0.882630	0.601578
	H50	H	0.594177	0.117246	0.406914
	H51	H	0.402997	0.881610	0.404644
	H52	H	0.598108	0.408469	0.117238
	H53	H	0.602603	0.592344	0.880933
	H54	H	0.409169	0.593335	0.115577
	H55	H	0.410295	0.396361	0.881450
	H56	H	0.120323	0.602803	0.408306
	H57	H	0.880151	0.597416	0.600163
	H58	H	0.119168	0.408880	0.603848
	H59	H	0.886310	0.401978	0.421526
	H60	H	0.119119	0.396378	0.590126
	H61	H	0.884353	0.596566	0.586246
	H62	H	0.112574	0.586406	0.416371
	H63	H	0.886789	0.421807	0.401650
	H64	H	0.407002	0.595738	0.116624
	H65	H	0.588554	0.587296	0.887384
	H66	H	0.589931	0.409167	0.114857
	H67	H	0.395493	0.408193	0.880727
	H68	H	0.593988	0.117513	0.405247
	H69	H	0.589657	0.886414	0.584780
	H70	H	0.408843	0.116497	0.595380
	H71	H	0.408958	0.883052	0.402725
	H72	H	0.898147	0.619814	0.094341
	H73	H	0.087247	0.384504	0.096974
	H74	H	0.085690	0.614052	0.907729
	H75	H	0.909550	0.381966	0.898874
	H76	H	0.097047	0.910125	0.615546
	H77	H	0.093282	0.099967	0.382215
	H78	H	0.900652	0.101929	0.620632
	H79	H	0.905095	0.909833	0.384930
	H80	H	0.614295	0.095776	0.920516
	H81	H	0.380170	0.099602	0.095950
	H82	H	0.616030	0.913296	0.097121
	H83	H	0.379166	0.901219	0.897945
	H84	H	0.619466	0.901716	0.095755
	H85	H	0.384410	0.092522	0.087629
	H86	H	0.615132	0.080630	0.901880
	H87	H	0.384381	0.902271	0.914609
	H88	H	0.901233	0.082669	0.615050
	H89	H	0.098826	0.089757	0.382940
	H90	H	0.089093	0.907277	0.614828
	H91	H	0.910347	0.903718	0.384395
	H92	H	0.097452	0.616840	0.912377
	H93	H	0.093285	0.385084	0.087322
	H94	H	0.911104	0.618344	0.102235
	H95	H	0.910712	0.386316	0.912767
	H96	H	0.407841	0.115241	0.591647
	H97	H	0.602120	0.879847	0.594585
	H98	H	0.592469	0.117006	0.406377
	H99	H	0.407753	0.884584	0.409464
	H100	H	0.592897	0.401714	0.117613
	H101	H	0.590098	0.602915	0.881570
	H102	H	0.405575	0.592732	0.115702
	H103	H	0.412105	0.414366	0.887100
	H104	H	0.118032	0.587004	0.397825
	H105	H	0.885277	0.585083	0.594466
	H106	H	0.112482	0.413965	0.587227
	H107	H	0.876403	0.396253	0.395476
	H108	H	0.911409	0.614640	0.087863
	H109	H	0.098359	0.380370	0.096902
	H110	H	0.094972	0.618736	0.900512
	H111	H	0.898379	0.381658	0.907208
	H112	H	0.095196	0.902653	0.617836
	H113	H	0.087413	0.090592	0.386592
	H114	H	0.918066	0.093975	0.613705
	H115	H	0.903124	0.902722	0.381776
	H116	H	0.622826	0.103459	0.898841
	H117	H	0.382643	0.088496	0.098816
	H118	H	0.614360	0.907998	0.086310
	H119	H	0.385481	0.916425	0.904850
	C120	C	0.378808	0.007863	0.621325
	C121	C	0.620990	0.991741	0.621687
	C122	C	0.621368	0.008588	0.378413
	C123	C	0.378336	0.991666	0.377995
	C124	C	0.621759	0.378504	0.008458
	C125	C	0.622045	0.622616	0.991256
	C126	C	0.378535	0.621822	0.007827
	C127	C	0.378244	0.378510	0.991568
	C128	C	0.008614	0.620517	0.379298
	C129	C	0.992057	0.621552	0.621913
	C130	C	0.008281	0.378305	0.621786
	C131	C	0.991985	0.378331	0.378388
	C132	C	0.878920	0.508714	0.121644
	C133	C	0.121576	0.491824	0.122103
	C134	C	0.121054	0.508221	0.878711
	C135	C	0.878341	0.491902	0.878152
	C136	C	0.121471	0.878322	0.508042
	C137	C	0.121592	0.121610	0.492192
	C138	C	0.878344	0.121128	0.508388
	C139	C	0.878200	0.877699	0.491756
	C140	C	0.508696	0.120964	0.878758
	C141	C	0.491074	0.121704	0.121664
	C142	C	0.507952	0.879056	0.121006
	C143	C	0.491953	0.878718	0.878046
	C144	C	0.381592	0.884603	0.675743
	C145	C	0.618834	0.115016	0.676704
	C146	C	0.618556	0.885032	0.324043
	C147	C	0.381454	0.115143	0.323948
	C148	C	0.675932	0.382353	0.885047
	C149	C	0.676486	0.619258	0.114492
	C150	C	0.323142	0.618792	0.884984
	C151	C	0.324065	0.381763	0.114719
	C152	C	0.884860	0.675246	0.382163
	C153	C	0.115610	0.676460	0.619201
	C154	C	0.884419	0.323773	0.618714
	C155	C	0.115466	0.323532	0.381867
	C156	C	0.884655	0.381133	0.676451
	C157	C	0.115665	0.618516	0.676497
	C158	C	0.885148	0.618630	0.323941
	C159	C	0.115397	0.380624	0.323622
	C160	C	0.380974	0.676452	0.884889
	C161	C	0.618755	0.677059	0.114585
	C162	C	0.618441	0.323762	0.885115
	C163	C	0.380997	0.323500	0.114305
	C164	C	0.675277	0.884644	0.382316
	C165	C	0.676072	0.115250	0.618750
	C166	C	0.325004	0.884166	0.616897
	C167	C	0.324093	0.115254	0.381667
	C168	C	0.881357	0.385300	0.175757
	C169	C	0.120303	0.614723	0.177865
	C170	C	0.118959	0.385198	0.823136
	C171	C	0.881388	0.615089	0.823567
	C172	C	0.175725	0.881577	0.384735
	C173	C	0.176775	0.118371	0.614993
	C174	C	0.823504	0.118156	0.385099
	C175	C	0.823501	0.880938	0.614815
	C176	C	0.384506	0.175633	0.881564
	C177	C	0.615218	0.175738	0.117833
	C178	C	0.384470	0.824341	0.117574
	C179	C	0.615673	0.824308	0.881478
	C180	C	0.384428	0.881686	0.175512
	C181	C	0.614977	0.118970	0.176333
	C182	C	0.385135	0.118593	0.823636
	C183	C	0.615654	0.881720	0.823896
	C184	C	0.881079	0.176118	0.385432
	C185	C	0.118706	0.175932	0.615311
	C186	C	0.118231	0.823332	0.384931
	C187	C	0.881038	0.823054	0.614749
	C188	C	0.175726	0.384619	0.881606
	C189	C	0.177022	0.615009	0.119407
	C190	C	0.823935	0.385388	0.117933
	C191	C	0.824405	0.615690	0.881601
	C192	C	0.400785	0.094252	0.599805
	C193	C	0.599313	0.905339	0.599929
	C194	C	0.599950	0.094893	0.399867
	C195	C	0.400071	0.905274	0.399414
	C196	C	0.599989	0.400029	0.094419
	C197	C	0.600168	0.600779	0.905492
	C198	C	0.400762	0.600280	0.093643
	C199	C	0.399876	0.400298	0.905522
	C200	C	0.094971	0.598514	0.401119
	C201	C	0.905667	0.599679	0.600107
	C202	C	0.094662	0.399934	0.600061
	C203	C	0.905559	0.400244	0.400007
	C204	C	0.900478	0.595205	0.100860
	C205	C	0.099559	0.405670	0.100027
	C206	C	0.099358	0.594356	0.900583
	C207	C	0.899786	0.405645	0.899885
	C208	C	0.099982	0.900131	0.593985
	C209	C	0.099675	0.099972	0.405945
	C210	C	0.900058	0.099328	0.594182
	C211	C	0.899728	0.899093	0.405892
	C212	C	0.595067	0.099667	0.900648
	C213	C	0.404699	0.100119	0.100360
	C214	C	0.594443	0.901103	0.099466
	C215	C	0.405414	0.900257	0.899385
	Zn216	Zn	0.499769	-0.000178	0.750082
	Zn217	Zn	0.499762	0.000158	0.250076
	Zn218	Zn	0.750676	0.500932	-0.000286
	Zn219	Zn	0.249550	0.499951	-0.000120
	Zn220	Zn	0.000056	0.749281	0.500063
	Zn221	Zn	-0.000207	0.249995	0.500387
	Zn222	Zn	-0.000058	0.499939	0.750139
	Zn223	Zn	0.000096	0.499996	0.250571
	Zn224	Zn	0.500289	0.750780	-0.000746
	Zn225	Zn	0.499716	0.249696	-0.000299
	Zn226	Zn	0.749289	-0.000360	0.500092
	Zn227	Zn	0.250570	0.000142	0.499861
	N228	N	0.414091	0.962634	0.678479
	N229	N	0.585317	0.037311	0.678515
	N230	N	0.585671	0.962953	0.321637
	N231	N	0.414377	0.037282	0.321725
	N232	N	0.677802	0.415755	0.962552
	N233	N	0.678428	0.586019	0.037062
	N234	N	0.321531	0.585329	0.962322
	N235	N	0.322165	0.415205	0.037389
	N236	N	0.962539	0.676669	0.415818
	N237	N	0.037626	0.678574	0.586290
	N238	N	0.962216	0.321918	0.585366
	N239	N	0.037722	0.322258	0.415493
	N240	N	0.962632	0.414206	0.678502
	N241	N	0.037811	0.584951	0.678160
	N242	N	0.963162	0.585334	0.322258
	N243	N	0.037525	0.413734	0.321340
	N244	N	0.414900	0.678241	0.962152
	N245	N	0.585636	0.679212	0.036976
	N246	N	0.585593	0.321216	0.962776
	N247	N	0.413970	0.321416	0.036722
	N248	N	0.676996	0.962467	0.415436
	N249	N	0.677525	0.037580	0.585282
	N250	N	0.323467	0.961799	0.583494
	N251	N	0.322159	0.037477	0.414680
	N252	N	0.914751	0.462960	0.178243
	N253	N	0.086401	0.537105	0.179471
	N254	N	0.085649	0.462880	0.821471
	N255	N	0.913885	0.537038	0.821182
	N256	N	0.177848	0.915113	0.462218
	N257	N	0.178601	0.085330	0.537386
	N258	N	0.821657	0.084667	0.462412
	N259	N	0.821437	0.914170	0.537328
	N260	N	0.462266	0.177147	0.915357
	N261	N	0.537195	0.177545	0.084576
	N262	N	0.462348	0.822653	0.084304
	N263	N	0.537803	0.822521	0.914581
	N264	N	0.462325	0.915024	0.177702
	N265	N	0.536956	0.085998	0.178690
	N266	N	0.463055	0.085334	0.821867
	N267	N	0.537693	0.914845	0.821862
	N268	N	0.914317	0.178079	0.463065
	N269	N	0.085164	0.177880	0.537840
	N270	N	0.085329	0.821329	0.462532
	N271	N	0.914372	0.821119	0.537348
	N272	N	0.177297	0.462210	0.915311
	N273	N	0.177918	0.537563	0.085375
	N274	N	0.822330	0.463159	0.085066
	N275	N	0.822599	0.538062	0.915039
