data_Molecule from HDF5

_cell_length_a		16.214459
_cell_length_b		16.158388
_cell_length_c		16.304755
_cell_angle_alpha	89.787703
_cell_angle_beta	89.852277
_cell_angle_gamma	89.810730
_symmetry_space_group_name_H-M	'P 1'
_symmetry_Int_Tables_number		1

loop_
	_symmetry_equiv_pos_as_xyz
	x,y,z

loop_
	_atom_site_label
	_atom_site_type_symbol
	_atom_site_fract_x
	_atom_site_fract_y
	_atom_site_fract_z
	H0	H	0.402466	0.841758	0.711125
	H1	H	0.600537	0.171440	0.708256
	H2	H	0.602586	0.841762	0.280156
	H3	H	0.400272	0.170163	0.278561
	H4	H	0.718310	0.406677	0.831323
	H5	H	0.715487	0.603436	0.158356
	H6	H	0.286106	0.608498	0.831375
	H7	H	0.287169	0.407106	0.157799
	H8	H	0.836744	0.720274	0.398437
	H9	H	0.166176	0.718722	0.591835
	H10	H	0.836581	0.292906	0.593202
	H11	H	0.166161	0.293449	0.397149
	H12	H	0.836999	0.407485	0.711051
	H13	H	0.165491	0.605303	0.709068
	H14	H	0.838140	0.609927	0.278658
	H15	H	0.165301	0.404867	0.278881
	H16	H	0.403434	0.721740	0.830630
	H17	H	0.598963	0.719208	0.158391
	H18	H	0.600495	0.293049	0.830192
	H19	H	0.403552	0.292313	0.158134
	H20	H	0.716122	0.841248	0.397280
	H21	H	0.714112	0.172501	0.590991
	H22	H	0.288145	0.841641	0.594624
	H23	H	0.287698	0.170958	0.396255
	H24	H	0.902703	0.341714	0.210802
	H25	H	0.101759	0.671476	0.210686
	H26	H	0.103171	0.342179	0.780278
	H27	H	0.902217	0.671011	0.781630
	H28	H	0.218861	0.906434	0.331788
	H29	H	0.217039	0.104703	0.657910
	H30	H	0.786971	0.107612	0.330774
	H31	H	0.786026	0.906971	0.657715
	H32	H	0.336934	0.219974	0.896251
	H33	H	0.666412	0.218707	0.090094
	H34	H	0.337419	0.791594	0.093659
	H35	H	0.666170	0.793629	0.897608
	H36	H	0.337500	0.905846	0.211401
	H37	H	0.665890	0.105451	0.208716
	H38	H	0.338525	0.107532	0.778237
	H39	H	0.665796	0.905097	0.779610
	H40	H	0.903174	0.223211	0.331096
	H41	H	0.099943	0.220176	0.658484
	H42	H	0.101062	0.791557	0.331055
	H43	H	0.902058	0.792180	0.658852
	H44	H	0.215791	0.342079	0.898601
	H45	H	0.215906	0.671664	0.093285
	H46	H	0.789091	0.341313	0.092944
	H47	H	0.789013	0.671357	0.897361
	H48	H	0.412194	0.121015	0.584028
	H49	H	0.589565	0.886132	0.602897
	H50	H	0.595815	0.123323	0.403854
	H51	H	0.412773	0.888520	0.399809
	H52	H	0.586020	0.418668	0.106285
	H53	H	0.595707	0.599053	0.878184
	H54	H	0.416100	0.598101	0.108509
	H55	H	0.398427	0.409343	0.873403
	H56	H	0.124037	0.604842	0.390113
	H57	H	0.888235	0.590762	0.580740
	H58	H	0.118015	0.415423	0.589174
	H59	H	0.882542	0.411161	0.401141
	H60	H	0.118965	0.412701	0.590220
	H61	H	0.880626	0.597196	0.601617
	H62	H	0.117052	0.605059	0.412323
	H63	H	0.885681	0.415538	0.407836
	H64	H	0.404508	0.605726	0.113736
	H65	H	0.596040	0.600744	0.878170
	H66	H	0.593377	0.400267	0.113557
	H67	H	0.408956	0.425744	0.880660
	H68	H	0.595290	0.125040	0.398020
	H69	H	0.584565	0.895612	0.577213
	H70	H	0.405147	0.125447	0.586979
	H71	H	0.411629	0.889318	0.405329
	H72	H	0.904507	0.622693	0.080919
	H73	H	0.099130	0.387882	0.089434
	H74	H	0.088631	0.620903	0.907850
	H75	H	0.910715	0.390079	0.906477
	H76	H	0.100683	0.917026	0.611863
	H77	H	0.088745	0.098969	0.380835
	H78	H	0.908715	0.098379	0.609733
	H79	H	0.910670	0.908513	0.377168
	H80	H	0.618958	0.101727	0.905022
	H81	H	0.388078	0.094613	0.081753
	H82	H	0.620111	0.917903	0.095622
	H83	H	0.383542	0.918142	0.894960
	H84	H	0.620852	0.904689	0.088955
	H85	H	0.383173	0.094787	0.095277
	H86	H	0.618017	0.093611	0.899129
	H87	H	0.383106	0.907914	0.903919
	H88	H	0.908057	0.102368	0.611652
	H89	H	0.096492	0.105835	0.376037
	H90	H	0.088972	0.914256	0.608623
	H91	H	0.904944	0.916654	0.377363
	H92	H	0.101108	0.626197	0.903332
	H93	H	0.090104	0.389990	0.091713
	H94	H	0.903988	0.627271	0.094753
	H95	H	0.905218	0.386021	0.900202
	H96	H	0.411561	0.124032	0.591886
	H97	H	0.610643	0.885337	0.584305
	H98	H	0.591065	0.122990	0.400723
	H99	H	0.406784	0.886845	0.401891
	H100	H	0.606098	0.417364	0.112474
	H101	H	0.596981	0.600049	0.876973
	H102	H	0.402848	0.591631	0.109885
	H103	H	0.418958	0.407348	0.878410
	H104	H	0.115352	0.586086	0.400551
	H105	H	0.881977	0.612329	0.585235
	H106	H	0.118023	0.412826	0.587187
	H107	H	0.884766	0.419301	0.400098
	H108	H	0.916560	0.622602	0.089882
	H109	H	0.093418	0.391430	0.082993
	H110	H	0.090444	0.626018	0.893973
	H111	H	0.913941	0.388186	0.898373
	H112	H	0.096462	0.905633	0.613441
	H113	H	0.099238	0.094570	0.379084
	H114	H	0.905349	0.099249	0.611689
	H115	H	0.914778	0.916872	0.380820
	H116	H	0.621137	0.102151	0.895642
	H117	H	0.382695	0.105678	0.087006
	H118	H	0.615901	0.915895	0.081156
	H119	H	0.387803	0.919960	0.908190
	C120	C	0.380684	0.014878	0.616842
	C121	C	0.623254	0.998116	0.615989
	C122	C	0.623463	0.014898	0.372937
	C123	C	0.380576	0.997354	0.373239
	C124	C	0.623943	0.384012	0.002597
	C125	C	0.623982	0.627588	0.986012
	C126	C	0.379562	0.628602	0.002848
	C127	C	0.380003	0.384909	0.985762
	C128	C	0.010448	0.628670	0.372632
	C129	C	0.992317	0.628374	0.616980
	C130	C	0.009585	0.385054	0.617219
	C131	C	0.992728	0.385842	0.374234
	C132	C	0.880216	0.515103	0.117317
	C133	C	0.123265	0.498277	0.116806
	C134	C	0.122915	0.515505	0.873506
	C135	C	0.880955	0.497302	0.873698
	C136	C	0.124361	0.883553	0.503177
	C137	C	0.123507	0.128071	0.486644
	C138	C	0.879208	0.129350	0.502897
	C139	C	0.880578	0.885139	0.486628
	C140	C	0.510658	0.128415	0.871960
	C141	C	0.492995	0.127211	0.115861
	C142	C	0.510244	0.884190	0.117129
	C143	C	0.493221	0.885672	0.873732
	C144	C	0.382622	0.891090	0.672983
	C145	C	0.620590	0.122344	0.670525
	C146	C	0.622288	0.890825	0.317943
	C147	C	0.380964	0.120969	0.317055
	C148	C	0.679964	0.386508	0.880017
	C149	C	0.678039	0.624215	0.109485
	C150	C	0.324232	0.627663	0.880226
	C151	C	0.324714	0.386759	0.108710
	C152	C	0.886260	0.683625	0.376530
	C153	C	0.116751	0.681730	0.612688
	C154	C	0.885729	0.330420	0.613915
	C155	C	0.116945	0.330718	0.376463
	C156	C	0.885834	0.387309	0.672679
	C157	C	0.116253	0.625469	0.671300
	C158	C	0.886899	0.628364	0.317328
	C159	C	0.116354	0.386389	0.317805
	C160	C	0.382836	0.683954	0.879775
	C161	C	0.620260	0.681819	0.109497
	C162	C	0.621389	0.329807	0.879476
	C163	C	0.382743	0.329574	0.108897
	C164	C	0.678807	0.890657	0.375979
	C165	C	0.677482	0.122671	0.612358
	C166	C	0.326115	0.890781	0.614636
	C167	C	0.324988	0.121398	0.375593
	C168	C	0.882507	0.391089	0.172940
	C169	C	0.121219	0.622185	0.171979
	C170	C	0.122056	0.391392	0.818698
	C171	C	0.882520	0.621749	0.819113
	C172	C	0.180251	0.886252	0.380440
	C173	C	0.178642	0.125321	0.609529
	C174	C	0.824900	0.127291	0.379687
	C175	C	0.824731	0.887146	0.609319
	C176	C	0.386508	0.183170	0.875079
	C177	C	0.617215	0.181658	0.111782
	C178	C	0.386423	0.829149	0.114392
	C179	C	0.616939	0.830327	0.876433
	C180	C	0.386513	0.886188	0.172787
	C181	C	0.616745	0.125525	0.170780
	C182	C	0.387252	0.127096	0.816623
	C183	C	0.616840	0.885873	0.817787
	C184	C	0.882618	0.185088	0.379878
	C185	C	0.120803	0.182954	0.609589
	C186	C	0.121854	0.829159	0.380062
	C187	C	0.882641	0.830111	0.609822
	C188	C	0.178334	0.391216	0.877051
	C189	C	0.178438	0.622192	0.113936
	C190	C	0.826164	0.390601	0.114329
	C191	C	0.826277	0.621984	0.876954
	C192	C	0.402864	0.101285	0.594189
	C193	C	0.601452	0.911552	0.594493
	C194	C	0.600622	0.101284	0.394350
	C195	C	0.403677	0.910762	0.395600
	C196	C	0.601718	0.405677	0.088774
	C197	C	0.602624	0.606156	0.900017
	C198	C	0.401566	0.605245	0.088754
	C199	C	0.402233	0.407644	0.899549
	C200	C	0.096360	0.605534	0.394612
	C201	C	0.905913	0.606635	0.595552
	C202	C	0.095836	0.407074	0.595215
	C203	C	0.906814	0.408695	0.396434
	C204	C	0.901958	0.601710	0.095125
	C205	C	0.100871	0.411987	0.094799
	C206	C	0.099984	0.601922	0.895210
	C207	C	0.903253	0.410577	0.895411
	C208	C	0.101969	0.905752	0.589003
	C209	C	0.101386	0.106179	0.400865
	C210	C	0.900881	0.106654	0.588811
	C211	C	0.903465	0.907381	0.400582
	C212	C	0.596969	0.105791	0.893607
	C213	C	0.406775	0.104834	0.094512
	C214	C	0.596584	0.906130	0.094975
	C215	C	0.407084	0.908713	0.895761
	Zn216	Zn	0.502269	0.006142	0.744671
	Zn217	Zn	0.501921	0.006108	0.245114
	Zn218	Zn	0.753059	0.505846	-0.005075
	Zn219	Zn	0.251505	0.507080	-0.005568
	Zn220	Zn	0.001473	0.755802	0.494862
	Zn221	Zn	0.001873	0.257178	0.494766
	Zn222	Zn	0.001109	0.506796	0.745677
	Zn223	Zn	0.001618	0.506914	0.245746
	Zn224	Zn	0.501910	0.756588	-0.005540
	Zn225	Zn	0.501501	0.255900	-0.006093
	Zn226	Zn	0.751541	0.006482	0.494172
	Zn227	Zn	0.252778	0.006164	0.495070
	N228	N	0.415807	0.969386	0.674410
	N229	N	0.587768	0.043989	0.673014
	N230	N	0.588433	0.969018	0.315844
	N231	N	0.414906	0.042740	0.315503
	N232	N	0.681544	0.419482	0.957700
	N233	N	0.680400	0.591398	0.031792
	N234	N	0.322149	0.593865	0.957942
	N235	N	0.323042	0.420460	0.031001
	N236	N	0.963952	0.683850	0.410300
	N237	N	0.038742	0.683506	0.579502
	N238	N	0.963708	0.328839	0.580445
	N239	N	0.039376	0.330083	0.410914
	N240	N	0.963785	0.420695	0.674665
	N241	N	0.037899	0.593057	0.674211
	N242	N	0.965123	0.595003	0.314698
	N243	N	0.038161	0.420001	0.316169
	N244	N	0.416158	0.684903	0.957274
	N245	N	0.587435	0.684215	0.031655
	N246	N	0.587327	0.328035	0.956906
	N247	N	0.416372	0.328305	0.031314
	N248	N	0.679719	0.968734	0.409406
	N249	N	0.679227	0.044450	0.579040
	N250	N	0.324703	0.968746	0.580361
	N251	N	0.324639	0.043345	0.409812
	N252	N	0.915466	0.469553	0.174947
	N253	N	0.087666	0.544195	0.174003
	N254	N	0.088379	0.469725	0.816151
	N255	N	0.915748	0.543442	0.817093
	N256	N	0.181738	0.919478	0.458117
	N257	N	0.180460	0.091973	0.532055
	N258	N	0.822466	0.093412	0.457300
	N259	N	0.823328	0.920736	0.531594
	N260	N	0.464170	0.184048	0.908896
	N261	N	0.539459	0.182814	0.078401
	N262	N	0.464384	0.827585	0.080708
	N263	N	0.539242	0.829888	0.910570
	N264	N	0.464503	0.919523	0.174624
	N265	N	0.538500	0.092445	0.173414
	N266	N	0.465412	0.093702	0.814529
	N267	N	0.538930	0.919758	0.816086
	N268	N	0.915811	0.186204	0.457443
	N269	N	0.087370	0.184750	0.532112
	N270	N	0.087766	0.827369	0.457388
	N271	N	0.916555	0.828742	0.532429
	N272	N	0.178967	0.469189	0.910449
	N273	N	0.179856	0.544113	0.080234
	N274	N	0.824535	0.468761	0.080647
	N275	N	0.825013	0.543522	0.910159
	O276	O	0.040747	0.019061	0.094367
	H277	H	0.044368	0.020579	0.097506
	H278	H	0.047165	0.003893	0.090935
	O279	O	0.491701	0.489779	0.517161
	H280	H	0.497317	0.499536	0.520689
	H281	H	0.496680	0.489702	0.498056
	O282	O	0.467429	0.587859	0.411809
	H283	H	0.465129	0.602408	0.406794
	H284	H	0.459769	0.580095	0.413968
	O285	O	0.044660	0.987669	0.957864
	H286	H	0.042030	0.992353	0.950030
	H287	H	0.046948	0.985074	0.962850
	O288	O	0.447108	0.525639	0.475068
	H289	H	0.455040	0.526383	0.470663
	H290	H	0.457052	0.529459	0.473122
	O291	O	1.090559	1.048923	1.044498
	H292	H	1.088395	1.051608	1.052473
	H293	H	1.092591	1.057054	1.035213
	O294	O	1.046992	1.021120	1.036077
	H295	H	1.054018	1.025604	1.042039
	H296	H	1.042822	1.032384	1.034993
	O297	O	0.992422	0.011935	0.893256
	H298	H	0.990637	0.011861	0.897414
	H299	H	0.995696	0.019532	0.892931
	O300	O	0.501831	0.498706	0.504012
	H301	H	0.498832	0.489607	0.509832
	H302	H	0.501631	0.491654	0.504329
	O303	O	0.894247	-0.086352	0.034511
	H304	H	0.897697	-0.098270	0.031418
	H305	H	0.882214	-0.101378	0.042768
	O306	O	0.031928	1.074713	0.953954
	H307	H	0.038375	1.081550	0.954954
	H308	H	0.024131	1.073219	0.943698
	O309	O	0.515173	0.477639	0.424630
	H310	H	0.516686	0.472916	0.434886
	H311	H	0.505920	0.478801	0.420794
	O312	O	0.983839	0.017727	0.939426
	H313	H	0.973861	0.021710	0.929453
	H314	H	0.982068	0.010271	0.937423
	O315	O	0.418023	0.530693	0.466744
	H316	H	0.407962	0.541207	0.464646
	H317	H	0.414697	0.529184	0.461655
	O318	O	0.045495	0.016769	0.993229
	H319	H	0.036609	0.012429	0.982442
	H320	H	0.041021	0.018755	1.000404
	O321	O	1.025372	1.075019	1.129119
	H322	H	1.024826	1.073958	1.128540
	H323	H	1.018904	1.081582	1.133998
	O324	O	0.535729	0.516923	0.495642
	H325	H	0.529368	0.511146	0.501390
	H326	H	0.542008	0.512838	0.494760
	O327	O	0.494659	0.471795	0.507471
	H328	H	0.493010	0.466036	0.505061
	H329	H	0.490796	0.469693	0.500686
	O330	O	0.963025	-0.059376	0.983099
	H331	H	0.962549	-0.051502	0.982923
	H332	H	0.968405	-0.057385	0.985064
	O333	O	1.006982	0.976014	0.006933
	H334	H	1.002961	0.962994	0.006359
	H335	H	1.005315	0.980632	0.021164
	O336	O	0.482883	0.523377	0.364101
	H337	H	0.481639	0.523331	0.374738
	H338	H	0.482878	0.530698	0.356510
	O339	O	0.502599	0.429471	0.499387
	H340	H	0.510659	0.423323	0.492422
	H341	H	0.498562	0.430383	0.500695
	O342	O	-0.049173	0.955677	0.014056
	H343	H	-0.057323	0.944087	0.010528
	H344	H	-0.048039	0.946137	0.009385
	O345	O	-0.014406	-0.017864	-0.016283
	H346	H	-0.005115	-0.019882	-0.013289
	H347	H	-0.016252	-0.012760	-0.015013
	O348	O	0.424299	0.444349	0.513929
	H349	H	0.426946	0.447956	0.523356
	H350	H	0.414627	0.438570	0.521626
	O351	O	0.297314	0.547302	0.420635
	H352	H	0.287510	0.550783	0.411141
	H353	H	0.300491	0.554971	0.429153
	O354	O	0.525070	0.496625	0.465054
	H355	H	0.528758	0.497102	0.463636
	H356	H	0.531638	0.486474	0.469381
	O357	O	0.524941	0.463027	0.550343
	H358	H	0.527922	0.460604	0.555035
	H359	H	0.522067	0.464463	0.545510
	O360	O	-0.039512	0.032597	-0.045405
	H361	H	-0.030398	0.030550	-0.048541
	H362	H	-0.040744	0.027159	-0.042916
	O363	O	0.462605	0.436498	0.560962
	H364	H	0.461536	0.439964	0.551591
	H365	H	0.472095	0.437150	0.561398
	O366	O	0.055668	-0.041860	0.999241
	H367	H	0.060911	-0.038333	1.003586
	H368	H	0.068437	-0.038855	0.995078
	O369	O	0.490288	0.383886	0.463142
	H370	H	0.483676	0.379853	0.458506
	H371	H	0.486646	0.389175	0.447434
