data_Molecule from HDF5

_cell_length_a		16.147472
_cell_length_b		16.409790
_cell_length_c		16.098490
_cell_angle_alpha	90.552516
_cell_angle_beta	90.726776
_cell_angle_gamma	90.409211
_symmetry_space_group_name_H-M	'P 1'
_symmetry_Int_Tables_number		1

loop_
	_symmetry_equiv_pos_as_xyz
	x,y,z

loop_
	_atom_site_label
	_atom_site_type_symbol
	_atom_site_fract_x
	_atom_site_fract_y
	_atom_site_fract_z
	H0	H	0.406133	0.838632	0.701207
	H1	H	0.606962	0.164938	0.710737
	H2	H	0.599692	0.839438	0.274855
	H3	H	0.405548	0.166254	0.276660
	H4	H	0.709916	0.405133	0.824261
	H5	H	0.720028	0.601592	0.155916
	H6	H	0.289123	0.595857	0.825343
	H7	H	0.291946	0.405818	0.157197
	H8	H	0.839614	0.716654	0.387101
	H9	H	0.167123	0.722045	0.597230
	H10	H	0.840541	0.286261	0.588938
	H11	H	0.168010	0.286035	0.389132
	H12	H	0.836191	0.407262	0.695630
	H13	H	0.168173	0.601710	0.707181
	H14	H	0.838501	0.596258	0.276167
	H15	H	0.170121	0.406468	0.279227
	H16	H	0.399571	0.715129	0.826622
	H17	H	0.608462	0.721148	0.155053
	H18	H	0.603325	0.283900	0.828825
	H19	H	0.403472	0.287764	0.156144
	H20	H	0.716754	0.839472	0.392106
	H21	H	0.721808	0.165336	0.593536
	H22	H	0.288173	0.840481	0.585791
	H23	H	0.288088	0.166560	0.390610
	H24	H	0.905561	0.339309	0.201151
	H25	H	0.104840	0.666246	0.207630
	H26	H	0.096540	0.338646	0.774830
	H27	H	0.905518	0.666416	0.776319
	H28	H	0.211383	0.906814	0.323869
	H29	H	0.220241	0.103476	0.656944
	H30	H	0.788298	0.098087	0.326204
	H31	H	0.794275	0.906288	0.657223
	H32	H	0.339744	0.215822	0.889539
	H33	H	0.667738	0.220419	0.097219
	H34	H	0.340359	0.785107	0.090244
	H35	H	0.667183	0.784859	0.889666
	H36	H	0.337157	0.907725	0.197717
	H37	H	0.668844	0.101498	0.207619
	H38	H	0.338899	0.095561	0.777391
	H39	H	0.670700	0.906467	0.781783
	H40	H	0.902518	0.214995	0.325649
	H41	H	0.109293	0.222448	0.654915
	H42	H	0.102851	0.786079	0.326635
	H43	H	0.902905	0.787564	0.654565
	H44	H	0.216150	0.338664	0.890265
	H45	H	0.222396	0.664717	0.092726
	H46	H	0.788289	0.339942	0.084471
	H47	H	0.788368	0.665923	0.891743
	H48	H	0.408860	0.121944	0.591463
	H49	H	0.600104	0.885777	0.588147
	H50	H	0.601716	0.118175	0.402780
	H51	H	0.414827	0.889631	0.393228
	H52	H	0.597329	0.413243	0.110263
	H53	H	0.597419	0.595482	0.871292
	H54	H	0.415917	0.589801	0.107441
	H55	H	0.412682	0.405384	0.874367
	H56	H	0.120464	0.604213	0.411760
	H57	H	0.884997	0.598099	0.581360
	H58	H	0.117768	0.419663	0.577832
	H59	H	0.885706	0.403656	0.398338
	H60	H	0.124058	0.414045	0.592296
	H61	H	0.885258	0.598267	0.579926
	H62	H	0.117939	0.585851	0.402522
	H63	H	0.888523	0.410919	0.398622
	H64	H	0.420119	0.600512	0.109057
	H65	H	0.591582	0.592503	0.874081
	H66	H	0.595996	0.410788	0.109112
	H67	H	0.408076	0.405027	0.872324
	H68	H	0.596340	0.118852	0.396080
	H69	H	0.596005	0.887423	0.584649
	H70	H	0.422480	0.115971	0.585773
	H71	H	0.403004	0.888132	0.401245
	H72	H	0.911487	0.618875	0.081619
	H73	H	0.106464	0.386949	0.075758
	H74	H	0.100595	0.617737	0.901061
	H75	H	0.904290	0.382401	0.878499
	H76	H	0.097658	0.923184	0.605825
	H77	H	0.099463	0.088785	0.373701
	H78	H	0.913833	0.090893	0.606482
	H79	H	0.914504	0.901582	0.371548
	H80	H	0.620832	0.096056	0.905714
	H81	H	0.386803	0.102193	0.074204
	H82	H	0.622104	0.919302	0.090445
	H83	H	0.388516	0.913153	0.898020
	H84	H	0.625051	0.901286	0.087242
	H85	H	0.388380	0.088268	0.081476
	H86	H	0.621493	0.094979	0.901399
	H87	H	0.383617	0.905102	0.889689
	H88	H	0.921435	0.101742	0.608964
	H89	H	0.085682	0.095886	0.375210
	H90	H	0.086809	0.906558	0.607264
	H91	H	0.901191	0.908675	0.370669
	H92	H	0.096397	0.618719	0.896420
	H93	H	0.100136	0.383265	0.096174
	H94	H	0.911018	0.619984	0.085339
	H95	H	0.917489	0.391067	0.897462
	H96	H	0.409828	0.117054	0.575433
	H97	H	0.601462	0.886614	0.583060
	H98	H	0.593821	0.116178	0.403658
	H99	H	0.402908	0.884644	0.387608
	H100	H	0.598391	0.411287	0.110503
	H101	H	0.591641	0.599281	0.872008
	H102	H	0.409491	0.598661	0.111202
	H103	H	0.410033	0.409468	0.873946
	H104	H	0.126006	0.602266	0.392436
	H105	H	0.885463	0.596940	0.581350
	H106	H	0.122470	0.404254	0.578793
	H107	H	0.885632	0.408027	0.391784
	H108	H	0.914159	0.617726	0.084170
	H109	H	0.085848	0.391319	0.080995
	H110	H	0.094553	0.615753	0.901748
	H111	H	0.894017	0.385652	0.899700
	H112	H	0.105557	0.906461	0.613723
	H113	H	0.097857	0.103883	0.370343
	H114	H	0.908357	0.101744	0.612713
	H115	H	0.913288	0.914928	0.375417
	H116	H	0.622135	0.098182	0.903532
	H117	H	0.382496	0.100445	0.089913
	H118	H	0.618289	0.911373	0.072915
	H119	H	0.386010	0.901986	0.900984
	C120	C	0.383519	0.010812	0.611456
	C121	C	0.628355	0.994041	0.615229
	C122	C	0.625090	0.010420	0.370414
	C123	C	0.379629	0.995135	0.366643
	C124	C	0.623947	0.381890	0.000354
	C125	C	0.624689	0.624907	0.981869
	C126	C	0.383872	0.623136	-0.000144
	C127	C	0.381831	0.379411	0.982909
	C128	C	0.012479	0.623935	0.370843
	C129	C	0.994284	0.626455	0.612542
	C130	C	0.012359	0.383105	0.610086
	C131	C	0.995738	0.380154	0.368141
	C132	C	0.882999	0.510953	0.110495
	C133	C	0.127495	0.494454	0.114297
	C134	C	0.124153	0.509790	0.869361
	C135	C	0.878197	0.494286	0.865204
	C136	C	0.124156	0.882754	0.499458
	C137	C	0.125891	0.126066	0.482262
	C138	C	0.883649	0.124613	0.500083
	C139	C	0.882276	0.881130	0.482042
	C140	C	0.512768	0.123542	0.871704
	C141	C	0.494391	0.126184	0.113598
	C142	C	0.512468	0.882232	0.110968
	C143	C	0.495200	0.879101	0.868608
	C144	C	0.385640	0.887937	0.664517
	C145	C	0.626528	0.116335	0.672067
	C146	C	0.620943	0.888079	0.313482
	C147	C	0.384270	0.117570	0.313496
	C148	C	0.674923	0.384086	0.874679
	C149	C	0.682244	0.622667	0.106401
	C150	C	0.327041	0.617772	0.874969
	C151	C	0.328488	0.384341	0.107481
	C152	C	0.888769	0.678440	0.368847
	C153	C	0.117959	0.683244	0.615090
	C154	C	0.888846	0.325796	0.607800
	C155	C	0.119022	0.324666	0.369770
	C156	C	0.886587	0.386222	0.660669
	C157	C	0.118641	0.623202	0.669679
	C158	C	0.888003	0.618406	0.313975
	C159	C	0.120228	0.384627	0.315067
	C160	C	0.381718	0.677166	0.875683
	C161	C	0.626700	0.681983	0.105822
	C162	C	0.621576	0.323959	0.877006
	C163	C	0.383760	0.325589	0.107001
	C164	C	0.679240	0.888010	0.371739
	C165	C	0.683879	0.116564	0.613832
	C166	C	0.327152	0.888727	0.606835
	C167	C	0.325461	0.117543	0.370114
	C168	C	0.885152	0.388014	0.163700
	C169	C	0.125808	0.617024	0.170510
	C170	C	0.118717	0.387281	0.812756
	C171	C	0.883717	0.617523	0.812989
	C172	C	0.175874	0.885741	0.373989
	C173	C	0.183016	0.124624	0.606873
	C174	C	0.826954	0.119406	0.375324
	C175	C	0.829974	0.885298	0.607252
	C176	C	0.388826	0.177688	0.870785
	C177	C	0.618562	0.182338	0.115663
	C178	C	0.388791	0.825087	0.109120
	C179	C	0.618851	0.823899	0.870890
	C180	C	0.387278	0.885620	0.162758
	C181	C	0.619184	0.122891	0.170309
	C182	C	0.388378	0.118042	0.814929
	C183	C	0.620341	0.883989	0.816651
	C184	C	0.883383	0.177749	0.375365
	C185	C	0.127574	0.183122	0.606052
	C186	C	0.121767	0.825688	0.375388
	C187	C	0.884410	0.826378	0.605969
	C188	C	0.177697	0.387103	0.870802
	C189	C	0.183982	0.616535	0.113010
	C190	C	0.826597	0.388483	0.106144
	C191	C	0.825056	0.617120	0.869899
	C192	C	0.406924	0.096144	0.590438
	C193	C	0.605845	0.908579	0.592113
	C194	C	0.603689	0.095468	0.393837
	C195	C	0.400787	0.909481	0.387680
	C196	C	0.603249	0.404866	0.087344
	C197	C	0.600554	0.602307	0.894934
	C198	C	0.407980	0.602455	0.086598
	C199	C	0.403756	0.400321	0.895964
	C200	C	0.099217	0.603386	0.395050
	C201	C	0.907680	0.604299	0.588031
	C202	C	0.099046	0.405900	0.589046
	C203	C	0.909003	0.401263	0.389744
	C204	C	0.905504	0.596544	0.089907
	C205	C	0.104378	0.409192	0.091179
	C206	C	0.103313	0.595169	0.892968
	C207	C	0.898971	0.408602	0.885726
	C208	C	0.102957	0.905497	0.586400
	C209	C	0.101532	0.102922	0.395559
	C210	C	0.907501	0.104154	0.586929
	C211	C	0.903480	0.902104	0.395100
	C212	C	0.599215	0.102634	0.896396
	C213	C	0.408177	0.103754	0.089020
	C214	C	0.599287	0.904306	0.089890
	C215	C	0.408415	0.900240	0.889887
	Zn216	Zn	0.505055	0.001623	0.742549
	Zn217	Zn	0.502862	0.003172	0.239020
	Zn218	Zn	0.751284	0.502866	-0.010682
	Zn219	Zn	0.255761	0.501885	-0.008526
	Zn220	Zn	0.003401	0.754247	0.490950
	Zn221	Zn	0.004847	0.253456	0.491013
	Zn222	Zn	0.001903	0.503232	0.738084
	Zn223	Zn	0.004261	0.502742	0.241599
	Zn224	Zn	0.503532	0.752642	-0.009193
	Zn225	Zn	0.504106	0.253380	-0.007077
	Zn226	Zn	0.755928	0.002548	0.492012
	Zn227	Zn	0.252200	0.003987	0.490180
	N228	N	0.420109	0.964985	0.667499
	N229	N	0.592646	0.039128	0.672877
	N230	N	0.588182	0.965144	0.312434
	N231	N	0.417078	0.040381	0.311080
	N232	N	0.676375	0.419842	0.952378
	N233	N	0.680995	0.587861	0.028240
	N234	N	0.328305	0.584741	0.953253
	N235	N	0.327051	0.417004	0.029056
	N236	N	0.967027	0.681804	0.403724
	N237	N	0.039644	0.685282	0.580158
	N238	N	0.967978	0.323727	0.576962
	N239	N	0.040497	0.321865	0.402156
	N240	N	0.964323	0.421351	0.662288
	N241	N	0.040695	0.588594	0.668264
	N242	N	0.965982	0.585223	0.315101
	N243	N	0.042518	0.418436	0.313844
	N244	N	0.416560	0.680475	0.954167
	N245	N	0.591852	0.683513	0.027369
	N246	N	0.590722	0.322674	0.956240
	N247	N	0.416315	0.322571	0.028520
	N248	N	0.681789	0.965020	0.406607
	N249	N	0.685195	0.039548	0.579275
	N250	N	0.325640	0.966129	0.574682
	N251	N	0.322622	0.040430	0.402804
	N252	N	0.919511	0.465140	0.166435
	N253	N	0.091577	0.539907	0.171675
	N254	N	0.086239	0.464646	0.811716
	N255	N	0.915798	0.540121	0.809829
	N256	N	0.177802	0.920428	0.452193
	N257	N	0.182040	0.089652	0.528788
	N258	N	0.826852	0.087202	0.453992
	N259	N	0.828423	0.918836	0.529198
	N260	N	0.467270	0.181133	0.905612
	N261	N	0.540049	0.184584	0.081190
	N262	N	0.467534	0.823144	0.077464
	N263	N	0.539912	0.820622	0.902356
	N264	N	0.465090	0.920623	0.163990
	N265	N	0.541032	0.088870	0.169481
	N266	N	0.466431	0.085243	0.815466
	N267	N	0.542615	0.917775	0.815450
	N268	N	0.918033	0.180966	0.453864
	N269	N	0.092936	0.184404	0.527576
	N270	N	0.090418	0.823771	0.454426
	N271	N	0.916004	0.823575	0.527145
	N272	N	0.181257	0.464256	0.905218
	N273	N	0.185168	0.539366	0.078837
	N274	N	0.825053	0.465883	0.073839
	N275	N	0.821406	0.539561	0.901729
	O276	O	0.077648	0.010756	-0.029165
	H277	H	0.078916	0.013116	-0.023103
	H278	H	0.072614	0.016305	-0.035815
	O279	O	0.486470	0.530728	0.432579
	H280	H	0.495111	0.542719	0.443186
	H281	H	0.489175	0.521133	0.420808
	O282	O	0.550627	0.565927	0.542083
	H283	H	0.554604	0.569331	0.536770
	H284	H	0.559485	0.569015	0.546949
	O285	O	1.040154	0.075291	1.050174
	H286	H	1.038926	0.068522	1.035700
	H287	H	1.043436	0.078732	1.050918
	O288	O	1.003858	0.043541	-0.009450
	H289	H	1.006821	0.045439	-0.009079
	H290	H	1.002300	0.041942	-0.005447
	O291	O	0.518294	0.530877	0.510841
	H292	H	0.513034	0.531725	0.508324
	H293	H	0.516517	0.530137	0.509624
	O294	O	1.006647	0.026402	0.986942
	H295	H	1.011985	0.023699	0.990222
	H296	H	0.996063	0.032882	0.991629
	O297	O	0.063095	0.053431	0.037489
	H298	H	0.070962	0.045116	0.036401
	H299	H	0.060044	0.061792	0.045165
	O300	O	0.482493	0.458896	0.415447
	H301	H	0.478807	0.450667	0.416201
	H302	H	0.484201	0.462743	0.420247
	O303	O	0.608303	0.473072	0.483759
	H304	H	0.614926	0.467542	0.485954
	H305	H	0.609083	0.474317	0.478684
	O306	O	0.991217	0.035424	-0.042106
	H307	H	1.000498	0.038497	-0.033575
	H308	H	0.994264	0.040576	-0.048137
	O309	O	0.034532	-0.002303	0.974646
	H310	H	0.040992	-0.004748	0.966147
	H311	H	0.025615	-0.003689	0.968625
	O312	O	1.418368	0.552341	1.524211
	H313	H	1.416727	0.543836	1.518781
	H314	H	1.413490	0.542786	1.520132
	O315	O	0.427178	0.490558	0.462729
	H316	H	0.426843	0.493976	0.467490
	H317	H	0.419887	0.481628	0.460527
	O318	O	0.481778	0.490124	0.528138
	H319	H	0.487551	0.491875	0.534688
	H320	H	0.475387	0.497555	0.532789
	O321	O	-0.008168	1.037303	1.014818
	H322	H	-0.007658	1.040141	1.016705
	H323	H	-0.005599	1.034091	1.013303
	O324	O	0.421577	0.463173	0.506603
	H325	H	0.421077	0.461173	0.512113
	H326	H	0.422646	0.464188	0.505667
	O327	O	0.485959	0.478289	0.465604
	H328	H	0.478139	0.470132	0.460836
	H329	H	0.491970	0.473808	0.466053
	O330	O	0.488524	0.525671	0.469991
	H331	H	0.487080	0.525919	0.478459
	H332	H	0.487958	0.530468	0.469611
	O333	O	0.458184	0.504569	0.461074
	H334	H	0.461855	0.500198	0.472921
	H335	H	0.463682	0.508822	0.458201
	O336	O	0.526989	0.429436	0.485483
	H337	H	0.529351	0.435263	0.485424
	H338	H	0.518722	0.426936	0.481489
	O339	O	1.047048	1.000007	-0.025169
	H340	H	1.043613	1.005451	-0.019955
	H341	H	1.058995	1.004228	-0.027211
	O342	O	0.516119	0.505429	0.527093
	H343	H	0.510780	0.505763	0.523896
	H344	H	0.524169	0.506520	0.524987
	O345	O	0.562260	0.443971	0.449848
	H346	H	0.574078	0.447622	0.449857
	H347	H	0.555584	0.442206	0.443831
	O348	O	-0.419407	0.551289	0.594109
	H349	H	-0.410713	0.550240	0.590905
	H350	H	-0.417199	0.562707	0.604797
	O351	O	0.022300	0.996835	0.972784
	H352	H	0.018227	0.986456	0.973859
	H353	H	0.028185	0.997352	0.984020
	O354	O	0.518030	0.542034	0.525112
	H355	H	0.513632	0.542373	0.538178
	H356	H	0.510752	0.545677	0.509030
	O357	O	-0.022656	1.073613	1.036016
	H358	H	-0.008082	1.069386	1.034269
	H359	H	-0.022653	1.088931	1.038807
