data_Molecule from HDF5

_cell_length_a		16.219349
_cell_length_b		16.299161
_cell_length_c		16.220832
_cell_angle_alpha	89.981785
_cell_angle_beta	90.179161
_cell_angle_gamma	90.126211
_symmetry_space_group_name_H-M	'P 1'
_symmetry_Int_Tables_number		1

loop_
	_symmetry_equiv_pos_as_xyz
	x,y,z

loop_
	_atom_site_label
	_atom_site_type_symbol
	_atom_site_fract_x
	_atom_site_fract_y
	_atom_site_fract_z
	H0	H	0.400778	0.846323	0.700990
	H1	H	0.605481	0.170991	0.699616
	H2	H	0.602030	0.845084	0.265996
	H3	H	0.403645	0.171942	0.269871
	H4	H	0.714687	0.408979	0.821088
	H5	H	0.717013	0.608296	0.147266
	H6	H	0.284248	0.607533	0.821789
	H7	H	0.287175	0.409374	0.149623
	H8	H	0.838917	0.722295	0.383814
	H9	H	0.164773	0.723589	0.589558
	H10	H	0.838067	0.289993	0.585205
	H11	H	0.165404	0.290778	0.385513
	H12	H	0.837797	0.404863	0.697499
	H13	H	0.165677	0.603392	0.700352
	H14	H	0.837928	0.604946	0.269818
	H15	H	0.165539	0.405569	0.268294
	H16	H	0.398186	0.724616	0.821107
	H17	H	0.602000	0.725075	0.148007
	H18	H	0.601209	0.293526	0.821670
	H19	H	0.399693	0.290975	0.147799
	H20	H	0.718038	0.844308	0.382069
	H21	H	0.718648	0.170444	0.582842
	H22	H	0.288085	0.844442	0.583286
	H23	H	0.285442	0.170237	0.383342
	H24	H	0.902186	0.342980	0.198714
	H25	H	0.102115	0.668529	0.201771
	H26	H	0.098879	0.341209	0.772381
	H27	H	0.899924	0.668035	0.766481
	H28	H	0.214369	0.908323	0.319601
	H29	H	0.219786	0.107060	0.647882
	H30	H	0.789161	0.103668	0.319057
	H31	H	0.786347	0.906656	0.648332
	H32	H	0.336788	0.223999	0.883250
	H33	H	0.665407	0.223894	0.084192
	H34	H	0.337621	0.794319	0.083267
	H35	H	0.663388	0.791404	0.881826
	H36	H	0.337786	0.909948	0.196715
	H37	H	0.665669	0.107261	0.198542
	H38	H	0.337715	0.108040	0.766892
	H39	H	0.666092	0.911747	0.772022
	H40	H	0.902107	0.221462	0.320368
	H41	H	0.102281	0.222207	0.648761
	H42	H	0.102484	0.789275	0.321463
	H43	H	0.901314	0.790062	0.648329
	H44	H	0.218134	0.344784	0.885727
	H45	H	0.215266	0.670331	0.085811
	H46	H	0.783934	0.345136	0.084409
	H47	H	0.787405	0.670336	0.884987
	H48	H	0.414733	0.124045	0.579461
	H49	H	0.605242	0.888665	0.573229
	H50	H	0.594580	0.122649	0.391799
	H51	H	0.409712	0.888462	0.380039
	H52	H	0.596826	0.413056	0.104039
	H53	H	0.594915	0.604179	0.865624
	H54	H	0.409461	0.602986	0.101570
	H55	H	0.410171	0.417886	0.869929
	H56	H	0.115507	0.593040	0.399377
	H57	H	0.885538	0.595564	0.577212
	H58	H	0.120251	0.406975	0.576086
	H59	H	0.885401	0.415964	0.388948
	H60	H	0.116421	0.416580	0.573882
	H61	H	0.885038	0.599990	0.575484
	H62	H	0.119559	0.595075	0.387775
	H63	H	0.883536	0.408646	0.390753
	H64	H	0.408522	0.604229	0.102585
	H65	H	0.592536	0.597355	0.869150
	H66	H	0.594026	0.422205	0.100593
	H67	H	0.409190	0.416017	0.868957
	H68	H	0.594547	0.123289	0.391432
	H69	H	0.590679	0.889548	0.588406
	H70	H	0.413408	0.121294	0.568699
	H71	H	0.416022	0.894217	0.393800
	H72	H	0.904960	0.623588	0.074434
	H73	H	0.093871	0.390767	0.076017
	H74	H	0.094870	0.625126	0.886497
	H75	H	0.913038	0.392341	0.890868
	H76	H	0.094710	0.911151	0.602075
	H77	H	0.090870	0.095977	0.369962
	H78	H	0.907132	0.107290	0.604237
	H79	H	0.921076	0.918984	0.373363
	H80	H	0.621839	0.102470	0.879678
	H81	H	0.389327	0.098001	0.062402
	H82	H	0.618018	0.923973	0.079483
	H83	H	0.387036	0.920755	0.897119
	H84	H	0.622506	0.909023	0.078717
	H85	H	0.384540	0.092040	0.087322
	H86	H	0.618392	0.113117	0.898741
	H87	H	0.383339	0.920604	0.884658
	H88	H	0.902929	0.090712	0.600896
	H89	H	0.090791	0.102543	0.367657
	H90	H	0.097699	0.915681	0.601609
	H91	H	0.910451	0.900370	0.364700
	H92	H	0.084359	0.619542	0.891097
	H93	H	0.093675	0.390381	0.076989
	H94	H	0.909892	0.624855	0.081850
	H95	H	0.902330	0.390379	0.897603
	H96	H	0.404596	0.125804	0.573824
	H97	H	0.585326	0.896703	0.569041
	H98	H	0.594680	0.123171	0.390951
	H99	H	0.399894	0.889929	0.393488
	H100	H	0.587415	0.414696	0.100454
	H101	H	0.587753	0.602897	0.868270
	H102	H	0.407396	0.602743	0.102355
	H103	H	0.408041	0.418421	0.868862
	H104	H	0.119279	0.604284	0.395791
	H105	H	0.885607	0.596738	0.572427
	H106	H	0.120117	0.414203	0.584052
	H107	H	0.886009	0.413966	0.395345
	H108	H	0.913903	0.620727	0.074595
	H109	H	0.093682	0.390932	0.076556
	H110	H	0.094888	0.621071	0.898009
	H111	H	0.902394	0.386065	0.885816
	H112	H	0.092851	0.915995	0.600042
	H113	H	0.096783	0.098763	0.367587
	H114	H	0.919141	0.096697	0.597940
	H115	H	0.899154	0.919828	0.366777
	H116	H	0.613163	0.091882	0.897299
	H117	H	0.379084	0.115542	0.078702
	H118	H	0.616212	0.916137	0.067185
	H119	H	0.382628	0.909163	0.891948
	C120	C	0.381232	0.016356	0.604404
	C121	C	0.624100	0.999374	0.605586
	C122	C	0.623518	0.015681	0.361647
	C123	C	0.379849	0.998885	0.360625
	C124	C	0.622142	0.387459	-0.006241
	C125	C	0.621982	0.630843	0.975544
	C126	C	0.378696	0.631279	-0.006349
	C127	C	0.379660	0.387488	0.977053
	C128	C	0.010435	0.627172	0.364051
	C129	C	0.993205	0.627175	0.606421
	C130	C	0.010531	0.383563	0.606298
	C131	C	0.993344	0.383941	0.362547
	C132	C	0.880022	0.515358	0.106068
	C133	C	0.122839	0.498146	0.106301
	C134	C	0.121819	0.514590	0.863197
	C135	C	0.877801	0.497562	0.861824
	C136	C	0.123688	0.885036	0.492918
	C137	C	0.123118	0.128296	0.476591
	C138	C	0.880636	0.127461	0.492619
	C139	C	0.880282	0.884405	0.476187
	C140	C	0.509469	0.131410	0.861530
	C141	C	0.492896	0.130335	0.105335
	C142	C	0.510368	0.887609	0.104241
	C143	C	0.492509	0.887568	0.862203
	C144	C	0.381770	0.894431	0.661805
	C145	C	0.624058	0.122072	0.661226
	C146	C	0.622205	0.893569	0.304563
	C147	C	0.382206	0.122312	0.305939
	C148	C	0.677102	0.389208	0.870178
	C149	C	0.678735	0.628950	0.098593
	C150	C	0.322106	0.628441	0.870667
	C151	C	0.324265	0.388829	0.100169
	C152	C	0.887676	0.683684	0.364359
	C153	C	0.115987	0.684266	0.607690
	C154	C	0.887120	0.327934	0.604422
	C155	C	0.116518	0.328217	0.364894
	C156	C	0.886790	0.384911	0.660433
	C157	C	0.116421	0.624300	0.662793
	C158	C	0.887021	0.625066	0.307834
	C159	C	0.116520	0.385379	0.306677
	C160	C	0.379204	0.686634	0.870258
	C161	C	0.621548	0.686948	0.098746
	C162	C	0.620994	0.331207	0.870728
	C163	C	0.380385	0.330136	0.099345
	C164	C	0.679480	0.892913	0.362847
	C165	C	0.680759	0.121798	0.603322
	C166	C	0.325225	0.893564	0.603655
	C167	C	0.323435	0.121599	0.362572
	C168	C	0.881793	0.392326	0.161313
	C169	C	0.121395	0.620524	0.162881
	C170	C	0.119409	0.390775	0.809494
	C171	C	0.880315	0.619759	0.805521
	C172	C	0.177847	0.887177	0.369264
	C173	C	0.180675	0.126691	0.599284
	C174	C	0.826171	0.124573	0.368383
	C175	C	0.824463	0.886822	0.599480
	C176	C	0.386071	0.186346	0.863202
	C177	C	0.616145	0.186140	0.104333
	C178	C	0.386787	0.832140	0.103169
	C179	C	0.615036	0.830581	0.863095
	C180	C	0.386842	0.889916	0.159217
	C181	C	0.616437	0.128181	0.161120
	C182	C	0.386593	0.128807	0.805064
	C183	C	0.616351	0.890417	0.808285
	C184	C	0.882455	0.183214	0.369177
	C185	C	0.122543	0.184115	0.599687
	C186	C	0.121910	0.828016	0.370158
	C187	C	0.881864	0.828900	0.599759
	C188	C	0.178654	0.392603	0.865884
	C189	C	0.177558	0.621456	0.105126
	C190	C	0.823297	0.393021	0.104161
	C191	C	0.824253	0.621053	0.864487
	C192	C	0.404293	0.101645	0.580814
	C193	C	0.600647	0.913848	0.583473
	C194	C	0.601205	0.100933	0.384742
	C195	C	0.402010	0.913213	0.382669
	C196	C	0.599599	0.410064	0.079257
	C197	C	0.598656	0.608168	0.889889
	C198	C	0.401526	0.609518	0.079842
	C199	C	0.402572	0.410566	0.891422
	C200	C	0.096027	0.604065	0.387599
	C201	C	0.907617	0.604186	0.582314
	C202	C	0.096684	0.405942	0.584495
	C203	C	0.907356	0.406332	0.385126
	C204	C	0.902881	0.601005	0.083645
	C205	C	0.100271	0.412864	0.083185
	C206	C	0.098283	0.599935	0.885250
	C207	C	0.899460	0.411726	0.884673
	C208	C	0.101624	0.907576	0.579075
	C209	C	0.099739	0.105605	0.390401
	C210	C	0.903093	0.105011	0.578622
	C211	C	0.903365	0.906637	0.390484
	C212	C	0.595708	0.109111	0.885089
	C213	C	0.406615	0.108329	0.082746
	C214	C	0.596404	0.909743	0.081741
	C215	C	0.406463	0.910197	0.884663
	Zn216	Zn	0.501935	0.008901	0.733348
	Zn217	Zn	0.501877	0.008164	0.232515
	Zn218	Zn	0.750195	0.508263	-0.015652
	Zn219	Zn	0.250835	0.508227	-0.014502
	Zn220	Zn	0.002345	0.755838	0.485441
	Zn221	Zn	0.001092	0.256367	0.485360
	Zn222	Zn	0.000421	0.504421	0.734149
	Zn223	Zn	0.002250	0.506259	0.234790
	Zn224	Zn	0.500837	0.759154	-0.015717
	Zn225	Zn	0.501353	0.259079	-0.015408
	Zn226	Zn	0.752057	0.006640	0.483880
	Zn227	Zn	0.252222	0.006906	0.483640
	N228	N	0.415851	0.971777	0.662362
	N229	N	0.589463	0.044820	0.662716
	N230	N	0.588100	0.970689	0.303856
	N231	N	0.416498	0.045069	0.304550
	N232	N	0.677940	0.423622	0.947571
	N233	N	0.679358	0.594700	0.021152
	N234	N	0.321525	0.594835	0.948362
	N235	N	0.323892	0.424070	0.023164
	N236	N	0.965367	0.685197	0.398579
	N237	N	0.038412	0.686096	0.573227
	N238	N	0.965120	0.327061	0.571319
	N239	N	0.038951	0.327378	0.399057
	N240	N	0.964365	0.419143	0.661806
	N241	N	0.039052	0.589480	0.662207
	N242	N	0.964585	0.590565	0.307519
	N243	N	0.038925	0.419211	0.305211
	N244	N	0.413668	0.688366	0.947864
	N245	N	0.586920	0.688104	0.021237
	N246	N	0.587350	0.330148	0.948437
	N247	N	0.414139	0.329016	0.021664
	N248	N	0.680398	0.969853	0.397667
	N249	N	0.681068	0.044481	0.569417
	N250	N	0.324893	0.970376	0.568446
	N251	N	0.321572	0.043977	0.395639
	N252	N	0.916347	0.469471	0.162472
	N253	N	0.088005	0.543121	0.163677
	N254	N	0.084595	0.467670	0.807795
	N255	N	0.912729	0.541931	0.803733
	N256	N	0.178951	0.921944	0.446409
	N257	N	0.180846	0.092483	0.521627
	N258	N	0.825042	0.090565	0.446091
	N259	N	0.823052	0.920376	0.521507
	N260	N	0.463815	0.188122	0.897473
	N261	N	0.538357	0.187615	0.070405
	N262	N	0.464412	0.830610	0.069652
	N263	N	0.536894	0.828564	0.895751
	N264	N	0.464759	0.923635	0.160134
	N265	N	0.538706	0.094332	0.162007
	N266	N	0.464495	0.095621	0.803980
	N267	N	0.539172	0.925244	0.807569
	N268	N	0.915312	0.185314	0.447475
	N269	N	0.087469	0.185110	0.522395
	N270	N	0.089028	0.826459	0.448322
	N271	N	0.915869	0.827304	0.522289
	N272	N	0.180104	0.470428	0.898593
	N273	N	0.178816	0.544391	0.070662
	N274	N	0.822074	0.470463	0.070359
	N275	N	0.822365	0.543822	0.898634
	O276	O	-0.624353	-0.410404	0.338430
	H277	H	-0.626652	-0.410366	0.347146
	H278	H	-0.608217	-0.422946	0.337500
	O279	O	0.457387	0.465117	0.527662
	H280	H	0.448221	0.465481	0.527105
	H281	H	0.451212	0.473530	0.538947
	O282	O	0.463591	0.455637	0.419209
	H283	H	0.472924	0.470508	0.420690
	H284	H	0.472770	0.450047	0.411866
	O285	O	0.056703	0.968142	0.949362
	H286	H	0.055069	0.977590	0.951327
	H287	H	0.057639	0.965759	0.963956
	O288	O	0.558616	0.622077	0.475243
	H289	H	0.572920	0.629658	0.481262
	H290	H	0.555193	0.624402	0.482102
	O291	O	1.052703	1.049674	0.967723
	H292	H	1.051261	1.047767	0.974148
	H293	H	1.061053	1.057733	0.970929
	O294	O	0.993126	0.924565	0.961811
	H295	H	0.992395	0.919656	0.956809
	H296	H	0.992129	0.922989	0.952430
	O297	O	0.999807	-0.012370	0.977181
	H298	H	0.997475	-0.010760	0.973523
	H299	H	1.003257	-0.011841	0.984745
	O300	O	0.618947	0.553629	0.626580
	H301	H	0.620713	0.554089	0.639952
	H302	H	0.617314	0.554933	0.621333
	O303	O	1.006323	-0.011404	0.001607
	H304	H	1.008004	-0.010590	-0.005178
	H305	H	1.015729	-0.013151	-0.010982
	O306	O	0.006637	1.069054	1.079327
	H307	H	-0.001549	1.064819	1.092918
	H308	H	-0.001389	1.056509	1.073147
	O309	O	0.336045	0.578255	0.494014
	H310	H	0.336271	0.572093	0.483735
	H311	H	0.338643	0.571864	0.488972
	O312	O	0.991661	-0.026503	0.962019
	H313	H	0.991000	-0.028073	0.962126
	H314	H	1.001544	-0.020680	0.959587
	O315	O	0.540420	0.356692	0.548101
	H316	H	0.537203	0.350150	0.547204
	H317	H	0.538902	0.365954	0.552019
	O318	O	-0.002415	0.039323	1.032451
	H319	H	-0.006680	0.039251	1.033711
	H320	H	0.006947	0.044424	1.035702
	O321	O	1.520296	0.518878	1.437107
	H322	H	1.522179	0.519927	1.435167
	H323	H	1.507775	0.528526	1.431504
	O324	O	0.513158	0.505242	0.568683
	H325	H	0.505996	0.498544	0.573626
	H326	H	0.507925	0.504962	0.578955
	O327	O	0.565002	0.574567	0.420725
	H328	H	0.565747	0.582524	0.421946
	H329	H	0.561223	0.567151	0.417212
	O330	O	0.610114	-0.509517	0.517348
	H331	H	0.598849	-0.505916	0.522803
	H332	H	0.612794	-0.501162	0.522133
	O333	O	1.079185	1.021950	0.011059
	H334	H	1.085085	1.025121	0.010730
	H335	H	1.072831	1.019146	0.008815
	O336	O	0.578816	0.640766	0.489454
	H337	H	0.573077	0.637833	0.481568
	H338	H	0.580272	0.633927	0.484191
	O339	O	0.464090	0.595334	0.524888
	H340	H	0.462870	0.596767	0.517577
	H341	H	0.473340	0.597174	0.508776
	O342	O	0.441698	1.383174	0.529816
	H343	H	0.444729	1.388441	0.529411
	H344	H	0.438445	1.379632	0.544561
	O345	O	0.541771	0.396575	0.363049
	H346	H	0.536764	0.398397	0.375616
	H347	H	0.543399	0.385325	0.375435
	O348	O	0.344448	0.591147	0.477203
	H349	H	0.354936	0.599422	0.459616
	H350	H	0.335031	0.582782	0.475560
	O351	O	-0.530992	0.632068	0.602980
	H352	H	-0.552627	0.640464	0.591724
	H353	H	-0.520669	0.634863	0.595482
	O354	O	0.530261	0.487694	0.448640
	H355	H	0.530577	0.473949	0.462956
	H356	H	0.548219	0.485253	0.456203
	O357	O	0.437538	0.410503	0.545709
	H358	H	0.428975	0.415346	0.544369
	H359	H	0.438139	0.401526	0.557209
	O360	O	0.001243	-0.032428	0.065823
	H361	H	0.002620	-0.027158	0.066803
	H362	H	0.002896	-0.030568	0.068096
	O363	O	0.567589	0.405117	0.369027
	H364	H	0.566802	0.416297	0.370971
	H365	H	0.573796	0.393235	0.368301
	O366	O	0.023374	-0.034591	1.020501
	H367	H	0.025886	-0.040472	1.030793
	H368	H	0.018428	-0.030506	1.024505
	O369	O	0.613157	0.512117	0.503089
	H370	H	0.619057	0.519036	0.503424
	H371	H	0.619987	0.513522	0.511312
