data_Molecule from HDF5

_cell_length_a		16.253560
_cell_length_b		16.225341
_cell_length_c		16.271318
_cell_angle_alpha	90.338004
_cell_angle_beta	90.300777
_cell_angle_gamma	89.536126
_symmetry_space_group_name_H-M	'P 1'
_symmetry_Int_Tables_number		1

loop_
	_symmetry_equiv_pos_as_xyz
	x,y,z

loop_
	_atom_site_label
	_atom_site_type_symbol
	_atom_site_fract_x
	_atom_site_fract_y
	_atom_site_fract_z
	H0	H	0.398735	0.837865	0.715482
	H1	H	0.596678	0.164195	0.721295
	H2	H	0.598762	0.839277	0.284654
	H3	H	0.394238	0.165696	0.286805
	H4	H	0.710753	0.398105	0.837867
	H5	H	0.712318	0.602985	0.163035
	H6	H	0.279027	0.600492	0.837619
	H7	H	0.281578	0.404413	0.165381
	H8	H	0.834566	0.723013	0.399358
	H9	H	0.160625	0.716857	0.603025
	H10	H	0.833753	0.289805	0.598041
	H11	H	0.159800	0.284565	0.399106
	H12	H	0.833207	0.404679	0.714265
	H13	H	0.158648	0.604168	0.720403
	H14	H	0.834107	0.607461	0.283350
	H15	H	0.159946	0.401869	0.285167
	H16	H	0.391903	0.717722	0.838655
	H17	H	0.594351	0.716156	0.164650
	H18	H	0.594524	0.282386	0.838998
	H19	H	0.397745	0.288454	0.166054
	H20	H	0.714706	0.839212	0.399975
	H21	H	0.710980	0.165937	0.604413
	H22	H	0.283014	0.837899	0.600139
	H23	H	0.278746	0.164629	0.401133
	H24	H	0.897004	0.339500	0.216520
	H25	H	0.096859	0.666126	0.219060
	H26	H	0.097457	0.339777	0.784017
	H27	H	0.891437	0.665734	0.784935
	H28	H	0.211912	0.901065	0.337599
	H29	H	0.213534	0.104739	0.662935
	H30	H	0.776469	0.105506	0.338894
	H31	H	0.783813	0.904329	0.664576
	H32	H	0.331066	0.216598	0.903201
	H33	H	0.658946	0.216022	0.104012
	H34	H	0.330941	0.789876	0.099961
	H35	H	0.657289	0.782039	0.901948
	H36	H	0.332222	0.904571	0.216733
	H37	H	0.658898	0.102469	0.219509
	H38	H	0.333057	0.103983	0.784017
	H39	H	0.658497	0.897443	0.787047
	H40	H	0.895916	0.217950	0.337291
	H41	H	0.097501	0.218263	0.663613
	H42	H	0.098581	0.783695	0.339442
	H43	H	0.899857	0.790338	0.664876
	H44	H	0.210618	0.339286	0.900513
	H45	H	0.211139	0.665728	0.102777
	H46	H	0.782244	0.337629	0.099271
	H47	H	0.774338	0.663999	0.899411
	H48	H	0.399420	0.118852	0.590662
	H49	H	0.606300	0.882588	0.583921
	H50	H	0.584415	0.116301	0.417006
	H51	H	0.402538	0.885091	0.410380
	H52	H	0.594663	0.403358	0.121271
	H53	H	0.590387	0.591658	0.883550
	H54	H	0.408855	0.592221	0.114067
	H55	H	0.404803	0.410046	0.886808
	H56	H	0.111571	0.593624	0.412582
	H57	H	0.881116	0.597581	0.590140
	H58	H	0.113099	0.410688	0.592433
	H59	H	0.877708	0.402378	0.408254
	H60	H	0.113099	0.411643	0.595107
	H61	H	0.880342	0.595930	0.593196
	H62	H	0.111160	0.590301	0.410608
	H63	H	0.884144	0.416078	0.415050
	H64	H	0.403318	0.603925	0.120474
	H65	H	0.582088	0.585676	0.886886
	H66	H	0.592178	0.417701	0.115731
	H67	H	0.403240	0.405016	0.884462
	H68	H	0.591571	0.120677	0.410997
	H69	H	0.591907	0.879817	0.611037
	H70	H	0.405846	0.119696	0.600493
	H71	H	0.404880	0.884745	0.405036
	H72	H	0.897261	0.617669	0.084815
	H73	H	0.084314	0.389142	0.086677
	H74	H	0.079043	0.616639	0.911712
	H75	H	0.908018	0.385380	0.903122
	H76	H	0.092375	0.915024	0.615906
	H77	H	0.098453	0.086585	0.382771
	H78	H	0.911871	0.092028	0.613252
	H79	H	0.906169	0.914004	0.385696
	H80	H	0.615297	0.091929	0.899479
	H81	H	0.381435	0.089059	0.093584
	H82	H	0.614044	0.904070	0.096871
	H83	H	0.376925	0.912531	0.899610
	H84	H	0.610645	0.908032	0.088850
	H85	H	0.376555	0.096048	0.101767
	H86	H	0.611937	0.100973	0.920736
	H87	H	0.376329	0.902378	0.911484
	H88	H	0.906062	0.105419	0.619390
	H89	H	0.077836	0.088928	0.388975
	H90	H	0.087878	0.908377	0.617715
	H91	H	0.907557	0.912574	0.385902
	H92	H	0.091935	0.620160	0.916033
	H93	H	0.095950	0.385129	0.091343
	H94	H	0.900653	0.622265	0.099709
	H95	H	0.906139	0.387480	0.910897
	H96	H	0.410218	0.115498	0.589852
	H97	H	0.576276	0.891470	0.586633
	H98	H	0.582687	0.118144	0.407168
	H99	H	0.408473	0.886561	0.409909
	H100	H	0.580850	0.408067	0.116087
	H101	H	0.581328	0.596513	0.884094
	H102	H	0.395665	0.592164	0.119055
	H103	H	0.399346	0.409156	0.885507
	H104	H	0.112931	0.592742	0.408442
	H105	H	0.879270	0.599380	0.592851
	H106	H	0.114670	0.410266	0.594028
	H107	H	0.879686	0.416268	0.398701
	H108	H	0.911144	0.614422	0.090479
	H109	H	0.085099	0.385507	0.099031
	H110	H	0.088417	0.623005	0.902419
	H111	H	0.900143	0.384014	0.906505
	H112	H	0.096134	0.909020	0.619722
	H113	H	0.088888	0.105775	0.380000
	H114	H	0.897200	0.093374	0.618752
	H115	H	0.905440	0.912497	0.385387
	H116	H	0.606158	0.078357	0.916556
	H117	H	0.378635	0.101488	0.090544
	H118	H	0.610956	0.913189	0.097503
	H119	H	0.382350	0.916994	0.913803
	C120	C	0.376133	0.009940	0.621915
	C121	C	0.619729	0.993000	0.624559
	C122	C	0.617332	0.010778	0.381113
	C123	C	0.374749	0.993314	0.379324
	C124	C	0.617747	0.378836	0.009876
	C125	C	0.615147	0.621754	0.992411
	C126	C	0.372297	0.624495	0.009988
	C127	C	0.373773	0.380066	0.993662
	C128	C	0.004883	0.624405	0.380239
	C129	C	0.987821	0.625966	0.623213
	C130	C	0.005408	0.382772	0.621912
	C131	C	0.988176	0.380914	0.378152
	C132	C	0.874316	0.510687	0.121595
	C133	C	0.117365	0.494475	0.122680
	C134	C	0.116210	0.511591	0.879867
	C135	C	0.873356	0.493483	0.877984
	C136	C	0.120222	0.880766	0.509878
	C137	C	0.118598	0.124179	0.491368
	C138	C	0.873964	0.126256	0.509583
	C139	C	0.877089	0.883386	0.493054
	C140	C	0.503731	0.121707	0.881605
	C141	C	0.487288	0.123906	0.124925
	C142	C	0.503706	0.880424	0.123180
	C143	C	0.486291	0.879068	0.879591
	C144	C	0.378528	0.886489	0.677087
	C145	C	0.617211	0.115383	0.682796
	C146	C	0.618089	0.887946	0.323675
	C147	C	0.374857	0.116265	0.324191
	C148	C	0.672720	0.378813	0.886892
	C149	C	0.672824	0.621759	0.114800
	C150	C	0.316399	0.621611	0.886832
	C151	C	0.319013	0.383546	0.116444
	C152	C	0.882652	0.683317	0.380393
	C153	C	0.111303	0.679940	0.622755
	C154	C	0.882469	0.327453	0.618720
	C155	C	0.111079	0.323601	0.379607
	C156	C	0.882061	0.385123	0.675998
	C157	C	0.110071	0.623936	0.681359
	C158	C	0.882772	0.626172	0.322337
	C159	C	0.111002	0.381720	0.322623
	C160	C	0.372557	0.680104	0.887458
	C161	C	0.614207	0.678175	0.115479
	C162	C	0.615362	0.321023	0.887563
	C163	C	0.377244	0.326075	0.116854
	C164	C	0.675842	0.888078	0.380885
	C165	C	0.674006	0.116459	0.624376
	C166	C	0.320977	0.886863	0.619807
	C167	C	0.317375	0.116200	0.381002
	C168	C	0.876643	0.387985	0.178139
	C169	C	0.116348	0.617287	0.180171
	C170	C	0.115930	0.388700	0.822846
	C171	C	0.872647	0.616597	0.822794
	C172	C	0.175108	0.881038	0.386869
	C173	C	0.175131	0.123749	0.614167
	C174	C	0.815543	0.125329	0.387639
	C175	C	0.821537	0.884826	0.615705
	C176	C	0.380648	0.178619	0.882826
	C177	C	0.610059	0.178682	0.123748
	C178	C	0.380543	0.826510	0.120728
	C179	C	0.608673	0.820811	0.881783
	C180	C	0.381141	0.883583	0.178911
	C181	C	0.610033	0.122132	0.181348
	C182	C	0.381469	0.122425	0.823534
	C183	C	0.609367	0.878322	0.824679
	C184	C	0.874847	0.181345	0.386601
	C185	C	0.117653	0.180667	0.614387
	C186	C	0.118561	0.822781	0.387751
	C187	C	0.879334	0.827879	0.615730
	C188	C	0.172554	0.388233	0.880688
	C189	C	0.173315	0.617188	0.122297
	C190	C	0.819324	0.387144	0.120162
	C191	C	0.814253	0.615720	0.879560
	C192	C	0.398454	0.095733	0.599989
	C193	C	0.597985	0.907117	0.600747
	C194	C	0.593195	0.095985	0.404859
	C195	C	0.398371	0.907610	0.401874
	C196	C	0.595656	0.402659	0.095361
	C197	C	0.591496	0.598251	0.907180
	C198	C	0.395612	0.602584	0.095581
	C199	C	0.395909	0.401730	0.907696
	C200	C	0.089942	0.599518	0.403886
	C201	C	0.902490	0.603900	0.599171
	C202	C	0.091121	0.404630	0.600253
	C203	C	0.902690	0.404393	0.400713
	C204	C	0.896411	0.595965	0.098399
	C205	C	0.094918	0.408862	0.099234
	C206	C	0.093208	0.597560	0.903280
	C207	C	0.897529	0.407944	0.900379
	C208	C	0.098492	0.904040	0.595531
	C209	C	0.095108	0.100674	0.406019
	C210	C	0.897971	0.103563	0.594924
	C211	C	0.899790	0.906310	0.407661
	C212	C	0.589170	0.097458	0.905321
	C213	C	0.401325	0.102091	0.102184
	C214	C	0.589703	0.901968	0.100907
	C215	C	0.400829	0.903473	0.901721
	Zn216	Zn	0.495984	0.000987	0.751461
	Zn217	Zn	0.496048	0.002213	0.252141
	Zn218	Zn	0.745211	0.501007	0.000522
	Zn219	Zn	0.245053	0.502476	0.001012
	Zn220	Zn	-0.002420	0.753450	0.501562
	Zn221	Zn	-0.002437	0.253170	0.500377
	Zn222	Zn	-0.004343	0.503230	0.750816
	Zn223	Zn	-0.003959	0.503217	0.250831
	Zn224	Zn	0.494338	0.751690	0.001138
	Zn225	Zn	0.495718	0.250926	0.002727
	Zn226	Zn	0.746808	0.002881	0.501838
	Zn227	Zn	0.247125	0.002209	0.500800
	N228	N	0.412126	0.964040	0.678714
	N229	N	0.584478	0.037376	0.683426
	N230	N	0.582543	0.964990	0.323445
	N231	N	0.409951	0.038911	0.323151
	N232	N	0.674665	0.413806	0.964167
	N233	N	0.673636	0.587253	0.037373
	N234	N	0.316015	0.587785	0.964088
	N235	N	0.317136	0.416600	0.038906
	N236	N	0.959763	0.682401	0.415533
	N237	N	0.034258	0.681644	0.587450
	N238	N	0.960148	0.325878	0.585392
	N239	N	0.033713	0.322888	0.413354
	N240	N	0.959551	0.418367	0.678331
	N241	N	0.032210	0.591153	0.681915
	N242	N	0.959627	0.589998	0.322323
	N243	N	0.033622	0.416673	0.321590
	N244	N	0.406654	0.681968	0.964924
	N245	N	0.579211	0.678561	0.038279
	N246	N	0.581815	0.321125	0.964940
	N247	N	0.410511	0.323753	0.039327
	N248	N	0.675625	0.965566	0.415979
	N249	N	0.675835	0.039211	0.589098
	N250	N	0.319398	0.964572	0.586353
	N251	N	0.317149	0.038692	0.414733
	N252	N	0.909862	0.465731	0.179472
	N253	N	0.082128	0.540010	0.180418
	N254	N	0.081771	0.466470	0.822220
	N255	N	0.908795	0.539731	0.821912
	N256	N	0.176290	0.916225	0.464050
	N257	N	0.175995	0.089384	0.536787
	N258	N	0.814748	0.092067	0.465250
	N259	N	0.820410	0.918903	0.538447
	N260	N	0.457691	0.178199	0.918371
	N261	N	0.532508	0.180274	0.089446
	N262	N	0.457919	0.824366	0.086905
	N263	N	0.531209	0.821421	0.915364
	N264	N	0.458863	0.916469	0.180503
	N265	N	0.532582	0.088919	0.182185
	N266	N	0.459020	0.087721	0.822758
	N267	N	0.532352	0.914114	0.823164
	N268	N	0.910447	0.182245	0.463447
	N269	N	0.082697	0.180825	0.537093
	N270	N	0.085234	0.822251	0.465084
	N271	N	0.913289	0.826910	0.538432
	N272	N	0.173017	0.465678	0.915552
	N273	N	0.173941	0.539937	0.087151
	N274	N	0.817766	0.464307	0.085670
	N275	N	0.814357	0.538163	0.913073
	O276	O	1.028657	0.031195	0.905935
	H277	H	1.030452	0.027128	0.911786
	H278	H	1.041135	0.026946	0.926987
	O279	O	0.423636	0.484381	0.541724
	H280	H	0.424477	0.477952	0.540619
	H281	H	0.424434	0.479941	0.549576
	O282	O	0.599408	0.559892	0.567571
	H283	H	0.585811	0.576545	0.560590
	H284	H	0.596110	0.569078	0.576047
	O285	O	0.464284	0.610196	0.402935
	H286	H	0.455564	0.625982	0.391835
	H287	H	0.455527	0.618232	0.404106
	O288	O	0.455662	0.553535	0.560722
	H289	H	0.452663	0.549360	0.560139
	H290	H	0.451385	0.560794	0.564364
	O291	O	0.014418	0.024035	0.948533
	H292	H	0.004628	0.020518	0.942726
	H293	H	0.015528	0.010115	0.951789
	O294	O	0.984803	1.104579	-0.025736
	H295	H	0.980937	1.106363	-0.044550
	H296	H	0.990297	1.119452	-0.035872
	O297	O	1.035787	1.036533	0.115634
	H298	H	1.039988	1.036483	0.112805
	H299	H	1.026872	1.040291	0.113334
	O300	O	0.519050	0.525691	0.385362
	H301	H	0.524168	0.529113	0.386265
	H302	H	0.524410	0.541647	0.386888
	O303	O	0.895501	-0.136377	0.995052
	H304	H	0.890395	-0.141812	0.994059
	H305	H	0.892847	-0.127469	0.985121
	O306	O	0.470231	0.391240	0.544956
	H307	H	0.482956	0.389927	0.542475
	H308	H	0.472516	0.384979	0.540587
	O309	O	0.514984	0.467586	0.504870
	H310	H	0.531746	0.478751	0.510345
	H311	H	0.510915	0.472662	0.509203
	O312	O	0.551668	1.571673	0.566072
	H313	H	0.543231	1.563964	0.550879
	H314	H	0.548553	1.572127	0.562282
	O315	O	0.917376	1.065965	0.057455
	H316	H	0.908340	1.060535	0.048499
	H317	H	0.912252	1.069358	0.061034
	O318	O	0.435890	0.393531	0.449340
	H319	H	0.441092	0.390568	0.461343
	H320	H	0.447162	0.385167	0.439685
	O321	O	0.536090	0.519550	0.511926
	H322	H	0.542099	0.528313	0.508835
	H323	H	0.549687	0.506378	0.520532
	O324	O	0.075289	0.996368	0.997330
	H325	H	0.067729	0.988708	1.001748
	H326	H	0.068228	0.999011	0.984141
	O327	O	-0.088317	0.960890	0.996387
	H328	H	-0.079382	0.959371	1.007724
	H329	H	-0.100813	0.976163	1.011987
	O330	O	-0.122108	-0.053414	0.068991
	H331	H	-0.134625	-0.051225	0.073742
	H332	H	-0.114067	-0.058748	0.060563
	O333	O	0.394166	0.591893	0.408201
	H334	H	0.382850	0.594323	0.406903
	H335	H	0.384770	0.585117	0.419187
	O336	O	-0.133796	-0.014303	-0.094820
	H337	H	-0.140560	-0.010664	-0.091242
	H338	H	-0.147900	-0.008331	-0.096292
	O339	O	0.011416	-0.041071	0.002068
	H340	H	0.021868	-0.056580	-0.001753
	H341	H	0.004061	-0.042384	-0.000895
	O342	O	0.503521	0.510885	0.531457
	H343	H	0.505859	0.514060	0.527000
	H344	H	0.508203	0.501326	0.530319
	O345	O	0.047300	0.993008	1.039883
	H346	H	0.046334	0.994402	1.033462
	H347	H	0.049206	0.996309	1.047030
	O348	O	0.585841	0.367111	0.375805
	H349	H	0.589898	0.368916	0.368322
	H350	H	0.587486	0.364233	0.362304
	O351	O	0.464528	0.482406	0.504914
	H352	H	0.465685	0.487971	0.524994
	H353	H	0.447928	0.488771	0.504325
	O354	O	0.005491	0.982692	-0.088639
	H355	H	-0.003423	0.995807	-0.082090
	H356	H	0.007163	0.981629	-0.096904
	O357	O	0.570060	0.478835	0.553990
	H358	H	0.558809	0.479763	0.559561
	H359	H	0.577500	0.460223	0.554391
	O360	O	0.927111	-0.019320	1.032302
	H361	H	0.920755	-0.010453	1.015215
	H362	H	0.933066	-0.026200	1.041575
	O363	O	0.383105	0.578576	0.538827
	H364	H	0.387663	0.581511	0.533047
	H365	H	0.376383	0.574111	0.537088
	O366	O	0.409396	0.494427	0.425811
	H367	H	0.430840	0.489398	0.421084
	H368	H	0.399832	0.487534	0.420694
	O369	O	1.087802	0.101076	0.142321
	H370	H	1.095367	0.105154	0.150707
	H371	H	1.091533	0.093051	0.143107
	O372	O	0.582954	0.506206	0.593926
	H373	H	0.566472	0.513957	0.592001
	H374	H	0.590484	0.507667	0.598065
	O375	O	1.013035	0.012603	0.985641
	H376	H	1.016677	0.010155	0.994611
	H377	H	1.026659	0.009981	0.980648
	O378	O	0.023687	0.948970	-0.084112
	H379	H	0.016790	0.956693	-0.089342
	H380	H	0.024694	0.953598	-0.083637
	O381	O	0.548887	0.493981	0.419134
	H382	H	0.545883	0.488452	0.424942
	H383	H	0.543238	0.489671	0.409082
	O384	O	0.936441	1.041374	-0.060993
	H385	H	0.936996	1.034817	-0.058965
	H386	H	0.934079	1.040949	-0.063172
	O387	O	1.004439	-0.067590	0.909730
	H388	H	1.013772	-0.052216	0.913486
	H389	H	0.998291	-0.071438	0.904419
	O390	O	1.068606	1.032614	0.124100
	H391	H	1.068284	1.024856	0.120490
	H392	H	1.075053	1.024645	0.123806
	O393	O	0.610924	0.458791	0.493700
	H394	H	0.613133	0.451967	0.465293
	H395	H	0.610111	0.462058	0.492744
