data_Molecule from HDF5

_cell_length_a		16.298372
_cell_length_b		16.400295
_cell_length_c		16.512305
_cell_angle_alpha	89.962089
_cell_angle_beta	89.888437
_cell_angle_gamma	89.985208
_symmetry_space_group_name_H-M	'P 1'
_symmetry_Int_Tables_number		1

loop_
	_symmetry_equiv_pos_as_xyz
	x,y,z

loop_
	_atom_site_label
	_atom_site_type_symbol
	_atom_site_fract_x
	_atom_site_fract_y
	_atom_site_fract_z
	H0	H	0.390030	0.825979	0.729017
	H1	H	0.605325	0.141296	0.727909
	H2	H	0.604856	0.824686	0.282806
	H3	H	0.385417	0.138531	0.279337
	H4	H	0.720585	0.374092	0.847556
	H5	H	0.720985	0.589162	0.161402
	H6	H	0.279377	0.585971	0.844516
	H7	H	0.273658	0.377988	0.161777
	H8	H	0.836997	0.702333	0.397484
	H9	H	0.156145	0.703122	0.608097
	H10	H	0.837682	0.259666	0.611372
	H11	H	0.156265	0.258298	0.396440
	H12	H	0.840597	0.371640	0.730433
	H13	H	0.154706	0.590569	0.727142
	H14	H	0.840649	0.590939	0.277863
	H15	H	0.157158	0.374576	0.280411
	H16	H	0.393269	0.705269	0.846699
	H17	H	0.604331	0.705752	0.161685
	H18	H	0.604587	0.258153	0.847949
	H19	H	0.386269	0.258733	0.161451
	H20	H	0.717242	0.823312	0.400959
	H21	H	0.719805	0.141799	0.610094
	H22	H	0.276350	0.823893	0.610812
	H23	H	0.272392	0.139956	0.398197
	H24	H	0.890299	0.324403	0.227409
	H25	H	0.106766	0.640772	0.226128
	H26	H	0.104400	0.323115	0.782416
	H27	H	0.890577	0.638463	0.781348
	H28	H	0.219334	0.877816	0.347082
	H29	H	0.217158	0.087036	0.662373
	H30	H	0.775891	0.086736	0.345814
	H31	H	0.778125	0.880735	0.662676
	H32	H	0.337247	0.202591	0.901762
	H33	H	0.656158	0.204757	0.111680
	H34	H	0.336758	0.762598	0.109844
	H35	H	0.657886	0.764868	0.903147
	H36	H	0.337588	0.876789	0.227340
	H37	H	0.656996	0.087024	0.225317
	H38	H	0.339264	0.092301	0.781770
	H39	H	0.656789	0.879063	0.784815
	H40	H	0.887992	0.206808	0.347663
	H41	H	0.104151	0.205730	0.660914
	H42	H	0.103398	0.760586	0.346025
	H43	H	0.888737	0.758745	0.660718
	H44	H	0.217184	0.322675	0.901252
	H45	H	0.214612	0.643815	0.103009
	H46	H	0.776451	0.323659	0.109966
	H47	H	0.776617	0.639810	0.898492
	H48	H	0.414354	0.093198	0.591282
	H49	H	0.578192	0.871839	0.597066
	H50	H	0.583186	0.092922	0.421275
	H51	H	0.411942	0.869634	0.416484
	H52	H	0.588563	0.392339	0.117849
	H53	H	0.586179	0.569398	0.893482
	H54	H	0.407996	0.572911	0.116951
	H55	H	0.415279	0.387304	0.892534
	H56	H	0.111537	0.569102	0.413291
	H57	H	0.883825	0.565078	0.594004
	H58	H	0.108682	0.396117	0.589822
	H59	H	0.882174	0.390363	0.412603
	H60	H	0.110605	0.395567	0.593074
	H61	H	0.880314	0.572345	0.596286
	H62	H	0.112258	0.572513	0.413791
	H63	H	0.887539	0.396365	0.422523
	H64	H	0.405588	0.573688	0.117388
	H65	H	0.583451	0.574419	0.892679
	H66	H	0.585471	0.397515	0.115498
	H67	H	0.402300	0.389319	0.889146
	H68	H	0.592970	0.098667	0.414134
	H69	H	0.588630	0.871149	0.589151
	H70	H	0.404256	0.095652	0.589787
	H71	H	0.409391	0.870956	0.418970
	H72	H	0.913094	0.591535	0.084809
	H73	H	0.084904	0.369694	0.090927
	H74	H	0.087095	0.595518	0.914777
	H75	H	0.904890	0.368403	0.919579
	H76	H	0.075814	0.892141	0.613490
	H77	H	0.079492	0.073762	0.392536
	H78	H	0.904185	0.069983	0.617254
	H79	H	0.908928	0.885401	0.389608
	H80	H	0.606696	0.065983	0.923404
	H81	H	0.381256	0.075335	0.093063
	H82	H	0.614951	0.892163	0.103592
	H83	H	0.381425	0.889450	0.919484
	H84	H	0.611485	0.886856	0.088785
	H85	H	0.386395	0.066703	0.088826
	H86	H	0.611078	0.065870	0.909910
	H87	H	0.385155	0.898789	0.919695
	H88	H	0.911685	0.068282	0.614480
	H89	H	0.089390	0.070936	0.390247
	H90	H	0.087461	0.882794	0.620755
	H91	H	0.900972	0.893652	0.389032
	H92	H	0.089336	0.597001	0.911672
	H93	H	0.087395	0.369164	0.092297
	H94	H	0.904064	0.597496	0.092468
	H95	H	0.910317	0.366000	0.910439
	H96	H	0.409030	0.097311	0.599009
	H97	H	0.589651	0.866494	0.601622
	H98	H	0.580440	0.096529	0.409141
	H99	H	0.408335	0.868929	0.415944
	H100	H	0.582088	0.391540	0.116429
	H101	H	0.589741	0.573717	0.890534
	H102	H	0.406285	0.571424	0.117326
	H103	H	0.409138	0.399614	0.894120
	H104	H	0.110348	0.570468	0.416047
	H105	H	0.883922	0.571720	0.588921
	H106	H	0.110845	0.393141	0.590559
	H107	H	0.886220	0.402433	0.411629
	H108	H	0.916165	0.595059	0.097193
	H109	H	0.085272	0.369521	0.093768
	H110	H	0.084872	0.596227	0.911478
	H111	H	0.915833	0.370361	0.919254
	H112	H	0.091790	0.898581	0.616846
	H113	H	0.082750	0.064035	0.394263
	H114	H	0.910467	0.076088	0.617868
	H115	H	0.911465	0.896095	0.392394
	H116	H	0.613593	0.077069	0.917980
	H117	H	0.383391	0.066224	0.099275
	H118	H	0.608108	0.901414	0.093459
	H119	H	0.380775	0.895296	0.911407
	C120	C	0.375371	-0.008370	0.626927
	C121	C	0.618524	0.974935	0.626894
	C122	C	0.618234	-0.008851	0.383214
	C123	C	0.375405	0.973715	0.383745
	C124	C	0.618761	0.360504	0.012998
	C125	C	0.619134	0.604652	0.996185
	C126	C	0.375619	0.604423	0.012460
	C127	C	0.375357	0.360509	0.996231
	C128	C	0.006235	0.603842	0.381417
	C129	C	0.987759	0.603158	0.625392
	C130	C	0.005553	0.360627	0.625179
	C131	C	0.989978	0.361721	0.382436
	C132	C	0.877245	0.490519	0.125171
	C133	C	0.118910	0.474532	0.124321
	C134	C	0.119440	0.491012	0.881269
	C135	C	0.876469	0.472581	0.882916
	C136	C	0.118119	0.859453	0.512833
	C137	C	0.117527	0.103197	0.496084
	C138	C	0.875204	0.104363	0.512589
	C139	C	0.875207	0.860269	0.495171
	C140	C	0.505608	0.103739	0.884426
	C141	C	0.488520	0.103387	0.126937
	C142	C	0.506037	0.860860	0.127362
	C143	C	0.488408	0.862783	0.884892
	C144	C	0.371977	0.873069	0.688328
	C145	C	0.622648	0.094018	0.687237
	C146	C	0.621845	0.871958	0.323252
	C147	C	0.369634	0.091709	0.320968
	C148	C	0.679943	0.357007	0.894808
	C149	C	0.680493	0.607197	0.114231
	C150	C	0.318149	0.605286	0.892271
	C151	C	0.313686	0.359179	0.114396
	C152	C	0.885961	0.663773	0.378713
	C153	C	0.108037	0.663585	0.627011
	C154	C	0.886113	0.299365	0.629190
	C155	C	0.108679	0.298910	0.378572
	C156	C	0.887342	0.355384	0.688464
	C157	C	0.107293	0.607294	0.686166
	C158	C	0.887547	0.608063	0.319206
	C159	C	0.109361	0.357182	0.320871
	C160	C	0.374427	0.664977	0.893702
	C161	C	0.622295	0.665378	0.114484
	C162	C	0.622227	0.298794	0.895136
	C163	C	0.370253	0.299821	0.114314
	C164	C	0.678325	0.871481	0.382053
	C165	C	0.679439	0.094269	0.628195
	C166	C	0.315396	0.871901	0.629470
	C167	C	0.313034	0.092263	0.380252
	C168	C	0.873292	0.371850	0.186669
	C169	C	0.122991	0.593785	0.184885
	C170	C	0.122154	0.371121	0.822013
	C171	C	0.873147	0.591508	0.822266
	C172	C	0.179208	0.858611	0.394295
	C173	C	0.177914	0.105964	0.614709
	C174	C	0.815124	0.105815	0.393632
	C175	C	0.816698	0.860308	0.614924
	C176	C	0.385434	0.163508	0.882958
	C177	C	0.608314	0.164441	0.129729
	C178	C	0.384999	0.801723	0.128640
	C179	C	0.609452	0.804170	0.883957
	C180	C	0.385453	0.858478	0.187119
	C181	C	0.608856	0.105573	0.186219
	C182	C	0.386314	0.108340	0.823374
	C183	C	0.608874	0.860862	0.825036
	C184	C	0.871276	0.165473	0.394356
	C185	C	0.121384	0.164972	0.613976
	C186	C	0.121396	0.800295	0.393699
	C187	C	0.871858	0.799804	0.613743
	C188	C	0.178221	0.370600	0.881329
	C189	C	0.176966	0.595209	0.123744
	C190	C	0.816426	0.371367	0.128078
	C191	C	0.816056	0.592049	0.880547
	C192	C	0.401520	0.074061	0.600754
	C193	C	0.592858	0.891820	0.602719
	C194	C	0.592794	0.074440	0.407646
	C195	C	0.402280	0.891526	0.409536
	C196	C	0.592628	0.386399	0.095306
	C197	C	0.593746	0.579635	0.913821
	C198	C	0.399531	0.579629	0.095658
	C199	C	0.401458	0.385076	0.913422
	C200	C	0.089601	0.578077	0.406855
	C201	C	0.904434	0.577025	0.600061
	C202	C	0.088502	0.387440	0.598786
	C203	C	0.906946	0.388637	0.408100
	C204	C	0.903735	0.573193	0.099239
	C205	C	0.093157	0.391342	0.099679
	C206	C	0.094389	0.574408	0.905454
	C207	C	0.902773	0.389731	0.908687
	C208	C	0.092389	0.884076	0.595478
	C209	C	0.091532	0.077103	0.413977
	C210	C	0.901142	0.078949	0.594889
	C211	C	0.900112	0.884499	0.412086
	C212	C	0.588944	0.077349	0.909880
	C213	C	0.405329	0.077145	0.101320
	C214	C	0.589788	0.886119	0.102605
	C215	C	0.404256	0.887604	0.909640
	Zn216	Zn	0.496975	-0.015972	0.756236
	Zn217	Zn	0.497268	-0.018078	0.255205
	Zn218	Zn	0.748262	0.481997	0.004556
	Zn219	Zn	0.246938	0.483014	0.002933
	Zn220	Zn	-0.003575	0.730877	0.503549
	Zn221	Zn	-0.003047	0.233051	0.503582
	Zn222	Zn	-0.002642	0.481502	0.753590
	Zn223	Zn	-0.001380	0.482737	0.253201
	Zn224	Zn	0.496439	0.733530	0.004910
	Zn225	Zn	0.496963	0.231430	0.005538
	Zn226	Zn	0.746347	-0.017448	0.504858
	Zn227	Zn	0.246910	-0.017960	0.505461
	N228	N	0.408775	0.948383	0.686853
	N229	N	0.585208	0.018944	0.686432
	N230	N	0.585182	0.947299	0.323959
	N231	N	0.407880	0.016944	0.323087
	N232	N	0.677834	0.394692	0.969181
	N233	N	0.678642	0.569964	0.039724
	N234	N	0.318875	0.568285	0.967099
	N235	N	0.316789	0.396332	0.039833
	N236	N	0.960926	0.661221	0.416650
	N237	N	0.032668	0.661144	0.589932
	N238	N	0.960677	0.302681	0.590516
	N239	N	0.033241	0.301762	0.415872
	N240	N	0.962803	0.392784	0.686123
	N241	N	0.031514	0.570472	0.685278
	N242	N	0.963397	0.571681	0.320644
	N243	N	0.034479	0.395523	0.323079
	N244	N	0.409255	0.664441	0.969335
	N245	N	0.584823	0.663870	0.040221
	N246	N	0.584970	0.300742	0.969883
	N247	N	0.408062	0.300613	0.039975
	N248	N	0.676341	0.946752	0.418606
	N249	N	0.677046	0.019204	0.591581
	N250	N	0.317609	0.946587	0.591743
	N251	N	0.316722	0.018257	0.418959
	N252	N	0.910289	0.447179	0.185025
	N253	N	0.087809	0.517557	0.185640
	N254	N	0.086584	0.447347	0.821539
	N255	N	0.909947	0.516262	0.823698
	N256	N	0.177634	0.894262	0.469654
	N257	N	0.175823	0.068431	0.540445
	N258	N	0.817211	0.068839	0.468372
	N259	N	0.818504	0.897068	0.540245
	N260	N	0.460718	0.160500	0.920445
	N261	N	0.532394	0.163257	0.093663
	N262	N	0.461020	0.803045	0.092176
	N263	N	0.533696	0.805446	0.920529
	N264	N	0.461542	0.894446	0.186384
	N265	N	0.533123	0.068692	0.184886
	N266	N	0.462145	0.071898	0.824229
	N267	N	0.532393	0.896619	0.825473
	N268	N	0.907514	0.165031	0.469378
	N269	N	0.084786	0.163537	0.538967
	N270	N	0.084264	0.800805	0.468398
	N271	N	0.907125	0.799496	0.538062
	N272	N	0.176947	0.446004	0.916894
	N273	N	0.174569	0.520056	0.086981
	N274	N	0.818684	0.446128	0.090722
	N275	N	0.817972	0.516784	0.917353
	O276	O	0.311985	0.669515	0.333002
	H277	H	0.315615	0.632219	0.315936
	H278	H	0.343094	0.681368	0.316417
	O279	O	0.631032	0.510950	0.694949
	H280	H	0.638657	0.522941	0.722221
	H281	H	0.602475	0.500536	0.694449
	O282	O	0.710068	0.268633	0.477068
	H283	H	0.723773	0.259054	0.492182
	H284	H	0.725609	0.278732	0.492677
	O285	O	1.166511	0.819893	-0.064975
	H286	H	1.163509	0.817719	-0.048946
	H287	H	1.177719	0.820962	-0.056319
	O288	O	0.394067	0.528834	0.634818
	H289	H	0.368668	0.522280	0.649254
	H290	H	0.394108	0.548324	0.626270
	O291	O	0.416898	0.268689	0.530423
	H292	H	0.431528	0.251183	0.514846
	H293	H	0.423573	0.269674	0.513165
	O294	O	0.985115	0.977954	1.147235
	H295	H	0.985282	0.975385	1.141814
	H296	H	0.976415	0.981480	1.148360
	O297	O	0.425697	0.350650	0.357540
	H298	H	0.402507	0.356003	0.370261
	H299	H	0.432850	0.375792	0.364129
	O300	O	0.288526	0.452836	0.410363
	H301	H	0.279637	0.437354	0.416421
	H302	H	0.290028	0.442289	0.426507
	O303	O	0.563206	0.541648	0.293757
	H304	H	0.587948	0.535131	0.279637
	H305	H	0.565082	0.544736	0.299171
	O306	O	-0.044325	0.006039	1.058012
	H307	H	-0.051585	0.024358	1.060807
	H308	H	-0.047288	0.001151	1.043943
	O309	O	0.861054	0.017309	-0.043747
	H310	H	0.869024	0.009615	-0.049548
	H311	H	0.862658	0.021193	-0.033214
	O312	O	0.064814	1.094999	0.844043
	H313	H	0.045918	1.105283	0.829252
	H314	H	0.056392	1.079044	0.839613
	O315	O	1.121136	0.848821	-0.061693
	H316	H	1.135434	0.854015	-0.056590
	H317	H	1.121246	0.842236	-0.058458
	O318	O	-0.115953	-0.027213	-0.095167
	H319	H	-0.110483	-0.045184	-0.092997
	H320	H	-0.109012	-0.018238	-0.091609
	O321	O	0.285575	0.694877	0.488443
	H322	H	0.250421	0.722384	0.482318
	H323	H	0.294709	0.685653	0.437687
	O324	O	0.819770	0.121654	0.864742
	H325	H	0.814547	0.108139	0.867409
	H326	H	0.818663	0.110302	0.864139
	O327	O	-0.055456	1.073537	-0.156876
	H328	H	-0.071099	1.067368	-0.151528
	H329	H	-0.054629	1.071460	-0.166659
	O330	O	0.131326	0.949995	1.045548
	H331	H	0.141509	0.957338	1.054054
	H332	H	0.123393	0.934587	1.045797
	O333	O	-0.094609	0.970812	-0.055077
	H334	H	-0.085915	0.983283	-0.066010
	H335	H	-0.102822	0.973835	-0.061011
	O336	O	1.012444	0.919932	0.066068
	H337	H	1.006020	0.921677	0.061561
	H338	H	1.005124	0.920303	0.056639
	O339	O	-0.059757	0.777439	1.210947
	H340	H	-0.082311	0.763245	1.217920
	H341	H	-0.084521	0.779376	1.215015
	O342	O	0.311062	0.482343	0.333295
	H343	H	0.293220	0.484769	0.308668
	H344	H	0.312301	0.473700	0.358214
	O345	O	-0.007413	-0.194080	0.881006
	H346	H	-0.036042	-0.210072	0.866217
	H347	H	0.020599	-0.196064	0.890494
	O348	O	0.509340	0.616372	0.397038
	H349	H	0.525988	0.621685	0.375395
	H350	H	0.530899	0.606339	0.411347
	O351	O	0.791105	1.115628	0.038110
	H352	H	0.785280	1.125939	0.043069
	H353	H	0.781611	1.119509	0.025277
	O354	O	0.807498	0.842492	1.131772
	H355	H	0.811929	0.852223	1.126707
	H356	H	0.791266	0.839780	1.114299
	O357	O	-0.414638	0.562564	-0.500669
	H358	H	-0.418799	0.590927	-0.504853
	H359	H	-0.418390	0.556308	-0.531371
	O360	O	0.589225	0.452563	0.544002
	H361	H	0.592271	0.462139	0.540091
	H362	H	0.601008	0.443421	0.563456
	O363	O	0.712858	-0.300722	0.534958
	H364	H	0.739117	-0.275389	0.542954
	H365	H	0.711834	-0.312781	0.550043
	O366	O	-0.013504	0.176569	1.160236
	H367	H	-0.005148	0.188716	1.171042
	H368	H	0.012560	0.184311	1.160983
	O369	O	1.713265	0.461765	0.286540
	H370	H	1.722993	0.430595	0.277773
	H371	H	1.728136	0.438019	0.271898
	O372	O	0.518692	0.682198	0.709952
	H373	H	0.506430	0.681496	0.732340
	H374	H	0.491308	0.687606	0.675425
	O375	O	0.178463	0.040201	1.073377
	H376	H	0.180867	0.029699	1.052669
	H377	H	0.182562	0.035256	1.070874
	O378	O	0.400021	0.586419	0.488342
	H379	H	0.407150	0.582391	0.470259
	H380	H	0.392515	0.589959	0.481326
	O381	O	-0.041815	1.083486	0.035031
	H382	H	-0.042693	1.085444	0.043053
	H383	H	-0.051580	1.086688	0.026545
	O384	O	0.521428	0.264777	0.286330
	H385	H	0.494752	0.276226	0.292078
	H386	H	0.521955	0.241368	0.253957
	O387	O	0.691182	0.678767	0.698249
	H388	H	0.646903	0.673493	0.707706
	H389	H	0.688309	0.652303	0.685488
	O390	O	1.084292	0.980041	-0.112935
	H391	H	1.087327	0.984003	-0.096225
	H392	H	1.094160	0.970722	-0.116162
	O393	O	1.061383	0.137412	0.967581
	H394	H	1.054083	0.146741	0.953849
	H395	H	1.063811	0.130910	0.955956
	O396	O	0.453710	0.371103	0.448555
	H397	H	0.466310	0.364581	0.434575
	H398	H	0.462008	0.368999	0.438333
	O399	O	0.400074	0.296311	0.689953
	H400	H	0.402435	0.325430	0.693910
	H401	H	0.425991	0.296179	0.701710
	O402	O	1.124422	0.918753	0.143615
	H403	H	1.111775	0.931458	0.141324
	H404	H	1.110891	0.907902	0.155013
	O405	O	0.279526	0.459016	0.719056
	H406	H	0.241497	0.455133	0.747170
	H407	H	0.290137	0.439700	0.702032
	O408	O	0.556823	0.446260	0.718302
	H409	H	0.538617	0.462655	0.714846
	H410	H	0.541431	0.433684	0.707489
	O411	O	1.020982	0.842425	1.052780
	H412	H	1.020317	0.835673	1.063158
	H413	H	1.022725	0.853866	1.047446
	O414	O	0.683101	0.302739	0.316898
	H415	H	0.633146	0.288043	0.309785
	H416	H	0.694845	0.288477	0.365496
	O417	O	0.610833	1.542621	0.420506
	H418	H	0.627163	1.544100	0.426117
	H419	H	0.609408	1.535393	0.422493
	O420	O	0.082389	1.125003	1.183902
	H421	H	0.100307	1.108926	1.176506
	H422	H	0.083984	1.121759	1.178020
	O423	O	-0.036137	0.921935	-0.022266
	H424	H	-0.039716	0.927764	-0.019470
	H425	H	-0.027907	0.925935	-0.033565
	O426	O	0.628385	0.331901	0.576347
	H427	H	0.618085	0.333876	0.589444
	H428	H	0.633047	0.361138	0.572475
	O429	O	0.588222	0.645636	0.405948
	H430	H	0.585051	0.643957	0.407941
	H431	H	0.604732	0.645982	0.419992
	O432	O	0.498037	0.376770	0.608681
	H433	H	0.506251	0.368918	0.578372
	H434	H	0.494150	0.394582	0.616996
	O435	O	0.296371	0.281284	0.601213
	H436	H	0.330202	0.282910	0.631859
	H437	H	0.270066	0.254674	0.580318
	O438	O	-0.003295	0.886444	0.815082
	H439	H	0.015204	0.875391	0.816256
	H440	H	0.017776	0.875459	0.803603
	O441	O	0.392955	0.685173	0.606029
	H442	H	0.387887	0.685706	0.582332
	H443	H	0.389260	0.671155	0.590348
