data_Molecule from HDF5

_cell_length_a		16.352485
_cell_length_b		16.296066
_cell_length_c		16.334845
_cell_angle_alpha	89.630377
_cell_angle_beta	90.371209
_cell_angle_gamma	90.215056
_symmetry_space_group_name_H-M	'P 1'
_symmetry_Int_Tables_number		1

loop_
	_symmetry_equiv_pos_as_xyz
	x,y,z

loop_
	_atom_site_label
	_atom_site_type_symbol
	_atom_site_fract_x
	_atom_site_fract_y
	_atom_site_fract_z
	H0	H	0.400339	0.826407	0.723559
	H1	H	0.602138	0.151075	0.721975
	H2	H	0.598751	0.826090	0.290888
	H3	H	0.396335	0.149301	0.285638
	H4	H	0.715257	0.388183	0.844463
	H5	H	0.717684	0.592253	0.166170
	H6	H	0.276911	0.594164	0.843954
	H7	H	0.282328	0.388270	0.167714
	H8	H	0.834989	0.704149	0.405188
	H9	H	0.157330	0.707108	0.611194
	H10	H	0.836198	0.267450	0.606212
	H11	H	0.158194	0.269002	0.402751
	H12	H	0.836540	0.381980	0.724106
	H13	H	0.158310	0.589579	0.725506
	H14	H	0.836816	0.591118	0.286362
	H15	H	0.157759	0.384357	0.287026
	H16	H	0.398345	0.705030	0.841923
	H17	H	0.597755	0.704367	0.167078
	H18	H	0.599330	0.272139	0.844360
	H19	H	0.395583	0.269155	0.166898
	H20	H	0.712641	0.825450	0.406425
	H21	H	0.718772	0.149776	0.606564
	H22	H	0.280523	0.826445	0.610849
	H23	H	0.279960	0.149014	0.400214
	H24	H	0.892043	0.327066	0.226079
	H25	H	0.100130	0.649465	0.224923
	H26	H	0.100393	0.326463	0.789489
	H27	H	0.894867	0.648497	0.784505
	H28	H	0.216629	0.884464	0.345760
	H29	H	0.220509	0.091577	0.666363
	H30	H	0.778137	0.090886	0.344137
	H31	H	0.779955	0.882566	0.667296
	H32	H	0.337515	0.208209	0.899672
	H33	H	0.658075	0.210805	0.110773
	H34	H	0.336570	0.772312	0.102910
	H35	H	0.659314	0.770793	0.902463
	H36	H	0.339240	0.881492	0.225039
	H37	H	0.659773	0.091789	0.225054
	H38	H	0.339286	0.094073	0.782686
	H39	H	0.661095	0.889277	0.790084
	H40	H	0.893597	0.208310	0.345118
	H41	H	0.102346	0.205788	0.667291
	H42	H	0.097673	0.770268	0.345095
	H43	H	0.897120	0.768258	0.668146
	H44	H	0.216709	0.328288	0.903313
	H45	H	0.215334	0.651499	0.107681
	H46	H	0.776862	0.328321	0.109544
	H47	H	0.780701	0.650068	0.900364
	H48	H	0.418007	0.101629	0.597327
	H49	H	0.584354	0.873450	0.603800
	H50	H	0.583648	0.104313	0.407296
	H51	H	0.404983	0.871664	0.412263
	H52	H	0.583985	0.398925	0.119118
	H53	H	0.586073	0.578964	0.891945
	H54	H	0.408182	0.580078	0.119825
	H55	H	0.406141	0.414348	0.896121
	H56	H	0.108957	0.573346	0.419108
	H57	H	0.882428	0.577325	0.596581
	H58	H	0.112915	0.397916	0.600764
	H59	H	0.884072	0.397984	0.419537
	H60	H	0.112041	0.394604	0.597463
	H61	H	0.883120	0.575853	0.594523
	H62	H	0.114405	0.578822	0.409190
	H63	H	0.883541	0.399894	0.413856
	H64	H	0.405768	0.584149	0.121304
	H65	H	0.588604	0.588099	0.886789
	H66	H	0.589440	0.399221	0.120432
	H67	H	0.418347	0.392200	0.892481
	H68	H	0.585523	0.099449	0.422284
	H69	H	0.589296	0.874743	0.592654
	H70	H	0.408553	0.100758	0.585227
	H71	H	0.411547	0.874354	0.414366
	H72	H	0.910429	0.604080	0.097686
	H73	H	0.089111	0.374142	0.097218
	H74	H	0.094883	0.604080	0.919286
	H75	H	0.901846	0.370790	0.913669
	H76	H	0.088088	0.898112	0.619386
	H77	H	0.092426	0.079142	0.390079
	H78	H	0.908620	0.078305	0.620216
	H79	H	0.905071	0.896805	0.390808
	H80	H	0.613422	0.081117	0.914063
	H81	H	0.383216	0.079616	0.097156
	H82	H	0.612940	0.899186	0.097654
	H83	H	0.385331	0.898228	0.916759
	H84	H	0.615731	0.896959	0.100337
	H85	H	0.385644	0.077939	0.090687
	H86	H	0.612729	0.082328	0.917446
	H87	H	0.384499	0.901750	0.911236
	H88	H	0.906983	0.073658	0.619967
	H89	H	0.087948	0.073932	0.393045
	H90	H	0.089408	0.894483	0.621446
	H91	H	0.905751	0.896369	0.391456
	H92	H	0.084490	0.604960	0.906455
	H93	H	0.089270	0.373850	0.098014
	H94	H	0.909876	0.601725	0.093278
	H95	H	0.911418	0.374121	0.914653
	H96	H	0.403238	0.105937	0.598047
	H97	H	0.596676	0.870574	0.601828
	H98	H	0.597881	0.106445	0.414889
	H99	H	0.405518	0.873740	0.418972
	H100	H	0.586758	0.403865	0.117843
	H101	H	0.595551	0.579856	0.888287
	H102	H	0.403396	0.579858	0.120305
	H103	H	0.393653	0.394416	0.884864
	H104	H	0.112901	0.585193	0.420094
	H105	H	0.883248	0.575656	0.596769
	H106	H	0.111011	0.398993	0.596697
	H107	H	0.882399	0.394647	0.414556
	H108	H	0.906487	0.603781	0.095880
	H109	H	0.088233	0.374204	0.097433
	H110	H	0.079154	0.599126	0.920476
	H111	H	0.905045	0.374663	0.922472
	H112	H	0.090986	0.898375	0.621725
	H113	H	0.085853	0.081486	0.391779
	H114	H	0.911716	0.074905	0.618257
	H115	H	0.904369	0.895554	0.392044
	H116	H	0.611645	0.078735	0.916600
	H117	H	0.385946	0.073178	0.095559
	H118	H	0.614689	0.895392	0.097091
	H119	H	0.382287	0.895436	0.911022
	C120	C	0.378930	-0.003552	0.626335
	C121	C	0.621456	0.979919	0.628433
	C122	C	0.619120	-0.003573	0.385240
	C123	C	0.376527	0.979418	0.383041
	C124	C	0.618037	0.369321	0.013437
	C125	C	0.620341	0.611786	0.996032
	C126	C	0.375675	0.611649	0.013291
	C127	C	0.375559	0.367877	0.997237
	C128	C	0.005580	0.609311	0.385138
	C129	C	0.988894	0.607824	0.627948
	C130	C	0.005814	0.364855	0.628354
	C131	C	0.989225	0.366715	0.384793
	C132	C	0.876549	0.496960	0.127178
	C133	C	0.119744	0.480314	0.128559
	C134	C	0.117987	0.496899	0.884903
	C135	C	0.875617	0.479418	0.883812
	C136	C	0.119326	0.866061	0.514640
	C137	C	0.120576	0.109444	0.497580
	C138	C	0.877069	0.107727	0.513412
	C139	C	0.875157	0.865072	0.498015
	C140	C	0.506903	0.111956	0.883246
	C141	C	0.490446	0.109313	0.126653
	C142	C	0.507430	0.866210	0.127303
	C143	C	0.490639	0.868343	0.883944
	C144	C	0.379787	0.874794	0.684971
	C145	C	0.621561	0.102335	0.684017
	C146	C	0.618412	0.874523	0.328866
	C147	C	0.376951	0.100767	0.324675
	C148	C	0.675884	0.369230	0.892482
	C149	C	0.677853	0.611003	0.117881
	C150	C	0.317434	0.611986	0.891732
	C151	C	0.319484	0.367696	0.119043
	C152	C	0.883743	0.666041	0.385256
	C153	C	0.109570	0.666985	0.629501
	C154	C	0.884695	0.306313	0.626695
	C155	C	0.110129	0.308184	0.384027
	C156	C	0.884742	0.363217	0.685314
	C157	C	0.110006	0.608631	0.686567
	C158	C	0.884452	0.609636	0.326302
	C159	C	0.109847	0.365730	0.326470
	C160	C	0.377561	0.667509	0.890692
	C161	C	0.618752	0.667217	0.118168
	C162	C	0.618221	0.311272	0.892409
	C163	C	0.375924	0.308547	0.118578
	C164	C	0.674944	0.874302	0.386428
	C165	C	0.679584	0.101562	0.626645
	C166	C	0.320492	0.874901	0.628572
	C167	C	0.319090	0.100696	0.381936
	C168	C	0.873996	0.375483	0.186410
	C169	C	0.119353	0.601542	0.185958
	C170	C	0.119151	0.375126	0.827723
	C171	C	0.875328	0.600427	0.823962
	C172	C	0.177235	0.865532	0.393783
	C173	C	0.180350	0.110276	0.618427
	C174	C	0.817506	0.109515	0.392388
	C175	C	0.818121	0.863788	0.618923
	C176	C	0.386028	0.169374	0.881334
	C177	C	0.610579	0.169998	0.129027
	C178	C	0.385622	0.809521	0.124469
	C179	C	0.611470	0.810204	0.883830
	C180	C	0.386649	0.864412	0.184889
	C181	C	0.611170	0.111008	0.186093
	C182	C	0.386923	0.112763	0.822715
	C183	C	0.612451	0.869221	0.828057
	C184	C	0.874953	0.167827	0.392759
	C185	C	0.121610	0.167044	0.618759
	C186	C	0.118135	0.808669	0.393562
	C187	C	0.876565	0.807004	0.619500
	C188	C	0.177240	0.376162	0.884371
	C189	C	0.176533	0.602519	0.127419
	C190	C	0.816514	0.376143	0.128443
	C191	C	0.818714	0.601256	0.881996
	C192	C	0.402860	0.080907	0.600961
	C193	C	0.597235	0.894969	0.605998
	C194	C	0.595883	0.081156	0.408076
	C195	C	0.400437	0.895006	0.407933
	C196	C	0.593675	0.393706	0.097387
	C197	C	0.597070	0.588938	0.910944
	C198	C	0.399015	0.588210	0.098427
	C199	C	0.399198	0.392807	0.913167
	C200	C	0.089934	0.585914	0.409051
	C201	C	0.904670	0.583282	0.603115
	C202	C	0.090145	0.389833	0.605116
	C203	C	0.905189	0.390575	0.409061
	C204	C	0.901687	0.581205	0.102676
	C205	C	0.095860	0.395993	0.104563
	C206	C	0.093339	0.580796	0.908481
	C207	C	0.899413	0.395173	0.909525
	C208	C	0.096180	0.889945	0.598948
	C209	C	0.095976	0.085281	0.413593
	C210	C	0.902054	0.082998	0.597537
	C211	C	0.898356	0.889172	0.413402
	C212	C	0.590904	0.087772	0.908670
	C213	C	0.406711	0.084116	0.101649
	C214	C	0.592376	0.890248	0.104868
	C215	C	0.406133	0.891767	0.906390
	Zn216	Zn	0.499850	-0.010325	0.755935
	Zn217	Zn	0.498985	-0.012584	0.255766
	Zn218	Zn	0.748327	0.489776	0.005470
	Zn219	Zn	0.247028	0.489762	0.005439
	Zn220	Zn	-0.002821	0.737140	0.506641
	Zn221	Zn	-0.001744	0.237242	0.505634
	Zn222	Zn	-0.003046	0.486647	0.756584
	Zn223	Zn	-0.002924	0.487834	0.256339
	Zn224	Zn	0.498392	0.739437	0.004392
	Zn225	Zn	0.497631	0.239596	0.005380
	Zn226	Zn	0.747667	-0.012853	0.505499
	Zn227	Zn	0.249139	-0.012283	0.505651
	N228	N	0.415241	0.951367	0.683788
	N229	N	0.586338	0.025585	0.685394
	N230	N	0.584408	0.951544	0.327701
	N231	N	0.411768	0.024147	0.325032
	N232	N	0.675884	0.404646	0.968747
	N233	N	0.679072	0.577507	0.040834
	N234	N	0.316035	0.578151	0.969061
	N235	N	0.318871	0.403668	0.042690
	N236	N	0.960171	0.666286	0.420833
	N237	N	0.033457	0.666413	0.593528
	N238	N	0.961247	0.307037	0.592304
	N239	N	0.034294	0.308877	0.419849
	N240	N	0.961129	0.398764	0.686556
	N241	N	0.034009	0.572392	0.685389
	N242	N	0.961105	0.575198	0.326040
	N243	N	0.033738	0.401173	0.326616
	N244	N	0.413011	0.667326	0.967337
	N245	N	0.583736	0.667672	0.041488
	N246	N	0.583066	0.311286	0.968677
	N247	N	0.409708	0.308238	0.041689
	N248	N	0.675314	0.950918	0.420870
	N249	N	0.679751	0.024564	0.593053
	N250	N	0.319818	0.951663	0.592746
	N251	N	0.318701	0.024164	0.417672
	N252	N	0.910615	0.451552	0.185698
	N253	N	0.084817	0.524582	0.186709
	N254	N	0.083014	0.451139	0.827766
	N255	N	0.909681	0.523489	0.824855
	N256	N	0.178352	0.900292	0.470209
	N257	N	0.179843	0.075278	0.542035
	N258	N	0.818960	0.072693	0.468380
	N259	N	0.817245	0.899071	0.542283
	N260	N	0.461616	0.168913	0.918322
	N261	N	0.534524	0.169096	0.092774
	N262	N	0.461855	0.810533	0.089605
	N263	N	0.534824	0.809590	0.917943
	N264	N	0.463557	0.898837	0.186865
	N265	N	0.535559	0.073817	0.184696
	N266	N	0.463309	0.077803	0.823667
	N267	N	0.536452	0.904967	0.828038
	N268	N	0.911530	0.166651	0.468746
	N269	N	0.085338	0.166887	0.542647
	N270	N	0.083164	0.808615	0.469859
	N271	N	0.911405	0.807544	0.543189
	N272	N	0.176759	0.452729	0.919287
	N273	N	0.177014	0.525975	0.092586
	N274	N	0.817804	0.452683	0.092508
	N275	N	0.818757	0.525036	0.918697
	O276	O	0.529313	0.361736	0.520231
	H277	H	0.523815	0.362650	0.508619
	H278	H	0.528249	0.360265	0.538292
	O279	O	0.558447	0.501913	0.588214
	H280	H	0.548552	0.502112	0.597005
	H281	H	0.574476	0.506706	0.596496
	O282	O	0.891474	-0.011619	0.903332
	H283	H	0.884781	-0.017375	0.897967
	H284	H	0.892566	-0.025382	0.911884
	O285	O	0.498874	0.459130	0.550870
	H286	H	0.500090	0.454815	0.574683
	H287	H	0.500319	0.476634	0.547624
	O288	O	1.001306	0.996355	1.077203
	H289	H	1.018788	1.008629	1.089025
	H290	H	0.987713	0.992558	1.074691
	O291	O	0.033102	1.004432	0.029763
	H292	H	0.035923	1.015881	0.028242
	H293	H	0.027642	1.016503	0.035513
	O294	O	0.601275	0.553648	0.486739
	H295	H	0.609839	0.547333	0.490614
	H296	H	0.602395	0.560527	0.493402
	O297	O	0.469404	0.559368	0.444292
	H298	H	0.464434	0.573255	0.431023
	H299	H	0.452380	0.569740	0.439359
	O300	O	0.522621	0.408793	0.404652
	H301	H	0.513639	0.409937	0.396919
	H302	H	0.513674	0.402272	0.399347
	O303	O	0.476927	0.400538	0.642589
	H304	H	0.479451	0.411786	0.634251
	H305	H	0.481203	0.408859	0.634597
	O306	O	0.524536	0.625273	0.430863
	H307	H	0.514032	0.637045	0.429541
	H308	H	0.525494	0.624075	0.430949
	O309	O	0.609783	0.395947	0.599672
	H310	H	0.617928	0.418267	0.609946
	H311	H	0.614145	0.379524	0.593897
	O312	O	0.042098	-0.007093	0.144618
	H313	H	0.063439	0.002333	0.142846
	H314	H	0.036285	-0.004909	0.143501
	O315	O	0.616937	0.484584	0.601562
	H316	H	0.596785	0.493660	0.604732
	H317	H	0.623332	0.489375	0.595122
	O318	O	0.107392	0.904478	0.919779
	H319	H	0.098549	0.908883	0.926437
	H320	H	0.112349	0.894268	0.924805
	O321	O	0.397674	0.574551	0.565253
	H322	H	0.391877	0.577770	0.553615
	H323	H	0.391431	0.574609	0.561033
	O324	O	0.173131	1.152895	0.104207
	H325	H	0.183060	1.158459	0.098587
	H326	H	0.165566	1.141198	0.089407
	O327	O	0.331916	0.438768	0.577578
	H328	H	0.347776	0.446037	0.577362
	H329	H	0.339943	0.454727	0.582757
	O330	O	-0.011719	0.187605	1.133976
	H331	H	-0.021757	0.206053	1.121690
	H332	H	-0.016284	0.194961	1.134741
	O333	O	0.010524	-0.012268	1.031516
	H334	H	0.022288	-0.022144	1.030434
	H335	H	-0.000031	-0.014966	1.032081
	O336	O	0.493190	0.599791	0.575454
	H337	H	0.484997	0.603441	0.568470
	H338	H	0.474601	0.605185	0.572105
	O339	O	0.830100	0.131430	0.006658
	H340	H	0.832603	0.133468	-0.005357
	H341	H	0.819958	0.136758	-0.013714
	O342	O	0.107516	0.058490	-0.052761
	H343	H	0.118637	0.077090	-0.055740
	H344	H	0.106486	0.051478	-0.050874
	O345	O	1.032805	-0.188188	0.962139
	H346	H	1.023429	-0.194176	0.970384
	H347	H	1.030786	-0.188581	0.970051
	O348	O	0.935351	1.107617	-0.195996
	H349	H	0.943481	1.121085	-0.190782
	H350	H	0.948148	1.110504	-0.201653
	O351	O	0.310154	0.586976	0.315513
	H352	H	0.312433	0.584406	0.308740
	H353	H	0.306857	0.574591	0.308085
	O354	O	0.996389	0.143587	0.902932
	H355	H	1.006389	0.141795	0.909663
	H356	H	1.009825	0.144022	0.901703
	O357	O	0.467289	0.358121	0.417631
	H358	H	0.472047	0.355583	0.426431
	H359	H	0.476126	0.361238	0.407299
	O360	O	0.558058	0.410047	0.456275
	H361	H	0.555078	0.410439	0.448398
	H362	H	0.552569	0.402185	0.463365
	O363	O	0.167383	0.881108	0.826384
	H364	H	0.153386	0.870700	0.836321
	H365	H	0.175615	0.866598	0.823840
	O366	O	0.843212	1.013541	0.157984
	H367	H	0.829429	1.008525	0.142358
	H368	H	0.845426	1.009028	0.162675
	O369	O	-0.142873	0.903714	0.201327
	H370	H	-0.141278	0.921219	0.192327
	H371	H	-0.159788	0.910778	0.221054
	O372	O	0.342293	0.522659	0.471220
	H373	H	0.348067	0.502487	0.479147
	H374	H	0.330082	0.514941	0.461484
	O375	O	0.576919	0.532306	0.406127
	H376	H	0.583173	0.535163	0.409740
	H377	H	0.577018	0.520148	0.407279
	O378	O	0.930762	0.829110	-0.091287
	H379	H	0.922893	0.814398	-0.079751
	H380	H	0.943816	0.831188	-0.096031
	O381	O	0.935265	0.043764	0.018303
	H382	H	0.942284	0.046414	0.017594
	H383	H	0.930660	0.037670	0.017879
	O384	O	1.166953	0.953670	0.150041
	H385	H	1.169937	0.979285	0.156195
	H386	H	1.168363	0.961906	0.155043
	O387	O	0.204259	-0.054848	-0.098434
	H388	H	0.218927	-0.068218	-0.105189
	H389	H	0.198251	-0.070616	-0.093016
	O390	O	0.163551	1.033615	0.155045
	H391	H	0.141180	1.039987	0.137723
	H392	H	0.171994	1.053571	0.140914
	O393	O	0.912547	0.822709	1.118132
	H394	H	0.904179	0.835372	1.120980
	H395	H	0.924269	0.839279	1.123400
	O396	O	0.349652	0.317174	0.574683
	H397	H	0.343538	0.302247	0.590035
	H398	H	0.356164	0.318163	0.599682
	O399	O	0.120946	0.935178	0.944452
	H400	H	0.117240	0.938629	0.944563
	H401	H	0.114842	0.936920	0.950958
	O402	O	0.429356	0.610784	0.428172
	H403	H	0.417097	0.613185	0.417531
	H404	H	0.429746	0.619533	0.406939
	O405	O	0.806442	0.980887	0.050708
	H406	H	0.797186	0.976982	0.045020
	H407	H	0.803769	0.980528	0.035178
	O408	O	0.811198	0.776069	0.069503
	H409	H	0.791728	0.747793	0.085470
	H410	H	0.809613	0.776613	0.101556
	O411	O	0.803958	0.123476	0.831788
	H412	H	0.809105	0.123823	0.823093
	H413	H	0.813205	0.113296	0.822020
	O414	O	0.600057	0.469102	0.452890
	H415	H	0.591536	0.471432	0.442736
	H416	H	0.593512	0.467550	0.449923
	O417	O	0.329031	0.437871	0.450342
	H418	H	0.343056	0.423862	0.457307
	H419	H	0.323195	0.434190	0.453487
