data_Molecule from HDF5

_cell_length_a		16.315155
_cell_length_b		16.278029
_cell_length_c		16.129919
_cell_angle_alpha	90.049371
_cell_angle_beta	89.877021
_cell_angle_gamma	89.645442
_symmetry_space_group_name_H-M	'P 1'
_symmetry_Int_Tables_number		1

loop_
	_symmetry_equiv_pos_as_xyz
	x,y,z

loop_
	_atom_site_label
	_atom_site_type_symbol
	_atom_site_fract_x
	_atom_site_fract_y
	_atom_site_fract_z
	H0	H	0.405814	0.840074	0.703806
	H1	H	0.596225	0.170381	0.705909
	H2	H	0.599489	0.841586	0.278930
	H3	H	0.403266	0.169535	0.279837
	H4	H	0.715237	0.405832	0.828494
	H5	H	0.712710	0.604830	0.157156
	H6	H	0.285533	0.606112	0.827600
	H7	H	0.286614	0.408477	0.157721
	H8	H	0.839193	0.724482	0.391348
	H9	H	0.163701	0.720970	0.592040
	H10	H	0.837562	0.290900	0.593279
	H11	H	0.163489	0.289977	0.392211
	H12	H	0.836656	0.410610	0.705670
	H13	H	0.164199	0.601494	0.705059
	H14	H	0.836184	0.604065	0.280817
	H15	H	0.163776	0.406746	0.277230
	H16	H	0.400989	0.719779	0.827405
	H17	H	0.597520	0.718629	0.157165
	H18	H	0.599122	0.292251	0.827000
	H19	H	0.401508	0.291593	0.156653
	H20	H	0.719846	0.843152	0.389930
	H21	H	0.715736	0.169269	0.592662
	H22	H	0.285864	0.842060	0.591155
	H23	H	0.283913	0.168412	0.392008
	H24	H	0.903406	0.342201	0.206584
	H25	H	0.094965	0.670528	0.205963
	H26	H	0.099396	0.341129	0.779552
	H27	H	0.902880	0.670985	0.780227
	H28	H	0.216661	0.905435	0.327282
	H29	H	0.214127	0.103918	0.656238
	H30	H	0.786892	0.107003	0.326778
	H31	H	0.787649	0.908101	0.655748
	H32	H	0.337378	0.222323	0.891468
	H33	H	0.662871	0.220963	0.091886
	H34	H	0.336907	0.792605	0.091693
	H35	H	0.663714	0.788889	0.892601
	H36	H	0.336499	0.909382	0.206435
	H37	H	0.664938	0.101290	0.204489
	H38	H	0.337036	0.103930	0.778242
	H39	H	0.665041	0.907641	0.779293
	H40	H	0.901412	0.222250	0.327776
	H41	H	0.099386	0.219138	0.656636
	H42	H	0.102183	0.790317	0.327621
	H43	H	0.902789	0.794452	0.656412
	H44	H	0.218551	0.343039	0.892173
	H45	H	0.214023	0.670102	0.092901
	H46	H	0.784978	0.342992	0.093379
	H47	H	0.783374	0.669559	0.893347
	H48	H	0.411794	0.120923	0.588865
	H49	H	0.608710	0.882160	0.594805
	H50	H	0.591949	0.123348	0.395016
	H51	H	0.403674	0.889622	0.407629
	H52	H	0.584759	0.408640	0.109758
	H53	H	0.586289	0.595133	0.877147
	H54	H	0.409895	0.610238	0.112366
	H55	H	0.410076	0.417173	0.876617
	H56	H	0.116580	0.600943	0.404478
	H57	H	0.879946	0.603694	0.595930
	H58	H	0.115730	0.405275	0.575417
	H59	H	0.883187	0.409256	0.403403
	H60	H	0.114322	0.422492	0.585015
	H61	H	0.883694	0.609709	0.577981
	H62	H	0.115148	0.592915	0.397910
	H63	H	0.886061	0.417633	0.402640
	H64	H	0.394310	0.597648	0.112884
	H65	H	0.592629	0.603191	0.872174
	H66	H	0.599774	0.408456	0.113838
	H67	H	0.410127	0.412447	0.873952
	H68	H	0.591044	0.120586	0.402365
	H69	H	0.580221	0.892831	0.590666
	H70	H	0.406858	0.120381	0.577404
	H71	H	0.402729	0.885029	0.392928
	H72	H	0.898024	0.622458	0.077316
	H73	H	0.100355	0.389800	0.076878
	H74	H	0.089919	0.620769	0.903349
	H75	H	0.902741	0.390946	0.907467
	H76	H	0.092316	0.912562	0.608541
	H77	H	0.095169	0.096663	0.374178
	H78	H	0.900785	0.091559	0.609079
	H79	H	0.917232	0.912655	0.374872
	H80	H	0.619863	0.105220	0.896311
	H81	H	0.388629	0.090391	0.078860
	H82	H	0.619501	0.904105	0.087624
	H83	H	0.382563	0.911437	0.894872
	H84	H	0.615908	0.910194	0.078127
	H85	H	0.380682	0.098105	0.097061
	H86	H	0.614690	0.099189	0.907143
	H87	H	0.383888	0.909004	0.901478
	H88	H	0.917154	0.096506	0.606384
	H89	H	0.091259	0.098569	0.374173
	H90	H	0.095639	0.912872	0.610590
	H91	H	0.905318	0.910694	0.370349
	H92	H	0.099755	0.624370	0.900994
	H93	H	0.096306	0.387018	0.091334
	H94	H	0.900782	0.626887	0.094953
	H95	H	0.903252	0.386472	0.893178
	H96	H	0.400008	0.124339	0.587131
	H97	H	0.600247	0.893701	0.567189
	H98	H	0.598063	0.123588	0.400305
	H99	H	0.416260	0.890588	0.398028
	H100	H	0.593080	0.421521	0.107839
	H101	H	0.597753	0.592617	0.874379
	H102	H	0.412163	0.590775	0.106266
	H103	H	0.405455	0.415792	0.874233
	H104	H	0.119961	0.601670	0.395109
	H105	H	0.887410	0.591068	0.582414
	H106	H	0.122043	0.406876	0.594520
	H107	H	0.883190	0.413360	0.395231
	H108	H	0.914670	0.620151	0.085431
	H109	H	0.085342	0.393273	0.081993
	H110	H	0.092334	0.624162	0.893324
	H111	H	0.915307	0.391715	0.899366
	H112	H	0.093837	0.915576	0.609670
	H113	H	0.094484	0.100657	0.371805
	H114	H	0.905245	0.107916	0.612470
	H115	H	0.909117	0.922389	0.375431
	H116	H	0.615716	0.092437	0.895691
	H117	H	0.382011	0.110608	0.079990
	H118	H	0.616778	0.915999	0.089311
	H119	H	0.385840	0.915319	0.900093
	C120	C	0.378533	0.013445	0.613485
	C121	C	0.623448	0.997719	0.613263
	C122	C	0.623460	0.014480	0.369827
	C123	C	0.378787	0.996643	0.370683
	C124	C	0.621631	0.384275	0.001480
	C125	C	0.620442	0.626099	0.983500
	C126	C	0.377212	0.628367	0.001075
	C127	C	0.379547	0.385861	0.983489
	C128	C	0.009385	0.627931	0.370760
	C129	C	0.991941	0.628797	0.614132
	C130	C	0.009238	0.383879	0.614240
	C131	C	0.992120	0.384146	0.370820
	C132	C	0.877265	0.514896	0.114925
	C133	C	0.121491	0.498198	0.113132
	C134	C	0.122988	0.514525	0.870520
	C135	C	0.878204	0.497786	0.871399
	C136	C	0.122723	0.884486	0.500508
	C137	C	0.121715	0.126515	0.482836
	C138	C	0.879508	0.128039	0.500533
	C139	C	0.880836	0.886043	0.482438
	C140	C	0.508962	0.127695	0.870684
	C141	C	0.491837	0.127186	0.113507
	C142	C	0.509025	0.882874	0.113978
	C143	C	0.492149	0.883284	0.870366
	C144	C	0.383800	0.889708	0.667234
	C145	C	0.618022	0.121213	0.668394
	C146	C	0.620741	0.890888	0.315447
	C147	C	0.382045	0.120397	0.316732
	C148	C	0.677303	0.385781	0.877375
	C149	C	0.675076	0.624540	0.107869
	C150	C	0.322795	0.626380	0.877051
	C151	C	0.324145	0.387766	0.108144
	C152	C	0.887107	0.684925	0.372101
	C153	C	0.114891	0.683020	0.611906
	C154	C	0.886327	0.329081	0.612677
	C155	C	0.114739	0.328124	0.372235
	C156	C	0.885655	0.388400	0.668663
	C157	C	0.115234	0.623740	0.668251
	C158	C	0.885679	0.625323	0.316994
	C159	C	0.114865	0.386056	0.314876
	C160	C	0.380297	0.682929	0.876919
	C161	C	0.617679	0.681017	0.107833
	C162	C	0.619794	0.329185	0.876965
	C163	C	0.381321	0.329904	0.107720
	C164	C	0.680567	0.891727	0.371006
	C165	C	0.677120	0.120800	0.611697
	C166	C	0.324085	0.890624	0.611378
	C167	C	0.322514	0.119613	0.371898
	C168	C	0.881499	0.391348	0.169522
	C169	C	0.116740	0.621557	0.168420
	C170	C	0.120382	0.390622	0.816302
	C171	C	0.881295	0.621437	0.817177
	C172	C	0.178417	0.885773	0.376349
	C173	C	0.176797	0.124438	0.606874
	C174	C	0.824021	0.127053	0.376377
	C175	C	0.825355	0.887857	0.606553
	C176	C	0.386077	0.183684	0.872187
	C177	C	0.614462	0.182353	0.111420
	C178	C	0.385804	0.829621	0.111789
	C179	C	0.615069	0.827253	0.872329
	C180	C	0.385784	0.887423	0.169236
	C181	C	0.615723	0.122650	0.167350
	C182	C	0.385760	0.124967	0.815762
	C183	C	0.615835	0.886616	0.816448
	C184	C	0.881342	0.184051	0.376753
	C185	C	0.119485	0.181479	0.607113
	C186	C	0.121453	0.828617	0.376647
	C187	C	0.882622	0.831264	0.606708
	C188	C	0.179638	0.391566	0.872268
	C189	C	0.175896	0.621278	0.112124
	C190	C	0.823129	0.391583	0.112991
	C191	C	0.822167	0.620908	0.873577
	C192	C	0.399793	0.099785	0.590957
	C193	C	0.602585	0.911652	0.590852
	C194	C	0.600419	0.100254	0.392516
	C195	C	0.400967	0.910674	0.392985
	C196	C	0.599207	0.406431	0.088021
	C197	C	0.598496	0.603617	0.896990
	C198	C	0.399044	0.606062	0.088081
	C199	C	0.402021	0.408536	0.897342
	C200	C	0.095112	0.605169	0.392771
	C201	C	0.905844	0.607852	0.592068
	C202	C	0.095100	0.405256	0.591639
	C203	C	0.906373	0.406763	0.393719
	C204	C	0.898252	0.600860	0.092500
	C205	C	0.100190	0.412161	0.090197
	C206	C	0.100519	0.600726	0.892714
	C207	C	0.900597	0.411995	0.893519
	C208	C	0.100492	0.907085	0.587162
	C209	C	0.100042	0.104896	0.395881
	C210	C	0.901365	0.105427	0.586997
	C211	C	0.903641	0.908620	0.395821
	C212	C	0.594648	0.105432	0.893121
	C213	C	0.405878	0.105743	0.091820
	C214	C	0.595105	0.903759	0.091609
	C215	C	0.406184	0.905489	0.892345
	Zn216	Zn	0.500491	0.005439	0.742208
	Zn217	Zn	0.500456	0.005244	0.242425
	Zn218	Zn	0.748964	0.505683	-0.006731
	Zn219	Zn	0.250786	0.506559	-0.007528
	Zn220	Zn	0.001346	0.757488	0.491474
	Zn221	Zn	0.000555	0.255403	0.492249
	Zn222	Zn	0.000578	0.506070	0.742494
	Zn223	Zn	-0.000178	0.506097	0.242375
	Zn224	Zn	0.499875	0.754404	-0.007961
	Zn225	Zn	0.500331	0.256978	-0.008228
	Zn226	Zn	0.752430	0.006092	0.491072
	Zn227	Zn	0.249772	0.005408	0.491598
	N228	N	0.416796	0.967339	0.668679
	N229	N	0.585285	0.043551	0.669599
	N230	N	0.585930	0.968153	0.314625
	N231	N	0.416293	0.042994	0.315789
	N232	N	0.678738	0.419352	0.955621
	N233	N	0.676906	0.590928	0.029560
	N234	N	0.320856	0.593144	0.955403
	N235	N	0.322978	0.421881	0.030062
	N236	N	0.964976	0.686612	0.404825
	N237	N	0.037242	0.686262	0.579002
	N238	N	0.964285	0.325991	0.579724
	N239	N	0.037295	0.326823	0.406222
	N240	N	0.963094	0.421511	0.669931
	N241	N	0.037826	0.590898	0.669793
	N242	N	0.962706	0.590375	0.316027
	N243	N	0.037585	0.420026	0.313787
	N244	N	0.413470	0.684304	0.955218
	N245	N	0.584176	0.681936	0.029710
	N246	N	0.585867	0.328120	0.955101
	N247	N	0.415064	0.328740	0.029563
	N248	N	0.682434	0.969732	0.403916
	N249	N	0.680609	0.043105	0.578307
	N250	N	0.320927	0.968620	0.578658
	N251	N	0.320407	0.041720	0.404822
	N252	N	0.914559	0.468846	0.170764
	N253	N	0.083726	0.544010	0.169271
	N254	N	0.085920	0.468055	0.815090
	N255	N	0.915430	0.543997	0.815713
	N256	N	0.179379	0.919890	0.454495
	N257	N	0.178340	0.090939	0.528645
	N258	N	0.822654	0.092829	0.454436
	N259	N	0.824138	0.921206	0.528214
	N260	N	0.463713	0.185686	0.905389
	N261	N	0.536688	0.185291	0.078718
	N262	N	0.463545	0.826489	0.078464
	N263	N	0.537144	0.825003	0.905142
	N264	N	0.463352	0.919934	0.170668
	N265	N	0.538352	0.089217	0.168959
	N266	N	0.463090	0.090802	0.814676
	N267	N	0.538341	0.920485	0.814909
	N268	N	0.915007	0.184722	0.454680
	N269	N	0.085967	0.182911	0.528898
	N270	N	0.087527	0.827858	0.454760
	N271	N	0.916606	0.830217	0.528538
	N272	N	0.181177	0.469570	0.905258
	N273	N	0.178845	0.543520	0.078543
	N274	N	0.820161	0.469433	0.079964
	N275	N	0.820014	0.542958	0.906668
	O276	O	0.999123	1.038528	0.013147
	H277	H	1.007112	1.036141	0.004226
	H278	H	0.984207	1.040954	0.011053
	O279	O	0.791899	-0.762052	1.214311
	H280	H	0.793530	-0.763335	1.204869
	H281	H	0.786596	-0.762200	1.214810
	O282	O	0.029756	-0.029842	0.009664
	H283	H	0.029290	-0.024221	0.009691
	H284	H	0.036448	-0.026546	0.011560
	O285	O	0.488845	0.554893	0.514079
	H286	H	0.490035	0.560702	0.502862
	H287	H	0.495277	0.560049	0.521082
	O288	O	0.046106	-0.028715	-0.066445
	H289	H	0.049491	-0.031968	-0.073922
	H290	H	0.050753	-0.038960	-0.070658
	O291	O	-0.540880	0.482678	0.459802
	H292	H	-0.542685	0.490040	0.470033
	H293	H	-0.530187	0.470786	0.455926
	O294	O	0.045126	0.998047	-0.033809
	H295	H	0.040942	1.000255	-0.039415
	H296	H	0.049589	0.996880	-0.026239
	O297	O	0.431947	0.493756	0.459760
	H298	H	0.429418	0.488029	0.459446
	H299	H	0.432998	0.495802	0.466061
	O300	O	0.453400	0.437658	0.565725
	H301	H	0.455811	0.436936	0.569773
	H302	H	0.451481	0.429518	0.562861
	O303	O	1.003436	0.048727	0.921588
	H304	H	0.990861	0.047753	0.919763
	H305	H	1.005580	0.050129	0.917011
	O306	O	0.040047	0.931069	0.948042
	H307	H	0.050589	0.932678	0.951409
	H308	H	0.039241	0.929721	0.961034
	O309	O	-0.029322	1.076173	0.992319
	H310	H	-0.034457	1.078467	0.983744
	H311	H	-0.036602	1.082178	0.991903
	O312	O	0.531395	-0.459144	1.490649
	H313	H	0.521828	-0.464464	1.495065
	H314	H	0.524344	-0.459051	1.489221
	O315	O	0.497967	0.511091	0.527061
	H316	H	0.510221	0.511216	0.530385
	H317	H	0.497220	0.503866	0.523587
	O318	O	-0.005427	-0.021499	0.951949
	H319	H	0.013760	-0.017982	0.956154
	H320	H	-0.002930	-0.028423	0.949086
	O321	O	-0.000393	0.964474	-0.059717
	H322	H	0.000622	0.962590	-0.065520
	H323	H	0.007034	0.955581	-0.065489
	O324	O	1.014621	0.086154	0.979259
	H325	H	1.013522	0.086735	0.972773
	H326	H	1.019231	0.079593	0.974094
	O327	O	1.038117	0.990936	0.982063
	H328	H	1.030621	0.985299	0.997139
	H329	H	1.040519	1.003875	0.975844
	O330	O	0.535621	0.472028	0.469563
	H331	H	0.537305	0.474026	0.475691
	H332	H	0.537322	0.474036	0.459233
	O333	O	0.553754	0.484982	0.471806
	H334	H	0.549544	0.492598	0.470989
	H335	H	0.558308	0.481570	0.459248
	O336	O	0.552303	0.483274	0.538395
	H337	H	0.548248	0.487604	0.536935
	H338	H	0.550237	0.483198	0.540259
	O339	O	0.505257	0.490242	0.462173
	H340	H	0.505452	0.492162	0.456934
	H341	H	0.515705	0.497491	0.458674
	O342	O	0.503632	0.488685	0.489776
	H343	H	0.506753	0.481960	0.496339
	H344	H	0.501934	0.485232	0.482763
	O345	O	0.460729	0.529318	0.486432
	H346	H	0.461152	0.528339	0.477545
	H347	H	0.448195	0.525289	0.498101
