data_Molecule from HDF5

_cell_length_a		16.438138
_cell_length_b		16.541393
_cell_length_c		16.642162
_cell_angle_alpha	89.952445
_cell_angle_beta	89.782944
_cell_angle_gamma	89.987779
_symmetry_space_group_name_H-M	'P 1'
_symmetry_Int_Tables_number		1

loop_
	_symmetry_equiv_pos_as_xyz
	x,y,z

loop_
	_atom_site_label
	_atom_site_type_symbol
	_atom_site_fract_x
	_atom_site_fract_y
	_atom_site_fract_z
	H0	H	0.383269	0.843815	0.729106
	H1	H	0.597250	0.155771	0.727408
	H2	H	0.596102	0.842249	0.283248
	H3	H	0.381892	0.154691	0.282299
	H4	H	0.713068	0.393256	0.849395
	H5	H	0.711167	0.603500	0.161951
	H6	H	0.272634	0.599429	0.846833
	H7	H	0.266678	0.392091	0.160588
	H8	H	0.832027	0.717096	0.402531
	H9	H	0.148391	0.716423	0.607003
	H10	H	0.831484	0.276043	0.611202
	H11	H	0.146357	0.273970	0.397179
	H12	H	0.831923	0.391643	0.726899
	H13	H	0.148808	0.600050	0.723956
	H14	H	0.833140	0.603658	0.284664
	H15	H	0.145937	0.388677	0.280693
	H16	H	0.388167	0.717961	0.848268
	H17	H	0.595301	0.720871	0.161739
	H18	H	0.598802	0.274236	0.850066
	H19	H	0.384436	0.276599	0.161452
	H20	H	0.708887	0.840622	0.402551
	H21	H	0.710905	0.156273	0.607906
	H22	H	0.271125	0.840679	0.609573
	H23	H	0.266517	0.154746	0.399714
	H24	H	0.880349	0.343487	0.231085
	H25	H	0.096603	0.654261	0.227567
	H26	H	0.096527	0.339913	0.782774
	H27	H	0.886640	0.654597	0.785245
	H28	H	0.213940	0.891846	0.350130
	H29	H	0.212573	0.103015	0.661671
	H30	H	0.767892	0.104362	0.349636
	H31	H	0.769153	0.894636	0.661867
	H32	H	0.332258	0.220661	0.899800
	H33	H	0.647881	0.219869	0.110348
	H34	H	0.329292	0.780808	0.108379
	H35	H	0.647194	0.778694	0.902188
	H36	H	0.331032	0.895374	0.226109
	H37	H	0.645582	0.106120	0.227300
	H38	H	0.332593	0.106133	0.782938
	H39	H	0.646963	0.893265	0.784156
	H40	H	0.883009	0.222838	0.350644
	H41	H	0.097416	0.221791	0.660408
	H42	H	0.098249	0.774470	0.350290
	H43	H	0.887462	0.778554	0.662257
	H44	H	0.211223	0.339768	0.900776
	H45	H	0.208085	0.656319	0.106409
	H46	H	0.767654	0.341622	0.111867
	H47	H	0.770837	0.655137	0.903044
	H48	H	0.402899	0.111545	0.595531
	H49	H	0.573013	0.888209	0.597755
	H50	H	0.572858	0.109902	0.414156
	H51	H	0.404396	0.888252	0.417451
	H52	H	0.576432	0.407193	0.116208
	H53	H	0.581291	0.590686	0.892898
	H54	H	0.400948	0.585022	0.115216
	H55	H	0.406188	0.404823	0.894177
	H56	H	0.101372	0.583913	0.418074
	H57	H	0.873748	0.590232	0.599132
	H58	H	0.102209	0.407778	0.592480
	H59	H	0.881956	0.418208	0.420848
	H60	H	0.100799	0.410141	0.593045
	H61	H	0.876990	0.588877	0.593844
	H62	H	0.103774	0.584046	0.413768
	H63	H	0.875579	0.410491	0.412673
	H64	H	0.400105	0.593594	0.118617
	H65	H	0.580795	0.583611	0.895863
	H66	H	0.579476	0.410120	0.115934
	H67	H	0.397516	0.406276	0.890906
	H68	H	0.578554	0.109135	0.420092
	H69	H	0.580137	0.887566	0.590642
	H70	H	0.402596	0.110044	0.592924
	H71	H	0.399527	0.885949	0.416298
	H72	H	0.900834	0.610564	0.095574
	H73	H	0.076628	0.387669	0.089040
	H74	H	0.083213	0.608806	0.917416
	H75	H	0.903097	0.384008	0.910317
	H76	H	0.079367	0.903753	0.618810
	H77	H	0.077889	0.081773	0.396816
	H78	H	0.903526	0.088289	0.615903
	H79	H	0.905028	0.902855	0.392606
	H80	H	0.601008	0.084268	0.916567
	H81	H	0.379351	0.085623	0.088234
	H82	H	0.604635	0.903162	0.096865
	H83	H	0.377171	0.914947	0.914968
	H84	H	0.600195	0.908965	0.089014
	H85	H	0.378015	0.081444	0.096107
	H86	H	0.602619	0.086720	0.915167
	H87	H	0.373805	0.907052	0.911976
	H88	H	0.898437	0.086710	0.617652
	H89	H	0.074161	0.086670	0.396058
	H90	H	0.082015	0.908293	0.617620
	H91	H	0.895549	0.906005	0.390379
	H92	H	0.083906	0.612566	0.907755
	H93	H	0.079070	0.385974	0.095389
	H94	H	0.903495	0.609652	0.095215
	H95	H	0.905144	0.387342	0.918956
	H96	H	0.400671	0.111250	0.593766
	H97	H	0.581966	0.884685	0.600320
	H98	H	0.580995	0.113028	0.412787
	H99	H	0.402806	0.886227	0.412300
	H100	H	0.575544	0.411111	0.114920
	H101	H	0.574791	0.588704	0.895873
	H102	H	0.392784	0.587709	0.118979
	H103	H	0.402041	0.412837	0.896084
	H104	H	0.104542	0.588147	0.416181
	H105	H	0.876413	0.584567	0.598135
	H106	H	0.102666	0.409252	0.594371
	H107	H	0.878836	0.406334	0.424009
	H108	H	0.901381	0.609143	0.093573
	H109	H	0.071563	0.387663	0.094106
	H110	H	0.074680	0.608888	0.911430
	H111	H	0.896078	0.383638	0.917540
	H112	H	0.077015	0.907578	0.616300
	H113	H	0.080086	0.086859	0.394471
	H114	H	0.901869	0.083228	0.614919
	H115	H	0.902162	0.912517	0.395096
	H116	H	0.601618	0.087330	0.918058
	H117	H	0.376318	0.090719	0.095195
	H118	H	0.602695	0.913511	0.098034
	H119	H	0.377497	0.907708	0.920564
	C120	C	0.369450	0.007484	0.626380
	C121	C	0.611327	0.990425	0.627426
	C122	C	0.610235	0.007114	0.383756
	C123	C	0.368672	0.990340	0.383455
	C124	C	0.611518	0.376352	0.013191
	C125	C	0.611092	0.619868	0.998017
	C126	C	0.368021	0.619488	0.013404
	C127	C	0.368408	0.375801	0.996626
	C128	C	-0.000849	0.618428	0.384161
	C129	C	0.981289	0.618029	0.626694
	C130	C	-0.002168	0.376092	0.626232
	C131	C	0.981980	0.377319	0.385088
	C132	C	0.868658	0.506627	0.127529
	C133	C	0.109398	0.490331	0.125226
	C134	C	0.112036	0.505533	0.882141
	C135	C	0.869443	0.488848	0.883948
	C136	C	0.112474	0.875028	0.514139
	C137	C	0.111292	0.118653	0.497791
	C138	C	0.868723	0.119539	0.513350
	C139	C	0.869021	0.876033	0.496700
	C140	C	0.497947	0.119912	0.883983
	C141	C	0.481464	0.119060	0.125756
	C142	C	0.497621	0.877281	0.126485
	C143	C	0.480748	0.877805	0.884398
	C144	C	0.365778	0.890244	0.688066
	C145	C	0.614553	0.108875	0.686992
	C146	C	0.613464	0.889134	0.323671
	C147	C	0.364839	0.107906	0.323272
	C148	C	0.672948	0.374165	0.896312
	C149	C	0.671163	0.621976	0.115150
	C150	C	0.311257	0.619242	0.894392
	C151	C	0.307345	0.373857	0.113988
	C152	C	0.879751	0.677961	0.383249
	C153	C	0.101056	0.676590	0.626609
	C154	C	0.878971	0.316010	0.629136
	C155	C	0.099279	0.314838	0.380180
	C156	C	0.879370	0.373362	0.686919
	C157	C	0.101126	0.618915	0.684551
	C158	C	0.880387	0.621506	0.324740
	C159	C	0.098884	0.371887	0.321900
	C160	C	0.368510	0.678120	0.894940
	C161	C	0.613450	0.680415	0.114858
	C162	C	0.615782	0.315086	0.896675
	C163	C	0.365818	0.316260	0.114448
	C164	C	0.669894	0.888415	0.382750
	C165	C	0.671378	0.108981	0.627804
	C166	C	0.310098	0.888738	0.628578
	C167	C	0.307256	0.107837	0.381625
	C168	C	0.863985	0.389735	0.189374
	C169	C	0.113311	0.607794	0.186027
	C170	C	0.114433	0.386913	0.823123
	C171	C	0.867812	0.607271	0.824790
	C172	C	0.173794	0.873142	0.397153
	C173	C	0.172465	0.121696	0.614709
	C174	C	0.807884	0.122712	0.396433
	C175	C	0.809603	0.875643	0.614852
	C176	C	0.379678	0.180790	0.881340
	C177	C	0.600135	0.179420	0.127813
	C178	C	0.377465	0.819392	0.127429
	C179	C	0.599839	0.818351	0.883266
	C180	C	0.378211	0.876457	0.185725
	C181	C	0.599355	0.123105	0.186599
	C182	C	0.379892	0.123538	0.823363
	C183	C	0.599713	0.875443	0.824799
	C184	C	0.865332	0.181341	0.396865
	C185	C	0.115317	0.180805	0.614022
	C186	C	0.115974	0.814926	0.396905
	C187	C	0.867916	0.817656	0.615071
	C188	C	0.171634	0.386916	0.881504
	C189	C	0.169362	0.608543	0.126130
	C190	C	0.807477	0.388938	0.130539
	C191	C	0.810539	0.607723	0.883564
	C192	C	0.394885	0.089544	0.601354
	C193	C	0.585765	0.908432	0.603167
	C194	C	0.584785	0.089283	0.408677
	C195	C	0.394807	0.908172	0.408158
	C196	C	0.584824	0.402014	0.094566
	C197	C	0.586119	0.594731	0.916294
	C198	C	0.391344	0.595773	0.095961
	C199	C	0.394377	0.400718	0.915009
	C200	C	0.081749	0.592728	0.409081
	C201	C	0.897694	0.594615	0.603642
	C202	C	0.080311	0.401745	0.600615
	C203	C	0.900099	0.404015	0.411635
	C204	C	0.894553	0.588395	0.102030
	C205	C	0.083100	0.408348	0.100088
	C206	C	0.087534	0.588327	0.905498
	C207	C	0.894353	0.406483	0.908559
	C208	C	0.086741	0.899673	0.596142
	C209	C	0.085065	0.092573	0.416868
	C210	C	0.894116	0.093567	0.594948
	C211	C	0.893860	0.900115	0.414391
	C212	C	0.580249	0.093729	0.909318
	C213	C	0.399261	0.093265	0.100367
	C214	C	0.580743	0.901517	0.102079
	C215	C	0.397676	0.902696	0.908992
	Zn216	Zn	0.489821	-0.000589	0.756087
	Zn217	Zn	0.490048	-0.001153	0.254657
	Zn218	Zn	0.740498	0.498269	0.006390
	Zn219	Zn	0.239275	0.497337	0.004615
	Zn220	Zn	-0.009695	0.746456	0.505035
	Zn221	Zn	-0.010386	0.248321	0.505536
	Zn222	Zn	-0.009722	0.496647	0.754679
	Zn223	Zn	-0.010143	0.498075	0.255942
	Zn224	Zn	0.488975	0.748940	0.005462
	Zn225	Zn	0.489735	0.247542	0.005160
	Zn226	Zn	0.739325	-0.001513	0.504631
	Zn227	Zn	0.240771	-0.002444	0.505812
	N228	N	0.401814	0.965254	0.687138
	N229	N	0.578109	0.034042	0.687083
	N230	N	0.577475	0.964112	0.323907
	N231	N	0.402176	0.033643	0.324299
	N232	N	0.670669	0.411231	0.970050
	N233	N	0.670071	0.585088	0.041208
	N234	N	0.310608	0.583711	0.969121
	N235	N	0.308569	0.409901	0.039624
	N236	N	0.954864	0.676480	0.419322
	N237	N	0.025579	0.676284	0.591337
	N238	N	0.953836	0.317614	0.592085
	N239	N	0.025518	0.318134	0.418956
	N240	N	0.954323	0.410013	0.685272
	N241	N	0.025598	0.583501	0.684810
	N242	N	0.955600	0.585393	0.325241
	N243	N	0.024885	0.410240	0.324899
	N244	N	0.402644	0.678645	0.970043
	N245	N	0.576888	0.679334	0.040923
	N246	N	0.578457	0.316315	0.970660
	N247	N	0.402717	0.317227	0.040410
	N248	N	0.668050	0.962725	0.419531
	N249	N	0.669561	0.034456	0.591619
	N250	N	0.312155	0.962629	0.590906
	N251	N	0.309483	0.033582	0.418384
	N252	N	0.901251	0.463948	0.187676
	N253	N	0.076986	0.533078	0.185695
	N254	N	0.078403	0.461686	0.823202
	N255	N	0.903664	0.532373	0.824981
	N256	N	0.171798	0.909541	0.471185
	N257	N	0.170203	0.084024	0.541331
	N258	N	0.809996	0.084893	0.469993
	N259	N	0.809870	0.911010	0.540142
	N260	N	0.454195	0.178577	0.918335
	N261	N	0.525807	0.176927	0.090405
	N262	N	0.452653	0.819824	0.091213
	N263	N	0.524790	0.819856	0.919561
	N264	N	0.453962	0.911652	0.185458
	N265	N	0.524682	0.086087	0.185329
	N266	N	0.454705	0.086706	0.824763
	N267	N	0.524730	0.911990	0.825393
	N268	N	0.902507	0.179170	0.470568
	N269	N	0.077889	0.178971	0.540332
	N270	N	0.078734	0.815631	0.470959
	N271	N	0.904054	0.817693	0.540585
	N272	N	0.170526	0.461695	0.917288
	N273	N	0.167100	0.534458	0.089002
	N274	N	0.810291	0.462596	0.092640
	N275	N	0.811302	0.532962	0.919608
	O276	O	0.784422	0.790430	0.030200
	H277	H	0.781822	0.776465	0.035493
	H278	H	0.786967	0.802411	0.027052
	O279	O	0.201211	0.033948	1.220769
	H280	H	0.198878	0.043657	1.220870
	H281	H	0.209414	0.023754	1.237724
	O282	O	1.078903	1.214753	1.034278
	H283	H	1.062820	1.203060	1.029953
	H284	H	1.095834	1.229454	1.042543
	O285	O	0.356609	0.443704	0.344468
	H286	H	0.336357	0.450820	0.339094
	H287	H	0.354412	0.456791	0.346860
	O288	O	1.304993	-0.289751	1.487780
	H289	H	1.294457	-0.283216	1.497245
	H290	H	1.309996	-0.296422	1.496530
	O291	O	0.619821	0.480753	0.516017
	H292	H	0.636415	0.482283	0.514736
	H293	H	0.604518	0.491037	0.518859
	O294	O	-0.006249	-0.054585	0.037399
	H295	H	-0.005605	-0.064161	0.027402
	H296	H	-0.010872	-0.043561	0.029222
	O297	O	1.293839	0.302062	-0.297034
	H298	H	1.286476	0.303175	-0.341908
	H299	H	1.305418	0.278438	-0.278449
	O300	O	-0.222887	0.215659	-0.026137
	H301	H	-0.234753	0.232320	-0.017730
	H302	H	-0.225041	0.214878	-0.020779
	O303	O	-0.225148	-0.057517	0.222337
	H304	H	-0.230350	-0.075197	0.221083
	H305	H	-0.233452	-0.076034	0.239481
	O306	O	0.970199	0.060340	0.010181
	H307	H	0.974009	0.060528	0.008700
	H308	H	0.962544	0.050042	0.007375
	O309	O	0.593316	0.635234	0.515642
	H310	H	0.597788	0.646059	0.538665
	H311	H	0.589452	0.635561	0.525520
	O312	O	0.512570	0.631828	0.713625
	H313	H	0.506974	0.621013	0.716652
	H314	H	0.530250	0.646757	0.721856
	O315	O	0.992633	1.195210	0.203737
	H316	H	0.964737	1.183680	0.204249
	H317	H	0.989941	1.206243	0.213445
	O318	O	1.094062	1.021369	-0.011481
	H319	H	1.092099	1.026996	0.006507
	H320	H	1.092728	1.019994	-0.015182
	O321	O	0.168536	0.986682	0.786664
	H322	H	0.172970	0.969631	0.783186
	H323	H	0.171542	0.990838	0.786903
	O324	O	0.830452	-0.191331	0.843756
	H325	H	0.846031	-0.193043	0.864101
	H326	H	0.856587	-0.169096	0.852538
	O327	O	1.504116	0.712699	0.330756
	H328	H	1.499144	0.723178	0.332594
	H329	H	1.495653	0.716488	0.330459
	O330	O	0.284761	0.288677	0.479698
	H331	H	0.289758	0.282228	0.466771
	H332	H	0.264875	0.290039	0.471107
	O333	O	0.269704	0.529887	0.540788
	H334	H	0.268373	0.514746	0.533070
	H335	H	0.273687	0.511711	0.555105
	O336	O	0.027254	0.787119	-0.205459
	H337	H	0.031709	0.787610	-0.216854
	H338	H	0.028997	0.777879	-0.204725
	O339	O	0.695329	0.631320	0.506042
	H340	H	0.705721	0.656090	0.516298
	H341	H	0.692018	0.634316	0.512428
	O342	O	-0.029333	1.146157	0.041182
	H343	H	-0.037022	1.134711	0.044037
	H344	H	-0.040651	1.142878	0.039751
	O345	O	0.024561	0.161811	0.000924
	H346	H	-0.004174	0.152794	0.006643
	H347	H	0.016334	0.146938	0.019019
	O348	O	0.291717	0.464427	0.490357
	H349	H	0.304306	0.467659	0.481701
	H350	H	0.285418	0.461591	0.488279
	O351	O	-0.127412	0.003967	1.112792
	H352	H	-0.131697	0.006000	1.099318
	H353	H	-0.127719	-0.012359	1.109900
	O354	O	0.643407	0.484296	1.307528
	H355	H	0.612177	0.494733	1.313719
	H356	H	0.636173	0.480679	1.304505
	O357	O	0.354646	0.704857	0.295685
	H358	H	0.362564	0.721484	0.309732
	H359	H	0.347651	0.725216	0.294197
	O360	O	0.466664	0.281505	0.724347
	H361	H	0.451871	0.271006	0.725415
	H362	H	0.471261	0.277356	0.744478
	O363	O	0.949455	1.039710	1.098399
	H364	H	0.941286	1.035775	1.100992
	H365	H	0.957140	1.027123	1.092586
	O366	O	1.022674	-0.081805	0.976947
	H367	H	1.027458	-0.090448	0.981140
	H368	H	1.037656	-0.068564	0.981381
	O369	O	-0.033979	0.205032	0.795862
	H370	H	-0.031656	0.215622	0.775838
	H371	H	-0.034555	0.191547	0.798536
	O372	O	0.624275	0.291726	0.297064
	H373	H	0.630198	0.311252	0.313714
	H374	H	0.617262	0.295099	0.300187
	O375	O	1.101044	0.145693	0.081053
	H376	H	1.110391	0.160983	0.077971
	H377	H	1.094702	0.141736	0.102960
	O378	O	-0.004638	0.009468	0.771419
	H379	H	0.009334	0.003182	0.778490
	H380	H	-0.005273	0.003667	0.773539
	O381	O	0.197114	0.788638	-0.204593
	H382	H	0.174866	0.809171	-0.204073
	H383	H	0.228091	0.758037	-0.237097
	O384	O	0.623373	0.631035	0.383966
	H385	H	0.629954	0.626975	0.380720
	H386	H	0.615647	0.624296	0.377384
	O387	O	0.506834	0.463715	1.587141
	H388	H	0.513278	0.455504	1.590162
	H389	H	0.503200	0.460890	1.585925
	O390	O	0.056460	0.978908	1.015469
	H391	H	0.056976	0.981698	1.024674
	H392	H	0.063689	0.991444	1.024150
	O393	O	0.634680	-0.269245	-0.266665
	H394	H	0.666761	-0.292458	-0.261859
	H395	H	0.648456	-0.238536	-0.244167
	O396	O	0.486285	0.293407	0.504921
	H397	H	0.465570	0.293713	0.514755
	H398	H	0.476821	0.296458	0.490027
	O399	O	0.823056	1.002922	0.035497
	H400	H	0.811438	1.000671	0.014817
	H401	H	0.827101	1.007712	0.037894
	O402	O	1.494784	-0.476280	1.406458
	H403	H	1.503601	-0.481260	1.409346
	H404	H	1.507910	-0.467681	1.392446
	O405	O	0.172889	-0.222262	-0.011840
	H406	H	0.174908	-0.222003	-0.045696
	H407	H	0.187596	-0.227141	-0.025937
	O408	O	1.177421	1.193911	1.204286
	H409	H	1.160173	1.178727	1.196791
	H410	H	1.153200	1.190924	1.193982
	O411	O	1.274135	1.513509	0.287708
	H412	H	1.254598	1.539216	0.270208
	H413	H	1.269138	1.539332	0.302569
	O414	O	0.112202	0.096364	-0.024688
	H415	H	0.098273	0.103451	-0.004746
	H416	H	0.128085	0.105488	-0.003098
	O417	O	0.695440	0.299127	0.393991
	H418	H	0.707938	0.290920	0.406458
	H419	H	0.683923	0.329394	0.405139
	O420	O	0.962213	-0.220806	1.221423
	H421	H	0.968984	-0.233886	1.227800
	H422	H	0.949118	-0.228968	1.221304
	O423	O	0.503899	1.594237	-0.630165
	H424	H	0.493864	1.587770	-0.616749
	H425	H	0.492548	1.598566	-0.622601
	O426	O	-0.201312	1.191500	-0.191533
	H427	H	-0.201959	1.177374	-0.167244
	H428	H	-0.181967	1.207100	-0.189633
	O429	O	0.657008	0.454348	0.716137
	H430	H	0.651217	0.427422	0.701431
	H431	H	0.665239	0.453502	0.718494
	O432	O	0.772011	0.029768	0.784642
	H433	H	0.769863	0.040827	0.778132
	H434	H	0.760075	0.039167	0.764685
	O435	O	0.480132	0.484336	0.285930
	H436	H	0.473565	0.482575	0.287401
	H437	H	0.464331	0.483229	0.278943
	O438	O	0.305641	0.685971	0.690966
	H439	H	0.327976	0.672363	0.676093
	H440	H	0.323263	0.664346	0.673742
	O441	O	1.097688	0.937890	0.177518
	H442	H	1.081949	0.944185	0.167292
	H443	H	1.098491	0.946420	0.179182
	O444	O	0.273267	0.466858	0.722961
	H445	H	0.244599	0.454913	0.745090
	H446	H	0.277313	0.436717	0.716589
	O447	O	0.667158	0.359592	0.603501
	H448	H	0.649282	0.363417	0.598951
	H449	H	0.654876	0.355058	0.586875
	O450	O	0.773120	-0.219796	0.223410
	H451	H	0.763371	-0.245350	0.216302
	H452	H	0.774248	-0.211851	0.222593
	O453	O	0.584834	0.523847	0.505228
	H454	H	0.573225	0.497349	0.505333
	H455	H	0.590497	0.544551	0.512021
	O456	O	-0.087177	0.943249	0.868687
	H457	H	-0.071102	0.958948	0.871759
	H458	H	-0.092373	0.947963	0.867800
	O459	O	0.492162	0.482842	0.665174
	H460	H	0.505822	0.499607	0.661836
	H461	H	0.471450	0.496287	0.664984
	O462	O	0.493685	0.313432	0.549961
	H463	H	0.477745	0.311307	0.541801
	H464	H	0.494485	0.321970	0.534406
	O465	O	0.453531	0.278600	0.380589
	H466	H	0.468159	0.287438	0.376928
	H467	H	0.457886	0.266713	0.368366
	O468	O	-0.037043	0.771833	-0.024848
	H469	H	-0.035336	0.770790	-0.007563
	H470	H	-0.023516	0.777552	-0.029165
	O471	O	0.693701	0.610702	0.718746
	H472	H	0.719896	0.613236	0.750682
	H473	H	0.686232	0.570493	0.714188
	O474	O	1.183507	0.903577	0.073953
	H475	H	1.175544	0.920150	0.057544
	H476	H	1.170258	0.918359	0.078639
	O477	O	0.463823	0.702363	0.595060
	H478	H	0.469014	0.703357	0.599869
	H479	H	0.477159	0.705977	0.599309
