data_Molecule from HDF5

_cell_length_a		16.286292
_cell_length_b		16.153071
_cell_length_c		16.244740
_cell_angle_alpha	88.919236
_cell_angle_beta	90.392092
_cell_angle_gamma	89.817830
_symmetry_space_group_name_H-M	'P 1'
_symmetry_Int_Tables_number		1

loop_
	_symmetry_equiv_pos_as_xyz
	x,y,z

loop_
	_atom_site_label
	_atom_site_type_symbol
	_atom_site_fract_x
	_atom_site_fract_y
	_atom_site_fract_z
	H0	H	0.401974	0.832462	0.718649
	H1	H	0.600516	0.161898	0.713619
	H2	H	0.600045	0.830352	0.292543
	H3	H	0.401119	0.160214	0.281497
	H4	H	0.714847	0.396406	0.836490
	H5	H	0.718032	0.594198	0.161811
	H6	H	0.284047	0.599135	0.836086
	H7	H	0.287180	0.393459	0.163617
	H8	H	0.836398	0.715920	0.396276
	H9	H	0.164259	0.709343	0.596200
	H10	H	0.837814	0.280219	0.601015
	H11	H	0.164855	0.286629	0.405840
	H12	H	0.837597	0.392014	0.717654
	H13	H	0.162955	0.594200	0.715672
	H14	H	0.837887	0.602824	0.278097
	H15	H	0.164441	0.400719	0.288684
	H16	H	0.398103	0.716306	0.837665
	H17	H	0.596029	0.703466	0.166259
	H18	H	0.597451	0.284674	0.836235
	H19	H	0.403209	0.279116	0.163382
	H20	H	0.716349	0.832595	0.406011
	H21	H	0.716369	0.161302	0.599058
	H22	H	0.287220	0.832329	0.601152
	H23	H	0.285718	0.161855	0.395604
	H24	H	0.902158	0.332986	0.218711
	H25	H	0.098578	0.662490	0.208318
	H26	H	0.098157	0.330229	0.791293
	H27	H	0.897967	0.659768	0.779475
	H28	H	0.215024	0.901410	0.335873
	H29	H	0.218781	0.096084	0.662822
	H30	H	0.781187	0.104158	0.337874
	H31	H	0.786880	0.892839	0.663927
	H32	H	0.336158	0.212662	0.898574
	H33	H	0.663257	0.209999	0.099634
	H34	H	0.335777	0.780817	0.102308
	H35	H	0.662420	0.782772	0.906186
	H36	H	0.337239	0.893813	0.218742
	H37	H	0.663806	0.092930	0.216142
	H38	H	0.339070	0.101924	0.779622
	H39	H	0.663106	0.896121	0.789061
	H40	H	0.901302	0.216311	0.337106
	H41	H	0.099191	0.206018	0.665483
	H42	H	0.099797	0.787262	0.334926
	H43	H	0.902236	0.777743	0.662125
	H44	H	0.213573	0.331113	0.904439
	H45	H	0.215277	0.660049	0.095732
	H46	H	0.786132	0.331674	0.101906
	H47	H	0.782727	0.660054	0.893733
	H48	H	0.407914	0.113112	0.586468
	H49	H	0.587202	0.880854	0.599422
	H50	H	0.588220	0.110873	0.413915
	H51	H	0.402104	0.877632	0.411351
	H52	H	0.595223	0.398688	0.117297
	H53	H	0.591096	0.594511	0.882302
	H54	H	0.406761	0.592082	0.119311
	H55	H	0.413609	0.390010	0.879180
	H56	H	0.117621	0.591566	0.400977
	H57	H	0.886565	0.580954	0.587813
	H58	H	0.117778	0.413680	0.607461
	H59	H	0.882051	0.406837	0.403079
	H60	H	0.123540	0.388988	0.600606
	H61	H	0.881232	0.589491	0.596288
	H62	H	0.117842	0.596668	0.403685
	H63	H	0.883819	0.404126	0.411800
	H64	H	0.400486	0.585492	0.118115
	H65	H	0.592150	0.589457	0.883328
	H66	H	0.595709	0.406639	0.116431
	H67	H	0.386029	0.407218	0.877366
	H68	H	0.597017	0.115399	0.406994
	H69	H	0.595593	0.881006	0.590333
	H70	H	0.405990	0.115713	0.591282
	H71	H	0.409179	0.878034	0.406956
	H72	H	0.912226	0.611601	0.083877
	H73	H	0.096388	0.379626	0.087092
	H74	H	0.103355	0.616900	0.907709
	H75	H	0.911465	0.379650	0.908541
	H76	H	0.100709	0.888521	0.622465
	H77	H	0.091002	0.097119	0.383226
	H78	H	0.906670	0.081445	0.615745
	H79	H	0.910995	0.912194	0.385718
	H80	H	0.619852	0.096057	0.904319
	H81	H	0.383204	0.092917	0.086899
	H82	H	0.610843	0.912376	0.089565
	H83	H	0.385531	0.909408	0.916252
	H84	H	0.620650	0.901499	0.112197
	H85	H	0.386359	0.081508	0.089268
	H86	H	0.615089	0.091306	0.915735
	H87	H	0.383882	0.913263	0.904460
	H88	H	0.914208	0.090660	0.616119
	H89	H	0.096611	0.095734	0.381615
	H90	H	0.103429	0.916297	0.614971
	H91	H	0.906865	0.907132	0.382453
	H92	H	0.086712	0.615597	0.893443
	H93	H	0.100624	0.374090	0.103839
	H94	H	0.903118	0.614664	0.083202
	H95	H	0.904849	0.379871	0.915513
	H96	H	0.411439	0.114117	0.590098
	H97	H	0.598651	0.877815	0.600863
	H98	H	0.585840	0.113723	0.402065
	H99	H	0.408587	0.880005	0.414763
	H100	H	0.587767	0.403112	0.115037
	H101	H	0.587285	0.590311	0.883776
	H102	H	0.409082	0.583325	0.116516
	H103	H	0.413461	0.420655	0.889260
	H104	H	0.116819	0.592235	0.407136
	H105	H	0.883835	0.593514	0.583702
	H106	H	0.112234	0.405490	0.583263
	H107	H	0.886108	0.413337	0.409311
	H108	H	0.908157	0.615095	0.092108
	H109	H	0.084135	0.380587	0.099341
	H110	H	0.083893	0.608724	0.914525
	H111	H	0.902730	0.376463	0.906970
	H112	H	0.077384	0.902991	0.611876
	H113	H	0.092355	0.091145	0.384050
	H114	H	0.902711	0.091865	0.620659
	H115	H	0.903429	0.913719	0.382882
	H116	H	0.615593	0.083331	0.905166
	H117	H	0.381778	0.087566	0.098817
	H118	H	0.618613	0.887475	0.090905
	H119	H	0.380426	0.901454	0.907307
	C120	C	0.379401	0.005877	0.621193
	C121	C	0.623232	0.988496	0.624184
	C122	C	0.620456	0.004609	0.380865
	C123	C	0.377995	0.987557	0.378715
	C124	C	0.620957	0.375060	0.008001
	C125	C	0.620274	0.618215	0.991101
	C126	C	0.376324	0.618316	0.009533
	C127	C	0.377661	0.374599	0.990563
	C128	C	0.009075	0.622946	0.374390
	C129	C	0.991823	0.616786	0.618823
	C130	C	0.009602	0.373327	0.624735
	C131	C	0.992221	0.379096	0.380678
	C132	C	0.878526	0.505596	0.119910
	C133	C	0.122009	0.487489	0.122030
	C134	C	0.120115	0.504241	0.879020
	C135	C	0.876666	0.487084	0.877739
	C136	C	0.122184	0.876228	0.507875
	C137	C	0.122428	0.120586	0.491589
	C138	C	0.878145	0.119945	0.509450
	C139	C	0.878760	0.877486	0.491362
	C140	C	0.509087	0.120225	0.877685
	C141	C	0.491434	0.116272	0.121215
	C142	C	0.508424	0.871899	0.125541
	C143	C	0.490959	0.877505	0.881289
	C144	C	0.381698	0.881972	0.679731
	C145	C	0.620926	0.112534	0.676876
	C146	C	0.619773	0.879979	0.328884
	C147	C	0.380435	0.111102	0.319910
	C148	C	0.676434	0.377082	0.885213
	C149	C	0.678294	0.614318	0.113909
	C150	C	0.321245	0.618548	0.885549
	C151	C	0.324060	0.373934	0.114357
	C152	C	0.885923	0.678771	0.375459
	C153	C	0.115139	0.671608	0.616843
	C154	C	0.886534	0.318015	0.621234
	C155	C	0.115683	0.323892	0.384606
	C156	C	0.886539	0.373579	0.679565
	C157	C	0.114443	0.614361	0.676263
	C158	C	0.886454	0.622343	0.316979
	C159	C	0.115693	0.380875	0.326568
	C160	C	0.378110	0.676867	0.886348
	C161	C	0.617886	0.668937	0.115821
	C162	C	0.617855	0.321374	0.885105
	C163	C	0.382042	0.317465	0.114419
	C164	C	0.677740	0.881247	0.385074
	C165	C	0.678796	0.112276	0.620040
	C166	C	0.324127	0.881955	0.621681
	C167	C	0.323431	0.112044	0.377240
	C168	C	0.881415	0.381973	0.179206
	C169	C	0.119110	0.612460	0.172836
	C170	C	0.118114	0.380071	0.827294
	C171	C	0.877851	0.610558	0.818212
	C172	C	0.177188	0.880914	0.384803
	C173	C	0.179676	0.116312	0.614375
	C174	C	0.820504	0.122246	0.386846
	C175	C	0.824582	0.874690	0.614830
	C176	C	0.385731	0.175860	0.878251
	C177	C	0.614509	0.172023	0.119649
	C178	C	0.384971	0.817743	0.122673
	C179	C	0.613750	0.820539	0.884936
	C180	C	0.385756	0.874177	0.180684
	C181	C	0.614714	0.114074	0.177898
	C182	C	0.387291	0.120674	0.819125
	C183	C	0.614267	0.877340	0.826985
	C184	C	0.880088	0.178200	0.386341
	C185	C	0.120182	0.171054	0.615841
	C186	C	0.119558	0.824091	0.384147
	C187	C	0.881788	0.817469	0.613834
	C188	C	0.175584	0.380392	0.883791
	C189	C	0.177316	0.611263	0.116804
	C190	C	0.823749	0.381360	0.121132
	C191	C	0.820629	0.610800	0.875284
	C192	C	0.401917	0.092095	0.596539
	C193	C	0.600679	0.902176	0.603101
	C194	C	0.597184	0.090876	0.401520
	C195	C	0.400161	0.900861	0.403687
	C196	C	0.599262	0.396405	0.093939
	C197	C	0.597035	0.597542	0.905474
	C198	C	0.398676	0.594013	0.095611
	C199	C	0.398294	0.398825	0.904376
	C200	C	0.094937	0.600251	0.397338
	C201	C	0.906117	0.594609	0.595953
	C202	C	0.095468	0.395924	0.603308
	C203	C	0.906461	0.401488	0.401730
	C204	C	0.901197	0.591516	0.094075
	C205	C	0.100099	0.400621	0.102518
	C206	C	0.097840	0.591157	0.899213
	C207	C	0.899533	0.400974	0.902983
	C208	C	0.100219	0.896664	0.594083
	C209	C	0.099970	0.100654	0.405256
	C210	C	0.901127	0.095176	0.595174
	C211	C	0.900590	0.903453	0.405843
	C212	C	0.594675	0.096940	0.901482
	C213	C	0.405855	0.093999	0.098387
	C214	C	0.594492	0.893818	0.103961
	C215	C	0.405457	0.901118	0.902981
	Zn216	Zn	0.501017	-0.002152	0.751343
	Zn217	Zn	0.500797	-0.005429	0.252026
	Zn218	Zn	0.749321	0.496290	-0.001543
	Zn219	Zn	0.248918	0.495563	-0.000112
	Zn220	Zn	-0.000179	0.749095	0.497636
	Zn221	Zn	0.001087	0.248222	0.501478
	Zn222	Zn	-0.000942	0.495288	0.750912
	Zn223	Zn	0.000407	0.498493	0.249097
	Zn224	Zn	0.498427	0.746571	0.001846
	Zn225	Zn	0.499521	0.247012	-0.000518
	Zn226	Zn	0.749850	-0.002535	0.501328
	Zn227	Zn	0.250066	-0.002212	0.499488
	N228	N	0.415330	0.960203	0.679651
	N229	N	0.587119	0.034580	0.679537
	N230	N	0.584755	0.957688	0.326175
	N231	N	0.413548	0.032546	0.320609
	N232	N	0.678489	0.409925	0.962633
	N233	N	0.680176	0.583812	0.035343
	N234	N	0.320020	0.582838	0.963136
	N235	N	0.321325	0.408851	0.036649
	N236	N	0.963175	0.679299	0.410401
	N237	N	0.037908	0.673188	0.581648
	N238	N	0.963976	0.317660	0.587832
	N239	N	0.038040	0.322591	0.417581
	N240	N	0.964008	0.407439	0.681820
	N241	N	0.036771	0.581122	0.677765
	N242	N	0.964170	0.588693	0.315816
	N243	N	0.038006	0.414551	0.323923
	N244	N	0.411224	0.677205	0.964501
	N245	N	0.582544	0.671707	0.038551
	N246	N	0.584083	0.319874	0.962462
	N247	N	0.414662	0.317602	0.036420
	N248	N	0.678500	0.959673	0.416690
	N249	N	0.680223	0.034063	0.587902
	N250	N	0.322633	0.959867	0.585907
	N251	N	0.321701	0.034043	0.412884
	N252	N	0.914543	0.460290	0.178536
	N253	N	0.085339	0.534515	0.176153
	N254	N	0.084444	0.458385	0.824013
	N255	N	0.912160	0.532558	0.819661
	N256	N	0.178799	0.912615	0.462804
	N257	N	0.181347	0.085617	0.536013
	N258	N	0.819089	0.086766	0.464441
	N259	N	0.822705	0.911473	0.537641
	N260	N	0.462654	0.175928	0.914014
	N261	N	0.536930	0.173436	0.085099
	N262	N	0.462307	0.816080	0.089076
	N263	N	0.536129	0.820513	0.918198
	N264	N	0.463657	0.906956	0.182824
	N265	N	0.537507	0.080043	0.178878
	N266	N	0.464948	0.086956	0.818508
	N267	N	0.537066	0.912075	0.824640
	N268	N	0.915097	0.177062	0.463766
	N269	N	0.085270	0.173779	0.538512
	N270	N	0.085990	0.820944	0.461704
	N271	N	0.914815	0.819180	0.536110
	N272	N	0.176905	0.458775	0.915345
	N273	N	0.179510	0.532468	0.086165
	N274	N	0.821880	0.459286	0.084917
	N275	N	0.819734	0.532933	0.911448
	O276	O	0.521042	0.510103	0.481022
	H277	H	0.518028	0.504855	0.484437
	H278	H	0.528693	0.527005	0.490938
	O279	O	0.559814	0.496439	0.506613
	H280	H	0.550852	0.484992	0.497195
	H281	H	0.566660	0.496417	0.501598
	O282	O	0.935386	1.066556	-0.049311
	H283	H	0.946951	1.073637	-0.065774
	H284	H	0.937680	1.060091	-0.039761
	O285	O	0.885843	0.041224	1.013928
	H286	H	0.886985	0.028358	0.991370
	H287	H	0.890103	0.065584	1.020856
	O288	O	0.423788	0.456011	0.548094
	H289	H	0.418139	0.453638	0.553586
	H290	H	0.430199	0.472421	0.534439
	O291	O	0.517673	0.458445	0.443684
	H292	H	0.516641	0.468982	0.453735
	H293	H	0.524885	0.448076	0.452720
	O294	O	0.492327	0.567260	0.444267
	H295	H	0.499100	0.565508	0.425776
	H296	H	0.492408	0.555446	0.450001
	O297	O	0.057134	0.084820	0.965243
	H298	H	0.041814	0.084132	0.981696
	H299	H	0.059260	0.086251	0.953341
	O300	O	0.573109	0.424687	0.504999
	H301	H	0.578470	0.422785	0.514217
	H302	H	0.567141	0.425270	0.503923
	O303	O	0.941709	1.065375	0.098251
	H304	H	0.929452	1.060140	0.090662
	H305	H	0.942524	1.067627	0.099602
	O306	O	-0.022333	1.014852	0.927955
	H307	H	-0.022291	1.016482	0.934596
	H308	H	-0.017502	1.010173	0.926561
	O309	O	0.524958	0.453633	0.492439
	H310	H	0.510181	0.456445	0.495540
	H311	H	0.533335	0.442047	0.482733
	O312	O	-0.031618	-0.028502	0.036323
	H313	H	-0.038104	-0.024375	0.039610
	H314	H	-0.034308	-0.031385	0.036370
	O315	O	0.480776	-0.499163	0.562986
	H316	H	0.477034	-0.488880	0.555501
	H317	H	0.478876	-0.501516	0.575678
	O318	O	1.046387	0.893992	0.926396
	H319	H	1.046845	0.894236	0.929853
	H320	H	1.038881	0.902876	0.938107
	O321	O	0.013020	-0.112229	0.910893
	H322	H	0.011032	-0.116171	0.916941
	H323	H	0.014857	-0.127431	0.914462
	O324	O	0.533829	0.524240	0.441888
	H325	H	0.535176	0.526002	0.435462
	H326	H	0.535319	0.524226	0.431915
	O327	O	0.059993	0.002747	0.049713
	H328	H	0.051633	0.009118	0.044125
	H329	H	0.052259	-0.005680	0.040392
	O330	O	0.528443	0.505563	0.584484
	H331	H	0.526425	0.506277	0.581175
	H332	H	0.517894	0.517942	0.585548
	O333	O	0.114613	0.971361	1.018236
	H334	H	0.112704	0.973571	1.011064
	H335	H	0.115042	0.981518	1.009019
	O336	O	-0.035808	0.051407	-0.108575
	H337	H	-0.035364	0.058250	-0.108006
	H338	H	-0.021008	0.057605	-0.110913
	O339	O	0.493992	0.391541	0.545156
	H340	H	0.503287	0.383884	0.548738
	H341	H	0.491061	0.384341	0.550043
	O342	O	0.961034	0.988136	1.088937
	H343	H	0.963077	0.979246	1.083566
	H344	H	0.970948	0.984612	1.077279
	O345	O	1.053892	1.967425	0.083111
	H346	H	1.059557	1.971551	0.097377
	H347	H	1.046609	1.955786	0.098202
	O348	O	0.504404	0.606262	0.447525
	H349	H	0.513553	0.594473	0.447486
	H350	H	0.511838	0.600688	0.451071
	O351	O	0.433557	0.554237	0.426282
	H352	H	0.439895	0.557354	0.436648
	H353	H	0.431474	0.555183	0.428532
	O354	O	0.590720	0.453777	0.503493
	H355	H	0.587056	0.442477	0.494246
	H356	H	0.594713	0.451195	0.503189
	O357	O	0.950673	0.085260	0.889184
	H358	H	0.943172	0.082514	0.888653
	H359	H	0.963781	0.083892	0.894271
	O360	O	0.539628	0.413133	0.447772
	H361	H	0.532070	0.405161	0.446613
	H362	H	0.533049	0.420960	0.453776
	O363	O	0.477094	0.521597	0.469504
	H364	H	0.478567	0.518427	0.467429
	H365	H	0.478521	0.518730	0.474329
	O366	O	0.867780	0.876321	1.089997
	H367	H	0.876928	0.866898	1.079292
	H368	H	0.866169	0.872455	1.101154
	O369	O	0.861439	-0.057652	0.976128
	H370	H	0.867210	-0.056768	0.977880
	H371	H	0.869710	-0.059639	0.980184
	O372	O	-0.021961	0.026533	0.105186
	H373	H	-0.027964	0.020944	0.116419
	H374	H	-0.020537	0.044759	0.090629
	O375	O	1.149631	-0.108893	-0.146781
	H376	H	1.166166	-0.107865	-0.147527
	H377	H	1.138146	-0.120390	-0.152745
	O378	O	0.529622	0.456485	0.646318
	H379	H	0.523551	0.465209	0.643992
	H380	H	0.546200	0.462291	0.652807
	O381	O	1.092866	0.955871	0.000424
	H382	H	1.088166	0.947983	0.014659
	H383	H	1.092256	0.959237	0.003440
