data_Molecule from HDF5

_cell_length_a		16.206737
_cell_length_b		16.226349
_cell_length_c		16.361865
_cell_angle_alpha	89.888761
_cell_angle_beta	89.893026
_cell_angle_gamma	89.607642
_symmetry_space_group_name_H-M	'P 1'
_symmetry_Int_Tables_number		1

loop_
	_symmetry_equiv_pos_as_xyz
	x,y,z

loop_
	_atom_site_label
	_atom_site_type_symbol
	_atom_site_fract_x
	_atom_site_fract_y
	_atom_site_fract_z
	H0	H	0.394567	0.838708	0.713765
	H1	H	0.593860	0.165025	0.710624
	H2	H	0.598988	0.838277	0.278494
	H3	H	0.391173	0.163950	0.278586
	H4	H	0.712257	0.401508	0.832985
	H5	H	0.712660	0.603111	0.158034
	H6	H	0.280789	0.600563	0.832282
	H7	H	0.278948	0.402133	0.157953
	H8	H	0.831845	0.717061	0.397918
	H9	H	0.161098	0.713192	0.592671
	H10	H	0.832477	0.287298	0.596292
	H11	H	0.159369	0.283872	0.393965
	H12	H	0.834146	0.400639	0.713620
	H13	H	0.159863	0.601145	0.709887
	H14	H	0.832831	0.605656	0.279845
	H15	H	0.159270	0.400051	0.277966
	H16	H	0.394364	0.718758	0.833737
	H17	H	0.593773	0.716954	0.159187
	H18	H	0.596503	0.284618	0.833655
	H19	H	0.394581	0.285373	0.158371
	H20	H	0.711462	0.837094	0.398861
	H21	H	0.709463	0.164602	0.595751
	H22	H	0.283429	0.836202	0.593835
	H23	H	0.278526	0.163754	0.395777
	H24	H	0.891333	0.340405	0.215383
	H25	H	0.095270	0.665445	0.211242
	H26	H	0.100889	0.339841	0.777967
	H27	H	0.894645	0.665126	0.778516
	H28	H	0.213132	0.899969	0.332927
	H29	H	0.211537	0.100611	0.657508
	H30	H	0.779352	0.100880	0.334012
	H31	H	0.781945	0.901650	0.658700
	H32	H	0.331633	0.218661	0.896860
	H33	H	0.658710	0.216027	0.095994
	H34	H	0.329978	0.789000	0.095592
	H35	H	0.658221	0.784524	0.897153
	H36	H	0.332226	0.899743	0.214819
	H37	H	0.657846	0.102096	0.212948
	H38	H	0.332386	0.106204	0.779011
	H39	H	0.658535	0.898999	0.780098
	H40	H	0.893455	0.218867	0.333993
	H41	H	0.097265	0.217626	0.656920
	H42	H	0.095916	0.784657	0.332505
	H43	H	0.899015	0.786302	0.658849
	H44	H	0.211526	0.337792	0.896530
	H45	H	0.207179	0.666394	0.092475
	H46	H	0.780774	0.338125	0.096426
	H47	H	0.778600	0.665069	0.896254
	H48	H	0.412758	0.113879	0.587033
	H49	H	0.592251	0.883543	0.588936
	H50	H	0.581839	0.115572	0.404112
	H51	H	0.402926	0.883931	0.403669
	H52	H	0.589147	0.402380	0.113079
	H53	H	0.588228	0.596157	0.879559
	H54	H	0.400893	0.605097	0.114636
	H55	H	0.400314	0.419047	0.882481
	H56	H	0.113417	0.591592	0.399600
	H57	H	0.878472	0.594316	0.591685
	H58	H	0.109170	0.414769	0.582036
	H59	H	0.878644	0.404231	0.408537
	H60	H	0.115379	0.410168	0.593762
	H61	H	0.879272	0.597089	0.586359
	H62	H	0.113543	0.594871	0.402069
	H63	H	0.883813	0.418537	0.408836
	H64	H	0.390612	0.591078	0.112642
	H65	H	0.587498	0.589001	0.882636
	H66	H	0.592221	0.414286	0.111693
	H67	H	0.413529	0.407981	0.882560
	H68	H	0.588196	0.116627	0.406863
	H69	H	0.587250	0.883545	0.592923
	H70	H	0.396419	0.117490	0.579771
	H71	H	0.408359	0.884754	0.401181
	H72	H	0.899767	0.618774	0.086080
	H73	H	0.089546	0.384081	0.090749
	H74	H	0.095676	0.621472	0.899967
	H75	H	0.906129	0.386124	0.903431
	H76	H	0.100222	0.909553	0.612443
	H77	H	0.093217	0.097406	0.376628
	H78	H	0.896110	0.091638	0.612202
	H79	H	0.906552	0.909594	0.381236
	H80	H	0.608614	0.092366	0.912718
	H81	H	0.375191	0.094076	0.097777
	H82	H	0.610502	0.909543	0.085835
	H83	H	0.377172	0.909162	0.902726
	H84	H	0.611658	0.911128	0.090055
	H85	H	0.378556	0.101380	0.081420
	H86	H	0.610621	0.083592	0.897914
	H87	H	0.378924	0.912013	0.907020
	H88	H	0.908963	0.088705	0.608917
	H89	H	0.088867	0.082627	0.382026
	H90	H	0.081759	0.915175	0.606456
	H91	H	0.903464	0.906252	0.378883
	H92	H	0.081264	0.619571	0.894755
	H93	H	0.080952	0.386480	0.088227
	H94	H	0.905322	0.618469	0.091032
	H95	H	0.906446	0.385829	0.903915
	H96	H	0.400147	0.121190	0.596727
	H97	H	0.586030	0.886304	0.587093
	H98	H	0.587067	0.119088	0.400063
	H99	H	0.407654	0.885782	0.408063
	H100	H	0.580921	0.410094	0.107943
	H101	H	0.581941	0.593148	0.882609
	H102	H	0.407313	0.590332	0.109228
	H103	H	0.398214	0.403702	0.876479
	H104	H	0.111859	0.591100	0.403577
	H105	H	0.880418	0.591068	0.586578
	H106	H	0.113948	0.401763	0.583065
	H107	H	0.877608	0.412556	0.396686
	H108	H	0.906027	0.616380	0.084152
	H109	H	0.088197	0.387315	0.082163
	H110	H	0.085290	0.615470	0.909239
	H111	H	0.905877	0.385529	0.904059
	H112	H	0.084996	0.895992	0.613136
	H113	H	0.078094	0.095223	0.382316
	H114	H	0.905195	0.100954	0.612281
	H115	H	0.901304	0.911371	0.380570
	H116	H	0.615272	0.099468	0.898360
	H117	H	0.382815	0.084017	0.084123
	H118	H	0.612204	0.906450	0.088772
	H119	H	0.378367	0.914089	0.902111
	C120	C	0.373925	0.009578	0.617472
	C121	C	0.616900	0.992345	0.618145
	C122	C	0.616646	0.009101	0.374549
	C123	C	0.374751	0.992570	0.374541
	C124	C	0.617730	0.379403	0.003900
	C125	C	0.615625	0.622734	0.988607
	C126	C	0.371189	0.624596	0.004397
	C127	C	0.374110	0.380599	0.987731
	C128	C	0.004414	0.622927	0.373689
	C129	C	0.987592	0.622772	0.616521
	C130	C	0.005007	0.379891	0.616554
	C131	C	0.987603	0.380617	0.373896
	C132	C	0.873236	0.510506	0.117825
	C133	C	0.115681	0.493915	0.116241
	C134	C	0.118019	0.510730	0.872935
	C135	C	0.875237	0.493261	0.873910
	C136	C	0.119038	0.877506	0.503791
	C137	C	0.116831	0.121779	0.487219
	C138	C	0.873078	0.123524	0.504635
	C139	C	0.875360	0.879798	0.487675
	C140	C	0.503679	0.122983	0.874260
	C141	C	0.486438	0.122566	0.117354
	C142	C	0.503354	0.879913	0.118067
	C143	C	0.486176	0.880776	0.874773
	C144	C	0.375521	0.886986	0.674194
	C145	C	0.614340	0.116053	0.673035
	C146	C	0.616976	0.886449	0.318320
	C147	C	0.373353	0.115123	0.317508
	C148	C	0.674319	0.380793	0.881901
	C149	C	0.673365	0.622522	0.109787
	C150	C	0.317184	0.621763	0.881695
	C151	C	0.317539	0.382125	0.109676
	C152	C	0.881009	0.679329	0.377028
	C153	C	0.111625	0.676560	0.613569
	C154	C	0.881836	0.324638	0.616238
	C155	C	0.110395	0.322501	0.374152
	C156	C	0.882641	0.381197	0.674546
	C157	C	0.110999	0.620917	0.671902
	C158	C	0.881407	0.623885	0.318184
	C159	C	0.110344	0.380298	0.316498
	C160	C	0.373765	0.680660	0.882306
	C161	C	0.614176	0.679231	0.110410
	C162	C	0.616723	0.322635	0.882254
	C163	C	0.375061	0.324162	0.109905
	C164	C	0.673074	0.885901	0.377822
	C165	C	0.671515	0.116018	0.615614
	C166	C	0.319893	0.885766	0.614784
	C167	C	0.317209	0.115166	0.375930
	C168	C	0.872856	0.388638	0.176153
	C169	C	0.114385	0.616633	0.172563
	C170	C	0.118954	0.387957	0.816866
	C171	C	0.875273	0.616465	0.817485
	C172	C	0.174915	0.879679	0.381476
	C173	C	0.173506	0.120399	0.608956
	C174	C	0.816846	0.121875	0.382477
	C175	C	0.820241	0.881753	0.610259
	C176	C	0.380675	0.180727	0.876024
	C177	C	0.609627	0.178097	0.115935
	C178	C	0.379550	0.825515	0.116368
	C179	C	0.609151	0.822843	0.876497
	C180	C	0.380563	0.880905	0.175504
	C181	C	0.609127	0.121606	0.174347
	C182	C	0.381113	0.124747	0.817229
	C183	C	0.609436	0.880096	0.818389
	C184	C	0.873700	0.180514	0.382632
	C185	C	0.116514	0.179002	0.608460
	C186	C	0.117007	0.822130	0.381296
	C187	C	0.878523	0.824254	0.610267
	C188	C	0.174420	0.387246	0.875631
	C189	C	0.170085	0.617216	0.113459
	C190	C	0.817873	0.387489	0.116563
	C191	C	0.817348	0.616237	0.875602
	C192	C	0.396379	0.095394	0.594386
	C193	C	0.595045	0.906757	0.596118
	C194	C	0.592695	0.094872	0.396986
	C195	C	0.399080	0.906855	0.397631
	C196	C	0.594364	0.402327	0.088958
	C197	C	0.592610	0.599610	0.903634
	C198	C	0.393251	0.602321	0.090138
	C199	C	0.397271	0.403415	0.902652
	C200	C	0.090641	0.599250	0.395455
	C201	C	0.901658	0.600691	0.594702
	C202	C	0.090781	0.402284	0.593051
	C203	C	0.902008	0.404646	0.397879
	C204	C	0.896751	0.595844	0.094176
	C205	C	0.092743	0.408314	0.093788
	C206	C	0.094303	0.596486	0.894723
	C207	C	0.899111	0.408007	0.896974
	C208	C	0.096016	0.900286	0.588732
	C209	C	0.093402	0.098534	0.402200
	C210	C	0.896357	0.100327	0.589174
	C211	C	0.897298	0.902473	0.402221
	C212	C	0.589345	0.098827	0.896521
	C213	C	0.401115	0.099588	0.094499
	C214	C	0.589099	0.902294	0.095004
	C215	C	0.400360	0.904807	0.897356
	Zn216	Zn	0.495295	0.002136	0.746007
	Zn217	Zn	0.495082	0.001220	0.245527
	Zn218	Zn	0.746164	0.501419	-0.004057
	Zn219	Zn	0.244093	0.501504	-0.004556
	Zn220	Zn	-0.003426	0.750207	0.495139
	Zn221	Zn	-0.004110	0.251572	0.495032
	Zn222	Zn	-0.002733	0.502002	0.744530
	Zn223	Zn	-0.005123	0.502328	0.245466
	Zn224	Zn	0.493951	0.752571	-0.003313
	Zn225	Zn	0.495092	0.250830	-0.004078
	Zn226	Zn	0.745079	0.001152	0.496595
	Zn227	Zn	0.246362	0.000333	0.495395
	N228	N	0.408054	0.964939	0.676202
	N229	N	0.580880	0.038380	0.674559
	N230	N	0.582725	0.964112	0.316205
	N231	N	0.408660	0.037651	0.316731
	N232	N	0.675050	0.415099	0.958674
	N233	N	0.674539	0.588195	0.033006
	N234	N	0.315574	0.587744	0.958689
	N235	N	0.317011	0.416554	0.032902
	N236	N	0.958607	0.678985	0.410628
	N237	N	0.033957	0.677974	0.579795
	N238	N	0.958943	0.323449	0.581045
	N239	N	0.032914	0.322517	0.409044
	N240	N	0.960482	0.414683	0.674960
	N241	N	0.033038	0.588227	0.673919
	N242	N	0.959210	0.589482	0.316114
	N243	N	0.032931	0.415533	0.316055
	N244	N	0.406467	0.682725	0.959809
	N245	N	0.578938	0.679316	0.033951
	N246	N	0.582339	0.321525	0.959320
	N247	N	0.409531	0.322959	0.033035
	N248	N	0.672878	0.963303	0.411952
	N249	N	0.673454	0.038374	0.582177
	N250	N	0.318740	0.963195	0.580112
	N251	N	0.317947	0.037914	0.410389
	N252	N	0.906656	0.466231	0.176922
	N253	N	0.081186	0.538849	0.174616
	N254	N	0.084484	0.465548	0.814979
	N255	N	0.910441	0.539046	0.815963
	N256	N	0.176401	0.913450	0.458594
	N257	N	0.173757	0.085433	0.532442
	N258	N	0.816243	0.087070	0.459221
	N259	N	0.817984	0.915372	0.533064
	N260	N	0.457864	0.179827	0.910732
	N261	N	0.532413	0.179002	0.081321
	N262	N	0.456848	0.824796	0.081276
	N263	N	0.531792	0.823490	0.911290
	N264	N	0.458462	0.913935	0.176675
	N265	N	0.531529	0.087889	0.175518
	N266	N	0.458487	0.089531	0.816027
	N267	N	0.531911	0.915209	0.817042
	N268	N	0.907935	0.181699	0.459373
	N269	N	0.082090	0.179909	0.531608
	N270	N	0.082932	0.820850	0.458183
	N271	N	0.911987	0.823136	0.532982
	N272	N	0.173845	0.464678	0.909797
	N273	N	0.171079	0.539965	0.079307
	N274	N	0.818049	0.464278	0.080967
	N275	N	0.817301	0.538837	0.909796
	O276	O	1.092185	-0.055217	0.988367
	H277	H	1.096529	-0.057890	0.989192
	H278	H	1.091068	-0.066101	0.980458
	O279	O	0.551337	0.462007	0.460095
	H280	H	0.558773	0.449082	0.447880
	H281	H	0.529674	0.463835	0.471866
	O282	O	0.612404	0.438220	0.481410
	H283	H	0.624063	0.431859	0.474174
	H284	H	0.614535	0.441507	0.482017
	O285	O	0.503902	0.423690	0.428439
	H286	H	0.510218	0.418358	0.426100
	H287	H	0.506719	0.417828	0.443778
	O288	O	0.562887	0.509564	0.413319
	H289	H	0.562657	0.493533	0.408811
	H290	H	0.571200	0.509649	0.403778
	O291	O	-0.166836	0.034820	1.009220
	H292	H	-0.172791	0.037785	0.997345
	H293	H	-0.170639	0.036676	1.008292
	O294	O	0.981876	1.167345	0.027381
	H295	H	0.998602	1.170999	0.016203
	H296	H	0.982452	1.176439	0.026970
	O297	O	0.979477	1.082870	0.001744
	H298	H	0.987033	1.073560	-0.007463
	H299	H	0.984465	1.087087	0.016887
	O300	O	-0.095554	-0.037646	1.117906
	H301	H	-0.111236	-0.031600	1.130081
	H302	H	-0.093072	-0.031377	1.110551
	O303	O	1.072300	-0.055295	1.038742
	H304	H	1.078401	-0.061482	1.058931
	H305	H	1.056263	-0.060770	1.028682
	O306	O	0.540423	0.608236	0.490860
	H307	H	0.528864	0.612295	0.490000
	H308	H	0.558367	0.612610	0.481112
	O309	O	0.443672	0.587997	0.332107
	H310	H	0.455724	0.585129	0.334432
	H311	H	0.454667	0.579235	0.313710
	O312	O	0.501147	1.560997	0.578991
	H313	H	0.487543	1.568520	0.572267
	H314	H	0.489170	1.568262	0.564837
	O315	O	1.476632	0.554901	0.437684
	H316	H	1.474414	0.550452	0.420456
	H317	H	1.471695	0.559606	0.448571
	O318	O	0.397520	0.496913	0.503025
	H319	H	0.395611	0.487879	0.497292
	H320	H	0.390433	0.499737	0.506198
	O321	O	0.355246	0.532930	0.536346
	H322	H	0.348344	0.541689	0.533178
	H323	H	0.351469	0.535323	0.536976
	O324	O	-0.165456	1.178417	0.900270
	H325	H	-0.150533	1.177096	0.892971
	H326	H	-0.174263	1.178365	0.902890
	O327	O	0.033408	1.020303	1.166365
	H328	H	0.019794	1.025980	1.163446
	H329	H	0.044373	1.032865	1.173733
	O330	O	-0.009639	-0.024489	0.007667
	H331	H	-0.012804	-0.013735	0.008419
	H332	H	-0.001757	-0.027608	0.008340
	O333	O	0.611063	0.525148	0.526108
	H334	H	0.621615	0.529380	0.525910
	H335	H	0.601118	0.525669	0.532632
	O336	O	-0.004289	0.079530	-0.066823
	H337	H	-0.002026	0.078078	-0.075270
	H338	H	-0.004240	0.066006	-0.066292
	O339	O	0.058136	0.021252	0.080161
	H340	H	0.054746	0.014816	0.073029
	H341	H	0.060705	0.022266	0.079058
	O342	O	0.039807	0.843236	0.930605
	H343	H	0.036048	0.850677	0.942581
	H344	H	0.027616	0.828976	0.933480
	O345	O	-0.108635	1.132490	0.905277
	H346	H	-0.106442	1.141130	0.895632
	H347	H	-0.104074	1.149668	0.902464
	O348	O	0.516471	0.599570	0.480121
	H349	H	0.517389	0.591006	0.489234
	H350	H	0.526812	0.596535	0.473854
	O351	O	0.576001	0.365492	0.496101
	H352	H	0.570937	0.362900	0.498033
	H353	H	0.571560	0.360513	0.504156
	O354	O	0.053100	0.982320	-0.041045
	H355	H	0.052091	0.984877	-0.041788
	H356	H	0.054118	0.976676	-0.048188
	O357	O	0.537114	0.380425	0.440811
	H358	H	0.538766	0.385554	0.443402
	H359	H	0.542148	0.376423	0.433914
	O360	O	0.982569	-0.012571	1.142005
	H361	H	0.986825	-0.007774	1.134397
	H362	H	0.990148	-0.003141	1.145620
	O363	O	0.477274	0.604503	0.533944
	H364	H	0.477007	0.601328	0.527557
	H365	H	0.469366	0.612197	0.528576
	O366	O	1.046181	1.096067	-0.177956
	H367	H	1.045542	1.094078	-0.180331
	H368	H	1.048387	1.084347	-0.174702
	O369	O	0.889593	0.008417	-0.062190
	H370	H	0.888583	0.012174	-0.057821
	H371	H	0.893176	0.010374	-0.062065
	O372	O	0.466460	0.482397	0.645976
	H373	H	0.470183	0.487736	0.641689
	H374	H	0.462779	0.474606	0.640970
	O375	O	1.014840	-0.114497	0.999117
	H376	H	1.005909	-0.114715	0.992091
	H377	H	1.014883	-0.124979	1.000036
	O378	O	0.057806	1.019537	-0.143478
	H379	H	0.052517	1.005110	-0.149538
	H380	H	0.058201	1.009958	-0.133480
	O381	O	0.521040	0.480517	0.553416
	H382	H	0.525606	0.500638	0.559471
	H383	H	0.515418	0.475956	0.551741
	O384	O	0.944508	0.917493	0.118869
	H385	H	0.948367	0.917446	0.122038
	H386	H	0.938125	0.911471	0.127438
	O387	O	1.025074	-0.138727	0.864446
	H388	H	1.015955	-0.137745	0.859039
	H389	H	1.016358	-0.141608	0.875356
	O390	O	1.020045	1.006487	0.027023
	H391	H	1.034983	1.002142	0.023382
	H392	H	1.019949	1.011030	0.023632
	O393	O	0.452391	0.408473	0.523895
	H394	H	0.462451	0.406564	0.521896
	H395	H	0.457016	0.406377	0.548736
