data_Molecule from HDF5

_cell_length_a		16.419541
_cell_length_b		16.391492
_cell_length_c		16.501135
_cell_angle_alpha	89.984238
_cell_angle_beta	90.089220
_cell_angle_gamma	89.924316
_symmetry_space_group_name_H-M	'P 1'
_symmetry_Int_Tables_number		1

loop_
	_symmetry_equiv_pos_as_xyz
	x,y,z

loop_
	_atom_site_label
	_atom_site_type_symbol
	_atom_site_fract_x
	_atom_site_fract_y
	_atom_site_fract_z
	H0	H	0.399078	0.832707	0.727719
	H1	H	0.617214	0.146259	0.727178
	H2	H	0.620550	0.834158	0.275705
	H3	H	0.396952	0.145585	0.276340
	H4	H	0.732334	0.380347	0.846448
	H5	H	0.731451	0.598473	0.158377
	H6	H	0.280075	0.600044	0.846913
	H7	H	0.283154	0.381022	0.159164
	H8	H	0.850119	0.713650	0.394022
	H9	H	0.164875	0.712740	0.611487
	H10	H	0.851946	0.262402	0.610580
	H11	H	0.165565	0.266219	0.394463
	H12	H	0.852047	0.376687	0.727226
	H13	H	0.160845	0.603003	0.733270
	H14	H	0.849379	0.598519	0.278314
	H15	H	0.163596	0.380112	0.276749
	H16	H	0.398048	0.714421	0.845180
	H17	H	0.613603	0.712944	0.159669
	H18	H	0.616481	0.264313	0.846385
	H19	H	0.398054	0.264435	0.158123
	H20	H	0.732690	0.832120	0.394815
	H21	H	0.734021	0.146330	0.612894
	H22	H	0.285850	0.830893	0.610242
	H23	H	0.283598	0.145717	0.393758
	H24	H	0.898118	0.332520	0.225342
	H25	H	0.112669	0.647215	0.224832
	H26	H	0.115831	0.331453	0.778524
	H27	H	0.892033	0.643155	0.771811
	H28	H	0.231141	0.882620	0.345895
	H29	H	0.231135	0.094886	0.659852
	H30	H	0.783566	0.095872	0.346917
	H31	H	0.784714	0.880026	0.660334
	H32	H	0.349076	0.213072	0.893515
	H33	H	0.664341	0.212115	0.107867
	H34	H	0.348802	0.769961	0.106918
	H35	H	0.665208	0.766400	0.894401
	H36	H	0.353085	0.878956	0.228669
	H37	H	0.664119	0.098759	0.226358
	H38	H	0.350231	0.099150	0.777198
	H39	H	0.665766	0.883301	0.779622
	H40	H	0.903038	0.209309	0.344802
	H41	H	0.119452	0.215058	0.657558
	H42	H	0.113697	0.767384	0.345022
	H43	H	0.900751	0.764187	0.659614
	H44	H	0.230619	0.331521	0.895537
	H45	H	0.229056	0.647782	0.110465
	H46	H	0.784664	0.331731	0.107896
	H47	H	0.781717	0.646300	0.892060
	H48	H	0.424118	0.101962	0.590813
	H49	H	0.599019	0.875844	0.591396
	H50	H	0.587590	0.099598	0.414545
	H51	H	0.420321	0.877974	0.418696
	H52	H	0.601253	0.405481	0.115163
	H53	H	0.589041	0.580203	0.891690
	H54	H	0.417397	0.580856	0.115613
	H55	H	0.413405	0.404560	0.888701
	H56	H	0.117920	0.574564	0.415643
	H57	H	0.897279	0.574786	0.585011
	H58	H	0.119962	0.397549	0.583984
	H59	H	0.892243	0.398939	0.409434
	H60	H	0.116604	0.409722	0.587920
	H61	H	0.897591	0.572618	0.586752
	H62	H	0.119722	0.574168	0.410793
	H63	H	0.894017	0.397503	0.416631
	H64	H	0.417708	0.576503	0.114283
	H65	H	0.597969	0.579802	0.888173
	H66	H	0.588817	0.407001	0.110741
	H67	H	0.422081	0.407967	0.894140
	H68	H	0.598653	0.100442	0.422198
	H69	H	0.593443	0.876793	0.594280
	H70	H	0.420595	0.099522	0.585731
	H71	H	0.419606	0.875270	0.412075
	H72	H	0.917748	0.600679	0.082619
	H73	H	0.096533	0.376349	0.090074
	H74	H	0.092490	0.601538	0.914630
	H75	H	0.920991	0.377911	0.917854
	H76	H	0.102511	0.894482	0.619600
	H77	H	0.102934	0.076564	0.387518
	H78	H	0.919572	0.074635	0.615844
	H79	H	0.921383	0.904706	0.392073
	H80	H	0.620388	0.076717	0.910997
	H81	H	0.393328	0.074638	0.094276
	H82	H	0.624193	0.899981	0.095852
	H83	H	0.395636	0.905171	0.913258
	H84	H	0.620313	0.897448	0.084593
	H85	H	0.394459	0.080174	0.086650
	H86	H	0.619346	0.079310	0.916742
	H87	H	0.394452	0.902725	0.911772
	H88	H	0.923864	0.073342	0.613242
	H89	H	0.093839	0.071919	0.393031
	H90	H	0.100550	0.908228	0.614126
	H91	H	0.922234	0.899500	0.392346
	H92	H	0.088148	0.599492	0.915432
	H93	H	0.095230	0.375353	0.092328
	H94	H	0.913687	0.605372	0.094250
	H95	H	0.918297	0.377071	0.915286
	H96	H	0.417737	0.103630	0.590473
	H97	H	0.593720	0.877874	0.588251
	H98	H	0.599273	0.104962	0.409499
	H99	H	0.426147	0.877748	0.414524
	H100	H	0.592500	0.395213	0.115918
	H101	H	0.594026	0.571948	0.892103
	H102	H	0.421370	0.579499	0.113110
	H103	H	0.421343	0.397501	0.890478
	H104	H	0.120157	0.579106	0.413376
	H105	H	0.896314	0.575219	0.588048
	H106	H	0.122469	0.401414	0.596184
	H107	H	0.895625	0.403961	0.413516
	H108	H	0.926334	0.602365	0.092651
	H109	H	0.093615	0.377155	0.090428
	H110	H	0.091312	0.600074	0.919073
	H111	H	0.921971	0.377633	0.914070
	H112	H	0.089108	0.898031	0.612952
	H113	H	0.093224	0.082535	0.389384
	H114	H	0.923270	0.078722	0.614571
	H115	H	0.918019	0.901429	0.390493
	H116	H	0.616887	0.073773	0.915750
	H117	H	0.397563	0.070898	0.086436
	H118	H	0.617746	0.908692	0.089462
	H119	H	0.395119	0.902382	0.914726
	C120	C	0.387323	-0.002389	0.623193
	C121	C	0.629529	0.980978	0.624652
	C122	C	0.629818	-0.001907	0.381471
	C123	C	0.386931	0.980388	0.380530
	C124	C	0.628647	0.368062	0.010789
	C125	C	0.628214	0.611782	0.993495
	C126	C	0.384613	0.612647	0.011102
	C127	C	0.385129	0.368823	0.994228
	C128	C	0.015460	0.610662	0.379937
	C129	C	0.999277	0.609853	0.623400
	C130	C	0.016581	0.367603	0.623040
	C131	C	0.998320	0.367139	0.379694
	C132	C	0.885751	0.498514	0.122863
	C133	C	0.128200	0.480564	0.124415
	C134	C	0.126498	0.497029	0.882017
	C135	C	0.884858	0.480557	0.879820
	C136	C	0.130153	0.867115	0.511579
	C137	C	0.130961	0.110909	0.493463
	C138	C	0.887809	0.109478	0.511477
	C139	C	0.886767	0.867415	0.494903
	C140	C	0.515715	0.111679	0.879873
	C141	C	0.498590	0.110102	0.122846
	C142	C	0.516633	0.868734	0.123493
	C143	C	0.499309	0.869262	0.880203
	C144	C	0.382507	0.879847	0.686369
	C145	C	0.634221	0.099388	0.686501
	C146	C	0.636422	0.880922	0.317745
	C147	C	0.381010	0.098263	0.317816
	C148	C	0.691057	0.363395	0.893419
	C149	C	0.690696	0.616079	0.111346
	C150	C	0.321595	0.616966	0.893478
	C151	C	0.323307	0.363626	0.111765
	C152	C	0.897395	0.673068	0.376355
	C153	C	0.117053	0.672731	0.629141
	C154	C	0.899203	0.303549	0.628184
	C155	C	0.117386	0.306229	0.376431
	C156	C	0.899131	0.360652	0.686415
	C157	C	0.115116	0.617509	0.689574
	C158	C	0.897012	0.615372	0.318711
	C159	C	0.116321	0.362863	0.317458
	C160	C	0.380387	0.674205	0.892883
	C161	C	0.631860	0.672917	0.112115
	C162	C	0.633429	0.305400	0.893482
	C163	C	0.380918	0.305337	0.111039
	C164	C	0.692677	0.880056	0.377012
	C165	C	0.692503	0.098820	0.629325
	C166	C	0.325897	0.878667	0.627760
	C167	C	0.324201	0.098525	0.376329
	C168	C	0.881273	0.379738	0.184364
	C169	C	0.131092	0.599789	0.185340
	C170	C	0.132287	0.378759	0.819675
	C171	C	0.877048	0.596614	0.814353
	C172	C	0.190628	0.864463	0.392866
	C173	C	0.191586	0.113463	0.612201
	C174	C	0.824967	0.113491	0.393824
	C175	C	0.824911	0.862785	0.612951
	C176	C	0.397147	0.173451	0.875806
	C177	C	0.617023	0.171895	0.126260
	C178	C	0.397072	0.809004	0.125899
	C179	C	0.617761	0.807235	0.877168
	C180	C	0.399183	0.863503	0.186425
	C181	C	0.616794	0.115581	0.185361
	C182	C	0.397532	0.116230	0.817791
	C183	C	0.618200	0.865443	0.819779
	C184	C	0.884587	0.169704	0.392536
	C185	C	0.135843	0.173603	0.610835
	C186	C	0.132168	0.807207	0.392553
	C187	C	0.882989	0.805077	0.612629
	C188	C	0.189598	0.378872	0.878054
	C189	C	0.189035	0.599751	0.128059
	C190	C	0.824626	0.379471	0.125916
	C191	C	0.821778	0.598390	0.874432
	C192	C	0.413376	0.080227	0.596589
	C193	C	0.602950	0.898471	0.598731
	C194	C	0.602951	0.080097	0.407945
	C195	C	0.414157	0.898446	0.407390
	C196	C	0.601920	0.394853	0.092643
	C197	C	0.601397	0.585190	0.912009
	C198	C	0.411043	0.586501	0.092887
	C199	C	0.411434	0.395810	0.912387
	C200	C	0.097770	0.583823	0.405954
	C201	C	0.918242	0.581941	0.594945
	C202	C	0.098334	0.395164	0.596750
	C203	C	0.915647	0.392801	0.405697
	C204	C	0.911746	0.581136	0.097284
	C205	C	0.102417	0.398007	0.098557
	C206	C	0.098903	0.579019	0.908872
	C207	C	0.912701	0.398649	0.907705
	C208	C	0.104704	0.892752	0.593871
	C209	C	0.104423	0.084553	0.411377
	C210	C	0.914663	0.083206	0.593242
	C211	C	0.912967	0.894191	0.413085
	C212	C	0.597676	0.084590	0.906771
	C213	C	0.416597	0.083006	0.096661
	C214	C	0.599319	0.894622	0.097340
	C215	C	0.416646	0.895665	0.905854
	Zn216	Zn	0.507472	-0.009596	0.751669
	Zn217	Zn	0.508372	-0.010573	0.252309
	Zn218	Zn	0.756890	0.490144	0.001959
	Zn219	Zn	0.255944	0.490302	0.002890
	Zn220	Zn	0.007985	0.738639	0.502213
	Zn221	Zn	0.008581	0.238793	0.501839
	Zn222	Zn	0.006823	0.488139	0.752210
	Zn223	Zn	0.005866	0.489406	0.251408
	Zn224	Zn	0.506929	0.741024	0.001792
	Zn225	Zn	0.506591	0.239226	0.001819
	Zn226	Zn	0.757898	-0.011075	0.503734
	Zn227	Zn	0.258923	-0.011433	0.502614
	N228	N	0.419823	0.954835	0.683526
	N229	N	0.595764	0.025009	0.683659
	N230	N	0.598114	0.955477	0.320160
	N231	N	0.419501	0.023837	0.320416
	N232	N	0.688174	0.401763	0.967458
	N233	N	0.688970	0.578953	0.036551
	N234	N	0.323858	0.579469	0.968041
	N235	N	0.325890	0.402548	0.038060
	N236	N	0.972046	0.670161	0.413785
	N237	N	0.043999	0.668157	0.588566
	N238	N	0.973227	0.307480	0.589579
	N239	N	0.042977	0.308856	0.414345
	N240	N	0.973108	0.399616	0.683483
	N241	N	0.040756	0.579279	0.686177
	N242	N	0.971598	0.577162	0.320742
	N243	N	0.041114	0.400040	0.319089
	N244	N	0.418664	0.671730	0.966879
	N245	N	0.593682	0.670417	0.037992
	N246	N	0.595437	0.308206	0.967541
	N247	N	0.418690	0.308577	0.036747
	N248	N	0.688581	0.953861	0.416244
	N249	N	0.689709	0.024062	0.591873
	N250	N	0.328887	0.952883	0.588808
	N251	N	0.327634	0.024188	0.414791
	N252	N	0.918456	0.454684	0.182637
	N253	N	0.094284	0.524588	0.183502
	N254	N	0.093899	0.453313	0.821923
	N255	N	0.915478	0.522069	0.817769
	N256	N	0.189563	0.900917	0.467768
	N257	N	0.188663	0.075368	0.538070
	N258	N	0.826559	0.077157	0.468867
	N259	N	0.827029	0.900735	0.538589
	N260	N	0.471707	0.170750	0.913806
	N261	N	0.542613	0.168812	0.088233
	N262	N	0.471283	0.811998	0.087514
	N263	N	0.542612	0.809287	0.913889
	N264	N	0.474750	0.899628	0.185207
	N265	N	0.542176	0.077830	0.183358
	N266	N	0.472484	0.078856	0.819958
	N267	N	0.543580	0.903360	0.821746
	N268	N	0.922602	0.167593	0.466847
	N269	N	0.098895	0.172097	0.535982
	N270	N	0.095585	0.808585	0.467405
	N271	N	0.920475	0.807623	0.538271
	N272	N	0.186308	0.453565	0.916001
	N273	N	0.187660	0.524655	0.091169
	N274	N	0.827306	0.454336	0.088247
	N275	N	0.826413	0.525018	0.914495
	O276	O	0.627094	0.379496	0.294881
	H277	H	0.629571	0.379802	0.287028
	H278	H	0.610627	0.386953	0.309295
	O279	O	1.142755	-0.144863	1.091718
	H280	H	1.158159	-0.137449	1.087815
	H281	H	1.154658	-0.135398	1.085983
	O282	O	0.412667	0.504385	0.590318
	H283	H	0.412759	0.502693	0.584708
	H284	H	0.407847	0.498163	0.588158
	O285	O	0.365570	0.370003	0.403141
	H286	H	0.374727	0.377611	0.399577
	H287	H	0.382949	0.393638	0.403896
	O288	O	1.225392	1.129062	-0.015648
	H289	H	1.218713	1.106632	0.028101
	H290	H	1.238311	1.156225	-0.005558
	O291	O	0.288818	0.708968	0.480360
	H292	H	0.255112	0.738335	0.471866
	H293	H	0.292582	0.696807	0.443338
	O294	O	0.029691	0.199038	1.213584
	H295	H	0.021065	0.231863	1.220375
	H296	H	0.010514	0.206139	1.194988
	O297	O	0.288725	0.472788	1.719812
	H298	H	0.253918	0.461656	1.751898
	H299	H	0.300054	0.426577	1.701771
	O300	O	0.320938	0.677261	0.320636
	H301	H	0.366522	0.685780	0.316221
	H302	H	0.309890	0.624499	0.307875
	O303	O	-0.274050	-0.293109	0.521347
	H304	H	-0.262086	-0.283505	0.547321
	H305	H	-0.266682	-0.284847	0.551209
	O306	O	0.493716	0.633735	0.547217
	H307	H	0.482801	0.632547	0.557382
	H308	H	0.484754	0.632587	0.565511
	O309	O	0.717945	0.506202	0.715433
	H310	H	0.756584	0.506762	0.739684
	H311	H	0.725650	0.480889	0.675438
	O312	O	-0.177686	1.002522	0.788185
	H313	H	-0.150739	0.977563	0.793462
	H314	H	-0.195764	0.998510	0.762106
	O315	O	0.662717	0.358198	0.562534
	H316	H	0.645453	0.377955	0.535124
	H317	H	0.656891	0.334297	0.557506
	O318	O	1.191580	0.167104	0.153383
	H319	H	1.143361	0.177382	0.160985
	H320	H	1.205294	0.149065	0.148238
	O321	O	0.189742	0.099775	0.013243
	H322	H	0.178825	0.099516	-0.000906
	H323	H	0.195190	0.111849	0.023816
	O324	O	1.095038	1.000843	-0.106610
	H325	H	1.104049	1.020204	-0.104881
	H326	H	1.095553	1.000544	-0.089543
	O327	O	0.511893	0.500823	0.521178
	H328	H	0.507672	0.517140	0.522203
	H329	H	0.523531	0.498993	0.526026
	O330	O	-0.165828	1.172962	-0.168414
	H331	H	-0.179568	1.120306	-0.181977
	H332	H	-0.142824	1.180267	-0.148929
	O333	O	0.491207	0.357097	0.294155
	H334	H	0.498659	0.353970	0.281096
	H335	H	0.504745	0.365649	0.309930
	O336	O	-0.038523	-0.229836	-0.089349
	H337	H	-0.039058	-0.223907	-0.057461
	H338	H	-0.056444	-0.227232	-0.071662
	O339	O	0.063632	1.075766	0.808419
	H340	H	0.067297	1.097066	0.793987
	H341	H	0.051333	1.061158	0.827900
	O342	O	0.328735	1.317048	0.680701
	H343	H	0.317797	1.300613	0.628801
	H344	H	0.380955	1.301086	0.692620
	O345	O	1.068880	0.978072	0.169144
	H346	H	1.060178	0.967776	0.166602
	H347	H	1.082058	0.990779	0.159163
	O348	O	0.323031	0.541740	0.521436
	H349	H	0.313630	0.571574	0.529582
	H350	H	0.328521	0.548658	0.521776
	O351	O	0.548143	1.526641	1.368042
	H352	H	0.547369	1.510583	1.364526
	H353	H	0.545052	1.542783	1.379664
	O354	O	0.186498	0.809784	-0.177158
	H355	H	0.133848	0.802142	-0.190174
	H356	H	0.194489	0.861992	-0.186789
	O357	O	-0.203826	-0.062379	0.961979
	H358	H	-0.209760	-0.074698	0.961515
	H359	H	-0.204212	-0.086257	0.962408
	O360	O	0.728222	0.271207	0.478262
	H361	H	0.717373	0.248709	0.490991
	H362	H	0.737264	0.252353	0.463208
	O363	O	-0.007091	0.082167	0.924774
	H364	H	0.000995	0.082709	0.924896
	H365	H	-0.002699	0.077557	0.908455
	O366	O	0.483246	0.703644	0.288103
	H367	H	0.483159	0.729311	0.260715
	H368	H	0.506175	0.716201	0.327309
	O369	O	0.688360	0.668341	-0.322812
	H370	H	0.647007	0.669320	-0.308450
	H371	H	0.685119	0.628617	-0.309894
	O372	O	0.958671	0.157899	1.092367
	H373	H	0.953976	0.151148	1.078242
	H374	H	0.959913	0.167401	1.073843
	O375	O	0.035520	0.861822	1.204173
	H376	H	0.048225	0.863522	1.201726
	H377	H	0.043420	0.860140	1.198656
	O378	O	1.009889	0.774291	0.819359
	H379	H	1.003645	0.738346	0.800087
	H380	H	0.993289	0.764174	0.864505
	O381	O	0.635067	0.510617	0.284723
	H382	H	0.634085	0.492650	0.286255
	H383	H	0.641992	0.519474	0.283268
	O384	O	-0.205569	0.772187	1.023017
	H385	H	-0.207486	0.767851	1.055662
	H386	H	-0.223505	0.753614	1.048223
	O387	O	-0.179307	-0.020420	1.204311
	H388	H	-0.177666	-0.006434	1.211822
	H389	H	-0.183604	0.000073	1.206430
	O390	O	0.145078	-0.020829	0.113492
	H391	H	0.131735	-0.028934	0.122413
	H392	H	0.153381	-0.037816	0.121439
	O393	O	0.846460	1.046327	1.056323
	H394	H	0.843229	1.034915	1.043696
	H395	H	0.852832	1.044995	1.065069
	O396	O	0.289776	0.514413	0.286890
	H397	H	0.288673	0.500493	0.270009
	H398	H	0.289406	0.498187	0.275271
	O399	O	0.463099	0.346295	0.469192
	H400	H	0.448716	0.369807	0.468414
	H401	H	0.443660	0.334610	0.486882
	O402	O	1.223183	0.771783	0.978788
	H403	H	1.232766	0.763902	0.945803
	H404	H	1.239790	0.754211	0.954239
	O405	O	0.690973	0.308484	-0.681064
	H406	H	0.672301	0.327201	-0.688836
	H407	H	0.682730	0.303903	-0.648049
	O408	O	0.969750	-0.042264	-0.209527
	H409	H	0.984119	-0.060113	-0.203267
	H410	H	0.984388	-0.055335	-0.200036
	O411	O	1.216676	1.000152	0.007165
	H412	H	1.209287	1.013265	0.027726
	H413	H	1.209789	1.019063	-0.011966
	O414	O	0.368548	0.566940	0.639467
	H415	H	0.345321	0.562590	0.642349
	H416	H	0.371342	0.563241	0.636231
	O417	O	0.561642	1.431318	-0.275256
	H418	H	0.586333	1.447932	-0.282359
	H419	H	0.567910	1.444418	-0.287138
	O420	O	-0.079372	0.160525	0.099709
	H421	H	-0.095204	0.167364	0.077928
	H422	H	-0.069316	0.179927	0.083754
	O423	O	0.486614	0.276948	0.715703
	H424	H	0.507473	0.296340	0.729711
	H425	H	0.493685	0.267598	0.740125
	O426	O	-0.006927	1.152484	0.825401
	H427	H	-0.025649	1.142856	0.825722
	H428	H	-0.015031	1.160305	0.807915
	O429	O	0.724546	0.484022	0.509505
	H430	H	0.715223	0.480399	0.502346
	H431	H	0.712991	0.503138	0.492094
	O432	O	0.572231	0.486110	0.363776
	H433	H	0.591039	0.514443	0.368488
	H434	H	0.573181	0.479841	0.352561
	O435	O	0.530344	0.703402	0.716418
	H436	H	0.510845	0.693173	0.735260
	H437	H	0.513644	0.708699	0.731259
	O438	O	-0.163685	-0.185135	0.175593
	H439	H	-0.120987	-0.185066	0.190465
	H440	H	-0.166842	-0.143958	0.190883
	O441	O	1.036240	-0.213649	0.105395
	H442	H	1.051757	-0.209783	0.099768
	H443	H	1.061890	-0.220116	0.110006
	O444	O	0.800105	0.196649	0.989774
	H445	H	0.786520	0.207556	0.959319
	H446	H	0.778489	0.180539	0.999384
	O447	O	0.497257	0.373885	0.569816
	H448	H	0.489478	0.363591	0.570763
	H449	H	0.507491	0.382527	0.571473
	O450	O	0.568547	0.711825	0.438696
	H451	H	0.572550	0.715223	0.469900
	H452	H	0.581599	0.709267	0.456352
	O453	O	0.295811	0.275579	0.524268
	H454	H	0.267029	0.251721	0.518452
	H455	H	0.289472	0.305603	0.500873
