data_Molecule from HDF5

_cell_length_a		16.520859
_cell_length_b		16.612246
_cell_length_c		16.641171
_cell_angle_alpha	90.120200
_cell_angle_beta	89.963025
_cell_angle_gamma	89.882725
_symmetry_space_group_name_H-M	'P 1'
_symmetry_Int_Tables_number		1

loop_
	_symmetry_equiv_pos_as_xyz
	x,y,z

loop_
	_atom_site_label
	_atom_site_type_symbol
	_atom_site_fract_x
	_atom_site_fract_y
	_atom_site_fract_z
	H0	H	0.392359	0.826928	0.707879
	H1	H	0.599667	0.139974	0.709729
	H2	H	0.600112	0.827881	0.266268
	H3	H	0.395769	0.142053	0.274041
	H4	H	0.711212	0.385383	0.832365
	H5	H	0.714519	0.590267	0.147021
	H6	H	0.275176	0.587289	0.833094
	H7	H	0.275344	0.383063	0.146904
	H8	H	0.838858	0.708442	0.382966
	H9	H	0.153088	0.702117	0.591751
	H10	H	0.836193	0.267152	0.591292
	H11	H	0.151179	0.265564	0.385688
	H12	H	0.836996	0.381912	0.708495
	H13	H	0.152567	0.586390	0.707673
	H14	H	0.837769	0.592946	0.266320
	H15	H	0.150845	0.380351	0.268593
	H16	H	0.389708	0.705068	0.834017
	H17	H	0.599218	0.707869	0.145946
	H18	H	0.595929	0.266475	0.833429
	H19	H	0.392064	0.265715	0.146698
	H20	H	0.714994	0.826555	0.384273
	H21	H	0.714124	0.140959	0.591859
	H22	H	0.276917	0.826177	0.591065
	H23	H	0.277346	0.141474	0.388963
	H24	H	0.887239	0.329586	0.211302
	H25	H	0.098651	0.640124	0.211564
	H26	H	0.099131	0.328887	0.769079
	H27	H	0.888503	0.640723	0.768383
	H28	H	0.215929	0.879393	0.333015
	H29	H	0.212802	0.086834	0.645692
	H30	H	0.773368	0.088758	0.331513
	H31	H	0.772842	0.879303	0.643628
	H32	H	0.336644	0.202383	0.888349
	H33	H	0.651416	0.207105	0.096500
	H34	H	0.337087	0.765316	0.094304
	H35	H	0.649306	0.759875	0.881905
	H36	H	0.337515	0.881840	0.209618
	H37	H	0.652114	0.091823	0.211949
	H38	H	0.338007	0.088168	0.770339
	H39	H	0.650336	0.876736	0.767464
	H40	H	0.887683	0.206707	0.332791
	H41	H	0.097665	0.204800	0.644218
	H42	H	0.104034	0.759250	0.335307
	H43	H	0.889250	0.762515	0.643686
	H44	H	0.213664	0.327740	0.886893
	H45	H	0.213573	0.641133	0.094630
	H46	H	0.773180	0.328936	0.094087
	H47	H	0.774034	0.641470	0.886759
	H48	H	0.401624	0.099009	0.585187
	H49	H	0.585679	0.873489	0.571301
	H50	H	0.582565	0.096228	0.394402
	H51	H	0.405451	0.869208	0.392681
	H52	H	0.584481	0.395249	0.103035
	H53	H	0.584102	0.581335	0.876624
	H54	H	0.401926	0.574732	0.102684
	H55	H	0.405689	0.396354	0.878958
	H56	H	0.102989	0.564998	0.403436
	H57	H	0.884509	0.571981	0.574217
	H58	H	0.109027	0.393922	0.583765
	H59	H	0.878963	0.392001	0.398948
	H60	H	0.108248	0.389676	0.577031
	H61	H	0.882064	0.571022	0.581786
	H62	H	0.107523	0.570427	0.393757
	H63	H	0.883297	0.397736	0.403201
	H64	H	0.406240	0.573073	0.100993
	H65	H	0.588969	0.567628	0.878752
	H66	H	0.583597	0.395064	0.102783
	H67	H	0.406495	0.389525	0.876935
	H68	H	0.580751	0.092669	0.402669
	H69	H	0.587203	0.869557	0.582156
	H70	H	0.409280	0.094666	0.580694
	H71	H	0.409644	0.873010	0.399674
	H72	H	0.907533	0.595130	0.077266
	H73	H	0.089494	0.371666	0.077093
	H74	H	0.076226	0.597511	0.891968
	H75	H	0.904072	0.373430	0.901296
	H76	H	0.077908	0.894417	0.597361
	H77	H	0.086075	0.074237	0.375567
	H78	H	0.903053	0.079699	0.601634
	H79	H	0.910316	0.893779	0.377720
	H80	H	0.607881	0.073540	0.900090
	H81	H	0.378308	0.083438	0.085787
	H82	H	0.604040	0.894880	0.067282
	H83	H	0.381003	0.899553	0.892336
	H84	H	0.603447	0.905455	0.079052
	H85	H	0.384986	0.076595	0.070908
	H86	H	0.608386	0.074902	0.898345
	H87	H	0.379617	0.888811	0.900527
	H88	H	0.901929	0.070124	0.599281
	H89	H	0.084395	0.075007	0.375755
	H90	H	0.086665	0.887859	0.603744
	H91	H	0.906021	0.895618	0.376472
	H92	H	0.082591	0.594073	0.907447
	H93	H	0.080149	0.371760	0.084425
	H94	H	0.903530	0.597153	0.076644
	H95	H	0.902135	0.371793	0.897211
	H96	H	0.400858	0.096080	0.576142
	H97	H	0.577174	0.874369	0.579706
	H98	H	0.588511	0.097142	0.400996
	H99	H	0.400881	0.870148	0.400568
	H100	H	0.584052	0.393773	0.102491
	H101	H	0.575590	0.572031	0.883094
	H102	H	0.405488	0.577420	0.101953
	H103	H	0.399857	0.393015	0.876473
	H104	H	0.105366	0.576980	0.404180
	H105	H	0.880874	0.578303	0.578400
	H106	H	0.105498	0.397572	0.576940
	H107	H	0.880507	0.399142	0.395120
	H108	H	0.905790	0.597048	0.080488
	H109	H	0.079126	0.376445	0.073084
	H110	H	0.092832	0.601250	0.894923
	H111	H	0.906864	0.373301	0.897175
	H112	H	0.089002	0.900007	0.600904
	H113	H	0.085667	0.076431	0.375054
	H114	H	0.910662	0.074642	0.597986
	H115	H	0.908962	0.898213	0.379494
	H116	H	0.608567	0.075820	0.900750
	H117	H	0.384665	0.066630	0.085554
	H118	H	0.609692	0.890894	0.081444
	H119	H	0.385613	0.900130	0.905206
	C120	C	0.373506	-0.007753	0.610692
	C121	C	0.615894	0.975693	0.609685
	C122	C	0.616325	-0.007737	0.366810
	C123	C	0.374527	0.975264	0.368106
	C124	C	0.615215	0.363943	-0.001066
	C125	C	0.615046	0.606340	0.982435
	C126	C	0.372981	0.606155	-0.001505
	C127	C	0.372796	0.362945	0.981485
	C128	C	0.002298	0.604880	0.367771
	C129	C	0.986764	0.604990	0.609794
	C130	C	0.003129	0.363520	0.610129
	C131	C	0.985095	0.364128	0.367721
	C132	C	0.872637	0.493399	0.110798
	C133	C	0.115046	0.476425	0.110622
	C134	C	0.115446	0.493744	0.867738
	C135	C	0.872365	0.476393	0.867481
	C136	C	0.116968	0.861873	0.497932
	C137	C	0.115990	0.106102	0.479624
	C138	C	0.872420	0.106388	0.496428
	C139	C	0.874840	0.863402	0.480187
	C140	C	0.503759	0.105594	0.868870
	C141	C	0.486769	0.106970	0.112152
	C142	C	0.502112	0.865344	0.108841
	C143	C	0.485345	0.862649	0.867220
	C144	C	0.373598	0.873885	0.668317
	C145	C	0.617837	0.093168	0.669325
	C146	C	0.618576	0.874423	0.306627
	C147	C	0.375264	0.094531	0.312072
	C148	C	0.672464	0.364993	0.879784
	C149	C	0.674561	0.608489	0.100099
	C150	C	0.314505	0.606532	0.880302
	C151	C	0.314750	0.363382	0.099783
	C152	C	0.885410	0.667379	0.364819
	C153	C	0.105779	0.662572	0.610305
	C154	C	0.883910	0.306059	0.610476
	C155	C	0.103780	0.304977	0.366730
	C156	C	0.884289	0.363071	0.668802
	C157	C	0.105372	0.605173	0.668169
	C158	C	0.884863	0.609761	0.307001
	C159	C	0.103562	0.362129	0.308651
	C160	C	0.371589	0.664988	0.880709
	C161	C	0.617144	0.666984	0.099419
	C162	C	0.615409	0.306150	0.880155
	C163	C	0.372611	0.305122	0.099751
	C164	C	0.675719	0.873873	0.365079
	C165	C	0.674752	0.093591	0.610626
	C166	C	0.316240	0.873669	0.610101
	C167	C	0.316511	0.094082	0.369024
	C168	C	0.869624	0.376249	0.170771
	C169	C	0.117253	0.593546	0.171330
	C170	C	0.117705	0.375755	0.808774
	C171	C	0.870329	0.593938	0.808422
	C172	C	0.176829	0.859877	0.380378
	C173	C	0.173636	0.106000	0.598155
	C174	C	0.812700	0.107651	0.378920
	C175	C	0.813568	0.861190	0.597131
	C176	C	0.384578	0.163583	0.868803
	C177	C	0.604507	0.166846	0.114340
	C178	C	0.383961	0.805601	0.112163
	C179	C	0.602475	0.800850	0.864242
	C180	C	0.384463	0.863219	0.169661
	C181	C	0.604786	0.109442	0.171992
	C182	C	0.385116	0.106746	0.810087
	C183	C	0.603178	0.858814	0.807127
	C184	C	0.869788	0.166231	0.379207
	C185	C	0.116612	0.164786	0.597551
	C186	C	0.120913	0.800418	0.381329
	C187	C	0.871346	0.803184	0.597282
	C188	C	0.174662	0.375385	0.867259
	C189	C	0.174290	0.593988	0.113024
	C190	C	0.812539	0.375928	0.112713
	C191	C	0.813301	0.594309	0.867142
	C192	C	0.397137	0.075081	0.587426
	C193	C	0.590620	0.893639	0.584881
	C194	C	0.591227	0.073922	0.392176
	C195	C	0.398394	0.892437	0.390970
	C196	C	0.591077	0.387693	0.081319
	C197	C	0.590194	0.580915	0.900730
	C198	C	0.397539	0.582039	0.080560
	C199	C	0.396871	0.386214	0.898805
	C200	C	0.083875	0.578239	0.393211
	C201	C	0.903854	0.580653	0.585184
	C202	C	0.085950	0.387139	0.586204
	C203	C	0.902299	0.389229	0.392151
	C204	C	0.898362	0.575235	0.085342
	C205	C	0.089969	0.394656	0.085461
	C206	C	0.090962	0.575957	0.891480
	C207	C	0.897068	0.394218	0.891640
	C208	C	0.091658	0.886852	0.579478
	C209	C	0.092164	0.082151	0.396980
	C210	C	0.897798	0.081933	0.578336
	C211	C	0.901042	0.888615	0.398965
	C212	C	0.586756	0.081685	0.892931
	C213	C	0.404209	0.082353	0.087714
	C214	C	0.584250	0.889919	0.083030
	C215	C	0.403441	0.888781	0.892283
	Zn216	Zn	0.494846	-0.015661	0.739711
	Zn217	Zn	0.495634	-0.015562	0.238333
	Zn218	Zn	0.744266	0.485208	-0.009679
	Zn219	Zn	0.243808	0.485148	-0.010125
	Zn220	Zn	-0.004507	0.733683	0.489144
	Zn221	Zn	-0.006206	0.234873	0.488099
	Zn222	Zn	-0.005608	0.484826	0.738935
	Zn223	Zn	-0.006818	0.484495	0.238742
	Zn224	Zn	0.493782	0.735730	-0.009819
	Zn225	Zn	0.494948	0.234163	-0.009665
	Zn226	Zn	0.744913	-0.016458	0.487664
	Zn227	Zn	0.244777	-0.015965	0.489151
	N228	N	0.408312	0.948991	0.669081
	N229	N	0.582022	0.018671	0.669113
	N230	N	0.582763	0.949036	0.307319
	N231	N	0.410372	0.019526	0.311076
	N232	N	0.672975	0.399805	0.954727
	N233	N	0.673489	0.571592	0.026240
	N234	N	0.315036	0.570706	0.954657
	N235	N	0.314571	0.398332	0.025030
	N236	N	0.959461	0.664581	0.401966
	N237	N	0.030631	0.662852	0.575013
	N238	N	0.958846	0.305735	0.574717
	N239	N	0.028860	0.305987	0.402619
	N240	N	0.959466	0.397974	0.668899
	N241	N	0.029989	0.570413	0.668247
	N242	N	0.958594	0.571636	0.308616
	N243	N	0.028640	0.398131	0.309078
	N244	N	0.407169	0.664957	0.955215
	N245	N	0.580964	0.666048	0.025142
	N246	N	0.580878	0.305271	0.955225
	N247	N	0.407837	0.304679	0.025011
	N248	N	0.674456	0.948034	0.401701
	N249	N	0.673789	0.019305	0.574416
	N250	N	0.315810	0.948448	0.575209
	N251	N	0.315506	0.018632	0.402666
	N252	N	0.906099	0.450441	0.169739
	N253	N	0.081281	0.519144	0.170239
	N254	N	0.081793	0.450382	0.808613
	N255	N	0.906234	0.519556	0.808345
	N256	N	0.174671	0.897406	0.453871
	N257	N	0.173480	0.070172	0.523688
	N258	N	0.814140	0.071205	0.452927
	N259	N	0.815472	0.897761	0.523312
	N260	N	0.459450	0.163127	0.904358
	N261	N	0.530023	0.165436	0.077580
	N262	N	0.458207	0.806789	0.074973
	N263	N	0.528040	0.802716	0.900736
	N264	N	0.459100	0.899474	0.167881
	N265	N	0.530433	0.072938	0.170820
	N266	N	0.460508	0.071321	0.809657
	N267	N	0.529145	0.896502	0.808675
	N268	N	0.906139	0.165644	0.453503
	N269	N	0.081600	0.165194	0.522658
	N270	N	0.084623	0.801239	0.455584
	N271	N	0.908738	0.804276	0.523497
	N272	N	0.173785	0.449919	0.902908
	N273	N	0.173234	0.519978	0.076214
	N274	N	0.814399	0.449918	0.076156
	N275	N	0.814204	0.520108	0.903178
	O276	O	0.308945	0.428465	-0.604459
	H277	H	0.296316	0.444942	-0.616710
	H278	H	0.313012	0.445622	-0.591366
	O279	O	0.429706	0.539044	0.691162
	H280	H	0.404994	0.529152	0.698020
	H281	H	0.431025	0.529109	0.687488
	O282	O	-0.001109	0.954096	1.053585
	H283	H	-0.005464	0.968491	1.061792
	H284	H	-0.008637	0.952416	1.060294
	O285	O	1.130915	-0.216409	1.123457
	H286	H	1.123542	-0.202483	1.102832
	H287	H	1.106402	-0.201584	1.124726
	O288	O	-0.229338	1.012835	0.768548
	H289	H	-0.206475	1.028014	0.768190
	H290	H	-0.259117	1.024933	0.737022
	O291	O	0.707897	0.524172	0.700473
	H292	H	0.722782	0.526635	0.718779
	H293	H	0.705843	0.519802	0.693816
	O294	O	0.957501	0.069063	1.035791
	H295	H	0.958404	0.082701	1.045675
	H296	H	0.945913	0.069404	1.041996
	O297	O	0.526405	0.696873	0.700154
	H298	H	0.528181	0.680811	0.702323
	H299	H	0.527513	0.711474	0.728154
	O300	O	0.184243	0.177291	0.795609
	H301	H	0.168652	0.159041	0.819825
	H302	H	0.163046	0.155257	0.806637
	O303	O	0.291046	0.276739	0.699686
	H304	H	0.300263	0.277869	0.680369
	H305	H	0.258736	0.244790	0.727679
	O306	O	0.811764	0.774400	0.118877
	H307	H	0.797076	0.761949	0.130087
	H308	H	0.803926	0.784725	0.094239
	O309	O	0.552334	0.317770	0.290266
	H310	H	0.533785	0.317544	0.300810
	H311	H	0.535209	0.327714	0.282402
	O312	O	0.921301	0.817946	0.853508
	H313	H	0.927939	0.837668	0.851007
	H314	H	0.924292	0.803991	0.848559
	O315	O	1.026289	0.205328	0.208605
	H316	H	1.054588	0.219983	0.220706
	H317	H	1.041001	0.216782	0.213712
	O318	O	0.600045	0.503996	0.475480
	H319	H	0.604124	0.515602	0.475756
	H320	H	0.585560	0.507687	0.482774
	O321	O	-0.048557	0.821759	1.020498
	H322	H	-0.046845	0.825041	1.016798
	H323	H	-0.052737	0.843652	1.022736
	O324	O	1.539191	1.424786	0.691208
	H325	H	1.536506	1.435056	0.679176
	H326	H	1.546828	1.428818	0.696152
	O327	O	-0.074341	0.177147	1.068844
	H328	H	-0.074961	0.177143	1.067071
	H329	H	-0.065613	0.182883	1.059882
	O330	O	0.573744	0.453927	0.416310
	H331	H	0.575549	0.458059	0.405100
	H332	H	0.581256	0.448769	0.408065
	O333	O	0.536946	0.512174	0.329123
	H334	H	0.533469	0.513974	0.343151
	H335	H	0.537824	0.514683	0.326190
	O336	O	1.205472	0.196043	0.198606
	H337	H	1.210451	0.146356	0.204005
	H338	H	1.238017	0.222750	0.231964
	O339	O	1.970846	-0.207227	0.209570
	H340	H	1.960885	-0.203974	0.201149
	H341	H	1.961794	-0.224400	0.217204
	O342	O	0.709108	0.270940	0.463216
	H343	H	0.741622	0.243974	0.458529
	H344	H	0.691631	0.284730	0.439180
	O345	O	0.523614	1.700774	1.438536
	H346	H	0.527895	1.707643	1.439318
	H347	H	0.520706	1.691272	1.457023
	O348	O	0.536196	0.413936	0.590777
	H349	H	0.535396	0.426006	0.580424
	H350	H	0.531952	0.412744	0.591436
	O351	O	-0.007551	0.984863	0.929497
	H352	H	-0.023937	0.981580	0.922043
	H353	H	-0.003611	0.993724	0.934993
	O354	O	0.212425	-0.048426	0.767464
	H355	H	0.222211	-0.042957	0.739964
	H356	H	0.212715	-0.074251	0.770639
	O357	O	0.690087	0.296521	0.303449
	H358	H	0.691172	0.321786	0.310784
	H359	H	0.650107	0.305778	0.299240
	O360	O	0.713406	0.702080	0.515201
	H361	H	0.735401	0.728362	0.530709
	H362	H	0.709806	0.702717	0.549502
	O363	O	-0.334061	-0.357335	-0.315046
	H364	H	-0.312576	-0.338840	-0.293826
	H365	H	-0.366484	-0.368860	-0.307857
	O366	O	0.368821	0.692070	0.479143
	H367	H	0.364226	0.697489	0.485718
	H368	H	0.368207	0.703473	0.485461
	O369	O	1.216742	0.027435	0.212770
	H370	H	1.184330	0.000468	0.211903
	H371	H	1.240279	0.021559	0.244752
	O372	O	1.179838	0.829895	-0.085734
	H373	H	1.175219	0.839865	-0.071989
	H374	H	1.187229	0.838027	-0.081199
	O375	O	0.778643	-0.233718	-0.230569
	H376	H	0.796028	-0.206615	-0.220457
	H377	H	0.790492	-0.243380	-0.202941
	O378	O	0.410422	0.594104	0.522607
	H379	H	0.423741	0.597504	0.511685
	H380	H	0.424418	0.603989	0.541844
	O381	O	-0.521878	0.269272	0.471766
	H382	H	-0.508615	0.265282	0.487729
	H383	H	-0.541226	0.269040	0.488992
	O384	O	1.083236	-0.076155	1.206700
	H385	H	1.056834	-0.064325	1.195650
	H386	H	1.063285	-0.086699	1.199126
	O387	O	0.935550	0.980246	-0.206381
	H388	H	0.928963	0.997517	-0.210025
	H389	H	0.944429	0.973842	-0.203839
	O390	O	0.523626	0.446939	0.514136
	H391	H	0.513798	0.438323	0.517490
	H392	H	0.529046	0.448449	0.514563
	O393	O	0.716522	0.262871	0.713343
	H394	H	0.708269	0.278698	0.711458
	H395	H	0.685907	0.286949	0.697769
	O396	O	-0.168198	1.153666	0.811966
	H397	H	-0.184394	1.170105	0.812829
	H398	H	-0.172984	1.149141	0.800803
	O399	O	-0.227677	0.205062	0.952081
	H400	H	-0.225005	0.218774	0.952997
	H401	H	-0.230303	0.214900	0.947801
	O402	O	0.951945	1.174661	-0.161946
	H403	H	0.939807	1.181995	-0.169877
	H404	H	0.945223	1.172713	-0.160710
	O405	O	1.182226	0.056840	0.909803
	H406	H	1.195910	0.033813	0.915326
	H407	H	1.191668	0.058463	0.936248
	O408	O	-0.048350	0.028856	0.204159
	H409	H	-0.064987	0.029258	0.207197
	H410	H	-0.056312	0.051425	0.203819
	O411	O	1.050326	0.997509	0.770046
	H412	H	1.055992	0.990351	0.770653
	H413	H	1.041380	1.014280	0.774679
	O414	O	0.807887	0.172292	0.177630
	H415	H	0.801054	0.181819	0.177564
	H416	H	0.814235	0.184674	0.180255
	O417	O	0.473567	-0.603051	1.301741
	H418	H	0.461717	-0.594196	1.301702
	H419	H	0.480038	-0.607569	1.323952
	O420	O	-0.215949	0.874055	1.194423
	H421	H	-0.208388	0.873230	1.202973
	H422	H	-0.233948	0.865349	1.172543
	O423	O	0.187452	-0.172256	1.008547
	H424	H	0.179178	-0.186344	0.999908
	H425	H	0.188725	-0.138853	0.992675
	O426	O	0.206714	0.770581	0.769017
	H427	H	0.206283	0.746525	0.751522
	H428	H	0.209257	0.781913	0.800005
	O429	O	0.703450	0.465957	1.303355
	H430	H	0.707222	0.466571	1.294287
	H431	H	0.712745	0.485775	1.297425
	O432	O	0.223648	0.979666	0.044667
	H433	H	0.231918	0.978777	0.062141
	H434	H	0.205756	0.984609	0.056527
	O435	O	-0.227517	0.986749	-0.015808
	H436	H	-0.233305	0.994017	-0.000141
	H437	H	-0.230271	1.004071	-0.024346
	O438	O	0.459935	0.266051	-0.339572
	H439	H	0.448521	0.257784	-0.322727
	H440	H	0.451267	0.265358	-0.334935
	O441	O	0.020239	-0.236653	-0.225796
	H442	H	0.022729	-0.256890	-0.238307
	H443	H	0.032976	-0.239252	-0.223934
	O444	O	0.312160	0.666809	0.676319
	H445	H	0.317582	0.662057	0.681208
	H446	H	0.330240	0.660437	0.656233
	O447	O	-0.670952	1.593912	1.428767
	H448	H	-0.673422	1.595250	1.414858
	H449	H	-0.675666	1.606721	1.447708
	O450	O	0.690759	0.621876	1.356789
	H451	H	0.677031	0.634785	1.374480
	H452	H	0.685773	0.621432	1.348535
	O453	O	0.621498	0.319962	0.544604
	H454	H	0.639070	0.310895	0.536028
	H455	H	0.627022	0.332223	0.535742
	O456	O	-0.066075	-0.100152	0.996583
	H457	H	-0.081844	-0.080301	1.003613
	H458	H	-0.044840	-0.096721	0.987751
	O459	O	1.027714	1.207987	-0.116132
	H460	H	1.041876	1.209057	-0.106706
	H461	H	1.027295	1.207365	-0.136637
	O462	O	0.283321	0.279731	0.538217
	H463	H	0.273221	0.297439	0.533589
	H464	H	0.261124	0.262240	0.547094
	O465	O	1.208922	0.211835	0.020021
	H466	H	1.225750	0.228105	0.043119
	H467	H	1.219497	0.216771	0.047142
	O468	O	0.281859	0.601278	0.506907
	H469	H	0.275876	0.608434	0.494875
	H470	H	0.271040	0.614418	0.516643
	O471	O	-0.164845	0.833598	-0.005896
	H472	H	-0.177148	0.840644	-0.027073
	H473	H	-0.165008	0.856005	-0.003738
	O474	O	0.276910	0.516097	0.271960
	H475	H	0.264882	0.542758	0.257534
	H476	H	0.272250	0.525654	0.262587
	O477	O	0.470964	0.691398	1.276967
	H478	H	0.476641	0.703662	1.278155
	H479	H	0.474269	0.685739	1.284571
	O480	O	0.244399	0.723239	0.232503
	H481	H	0.271765	0.739050	0.229831
	H482	H	0.229611	0.742826	0.197477
	O483	O	0.307971	0.293560	0.302193
	H484	H	0.337526	0.303817	0.319557
	H485	H	0.316132	0.319252	0.319536
	O486	O	0.276787	0.451890	1.703240
	H487	H	0.268314	0.423201	1.707368
	H488	H	0.259731	0.444041	1.715837
	O489	O	0.780338	1.004091	0.107318
	H490	H	0.780681	1.004509	0.107493
	H491	H	0.771425	1.010328	0.123562
