data_Molecule from HDF5

_cell_length_a		16.722711
_cell_length_b		16.635008
_cell_length_c		16.567041
_cell_angle_alpha	90.017289
_cell_angle_beta	90.117599
_cell_angle_gamma	90.003558
_symmetry_space_group_name_H-M	'P 1'
_symmetry_Int_Tables_number		1

loop_
	_symmetry_equiv_pos_as_xyz
	x,y,z

loop_
	_atom_site_label
	_atom_site_type_symbol
	_atom_site_fract_x
	_atom_site_fract_y
	_atom_site_fract_z
	H0	H	0.401929	0.843928	0.713469
	H1	H	0.614092	0.152581	0.715963
	H2	H	0.610328	0.844005	0.270947
	H3	H	0.400079	0.154004	0.269492
	H4	H	0.731632	0.389357	0.840553
	H5	H	0.729898	0.607286	0.146150
	H6	H	0.282557	0.605595	0.838363
	H7	H	0.285586	0.392976	0.147967
	H8	H	0.855648	0.723354	0.383218
	H9	H	0.161377	0.720984	0.599636
	H10	H	0.851927	0.277218	0.598857
	H11	H	0.158719	0.272819	0.384962
	H12	H	0.852475	0.393424	0.715125
	H13	H	0.161905	0.603790	0.715058
	H14	H	0.855045	0.606073	0.269317
	H15	H	0.159527	0.390688	0.269285
	H16	H	0.397197	0.722576	0.838073
	H17	H	0.610340	0.718737	0.147969
	H18	H	0.613345	0.276446	0.838440
	H19	H	0.402013	0.278290	0.148902
	H20	H	0.729796	0.845942	0.383137
	H21	H	0.731571	0.151745	0.601796
	H22	H	0.284177	0.844674	0.598617
	H23	H	0.282962	0.153883	0.384095
	H24	H	0.899225	0.345534	0.216091
	H25	H	0.114897	0.652711	0.217254
	H26	H	0.112377	0.343560	0.771429
	H27	H	0.905208	0.655189	0.774025
	H28	H	0.226107	0.894415	0.336121
	H29	H	0.228499	0.105484	0.648163
	H30	H	0.787786	0.100857	0.335736
	H31	H	0.780721	0.887684	0.645774
	H32	H	0.352996	0.221870	0.885423
	H33	H	0.660730	0.220494	0.098144
	H34	H	0.351757	0.776318	0.098356
	H35	H	0.659219	0.774555	0.885076
	H36	H	0.351430	0.893205	0.213486
	H37	H	0.661489	0.101743	0.212799
	H38	H	0.352468	0.105146	0.769834
	H39	H	0.659642	0.891384	0.768964
	H40	H	0.902646	0.217797	0.336680
	H41	H	0.110354	0.218940	0.649383
	H42	H	0.109947	0.778514	0.336869
	H43	H	0.900385	0.775030	0.647641
	H44	H	0.229882	0.344679	0.886178
	H45	H	0.232384	0.652518	0.102544
	H46	H	0.782091	0.347171	0.101789
	H47	H	0.786138	0.654127	0.887230
	H48	H	0.416820	0.112138	0.583612
	H49	H	0.595492	0.887664	0.577929
	H50	H	0.601810	0.112463	0.403172
	H51	H	0.415614	0.890024	0.410004
	H52	H	0.597814	0.411960	0.105493
	H53	H	0.599914	0.585830	0.878533
	H54	H	0.418620	0.579243	0.100915
	H55	H	0.422144	0.402647	0.879444
	H56	H	0.116994	0.584214	0.406718
	H57	H	0.894596	0.589885	0.585752
	H58	H	0.118815	0.404661	0.582931
	H59	H	0.896363	0.407618	0.407105
	H60	H	0.115627	0.409025	0.578686
	H61	H	0.897554	0.589301	0.575837
	H62	H	0.118281	0.586963	0.404334
	H63	H	0.897388	0.413738	0.405891
	H64	H	0.426354	0.591672	0.103345
	H65	H	0.592716	0.582090	0.883239
	H66	H	0.593240	0.414767	0.102552
	H67	H	0.409394	0.411706	0.878588
	H68	H	0.591628	0.110595	0.399692
	H69	H	0.592751	0.888529	0.580546
	H70	H	0.422874	0.108010	0.580313
	H71	H	0.409949	0.885396	0.400692
	H72	H	0.921831	0.610518	0.082722
	H73	H	0.095637	0.387012	0.085397
	H74	H	0.094870	0.610374	0.904403
	H75	H	0.919089	0.388918	0.908254
	H76	H	0.094442	0.906707	0.605592
	H77	H	0.096607	0.091445	0.378566
	H78	H	0.914573	0.090388	0.607426
	H79	H	0.919377	0.913690	0.383906
	H80	H	0.613432	0.084945	0.910331
	H81	H	0.396350	0.088172	0.076661
	H82	H	0.618452	0.904098	0.081097
	H83	H	0.393990	0.905417	0.903657
	H84	H	0.615086	0.910585	0.077799
	H85	H	0.395958	0.085793	0.083251
	H86	H	0.617669	0.083334	0.900016
	H87	H	0.398592	0.912498	0.908968
	H88	H	0.914905	0.080686	0.603964
	H89	H	0.097506	0.082409	0.381508
	H90	H	0.100764	0.911186	0.606257
	H91	H	0.920563	0.907814	0.382081
	H92	H	0.096726	0.609537	0.906245
	H93	H	0.089385	0.392046	0.077184
	H94	H	0.919471	0.609217	0.077369
	H95	H	0.914190	0.386440	0.905046
	H96	H	0.416523	0.109068	0.576158
	H97	H	0.592626	0.889648	0.577272
	H98	H	0.594366	0.108001	0.409563
	H99	H	0.421167	0.889035	0.399577
	H100	H	0.592461	0.409170	0.104589
	H101	H	0.591959	0.590657	0.879244
	H102	H	0.412515	0.590361	0.108155
	H103	H	0.422220	0.417827	0.884871
	H104	H	0.117765	0.587373	0.407962
	H105	H	0.898343	0.581057	0.582265
	H106	H	0.117993	0.411249	0.585099
	H107	H	0.895395	0.409692	0.401196
	H108	H	0.915688	0.611749	0.081701
	H109	H	0.100108	0.388786	0.075298
	H110	H	0.096995	0.611122	0.904250
	H111	H	0.919934	0.386912	0.902127
	H112	H	0.094467	0.914228	0.603142
	H113	H	0.090127	0.087345	0.383700
	H114	H	0.923337	0.086522	0.602862
	H115	H	0.915705	0.910715	0.381266
	H116	H	0.618530	0.093103	0.904874
	H117	H	0.393783	0.092400	0.081574
	H118	H	0.617836	0.910702	0.085062
	H119	H	0.396133	0.914144	0.899201
	C120	C	0.385469	0.007533	0.613148
	C121	C	0.627991	0.989986	0.613349
	C122	C	0.627329	0.007586	0.371266
	C123	C	0.383568	0.990634	0.370299
	C124	C	0.627896	0.378295	0.001896
	C125	C	0.627408	0.619737	0.983317
	C126	C	0.385564	0.619898	0.001271
	C127	C	0.385816	0.378175	0.983874
	C128	C	0.016315	0.619491	0.372266
	C129	C	0.998845	0.619784	0.614215
	C130	C	0.015216	0.376461	0.614988
	C131	C	0.997786	0.376897	0.371422
	C132	C	0.885840	0.508185	0.114092
	C133	C	0.128665	0.491051	0.113892
	C134	C	0.128485	0.507762	0.872004
	C135	C	0.885996	0.490333	0.872401
	C136	C	0.127803	0.878398	0.501357
	C137	C	0.127457	0.120018	0.484189
	C138	C	0.885485	0.118491	0.501340
	C139	C	0.884906	0.876643	0.484213
	C140	C	0.515166	0.120462	0.871378
	C141	C	0.497980	0.120634	0.113305
	C142	C	0.514789	0.876868	0.113838
	C143	C	0.497995	0.877487	0.871078
	C144	C	0.383316	0.890592	0.673297
	C145	C	0.631977	0.105970	0.675504
	C146	C	0.628870	0.890776	0.310896
	C147	C	0.381515	0.107401	0.309631
	C148	C	0.690063	0.373072	0.886236
	C149	C	0.688603	0.624093	0.099996
	C150	C	0.323122	0.623866	0.884883
	C151	C	0.325642	0.375147	0.101294
	C152	C	0.901364	0.681888	0.366862
	C153	C	0.115094	0.680541	0.617382
	C154	C	0.898367	0.317167	0.617145
	C155	C	0.112972	0.314447	0.367369
	C156	C	0.898677	0.375092	0.674599
	C157	C	0.115386	0.622274	0.674764
	C158	C	0.901026	0.623671	0.309999
	C159	C	0.113353	0.372845	0.309990
	C160	C	0.380498	0.681536	0.884467
	C161	C	0.629607	0.680005	0.100635
	C162	C	0.631177	0.316922	0.885336
	C163	C	0.383767	0.318266	0.101518
	C164	C	0.688060	0.891489	0.366913
	C165	C	0.690322	0.105610	0.618619
	C166	C	0.324834	0.891078	0.616169
	C167	C	0.323290	0.107290	0.366667
	C168	C	0.881801	0.392259	0.175570
	C169	C	0.132539	0.606703	0.176210
	C170	C	0.130906	0.390617	0.811477
	C171	C	0.885690	0.608090	0.813361
	C172	C	0.186427	0.876275	0.383347
	C173	C	0.187986	0.123242	0.601526
	C174	C	0.827098	0.119609	0.383066
	C175	C	0.822537	0.871044	0.599957
	C176	C	0.399215	0.181450	0.867595
	C177	C	0.614620	0.180151	0.116016
	C178	C	0.398165	0.816626	0.116529
	C179	C	0.613432	0.815775	0.867566
	C180	C	0.398087	0.874933	0.173700
	C181	C	0.614878	0.121517	0.173022
	C182	C	0.399188	0.123545	0.810018
	C183	C	0.613706	0.873712	0.809921
	C184	C	0.884254	0.177677	0.383403
	C185	C	0.129270	0.179597	0.602170
	C186	C	0.128743	0.818702	0.383577
	C187	C	0.881721	0.814920	0.600682
	C188	C	0.189273	0.391137	0.868581
	C189	C	0.190904	0.606501	0.119380
	C190	C	0.823598	0.392838	0.118706
	C191	C	0.826420	0.607434	0.869382
	C192	C	0.411295	0.088457	0.587311
	C193	C	0.601208	0.909493	0.586126
	C194	C	0.602918	0.089031	0.396843
	C195	C	0.408456	0.909287	0.396058
	C196	C	0.601967	0.404558	0.083093
	C197	C	0.602007	0.593474	0.901704
	C198	C	0.411692	0.594263	0.082844
	C199	C	0.410713	0.403626	0.902197
	C200	C	0.096790	0.593393	0.398780
	C201	C	0.917962	0.594078	0.588707
	C202	C	0.096343	0.401176	0.589733
	C203	C	0.917389	0.402797	0.397345
	C204	C	0.911680	0.589356	0.088023
	C205	C	0.102379	0.410143	0.086924
	C206	C	0.103367	0.589190	0.897623
	C207	C	0.910628	0.408743	0.897841
	C208	C	0.103466	0.903403	0.583684
	C209	C	0.102075	0.094381	0.402511
	C210	C	0.910598	0.093209	0.583502
	C211	C	0.911023	0.903385	0.403324
	C212	C	0.595695	0.094620	0.897689
	C213	C	0.416562	0.095824	0.087819
	C214	C	0.595781	0.901458	0.088638
	C215	C	0.417243	0.903397	0.896781
	Zn216	Zn	0.506922	-0.001233	0.742397
	Zn217	Zn	0.505735	-0.000604	0.242233
	Zn218	Zn	0.756602	0.499377	-0.007184
	Zn219	Zn	0.257726	0.499055	-0.006750
	Zn220	Zn	0.007305	0.749035	0.493156
	Zn221	Zn	0.005708	0.247597	0.493206
	Zn222	Zn	0.006725	0.498518	0.743458
	Zn223	Zn	0.007366	0.498956	0.242291
	Zn224	Zn	0.505881	0.748073	-0.008111
	Zn225	Zn	0.506690	0.249913	-0.007399
	Zn226	Zn	0.756279	-0.002125	0.492651
	Zn227	Zn	0.256110	-0.000118	0.492307
	N228	N	0.420441	0.964024	0.671669
	N229	N	0.593841	0.033003	0.672475
	N230	N	0.591823	0.964030	0.313299
	N231	N	0.418455	0.033801	0.311613
	N232	N	0.688334	0.410574	0.959917
	N233	N	0.687512	0.587093	0.025864
	N234	N	0.326067	0.586290	0.958563
	N235	N	0.326637	0.411761	0.027033
	N236	N	0.974047	0.679449	0.405165
	N237	N	0.041448	0.679346	0.580737
	N238	N	0.971927	0.317712	0.580700
	N239	N	0.040128	0.316836	0.404993
	N240	N	0.972454	0.411170	0.673569
	N241	N	0.042060	0.584971	0.673014
	N242	N	0.973455	0.585382	0.313268
	N243	N	0.040641	0.410875	0.312184
	N244	N	0.418507	0.679173	0.957938
	N245	N	0.592284	0.677603	0.026925
	N246	N	0.593320	0.319887	0.958415
	N247	N	0.420350	0.319858	0.027487
	N248	N	0.687540	0.965261	0.403578
	N249	N	0.688118	0.032352	0.580756
	N250	N	0.326061	0.964879	0.579420
	N251	N	0.324480	0.033568	0.403732
	N252	N	0.919812	0.465183	0.172947
	N253	N	0.094505	0.533714	0.172967
	N254	N	0.094026	0.464303	0.813065
	N255	N	0.921882	0.534068	0.814769
	N256	N	0.186182	0.912540	0.457812
	N257	N	0.187144	0.087020	0.527129
	N258	N	0.827663	0.083469	0.457672
	N259	N	0.824374	0.908798	0.526422
	N260	N	0.472495	0.179971	0.904840
	N261	N	0.540822	0.179732	0.079669
	N262	N	0.471670	0.817540	0.079846
	N263	N	0.540376	0.817913	0.904843
	N264	N	0.471624	0.911465	0.172664
	N265	N	0.541215	0.085351	0.171556
	N266	N	0.472551	0.086444	0.811853
	N267	N	0.540850	0.911406	0.811952
	N268	N	0.919596	0.177234	0.458238
	N269	N	0.092494	0.178009	0.528020
	N270	N	0.093219	0.819720	0.458248
	N271	N	0.919781	0.818124	0.527674
	N272	N	0.188063	0.464988	0.905418
	N273	N	0.188415	0.533481	0.081060
	N274	N	0.825936	0.466031	0.080987
	N275	N	0.826324	0.533171	0.905300
	O276	O	-0.215778	1.052559	0.061957
	H277	H	-0.222850	1.043783	0.057895
	H278	H	-0.217142	1.052405	0.073015
	O279	O	0.461251	0.515595	0.281290
	H280	H	0.463296	0.506971	0.289514
	H281	H	0.457256	0.510637	0.285321
	O282	O	1.223677	0.216077	1.024658
	H283	H	1.230687	0.220088	1.030919
	H284	H	1.236409	0.218937	1.013843
	O285	O	0.497343	0.585390	0.682264
	H286	H	0.508943	0.562882	0.683300
	H287	H	0.503395	0.587479	0.694635
	O288	O	0.458166	0.512771	0.458868
	H289	H	0.456471	0.501181	0.465210
	H290	H	0.456861	0.516413	0.464948
	O291	O	0.592622	0.408906	0.716520
	H292	H	0.587791	0.402696	0.706468
	H293	H	0.588482	0.395955	0.717354
	O294	O	1.191039	-0.180875	1.177654
	H295	H	1.204502	-0.187272	1.193803
	H296	H	1.186654	-0.195726	1.172366
	O297	O	0.303450	0.700763	0.286633
	H298	H	0.328627	0.691041	0.290953
	H299	H	0.311924	0.691309	0.311822
	O300	O	-0.207918	0.217219	0.965371
	H301	H	-0.192415	0.217034	0.962589
	H302	H	-0.222408	0.235931	0.969158
	O303	O	0.469025	0.720652	0.274156
	H304	H	0.482857	0.701059	0.282299
	H305	H	0.477797	0.748906	0.248158
	O306	O	0.553351	0.288784	0.531426
	H307	H	0.547713	0.292944	0.548729
	H308	H	0.588801	0.283161	0.527533
	O309	O	0.724744	0.667913	0.621939
	H310	H	0.748954	0.675255	0.640946
	H311	H	0.718741	0.648901	0.633831
	O312	O	0.342083	0.503206	0.430432
	H313	H	0.339127	0.519932	0.425703
	H314	H	0.349821	0.497152	0.428908
	O315	O	1.141454	0.780482	1.006236
	H316	H	1.153542	0.786633	0.990013
	H317	H	1.140943	0.777281	0.983945
	O318	O	0.732331	0.522995	0.717783
	H319	H	0.738342	0.527742	0.732494
	H320	H	0.731853	0.533323	0.729873
	O321	O	0.219610	0.999657	1.152113
	H322	H	0.217398	1.020864	1.150779
	H323	H	0.233779	1.008395	1.161832
	O324	O	1.013760	0.896063	0.141232
	H325	H	1.002789	0.879216	0.145417
	H326	H	1.026454	0.889310	0.136936
	O327	O	-0.213646	-0.035258	1.206127
	H328	H	-0.230022	-0.049518	1.220750
	H329	H	-0.212512	-0.056356	1.211771
	O330	O	0.721684	0.713272	0.495414
	H331	H	0.751179	0.742421	0.515180
	H332	H	0.706718	0.692704	0.515995
	O333	O	0.184224	0.898915	0.887503
	H334	H	0.202863	0.889590	0.874574
	H335	H	0.167619	0.885778	0.890026
	O336	O	0.380338	0.706200	0.617859
	H337	H	0.390344	0.699698	0.592875
	H338	H	0.404735	0.695880	0.624964
	O339	O	0.965229	0.200770	0.779432
	H340	H	0.976987	0.192906	0.777713
	H341	H	0.955495	0.215834	0.767077
	O342	O	-0.226151	-0.062188	-0.062789
	H343	H	-0.232894	-0.061617	-0.064028
	H344	H	-0.228019	-0.064905	-0.057525
	O345	O	-0.242894	1.248745	1.249373
	H346	H	-0.245053	1.259913	1.245344
	H347	H	-0.222614	1.231298	1.225985
	O348	O	0.225727	-0.058388	0.013115
	H349	H	0.231660	-0.061325	0.037361
	H350	H	0.216885	-0.080350	0.025451
	O351	O	0.362283	0.487175	0.576789
	H352	H	0.363694	0.486847	0.567853
	H353	H	0.353256	0.479093	0.572286
	O354	O	-0.102911	-0.215478	0.896349
	H355	H	-0.109992	-0.215564	0.916905
	H356	H	-0.099124	-0.202815	0.901354
	O357	O	0.694342	0.421791	0.544993
	H358	H	0.699446	0.413197	0.548297
	H359	H	0.689198	0.408598	0.546628
	O360	O	0.283827	0.277697	0.521869
	H361	H	0.279851	0.270401	0.530435
	H362	H	0.285183	0.261738	0.520588
	O363	O	-0.052939	0.206589	0.045316
	H364	H	-0.050557	0.196135	0.046657
	H365	H	-0.040668	0.209722	0.056453
	O366	O	0.728580	0.474164	0.270325
	H367	H	0.747566	0.460277	0.258242
	H368	H	0.738451	0.466986	0.281544
	O369	O	0.493164	0.338538	0.284193
	H370	H	0.490927	0.320786	0.277741
	H371	H	0.478863	0.339930	0.301228
	O372	O	0.952650	0.918826	-0.224622
	H373	H	0.952679	0.935542	-0.220146
	H374	H	0.949007	0.936963	-0.221156
	O375	O	1.147851	0.053397	-0.105948
	H376	H	1.156434	0.039486	-0.127060
	H377	H	1.148625	0.033183	-0.083127
	O378	O	0.264848	0.741875	0.718172
	H379	H	0.251943	0.730530	0.713586
	H380	H	0.283052	0.715536	0.696690
	O381	O	0.048806	0.787356	0.778098
	H382	H	0.029776	0.800047	0.775994
	H383	H	0.033092	0.775289	0.765832
	O384	O	0.588318	-0.360857	0.440351
	H385	H	0.597769	-0.377451	0.444315
	H386	H	0.589474	-0.362165	0.431920
	O387	O	1.213045	1.208278	0.199847
	H388	H	1.233718	1.227927	0.201653
	H389	H	1.190702	1.201815	0.185242
	O390	O	0.305757	0.531141	0.307912
	H391	H	0.312372	0.544163	0.308481
	H392	H	0.300299	0.541199	0.291888
	O393	O	0.511718	0.484946	0.490815
	H394	H	0.510255	0.477642	0.487760
	H395	H	0.501990	0.495786	0.486967
	O396	O	-0.219055	0.774716	0.773363
	H397	H	-0.193404	0.799103	0.792391
	H398	H	-0.218603	0.787770	0.779025
	O399	O	-0.073350	0.055639	0.924442
	H400	H	-0.071319	0.043972	0.938371
	H401	H	-0.080046	0.054510	0.927672
	O402	O	1.064222	0.227474	-0.069902
	H403	H	1.059928	0.215754	-0.058683
	H404	H	1.063937	0.229388	-0.072515
	O405	O	1.057790	0.055306	0.962152
	H406	H	1.064571	0.063130	0.965310
	H407	H	1.060825	0.049064	0.973807
	O408	O	0.208747	-0.020401	-0.192950
	H409	H	0.229165	-0.033142	-0.207604
	H410	H	0.211703	-0.053448	-0.193121
	O411	O	0.314201	0.312980	0.305896
	H412	H	0.325887	0.312262	0.311497
	H413	H	0.317971	0.323315	0.328749
	O414	O	0.798475	0.210960	0.784038
	H415	H	0.792593	0.209254	0.772701
	H416	H	0.820660	0.212660	0.810676
	O417	O	0.446208	0.270199	0.437385
	H418	H	0.440733	0.270060	0.447468
	H419	H	0.474361	0.275667	0.452093
	O420	O	0.281538	0.493225	0.662565
	H421	H	0.269044	0.488415	0.666211
	H422	H	0.277303	0.473191	0.660801
	O423	O	0.018526	0.084077	1.152866
	H424	H	0.017458	0.078752	1.155333
	H425	H	0.025721	0.074207	1.151916
	O426	O	0.717794	0.510067	0.488111
	H427	H	0.715339	0.501833	0.499270
	H428	H	0.710708	0.509257	0.515603
	O429	O	0.790679	0.785275	1.019603
	H430	H	0.791903	0.792466	1.054065
	H431	H	0.773047	0.766600	1.025157
	O432	O	0.636586	0.338265	0.641697
	H433	H	0.639102	0.324656	0.648298
	H434	H	0.627054	0.359393	0.634673
	O435	O	0.102584	0.779349	-0.033975
	H436	H	0.107737	0.789230	-0.042397
	H437	H	0.116504	0.768147	-0.036006
	O438	O	0.006784	-0.023633	0.215069
	H439	H	0.006776	-0.044807	0.216844
	H440	H	0.000477	-0.031987	0.214437
	O441	O	0.031509	0.222926	0.208648
	H442	H	0.039355	0.228951	0.224887
	H443	H	0.037048	0.217634	0.226849
	O444	O	0.730091	0.269673	0.463660
	H445	H	0.749909	0.257758	0.451206
	H446	H	0.737667	0.265287	0.432375
	O447	O	0.047827	0.984447	1.082321
	H448	H	0.051191	0.979290	1.081514
	H449	H	0.049945	0.980721	1.101106
	O450	O	0.197597	1.189963	0.804564
	H451	H	0.170956	1.179413	0.823592
	H452	H	0.195818	1.161529	0.827666
	O453	O	0.282224	0.720404	0.452481
	H454	H	0.259991	0.742631	0.456422
	H455	H	0.297224	0.726016	0.450951
	O456	O	0.296649	0.290182	0.700381
	H457	H	0.288858	0.307828	0.676603
	H458	H	0.264528	0.260694	0.731754
	O459	O	0.705399	0.695396	0.297929
	H460	H	0.692707	0.670393	0.315149
	H461	H	0.689268	0.680447	0.320411
	O462	O	0.618876	0.290363	0.281589
	H463	H	0.609029	0.286805	0.266340
	H464	H	0.626116	0.293452	0.275005
	O465	O	1.068343	0.068070	-0.230673
	H466	H	1.070378	0.059521	-0.228839
	H467	H	1.086031	0.069836	-0.225344
	O468	O	0.412680	0.522353	0.473419
	H469	H	0.413799	0.510169	0.484452
	H470	H	0.406970	0.528155	0.461749
	O471	O	0.393209	0.456412	0.659339
	H472	H	0.383015	0.448352	0.659812
	H473	H	0.393322	0.457307	0.662149
	O474	O	0.586475	0.665474	0.500172
	H475	H	0.599800	0.669038	0.518727
	H476	H	0.576025	0.662720	0.493390
	O477	O	0.521650	0.707663	1.706927
	H478	H	0.529771	0.702317	1.710181
	H479	H	0.529022	0.712558	1.719477
	O480	O	0.520731	0.653498	0.371982
	H481	H	0.523614	0.647039	0.381033
	H482	H	0.538204	0.641713	0.382519
	O483	O	0.498202	0.272620	0.691476
	H484	H	0.469664	0.279121	0.694504
	H485	H	0.485666	0.254258	0.706490
	O486	O	1.035323	-0.075225	0.940108
	H487	H	1.028820	-0.075497	0.933800
	H488	H	1.043873	-0.072033	0.932212
	O489	O	0.867415	1.144515	0.189065
	H490	H	0.876915	1.133517	0.169412
	H491	H	0.882627	1.137385	0.180153
	O492	O	0.021381	-0.198735	0.150190
	H493	H	0.047289	-0.198231	0.147354
	H494	H	0.039258	-0.203838	0.148218
	O495	O	-0.212083	1.018923	0.772499
	H496	H	-0.221386	1.030267	0.770164
	H497	H	-0.221150	1.044284	0.764830
	O498	O	0.799332	0.793065	1.191732
	H499	H	0.770162	0.760062	1.226495
	H500	H	0.836194	0.797112	1.193130
	O501	O	0.565935	0.452328	0.514077
	H502	H	0.561596	0.441270	0.513632
	H503	H	0.576070	0.461575	0.520827
