data_Molecule from HDF5

_cell_length_a		16.610875
_cell_length_b		16.313418
_cell_length_c		16.382107
_cell_angle_alpha	89.814681
_cell_angle_beta	90.142621
_cell_angle_gamma	90.113220
_symmetry_space_group_name_H-M	'P 1'
_symmetry_Int_Tables_number		1

loop_
	_symmetry_equiv_pos_as_xyz
	x,y,z

loop_
	_atom_site_label
	_atom_site_type_symbol
	_atom_site_fract_x
	_atom_site_fract_y
	_atom_site_fract_z
	H0	H	0.395476	0.826922	0.721515
	H1	H	0.601797	0.147669	0.715919
	H2	H	0.602093	0.825529	0.279659
	H3	H	0.395037	0.145876	0.279583
	H4	H	0.721766	0.378769	0.846151
	H5	H	0.722609	0.596935	0.158661
	H6	H	0.274966	0.594817	0.842634
	H7	H	0.276639	0.378897	0.159526
	H8	H	0.841358	0.707423	0.394411
	H9	H	0.155906	0.709811	0.608144
	H10	H	0.841274	0.267064	0.600558
	H11	H	0.156734	0.264294	0.395500
	H12	H	0.841066	0.382454	0.718728
	H13	H	0.155796	0.592571	0.724534
	H14	H	0.842995	0.593389	0.275724
	H15	H	0.156386	0.380560	0.278603
	H16	H	0.394962	0.706282	0.840105
	H17	H	0.601009	0.706423	0.160529
	H18	H	0.601874	0.268452	0.842903
	H19	H	0.395144	0.266563	0.160501
	H20	H	0.721424	0.826888	0.390790
	H21	H	0.720161	0.145259	0.601971
	H22	H	0.274989	0.828273	0.609950
	H23	H	0.273891	0.142769	0.388785
	H24	H	0.897224	0.325199	0.218709
	H25	H	0.103830	0.645678	0.221152
	H26	H	0.099320	0.325331	0.783896
	H27	H	0.893776	0.645237	0.778565
	H28	H	0.222532	0.877727	0.342993
	H29	H	0.223523	0.094049	0.656823
	H30	H	0.777848	0.091904	0.340044
	H31	H	0.778330	0.880088	0.657309
	H32	H	0.341509	0.208261	0.895604
	H33	H	0.656223	0.207240	0.104077
	H34	H	0.340568	0.765994	0.103617
	H35	H	0.654932	0.765799	0.897822
	H36	H	0.341673	0.880868	0.222110
	H37	H	0.655889	0.091582	0.221480
	H38	H	0.342416	0.093799	0.776424
	H39	H	0.656790	0.884019	0.782206
	H40	H	0.898091	0.204402	0.339472
	H41	H	0.102169	0.204172	0.659896
	H42	H	0.102036	0.766795	0.340775
	H43	H	0.896934	0.767603	0.659247
	H44	H	0.218890	0.327660	0.895686
	H45	H	0.221435	0.645026	0.107983
	H46	H	0.777218	0.328331	0.106837
	H47	H	0.776808	0.644838	0.893903
	H48	H	0.411723	0.096643	0.579396
	H49	H	0.593067	0.870266	0.590423
	H50	H	0.589683	0.102122	0.405653
	H51	H	0.414171	0.875205	0.416804
	H52	H	0.584134	0.401936	0.113861
	H53	H	0.584143	0.574868	0.888871
	H54	H	0.404843	0.577048	0.115553
	H55	H	0.405599	0.400684	0.886970
	H56	H	0.109395	0.578134	0.417883
	H57	H	0.890760	0.572021	0.583445
	H58	H	0.111377	0.394698	0.588615
	H59	H	0.890023	0.400739	0.412729
	H60	H	0.112362	0.398939	0.595030
	H61	H	0.887508	0.570500	0.595267
	H62	H	0.108515	0.569606	0.411406
	H63	H	0.885905	0.395901	0.404707
	H64	H	0.407678	0.570868	0.112704
	H65	H	0.590229	0.578536	0.886002
	H66	H	0.586831	0.395186	0.116598
	H67	H	0.408896	0.400534	0.888723
	H68	H	0.584300	0.096749	0.413455
	H69	H	0.587061	0.871196	0.593696
	H70	H	0.403190	0.101779	0.587753
	H71	H	0.406956	0.872392	0.416230
	H72	H	0.911733	0.599853	0.087541
	H73	H	0.095090	0.370195	0.088868
	H74	H	0.092069	0.600377	0.918375
	H75	H	0.899783	0.368515	0.909804
	H76	H	0.090302	0.899554	0.613595
	H77	H	0.095727	0.070712	0.385169
	H78	H	0.901978	0.074954	0.615089
	H79	H	0.906351	0.899939	0.385414
	H80	H	0.611030	0.074007	0.905803
	H81	H	0.386784	0.077764	0.087131
	H82	H	0.610879	0.896639	0.091569
	H83	H	0.386533	0.899448	0.911215
	H84	H	0.611014	0.896112	0.089638
	H85	H	0.388362	0.072433	0.087715
	H86	H	0.614197	0.082387	0.906356
	H87	H	0.385706	0.899196	0.907596
	H88	H	0.909086	0.068301	0.611253
	H89	H	0.083613	0.069089	0.389597
	H90	H	0.087547	0.901255	0.612178
	H91	H	0.911403	0.896959	0.385355
	H92	H	0.087694	0.602081	0.907377
	H93	H	0.084810	0.371042	0.095339
	H94	H	0.908106	0.600728	0.087795
	H95	H	0.914804	0.372180	0.907408
	H96	H	0.415772	0.099491	0.591309
	H97	H	0.588009	0.873227	0.587324
	H98	H	0.594547	0.100125	0.415414
	H99	H	0.411434	0.872132	0.409727
	H100	H	0.592103	0.400976	0.116302
	H101	H	0.590797	0.570930	0.888974
	H102	H	0.411929	0.576920	0.114198
	H103	H	0.407220	0.397534	0.886364
	H104	H	0.112524	0.579096	0.407205
	H105	H	0.885553	0.581419	0.589714
	H106	H	0.113873	0.391187	0.594844
	H107	H	0.886836	0.391135	0.413595
	H108	H	0.910640	0.601907	0.090564
	H109	H	0.084996	0.375734	0.083237
	H110	H	0.080503	0.597476	0.915909
	H111	H	0.908086	0.375143	0.921033
	H112	H	0.086922	0.897906	0.612894
	H113	H	0.087133	0.080511	0.384853
	H114	H	0.911397	0.078564	0.613141
	H115	H	0.906198	0.894699	0.383587
	H116	H	0.610101	0.078618	0.913805
	H117	H	0.385782	0.074655	0.092310
	H118	H	0.610184	0.898075	0.090572
	H119	H	0.385921	0.896180	0.909950
	C120	C	0.377732	-0.005443	0.620590
	C121	C	0.620785	0.977671	0.620757
	C122	C	0.620673	-0.005797	0.378602
	C123	C	0.378207	0.977762	0.379779
	C124	C	0.619257	0.366919	0.010711
	C125	C	0.620034	0.607908	0.992774
	C126	C	0.376566	0.607653	0.008810
	C127	C	0.376097	0.365712	0.992451
	C128	C	0.006790	0.608116	0.378806
	C129	C	0.991378	0.608008	0.622712
	C130	C	0.008091	0.363505	0.622876
	C131	C	0.991296	0.364244	0.378564
	C132	C	0.878013	0.495511	0.121483
	C133	C	0.120335	0.477675	0.122026
	C134	C	0.119021	0.495033	0.881039
	C135	C	0.876056	0.477314	0.879523
	C136	C	0.120361	0.865794	0.508555
	C137	C	0.120725	0.106389	0.491307
	C138	C	0.877241	0.106127	0.507482
	C139	C	0.877231	0.865013	0.490135
	C140	C	0.507773	0.110324	0.877171
	C141	C	0.490410	0.107674	0.121570
	C142	C	0.506721	0.864873	0.122299
	C143	C	0.489840	0.865552	0.878412
	C144	C	0.376136	0.875074	0.681893
	C145	C	0.621363	0.098915	0.677554
	C146	C	0.621176	0.873717	0.318977
	C147	C	0.376089	0.097603	0.318810
	C148	C	0.680446	0.362537	0.892560
	C149	C	0.681217	0.612781	0.111595
	C150	C	0.315920	0.611604	0.889593
	C151	C	0.316724	0.361651	0.111918
	C152	C	0.888905	0.667991	0.376132
	C153	C	0.108797	0.669008	0.625841
	C154	C	0.888765	0.305620	0.621118
	C155	C	0.109588	0.304278	0.376710
	C156	C	0.888709	0.363268	0.679676
	C157	C	0.108800	0.610551	0.684064
	C158	C	0.889710	0.611035	0.316923
	C159	C	0.109504	0.362437	0.318718
	C160	C	0.375537	0.667211	0.888544
	C161	C	0.620776	0.667451	0.112515
	C162	C	0.620702	0.307430	0.891089
	C163	C	0.375912	0.305729	0.112348
	C164	C	0.680721	0.874409	0.374362
	C165	C	0.680205	0.097730	0.620912
	C166	C	0.316300	0.875637	0.626099
	C167	C	0.315936	0.096051	0.373564
	C168	C	0.877344	0.374170	0.180393
	C169	C	0.122370	0.597726	0.181818
	C170	C	0.118965	0.373844	0.822683
	C171	C	0.875186	0.597330	0.818900
	C172	C	0.181170	0.861078	0.389840
	C173	C	0.182229	0.111004	0.610138
	C174	C	0.818512	0.109118	0.387537
	C175	C	0.818226	0.862249	0.609981
	C176	C	0.388830	0.169037	0.876054
	C177	C	0.608866	0.167606	0.122986
	C178	C	0.387915	0.805846	0.122868
	C179	C	0.608076	0.805643	0.878420
	C180	C	0.388572	0.862779	0.181985
	C181	C	0.608757	0.109891	0.181319
	C182	C	0.389384	0.112012	0.816977
	C183	C	0.608932	0.864301	0.820822
	C184	C	0.878158	0.165208	0.387117
	C185	C	0.121667	0.165591	0.611599
	C186	C	0.121477	0.805726	0.388903
	C187	C	0.877135	0.806337	0.611057
	C188	C	0.178921	0.375293	0.878018
	C189	C	0.180928	0.597339	0.125431
	C190	C	0.817885	0.375595	0.124655
	C191	C	0.817018	0.597267	0.876451
	C192	C	0.403059	0.077930	0.593851
	C193	C	0.596370	0.893458	0.597226
	C194	C	0.596445	0.077813	0.403933
	C195	C	0.403709	0.894887	0.406621
	C196	C	0.594782	0.392167	0.093929
	C197	C	0.595281	0.582202	0.909526
	C198	C	0.401094	0.582112	0.092244
	C199	C	0.400255	0.391963	0.909131
	C200	C	0.088828	0.582781	0.404751
	C201	C	0.909324	0.582121	0.596911
	C202	C	0.091066	0.387864	0.599575
	C203	C	0.908993	0.388893	0.403226
	C204	C	0.903079	0.579006	0.096005
	C205	C	0.095439	0.394386	0.096578
	C206	C	0.093919	0.578172	0.906528
	C207	C	0.900535	0.393536	0.905504
	C208	C	0.095482	0.892061	0.591237
	C209	C	0.095931	0.080862	0.408226
	C210	C	0.900879	0.081148	0.591309
	C211	C	0.901089	0.889911	0.406640
	C212	C	0.590095	0.085589	0.901708
	C213	C	0.408288	0.082259	0.096454
	C214	C	0.589237	0.889716	0.097722
	C215	C	0.407397	0.891098	0.902552
	Zn216	Zn	0.499393	-0.012568	0.749155
	Zn217	Zn	0.498614	-0.013690	0.251801
	Zn218	Zn	0.748456	0.487356	0.001927
	Zn219	Zn	0.248363	0.486921	0.001001
	Zn220	Zn	-0.000776	0.737733	0.500043
	Zn221	Zn	-0.000393	0.234504	0.499995
	Zn222	Zn	-0.001459	0.485823	0.752285
	Zn223	Zn	-0.000862	0.486064	0.249730
	Zn224	Zn	0.497929	0.735775	0.000793
	Zn225	Zn	0.498426	0.238007	0.001018
	Zn226	Zn	0.748319	-0.014862	0.498673
	Zn227	Zn	0.249227	-0.014054	0.499795
	N228	N	0.413592	0.950284	0.678590
	N229	N	0.585168	0.023217	0.677482
	N230	N	0.584668	0.949180	0.321481
	N231	N	0.413959	0.022957	0.322581
	N232	N	0.679538	0.398965	0.968039
	N233	N	0.680997	0.576559	0.035903
	N234	N	0.316336	0.575577	0.965464
	N235	N	0.316701	0.398169	0.036258
	N236	N	0.962661	0.666086	0.414055
	N237	N	0.034710	0.667683	0.588627
	N238	N	0.964180	0.305310	0.586822
	N239	N	0.035116	0.305097	0.413184
	N240	N	0.964072	0.398181	0.681268
	N241	N	0.034346	0.573467	0.682355
	N242	N	0.964122	0.574486	0.318546
	N243	N	0.035022	0.398835	0.319781
	N244	N	0.412459	0.665020	0.963785
	N245	N	0.583484	0.664534	0.037664
	N246	N	0.583202	0.310018	0.965598
	N247	N	0.411841	0.307947	0.036848
	N248	N	0.680420	0.950262	0.410867
	N249	N	0.680101	0.021063	0.586293
	N250	N	0.317238	0.951174	0.588729
	N251	N	0.317082	0.020434	0.410900
	N252	N	0.913910	0.449826	0.178727
	N253	N	0.085514	0.522455	0.179912
	N254	N	0.082337	0.449239	0.824354
	N255	N	0.911079	0.521629	0.820850
	N256	N	0.180670	0.897500	0.465280
	N257	N	0.181960	0.075253	0.534193
	N258	N	0.817891	0.073127	0.463282
	N259	N	0.817649	0.897339	0.533695
	N260	N	0.463439	0.168463	0.912509
	N261	N	0.534204	0.166334	0.086594
	N262	N	0.462344	0.806959	0.086653
	N263	N	0.532853	0.806047	0.913226
	N264	N	0.463636	0.898609	0.181911
	N265	N	0.534183	0.073290	0.180553
	N266	N	0.464361	0.076725	0.817270
	N267	N	0.534463	0.900911	0.820881
	N268	N	0.914124	0.163389	0.462748
	N269	N	0.084233	0.162999	0.536827
	N270	N	0.084408	0.808432	0.463818
	N271	N	0.912802	0.807449	0.535553
	N272	N	0.178989	0.451554	0.913511
	N273	N	0.179856	0.521516	0.088889
	N274	N	0.817944	0.452066	0.089198
	N275	N	0.817342	0.521466	0.913235
	O276	O	0.494841	0.549231	0.367025
	H277	H	0.514602	0.539805	0.368953
	H278	H	0.511021	0.558476	0.377234
	O279	O	1.018796	-0.121255	0.836172
	H280	H	1.028751	-0.109086	0.837086
	H281	H	1.030531	-0.133313	0.819890
	O282	O	0.705250	0.284774	0.378377
	H283	H	0.724241	0.257275	0.384195
	H284	H	0.667257	0.283753	0.368655
	O285	O	0.479128	0.280646	0.511779
	H286	H	0.472288	0.284939	0.522712
	H287	H	0.476526	0.280932	0.531291
	O288	O	0.819120	0.980054	0.064770
	H289	H	0.820560	0.979241	0.078308
	H290	H	0.822193	0.998606	0.063869
	O291	O	0.332724	0.586093	0.437216
	H292	H	0.348021	0.609801	0.429959
	H293	H	0.335956	0.575762	0.440794
	O294	O	0.049837	-0.050754	0.968673
	H295	H	0.041219	-0.057263	0.971883
	H296	H	0.037854	-0.043609	0.971527
	O297	O	0.793620	0.958561	1.198030
	H298	H	0.778095	0.965109	1.213070
	H299	H	0.804064	0.947171	1.200341
	O300	O	0.495299	0.681814	0.490874
	H301	H	0.516546	0.694862	0.509195
	H302	H	0.502626	0.677617	0.499025
	O303	O	0.670800	0.472783	0.548204
	H304	H	0.681919	0.474503	0.563019
	H305	H	0.676890	0.461791	0.531008
	O306	O	0.597825	0.288780	0.313806
	H307	H	0.564032	0.307224	0.310134
	H308	H	0.591456	0.287383	0.315463
	O309	O	0.288193	0.511472	0.293651
	H310	H	0.286572	0.507578	0.307785
	H311	H	0.270101	0.502805	0.282408
	O312	O	0.187182	0.913986	1.062005
	H313	H	0.199160	0.906674	1.066484
	H314	H	0.182176	0.934078	1.061736
	O315	O	0.351780	0.514307	0.699129
	H316	H	0.346808	0.522405	0.706167
	H317	H	0.355839	0.520649	0.691155
	O318	O	0.925803	-0.223050	0.028859
	H319	H	0.927300	-0.221864	0.026815
	H320	H	0.938588	-0.227660	0.027031
	O321	O	-0.053147	0.172499	0.067128
	H322	H	-0.055686	0.177075	0.071997
	H323	H	-0.056009	0.173761	0.082488
	O324	O	0.707030	0.510145	0.713578
	H325	H	0.717621	0.519760	0.725900
	H326	H	0.713194	0.531435	0.717724
	O327	O	0.641360	0.334225	0.552987
	H328	H	0.648103	0.345975	0.544472
	H329	H	0.619040	0.316186	0.550340
	O330	O	0.182369	1.004462	0.192929
	H331	H	0.166869	1.002425	0.180559
	H332	H	0.202289	1.005552	0.209718
	O333	O	0.493826	0.484794	0.358147
	H334	H	0.484613	0.496436	0.357262
	H335	H	0.493251	0.481225	0.361239
	O336	O	0.200555	-0.020271	-0.194463
	H337	H	0.206695	-0.030886	-0.200585
	H338	H	0.200177	-0.027927	-0.183683
	O339	O	-0.142650	1.072104	0.939878
	H340	H	-0.127360	1.082871	0.938416
	H341	H	-0.160210	1.061217	0.948205
	O342	O	0.237700	1.204704	0.756752
	H343	H	0.247399	1.201952	0.766564
	H344	H	0.245116	1.210490	0.753916
	O345	O	1.180400	1.131627	0.124343
	H346	H	1.188306	1.140615	0.113256
	H347	H	1.190344	1.128432	0.104016
	O348	O	0.564326	0.528126	0.440937
	H349	H	0.550170	0.549979	0.426087
	H350	H	0.582032	0.517996	0.439347
	O351	O	0.305638	1.357858	1.700379
	H352	H	0.288459	1.370152	1.693976
	H353	H	0.309571	1.367290	1.691562
	O354	O	0.033302	0.919816	0.131205
	H355	H	0.027825	0.941676	0.145472
	H356	H	0.022930	0.920142	0.124615
	O357	O	0.175493	-0.183916	0.828938
	H358	H	0.170993	-0.194562	0.853984
	H359	H	0.184831	-0.168883	0.846391
	O360	O	0.316674	0.450254	0.514517
	H361	H	0.313900	0.451963	0.504191
	H362	H	0.321417	0.454121	0.539996
	O363	O	0.030850	-0.128628	1.164541
	H364	H	0.049836	-0.125547	1.147661
	H365	H	0.025793	-0.141900	1.178062
	O366	O	0.690348	0.679428	0.696249
	H367	H	0.682211	0.674155	0.677559
	H368	H	0.702804	0.702754	0.708419
	O369	O	0.835482	0.795082	-0.111455
	H370	H	0.837059	0.804973	-0.099792
	H371	H	0.846379	0.799129	-0.113908
	O372	O	1.035780	0.162755	0.807967
	H373	H	1.043589	0.133826	0.804808
	H374	H	1.035854	0.183093	0.799009
	O375	O	0.097476	0.956979	0.946472
	H376	H	0.100725	0.965197	0.965895
	H377	H	0.088732	0.947663	0.949757
	O378	O	1.199357	0.787797	0.984510
	H379	H	1.200031	0.790315	1.003783
	H380	H	1.201000	0.785922	0.999243
	O381	O	0.527994	0.651511	0.317618
	H382	H	0.519172	0.648087	0.325729
	H383	H	0.522490	0.668818	0.300379
	O384	O	0.020745	0.937368	0.948399
	H385	H	0.011681	0.915459	0.943248
	H386	H	0.004800	0.955412	0.949201
	O387	O	0.168669	0.152504	1.042477
	H388	H	0.176336	0.162862	1.022250
	H389	H	0.158910	0.155271	1.039338
	O390	O	-0.201678	0.177716	-0.021354
	H391	H	-0.210035	0.186164	-0.039907
	H392	H	-0.196235	0.169454	-0.012858
	O393	O	0.883692	1.179200	0.829557
	H394	H	0.888659	1.158222	0.832683
	H395	H	0.899895	1.193147	0.817859
	O396	O	0.673837	0.415751	0.287894
	H397	H	0.668377	0.389098	0.296769
	H398	H	0.693605	0.413896	0.264281
	O399	O	0.443007	0.509599	0.596671
	H400	H	0.456200	0.499375	0.594393
	H401	H	0.430079	0.498898	0.577060
	O402	O	0.889627	0.796236	1.190804
	H403	H	0.884805	0.798857	1.179578
	H404	H	0.909153	0.791649	1.198684
	O405	O	0.504402	0.603149	-0.444405
	H406	H	0.512471	0.601990	-0.445071
	H407	H	0.508559	0.599835	-0.440578
	O408	O	0.895953	-0.071277	-0.100499
	H409	H	0.895874	-0.066130	-0.089891
	H410	H	0.891812	-0.073927	-0.110955
	O411	O	1.025818	1.190816	0.207056
	H412	H	1.056798	1.198892	0.218353
	H413	H	1.039299	1.199433	0.208997
	O414	O	0.621861	0.531050	0.363827
	H415	H	0.632138	0.523518	0.358834
	H416	H	0.609683	0.526915	0.350759
	O417	O	0.794953	0.849152	0.003104
	H418	H	0.781571	0.841267	-0.012062
	H419	H	0.795499	0.869233	0.014966
	O420	O	-0.100474	0.112726	0.186494
	H421	H	-0.105144	0.118735	0.187641
	H422	H	-0.104795	0.109761	0.180073
	O423	O	0.475469	0.301663	0.718439
	H424	H	0.476074	0.280640	0.750825
	H425	H	0.457629	0.319554	0.716849
	O426	O	0.520666	0.687519	0.694083
	H427	H	0.521210	0.710284	0.724356
	H428	H	0.525642	0.670607	0.686778
	O429	O	0.401494	0.371875	0.391377
	H430	H	0.414871	0.370751	0.402274
	H431	H	0.408525	0.372102	0.410791
	O432	O	0.717730	0.700558	0.531829
	H433	H	0.732200	0.715677	0.521555
	H434	H	0.728252	0.699873	0.541044
	O435	O	0.284049	0.274766	0.526075
	H436	H	0.282162	0.278101	0.528147
	H437	H	0.274163	0.252331	0.534118
	O438	O	-0.163777	0.022645	-0.203601
	H439	H	-0.177360	0.033155	-0.222476
	H440	H	-0.156366	0.036944	-0.198174
	O441	O	1.042612	0.095630	-0.055830
	H442	H	1.050473	0.105830	-0.056282
	H443	H	1.037997	0.103326	-0.067234
	O444	O	0.550893	0.304108	0.564748
	H445	H	0.558557	0.305610	0.561163
	H446	H	0.542583	0.308568	0.566405
	O447	O	0.350042	0.635742	0.297626
	H448	H	0.368055	0.638233	0.312890
	H449	H	0.346322	0.607503	0.304366
	O450	O	0.623901	0.367168	0.689251
	H451	H	0.641130	0.381238	0.694822
	H452	H	0.620870	0.377257	0.678808
	O453	O	0.305885	0.675333	0.501058
	H454	H	0.319566	0.682777	0.493818
	H455	H	0.299583	0.693011	0.497395
