data_Molecule from HDF5

_cell_length_a		16.320192
_cell_length_b		16.460785
_cell_length_c		16.410028
_cell_angle_alpha	89.961739
_cell_angle_beta	90.097412
_cell_angle_gamma	90.123926
_symmetry_space_group_name_H-M	'P 1'
_symmetry_Int_Tables_number		1

loop_
	_symmetry_equiv_pos_as_xyz
	x,y,z

loop_
	_atom_site_label
	_atom_site_type_symbol
	_atom_site_fract_x
	_atom_site_fract_y
	_atom_site_fract_z
	H0	H	0.393807	0.828727	0.718603
	H1	H	0.605306	0.146168	0.721438
	H2	H	0.603053	0.830342	0.276747
	H3	H	0.389529	0.145870	0.275005
	H4	H	0.717981	0.380804	0.840548
	H5	H	0.714495	0.588739	0.158206
	H6	H	0.271785	0.591551	0.841076
	H7	H	0.277050	0.382047	0.160030
	H8	H	0.838650	0.707468	0.395819
	H9	H	0.158071	0.706769	0.606920
	H10	H	0.839526	0.263527	0.604732
	H11	H	0.158183	0.266634	0.393277
	H12	H	0.837908	0.378996	0.719760
	H13	H	0.156818	0.591334	0.722663
	H14	H	0.837146	0.589762	0.282184
	H15	H	0.157800	0.383076	0.279967
	H16	H	0.385650	0.710424	0.841274
	H17	H	0.600031	0.707604	0.156591
	H18	H	0.601014	0.265949	0.840105
	H19	H	0.388411	0.262298	0.156342
	H20	H	0.716645	0.828414	0.396669
	H21	H	0.719940	0.146229	0.603646
	H22	H	0.278330	0.828826	0.603346
	H23	H	0.277478	0.146979	0.395283
	H24	H	0.891016	0.326476	0.221703
	H25	H	0.099648	0.644894	0.218579
	H26	H	0.103891	0.328247	0.776837
	H27	H	0.887399	0.642899	0.774149
	H28	H	0.217796	0.885284	0.340629
	H29	H	0.220145	0.091861	0.659502
	H30	H	0.777597	0.092724	0.340569
	H31	H	0.777040	0.881857	0.658569
	H32	H	0.337612	0.208312	0.891438
	H33	H	0.655172	0.210371	0.104654
	H34	H	0.336854	0.769302	0.102019
	H35	H	0.655149	0.765120	0.891710
	H36	H	0.337891	0.884752	0.218446
	H37	H	0.656215	0.095712	0.220879
	H38	H	0.337336	0.090609	0.777903
	H39	H	0.658339	0.885800	0.782390
	H40	H	0.894044	0.208158	0.340584
	H41	H	0.107596	0.210927	0.657638
	H42	H	0.104997	0.766009	0.342001
	H43	H	0.891422	0.764376	0.657303
	H44	H	0.217317	0.327301	0.895680
	H45	H	0.217032	0.643914	0.103900
	H46	H	0.774683	0.326474	0.104228
	H47	H	0.776367	0.645124	0.894703
	H48	H	0.403851	0.103729	0.588945
	H49	H	0.584247	0.876372	0.588409
	H50	H	0.587278	0.101977	0.408198
	H51	H	0.410475	0.877822	0.414546
	H52	H	0.585747	0.396934	0.113385
	H53	H	0.582626	0.574483	0.885336
	H54	H	0.403083	0.575899	0.112792
	H55	H	0.412931	0.400008	0.889063
	H56	H	0.112136	0.573918	0.409436
	H57	H	0.882679	0.576712	0.589950
	H58	H	0.113468	0.398431	0.590538
	H59	H	0.885742	0.397216	0.416740
	H60	H	0.110648	0.399306	0.586314
	H61	H	0.884614	0.578358	0.583938
	H62	H	0.115108	0.579284	0.405849
	H63	H	0.884111	0.400739	0.408035
	H64	H	0.410242	0.574682	0.109717
	H65	H	0.584651	0.579629	0.883616
	H66	H	0.583993	0.399463	0.110532
	H67	H	0.406143	0.393057	0.883795
	H68	H	0.587599	0.101118	0.409779
	H69	H	0.591263	0.873988	0.587959
	H70	H	0.414879	0.100903	0.595174
	H71	H	0.403772	0.873537	0.407213
	H72	H	0.902914	0.599751	0.090799
	H73	H	0.085819	0.372254	0.087499
	H74	H	0.077536	0.593865	0.916785
	H75	H	0.910646	0.375927	0.915450
	H76	H	0.091792	0.902827	0.613224
	H77	H	0.084150	0.087740	0.384302
	H78	H	0.911671	0.083249	0.614850
	H79	H	0.909213	0.893520	0.385334
	H80	H	0.609796	0.072018	0.910284
	H81	H	0.382856	0.068390	0.094757
	H82	H	0.611547	0.891331	0.082515
	H83	H	0.381450	0.896053	0.906223
	H84	H	0.608223	0.904580	0.082840
	H85	H	0.380087	0.085119	0.087543
	H86	H	0.613252	0.080252	0.907498
	H87	H	0.382128	0.896590	0.909531
	H88	H	0.904649	0.071338	0.612717
	H89	H	0.098298	0.075056	0.383794
	H90	H	0.082292	0.897418	0.611901
	H91	H	0.905685	0.900185	0.385983
	H92	H	0.089722	0.598483	0.915555
	H93	H	0.089904	0.369211	0.093359
	H94	H	0.906039	0.599842	0.094160
	H95	H	0.904215	0.373234	0.911949
	H96	H	0.413093	0.098138	0.582624
	H97	H	0.587500	0.873135	0.594467
	H98	H	0.589030	0.102043	0.409051
	H99	H	0.414281	0.875742	0.404743
	H100	H	0.581984	0.395661	0.111901
	H101	H	0.588103	0.575246	0.884100
	H102	H	0.409047	0.581348	0.113333
	H103	H	0.402389	0.402768	0.886916
	H104	H	0.112735	0.580319	0.412081
	H105	H	0.885784	0.571853	0.586574
	H106	H	0.111165	0.402587	0.590289
	H107	H	0.881965	0.391787	0.410072
	H108	H	0.907013	0.597433	0.090375
	H109	H	0.082349	0.371530	0.094567
	H110	H	0.081497	0.599381	0.905120
	H111	H	0.910708	0.373692	0.908250
	H112	H	0.090992	0.892440	0.616578
	H113	H	0.081447	0.069977	0.391582
	H114	H	0.918400	0.072386	0.609167
	H115	H	0.912988	0.899747	0.387889
	H116	H	0.609875	0.079466	0.915233
	H117	H	0.387627	0.072249	0.077698
	H118	H	0.613792	0.899109	0.093806
	H119	H	0.382203	0.899138	0.907159
	C120	C	0.377870	-0.003971	0.620353
	C121	C	0.620290	0.979278	0.621863
	C122	C	0.619397	-0.003204	0.377210
	C123	C	0.376506	0.979981	0.377152
	C124	C	0.616834	0.365292	0.007109
	C125	C	0.617313	0.608310	0.989295
	C126	C	0.373411	0.609028	0.007512
	C127	C	0.374757	0.365472	0.991215
	C128	C	0.007122	0.608839	0.378329
	C129	C	0.989467	0.607973	0.620790
	C130	C	0.006628	0.365727	0.621042
	C131	C	0.989712	0.365231	0.379303
	C132	C	0.873552	0.493958	0.123150
	C133	C	0.117600	0.476510	0.122202
	C134	C	0.116588	0.493565	0.879528
	C135	C	0.874970	0.478125	0.878095
	C136	C	0.120117	0.866163	0.508820
	C137	C	0.120997	0.109715	0.491371
	C138	C	0.878418	0.108441	0.507587
	C139	C	0.876776	0.865544	0.491125
	C140	C	0.505392	0.108539	0.877953
	C141	C	0.488141	0.108867	0.119834
	C142	C	0.505510	0.867460	0.118332
	C143	C	0.487510	0.865331	0.876280
	C144	C	0.375403	0.876496	0.679390
	C145	C	0.622987	0.098589	0.681502
	C146	C	0.621227	0.877616	0.317147
	C147	C	0.372916	0.098615	0.316097
	C148	C	0.677578	0.363007	0.887881
	C149	C	0.675823	0.608782	0.109864
	C150	C	0.311880	0.610635	0.888758
	C151	C	0.315834	0.363113	0.111354
	C152	C	0.886851	0.668036	0.377046
	C153	C	0.109659	0.667562	0.624754
	C154	C	0.887280	0.303681	0.623124
	C155	C	0.110317	0.306498	0.376181
	C156	C	0.886331	0.361292	0.680462
	C157	C	0.109028	0.609912	0.682424
	C158	C	0.885759	0.608819	0.320839
	C159	C	0.110092	0.364472	0.319659
	C160	C	0.368973	0.669710	0.888841
	C161	C	0.618625	0.667463	0.109257
	C162	C	0.619532	0.305543	0.887874
	C163	C	0.371702	0.303824	0.109810
	C164	C	0.677779	0.876752	0.376821
	C165	C	0.679962	0.098971	0.622783
	C166	C	0.318002	0.876550	0.621587
	C167	C	0.317025	0.099216	0.375998
	C168	C	0.871979	0.374348	0.182318
	C169	C	0.118775	0.596878	0.179898
	C170	C	0.120385	0.375287	0.818207
	C171	C	0.870749	0.595898	0.815701
	C172	C	0.178947	0.865468	0.388557
	C173	C	0.180857	0.110870	0.611396
	C174	C	0.817635	0.111133	0.388350
	C175	C	0.816624	0.863620	0.610640
	C176	C	0.385196	0.168078	0.874301
	C177	C	0.607626	0.170378	0.122663
	C178	C	0.385039	0.808547	0.120401
	C179	C	0.607551	0.805283	0.874171
	C180	C	0.385533	0.866132	0.178363
	C181	C	0.608140	0.112890	0.180298
	C182	C	0.385236	0.109516	0.817810
	C183	C	0.609150	0.865433	0.819619
	C184	C	0.875666	0.168755	0.388403
	C185	C	0.125066	0.170504	0.610321
	C186	C	0.122503	0.806323	0.389414
	C187	C	0.873728	0.804956	0.610028
	C188	C	0.177326	0.374798	0.877105
	C189	C	0.177130	0.596442	0.122832
	C190	C	0.814200	0.374273	0.123544
	C191	C	0.815336	0.597348	0.875862
	C192	C	0.403221	0.079179	0.595972
	C193	C	0.594956	0.896121	0.597276
	C194	C	0.594964	0.080028	0.401719
	C195	C	0.402041	0.897219	0.401903
	C196	C	0.591449	0.390141	0.090201
	C197	C	0.592305	0.583667	0.905955
	C198	C	0.399838	0.584271	0.090392
	C199	C	0.399933	0.391311	0.908227
	C200	C	0.091393	0.584984	0.402197
	C201	C	0.906115	0.583079	0.594233
	C202	C	0.090014	0.392331	0.596169
	C203	C	0.905930	0.389324	0.404452
	C204	C	0.898155	0.577452	0.098846
	C205	C	0.093197	0.392966	0.098502
	C206	C	0.090501	0.575960	0.905255
	C207	C	0.901005	0.395714	0.904466
	C208	C	0.095542	0.890660	0.592137
	C209	C	0.095425	0.084830	0.408298
	C210	C	0.904101	0.082940	0.590559
	C211	C	0.902008	0.890616	0.407931
	C212	C	0.588950	0.084238	0.903748
	C213	C	0.405149	0.082876	0.094013
	C214	C	0.589382	0.891712	0.093447
	C215	C	0.403760	0.889919	0.900611
	Zn216	Zn	0.498137	-0.012216	0.749670
	Zn217	Zn	0.497641	-0.011544	0.247818
	Zn218	Zn	0.745766	0.486078	-0.000842
	Zn219	Zn	0.245764	0.485239	0.000648
	Zn220	Zn	-0.001262	0.737005	0.500453
	Zn221	Zn	-0.000501	0.237733	0.500044
	Zn222	Zn	-0.003459	0.485943	0.748846
	Zn223	Zn	-0.003213	0.485274	0.251498
	Zn224	Zn	0.496280	0.737823	-0.002062
	Zn225	Zn	0.495541	0.236963	-0.001666
	Zn226	Zn	0.748560	-0.011828	0.499721
	Zn227	Zn	0.248586	-0.012083	0.499648
	N228	N	0.411968	0.951789	0.678732
	N229	N	0.586731	0.023092	0.681060
	N230	N	0.586281	0.953440	0.316866
	N231	N	0.409304	0.023318	0.316655
	N232	N	0.676098	0.399325	0.963204
	N233	N	0.675207	0.572822	0.034475
	N234	N	0.314587	0.573481	0.963749
	N235	N	0.317811	0.400779	0.036781
	N236	N	0.963561	0.668386	0.411758
	N237	N	0.034342	0.666252	0.587072
	N238	N	0.963210	0.306341	0.587033
	N239	N	0.034460	0.306896	0.412633
	N240	N	0.961635	0.398724	0.679490
	N241	N	0.033124	0.573512	0.680178
	N242	N	0.961646	0.573015	0.321126
	N243	N	0.034250	0.400379	0.321545
	N244	N	0.406788	0.668564	0.963654
	N245	N	0.583143	0.667339	0.033264
	N246	N	0.582489	0.307028	0.962866
	N247	N	0.407494	0.305119	0.033926
	N248	N	0.677101	0.951920	0.413230
	N249	N	0.678514	0.023799	0.586360
	N250	N	0.319469	0.951962	0.585495
	N251	N	0.319130	0.024675	0.413331
	N252	N	0.907889	0.449913	0.182196
	N253	N	0.082226	0.521575	0.179399
	N254	N	0.083033	0.450032	0.819827
	N255	N	0.907090	0.520774	0.816981
	N256	N	0.177664	0.901871	0.463745
	N257	N	0.178658	0.073953	0.536310
	N258	N	0.819416	0.074285	0.463369
	N259	N	0.818258	0.900573	0.535420
	N260	N	0.460857	0.167620	0.911072
	N261	N	0.532033	0.168183	0.085806
	N262	N	0.460677	0.809170	0.083928
	N263	N	0.530816	0.804713	0.908490
	N264	N	0.461664	0.901795	0.177468
	N265	N	0.532900	0.075678	0.178827
	N266	N	0.460893	0.073164	0.820063
	N267	N	0.533484	0.901768	0.820679
	N268	N	0.912890	0.167227	0.463652
	N269	N	0.088731	0.169997	0.534795
	N270	N	0.086876	0.806377	0.465302
	N271	N	0.910560	0.806180	0.534864
	N272	N	0.175035	0.449378	0.914631
	N273	N	0.176907	0.520504	0.088041
	N274	N	0.814866	0.449673	0.087593
	N275	N	0.817716	0.522963	0.913891
	O276	O	0.527714	0.436313	0.464034
	H277	H	0.525402	0.429516	0.472080
	H278	H	0.519516	0.443910	0.464217
	O279	O	0.376215	0.547865	0.592990
	H280	H	0.369945	0.545897	0.601042
	H281	H	0.397055	0.547864	0.598202
	O282	O	0.462555	0.616437	0.569706
	H283	H	0.478733	0.606766	0.569571
	H284	H	0.455720	0.618770	0.567576
	O285	O	0.802442	0.796388	0.190795
	H286	H	0.803040	0.768933	0.210878
	H287	H	0.795232	0.786341	0.136081
	O288	O	0.331345	0.314394	0.578219
	H289	H	0.332928	0.325120	0.574924
	H290	H	0.321573	0.314797	0.575106
	O291	O	0.682135	0.680903	0.511965
	H292	H	0.669047	0.691104	0.489218
	H293	H	0.685856	0.680503	0.499835
	O294	O	0.916605	0.844094	0.907618
	H295	H	0.936394	0.866891	0.901327
	H296	H	0.931907	0.843777	0.909400
	O297	O	0.414331	0.451085	0.558897
	H298	H	0.415739	0.456750	0.556231
	H299	H	0.412694	0.437438	0.563359
	O300	O	0.428859	0.528790	0.354318
	H301	H	0.423256	0.527108	0.354230
	H302	H	0.407210	0.540958	0.358345
	O303	O	0.579752	0.522631	0.356596
	H304	H	0.577794	0.512772	0.349538
	H305	H	0.588396	0.515263	0.354944
	O306	O	0.129030	-0.005567	0.893605
	H307	H	0.121953	-0.004667	0.906856
	H308	H	0.118498	0.019340	0.880702
	O309	O	0.831415	-0.045472	-0.150743
	H310	H	0.835710	-0.041880	-0.166346
	H311	H	0.841220	-0.053793	-0.140443
	O312	O	0.159105	0.894456	0.807543
	H313	H	0.163308	0.901942	0.824510
	H314	H	0.159085	0.917738	0.810493
	O315	O	0.817322	1.158847	-0.091063
	H316	H	0.825141	1.151249	-0.081350
	H317	H	0.788841	1.168084	-0.085522
	O318	O	0.147478	0.165984	0.163652
	H319	H	0.115133	0.158649	0.176281
	H320	H	0.143541	0.136643	0.176713
	O321	O	0.483352	0.570584	0.318138
	H322	H	0.479955	0.569069	0.318947
	H323	H	0.466345	0.549435	0.308705
	O324	O	1.087570	-0.035475	1.006381
	H325	H	1.077226	-0.035964	1.012330
	H326	H	1.079974	-0.033162	0.998516
	O327	O	0.414843	0.617200	0.526095
	H328	H	0.414491	0.629644	0.529923
	H329	H	0.399831	0.608037	0.519334
	O330	O	0.033668	0.813238	1.151199
	H331	H	0.023670	0.796541	1.163623
	H332	H	0.005708	0.807454	1.146005
	O333	O	0.187743	0.996949	0.191837
	H334	H	0.204468	0.997504	0.191288
	H335	H	0.171479	0.982636	0.177358
	O336	O	1.053439	1.164342	-0.020167
	H337	H	1.060050	1.165047	-0.026039
	H338	H	1.063887	1.167611	-0.034680
	O339	O	-0.089158	1.190590	0.809235
	H340	H	-0.098625	1.200383	0.784870
	H341	H	-0.107423	1.179652	0.821406
	O342	O	0.597754	0.474113	0.571875
	H343	H	0.592866	0.476983	0.569752
	H344	H	0.609403	0.485416	0.594223
	O345	O	-0.151163	0.083224	0.807567
	H346	H	-0.152156	0.055989	0.809602
	H347	H	-0.156511	0.081068	0.829964
	O348	O	0.302270	0.668306	0.371382
	H349	H	0.302465	0.670877	0.401224
	H350	H	0.283671	0.672681	0.358842
	O351	O	0.794254	0.834650	0.005313
	H352	H	0.780684	0.839158	0.005914
	H353	H	0.803623	0.825336	-0.008322
	O354	O	1.019089	0.773248	0.877723
	H355	H	1.046775	0.779356	0.889888
	H356	H	1.025093	0.749815	0.855651
	O357	O	-0.503780	0.656140	-0.289071
	H358	H	-0.490748	0.656180	-0.270673
	H359	H	-0.505515	0.649454	-0.283265
	O360	O	0.688940	0.373630	0.298172
	H361	H	0.689893	0.363101	0.282790
	H362	H	0.693478	0.367520	0.301084
	O363	O	1.013295	-0.219450	0.118474
	H364	H	1.010305	-0.209130	0.132451
	H365	H	1.002129	-0.222808	0.130147
	O366	O	-0.222416	-0.039119	1.218571
	H367	H	-0.234126	-0.066996	1.229938
	H368	H	-0.235683	-0.067591	1.234100
	O369	O	1.211676	0.173392	1.009874
	H370	H	1.204702	0.172375	1.038868
	H371	H	1.235800	0.193644	1.018775
	O372	O	0.606764	0.376261	0.549280
	H373	H	0.611714	0.386236	0.553539
	H374	H	0.610069	0.390294	0.558151
	O375	O	-0.115934	-0.009566	0.995349
	H376	H	-0.114495	-0.001405	0.994521
	H377	H	-0.107776	-0.019486	1.006314
	O378	O	0.355776	0.332806	0.477696
	H379	H	0.363089	0.331438	0.483082
	H380	H	0.356766	0.333091	0.490368
	O381	O	0.047685	0.788811	-0.029814
	H382	H	0.047811	0.770655	-0.024686
	H383	H	0.052697	0.789794	-0.026673
	O384	O	0.376966	0.381736	0.693542
	H385	H	0.369930	0.375380	0.696583
	H386	H	0.351553	0.374715	0.685334
	O387	O	0.578397	0.555786	0.403002
	H388	H	0.596814	0.551650	0.397992
	H389	H	0.585122	0.559227	0.415211
	O390	O	1.064224	0.931412	-0.046482
	H391	H	1.060831	0.951801	-0.046230
	H392	H	1.061279	0.927238	-0.058075
	O393	O	1.141144	-0.087379	0.826527
	H394	H	1.153461	-0.073854	0.811553
	H395	H	1.150733	-0.079196	0.838328
	O396	O	0.608833	0.419516	0.611233
	H397	H	0.613692	0.414392	0.620278
	H398	H	0.615625	0.417876	0.617841
	O399	O	0.381018	0.338363	0.498490
	H400	H	0.366099	0.353560	0.501462
	H401	H	0.372048	0.336637	0.476094
	O402	O	0.802986	1.093497	0.033511
	H403	H	0.789865	1.085515	0.060481
	H404	H	0.819293	1.093353	0.032404
	O405	O	0.626228	0.290969	0.339464
	H406	H	0.626281	0.273009	0.351126
	H407	H	0.599249	0.285796	0.360153
	O408	O	0.703775	0.516977	0.704802
	H409	H	0.726978	0.536088	0.723280
	H410	H	0.702329	0.545991	0.701511
	O411	O	1.122066	0.849764	1.190868
	H412	H	1.115620	0.869057	1.172001
	H413	H	1.103759	0.868388	1.183993
	O414	O	0.661884	0.672547	0.672769
	H415	H	0.665509	0.681874	0.621981
	H416	H	0.638892	0.689661	0.689205
	O417	O	-0.057637	1.044223	1.190569
	H418	H	-0.073394	1.028523	1.185587
	H419	H	-0.065801	1.042128	1.189981
	O420	O	-0.021246	1.175026	0.968855
	H421	H	-0.027451	1.194615	0.946049
	H422	H	-0.009403	1.172324	0.985038
	O423	O	0.051828	0.905918	-0.111309
	H424	H	0.057869	0.894624	-0.109888
	H425	H	0.054748	0.926118	-0.123417
	O426	O	0.455248	0.363450	0.301175
	H427	H	0.456272	0.352272	0.286384
	H428	H	0.466352	0.369440	0.293861
	O429	O	0.296795	0.668154	0.415224
	H430	H	0.282961	0.684703	0.421503
	H431	H	0.307267	0.658746	0.427289
	O432	O	0.622272	0.617558	0.388241
	H433	H	0.612210	0.591578	0.391362
	H434	H	0.606596	0.607834	0.387935
	O435	O	0.407817	0.507787	0.482947
	H436	H	0.405748	0.505715	0.468449
	H437	H	0.417522	0.515215	0.480791
	O438	O	0.008144	1.188180	1.163462
	H439	H	0.012782	1.207748	1.183650
	H440	H	-0.011516	1.166108	1.161415
	O441	O	0.548408	0.302589	0.561717
	H442	H	0.565289	0.295997	0.562137
	H443	H	0.538990	0.298772	0.543051
