data_Molecule from HDF5

_cell_length_a		16.379676
_cell_length_b		16.242471
_cell_length_c		16.132305
_cell_angle_alpha	89.625711
_cell_angle_beta	90.150044
_cell_angle_gamma	89.461958
_symmetry_space_group_name_H-M	'P 1'
_symmetry_Int_Tables_number		1

loop_
	_symmetry_equiv_pos_as_xyz
	x,y,z

loop_
	_atom_site_label
	_atom_site_type_symbol
	_atom_site_fract_x
	_atom_site_fract_y
	_atom_site_fract_z
	H0	H	0.397447	0.838745	0.709809
	H1	H	0.588978	0.167113	0.711541
	H2	H	0.590353	0.837584	0.288755
	H3	H	0.392241	0.166036	0.279332
	H4	H	0.707616	0.401157	0.833342
	H5	H	0.706686	0.601684	0.160664
	H6	H	0.274102	0.605544	0.833021
	H7	H	0.274921	0.400717	0.161122
	H8	H	0.829881	0.725001	0.396892
	H9	H	0.154784	0.720430	0.598080
	H10	H	0.828548	0.291441	0.596729
	H11	H	0.152234	0.286296	0.395285
	H12	H	0.828497	0.409164	0.710725
	H13	H	0.155726	0.601178	0.711768
	H14	H	0.828520	0.608991	0.280430
	H15	H	0.154639	0.408394	0.283841
	H16	H	0.389555	0.719523	0.833556
	H17	H	0.588122	0.711905	0.162728
	H18	H	0.588505	0.290099	0.831832
	H19	H	0.394137	0.287633	0.162099
	H20	H	0.712391	0.841932	0.395430
	H21	H	0.704966	0.168222	0.596993
	H22	H	0.274952	0.842749	0.600812
	H23	H	0.274059	0.166744	0.391393
	H24	H	0.893569	0.342848	0.213726
	H25	H	0.088787	0.670186	0.208153
	H26	H	0.089778	0.340087	0.785293
	H27	H	0.892828	0.669853	0.782652
	H28	H	0.210599	0.902827	0.333800
	H29	H	0.209077	0.107212	0.659392
	H30	H	0.773749	0.108694	0.332577
	H31	H	0.779464	0.905586	0.661239
	H32	H	0.331031	0.221780	0.894282
	H33	H	0.654398	0.217686	0.100977
	H34	H	0.328344	0.786792	0.098111
	H35	H	0.654130	0.782656	0.898082
	H36	H	0.330046	0.901278	0.215948
	H37	H	0.656102	0.095787	0.211681
	H38	H	0.330421	0.103205	0.780860
	H39	H	0.656762	0.903111	0.784684
	H40	H	0.889364	0.223868	0.332215
	H41	H	0.089003	0.216864	0.661615
	H42	H	0.094198	0.789839	0.333123
	H43	H	0.895098	0.791012	0.661355
	H44	H	0.209268	0.341930	0.894444
	H45	H	0.208149	0.666390	0.098232
	H46	H	0.779787	0.340571	0.098607
	H47	H	0.770591	0.666579	0.893416
	H48	H	0.403932	0.117810	0.582861
	H49	H	0.599788	0.883633	0.591983
	H50	H	0.588759	0.119599	0.412786
	H51	H	0.404139	0.891902	0.416481
	H52	H	0.587179	0.404231	0.116616
	H53	H	0.575871	0.593735	0.881303
	H54	H	0.390834	0.586023	0.114906
	H55	H	0.403186	0.409602	0.880408
	H56	H	0.111001	0.609790	0.401588
	H57	H	0.876118	0.596208	0.593920
	H58	H	0.107103	0.407578	0.587030
	H59	H	0.875190	0.412784	0.405851
	H60	H	0.106204	0.413345	0.590766
	H61	H	0.875586	0.606940	0.588361
	H62	H	0.103908	0.595806	0.412645
	H63	H	0.877992	0.417670	0.407801
	H64	H	0.407282	0.590296	0.110841
	H65	H	0.584663	0.594727	0.877268
	H66	H	0.589458	0.411350	0.115302
	H67	H	0.394808	0.412053	0.877973
	H68	H	0.586821	0.122894	0.394600
	H69	H	0.580562	0.887005	0.599288
	H70	H	0.391407	0.121931	0.586184
	H71	H	0.391357	0.884143	0.409722
	H72	H	0.892287	0.623918	0.088950
	H73	H	0.082535	0.390668	0.083759
	H74	H	0.079905	0.619925	0.905822
	H75	H	0.906576	0.387065	0.893513
	H76	H	0.079795	0.905680	0.614819
	H77	H	0.086233	0.094003	0.379406
	H78	H	0.889554	0.092625	0.614842
	H79	H	0.905714	0.922342	0.382808
	H80	H	0.609213	0.097184	0.905127
	H81	H	0.381737	0.087608	0.080339
	H82	H	0.605443	0.905724	0.086131
	H83	H	0.376052	0.904942	0.905329
	H84	H	0.607518	0.909216	0.095218
	H85	H	0.376985	0.090450	0.096387
	H86	H	0.606692	0.094018	0.907472
	H87	H	0.379195	0.913268	0.908403
	H88	H	0.905967	0.095123	0.610841
	H89	H	0.078376	0.095279	0.380784
	H90	H	0.092992	0.914753	0.615748
	H91	H	0.903735	0.910199	0.377831
	H92	H	0.085310	0.620962	0.906699
	H93	H	0.089513	0.386900	0.090553
	H94	H	0.899271	0.621582	0.086358
	H95	H	0.903510	0.392380	0.915310
	H96	H	0.401140	0.122601	0.595789
	H97	H	0.584716	0.890881	0.578640
	H98	H	0.572660	0.116407	0.404273
	H99	H	0.404476	0.886749	0.400832
	H100	H	0.582360	0.409634	0.114202
	H101	H	0.582227	0.586064	0.882069
	H102	H	0.395956	0.602352	0.118249
	H103	H	0.400724	0.417924	0.882409
	H104	H	0.107652	0.591924	0.393188
	H105	H	0.879616	0.597217	0.583051
	H106	H	0.108750	0.407842	0.593268
	H107	H	0.875359	0.416982	0.402254
	H108	H	0.893843	0.620900	0.082072
	H109	H	0.079506	0.388750	0.093705
	H110	H	0.083428	0.621806	0.901651
	H111	H	0.886419	0.383556	0.903595
	H112	H	0.080038	0.922016	0.609804
	H113	H	0.082606	0.100514	0.377417
	H114	H	0.896452	0.108022	0.617394
	H115	H	0.893715	0.918388	0.378058
	H116	H	0.609208	0.093041	0.903824
	H117	H	0.375984	0.103834	0.085126
	H118	H	0.608864	0.899061	0.093806
	H119	H	0.376483	0.912351	0.899382
	C120	C	0.370753	0.012907	0.618554
	C121	C	0.614972	0.995307	0.618613
	C122	C	0.613500	0.011656	0.375710
	C123	C	0.370193	0.994992	0.376062
	C124	C	0.614666	0.379723	0.006302
	C125	C	0.610434	0.620893	0.988761
	C126	C	0.368615	0.623965	0.006182
	C127	C	0.370262	0.382349	0.988556
	C128	C	0.000231	0.629820	0.373111
	C129	C	0.984392	0.627742	0.618332
	C130	C	-0.000288	0.382583	0.619223
	C131	C	0.983085	0.385435	0.375514
	C132	C	0.869077	0.513992	0.116905
	C133	C	0.112583	0.496600	0.117537
	C134	C	0.112668	0.512878	0.875735
	C135	C	0.868804	0.495973	0.874822
	C136	C	0.114640	0.883806	0.505528
	C137	C	0.112086	0.125962	0.487588
	C138	C	0.868068	0.128457	0.505577
	C139	C	0.872123	0.885984	0.488088
	C140	C	0.501168	0.124905	0.875077
	C141	C	0.484682	0.122473	0.118469
	C142	C	0.499672	0.877614	0.120428
	C143	C	0.484398	0.879623	0.875354
	C144	C	0.374903	0.888881	0.673772
	C145	C	0.610570	0.118383	0.674077
	C146	C	0.611800	0.887556	0.323497
	C147	C	0.372133	0.117295	0.317684
	C148	C	0.669931	0.381472	0.882708
	C149	C	0.667433	0.620493	0.112054
	C150	C	0.312184	0.624690	0.882338
	C151	C	0.313654	0.381919	0.112023
	C152	C	0.878289	0.686725	0.375976
	C153	C	0.106564	0.682021	0.617262
	C154	C	0.877164	0.329063	0.616611
	C155	C	0.104575	0.327012	0.376521
	C156	C	0.877099	0.387347	0.673716
	C157	C	0.106696	0.623032	0.674293
	C158	C	0.877609	0.628871	0.318141
	C159	C	0.105527	0.387434	0.320704
	C160	C	0.369896	0.681027	0.882353
	C161	C	0.608329	0.675254	0.113071
	C162	C	0.610800	0.326164	0.881791
	C163	C	0.372947	0.325740	0.112773
	C164	C	0.672106	0.889818	0.377249
	C165	C	0.667988	0.118941	0.616894
	C166	C	0.314251	0.890724	0.619435
	C167	C	0.313389	0.118022	0.373697
	C168	C	0.873353	0.391213	0.174793
	C169	C	0.109279	0.620579	0.171212
	C170	C	0.110501	0.389507	0.821414
	C171	C	0.871300	0.620085	0.819532
	C172	C	0.171659	0.884018	0.382695
	C173	C	0.169673	0.125677	0.610780
	C174	C	0.811927	0.128081	0.381606
	C175	C	0.816988	0.886113	0.611903
	C176	C	0.379540	0.182785	0.875275
	C177	C	0.606064	0.178827	0.119306
	C178	C	0.377169	0.824089	0.118259
	C179	C	0.605999	0.821896	0.877806
	C180	C	0.378197	0.880952	0.177109
	C181	C	0.606949	0.118354	0.174628
	C182	C	0.379144	0.123610	0.819080
	C183	C	0.607181	0.881740	0.821307
	C184	C	0.869533	0.185201	0.381385
	C185	C	0.109844	0.180415	0.611841
	C186	C	0.113737	0.827557	0.382326
	C187	C	0.874612	0.829258	0.612179
	C188	C	0.170254	0.390469	0.875721
	C189	C	0.169141	0.618484	0.116805
	C190	C	0.816437	0.390033	0.117593
	C191	C	0.810768	0.618533	0.874830
	C192	C	0.392451	0.098361	0.595156
	C193	C	0.594525	0.909426	0.596458
	C194	C	0.589655	0.097306	0.397445
	C195	C	0.393152	0.909645	0.401583
	C196	C	0.592816	0.401792	0.093028
	C197	C	0.587505	0.598283	0.902674
	C198	C	0.391361	0.600042	0.092197
	C199	C	0.392976	0.405984	0.902660
	C200	C	0.085658	0.606241	0.395758
	C201	C	0.899233	0.606477	0.595126
	C202	C	0.085245	0.403501	0.597049
	C203	C	0.898107	0.408997	0.398502
	C204	C	0.889210	0.599876	0.092850
	C205	C	0.090475	0.411003	0.095674
	C206	C	0.089647	0.598743	0.898054
	C207	C	0.892024	0.409987	0.897481
	C208	C	0.091160	0.907104	0.591367
	C209	C	0.089041	0.103186	0.401551
	C210	C	0.890624	0.105464	0.592011
	C211	C	0.894511	0.909747	0.401950
	C212	C	0.586388	0.101571	0.898526
	C213	C	0.400174	0.100353	0.094339
	C214	C	0.585115	0.898425	0.098028
	C215	C	0.399109	0.903268	0.897756
	Zn216	Zn	0.493458	0.002776	0.746509
	Zn217	Zn	0.492396	0.001151	0.248337
	Zn218	Zn	0.740116	0.502899	-0.003075
	Zn219	Zn	0.241055	0.503520	-0.003158
	Zn220	Zn	-0.006996	0.757559	0.496781
	Zn221	Zn	-0.009179	0.254183	0.496646
	Zn222	Zn	-0.007915	0.504861	0.747442
	Zn223	Zn	-0.009065	0.506992	0.245023
	Zn224	Zn	0.490831	0.749639	-0.002359
	Zn225	Zn	0.492441	0.253411	-0.002921
	Zn226	Zn	0.742493	0.005257	0.496592
	Zn227	Zn	0.241806	0.005525	0.497028
	N228	N	0.409307	0.965731	0.673420
	N229	N	0.578392	0.040522	0.675335
	N230	N	0.575854	0.964281	0.322579
	N231	N	0.406577	0.039756	0.318968
	N232	N	0.672528	0.413867	0.961417
	N233	N	0.668658	0.587437	0.033946
	N234	N	0.311503	0.589595	0.960179
	N235	N	0.311877	0.416294	0.033974
	N236	N	0.955754	0.687687	0.409221
	N237	N	0.029519	0.685121	0.583391
	N238	N	0.954512	0.325769	0.583586
	N239	N	0.027159	0.325403	0.409632
	N240	N	0.954292	0.419767	0.675481
	N241	N	0.029613	0.589957	0.675091
	N242	N	0.954558	0.594362	0.316148
	N243	N	0.029012	0.423177	0.320172
	N244	N	0.403981	0.680850	0.960239
	N245	N	0.573364	0.675662	0.035299
	N246	N	0.577290	0.324910	0.959757
	N247	N	0.407582	0.325830	0.035059
	N248	N	0.673407	0.968166	0.408883
	N249	N	0.671084	0.041498	0.583146
	N250	N	0.311255	0.968763	0.585780
	N251	N	0.312064	0.040834	0.409313
	N252	N	0.905244	0.469216	0.174605
	N253	N	0.074484	0.543793	0.171858
	N254	N	0.075374	0.466733	0.821152
	N255	N	0.906596	0.543000	0.819217
	N256	N	0.172327	0.918394	0.460420
	N257	N	0.171275	0.092438	0.532474
	N258	N	0.810832	0.093539	0.459626
	N259	N	0.815363	0.920707	0.533858
	N260	N	0.456438	0.183415	0.909786
	N261	N	0.529096	0.181593	0.084839
	N262	N	0.453802	0.821743	0.083884
	N263	N	0.528517	0.820577	0.910615
	N264	N	0.455366	0.913582	0.178642
	N265	N	0.530492	0.084055	0.174257
	N266	N	0.455716	0.088340	0.818868
	N267	N	0.530485	0.916983	0.819745
	N268	N	0.903670	0.185522	0.459399
	N269	N	0.074732	0.180645	0.534349
	N270	N	0.078870	0.827598	0.459771
	N271	N	0.908255	0.829053	0.534211
	N272	N	0.171644	0.468269	0.908781
	N273	N	0.171123	0.540499	0.084119
	N274	N	0.813428	0.467338	0.082266
	N275	N	0.808784	0.540179	0.907949
	O276	O	1.125898	-0.103735	0.974928
	H277	H	1.133427	-0.112257	0.983172
	H278	H	1.123315	-0.107473	0.971379
	O279	O	0.565784	0.492611	0.457825
	H280	H	0.558677	0.486340	0.465429
	H281	H	0.569221	0.489231	0.455241
	O282	O	0.493003	0.361063	0.495870
	H283	H	0.497430	0.357827	0.496764
	H284	H	0.487232	0.359929	0.489870
	O285	O	0.543761	0.433149	0.385453
	H286	H	0.532036	0.436384	0.377024
	H287	H	0.543876	0.427657	0.378301
	O288	O	0.632883	0.521155	0.480211
	H289	H	0.633742	0.506904	0.475160
	H290	H	0.624009	0.527158	0.475850
	O291	O	-0.023448	-0.003929	0.930617
	H292	H	-0.014596	-0.000165	0.937075
	H293	H	-0.010310	-0.004084	0.922237
	O294	O	0.919005	0.967351	-0.002536
	H295	H	0.916827	0.980429	0.003887
	H296	H	0.915455	0.967766	-0.008243
	O297	O	1.039951	0.892807	-0.150093
	H298	H	1.047172	0.887479	-0.152606
	H299	H	1.034219	0.897935	-0.143880
	O300	O	0.557165	0.517749	0.566442
	H301	H	0.555874	0.522948	0.568221
	H302	H	0.564192	0.531561	0.564964
	O303	O	0.955140	0.083845	1.107261
	H304	H	0.951342	0.090408	1.117148
	H305	H	0.942244	0.058718	1.105405
	O306	O	0.371287	0.439663	0.550655
	H307	H	0.354812	0.437731	0.568788
	H308	H	0.375320	0.452078	0.548034
	O309	O	0.486507	0.522126	0.510192
	H310	H	0.488656	0.535798	0.514435
	H311	H	0.491529	0.515140	0.501355
	O312	O	0.902663	1.088900	1.063163
	H313	H	0.896460	1.086732	1.064059
	H314	H	0.901049	1.088579	1.056913
	O315	O	1.118239	1.028365	0.005435
	H316	H	1.099133	1.034169	0.010550
	H317	H	1.127730	1.026134	0.024210
	O318	O	0.435251	0.443059	0.576078
	H319	H	0.436094	0.459525	0.577206
	H320	H	0.425883	0.448207	0.579880
	O321	O	0.467558	0.476048	0.499740
	H322	H	0.474732	0.473030	0.500639
	H323	H	0.484050	0.470532	0.497269
	O324	O	-0.054015	1.134897	0.900498
	H325	H	-0.052749	1.134710	0.891702
	H326	H	-0.052489	1.123293	0.901389
	O327	O	0.033781	1.092686	0.863244
	H328	H	0.028930	1.093391	0.867555
	H329	H	0.049261	1.098528	0.858698
	O330	O	-0.000644	-0.151578	0.014680
	H331	H	0.000441	-0.150643	0.011625
	H332	H	-0.005906	-0.163916	0.017141
	O333	O	0.567933	0.637653	0.488093
	H334	H	0.560929	0.621755	0.467945
	H335	H	0.580194	0.637497	0.490163
	O336	O	-0.145674	-0.047150	-0.025123
	H337	H	-0.155702	-0.034812	-0.032062
	H338	H	-0.140878	-0.037685	-0.024284
	O339	O	0.020812	0.029716	-0.025504
	H340	H	0.029750	0.018031	-0.022610
	H341	H	0.007842	0.020635	-0.037768
	O342	O	0.440268	0.463489	0.474185
	H343	H	0.444441	0.468310	0.476198
	H344	H	0.445120	0.463513	0.485751
	O345	O	0.152419	1.119408	0.960471
	H346	H	0.167593	1.106882	0.961360
	H347	H	0.157606	1.123878	0.962924
	O348	O	0.526997	0.593923	0.588326
	H349	H	0.529473	0.600604	0.594420
	H350	H	0.532445	0.601222	0.590702
	O351	O	0.504500	0.390859	0.486925
	H352	H	0.515365	0.390878	0.502349
	H353	H	0.503885	0.381831	0.492415
	O354	O	-0.025174	0.898034	0.044790
	H355	H	-0.032368	0.903191	0.031920
	H356	H	-0.029365	0.905060	0.038572
	O357	O	0.429716	0.626432	0.452558
	H358	H	0.434102	0.610012	0.442026
	H359	H	0.421407	0.633233	0.454114
	O360	O	0.974384	-0.132306	1.106375
	H361	H	0.985432	-0.135827	1.117404
	H362	H	0.964279	-0.148625	1.102456
	O363	O	0.568956	0.602153	0.458159
	H364	H	0.569015	0.596614	0.458612
	H365	H	0.576216	0.594337	0.471645
	O366	O	0.512757	0.547284	0.574428
	H367	H	0.512587	0.553051	0.574741
	H368	H	0.519390	0.562361	0.580367
	O369	O	0.891332	0.071391	0.007623
	H370	H	0.899785	0.079257	0.016163
	H371	H	0.899962	0.092705	-0.004697
	O372	O	0.439754	0.529217	0.538789
	H373	H	0.438960	0.533044	0.537582
	H374	H	0.423483	0.521696	0.538395
	O375	O	1.057223	0.036371	0.869305
	H376	H	1.050508	0.027956	0.871614
	H377	H	1.069701	0.041798	0.869517
	O378	O	0.192123	1.026773	0.137017
	H379	H	0.195611	1.036243	0.135458
	H380	H	0.200330	1.035130	0.145541
	O381	O	0.407062	0.608699	0.544775
	H382	H	0.404448	0.612812	0.527126
	H383	H	0.414499	0.625417	0.542566
	O384	O	0.807065	1.023077	0.000170
	H385	H	0.801658	1.024205	-0.003965
	H386	H	0.800337	1.016780	0.003390
	O387	O	0.864347	-0.100394	1.072633
	H388	H	0.880846	-0.107146	1.062664
	H389	H	0.864332	-0.088943	1.072917
	O390	O	1.081895	1.170260	0.130690
	H391	H	1.082182	1.165917	0.124375
	H392	H	1.073816	1.180685	0.126211
	O393	O	0.574301	0.453515	0.391817
	H394	H	0.575238	0.449784	0.389129
	H395	H	0.563481	0.453172	0.386465
