data_Molecule from HDF5

_cell_length_a		16.552646
_cell_length_b		16.828092
_cell_length_c		16.543552
_cell_angle_alpha	90.187384
_cell_angle_beta	90.085286
_cell_angle_gamma	90.035191
_symmetry_space_group_name_H-M	'P 1'
_symmetry_Int_Tables_number		1

loop_
	_symmetry_equiv_pos_as_xyz
	x,y,z

loop_
	_atom_site_label
	_atom_site_type_symbol
	_atom_site_fract_x
	_atom_site_fract_y
	_atom_site_fract_z
	H0	H	0.409551	0.835085	0.729361
	H1	H	0.625195	0.140008	0.728395
	H2	H	0.620449	0.830551	0.284961
	H3	H	0.414281	0.140324	0.283227
	H4	H	0.735820	0.385296	0.847050
	H5	H	0.737408	0.588913	0.162673
	H6	H	0.296312	0.590639	0.849800
	H7	H	0.294437	0.377228	0.157912
	H8	H	0.863739	0.706914	0.399518
	H9	H	0.173472	0.709024	0.614157
	H10	H	0.860326	0.268808	0.608370
	H11	H	0.172423	0.262632	0.397926
	H12	H	0.860531	0.385517	0.723302
	H13	H	0.175872	0.587831	0.723848
	H14	H	0.863237	0.589796	0.284735
	H15	H	0.174267	0.381344	0.285275
	H16	H	0.409711	0.708705	0.850878
	H17	H	0.624727	0.708075	0.160958
	H18	H	0.627712	0.263263	0.850323
	H19	H	0.410254	0.261651	0.158569
	H20	H	0.737863	0.830189	0.401389
	H21	H	0.739170	0.140978	0.609502
	H22	H	0.293815	0.835541	0.611693
	H23	H	0.297067	0.140630	0.399443
	H24	H	0.911746	0.333038	0.228944
	H25	H	0.130832	0.636843	0.233136
	H26	H	0.125936	0.333780	0.779874
	H27	H	0.915366	0.639627	0.784802
	H28	H	0.238275	0.882181	0.349140
	H29	H	0.241909	0.095112	0.659060
	H30	H	0.799852	0.086578	0.347594
	H31	H	0.799704	0.883931	0.661827
	H32	H	0.366455	0.212241	0.894210
	H33	H	0.674617	0.207848	0.112317
	H34	H	0.364732	0.762909	0.111638
	H35	H	0.672954	0.762710	0.896196
	H36	H	0.361368	0.883392	0.222832
	H37	H	0.675592	0.088619	0.224774
	H38	H	0.364346	0.093812	0.781816
	H39	H	0.674123	0.881100	0.783514
	H40	H	0.910520	0.206752	0.349207
	H41	H	0.124841	0.209747	0.660200
	H42	H	0.126125	0.763304	0.350735
	H43	H	0.912989	0.764966	0.660173
	H44	H	0.244424	0.334971	0.895096
	H45	H	0.248144	0.635368	0.117236
	H46	H	0.794410	0.333554	0.112442
	H47	H	0.799675	0.640652	0.903240
	H48	H	0.431201	0.095338	0.592346
	H49	H	0.616191	0.872675	0.596325
	H50	H	0.611735	0.098203	0.412613
	H51	H	0.425601	0.875812	0.414278
	H52	H	0.615542	0.396071	0.119640
	H53	H	0.612052	0.576203	0.892237
	H54	H	0.432045	0.572216	0.116156
	H55	H	0.446331	0.399812	0.899681
	H56	H	0.131271	0.574867	0.419550
	H57	H	0.903395	0.579346	0.599044
	H58	H	0.126732	0.403701	0.590184
	H59	H	0.905854	0.397985	0.415095
	H60	H	0.132570	0.395130	0.599751
	H61	H	0.906911	0.580726	0.589274
	H62	H	0.129969	0.574616	0.419774
	H63	H	0.905604	0.394211	0.417508
	H64	H	0.436804	0.571158	0.113994
	H65	H	0.606438	0.574891	0.893022
	H66	H	0.603297	0.402538	0.114698
	H67	H	0.431188	0.388656	0.889386
	H68	H	0.607323	0.096241	0.413375
	H69	H	0.602005	0.876778	0.601172
	H70	H	0.432239	0.096743	0.593040
	H71	H	0.430436	0.876119	0.412675
	H72	H	0.931977	0.593601	0.093972
	H73	H	0.103488	0.381085	0.085216
	H74	H	0.114506	0.596989	0.918739
	H75	H	0.930837	0.375369	0.914399
	H76	H	0.107151	0.898760	0.617466
	H77	H	0.100250	0.073934	0.395548
	H78	H	0.931400	0.071899	0.615469
	H79	H	0.930664	0.898085	0.393428
	H80	H	0.631067	0.077294	0.921320
	H81	H	0.405655	0.076513	0.094588
	H82	H	0.631406	0.895936	0.095212
	H83	H	0.409076	0.900834	0.919397
	H84	H	0.631312	0.894191	0.091290
	H85	H	0.406869	0.078064	0.091002
	H86	H	0.628546	0.071312	0.919800
	H87	H	0.406265	0.896700	0.914621
	H88	H	0.933802	0.082257	0.617855
	H89	H	0.105490	0.080519	0.391075
	H90	H	0.104136	0.898692	0.616676
	H91	H	0.931896	0.891971	0.392140
	H92	H	0.104734	0.596226	0.909888
	H93	H	0.110654	0.375386	0.092252
	H94	H	0.926040	0.596925	0.095065
	H95	H	0.925703	0.374685	0.916670
	H96	H	0.432628	0.095820	0.592440
	H97	H	0.606432	0.878673	0.586434
	H98	H	0.610618	0.095919	0.417145
	H99	H	0.428962	0.877414	0.417120
	H100	H	0.602846	0.388786	0.119395
	H101	H	0.607686	0.580346	0.891377
	H102	H	0.435360	0.575708	0.115605
	H103	H	0.427417	0.408760	0.895080
	H104	H	0.131433	0.574348	0.419784
	H105	H	0.907968	0.571718	0.594121
	H106	H	0.129916	0.390133	0.586402
	H107	H	0.907624	0.397663	0.419028
	H108	H	0.931121	0.596910	0.099710
	H109	H	0.100566	0.377749	0.095820
	H110	H	0.102834	0.592176	0.922315
	H111	H	0.926547	0.373120	0.911577
	H112	H	0.106045	0.896127	0.617182
	H113	H	0.109100	0.071858	0.392493
	H114	H	0.923403	0.078028	0.620133
	H115	H	0.926003	0.894650	0.390584
	H116	H	0.631525	0.075282	0.915169
	H117	H	0.407796	0.074279	0.091903
	H118	H	0.630353	0.898370	0.092028
	H119	H	0.407105	0.894123	0.921281
	C120	C	0.397688	-0.004543	0.626082
	C121	C	0.640611	0.977764	0.627211
	C122	C	0.640433	-0.006086	0.383256
	C123	C	0.396526	0.978064	0.382396
	C124	C	0.639589	0.365257	0.013745
	C125	C	0.640442	0.608419	0.996256
	C126	C	0.399557	0.605756	0.013190
	C127	C	0.399709	0.365042	0.996386
	C128	C	0.027888	0.606456	0.385668
	C129	C	1.009702	0.607981	0.626499
	C130	C	0.026285	0.365134	0.625094
	C131	C	1.009422	0.364512	0.384585
	C132	C	0.896883	0.494352	0.127891
	C133	C	0.140777	0.477722	0.126642
	C134	C	0.140524	0.494192	0.883597
	C135	C	0.896968	0.477159	0.883589
	C136	C	0.139392	0.865251	0.514090
	C137	C	0.138446	0.108313	0.496072
	C138	C	0.897027	0.107481	0.513870
	C139	C	0.897308	0.863885	0.495662
	C140	C	0.527855	0.107382	0.884741
	C141	C	0.510228	0.107692	0.125706
	C142	C	0.527439	0.864897	0.125015
	C143	C	0.510297	0.865137	0.884659
	C144	C	0.393021	0.880806	0.687831
	C145	C	0.642967	0.093757	0.687463
	C146	C	0.640124	0.877130	0.324411
	C147	C	0.395469	0.094084	0.323136
	C148	C	0.697919	0.365133	0.895188
	C149	C	0.698488	0.608493	0.115157
	C150	C	0.337006	0.608783	0.896651
	C151	C	0.336204	0.360192	0.112022
	C152	C	0.910439	0.666510	0.381906
	C153	C	0.127239	0.667838	0.630524
	C154	C	0.907741	0.307450	0.627064
	C155	C	0.126030	0.303501	0.380782
	C156	C	0.907960	0.365691	0.684050
	C157	C	0.128323	0.607877	0.685219
	C158	C	0.910346	0.608235	0.324972
	C159	C	0.127321	0.362629	0.325050
	C160	C	0.393366	0.667491	0.896963
	C161	C	0.642697	0.667795	0.114203
	C162	C	0.643549	0.304811	0.896443
	C163	C	0.393806	0.302796	0.112318
	C164	C	0.698253	0.876944	0.382592
	C165	C	0.699945	0.094240	0.628520
	C166	C	0.334891	0.881148	0.629835
	C167	C	0.337161	0.094227	0.380985
	C168	C	0.893789	0.378795	0.188265
	C169	C	0.147393	0.591120	0.191038
	C170	C	0.143934	0.379401	0.821083
	C171	C	0.896383	0.593578	0.825123
	C172	C	0.198945	0.863617	0.396387
	C173	C	0.200574	0.112300	0.612823
	C174	C	0.838027	0.107017	0.395495
	C175	C	0.839027	0.864190	0.614548
	C176	C	0.412224	0.170259	0.878552
	C177	C	0.627961	0.167188	0.129374
	C178	C	0.410559	0.804076	0.128709
	C179	C	0.626589	0.803753	0.879463
	C180	C	0.409003	0.864053	0.183711
	C181	C	0.628432	0.108251	0.185409
	C182	C	0.411162	0.111387	0.822522
	C183	C	0.627094	0.862560	0.823419
	C184	C	0.893582	0.166362	0.396131
	C185	C	0.142803	0.169512	0.613209
	C186	C	0.143221	0.804224	0.397172
	C187	C	0.894996	0.805153	0.613719
	C188	C	0.202646	0.379948	0.878400
	C189	C	0.205839	0.590606	0.133476
	C190	C	0.835411	0.379186	0.130524
	C191	C	0.838899	0.593935	0.883809
	C192	C	0.424493	0.075171	0.599966
	C193	C	0.615374	0.897016	0.601919
	C194	C	0.616610	0.075570	0.407312
	C195	C	0.421224	0.897355	0.407467
	C196	C	0.614353	0.389046	0.096138
	C197	C	0.615780	0.584318	0.913799
	C198	C	0.427034	0.580346	0.094135
	C199	C	0.427168	0.391486	0.915704
	C200	C	0.109579	0.581640	0.411932
	C201	C	0.927501	0.584199	0.601253
	C202	C	0.108482	0.389347	0.599577
	C203	C	0.927499	0.389607	0.409850
	C204	C	0.922329	0.574840	0.103340
	C205	C	0.112942	0.398606	0.098816
	C206	C	0.114693	0.574160	0.909728
	C207	C	0.921011	0.395674	0.907309
	C208	C	0.113173	0.890535	0.595869
	C209	C	0.112268	0.082650	0.414503
	C210	C	0.922446	0.083904	0.596364
	C211	C	0.922222	0.887883	0.413560
	C212	C	0.609183	0.081653	0.911191
	C213	C	0.428038	0.083291	0.099829
	C214	C	0.609837	0.889413	0.099975
	C215	C	0.428777	0.890194	0.910999
	Zn216	Zn	0.518556	-0.013484	0.756227
	Zn217	Zn	0.518377	-0.014277	0.253084
	Zn218	Zn	0.767609	0.486054	0.005809
	Zn219	Zn	0.270505	0.485302	0.005134
	Zn220	Zn	0.019236	0.736146	0.505913
	Zn221	Zn	0.017042	0.235982	0.505102
	Zn222	Zn	0.018739	0.486291	0.753856
	Zn223	Zn	0.019180	0.485627	0.256564
	Zn224	Zn	0.518835	0.735944	0.004606
	Zn225	Zn	0.519917	0.236220	0.005103
	Zn226	Zn	0.769671	-0.014312	0.505082
	Zn227	Zn	0.267031	-0.012591	0.504712
	N228	N	0.431447	0.952961	0.685686
	N229	N	0.606926	0.020274	0.687144
	N230	N	0.605132	0.951023	0.324340
	N231	N	0.431525	0.020856	0.323843
	N232	N	0.695616	0.402071	0.969326
	N233	N	0.697484	0.572323	0.040593
	N234	N	0.340691	0.571073	0.969890
	N235	N	0.339970	0.398276	0.038996
	N236	N	0.984755	0.665854	0.418832
	N237	N	0.052351	0.668376	0.594830
	N238	N	0.982495	0.306899	0.591304
	N239	N	0.051492	0.304330	0.416790
	N240	N	0.982974	0.400590	0.683327
	N241	N	0.054361	0.571152	0.682802
	N242	N	0.984437	0.571821	0.326996
	N243	N	0.053624	0.399968	0.327258
	N244	N	0.431763	0.665805	0.970483
	N245	N	0.607506	0.668063	0.039097
	N246	N	0.608251	0.304458	0.971468
	N247	N	0.432676	0.305497	0.039223
	N248	N	0.698766	0.950675	0.418218
	N249	N	0.698915	0.020927	0.592111
	N250	N	0.337538	0.953393	0.592203
	N251	N	0.337346	0.020971	0.417042
	N252	N	0.931460	0.451392	0.186859
	N253	N	0.107531	0.519831	0.186913
	N254	N	0.105787	0.451422	0.824148
	N255	N	0.931801	0.519951	0.824805
	N256	N	0.196839	0.900782	0.470321
	N257	N	0.198121	0.074878	0.538937
	N258	N	0.839816	0.071262	0.469902
	N259	N	0.839870	0.899877	0.540057
	N260	N	0.485934	0.168070	0.916422
	N261	N	0.553220	0.167218	0.093351
	N262	N	0.485322	0.804440	0.092905
	N263	N	0.552812	0.805152	0.916975
	N264	N	0.482818	0.901168	0.181572
	N265	N	0.554091	0.071873	0.183376
	N266	N	0.484192	0.072918	0.826120
	N267	N	0.553614	0.900115	0.826409
	N268	N	0.929231	0.167124	0.471096
	N269	N	0.105001	0.167426	0.539518
	N270	N	0.106969	0.805042	0.471696
	N271	N	0.930391	0.804715	0.538800
	N272	N	0.200729	0.452249	0.916557
	N273	N	0.201802	0.518851	0.093990
	N274	N	0.837136	0.451997	0.093742
	N275	N	0.839120	0.520442	0.919387
	O276	O	0.157471	0.956194	-0.044345
	H277	H	0.160709	0.960413	-0.047646
	H278	H	0.146395	0.942644	-0.036909
	O279	O	-0.011838	0.762009	0.224265
	H280	H	-0.020466	0.743751	0.248983
	H281	H	-0.031960	0.755778	0.220686
	O282	O	0.923059	0.155583	1.113816
	H283	H	0.925006	0.146922	1.119095
	H284	H	0.920036	0.153581	1.104990
	O285	O	0.538080	0.272264	0.715956
	H286	H	0.519341	0.268247	0.725841
	H287	H	0.522297	0.264978	0.731979
	O288	O	0.708672	0.679742	0.706084
	H289	H	0.735021	0.704950	0.728734
	H290	H	0.720547	0.693859	0.657723
	O291	O	0.651675	0.399644	0.551041
	H292	H	0.657278	0.398517	0.560620
	H293	H	0.642360	0.404214	0.562783
	O294	O	1.207147	-0.207943	1.194899
	H295	H	1.234981	-0.222207	1.206384
	H296	H	1.214296	-0.210572	1.184240
	O297	O	0.043961	1.149780	0.174950
	H298	H	0.036388	1.141359	0.172210
	H299	H	0.046111	1.145259	0.191799
	O300	O	0.205707	0.179132	0.816054
	H301	H	0.193765	0.178337	0.849580
	H302	H	0.202775	0.162151	0.816235
	O303	O	0.735349	0.457944	0.288562
	H304	H	0.744477	0.441243	0.277300
	H305	H	0.739610	0.437569	0.286330
	O306	O	0.556177	0.589736	0.732745
	H307	H	0.563038	0.592072	0.741326
	H308	H	0.579103	0.596943	0.742780
	O309	O	0.056887	0.052712	-0.226298
	H310	H	0.068292	0.062049	-0.228912
	H311	H	0.055637	0.058218	-0.215504
	O312	O	0.546758	0.556309	0.549903
	H313	H	0.531482	0.565321	0.554454
	H314	H	0.538287	0.553543	0.551236
	O315	O	0.842509	1.004699	1.064587
	H316	H	0.844038	1.010868	1.081845
	H317	H	0.842044	1.018388	1.055724
	O318	O	0.673978	0.667646	0.346593
	H319	H	0.668545	0.645203	0.356285
	H320	H	0.663597	0.654798	0.353295
	O321	O	-0.196934	0.763336	1.062682
	H322	H	-0.194913	0.772855	1.054980
	H323	H	-0.215989	0.753741	1.047201
	O324	O	0.828461	1.108597	0.154720
	H325	H	0.831287	1.103537	0.156711
	H326	H	0.814481	1.116751	0.166695
	O327	O	0.046522	-0.177223	1.039622
	H328	H	0.060629	-0.172902	1.050933
	H329	H	0.045036	-0.181393	1.056316
	O330	O	0.316606	0.702004	0.295562
	H331	H	0.320141	0.685174	0.323350
	H332	H	0.357150	0.702506	0.305672
	O333	O	0.228333	0.763278	0.994067
	H334	H	0.227079	0.757511	0.990841
	H335	H	0.237575	0.757114	0.996448
	O336	O	0.444058	0.449087	0.524779
	H337	H	0.443020	0.444657	0.532325
	H338	H	0.437871	0.454163	0.539245
	O339	O	0.796840	0.019358	0.780434
	H340	H	0.792277	0.054260	0.785487
	H341	H	0.768327	0.018547	0.761621
	O342	O	-0.125681	-0.105128	-0.086872
	H343	H	-0.115789	-0.106929	-0.081430
	H344	H	-0.129956	-0.071790	-0.083656
	O345	O	-0.063985	0.756052	0.959205
	H346	H	-0.065163	0.756204	0.961255
	H347	H	-0.057253	0.754223	0.969432
	O348	O	0.160475	0.018061	-0.046888
	H349	H	0.163313	0.015976	-0.042270
	H350	H	0.147293	0.031438	-0.043197
	O351	O	0.231466	0.198873	0.212731
	H352	H	0.243377	0.189833	0.215216
	H353	H	0.201579	0.213589	0.219229
	O354	O	0.065052	-0.085150	1.200751
	H355	H	0.076093	-0.106496	1.213066
	H356	H	0.088833	-0.092326	1.197398
	O357	O	0.408763	0.370544	0.301150
	H358	H	0.408504	0.364079	0.297289
	H359	H	0.398952	0.376409	0.309802
	O360	O	0.390908	0.367810	0.329520
	H361	H	0.389752	0.381564	0.340291
	H362	H	0.384731	0.366660	0.329927
	O363	O	0.510695	0.624251	0.716856
	H364	H	0.516188	0.639310	0.726191
	H365	H	0.535494	0.627921	0.716787
	O366	O	0.235997	-0.040326	-0.218089
	H367	H	0.263703	-0.044760	-0.238661
	H368	H	0.224347	-0.045182	-0.207033
	O369	O	0.518237	0.429312	0.521275
	H370	H	0.517587	0.423227	0.533088
	H371	H	0.524009	0.435148	0.522325
	O372	O	1.034290	1.006086	0.204840
	H373	H	1.036616	0.981896	0.208916
	H374	H	1.037242	0.995117	0.209267
	O375	O	1.249414	-0.032819	0.110637
	H376	H	1.257780	-0.030232	0.118971
	H377	H	1.255528	-0.017170	0.106658
	O378	O	0.175421	1.040238	1.174725
	H379	H	0.180594	1.043885	1.179989
	H380	H	0.183236	1.028583	1.183019
	O381	O	0.012490	1.201191	1.170970
	H382	H	0.002714	1.219226	1.192085
	H383	H	-0.001986	1.170432	1.182125
	O384	O	0.248492	-0.254567	-0.217811
	H385	H	0.237379	-0.249903	-0.199655
	H386	H	0.229145	-0.230610	-0.211338
	O387	O	1.476023	1.254387	0.436762
	H388	H	1.466903	1.261488	0.448505
	H389	H	1.473360	1.254573	0.436602
	O390	O	0.309017	0.498606	0.289452
	H391	H	0.300052	0.508927	0.300277
	H392	H	0.299533	0.520133	0.281777
	O393	O	0.553591	0.267499	0.280531
	H394	H	0.546907	0.251130	0.265591
	H395	H	0.550327	0.257970	0.288176
	O396	O	-0.698024	0.707101	0.475033
	H397	H	-0.685013	0.715655	0.479236
	H398	H	-0.715111	0.717707	0.487834
	O399	O	0.046609	-0.012722	0.971059
	H400	H	0.038501	-0.014703	0.977009
	H401	H	0.027348	-0.021859	0.981877
	O402	O	0.320196	0.286943	0.535445
	H403	H	0.300208	0.282601	0.533432
	H404	H	0.321489	0.290640	0.531274
	O405	O	1.088602	-0.230734	0.800921
	H406	H	1.070719	-0.248345	0.770371
	H407	H	1.076788	-0.202298	0.817229
	O408	O	-0.064515	-0.107891	0.026276
	H409	H	-0.065288	-0.117268	0.034939
	H410	H	-0.059113	-0.097744	0.037997
	O411	O	0.300580	0.444853	0.506769
	H412	H	0.302865	0.451544	0.510111
	H413	H	0.302388	0.461994	0.520599
	O414	O	0.804273	0.769335	0.228246
	H415	H	0.806373	0.773686	0.188440
	H416	H	0.782673	0.745339	0.242867
	O417	O	0.460170	0.697887	0.563621
	H418	H	0.463564	0.703176	0.569843
	H419	H	0.472150	0.699391	0.573043
	O420	O	0.739699	0.540901	0.723985
	H421	H	0.749476	0.560945	0.738134
	H422	H	0.751229	0.569702	0.730071
	O423	O	-0.201253	-0.050411	1.227329
	H424	H	-0.212409	-0.069892	1.243565
	H425	H	-0.202231	-0.058602	1.240759
	O426	O	0.599665	0.451890	0.644208
	H427	H	0.581696	0.454641	0.641073
	H428	H	0.615644	0.456457	0.655422
	O429	O	1.333679	0.653624	0.668534
	H430	H	1.350608	0.652473	0.656735
	H431	H	1.314036	0.679345	0.700261
	O432	O	0.573823	0.708100	0.450226
	H433	H	0.584732	0.703901	0.444435
	H434	H	0.575507	0.700963	0.456107
	O435	O	-0.069204	0.923188	-0.198796
	H436	H	-0.085316	0.948979	-0.203013
	H437	H	-0.058657	0.940584	-0.192367
	O438	O	-0.205357	0.213824	-0.024507
	H439	H	-0.211882	0.226727	-0.048773
	H440	H	-0.216044	0.228344	-0.040809
	O441	O	0.235563	0.212003	0.024969
	H442	H	0.256992	0.225235	0.038474
	H443	H	0.241422	0.199988	0.046922
	O444	O	0.735408	0.710332	0.543560
	H445	H	0.745248	0.689210	0.522078
	H446	H	0.751524	0.722105	0.531282
	O447	O	-0.293819	0.326690	0.663059
	H448	H	-0.306765	0.347338	0.651223
	H449	H	-0.308364	0.332396	0.656246
	O450	O	0.316184	1.275473	0.712241
	H451	H	0.308205	1.285175	0.677571
	H452	H	0.291855	1.268119	0.736460
	O453	O	0.737094	0.573055	0.447086
	H454	H	0.725553	0.559381	0.441872
	H455	H	0.738076	0.543502	0.449958
	O456	O	1.070835	1.217965	0.934684
	H457	H	1.080338	1.218870	0.955246
	H458	H	1.074899	1.209731	0.951262
	O459	O	0.483274	0.696116	0.293736
	H460	H	0.501356	0.681910	0.301053
	H461	H	0.497280	0.704104	0.280789
	O462	O	0.313361	0.438739	0.718125
	H463	H	0.303590	0.446982	0.739932
	H464	H	0.320996	0.439758	0.720067
	O465	O	0.983783	0.211407	-0.216297
	H466	H	1.004634	0.227296	-0.203816
	H467	H	0.997251	0.224995	-0.227667
	O468	O	0.596762	0.292262	0.540007
	H469	H	0.603284	0.290533	0.539138
	H470	H	0.586448	0.288991	0.545305
	O471	O	0.618744	0.421047	0.435828
	H472	H	0.613341	0.420363	0.434327
	H473	H	0.619928	0.422253	0.441263
	O474	O	0.376811	0.489213	0.518612
	H475	H	0.378775	0.486325	0.539268
	H476	H	0.378032	0.475884	0.538424
	O477	O	0.182768	0.984209	2.020655
	H478	H	0.178861	0.987820	2.010617
	H479	H	0.175713	0.990240	2.037106
	O480	O	0.736209	0.264718	0.467674
	H481	H	0.726956	0.265322	0.474966
	H482	H	0.754387	0.243509	0.467200
	O483	O	0.379076	0.506387	0.583805
	H484	H	0.380204	0.505595	0.591054
	H485	H	0.396830	0.514527	0.594992
	O486	O	0.822756	0.179374	0.816386
	H487	H	0.805502	0.178298	0.807000
	H488	H	0.871634	0.191173	0.803805
	O489	O	0.722282	1.279649	0.301796
	H490	H	0.728354	1.267410	0.305290
	H491	H	0.694001	1.287589	0.316589
	O492	O	-0.111929	0.121555	0.037302
	H493	H	-0.091855	0.126888	0.051973
	H494	H	-0.123245	0.136374	0.036858
	O495	O	-0.173724	0.787931	0.810743
	H496	H	-0.150046	0.798077	0.829365
	H497	H	-0.162168	0.815211	0.830390
	O498	O	1.036529	0.894620	0.925465
	H499	H	1.027719	0.899486	0.935301
	H500	H	1.028671	0.906466	0.911639
	O501	O	0.567375	0.552877	0.279951
	H502	H	0.555736	0.531317	0.279369
	H503	H	0.570409	0.540811	0.288871
