data_Molecule from HDF5

_cell_length_a		16.604854
_cell_length_b		16.636471
_cell_length_c		16.684059
_cell_angle_alpha	90.105549
_cell_angle_beta	90.005062
_cell_angle_gamma	90.091716
_symmetry_space_group_name_H-M	'P 1'
_symmetry_Int_Tables_number		1

loop_
	_symmetry_equiv_pos_as_xyz
	x,y,z

loop_
	_atom_site_label
	_atom_site_type_symbol
	_atom_site_fract_x
	_atom_site_fract_y
	_atom_site_fract_z
	H0	H	0.397981	0.836138	0.717722
	H1	H	0.617429	0.141975	0.713340
	H2	H	0.615247	0.833797	0.268332
	H3	H	0.402358	0.141541	0.267142
	H4	H	0.732295	0.384348	0.836228
	H5	H	0.733688	0.596667	0.145606
	H6	H	0.289002	0.593666	0.835730
	H7	H	0.288053	0.382179	0.145118
	H8	H	0.854544	0.706807	0.388004
	H9	H	0.167239	0.709964	0.595158
	H10	H	0.853386	0.270857	0.593033
	H11	H	0.165678	0.265721	0.384560
	H12	H	0.853936	0.385896	0.709767
	H13	H	0.167265	0.594094	0.711103
	H14	H	0.856495	0.593416	0.269704
	H15	H	0.164862	0.379890	0.267671
	H16	H	0.404173	0.711173	0.836258
	H17	H	0.618091	0.712966	0.144625
	H18	H	0.616293	0.267173	0.836538
	H19	H	0.403858	0.266080	0.145217
	H20	H	0.730755	0.833123	0.384017
	H21	H	0.731030	0.142901	0.595102
	H22	H	0.284833	0.834966	0.599662
	H23	H	0.288231	0.142431	0.385360
	H24	H	0.903664	0.333913	0.213553
	H25	H	0.118570	0.642656	0.213232
	H26	H	0.115159	0.333052	0.769353
	H27	H	0.906350	0.644753	0.770578
	H28	H	0.231849	0.883023	0.335775
	H29	H	0.230676	0.092281	0.646090
	H30	H	0.790845	0.090800	0.335085
	H31	H	0.789043	0.884549	0.645384
	H32	H	0.357993	0.213688	0.881528
	H33	H	0.666333	0.209222	0.094965
	H34	H	0.356367	0.766093	0.096193
	H35	H	0.663698	0.762837	0.879996
	H36	H	0.358052	0.879820	0.214220
	H37	H	0.664741	0.096238	0.213513
	H38	H	0.357798	0.098458	0.765561
	H39	H	0.664554	0.879757	0.765743
	H40	H	0.905873	0.208837	0.335893
	H41	H	0.114282	0.208988	0.646943
	H42	H	0.114513	0.767981	0.335116
	H43	H	0.905473	0.768315	0.645539
	H44	H	0.230546	0.332423	0.886164
	H45	H	0.232588	0.643364	0.096421
	H46	H	0.789063	0.333570	0.095846
	H47	H	0.790739	0.644850	0.887541
	H48	H	0.425219	0.097487	0.578630
	H49	H	0.594381	0.880082	0.573630
	H50	H	0.602385	0.099999	0.404676
	H51	H	0.418273	0.876458	0.402408
	H52	H	0.598207	0.391950	0.104610
	H53	H	0.599524	0.576191	0.880903
	H54	H	0.417271	0.577403	0.104044
	H55	H	0.417920	0.393767	0.876982
	H56	H	0.122024	0.575769	0.404369
	H57	H	0.901445	0.577736	0.574047
	H58	H	0.122262	0.399546	0.578832
	H59	H	0.901097	0.402830	0.403341
	H60	H	0.123275	0.400565	0.583365
	H61	H	0.899870	0.573051	0.587788
	H62	H	0.122772	0.575759	0.399775
	H63	H	0.898960	0.399684	0.398631
	H64	H	0.424622	0.572637	0.098694
	H65	H	0.599023	0.575524	0.881327
	H66	H	0.607552	0.402548	0.104126
	H67	H	0.418366	0.407198	0.880917
	H68	H	0.601032	0.102186	0.396700
	H69	H	0.604214	0.874598	0.577341
	H70	H	0.423311	0.098031	0.576600
	H71	H	0.424960	0.876408	0.398715
	H72	H	0.913398	0.601356	0.075534
	H73	H	0.096967	0.377049	0.083466
	H74	H	0.102404	0.601612	0.899335
	H75	H	0.923904	0.379067	0.901923
	H76	H	0.099834	0.904045	0.601397
	H77	H	0.103869	0.074854	0.380201
	H78	H	0.926680	0.079081	0.599675
	H79	H	0.918285	0.892316	0.376647
	H80	H	0.621556	0.078243	0.904204
	H81	H	0.397414	0.079131	0.078865
	H82	H	0.622662	0.901455	0.078830
	H83	H	0.404266	0.906725	0.906349
	H84	H	0.621743	0.901017	0.077017
	H85	H	0.399959	0.076728	0.076888
	H86	H	0.620334	0.074139	0.903121
	H87	H	0.398886	0.902009	0.899031
	H88	H	0.917829	0.083503	0.604656
	H89	H	0.094285	0.074209	0.382604
	H90	H	0.093763	0.898957	0.600363
	H91	H	0.916458	0.901881	0.379156
	H92	H	0.097309	0.599630	0.899952
	H93	H	0.095140	0.379693	0.075669
	H94	H	0.923452	0.602695	0.090806
	H95	H	0.919878	0.377146	0.901612
	H96	H	0.423155	0.098444	0.579367
	H97	H	0.594377	0.874929	0.584522
	H98	H	0.594830	0.098462	0.401067
	H99	H	0.424493	0.879496	0.405901
	H100	H	0.594252	0.404370	0.099098
	H101	H	0.598558	0.576487	0.881390
	H102	H	0.425903	0.582240	0.101158
	H103	H	0.429454	0.398879	0.882524
	H104	H	0.123559	0.579727	0.402942
	H105	H	0.895653	0.586193	0.583677
	H106	H	0.124278	0.396199	0.581531
	H107	H	0.898544	0.397642	0.404003
	H108	H	0.930910	0.595131	0.076127
	H109	H	0.102840	0.375679	0.077470
	H110	H	0.100529	0.598976	0.903683
	H111	H	0.922373	0.377377	0.898293
	H112	H	0.100872	0.896734	0.603215
	H113	H	0.097316	0.082317	0.378219
	H114	H	0.917695	0.073241	0.601921
	H115	H	0.925963	0.897871	0.380594
	H116	H	0.623062	0.076199	0.900344
	H117	H	0.399436	0.075797	0.080536
	H118	H	0.621694	0.903180	0.077435
	H119	H	0.400462	0.897072	0.907808
	C120	C	0.388559	-0.003052	0.612586
	C121	C	0.631116	0.978882	0.611456
	C122	C	0.631445	-0.002355	0.368543
	C123	C	0.389120	0.979565	0.369308
	C124	C	0.632580	0.367644	-0.000103
	C125	C	0.632530	0.610391	0.982600
	C126	C	0.389640	0.609646	-0.001107
	C127	C	0.389437	0.366999	0.982377
	C128	C	0.020080	0.609118	0.370375
	C129	C	1.002548	0.610940	0.612943
	C130	C	0.019350	0.368177	0.611904
	C131	C	1.001996	0.366938	0.369438
	C132	C	0.890019	0.497087	0.112518
	C133	C	0.131303	0.479926	0.111506
	C134	C	0.132168	0.496943	0.869116
	C135	C	0.889872	0.480846	0.869378
	C136	C	0.131128	0.867303	0.499088
	C137	C	0.130928	0.109417	0.482922
	C138	C	0.889258	0.109393	0.499015
	C139	C	0.888581	0.866408	0.481653
	C140	C	0.519717	0.109958	0.869285
	C141	C	0.501598	0.109929	0.111617
	C142	C	0.519794	0.868199	0.110653
	C143	C	0.502489	0.867780	0.869438
	C144	C	0.381982	0.882002	0.675883
	C145	C	0.635137	0.095440	0.672654
	C146	C	0.633821	0.880658	0.307871
	C147	C	0.385011	0.095372	0.308068
	C148	C	0.692597	0.365427	0.883100
	C149	C	0.693472	0.614233	0.098775
	C150	C	0.329099	0.611823	0.882395
	C151	C	0.328321	0.363979	0.098685
	C152	C	0.902012	0.667825	0.368904
	C153	C	0.120199	0.670136	0.614005
	C154	C	0.900705	0.309963	0.612303
	C155	C	0.118773	0.305939	0.366610
	C156	C	0.900937	0.367411	0.670108
	C157	C	0.120122	0.612590	0.671598
	C158	C	0.902823	0.611299	0.310136
	C159	C	0.118517	0.362778	0.308383
	C160	C	0.386308	0.670463	0.882582
	C161	C	0.636152	0.672321	0.098390
	C162	C	0.634992	0.307338	0.883185
	C163	C	0.386125	0.306314	0.098715
	C164	C	0.691291	0.880436	0.365586
	C165	C	0.691438	0.095902	0.613751
	C166	C	0.325472	0.881441	0.617133
	C167	C	0.328092	0.095771	0.366554
	C168	C	0.886563	0.380334	0.172411
	C169	C	0.135166	0.596354	0.172372
	C170	C	0.133953	0.379793	0.809295
	C171	C	0.887527	0.597975	0.810193
	C172	C	0.191398	0.865029	0.382488
	C173	C	0.190853	0.111172	0.599729
	C174	C	0.830641	0.109807	0.381765
	C175	C	0.828971	0.865475	0.598711
	C176	C	0.404166	0.172553	0.864687
	C177	C	0.619317	0.169687	0.113763
	C178	C	0.403326	0.806467	0.114098
	C179	C	0.617848	0.804673	0.863599
	C180	C	0.403846	0.863125	0.172684
	C181	C	0.618369	0.113317	0.172468
	C182	C	0.403997	0.114928	0.807129
	C183	C	0.618067	0.862704	0.806593
	C184	C	0.887815	0.168371	0.382221
	C185	C	0.132805	0.168816	0.600231
	C186	C	0.133392	0.807440	0.382078
	C187	C	0.886852	0.807726	0.598793
	C188	C	0.191187	0.379530	0.867526
	C189	C	0.192064	0.596618	0.114174
	C190	C	0.829513	0.380114	0.113933
	C191	C	0.830273	0.598008	0.868396
	C192	C	0.415921	0.077075	0.585637
	C193	C	0.605054	0.897796	0.585892
	C194	C	0.606619	0.079096	0.393611
	C195	C	0.415246	0.898403	0.395213
	C196	C	0.607422	0.392537	0.081404
	C197	C	0.606408	0.583707	0.902314
	C198	C	0.415298	0.584690	0.080153
	C199	C	0.414855	0.392390	0.901286
	C200	C	0.101553	0.584173	0.395320
	C201	C	0.920509	0.586102	0.588707
	C202	C	0.101683	0.391898	0.588118
	C203	C	0.920622	0.392670	0.394824
	C204	C	0.915526	0.578641	0.088017
	C205	C	0.105554	0.398624	0.086261
	C206	C	0.107210	0.578782	0.893930
	C207	C	0.915004	0.399170	0.893759
	C208	C	0.105475	0.892594	0.580570
	C209	C	0.105782	0.084521	0.401651
	C210	C	0.913725	0.085364	0.580958
	C211	C	0.913141	0.890443	0.399898
	C212	C	0.600656	0.083619	0.895271
	C213	C	0.420204	0.084629	0.085913
	C214	C	0.601028	0.894637	0.084885
	C215	C	0.422276	0.894420	0.896684
	Zn216	Zn	0.510160	-0.011819	0.740242
	Zn217	Zn	0.510203	-0.011336	0.240069
	Zn218	Zn	0.761074	0.489342	-0.008779
	Zn219	Zn	0.260869	0.488244	-0.008920
	Zn220	Zn	0.010955	0.737984	0.491189
	Zn221	Zn	0.010396	0.239281	0.491141
	Zn222	Zn	0.010963	0.489313	0.740529
	Zn223	Zn	0.011263	0.488099	0.241640
	Zn224	Zn	0.511367	0.738772	-0.009811
	Zn225	Zn	0.510974	0.238914	-0.009022
	Zn226	Zn	0.759737	-0.012100	0.490203
	Zn227	Zn	0.260495	-0.011665	0.490849
	N228	N	0.420795	0.954921	0.673226
	N229	N	0.598523	0.021455	0.671658
	N230	N	0.597431	0.954631	0.309425
	N231	N	0.422158	0.021852	0.309486
	N232	N	0.691479	0.401989	0.956883
	N233	N	0.691666	0.576578	0.025728
	N234	N	0.330843	0.574983	0.955979
	N235	N	0.330056	0.401037	0.025252
	N236	N	0.975857	0.666788	0.405512
	N237	N	0.045915	0.669241	0.578300
	N238	N	0.975232	0.310110	0.576899
	N239	N	0.045168	0.308398	0.403936
	N240	N	0.975840	0.402624	0.670401
	N241	N	0.045813	0.576477	0.671185
	N242	N	0.977339	0.575557	0.310542
	N243	N	0.044813	0.399960	0.309923
	N244	N	0.423358	0.669272	0.956234
	N245	N	0.599212	0.670469	0.024953
	N246	N	0.598502	0.308411	0.957053
	N247	N	0.423195	0.307870	0.025196
	N248	N	0.690275	0.954243	0.402535
	N249	N	0.689317	0.022274	0.576519
	N250	N	0.329418	0.953965	0.578516
	N251	N	0.330414	0.022545	0.403887
	N252	N	0.923562	0.454076	0.171573
	N253	N	0.097938	0.522667	0.170976
	N254	N	0.098074	0.454072	0.809936
	N255	N	0.923914	0.524044	0.810578
	N256	N	0.190437	0.901266	0.456445
	N257	N	0.189852	0.074880	0.525911
	N258	N	0.831381	0.073815	0.455612
	N259	N	0.829617	0.901184	0.524654
	N260	N	0.477248	0.169706	0.902903
	N261	N	0.545708	0.167719	0.076369
	N262	N	0.476637	0.809330	0.076156
	N263	N	0.544932	0.807496	0.902087
	N264	N	0.477290	0.900895	0.170573
	N265	N	0.544184	0.076837	0.171413
	N266	N	0.476855	0.076577	0.809802
	N267	N	0.545322	0.901471	0.810146
	N268	N	0.923611	0.168313	0.456297
	N269	N	0.096380	0.168211	0.526334
	N270	N	0.096762	0.808702	0.455812
	N271	N	0.923060	0.807934	0.524916
	N272	N	0.190412	0.453637	0.903911
	N273	N	0.189944	0.523154	0.076935
	N274	N	0.831371	0.453842	0.077272
	N275	N	0.831245	0.524096	0.904332
	O276	O	-0.213884	1.055894	0.050002
	H277	H	-0.210228	1.065425	0.041321
	H278	H	-0.209286	1.059293	0.046794
	O279	O	0.200376	0.801803	0.178641
	H280	H	0.189591	0.816263	0.165593
	H281	H	0.186245	0.811048	0.163861
	O282	O	1.231844	0.206309	1.020945
	H283	H	1.248076	0.219266	1.011586
	H284	H	1.240538	0.197369	1.005270
	O285	O	0.475910	0.603912	0.716441
	H286	H	0.481393	0.602879	0.711004
	H287	H	0.479408	0.610257	0.723404
	O288	O	0.506479	0.520063	0.439899
	H289	H	0.521012	0.528447	0.440037
	H290	H	0.507493	0.507369	0.432691
	O291	O	0.701525	0.291516	0.684753
	H292	H	0.681945	0.296344	0.660371
	H293	H	0.681995	0.322618	0.678055
	O294	O	1.232013	-0.217552	0.970008
	H295	H	1.240643	-0.213240	0.964290
	H296	H	1.239003	-0.223673	0.968364
	O297	O	0.054996	1.020316	0.206457
	H298	H	0.029615	0.999402	0.220211
	H299	H	0.055787	1.026635	0.202196
	O300	O	-0.208009	0.212465	0.958025
	H301	H	-0.217906	0.218487	0.926438
	H302	H	-0.226664	0.229409	0.937962
	O303	O	0.462134	0.581041	0.331678
	H304	H	0.454737	0.586349	0.325182
	H305	H	0.469762	0.573496	0.327654
	O306	O	0.636016	0.572570	0.485483
	H307	H	0.631334	0.576130	0.487231
	H308	H	0.641409	0.554790	0.473477
	O309	O	0.731142	0.520978	0.708031
	H310	H	0.735829	0.526304	0.730862
	H311	H	0.718895	0.516173	0.713693
	O312	O	0.586756	0.428441	0.671672
	H313	H	0.569973	0.422276	0.668500
	H314	H	0.574003	0.444540	0.659244
	O315	O	1.005047	0.910276	1.007916
	H316	H	1.000878	0.903239	1.004342
	H317	H	1.014232	0.910407	1.012842
	O318	O	0.684322	0.423427	0.541084
	H319	H	0.681458	0.439505	0.532619
	H320	H	0.688963	0.421674	0.537218
	O321	O	-0.023642	0.757572	0.939035
	H322	H	-0.026060	0.765176	0.933518
	H323	H	-0.037363	0.750905	0.932461
	O324	O	0.927503	1.032242	0.213354
	H325	H	0.927078	1.033429	0.206367
	H326	H	0.930358	1.013818	0.212943
	O327	O	-0.208913	-0.036808	1.207779
	H328	H	-0.204611	-0.040164	1.209809
	H329	H	-0.225690	-0.039686	1.220570
	O330	O	0.728705	0.710734	0.524084
	H331	H	0.724955	0.699120	0.532966
	H332	H	0.756638	0.732542	0.520563
	O333	O	-0.097205	0.961165	0.971834
	H334	H	-0.083002	0.960332	0.985474
	H335	H	-0.088460	0.959203	0.979551
	O336	O	0.293445	0.455917	0.715705
	H337	H	0.280650	0.456726	0.718583
	H338	H	0.282737	0.442299	0.725968
	O339	O	1.062157	0.205603	0.982745
	H340	H	1.057829	0.200372	0.970320
	H341	H	1.069120	0.195226	0.977353
	O342	O	-0.110092	-0.232593	0.038089
	H343	H	-0.107779	-0.233403	0.049826
	H344	H	-0.110011	-0.244316	0.036045
	O345	O	-0.277812	1.277507	1.278275
	H346	H	-0.247401	1.243732	1.251086
	H347	H	-0.304021	1.269316	1.296279
	O348	O	0.214857	-0.205857	-0.185285
	H349	H	0.214351	-0.203976	-0.188145
	H350	H	0.214936	-0.220086	-0.179597
	O351	O	0.485457	0.326488	0.715993
	H352	H	0.457184	0.334751	0.718133
	H353	H	0.471697	0.297171	0.729894
	O354	O	-0.219152	-0.135259	0.966181
	H355	H	-0.220475	-0.147272	0.995253
	H356	H	-0.221296	-0.137279	0.983773
	O357	O	0.641924	0.521470	0.400274
	H358	H	0.644123	0.538046	0.411205
	H359	H	0.638183	0.516337	0.388606
	O360	O	0.320849	0.459225	0.456534
	H361	H	0.318998	0.488052	0.460570
	H362	H	0.311511	0.444601	0.438338
	O363	O	0.324352	0.299641	0.306041
	H364	H	0.309491	0.286817	0.287329
	H365	H	0.332426	0.300674	0.299984
	O366	O	0.629587	0.390613	0.398672
	H367	H	0.620560	0.368003	0.411676
	H368	H	0.646475	0.385683	0.385789
	O369	O	0.555566	0.509304	0.313804
	H370	H	0.559762	0.505518	0.313350
	H371	H	0.557032	0.506511	0.329730
	O372	O	1.095800	0.984870	0.008098
	H373	H	1.088814	0.977060	0.002642
	H374	H	1.099527	0.977747	0.013359
	O375	O	1.230139	-0.071838	0.038181
	H376	H	1.232594	-0.078252	0.030686
	H377	H	1.229864	-0.062651	0.057532
	O378	O	0.022829	0.800949	0.774104
	H379	H	0.019217	0.785578	0.765878
	H380	H	0.037087	0.814546	0.775630
	O381	O	0.225900	1.044352	0.929536
	H382	H	0.221846	1.026728	0.931671
	H383	H	0.228372	1.023078	0.926001
	O384	O	0.300356	-0.296985	0.281240
	H385	H	0.337373	-0.304884	0.280968
	H386	H	0.281523	-0.271105	0.258378
	O387	O	1.291515	1.517201	0.269124
	H388	H	1.271114	1.513875	0.249090
	H389	H	1.296819	1.541690	0.266342
	O390	O	0.434385	0.522741	0.319986
	H391	H	0.427686	0.520748	0.310214
	H392	H	0.440252	0.503479	0.325498
	O393	O	0.366962	0.444282	0.545081
	H394	H	0.357645	0.443354	0.525819
	H395	H	0.364308	0.461695	0.545080
	O396	O	-0.257717	0.723657	0.727053
	H397	H	-0.243667	0.732015	0.728933
	H398	H	-0.253419	0.717564	0.719668
	O399	O	0.032744	0.202141	1.205601
	H400	H	0.032820	0.211981	1.205482
	H401	H	0.021307	0.215764	1.196167
	O402	O	0.929596	0.070497	-0.099825
	H403	H	0.920184	0.064130	-0.111120
	H404	H	0.920163	0.066070	-0.083839
	O405	O	1.219499	0.194548	1.194317
	H406	H	1.220314	0.196701	1.144922
	H407	H	1.179961	0.179828	1.202066
	O408	O	0.231101	-0.029843	-0.220400
	H409	H	0.240961	-0.054712	-0.234732
	H410	H	0.224944	-0.039601	-0.226614
	O411	O	0.677603	0.461829	0.317402
	H412	H	0.688438	0.441670	0.330815
	H413	H	0.683305	0.439709	0.310942
	O414	O	0.805189	0.195565	0.788118
	H415	H	0.773013	0.218197	0.754951
	H416	H	0.803179	0.147091	0.778409
	O417	O	0.292308	0.264552	0.528026
	H418	H	0.271180	0.250414	0.533825
	H419	H	0.288308	0.281856	0.526333
	O420	O	0.490957	0.261255	0.449595
	H421	H	0.490830	0.268316	0.453459
	H422	H	0.465395	0.258621	0.447875
	O423	O	0.000510	-0.015286	1.017721
	H424	H	-0.008907	-0.015610	1.031340
	H425	H	0.000953	-0.018169	1.015559
	O426	O	0.597432	0.703533	0.704132
	H427	H	0.609187	0.694364	0.713695
	H428	H	0.611636	0.720719	0.725443
	O429	O	1.080318	0.832412	1.111581
	H430	H	1.077586	0.836673	1.101508
	H431	H	1.075396	0.828286	1.112004
	O432	O	0.564000	0.521228	0.485373
	H433	H	0.570440	0.512045	0.496782
	H434	H	0.555021	0.502582	0.483603
	O435	O	0.083316	0.998216	-0.234115
	H436	H	0.085910	0.992460	-0.230573
	H437	H	0.082855	1.013111	-0.238950
	O438	O	-0.046891	0.198701	0.040792
	H439	H	-0.035485	0.202614	0.031012
	H440	H	-0.070825	0.191694	0.021818
	O441	O	0.240043	0.008668	0.210895
	H442	H	0.232087	0.030776	0.212807
	H443	H	0.255922	0.017766	0.238251
	O444	O	0.450179	0.437617	0.397958
	H445	H	0.446094	0.430056	0.392954
	H446	H	0.442058	0.427619	0.390963
	O447	O	-0.132097	0.840814	0.811775
	H448	H	-0.136551	0.852029	0.801475
	H449	H	-0.117076	0.850144	0.824360
	O450	O	0.199451	1.175783	0.801172
	H451	H	0.173158	1.164312	0.820802
	H452	H	0.195039	1.149531	0.822702
	O453	O	0.572965	0.715817	0.426201
	H454	H	0.574773	0.719960	0.443767
	H455	H	0.556575	0.712620	0.427386
	O456	O	0.299898	0.276879	0.702419
	H457	H	0.270230	0.246589	0.726782
	H458	H	0.293770	0.289983	0.681729
	O459	O	0.701111	0.682753	0.300910
	H460	H	0.679332	0.669248	0.322710
	H461	H	0.685008	0.656709	0.312144
	O462	O	0.537864	0.270567	0.269419
	H463	H	0.545854	0.255569	0.272159
	H464	H	0.536008	0.265065	0.271016
	O465	O	0.973906	0.214604	-0.233025
	H466	H	0.939282	0.214170	-0.225582
	H467	H	0.964269	0.242871	-0.261059
	O468	O	0.400266	0.551701	0.458547
	H469	H	0.410379	0.559542	0.467864
	H470	H	0.393838	0.552883	0.450020
	O471	O	0.443971	0.508693	0.653421
	H472	H	0.435306	0.503464	0.629117
	H473	H	0.431874	0.483400	0.660076
	O474	O	0.291606	0.712139	0.472720
	H475	H	0.280612	0.725310	0.461248
	H476	H	0.286687	0.716966	0.445995
	O477	O	0.255172	0.696632	1.706872
	H478	H	0.256092	0.707773	1.708270
	H479	H	0.268305	0.674640	1.683387
	O480	O	0.423989	0.721916	0.576394
	H481	H	0.421644	0.714503	0.579240
	H482	H	0.417360	0.723486	0.584205
	O483	O	0.522418	0.341324	0.556788
	H484	H	0.501837	0.344535	0.534483
	H485	H	0.520552	0.348714	0.567466
	O486	O	0.965226	-0.011597	0.792978
	H487	H	0.957396	-0.015451	0.786975
	H488	H	0.958952	-0.001241	0.789397
	O489	O	0.871544	1.151053	0.151957
	H490	H	0.886407	1.138381	0.133534
	H491	H	0.878951	1.140164	0.137452
	O492	O	-0.025185	-0.215745	0.210548
	H493	H	-0.049603	-0.225095	0.202889
	H494	H	-0.015439	-0.236710	0.226152
	O495	O	-0.208408	1.028069	0.771266
	H496	H	-0.237708	1.018226	0.749656
	H497	H	-0.209645	1.006656	0.807585
	O498	O	0.801483	0.782852	1.201103
	H499	H	0.769366	0.751305	1.234039
	H500	H	0.814392	0.806815	1.200855
	O501	O	0.730084	0.267334	0.455680
	H502	H	0.749447	0.259513	0.455612
	H503	H	0.723332	0.262290	0.448993
