data_Molecule from HDF5

_cell_length_a		16.384441
_cell_length_b		16.197997
_cell_length_c		16.251032
_cell_angle_alpha	90.037858
_cell_angle_beta	90.047729
_cell_angle_gamma	90.021008
_symmetry_space_group_name_H-M	'P 1'
_symmetry_Int_Tables_number		1

loop_
	_symmetry_equiv_pos_as_xyz
	x,y,z

loop_
	_atom_site_label
	_atom_site_type_symbol
	_atom_site_fract_x
	_atom_site_fract_y
	_atom_site_fract_z
	H0	H	0.411624	0.834566	0.706521
	H1	H	0.606809	0.163961	0.708103
	H2	H	0.606843	0.833936	0.281386
	H3	H	0.411712	0.163512	0.280339
	H4	H	0.725092	0.398209	0.831796
	H5	H	0.724494	0.599725	0.158393
	H6	H	0.292292	0.599733	0.831119
	H7	H	0.294244	0.398724	0.158208
	H8	H	0.847091	0.714031	0.396338
	H9	H	0.172674	0.714252	0.593180
	H10	H	0.846866	0.283562	0.593697
	H11	H	0.172245	0.285644	0.397076
	H12	H	0.846804	0.400112	0.710533
	H13	H	0.171713	0.600451	0.712085
	H14	H	0.846939	0.599114	0.279362
	H15	H	0.172185	0.400375	0.279069
	H16	H	0.411953	0.711421	0.830110
	H17	H	0.604572	0.711649	0.159192
	H18	H	0.605359	0.286810	0.829900
	H19	H	0.413192	0.285255	0.158334
	H20	H	0.724026	0.835670	0.394579
	H21	H	0.724301	0.163254	0.594205
	H22	H	0.294491	0.835293	0.593120
	H23	H	0.294713	0.162761	0.394109
	H24	H	0.912368	0.334517	0.207082
	H25	H	0.105303	0.664772	0.206504
	H26	H	0.107319	0.335089	0.780838
	H27	H	0.911948	0.664012	0.781390
	H28	H	0.224780	0.899438	0.330718
	H29	H	0.225423	0.099892	0.657841
	H30	H	0.793080	0.101004	0.330918
	H31	H	0.792785	0.899478	0.657123
	H32	H	0.346121	0.213674	0.895377
	H33	H	0.673104	0.213078	0.091249
	H34	H	0.346039	0.785356	0.091046
	H35	H	0.672434	0.784731	0.897932
	H36	H	0.346449	0.900125	0.208999
	H37	H	0.672040	0.098054	0.209741
	H38	H	0.345986	0.096731	0.779773
	H39	H	0.672283	0.900376	0.779199
	H40	H	0.913401	0.212450	0.329890
	H41	H	0.106159	0.212363	0.658936
	H42	H	0.106010	0.786926	0.329836
	H43	H	0.911838	0.786327	0.658466
	H44	H	0.222845	0.335217	0.895560
	H45	H	0.224835	0.662876	0.095338
	H46	H	0.794666	0.335475	0.094056
	H47	H	0.792966	0.662718	0.894582
	H48	H	0.417151	0.116716	0.590107
	H49	H	0.604259	0.880783	0.589906
	H50	H	0.610217	0.119183	0.402272
	H51	H	0.411116	0.882184	0.408117
	H52	H	0.609053	0.405543	0.113617
	H53	H	0.600331	0.593194	0.877431
	H54	H	0.421378	0.588892	0.108757
	H55	H	0.419874	0.405343	0.878564
	H56	H	0.127519	0.589074	0.390829
	H57	H	0.893018	0.600471	0.583671
	H58	H	0.125901	0.411252	0.596242
	H59	H	0.892543	0.407788	0.394098
	H60	H	0.126992	0.397962	0.587052
	H61	H	0.897755	0.586028	0.582733
	H62	H	0.128157	0.602283	0.400368
	H63	H	0.892120	0.401208	0.402714
	H64	H	0.414764	0.597664	0.112638
	H65	H	0.605347	0.591192	0.876829
	H66	H	0.601539	0.412914	0.109640
	H67	H	0.410707	0.403294	0.875071
	H68	H	0.596841	0.116720	0.394366
	H69	H	0.598071	0.883383	0.587132
	H70	H	0.419473	0.114818	0.583534
	H71	H	0.412291	0.879357	0.395489
	H72	H	0.904221	0.616039	0.074556
	H73	H	0.092969	0.385502	0.085664
	H74	H	0.098773	0.614504	0.905998
	H75	H	0.919425	0.384136	0.904880
	H76	H	0.102711	0.907839	0.610644
	H77	H	0.105931	0.091129	0.377630
	H78	H	0.910664	0.097156	0.614110
	H79	H	0.908819	0.906514	0.375521
	H80	H	0.626774	0.089552	0.891776
	H81	H	0.393003	0.091018	0.093916
	H82	H	0.621592	0.912424	0.085098
	H83	H	0.390645	0.902135	0.893232
	H84	H	0.627340	0.905501	0.095494
	H85	H	0.393586	0.097643	0.085096
	H86	H	0.626461	0.100735	0.902575
	H87	H	0.393705	0.900035	0.905188
	H88	H	0.913194	0.083310	0.609762
	H89	H	0.100662	0.090012	0.378794
	H90	H	0.103895	0.906249	0.611659
	H91	H	0.917944	0.913834	0.379959
	H92	H	0.105137	0.617475	0.905261
	H93	H	0.110294	0.382042	0.079939
	H94	H	0.911183	0.622626	0.101993
	H95	H	0.912689	0.382095	0.905120
	H96	H	0.412328	0.117716	0.584906
	H97	H	0.604249	0.882819	0.583040
	H98	H	0.597710	0.112549	0.409684
	H99	H	0.423054	0.883759	0.402066
	H100	H	0.598103	0.402533	0.111546
	H101	H	0.602010	0.587969	0.879451
	H102	H	0.409979	0.586861	0.112311
	H103	H	0.413107	0.412011	0.878636
	H104	H	0.122159	0.588236	0.407440
	H105	H	0.892051	0.591217	0.595411
	H106	H	0.121363	0.411588	0.580673
	H107	H	0.896210	0.410963	0.404001
	H108	H	0.930687	0.611639	0.083353
	H109	H	0.104980	0.377397	0.097747
	H110	H	0.100847	0.617345	0.899556
	H111	H	0.916459	0.380993	0.899201
	H112	H	0.104201	0.908012	0.611462
	H113	H	0.102873	0.095505	0.377141
	H114	H	0.924170	0.093713	0.609053
	H115	H	0.920057	0.901755	0.376978
	H116	H	0.622062	0.086511	0.906165
	H117	H	0.395731	0.087043	0.084295
	H118	H	0.625514	0.899985	0.083263
	H119	H	0.395308	0.911800	0.899616
	C120	C	0.387683	0.007771	0.615055
	C121	C	0.630722	0.990861	0.615792
	C122	C	0.630444	0.007619	0.372861
	C123	C	0.387804	0.990463	0.373028
	C124	C	0.630677	0.378098	0.003246
	C125	C	0.630658	0.620273	0.986351
	C126	C	0.387060	0.620071	0.002861
	C127	C	0.386878	0.377773	0.986070
	C128	C	0.018083	0.621809	0.371720
	C129	C	1.001712	0.621667	0.616413
	C130	C	0.017476	0.377853	0.616512
	C131	C	1.001102	0.378236	0.372242
	C132	C	0.887565	0.507803	0.115546
	C133	C	0.130561	0.490762	0.115974
	C134	C	0.130150	0.508034	0.874034
	C135	C	0.887395	0.490712	0.873351
	C136	C	0.130979	0.878879	0.502729
	C137	C	0.131566	0.121250	0.485864
	C138	C	0.887463	0.120826	0.502631
	C139	C	0.887036	0.878092	0.485694
	C140	C	0.517266	0.121036	0.871963
	C141	C	0.501626	0.120699	0.116169
	C142	C	0.517421	0.877206	0.116094
	C143	C	0.500803	0.876611	0.871579
	C144	C	0.391070	0.883684	0.669202
	C145	C	0.627708	0.114703	0.670790
	C146	C	0.627440	0.883357	0.318607
	C147	C	0.391064	0.114153	0.317822
	C148	C	0.686465	0.379072	0.880235
	C149	C	0.685808	0.618902	0.109586
	C150	C	0.331130	0.618948	0.879994
	C151	C	0.332143	0.378999	0.109236
	C152	C	0.895672	0.676332	0.375481
	C153	C	0.124076	0.676538	0.613943
	C154	C	0.895258	0.321904	0.613867
	C155	C	0.123760	0.323234	0.376034
	C156	C	0.895158	0.379830	0.671951
	C157	C	0.123523	0.619736	0.672904
	C158	C	0.895463	0.619132	0.317348
	C159	C	0.123768	0.380326	0.317385
	C160	C	0.390753	0.674317	0.879403
	C161	C	0.626629	0.674790	0.110095
	C162	C	0.626787	0.324011	0.879131
	C163	C	0.391603	0.323025	0.109648
	C164	C	0.685926	0.884289	0.374584
	C165	C	0.686125	0.114411	0.614206
	C166	C	0.332441	0.884339	0.613141
	C167	C	0.332771	0.113923	0.374162
	C168	C	0.891274	0.383971	0.170064
	C169	C	0.126586	0.615262	0.169684
	C170	C	0.127461	0.384103	0.818953
	C171	C	0.890664	0.614740	0.818679
	C172	C	0.186136	0.880231	0.379291
	C173	C	0.186943	0.119526	0.609207
	C174	C	0.831721	0.119974	0.379564
	C175	C	0.831294	0.879560	0.608482
	C176	C	0.394781	0.175932	0.875052
	C177	C	0.624251	0.175574	0.112569
	C178	C	0.394798	0.822363	0.112498
	C179	C	0.623763	0.821961	0.875639
	C180	C	0.394968	0.879512	0.171064
	C181	C	0.623819	0.118405	0.171426
	C182	C	0.394581	0.117944	0.817560
	C183	C	0.623615	0.879475	0.817029
	C184	C	0.891293	0.175511	0.379059
	C185	C	0.127866	0.175508	0.609723
	C186	C	0.126878	0.824607	0.378694
	C187	C	0.890657	0.823529	0.609163
	C188	C	0.185207	0.384216	0.875597
	C189	C	0.185676	0.614371	0.114264
	C190	C	0.832913	0.384258	0.113778
	C191	C	0.831961	0.614236	0.875097
	C192	C	0.409782	0.094074	0.592851
	C193	C	0.608722	0.904618	0.593409
	C194	C	0.608104	0.093883	0.395285
	C195	C	0.409321	0.904019	0.395339
	C196	C	0.609235	0.400357	0.089219
	C197	C	0.609006	0.597554	0.900133
	C198	C	0.408815	0.597681	0.089256
	C199	C	0.408171	0.400318	0.899620
	C200	C	0.103895	0.599723	0.393243
	C201	C	0.916264	0.599194	0.593861
	C202	C	0.102764	0.400369	0.594325
	C203	C	0.915826	0.400195	0.393886
	C204	C	0.908976	0.594493	0.093251
	C205	C	0.109191	0.404084	0.094155
	C206	C	0.108256	0.594213	0.896878
	C207	C	0.909649	0.404572	0.896169
	C208	C	0.109810	0.900851	0.588890
	C209	C	0.109546	0.098837	0.399979
	C210	C	0.909469	0.098031	0.588785
	C211	C	0.909144	0.900692	0.399557
	C212	C	0.603036	0.098805	0.893791
	C213	C	0.416278	0.098406	0.094285
	C214	C	0.602768	0.899305	0.094291
	C215	C	0.415327	0.898276	0.892987
	Zn216	Zn	0.508676	-0.000584	0.743251
	Zn217	Zn	0.509221	-0.001392	0.245281
	Zn218	Zn	0.758997	0.499014	-0.004990
	Zn219	Zn	0.258579	0.499307	-0.005247
	Zn220	Zn	0.010163	0.750299	0.494141
	Zn221	Zn	0.009408	0.248837	0.494415
	Zn222	Zn	0.009160	0.499692	0.745598
	Zn223	Zn	0.009139	0.499894	0.243299
	Zn224	Zn	0.509097	0.747973	-0.005478
	Zn225	Zn	0.509201	0.249755	-0.005927
	Zn226	Zn	0.758674	-0.000389	0.493854
	Zn227	Zn	0.259625	-0.000462	0.494028
	N228	N	0.424710	0.961506	0.670564
	N229	N	0.593882	0.036909	0.671627
	N230	N	0.593547	0.961073	0.317634
	N231	N	0.424654	0.036308	0.317076
	N232	N	0.689028	0.412138	0.958231
	N233	N	0.688365	0.585688	0.031603
	N234	N	0.329154	0.585716	0.957911
	N235	N	0.329339	0.412253	0.031379
	N236	N	0.972937	0.678003	0.408602
	N237	N	0.047496	0.677709	0.579390
	N238	N	0.972306	0.320634	0.580231
	N239	N	0.046609	0.321759	0.409505
	N240	N	0.971966	0.413900	0.673561
	N241	N	0.046226	0.586111	0.674499
	N242	N	0.972574	0.585700	0.315202
	N243	N	0.046654	0.413857	0.314960
	N244	N	0.424948	0.675109	0.956822
	N245	N	0.593177	0.675657	0.032444
	N246	N	0.592899	0.323112	0.956588
	N247	N	0.424922	0.322207	0.031968
	N248	N	0.687701	0.962403	0.407867
	N249	N	0.687997	0.036509	0.580583
	N250	N	0.330411	0.962467	0.580003
	N251	N	0.330788	0.036137	0.407924
	N252	N	0.924449	0.461949	0.171097
	N253	N	0.093084	0.537324	0.170909
	N254	N	0.093970	0.462010	0.817797
	N255	N	0.924543	0.537053	0.817709
	N256	N	0.188489	0.913456	0.457191
	N257	N	0.189482	0.086565	0.531204
	N258	N	0.829342	0.086581	0.457597
	N259	N	0.829030	0.912717	0.530598
	N260	N	0.472177	0.177803	0.908211
	N261	N	0.547184	0.177177	0.079195
	N262	N	0.471828	0.821114	0.078960
	N263	N	0.546584	0.820015	0.908657
	N264	N	0.472045	0.912861	0.173397
	N265	N	0.546618	0.084960	0.173766
	N266	N	0.471757	0.084620	0.815601
	N267	N	0.546208	0.912491	0.814117
	N268	N	0.925404	0.175832	0.456354
	N269	N	0.094147	0.176664	0.532352
	N270	N	0.093392	0.823464	0.456352
	N271	N	0.924445	0.822270	0.531645
	N272	N	0.186776	0.462110	0.909356
	N273	N	0.188452	0.535803	0.081939
	N274	N	0.830420	0.462438	0.080645
	N275	N	0.829416	0.536104	0.908040
	O276	O	-0.432428	0.542640	1.547990
	H277	H	-0.436776	0.554241	1.550170
	H278	H	-0.430720	0.545224	1.546121
	O279	O	0.552889	0.534145	0.527774
	H280	H	0.549693	0.531757	0.528510
	H281	H	0.548424	0.542376	0.527285
	O282	O	0.534067	0.453908	0.606349
	H283	H	0.539910	0.471251	0.621786
	H284	H	0.541931	0.454925	0.610716
	O285	O	0.506845	0.502464	0.520317
	H286	H	0.512827	0.488617	0.510665
	H287	H	0.508043	0.506268	0.512061
	O288	O	0.526091	0.480906	0.437918
	H289	H	0.526894	0.470796	0.439594
	H290	H	0.524671	0.481251	0.443291
	O291	O	-0.488872	1.457707	0.495285
	H292	H	-0.491070	1.464766	0.488182
	H293	H	-0.490631	1.454721	0.498744
	O294	O	0.530678	0.466706	0.524062
	H295	H	0.530859	0.456608	0.522359
	H296	H	0.527035	0.469982	0.522138
	O297	O	0.541080	-0.522411	0.491294
	H298	H	0.536092	-0.528873	0.494121
	H299	H	0.555505	-0.528181	0.502720
