data_Molecule from HDF5

_cell_length_a		16.337811
_cell_length_b		16.184255
_cell_length_c		16.272764
_cell_angle_alpha	89.931923
_cell_angle_beta	89.778299
_cell_angle_gamma	89.674110
_symmetry_space_group_name_H-M	'P 1'
_symmetry_Int_Tables_number		1

loop_
	_symmetry_equiv_pos_as_xyz
	x,y,z

loop_
	_atom_site_label
	_atom_site_type_symbol
	_atom_site_fract_x
	_atom_site_fract_y
	_atom_site_fract_z
	H0	H	0.403065	0.840526	0.701495
	H1	H	0.599903	0.169547	0.698148
	H2	H	0.603283	0.841089	0.270570
	H3	H	0.401604	0.168273	0.270099
	H4	H	0.722809	0.402712	0.823778
	H5	H	0.721146	0.607862	0.147577
	H6	H	0.288010	0.606957	0.822554
	H7	H	0.287446	0.405132	0.148902
	H8	H	0.841346	0.722871	0.382723
	H9	H	0.166388	0.718758	0.582595
	H10	H	0.840977	0.290197	0.585827
	H11	H	0.166141	0.287905	0.384478
	H12	H	0.842819	0.403788	0.703328
	H13	H	0.166964	0.602915	0.699240
	H14	H	0.842301	0.609985	0.266461
	H15	H	0.165794	0.403004	0.267399
	H16	H	0.405628	0.721236	0.822308
	H17	H	0.601081	0.719456	0.149327
	H18	H	0.604874	0.289966	0.822627
	H19	H	0.403821	0.288727	0.148711
	H20	H	0.721118	0.841470	0.382198
	H21	H	0.719644	0.166697	0.587185
	H22	H	0.287715	0.840019	0.584893
	H23	H	0.285210	0.167373	0.383983
	H24	H	0.905413	0.341611	0.200676
	H25	H	0.101656	0.668982	0.199491
	H26	H	0.105071	0.339790	0.772545
	H27	H	0.905386	0.668241	0.769721
	H28	H	0.221148	0.902597	0.321565
	H29	H	0.216868	0.103201	0.647607
	H30	H	0.785876	0.105708	0.322027
	H31	H	0.787079	0.903709	0.647528
	H32	H	0.341171	0.222653	0.887649
	H33	H	0.666980	0.217848	0.083587
	H34	H	0.340322	0.792268	0.084282
	H35	H	0.667079	0.790305	0.885761
	H36	H	0.340421	0.907400	0.201571
	H37	H	0.665168	0.106021	0.202607
	H38	H	0.340037	0.107623	0.770423
	H39	H	0.665332	0.904855	0.768182
	H40	H	0.904142	0.219909	0.321065
	H41	H	0.099894	0.216639	0.648002
	H42	H	0.101301	0.789818	0.320185
	H43	H	0.904090	0.790158	0.648049
	H44	H	0.222415	0.341629	0.885551
	H45	H	0.217788	0.669589	0.084945
	H46	H	0.788111	0.342243	0.087257
	H47	H	0.787414	0.668345	0.884060
	H48	H	0.400372	0.125912	0.584393
	H49	H	0.601562	0.888403	0.568132
	H50	H	0.598891	0.121479	0.396735
	H51	H	0.407718	0.888406	0.398947
	H52	H	0.605988	0.418186	0.102996
	H53	H	0.600366	0.600070	0.867816
	H54	H	0.410621	0.592818	0.100627
	H55	H	0.407071	0.419459	0.870333
	H56	H	0.115253	0.594468	0.400102
	H57	H	0.888620	0.596531	0.577721
	H58	H	0.118594	0.407989	0.570190
	H59	H	0.887043	0.410953	0.394053
	H60	H	0.118664	0.417446	0.580620
	H61	H	0.888538	0.595732	0.578378
	H62	H	0.118338	0.589696	0.387487
	H63	H	0.889614	0.415416	0.395377
	H64	H	0.414631	0.601444	0.101388
	H65	H	0.596926	0.591624	0.870642
	H66	H	0.587723	0.419112	0.097302
	H67	H	0.418957	0.417076	0.872818
	H68	H	0.593695	0.122744	0.389840
	H69	H	0.597157	0.883751	0.586494
	H70	H	0.417495	0.119470	0.580938
	H71	H	0.408609	0.884458	0.388340
	H72	H	0.907741	0.621957	0.068582
	H73	H	0.096103	0.384399	0.091197
	H74	H	0.095953	0.623914	0.884630
	H75	H	0.915851	0.388309	0.892459
	H76	H	0.099193	0.918312	0.598833
	H77	H	0.095353	0.093437	0.368763
	H78	H	0.902149	0.097262	0.603133
	H79	H	0.912133	0.920477	0.369853
	H80	H	0.618474	0.101024	0.896843
	H81	H	0.386291	0.112599	0.069211
	H82	H	0.619818	0.920458	0.088953
	H83	H	0.387199	0.916900	0.889691
	H84	H	0.623169	0.899899	0.079066
	H85	H	0.393920	0.083926	0.070935
	H86	H	0.616851	0.089805	0.890515
	H87	H	0.386350	0.908849	0.893148
	H88	H	0.911331	0.089362	0.598132
	H89	H	0.093890	0.095921	0.368067
	H90	H	0.087752	0.909905	0.598618
	H91	H	0.915941	0.908486	0.368421
	H92	H	0.092133	0.620533	0.895162
	H93	H	0.085743	0.393587	0.070099
	H94	H	0.908138	0.624900	0.082593
	H95	H	0.913860	0.389331	0.898119
	H96	H	0.405272	0.118991	0.568031
	H97	H	0.584938	0.892177	0.574566
	H98	H	0.590734	0.119229	0.397593
	H99	H	0.417722	0.888899	0.393319
	H100	H	0.594526	0.403278	0.104735
	H101	H	0.591792	0.599713	0.869954
	H102	H	0.405487	0.599506	0.103845
	H103	H	0.411821	0.408124	0.867854
	H104	H	0.121689	0.602293	0.390824
	H105	H	0.888155	0.596157	0.578624
	H106	H	0.123967	0.404533	0.582605
	H107	H	0.887189	0.414212	0.390475
	H108	H	0.918492	0.619360	0.076280
	H109	H	0.110209	0.386541	0.069757
	H110	H	0.103394	0.623610	0.893915
	H111	H	0.909476	0.386357	0.893698
	H112	H	0.100007	0.904803	0.604114
	H113	H	0.096316	0.095978	0.367568
	H114	H	0.914146	0.102036	0.600977
	H115	H	0.904517	0.912259	0.366075
	H116	H	0.622429	0.099707	0.883677
	H117	H	0.382946	0.098334	0.094160
	H118	H	0.615137	0.917449	0.066748
	H119	H	0.389228	0.916293	0.897961
	C120	C	0.379725	0.013181	0.606957
	C121	C	0.623597	0.995920	0.606123
	C122	C	0.624394	0.013099	0.364580
	C123	C	0.381647	0.995572	0.364146
	C124	C	0.626122	0.383595	-0.005794
	C125	C	0.625216	0.626682	0.977027
	C126	C	0.381521	0.627859	-0.005788
	C127	C	0.383117	0.384724	0.977704
	C128	C	0.011704	0.626468	0.363165
	C129	C	0.995793	0.625509	0.606822
	C130	C	0.013107	0.381695	0.607602
	C131	C	0.995542	0.383380	0.363730
	C132	C	0.882263	0.514069	0.106462
	C133	C	0.125165	0.496724	0.106221
	C134	C	0.126756	0.513567	0.863663
	C135	C	0.883092	0.496018	0.864264
	C136	C	0.124888	0.882188	0.492774
	C137	C	0.123986	0.124641	0.475554
	C138	C	0.879983	0.126608	0.493156
	C139	C	0.881291	0.883474	0.475899
	C140	C	0.511722	0.127519	0.862747
	C141	C	0.495002	0.127073	0.107603
	C142	C	0.511803	0.884053	0.107859
	C143	C	0.495291	0.884376	0.863954
	C144	C	0.382732	0.889531	0.663142
	C145	C	0.620986	0.119712	0.661223
	C146	C	0.623409	0.890224	0.308037
	C147	C	0.382217	0.119044	0.308169
	C148	C	0.683819	0.383495	0.872134
	C149	C	0.681803	0.626549	0.099363
	C150	C	0.326335	0.626708	0.871324
	C151	C	0.325759	0.384969	0.100038
	C152	C	0.890060	0.684542	0.363364
	C153	C	0.117734	0.681194	0.603837
	C154	C	0.890118	0.327441	0.606038
	C155	C	0.117577	0.326133	0.364549
	C156	C	0.891016	0.383678	0.664853
	C157	C	0.118158	0.623441	0.661871
	C158	C	0.890363	0.628005	0.305352
	C159	C	0.117444	0.383813	0.306764
	C160	C	0.384805	0.683443	0.871074
	C161	C	0.622279	0.682246	0.100115
	C162	C	0.625199	0.327130	0.871836
	C163	C	0.384220	0.327744	0.100202
	C164	C	0.681681	0.890285	0.364090
	C165	C	0.680076	0.118682	0.605485
	C166	C	0.325564	0.889210	0.605103
	C167	C	0.324299	0.118617	0.364806
	C168	C	0.884369	0.390947	0.163285
	C169	C	0.122281	0.620156	0.161745
	C170	C	0.125267	0.389392	0.809677
	C171	C	0.884858	0.619213	0.807764
	C172	C	0.181889	0.882724	0.370032
	C173	C	0.179148	0.123008	0.598584
	C174	C	0.824033	0.125774	0.370739
	C175	C	0.825246	0.884162	0.598809
	C176	C	0.389516	0.184241	0.866617
	C177	C	0.618140	0.180880	0.104635
	C178	C	0.389202	0.829283	0.105718
	C179	C	0.618197	0.828442	0.865736
	C180	C	0.389085	0.886763	0.163696
	C181	C	0.616933	0.125300	0.163912
	C182	C	0.388966	0.127018	0.808320
	C183	C	0.617327	0.885181	0.807178
	C184	C	0.882765	0.182563	0.370325
	C185	C	0.120927	0.179414	0.598922
	C186	C	0.122796	0.826719	0.369488
	C187	C	0.883577	0.827690	0.598930
	C188	C	0.183184	0.390153	0.866151
	C189	C	0.179991	0.620466	0.104691
	C190	C	0.826439	0.390986	0.106562
	C191	C	0.826240	0.619327	0.864554
	C192	C	0.401332	0.099091	0.584441
	C193	C	0.601275	0.910360	0.583077
	C194	C	0.601223	0.098893	0.388012
	C195	C	0.404612	0.909362	0.386874
	C196	C	0.602828	0.406796	0.079504
	C197	C	0.602887	0.603866	0.891754
	C198	C	0.403545	0.604625	0.079747
	C199	C	0.406145	0.408063	0.892413
	C200	C	0.096647	0.602593	0.385936
	C201	C	0.910536	0.602756	0.584814
	C202	C	0.098462	0.403566	0.584517
	C203	C	0.910167	0.406736	0.386495
	C204	C	0.904815	0.599728	0.082730
	C205	C	0.103540	0.410495	0.083830
	C206	C	0.103934	0.600112	0.885129
	C207	C	0.906310	0.410075	0.887887
	C208	C	0.102330	0.904591	0.578228
	C209	C	0.101786	0.101841	0.390213
	C210	C	0.902443	0.103016	0.578690
	C211	C	0.904027	0.906883	0.390299
	C212	C	0.597194	0.103821	0.884158
	C213	C	0.409779	0.104795	0.084821
	C214	C	0.597285	0.906151	0.085052
	C215	C	0.409834	0.907419	0.886990
	Zn216	Zn	0.502301	0.005277	0.734187
	Zn217	Zn	0.503208	0.005362	0.236478
	Zn218	Zn	0.754145	0.505443	-0.014496
	Zn219	Zn	0.253634	0.505891	-0.014211
	Zn220	Zn	0.002972	0.754577	0.484368
	Zn221	Zn	0.002947	0.253965	0.484900
	Zn222	Zn	0.005116	0.504022	0.736101
	Zn223	Zn	0.003398	0.505449	0.234759
	Zn224	Zn	0.503769	0.755673	-0.014371
	Zn225	Zn	0.504731	0.255007	-0.014074
	Zn226	Zn	0.752451	0.004015	0.485065
	Zn227	Zn	0.252568	0.003994	0.484157
	N228	N	0.415646	0.967576	0.664506
	N229	N	0.586367	0.042483	0.661543
	N230	N	0.588242	0.967652	0.308376
	N231	N	0.417342	0.041754	0.307856
	N232	N	0.684568	0.417860	0.949342
	N233	N	0.683573	0.592429	0.021958
	N234	N	0.324269	0.592846	0.948878
	N235	N	0.324987	0.419776	0.022931
	N236	N	0.966226	0.683485	0.398759
	N237	N	0.040679	0.682592	0.570340
	N238	N	0.966971	0.325868	0.571163
	N239	N	0.040721	0.325720	0.399347
	N240	N	0.968449	0.416798	0.666031
	N241	N	0.041162	0.589797	0.663954
	N242	N	0.966917	0.592216	0.305124
	N243	N	0.040554	0.418776	0.306116
	N244	N	0.418254	0.684486	0.948562
	N245	N	0.587804	0.682623	0.023183
	N246	N	0.590177	0.326996	0.948766
	N247	N	0.419334	0.327529	0.023217
	N248	N	0.682671	0.967837	0.398401
	N249	N	0.682047	0.040708	0.572137
	N250	N	0.323362	0.966909	0.570968
	N251	N	0.323965	0.040749	0.398998
	N252	N	0.918376	0.468472	0.163379
	N253	N	0.088927	0.542373	0.162846
	N254	N	0.090796	0.467223	0.807840
	N255	N	0.919669	0.541601	0.807818
	N256	N	0.183530	0.916134	0.447580
	N257	N	0.181176	0.089769	0.520935
	N258	N	0.822130	0.091887	0.448264
	N259	N	0.823661	0.917841	0.521164
	N260	N	0.466947	0.184801	0.899394
	N261	N	0.541277	0.182314	0.070430
	N262	N	0.466325	0.827588	0.071590
	N263	N	0.541133	0.827909	0.900361
	N264	N	0.466483	0.919846	0.165203
	N265	N	0.539415	0.092609	0.165921
	N266	N	0.466167	0.092506	0.805715
	N267	N	0.539914	0.918938	0.805739
	N268	N	0.916583	0.183365	0.447528
	N269	N	0.087107	0.180530	0.521566
	N270	N	0.088073	0.825968	0.446697
	N271	N	0.917418	0.826831	0.521472
	N272	N	0.184303	0.468474	0.898895
	N273	N	0.181807	0.542551	0.071060
	N274	N	0.825105	0.468553	0.071994
	N275	N	0.825037	0.541624	0.898874
	O276	O	-0.356706	-0.500550	0.516105
	H277	H	-0.364955	-0.502094	0.501801
	H278	H	-0.343920	-0.513252	0.503863
	O279	O	0.692955	0.520944	0.544552
	H280	H	0.700731	0.515333	0.526097
	H281	H	0.702044	0.519734	0.536869
	O282	O	0.432790	0.508241	0.405974
	H283	H	0.430394	0.505781	0.418277
	H284	H	0.434764	0.511150	0.389972
	O285	O	0.008300	1.038816	0.959628
	H286	H	0.004235	1.047504	0.948860
	H287	H	0.010988	1.039839	0.959826
	O288	O	0.509725	0.454407	0.503965
	H289	H	0.511022	0.460342	0.490561
	H290	H	0.503897	0.449387	0.507736
	O291	O	0.436222	1.423175	1.576617
	H292	H	0.425806	1.404560	1.578610
	H293	H	0.421719	1.424107	1.561792
	O294	O	1.065359	0.997798	0.911822
	H295	H	1.076383	0.985213	0.906819
	H296	H	1.063414	1.000160	0.904685
	O297	O	1.011723	-0.055924	0.901794
	H298	H	1.007457	-0.054267	0.898206
	H299	H	1.005792	-0.050395	0.916075
	O300	O	0.401222	0.473510	0.409523
	H301	H	0.403859	0.476595	0.403078
	H302	H	0.405995	0.480990	0.398431
	O303	O	1.032799	0.001027	-0.102225
	H304	H	1.022651	0.011415	-0.095830
	H305	H	1.034774	-0.002781	-0.104240
	O306	O	-0.000957	0.950836	0.982351
	H307	H	-0.002484	0.954082	0.980097
	H308	H	-0.006351	0.958294	0.986416
	O309	O	0.605256	0.680491	0.479885
	H310	H	0.615620	0.702555	0.495167
	H311	H	0.596787	0.680499	0.492744
	O312	O	0.998236	-0.025163	0.922169
	H313	H	1.002113	-0.018661	0.916963
	H314	H	0.989493	-0.023407	0.925317
	O315	O	0.403530	0.444793	0.455730
	H316	H	0.394765	0.440560	0.438210
	H317	H	0.399993	0.454662	0.455979
	O318	O	-0.019066	0.050037	0.927313
	H319	H	-0.026821	0.052586	0.924139
	H320	H	-0.021717	0.028736	0.921580
	O321	O	1.654723	0.375726	1.512900
	H322	H	1.655649	0.356290	1.501718
	H323	H	1.653113	0.388286	1.490208
	O324	O	0.572788	0.586273	0.589676
	H325	H	0.576654	0.587252	0.594055
	H326	H	0.594354	0.586126	0.596785
	O327	O	0.486535	0.442826	0.610269
	H328	H	0.488470	0.426370	0.598377
	H329	H	0.467898	0.439530	0.626553
	O330	O	0.548566	-0.592853	0.599320
	H331	H	0.550555	-0.582684	0.604240
	H332	H	0.542356	-0.602051	0.598209
	O333	O	1.055193	0.984427	-0.099429
	H334	H	1.075684	0.972057	-0.102590
	H335	H	1.055215	0.977883	-0.104706
	O336	O	0.485521	0.656909	0.505417
	H337	H	0.475182	0.666154	0.520638
	H338	H	0.482196	0.647896	0.501545
	O339	O	0.377265	0.542078	0.539932
	H340	H	0.380875	0.545654	0.546210
	H341	H	0.382861	0.540967	0.545967
	O342	O	0.462354	1.576892	0.370327
	H343	H	0.451055	1.580527	0.375714
	H344	H	0.445397	1.589840	0.380321
	O345	O	0.481808	0.474093	0.412185
	H346	H	0.483619	0.472146	0.415110
	H347	H	0.477318	0.487436	0.434938
	O348	O	0.527851	0.593977	0.564278
	H349	H	0.539832	0.596912	0.569426
	H350	H	0.532519	0.576376	0.568821
	O351	O	-0.502299	0.455188	0.439731
	H352	H	-0.500273	0.453597	0.445974
	H353	H	-0.505778	0.438123	0.425611
	O354	O	0.467728	0.597624	0.572546
	H355	H	0.478342	0.588430	0.574601
	H356	H	0.456303	0.596151	0.583615
	O357	O	0.420702	0.447909	0.366933
	H358	H	0.428832	0.472767	0.362124
	H359	H	0.420618	0.440993	0.365120
	O360	O	0.034814	0.014120	-0.019926
	H361	H	0.030662	0.013797	-0.024960
	H362	H	0.031160	0.023591	-0.026981
	O363	O	0.591122	0.516665	0.346841
	H364	H	0.583704	0.514245	0.346045
	H365	H	0.600061	0.518618	0.361868
	O366	O	-0.023921	0.029573	0.965686
	H367	H	-0.014227	0.029902	0.966742
	H368	H	-0.028215	0.032059	0.965524
	O369	O	0.591261	0.427807	0.443220
	H370	H	0.598443	0.445147	0.425300
	H371	H	0.585429	0.424762	0.449028
