data_Molecule from HDF5

_cell_length_a		16.192309
_cell_length_b		16.326694
_cell_length_c		16.302587
_cell_angle_alpha	89.998801
_cell_angle_beta	89.964635
_cell_angle_gamma	90.022838
_symmetry_space_group_name_H-M	'P 1'
_symmetry_Int_Tables_number		1

loop_
	_symmetry_equiv_pos_as_xyz
	x,y,z

loop_
	_atom_site_label
	_atom_site_type_symbol
	_atom_site_fract_x
	_atom_site_fract_y
	_atom_site_fract_z
	H0	H	0.407568	0.836793	0.710920
	H1	H	0.609467	0.161906	0.711059
	H2	H	0.607614	0.836108	0.280087
	H3	H	0.408084	0.162141	0.276861
	H4	H	0.724001	0.402248	0.831225
	H5	H	0.722910	0.596746	0.159075
	H6	H	0.297196	0.595415	0.830330
	H7	H	0.295936	0.402075	0.158811
	H8	H	0.844471	0.713246	0.396382
	H9	H	0.173341	0.714967	0.593115
	H10	H	0.844904	0.285497	0.592941
	H11	H	0.173322	0.285219	0.395656
	H12	H	0.845329	0.400607	0.709521
	H13	H	0.174110	0.597875	0.707322
	H14	H	0.844559	0.596968	0.281417
	H15	H	0.174286	0.402500	0.281599
	H16	H	0.410760	0.714097	0.831661
	H17	H	0.609495	0.715505	0.158012
	H18	H	0.609475	0.284181	0.831628
	H19	H	0.409975	0.283772	0.157588
	H20	H	0.722647	0.835890	0.396935
	H21	H	0.721695	0.163442	0.591638
	H22	H	0.294490	0.836444	0.591626
	H23	H	0.294949	0.163563	0.396515
	H24	H	0.909512	0.336875	0.209933
	H25	H	0.108208	0.662677	0.208711
	H26	H	0.109218	0.336933	0.777886
	H27	H	0.911068	0.662641	0.779426
	H28	H	0.222735	0.902679	0.330774
	H29	H	0.222516	0.097467	0.657926
	H30	H	0.795387	0.097027	0.330459
	H31	H	0.794868	0.903043	0.657884
	H32	H	0.345674	0.213607	0.896898
	H33	H	0.674216	0.213785	0.093898
	H34	H	0.344747	0.784357	0.093079
	H35	H	0.674211	0.785866	0.896785
	H36	H	0.344575	0.900944	0.208385
	H37	H	0.673684	0.097160	0.208386
	H38	H	0.344479	0.097337	0.782091
	H39	H	0.673898	0.902009	0.781083
	H40	H	0.910546	0.214624	0.330687
	H41	H	0.107681	0.214663	0.657646
	H42	H	0.108046	0.785703	0.331605
	H43	H	0.907724	0.783802	0.657436
	H44	H	0.223511	0.335392	0.895876
	H45	H	0.222944	0.662766	0.091013
	H46	H	0.796394	0.335788	0.092103
	H47	H	0.796400	0.663260	0.897541
	H48	H	0.425348	0.115119	0.597152
	H49	H	0.599446	0.884609	0.584212
	H50	H	0.603640	0.113242	0.411527
	H51	H	0.414931	0.883100	0.399895
	H52	H	0.608165	0.407858	0.112388
	H53	H	0.596984	0.598270	0.878662
	H54	H	0.423561	0.593161	0.109119
	H55	H	0.415896	0.409831	0.878663
	H56	H	0.128399	0.598553	0.400308
	H57	H	0.890837	0.596441	0.586265
	H58	H	0.126385	0.410142	0.589415
	H59	H	0.893936	0.409334	0.406409
	H60	H	0.127769	0.403405	0.586582
	H61	H	0.893855	0.589864	0.584039
	H62	H	0.124402	0.592536	0.406126
	H63	H	0.891157	0.409302	0.396847
	H64	H	0.413589	0.598059	0.114210
	H65	H	0.609580	0.594209	0.876192
	H66	H	0.598323	0.409801	0.108295
	H67	H	0.421064	0.404206	0.879459
	H68	H	0.609746	0.119735	0.393474
	H69	H	0.605650	0.882649	0.587450
	H70	H	0.418372	0.111830	0.577220
	H71	H	0.417484	0.884351	0.400777
	H72	H	0.925357	0.613411	0.087418
	H73	H	0.104358	0.383675	0.083176
	H74	H	0.116196	0.616340	0.910108
	H75	H	0.909386	0.381790	0.904677
	H76	H	0.101760	0.912504	0.609666
	H77	H	0.095724	0.100054	0.377280
	H78	H	0.911411	0.090027	0.611698
	H79	H	0.910028	0.911777	0.378068
	H80	H	0.627886	0.103633	0.909652
	H81	H	0.393228	0.092702	0.083498
	H82	H	0.623986	0.907388	0.081681
	H83	H	0.390657	0.898084	0.907959
	H84	H	0.626342	0.910666	0.091732
	H85	H	0.393118	0.089181	0.087408
	H86	H	0.621609	0.080522	0.908104
	H87	H	0.395628	0.913966	0.904843
	H88	H	0.919676	0.092439	0.608866
	H89	H	0.109500	0.095045	0.374633
	H90	H	0.096463	0.903558	0.610559
	H91	H	0.923910	0.906716	0.380711
	H92	H	0.103667	0.620467	0.885315
	H93	H	0.106100	0.381451	0.092759
	H94	H	0.910257	0.616154	0.081384
	H95	H	0.919444	0.381800	0.892558
	H96	H	0.405345	0.119874	0.591646
	H97	H	0.599747	0.882819	0.591060
	H98	H	0.590653	0.113392	0.396107
	H99	H	0.415445	0.884436	0.402673
	H100	H	0.600143	0.399925	0.112700
	H101	H	0.601001	0.584979	0.882241
	H102	H	0.413222	0.586373	0.110562
	H103	H	0.413832	0.403048	0.877055
	H104	H	0.127027	0.589795	0.397474
	H105	H	0.891420	0.591241	0.591447
	H106	H	0.124487	0.408377	0.581705
	H107	H	0.890894	0.401217	0.402290
	H108	H	0.913340	0.619144	0.097400
	H109	H	0.096596	0.383829	0.090163
	H110	H	0.089258	0.609310	0.907016
	H111	H	0.923974	0.386731	0.906197
	H112	H	0.106272	0.904168	0.613509
	H113	H	0.099479	0.086156	0.381139
	H114	H	0.914338	0.099048	0.612471
	H115	H	0.913457	0.897644	0.374398
	H116	H	0.630873	0.091780	0.889126
	H117	H	0.391516	0.094312	0.087950
	H118	H	0.628851	0.900329	0.088660
	H119	H	0.389020	0.904258	0.892512
	C120	C	0.387134	0.007824	0.616719
	C121	C	0.630176	0.991097	0.616274
	C122	C	0.630110	0.007742	0.372475
	C123	C	0.387288	0.991818	0.372382
	C124	C	0.631541	0.377344	0.003376
	C125	C	0.630917	0.621187	0.987012
	C126	C	0.388056	0.620757	0.003031
	C127	C	0.387985	0.377409	0.986225
	C128	C	0.017736	0.621544	0.372898
	C129	C	1.000920	0.621155	0.615536
	C130	C	0.017917	0.378466	0.615072
	C131	C	1.000710	0.378513	0.373259
	C132	C	0.887603	0.507957	0.117068
	C133	C	0.131045	0.490944	0.116252
	C134	C	0.131889	0.507701	0.872205
	C135	C	0.888509	0.491358	0.872900
	C136	C	0.130211	0.878589	0.503138
	C137	C	0.130168	0.121990	0.485808
	C138	C	0.886898	0.121804	0.502620
	C139	C	0.886800	0.877656	0.485789
	C140	C	0.517946	0.120436	0.873880
	C141	C	0.501035	0.120906	0.115829
	C142	C	0.517499	0.877757	0.115860
	C143	C	0.500835	0.877610	0.873443
	C144	C	0.388441	0.885450	0.672133
	C145	C	0.628929	0.113437	0.672475
	C146	C	0.628111	0.884707	0.317914
	C147	C	0.388873	0.114053	0.316129
	C148	C	0.686392	0.380779	0.880054
	C149	C	0.685079	0.617438	0.110209
	C150	C	0.333826	0.617210	0.879734
	C151	C	0.332967	0.380577	0.109716
	C152	C	0.893614	0.675639	0.376008
	C153	C	0.124375	0.676872	0.613115
	C154	C	0.893980	0.323493	0.613216
	C155	C	0.124469	0.323353	0.375384
	C156	C	0.894142	0.380701	0.670930
	C157	C	0.124823	0.618752	0.670075
	C158	C	0.893891	0.618304	0.318296
	C159	C	0.124909	0.381686	0.318881
	C160	C	0.390819	0.675553	0.880166
	C161	C	0.628745	0.676508	0.109716
	C162	C	0.629516	0.322275	0.880340
	C163	C	0.389908	0.322212	0.109146
	C164	C	0.685567	0.884876	0.375693
	C165	C	0.684800	0.114414	0.613116
	C166	C	0.332044	0.885076	0.612955
	C167	C	0.332423	0.114735	0.375232
	C168	C	0.890081	0.385223	0.171457
	C169	C	0.128661	0.613909	0.171021
	C170	C	0.129320	0.384963	0.816723
	C171	C	0.890610	0.614026	0.817587
	C172	C	0.185375	0.881697	0.379808
	C173	C	0.184681	0.118491	0.609084
	C174	C	0.832712	0.118436	0.379258
	C175	C	0.832404	0.881636	0.609151
	C176	C	0.394360	0.175801	0.876137
	C177	C	0.625082	0.175905	0.113832
	C178	C	0.393730	0.822688	0.113384
	C179	C	0.624806	0.823061	0.875953
	C180	C	0.393828	0.880441	0.170815
	C181	C	0.625027	0.117815	0.170470
	C182	C	0.393862	0.117473	0.819479
	C183	C	0.624722	0.880488	0.818466
	C184	C	0.889634	0.176964	0.379671
	C185	C	0.127915	0.176804	0.608755
	C186	C	0.128543	0.823472	0.380219
	C187	C	0.888425	0.822520	0.608741
	C188	C	0.186380	0.384500	0.875080
	C189	C	0.185437	0.613910	0.112400
	C190	C	0.833456	0.384814	0.112946
	C191	C	0.833603	0.614260	0.876212
	C192	C	0.409655	0.093417	0.594948
	C193	C	0.608069	0.905456	0.593959
	C194	C	0.607915	0.093482	0.394096
	C195	C	0.409492	0.906153	0.394582
	C196	C	0.609075	0.399418	0.089069
	C197	C	0.608956	0.599055	0.901153
	C198	C	0.410145	0.598997	0.089091
	C199	C	0.410449	0.399087	0.900523
	C200	C	0.104351	0.599986	0.394863
	C201	C	0.914394	0.599064	0.593591
	C202	C	0.103875	0.400725	0.592580
	C203	C	0.914433	0.400231	0.395142
	C204	C	0.909758	0.594173	0.095255
	C205	C	0.108888	0.405005	0.094865
	C206	C	0.109621	0.593420	0.894406
	C207	C	0.910971	0.405530	0.894753
	C208	C	0.108001	0.900340	0.588945
	C209	C	0.108106	0.100227	0.399810
	C210	C	0.908606	0.100322	0.588808
	C211	C	0.909185	0.899249	0.399863
	C212	C	0.604452	0.098510	0.895933
	C213	C	0.414898	0.098698	0.092956
	C214	C	0.604081	0.899572	0.093791
	C215	C	0.414132	0.899082	0.895320
	Zn216	Zn	0.509482	-0.000954	0.745621
	Zn217	Zn	0.509275	-0.000196	0.243555
	Zn218	Zn	0.759728	0.499446	-0.005141
	Zn219	Zn	0.259784	0.498556	-0.005404
	Zn220	Zn	0.008816	0.749905	0.494814
	Zn221	Zn	0.008940	0.250291	0.494182
	Zn222	Zn	0.009780	0.499292	0.743280
	Zn223	Zn	0.009273	0.499273	0.244999
	Zn224	Zn	0.509174	0.749730	-0.005102
	Zn225	Zn	0.509972	0.249051	-0.004960
	Zn226	Zn	0.758640	-0.000056	0.494150
	Zn227	Zn	0.258479	0.000395	0.494261
	N228	N	0.422239	0.962739	0.674542
	N229	N	0.595745	0.035892	0.674455
	N230	N	0.594434	0.962030	0.315696
	N231	N	0.422102	0.036550	0.314211
	N232	N	0.687767	0.414135	0.957401
	N233	N	0.686495	0.583728	0.032893
	N234	N	0.332103	0.583793	0.957283
	N235	N	0.331953	0.414417	0.032418
	N236	N	0.971647	0.677648	0.409378
	N237	N	0.046093	0.678450	0.580008
	N238	N	0.971649	0.321953	0.579296
	N239	N	0.046332	0.321370	0.408561
	N240	N	0.972235	0.414240	0.672231
	N241	N	0.047089	0.584732	0.671588
	N242	N	0.972085	0.585464	0.316156
	N243	N	0.046951	0.415139	0.317367
	N244	N	0.423816	0.677806	0.957845
	N245	N	0.595782	0.678767	0.032077
	N246	N	0.596184	0.319994	0.958145
	N247	N	0.423433	0.320182	0.031594
	N248	N	0.686806	0.962217	0.408997
	N249	N	0.685684	0.037341	0.578714
	N250	N	0.331104	0.962329	0.579164
	N251	N	0.331282	0.037858	0.409491
	N252	N	0.922810	0.462921	0.174020
	N253	N	0.095514	0.536264	0.173546
	N254	N	0.096337	0.462398	0.814704
	N255	N	0.924115	0.536484	0.815549
	N256	N	0.186664	0.915268	0.457309
	N257	N	0.186358	0.085202	0.531610
	N258	N	0.830944	0.084864	0.456608
	N259	N	0.831442	0.915374	0.531806
	N260	N	0.472272	0.177522	0.909450
	N261	N	0.546972	0.177910	0.080584
	N262	N	0.471730	0.820988	0.079888
	N263	N	0.546586	0.821033	0.909200
	N264	N	0.471725	0.914183	0.172000
	N265	N	0.547085	0.084382	0.171751
	N266	N	0.471866	0.083769	0.817920
	N267	N	0.546790	0.913809	0.817084
	N268	N	0.922579	0.179044	0.457480
	N269	N	0.094675	0.178918	0.531039
	N270	N	0.094764	0.821642	0.457549
	N271	N	0.921356	0.819858	0.531000
	N272	N	0.187834	0.461692	0.909158
	N273	N	0.186983	0.536590	0.079049
	N274	N	0.831901	0.462371	0.079730
	N275	N	0.832270	0.537082	0.909988
	O276	O	-0.394342	0.467154	1.507544
	H277	H	-0.394648	0.472758	1.507343
	H278	H	-0.392651	0.463827	1.504557
	O279	O	0.529426	0.490755	0.480877
	H280	H	0.527154	0.487509	0.482452
	H281	H	0.537767	0.494774	0.490336
	O282	O	0.520961	0.514063	0.542839
	H283	H	0.530660	0.517362	0.546020
	H284	H	0.514013	0.516436	0.548725
	O285	O	0.506725	0.498802	0.539324
	H286	H	0.509528	0.492921	0.537789
	H287	H	0.502320	0.505357	0.543890
	O288	O	0.547187	0.493456	0.533961
	H289	H	0.539951	0.493377	0.535580
	H290	H	0.544834	0.488919	0.541776
	O291	O	-0.505933	1.491214	0.491905
	H292	H	-0.505256	1.490154	0.494671
	H293	H	-0.505507	1.490682	0.491195
	O294	O	0.537756	0.454928	0.524313
	H295	H	0.537195	0.447334	0.518933
	H296	H	0.542312	0.450392	0.528591
	O297	O	0.521030	-0.530204	0.503921
	H298	H	0.527591	-0.524284	0.500687
	H299	H	0.518924	-0.528277	0.494341
