data_Molecule from HDF5

_cell_length_a		16.274954
_cell_length_b		16.187771
_cell_length_c		16.251081
_cell_angle_alpha	89.985790
_cell_angle_beta	90.531145
_cell_angle_gamma	89.986429
_symmetry_space_group_name_H-M	'P 1'
_symmetry_Int_Tables_number		1

loop_
	_symmetry_equiv_pos_as_xyz
	x,y,z

loop_
	_atom_site_label
	_atom_site_type_symbol
	_atom_site_fract_x
	_atom_site_fract_y
	_atom_site_fract_z
	H0	H	0.406470	0.840340	0.710048
	H1	H	0.603839	0.168682	0.713659
	H2	H	0.600908	0.840397	0.285185
	H3	H	0.401298	0.168551	0.282122
	H4	H	0.716438	0.406075	0.833782
	H5	H	0.722976	0.607899	0.160279
	H6	H	0.286465	0.605102	0.835010
	H7	H	0.290202	0.404775	0.161697
	H8	H	0.839985	0.720024	0.397985
	H9	H	0.168457	0.717330	0.595612
	H10	H	0.841567	0.289343	0.596662
	H11	H	0.167528	0.291107	0.401518
	H12	H	0.840315	0.406245	0.710776
	H13	H	0.167028	0.605446	0.714946
	H14	H	0.841041	0.606490	0.279601
	H15	H	0.167529	0.406368	0.286096
	H16	H	0.404215	0.718402	0.833483
	H17	H	0.603901	0.719897	0.162656
	H18	H	0.601023	0.290747	0.833891
	H19	H	0.405763	0.290475	0.161201
	H20	H	0.717845	0.840335	0.400346
	H21	H	0.720854	0.167941	0.601848
	H22	H	0.291325	0.840401	0.595813
	H23	H	0.287793	0.168599	0.397987
	H24	H	0.904565	0.341592	0.212988
	H25	H	0.104339	0.669260	0.213933
	H26	H	0.101488	0.341121	0.785959
	H27	H	0.903714	0.670228	0.783368
	H28	H	0.215139	0.906861	0.333932
	H29	H	0.221281	0.104040	0.661360
	H30	H	0.785818	0.106130	0.336527
	H31	H	0.792083	0.905359	0.663478
	H32	H	0.339127	0.219322	0.898073
	H33	H	0.667648	0.218259	0.097078
	H34	H	0.338837	0.791611	0.095537
	H35	H	0.667144	0.791438	0.902709
	H36	H	0.339007	0.907047	0.210749
	H37	H	0.666086	0.105796	0.217028
	H38	H	0.340290	0.104520	0.779957
	H39	H	0.666829	0.906117	0.785944
	H40	H	0.903474	0.220523	0.335418
	H41	H	0.104871	0.218993	0.662236
	H42	H	0.099473	0.792321	0.334334
	H43	H	0.907778	0.790377	0.662766
	H44	H	0.215785	0.341166	0.901314
	H45	H	0.219257	0.668485	0.098138
	H46	H	0.789259	0.341564	0.097139
	H47	H	0.788010	0.669999	0.898054
	H48	H	0.412800	0.120542	0.585768
	H49	H	0.601138	0.885028	0.594020
	H50	H	0.597656	0.123634	0.403830
	H51	H	0.412070	0.885841	0.399547
	H52	H	0.599752	0.407460	0.117087
	H53	H	0.591527	0.602296	0.880642
	H54	H	0.409173	0.606779	0.117839
	H55	H	0.407115	0.410329	0.879266
	H56	H	0.121312	0.597188	0.400555
	H57	H	0.886190	0.608639	0.582521
	H58	H	0.119938	0.412243	0.590681
	H59	H	0.890372	0.415782	0.410347
	H60	H	0.121086	0.414342	0.594262
	H61	H	0.891178	0.587112	0.586643
	H62	H	0.122218	0.604294	0.406068
	H63	H	0.887019	0.416569	0.399807
	H64	H	0.405622	0.591947	0.115164
	H65	H	0.600087	0.598985	0.880140
	H66	H	0.602131	0.418891	0.113790
	H67	H	0.407622	0.416398	0.881885
	H68	H	0.588390	0.119934	0.407669
	H69	H	0.593869	0.888673	0.593590
	H70	H	0.406727	0.124402	0.590127
	H71	H	0.410979	0.889009	0.408030
	H72	H	0.918612	0.621353	0.090324
	H73	H	0.104895	0.386897	0.087265
	H74	H	0.099658	0.626118	0.903694
	H75	H	0.900587	0.385977	0.903885
	H76	H	0.104279	0.906434	0.618701
	H77	H	0.102960	0.085667	0.382760
	H78	H	0.912826	0.096398	0.615365
	H79	H	0.902064	0.915247	0.379779
	H80	H	0.620203	0.093939	0.899344
	H81	H	0.389578	0.092914	0.086104
	H82	H	0.616402	0.923250	0.094022
	H83	H	0.387109	0.907932	0.909275
	H84	H	0.624306	0.907320	0.101352
	H85	H	0.384652	0.096069	0.097516
	H86	H	0.622121	0.105887	0.907218
	H87	H	0.387950	0.920314	0.902940
	H88	H	0.913665	0.096920	0.615571
	H89	H	0.082378	0.097329	0.385839
	H90	H	0.102294	0.917674	0.615210
	H91	H	0.913449	0.916384	0.384687
	H92	H	0.090146	0.622311	0.903871
	H93	H	0.097154	0.383797	0.101661
	H94	H	0.911149	0.621127	0.083762
	H95	H	0.914686	0.386885	0.896670
	H96	H	0.414244	0.123048	0.593162
	H97	H	0.598325	0.887764	0.587745
	H98	H	0.597189	0.120070	0.413964
	H99	H	0.403627	0.885365	0.403172
	H100	H	0.591213	0.414250	0.111966
	H101	H	0.593016	0.594293	0.883852
	H102	H	0.420096	0.597279	0.112341
	H103	H	0.412750	0.412632	0.881900
	H104	H	0.119253	0.596093	0.409584
	H105	H	0.882622	0.600107	0.602562
	H106	H	0.122694	0.410518	0.594349
	H107	H	0.885249	0.407777	0.405428
	H108	H	0.908735	0.624575	0.093599
	H109	H	0.088863	0.390379	0.088281
	H110	H	0.095447	0.621287	0.912429
	H111	H	0.912997	0.392013	0.912189
	H112	H	0.093545	0.909972	0.614884
	H113	H	0.101390	0.109302	0.376007
	H114	H	0.913473	0.097525	0.615345
	H115	H	0.909838	0.905260	0.380251
	H116	H	0.616089	0.093844	0.913503
	H117	H	0.385991	0.105560	0.087757
	H118	H	0.618234	0.908156	0.083534
	H119	H	0.382976	0.908712	0.896264
	C120	C	0.383363	0.013531	0.618113
	C121	C	0.626934	0.995218	0.621629
	C122	C	0.623571	0.012862	0.378938
	C123	C	0.380386	0.995927	0.375431
	C124	C	0.625049	0.384591	0.005938
	C125	C	0.625133	0.627723	0.989509
	C126	C	0.381399	0.627588	0.006805
	C127	C	0.381655	0.383824	0.989119
	C128	C	0.012562	0.627823	0.375569
	C129	C	0.995125	0.627073	0.619798
	C130	C	0.013146	0.383435	0.620878
	C131	C	0.995563	0.384219	0.377445
	C132	C	0.883478	0.514025	0.118376
	C133	C	0.126363	0.495914	0.120992
	C134	C	0.123925	0.514376	0.878105
	C135	C	0.880825	0.497149	0.875386
	C136	C	0.126093	0.883383	0.507430
	C137	C	0.125819	0.126181	0.489499
	C138	C	0.882574	0.126730	0.507719
	C139	C	0.882008	0.883360	0.490416
	C140	C	0.511522	0.126681	0.876430
	C141	C	0.494629	0.127164	0.120568
	C142	C	0.511183	0.884058	0.120059
	C143	C	0.494503	0.883654	0.875937
	C144	C	0.386031	0.889664	0.673181
	C145	C	0.624554	0.119187	0.676720
	C146	C	0.621309	0.889297	0.323416
	C147	C	0.381816	0.119497	0.320272
	C148	C	0.679166	0.385994	0.882669
	C149	C	0.683493	0.627044	0.111944
	C150	C	0.324862	0.625201	0.883828
	C151	C	0.327237	0.385096	0.112353
	C152	C	0.889128	0.682707	0.377344
	C153	C	0.119034	0.680579	0.616860
	C154	C	0.890193	0.327519	0.617393
	C155	C	0.118798	0.328919	0.381142
	C156	C	0.889757	0.385491	0.674428
	C157	C	0.118292	0.624967	0.676145
	C158	C	0.889532	0.625796	0.318838
	C159	C	0.118648	0.386414	0.323532
	C160	C	0.383220	0.681889	0.883117
	C161	C	0.624217	0.683051	0.113042
	C162	C	0.621631	0.328624	0.882715
	C163	C	0.384955	0.328126	0.112314
	C164	C	0.679528	0.889522	0.380620
	C165	C	0.682683	0.118862	0.621021
	C166	C	0.328969	0.889430	0.615756
	C167	C	0.325115	0.119351	0.377688
	C168	C	0.884837	0.390363	0.174483
	C169	C	0.124084	0.619932	0.175942
	C170	C	0.121766	0.390389	0.823256
	C171	C	0.883333	0.620945	0.820634
	C172	C	0.178632	0.886094	0.383241
	C173	C	0.182411	0.123706	0.612713
	C174	C	0.824809	0.125771	0.385187
	C175	C	0.829294	0.885506	0.614141
	C176	C	0.388250	0.181763	0.877651
	C177	C	0.618198	0.181943	0.118676
	C178	C	0.387842	0.829107	0.116127
	C179	C	0.617899	0.828510	0.880771
	C180	C	0.387900	0.886220	0.173763
	C181	C	0.617435	0.125927	0.178076
	C182	C	0.388785	0.124635	0.819042
	C183	C	0.617872	0.885322	0.822538
	C184	C	0.883428	0.182448	0.384447
	C185	C	0.124596	0.180928	0.613227
	C186	C	0.120925	0.829483	0.383270
	C187	C	0.886951	0.828524	0.613930
	C188	C	0.178410	0.390316	0.880768
	C189	C	0.181592	0.619479	0.118792
	C190	C	0.827186	0.390517	0.117066
	C191	C	0.825913	0.620991	0.877698
	C192	C	0.404995	0.100152	0.596139
	C193	C	0.604418	0.909434	0.598709
	C194	C	0.601005	0.098865	0.401982
	C195	C	0.402633	0.909120	0.397063
	C196	C	0.603930	0.406964	0.091998
	C197	C	0.601666	0.605127	0.903760
	C198	C	0.404775	0.605172	0.092853
	C199	C	0.402900	0.406460	0.903077
	C200	C	0.098685	0.605702	0.398641
	C201	C	0.908898	0.605146	0.597127
	C202	C	0.099219	0.405834	0.599348
	C203	C	0.909680	0.406793	0.398804
	C204	C	0.906097	0.600065	0.095889
	C205	C	0.103616	0.409300	0.098900
	C206	C	0.101647	0.600935	0.900072
	C207	C	0.902883	0.410578	0.897639
	C208	C	0.105928	0.904979	0.593862
	C209	C	0.102284	0.103995	0.403720
	C210	C	0.906420	0.103636	0.593437
	C211	C	0.902384	0.905784	0.403924
	C212	C	0.597185	0.104349	0.899785
	C213	C	0.408903	0.104852	0.097286
	C214	C	0.597330	0.906332	0.099156
	C215	C	0.408379	0.905907	0.896492
	Zn216	Zn	0.504074	0.004978	0.746969
	Zn217	Zn	0.502534	0.005306	0.249085
	Zn218	Zn	0.753939	0.505794	-0.002656
	Zn219	Zn	0.253031	0.505353	-0.001595
	Zn220	Zn	0.004013	0.755720	0.498552
	Zn221	Zn	0.004667	0.255214	0.498538
	Zn222	Zn	0.003746	0.506134	0.748700
	Zn223	Zn	0.004211	0.505230	0.247719
	Zn224	Zn	0.502746	0.755879	-0.001670
	Zn225	Zn	0.503550	0.255791	-0.002207
	Zn226	Zn	0.753497	0.004876	0.500139
	Zn227	Zn	0.254468	0.004130	0.497933
	N228	N	0.419169	0.967791	0.674823
	N229	N	0.590556	0.041313	0.677243
	N230	N	0.587180	0.967068	0.322115
	N231	N	0.415493	0.041614	0.318771
	N232	N	0.681457	0.420106	0.960254
	N233	N	0.684112	0.593290	0.034252
	N234	N	0.323632	0.592165	0.961832
	N235	N	0.325247	0.419011	0.034734
	N236	N	0.966555	0.684060	0.411976
	N237	N	0.041422	0.681968	0.582397
	N238	N	0.967847	0.326333	0.584653
	N239	N	0.041141	0.327539	0.413871
	N240	N	0.967249	0.419586	0.676802
	N241	N	0.040240	0.592554	0.678061
	N242	N	0.967317	0.592394	0.317652
	N243	N	0.041049	0.419976	0.320953
	N244	N	0.417579	0.683674	0.960726
	N245	N	0.588440	0.683451	0.035972
	N246	N	0.588650	0.327553	0.960404
	N247	N	0.418342	0.327223	0.034824
	N248	N	0.681019	0.967395	0.414373
	N249	N	0.684517	0.041041	0.587522
	N250	N	0.327031	0.967423	0.582509
	N251	N	0.324231	0.041449	0.411361
	N252	N	0.918789	0.468174	0.175695
	N253	N	0.090600	0.541819	0.177406
	N254	N	0.088452	0.468568	0.821493
	N255	N	0.916771	0.542894	0.818981
	N256	N	0.181805	0.919064	0.461224
	N257	N	0.183389	0.090534	0.534843
	N258	N	0.824034	0.091989	0.462865
	N259	N	0.825936	0.918802	0.536247
	N260	N	0.465640	0.183299	0.912514
	N261	N	0.540792	0.183326	0.083890
	N262	N	0.465625	0.827540	0.083690
	N263	N	0.540111	0.827439	0.913305
	N264	N	0.465595	0.919994	0.176210
	N265	N	0.539746	0.092502	0.179050
	N266	N	0.466390	0.091080	0.818390
	N267	N	0.540284	0.918776	0.819396
	N268	N	0.918577	0.183082	0.461720
	N269	N	0.090013	0.182670	0.535643
	N270	N	0.089141	0.827378	0.461423
	N271	N	0.918934	0.827041	0.535874
	N272	N	0.179868	0.468351	0.914116
	N273	N	0.182856	0.541531	0.085239
	N274	N	0.826420	0.468286	0.082847
	N275	N	0.824350	0.542909	0.911014
	O276	O	0.021853	-0.025524	-0.087516
	H277	H	0.027359	-0.035652	-0.102195
	H278	H	0.017656	-0.023104	-0.086590
	O279	O	0.401705	0.591982	0.450771
	H280	H	0.396609	0.595862	0.452167
	H281	H	0.408022	0.584889	0.447622
	O282	O	0.575824	0.496492	0.472708
	H283	H	0.577029	0.503726	0.466860
	H284	H	0.580351	0.507095	0.465221
	O285	O	0.989940	-0.004630	1.014229
	H286	H	0.992883	-0.003418	1.012878
	H287	H	0.989938	0.004818	1.015080
	O288	O	0.981612	-0.039032	0.056008
	H289	H	0.989269	-0.041030	0.055255
	H290	H	0.987716	-0.030991	0.057118
	O291	O	0.467452	0.522838	0.461507
	H292	H	0.471015	0.527264	0.471092
	H293	H	0.460788	0.531100	0.455361
	O294	O	1.020358	0.033523	1.020551
	H295	H	1.024731	0.036931	1.013104
	H296	H	1.020231	0.028738	1.019227
	O297	O	0.011825	-0.009504	-0.028334
	H298	H	0.006830	-0.008845	-0.032862
	H299	H	0.007205	-0.009410	-0.015209
	O300	O	0.569636	0.425054	0.460015
	H301	H	0.565870	0.434760	0.459269
	H302	H	0.566620	0.415041	0.466850
	O303	O	0.530177	0.467453	0.440172
	H304	H	0.517397	0.461301	0.452461
	H305	H	0.523067	0.480712	0.435722
	O306	O	1.006854	0.029718	-0.052893
	H307	H	1.003841	0.030227	-0.053464
	H308	H	1.009975	0.037580	-0.054988
	O309	O	0.010208	0.033484	1.025325
	H310	H	0.011554	0.028687	1.028243
	H311	H	0.001306	0.038343	1.018597
	O312	O	0.936100	0.945983	1.014289
	H313	H	0.942963	0.951203	1.005159
	H314	H	0.935214	0.949666	1.011620
	O315	O	0.581643	0.521067	0.514553
	H316	H	0.597741	0.520207	0.517119
	H317	H	0.582734	0.516417	0.516376
	O318	O	0.440123	0.445589	0.475460
	H319	H	0.439128	0.444336	0.484262
	H320	H	0.438707	0.436691	0.475979
	O321	O	-0.044876	1.021129	0.984564
	H322	H	-0.046415	1.016033	0.984745
	H323	H	-0.051915	1.019248	0.996807
	O324	O	0.512226	0.611054	0.531248
	H325	H	0.508088	0.619724	0.524077
	H326	H	0.504965	0.618803	0.540075
	O327	O	0.503813	0.473375	0.486881
	H328	H	0.512013	0.488660	0.489847
	H329	H	0.516110	0.465219	0.495899
	O330	O	0.642652	0.483230	0.453415
	H331	H	0.634363	0.498374	0.456699
	H332	H	0.646158	0.483732	0.444941
	O333	O	0.572852	0.480772	0.495343
	H334	H	0.571657	0.482923	0.507681
	H335	H	0.565818	0.482805	0.490449
	O336	O	0.513354	0.525781	0.573959
	H337	H	0.519405	0.520812	0.569890
	H338	H	0.523403	0.519275	0.580298
	O339	O	1.022222	1.026428	0.012797
	H340	H	1.019858	1.023298	0.020354
	H341	H	1.028179	1.022529	0.010773
	O342	O	0.517078	0.501806	0.448899
	H343	H	0.520586	0.500414	0.449829
	H344	H	0.516958	0.502447	0.438224
	O345	O	0.556461	0.501628	0.407881
	H346	H	0.564415	0.481166	0.399749
	H347	H	0.561117	0.503951	0.412249
	O348	O	0.031032	0.021336	-0.002813
	H349	H	0.028229	0.014156	-0.007931
	H350	H	0.029357	0.020937	-0.006391
	O351	O	-0.024222	0.979044	1.042308
	H352	H	-0.030351	0.972179	1.037994
	H353	H	-0.012572	0.978366	1.049063
	O354	O	0.494558	0.415866	0.554919
	H355	H	0.494351	0.405939	0.540126
	H356	H	0.497056	0.409834	0.549014
	O357	O	-0.039929	1.042168	0.980736
	H358	H	-0.041987	1.050474	0.978112
	H359	H	-0.035447	1.043155	0.992255
