data_Molecule from HDF5

_cell_length_a		16.258107
_cell_length_b		16.155454
_cell_length_c		16.351544
_cell_angle_alpha	89.856943
_cell_angle_beta	89.994791
_cell_angle_gamma	90.074236
_symmetry_space_group_name_H-M	'P 1'
_symmetry_Int_Tables_number		1

loop_
	_symmetry_equiv_pos_as_xyz
	x,y,z

loop_
	_atom_site_label
	_atom_site_type_symbol
	_atom_site_fract_x
	_atom_site_fract_y
	_atom_site_fract_z
	H0	H	0.409937	0.826684	0.718715
	H1	H	0.610645	0.154595	0.716451
	H2	H	0.610585	0.825903	0.288193
	H3	H	0.410670	0.154738	0.287454
	H4	H	0.728004	0.391480	0.839191
	H5	H	0.727692	0.588457	0.164956
	H6	H	0.297195	0.590097	0.838444
	H7	H	0.295916	0.389667	0.164069
	H8	H	0.846741	0.703066	0.403684
	H9	H	0.175150	0.703372	0.597580
	H10	H	0.847078	0.277682	0.597119
	H11	H	0.176234	0.276814	0.404871
	H12	H	0.849248	0.388321	0.718302
	H13	H	0.175377	0.590981	0.716574
	H14	H	0.848884	0.590259	0.284708
	H15	H	0.175528	0.390170	0.286455
	H16	H	0.415828	0.704297	0.838115
	H17	H	0.610442	0.704217	0.165955
	H18	H	0.611102	0.275528	0.838650
	H19	H	0.412312	0.275324	0.164314
	H20	H	0.724292	0.824407	0.405218
	H21	H	0.724656	0.154885	0.600467
	H22	H	0.296548	0.825577	0.601556
	H23	H	0.297916	0.154817	0.403841
	H24	H	0.911368	0.326168	0.217753
	H25	H	0.112922	0.654460	0.216422
	H26	H	0.111457	0.325943	0.787487
	H27	H	0.912352	0.654221	0.786306
	H28	H	0.226614	0.890361	0.339644
	H29	H	0.226926	0.090402	0.664481
	H30	H	0.794537	0.089487	0.339852
	H31	H	0.796072	0.890326	0.665565
	H32	H	0.347412	0.203841	0.904569
	H33	H	0.675441	0.204545	0.100511
	H34	H	0.346958	0.776947	0.098761
	H35	H	0.676992	0.780049	0.905853
	H36	H	0.347379	0.890009	0.217251
	H37	H	0.674094	0.091372	0.218810
	H38	H	0.348528	0.091829	0.785267
	H39	H	0.674961	0.891735	0.787107
	H40	H	0.913624	0.203448	0.338399
	H41	H	0.108347	0.203180	0.665285
	H42	H	0.108254	0.777015	0.338467
	H43	H	0.912073	0.773979	0.665368
	H44	H	0.224943	0.325101	0.903795
	H45	H	0.224449	0.655143	0.098042
	H46	H	0.797112	0.325450	0.100583
	H47	H	0.798325	0.654526	0.902310
	H48	H	0.420729	0.106330	0.592214
	H49	H	0.611587	0.868677	0.598766
	H50	H	0.605652	0.107464	0.411613
	H51	H	0.412020	0.868230	0.403726
	H52	H	0.606536	0.388079	0.121049
	H53	H	0.597303	0.591447	0.886705
	H54	H	0.416391	0.580757	0.117311
	H55	H	0.418101	0.391827	0.884174
	H56	H	0.126270	0.581655	0.412860
	H57	H	0.894339	0.583749	0.594677
	H58	H	0.131432	0.398403	0.606059
	H59	H	0.892628	0.382926	0.412281
	H60	H	0.130281	0.386673	0.590316
	H61	H	0.895805	0.580688	0.593093
	H62	H	0.129345	0.579496	0.403646
	H63	H	0.901412	0.408648	0.419308
	H64	H	0.420553	0.582447	0.116531
	H65	H	0.616488	0.589565	0.881423
	H66	H	0.612692	0.404028	0.117010
	H67	H	0.413390	0.400650	0.885306
	H68	H	0.602613	0.107922	0.406719
	H69	H	0.596690	0.872401	0.601841
	H70	H	0.417540	0.107589	0.594340
	H71	H	0.427820	0.875041	0.406632
	H72	H	0.916047	0.608926	0.091961
	H73	H	0.103160	0.369940	0.101267
	H74	H	0.105088	0.606405	0.913474
	H75	H	0.920800	0.373734	0.912848
	H76	H	0.105900	0.897394	0.618753
	H77	H	0.107462	0.084003	0.383952
	H78	H	0.920753	0.083710	0.617505
	H79	H	0.904673	0.897559	0.382881
	H80	H	0.627676	0.083554	0.910493
	H81	H	0.393605	0.084476	0.097256
	H82	H	0.625960	0.905040	0.095754
	H83	H	0.395263	0.899778	0.908671
	H84	H	0.630229	0.896399	0.102033
	H85	H	0.395207	0.082255	0.092488
	H86	H	0.628105	0.080364	0.908222
	H87	H	0.393549	0.896300	0.907436
	H88	H	0.915311	0.086627	0.619528
	H89	H	0.104865	0.078544	0.386900
	H90	H	0.103040	0.898147	0.617594
	H91	H	0.922871	0.909372	0.391386
	H92	H	0.109800	0.610166	0.905351
	H93	H	0.097834	0.375634	0.091882
	H94	H	0.922655	0.608054	0.098113
	H95	H	0.916318	0.370871	0.908929
	H96	H	0.420317	0.108283	0.595955
	H97	H	0.602202	0.875600	0.588349
	H98	H	0.600412	0.105854	0.411581
	H99	H	0.415437	0.874473	0.418945
	H100	H	0.596399	0.400387	0.114015
	H101	H	0.606543	0.574268	0.888398
	H102	H	0.417524	0.585007	0.118890
	H103	H	0.423055	0.400402	0.887173
	H104	H	0.128828	0.588959	0.407135
	H105	H	0.894889	0.579904	0.596638
	H106	H	0.124381	0.406184	0.590372
	H107	H	0.892805	0.403336	0.393863
	H108	H	0.923593	0.604873	0.090500
	H109	H	0.109759	0.372078	0.091210
	H110	H	0.100538	0.607464	0.904725
	H111	H	0.922502	0.372226	0.906499
	H112	H	0.103578	0.894482	0.618210
	H113	H	0.100877	0.084716	0.386190
	H114	H	0.914977	0.080250	0.618705
	H115	H	0.924614	0.886801	0.385387
	H116	H	0.628969	0.084178	0.906638
	H117	H	0.395626	0.079686	0.096709
	H118	H	0.627758	0.893847	0.091106
	H119	H	0.395664	0.897093	0.911123
	C120	C	0.390006	-0.001251	0.623549
	C121	C	0.632233	0.981344	0.624082
	C122	C	0.631784	-0.001802	0.381665
	C123	C	0.389424	0.981496	0.380719
	C124	C	0.633520	0.368878	0.009605
	C125	C	0.634982	0.613149	0.993513
	C126	C	0.390291	0.611574	0.009778
	C127	C	0.389392	0.368441	0.993038
	C128	C	0.019998	0.612014	0.379157
	C129	C	1.003091	0.610745	0.622825
	C130	C	0.020597	0.368262	0.623536
	C131	C	1.003892	0.369104	0.380029
	C132	C	0.891141	0.498539	0.122951
	C133	C	0.132680	0.481628	0.122748
	C134	C	0.133222	0.498835	0.879987
	C135	C	0.891183	0.481253	0.880575
	C136	C	0.132634	0.868188	0.510424
	C137	C	0.133103	0.111611	0.493353
	C138	C	0.888754	0.111871	0.510733
	C139	C	0.888788	0.868032	0.494256
	C140	C	0.520142	0.111990	0.879834
	C141	C	0.502910	0.111872	0.124061
	C142	C	0.519671	0.868980	0.124232
	C143	C	0.503040	0.869461	0.880813
	C144	C	0.390538	0.875385	0.680172
	C145	C	0.630458	0.105447	0.678877
	C146	C	0.630378	0.874546	0.326241
	C147	C	0.391292	0.105346	0.325288
	C148	C	0.689252	0.371138	0.887390
	C149	C	0.689929	0.609838	0.116274
	C150	C	0.335379	0.610005	0.887197
	C151	C	0.333830	0.369875	0.115441
	C152	C	0.896171	0.666037	0.382618
	C153	C	0.126349	0.666147	0.619285
	C154	C	0.896601	0.313867	0.619518
	C155	C	0.127159	0.313803	0.383247
	C156	C	0.897661	0.368929	0.679507
	C157	C	0.126298	0.610000	0.678135
	C158	C	0.897325	0.610450	0.323175
	C159	C	0.126884	0.370565	0.324878
	C160	C	0.394428	0.666827	0.887031
	C161	C	0.631420	0.667102	0.116857
	C162	C	0.631168	0.313605	0.887278
	C163	C	0.391816	0.312884	0.115636
	C164	C	0.686759	0.874022	0.384673
	C165	C	0.687064	0.105567	0.621200
	C166	C	0.334584	0.874824	0.621596
	C167	C	0.335166	0.105469	0.383291
	C168	C	0.891429	0.375051	0.179253
	C169	C	0.132004	0.605383	0.178218
	C170	C	0.131490	0.374954	0.825311
	C171	C	0.892656	0.605274	0.824819
	C172	C	0.188239	0.870446	0.388178
	C173	C	0.188544	0.109939	0.616008
	C174	C	0.832986	0.109708	0.388278
	C175	C	0.833922	0.870065	0.616838
	C176	C	0.396483	0.166678	0.883117
	C177	C	0.626171	0.167067	0.121167
	C178	C	0.396087	0.814402	0.120073
	C179	C	0.627298	0.816221	0.884252
	C180	C	0.396269	0.870480	0.179173
	C181	C	0.625683	0.110891	0.180159
	C182	C	0.397155	0.111082	0.823825
	C183	C	0.626429	0.871987	0.825491
	C184	C	0.892233	0.166003	0.387431
	C185	C	0.129463	0.165893	0.616555
	C186	C	0.129229	0.814210	0.387448
	C187	C	0.891434	0.812033	0.616710
	C188	C	0.187479	0.374357	0.883481
	C189	C	0.187767	0.605662	0.119426
	C190	C	0.835085	0.374568	0.121006
	C191	C	0.835874	0.605366	0.882234
	C192	C	0.412838	0.085101	0.600615
	C193	C	0.610075	0.894572	0.602579
	C194	C	0.609447	0.084763	0.403451
	C195	C	0.411880	0.894847	0.403217
	C196	C	0.611642	0.391014	0.095280
	C197	C	0.613220	0.591586	0.907682
	C198	C	0.411953	0.589238	0.095552
	C199	C	0.411613	0.391124	0.907603
	C200	C	0.106088	0.589970	0.401237
	C201	C	0.917139	0.588171	0.601239
	C202	C	0.106729	0.390365	0.601776
	C203	C	0.917900	0.391716	0.401956
	C204	C	0.914025	0.584684	0.100357
	C205	C	0.110072	0.394995	0.101233
	C206	C	0.111460	0.585399	0.901457
	C207	C	0.913200	0.394737	0.902868
	C208	C	0.110659	0.890092	0.596110
	C209	C	0.110930	0.089245	0.407976
	C210	C	0.910631	0.090244	0.596391
	C211	C	0.910953	0.890998	0.408616
	C212	C	0.605923	0.089507	0.901858
	C213	C	0.416912	0.088959	0.102113
	C214	C	0.605631	0.891940	0.102749
	C215	C	0.417071	0.891246	0.902650
	Zn216	Zn	0.511393	-0.009421	0.751599
	Zn217	Zn	0.510777	-0.009352	0.252891
	Zn218	Zn	0.763396	0.490327	0.001694
	Zn219	Zn	0.260572	0.489953	0.001564
	Zn220	Zn	0.010735	0.739381	0.501687
	Zn221	Zn	0.011868	0.240253	0.501400
	Zn222	Zn	0.011864	0.490009	0.751992
	Zn223	Zn	0.012324	0.490044	0.250911
	Zn224	Zn	0.512372	0.740999	0.002203
	Zn225	Zn	0.511623	0.239910	0.001760
	Zn226	Zn	0.760009	-0.010248	0.503095
	Zn227	Zn	0.261773	-0.010005	0.502250
	N228	N	0.424573	0.953338	0.681291
	N229	N	0.596835	0.027343	0.680254
	N230	N	0.596597	0.952669	0.324380
	N231	N	0.424496	0.026965	0.323625
	N232	N	0.690896	0.404552	0.964720
	N233	N	0.692226	0.577158	0.038706
	N234	N	0.332868	0.576345	0.964471
	N235	N	0.332246	0.403831	0.038181
	N236	N	0.973534	0.667245	0.416609
	N237	N	0.048821	0.666742	0.585777
	N238	N	0.973933	0.313343	0.585324
	N239	N	0.049670	0.312900	0.416940
	N240	N	0.975624	0.402099	0.682142
	N241	N	0.048539	0.576224	0.680538
	N242	N	0.975319	0.577631	0.320864
	N243	N	0.049208	0.404052	0.322717
	N244	N	0.427817	0.667982	0.964330
	N245	N	0.597990	0.669187	0.039459
	N246	N	0.597359	0.312066	0.964378
	N247	N	0.425617	0.311781	0.038532
	N248	N	0.687702	0.951985	0.418305
	N249	N	0.688614	0.027345	0.588212
	N250	N	0.334052	0.952659	0.587126
	N251	N	0.334103	0.027561	0.417220
	N252	N	0.925423	0.452993	0.180676
	N253	N	0.098552	0.527081	0.180410
	N254	N	0.098381	0.453159	0.823110
	N255	N	0.926335	0.527334	0.823634
	N256	N	0.190157	0.903596	0.465652
	N257	N	0.191090	0.077074	0.538422
	N258	N	0.830805	0.076664	0.465894
	N259	N	0.832130	0.904057	0.539690
	N260	N	0.473856	0.167392	0.917418
	N261	N	0.548942	0.167694	0.086909
	N262	N	0.473844	0.813260	0.086808
	N263	N	0.549840	0.814469	0.918054
	N264	N	0.474209	0.903637	0.181899
	N265	N	0.547980	0.077116	0.181963
	N266	N	0.474975	0.077794	0.821768
	N267	N	0.548066	0.904198	0.822777
	N268	N	0.926177	0.167484	0.464402
	N269	N	0.095732	0.167214	0.539456
	N270	N	0.095429	0.812604	0.464491
	N271	N	0.924776	0.810756	0.539227
	N272	N	0.188735	0.452494	0.916867
	N273	N	0.188403	0.527756	0.085917
	N274	N	0.834973	0.452363	0.086432
	N275	N	0.834770	0.527338	0.916244
	O276	O	0.986499	0.923937	0.026184
	H277	H	0.979069	0.921026	0.028768
	H278	H	0.993886	0.927054	0.037746
	O279	O	-0.029873	0.023522	-0.040887
	H280	H	-0.022073	0.020322	-0.041666
	H281	H	-0.033586	0.023584	-0.047393
	O282	O	-0.005741	-0.060970	1.015481
	H283	H	-0.002315	-0.069057	1.001962
	H284	H	-0.015061	-0.065441	1.025895
	O285	O	0.048014	0.990682	0.078804
	H286	H	0.033429	0.993851	0.077087
	H287	H	0.049711	0.983855	0.072039
	O288	O	0.537019	0.466894	0.457768
	H289	H	0.537038	0.471196	0.462742
	H290	H	0.534908	0.466342	0.468953
	O291	O	0.468831	0.462324	0.501350
	H292	H	0.467878	0.461032	0.489409
	H293	H	0.464493	0.457888	0.503721
	O294	O	-0.500070	0.484089	0.492430
	H295	H	-0.498934	0.483394	0.494453
	H296	H	-0.500673	0.482472	0.489709
	O297	O	0.485602	0.492407	0.445209
	H298	H	0.486072	0.498659	0.444471
	H299	H	0.490162	0.489542	0.444442
	O300	O	-0.037225	1.007235	1.008818
	H301	H	-0.036667	1.006238	1.007451
	H302	H	-0.036403	1.008729	1.014955
	O303	O	0.509103	0.496974	0.486174
	H304	H	0.512891	0.488862	0.484540
	H305	H	0.509705	0.493955	0.486791
	O306	O	0.021539	0.058224	1.006805
	H307	H	0.034677	0.059474	1.010900
	H308	H	0.031055	0.051487	0.992644
	O309	O	1.017064	0.986267	1.055907
	H310	H	1.027235	0.984722	1.058186
	H311	H	1.015621	0.983734	1.051655
	O312	O	-0.062106	0.921479	0.045821
	H313	H	-0.071268	0.914020	0.055786
	H314	H	-0.070172	0.923716	0.039142
	O315	O	0.501759	0.426824	0.479588
	H316	H	0.495486	0.427725	0.481420
	H317	H	0.500604	0.436768	0.471439
	O318	O	0.004320	0.905406	0.093957
	H319	H	0.004992	0.908034	0.102599
	H320	H	0.000795	0.916980	0.106600
	O321	O	0.971785	1.049019	0.005476
	H322	H	0.971518	1.059530	-0.003667
	H323	H	0.960166	1.050953	-0.001648
