data_Molecule from HDF5

_cell_length_a		16.182418
_cell_length_b		16.236339
_cell_length_c		16.352469
_cell_angle_alpha	89.935942
_cell_angle_beta	90.084996
_cell_angle_gamma	90.058477
_symmetry_space_group_name_H-M	'P 1'
_symmetry_Int_Tables_number		1

loop_
	_symmetry_equiv_pos_as_xyz
	x,y,z

loop_
	_atom_site_label
	_atom_site_type_symbol
	_atom_site_fract_x
	_atom_site_fract_y
	_atom_site_fract_z
	H0	H	0.409564	0.830322	0.717656
	H1	H	0.610534	0.157012	0.716454
	H2	H	0.608802	0.829440	0.285927
	H3	H	0.409887	0.157214	0.286252
	H4	H	0.721641	0.396576	0.837828
	H5	H	0.723626	0.591540	0.165002
	H6	H	0.294320	0.592096	0.837544
	H7	H	0.294590	0.394276	0.165285
	H8	H	0.844808	0.707037	0.403349
	H9	H	0.173932	0.706345	0.599482
	H10	H	0.844103	0.279858	0.598549
	H11	H	0.173586	0.281147	0.404798
	H12	H	0.844120	0.394157	0.714769
	H13	H	0.172278	0.594274	0.717911
	H14	H	0.844855	0.593442	0.286288
	H15	H	0.172741	0.394109	0.287747
	H16	H	0.410283	0.709602	0.838529
	H17	H	0.607855	0.707701	0.164757
	H18	H	0.607988	0.278759	0.838841
	H19	H	0.409850	0.277282	0.164751
	H20	H	0.723510	0.829091	0.402833
	H21	H	0.721751	0.158066	0.596641
	H22	H	0.296222	0.828485	0.599418
	H23	H	0.296568	0.158352	0.404856
	H24	H	0.910193	0.328661	0.215792
	H25	H	0.108872	0.656494	0.216861
	H26	H	0.108133	0.328834	0.787167
	H27	H	0.908147	0.656633	0.786057
	H28	H	0.223532	0.895272	0.338611
	H29	H	0.223586	0.091024	0.665204
	H30	H	0.795117	0.090964	0.338315
	H31	H	0.793887	0.894397	0.664423
	H32	H	0.344576	0.205774	0.905004
	H33	H	0.675324	0.204712	0.097728
	H34	H	0.344743	0.779261	0.099990
	H35	H	0.673897	0.779715	0.903110
	H36	H	0.344614	0.894054	0.216158
	H37	H	0.674098	0.091995	0.216122
	H38	H	0.345832	0.095181	0.785747
	H39	H	0.674023	0.894207	0.787587
	H40	H	0.911135	0.207054	0.337995
	H41	H	0.106984	0.206701	0.665046
	H42	H	0.108661	0.778152	0.339303
	H43	H	0.910112	0.777941	0.664892
	H44	H	0.222029	0.327559	0.905510
	H45	H	0.222546	0.657773	0.098587
	H46	H	0.796226	0.328333	0.098286
	H47	H	0.796098	0.658134	0.904985
	H48	H	0.422563	0.109895	0.600129
	H49	H	0.598845	0.875524	0.600107
	H50	H	0.607417	0.109813	0.414154
	H51	H	0.416965	0.875950	0.404116
	H52	H	0.599561	0.393311	0.118150
	H53	H	0.601698	0.580567	0.887270
	H54	H	0.413904	0.592577	0.120174
	H55	H	0.417053	0.394991	0.885111
	H56	H	0.129428	0.595090	0.407220
	H57	H	0.890957	0.582536	0.598835
	H58	H	0.122701	0.408602	0.590508
	H59	H	0.891280	0.400140	0.410799
	H60	H	0.128599	0.401940	0.605618
	H61	H	0.889761	0.590761	0.593751
	H62	H	0.122231	0.581728	0.418437
	H63	H	0.890877	0.403020	0.406742
	H64	H	0.412063	0.580904	0.116604
	H65	H	0.596532	0.592133	0.885342
	H66	H	0.608861	0.400422	0.120012
	H67	H	0.411228	0.400889	0.885205
	H68	H	0.603479	0.112978	0.401058
	H69	H	0.598400	0.878448	0.590527
	H70	H	0.417924	0.108149	0.588026
	H71	H	0.418112	0.876620	0.409230
	H72	H	0.909967	0.608914	0.087533
	H73	H	0.104062	0.375529	0.093588
	H74	H	0.104857	0.610105	0.909779
	H75	H	0.920400	0.375758	0.903261
	H76	H	0.112935	0.902161	0.620910
	H77	H	0.108679	0.082447	0.384669
	H78	H	0.915403	0.088009	0.618338
	H79	H	0.915030	0.898803	0.384775
	H80	H	0.629617	0.090476	0.902324
	H81	H	0.392217	0.086510	0.095380
	H82	H	0.628069	0.892355	0.090128
	H83	H	0.397016	0.905713	0.917367
	H84	H	0.623105	0.909148	0.090730
	H85	H	0.392442	0.085130	0.093886
	H86	H	0.626053	0.089266	0.913852
	H87	H	0.392229	0.908522	0.901072
	H88	H	0.914546	0.085512	0.618405
	H89	H	0.096143	0.085472	0.387994
	H90	H	0.096409	0.906248	0.613535
	H91	H	0.915888	0.904114	0.387037
	H92	H	0.098900	0.609028	0.904833
	H93	H	0.101699	0.374643	0.099208
	H94	H	0.913004	0.613693	0.104420
	H95	H	0.916448	0.378047	0.913793
	H96	H	0.410321	0.113218	0.597009
	H97	H	0.606876	0.874759	0.595272
	H98	H	0.593636	0.107075	0.409478
	H99	H	0.413547	0.876282	0.408318
	H100	H	0.598505	0.403970	0.115300
	H101	H	0.609185	0.590421	0.882885
	H102	H	0.422981	0.585506	0.114433
	H103	H	0.418685	0.402930	0.888167
	H104	H	0.126479	0.577673	0.401122
	H105	H	0.893726	0.582727	0.589929
	H106	H	0.127838	0.391970	0.590698
	H107	H	0.890130	0.397615	0.406121
	H108	H	0.926029	0.607108	0.094467
	H109	H	0.098695	0.377028	0.094666
	H110	H	0.098662	0.607165	0.911805
	H111	H	0.909313	0.374464	0.905803
	H112	H	0.099652	0.889712	0.619522
	H113	H	0.104665	0.095003	0.382565
	H114	H	0.917355	0.086220	0.617247
	H115	H	0.920016	0.899841	0.386630
	H116	H	0.626396	0.079472	0.906662
	H117	H	0.392089	0.084565	0.095633
	H118	H	0.629027	0.901668	0.105004
	H119	H	0.389211	0.893362	0.907619
	C120	C	0.388299	0.001872	0.623354
	C121	C	0.630368	0.984848	0.622940
	C122	C	0.630483	0.001770	0.379784
	C123	C	0.387953	0.985004	0.379648
	C124	C	0.630660	0.371629	0.009882
	C125	C	0.630964	0.615632	0.993361
	C126	C	0.387159	0.615452	0.009403
	C127	C	0.387214	0.370903	0.993814
	C128	C	0.017526	0.614367	0.379923
	C129	C	1.000171	0.614559	0.623247
	C130	C	0.017215	0.372362	0.623060
	C131	C	0.999755	0.371935	0.380249
	C132	C	0.887481	0.501437	0.123513
	C133	C	0.130603	0.484387	0.123788
	C134	C	0.129971	0.500642	0.880408
	C135	C	0.886710	0.484665	0.879475
	C136	C	0.131137	0.871180	0.510136
	C137	C	0.131246	0.115750	0.493157
	C138	C	0.887354	0.115188	0.510090
	C139	C	0.887721	0.871789	0.493572
	C140	C	0.518414	0.115275	0.879503
	C141	C	0.501233	0.114255	0.123254
	C142	C	0.517740	0.872173	0.123566
	C143	C	0.501284	0.872940	0.880044
	C144	C	0.389685	0.878887	0.679324
	C145	C	0.629723	0.108251	0.678128
	C146	C	0.628636	0.878273	0.324319
	C147	C	0.390109	0.108629	0.324874
	C148	C	0.684619	0.375685	0.886867
	C149	C	0.686258	0.612585	0.116106
	C150	C	0.331791	0.612738	0.886781
	C151	C	0.332746	0.373802	0.116696
	C152	C	0.894230	0.669829	0.382274
	C153	C	0.124399	0.668859	0.620157
	C154	C	0.893212	0.317405	0.619403
	C155	C	0.124108	0.317731	0.383613
	C156	C	0.893271	0.374078	0.677290
	C157	C	0.123476	0.613345	0.679353
	C158	C	0.894015	0.613050	0.324506
	C159	C	0.123673	0.373926	0.325351
	C160	C	0.389212	0.671401	0.887152
	C161	C	0.628441	0.670291	0.116028
	C162	C	0.628281	0.316911	0.887288
	C163	C	0.390023	0.315688	0.116279
	C164	C	0.685604	0.877946	0.382442
	C165	C	0.685322	0.108654	0.618893
	C166	C	0.333458	0.878020	0.620218
	C167	C	0.333978	0.109089	0.383633
	C168	C	0.889737	0.377722	0.178227
	C169	C	0.128820	0.607699	0.178743
	C170	C	0.127966	0.377515	0.825324
	C171	C	0.888618	0.607993	0.824381
	C172	C	0.185621	0.874589	0.387188
	C173	C	0.185630	0.111980	0.616370
	C174	C	0.832738	0.112003	0.386968
	C175	C	0.831998	0.873817	0.615986
	C176	C	0.394106	0.169120	0.883631
	C177	C	0.625530	0.168279	0.119688
	C178	C	0.393904	0.816879	0.120591
	C179	C	0.624900	0.817940	0.883031
	C180	C	0.393883	0.873965	0.178346
	C181	C	0.625022	0.112259	0.178288
	C182	C	0.394713	0.114104	0.824107
	C183	C	0.624819	0.874451	0.825069
	C184	C	0.890355	0.169809	0.386910
	C185	C	0.127717	0.169433	0.616263
	C186	C	0.128650	0.816180	0.387628
	C187	C	0.889618	0.815793	0.616063
	C188	C	0.184553	0.376737	0.884167
	C189	C	0.185390	0.608235	0.120068
	C190	C	0.833226	0.377503	0.119659
	C191	C	0.832946	0.608790	0.883486
	C192	C	0.410564	0.088142	0.601638
	C193	C	0.608025	0.898602	0.601596
	C194	C	0.608114	0.087725	0.401796
	C195	C	0.409879	0.898584	0.400912
	C196	C	0.608748	0.393099	0.095690
	C197	C	0.608983	0.594009	0.907463
	C198	C	0.409626	0.592844	0.095052
	C199	C	0.409186	0.393056	0.908083
	C200	C	0.103878	0.591536	0.402152
	C201	C	0.913896	0.591932	0.600730
	C202	C	0.103817	0.394472	0.602097
	C203	C	0.913154	0.393846	0.401586
	C204	C	0.909832	0.587668	0.101936
	C205	C	0.108084	0.398096	0.102096
	C206	C	0.107577	0.586731	0.902432
	C207	C	0.908977	0.398371	0.901314
	C208	C	0.109541	0.892871	0.595985
	C209	C	0.109483	0.094062	0.407387
	C210	C	0.909240	0.093262	0.595842
	C211	C	0.910283	0.894291	0.408216
	C212	C	0.604905	0.093045	0.901305
	C213	C	0.414665	0.091855	0.101352
	C214	C	0.604244	0.894448	0.101729
	C215	C	0.415116	0.895919	0.902119
	Zn216	Zn	0.509818	-0.006200	0.751870
	Zn217	Zn	0.509080	-0.006835	0.251500
	Zn218	Zn	0.759371	0.493280	0.001838
	Zn219	Zn	0.258633	0.492589	0.001859
	Zn220	Zn	0.009197	0.742589	0.501917
	Zn221	Zn	0.008818	0.244189	0.501719
	Zn222	Zn	0.008493	0.493134	0.751440
	Zn223	Zn	0.008823	0.493004	0.252113
	Zn224	Zn	0.509245	0.744791	0.001446
	Zn225	Zn	0.509756	0.241819	0.001759
	Zn226	Zn	0.758605	-0.006868	0.501341
	Zn227	Zn	0.259830	-0.006332	0.501484
	N228	N	0.423171	0.956784	0.681124
	N229	N	0.596488	0.030336	0.680813
	N230	N	0.595180	0.956109	0.322528
	N231	N	0.422911	0.030576	0.322279
	N232	N	0.686302	0.408825	0.964235
	N233	N	0.687811	0.579440	0.038752
	N234	N	0.330416	0.578724	0.963999
	N235	N	0.330813	0.407457	0.039531
	N236	N	0.972125	0.670899	0.416031
	N237	N	0.046706	0.669721	0.586008
	N238	N	0.971305	0.316106	0.586435
	N239	N	0.046271	0.316563	0.417209
	N240	N	0.971358	0.407703	0.679564
	N241	N	0.045181	0.580265	0.681239
	N242	N	0.971967	0.579426	0.322736
	N243	N	0.045385	0.407004	0.323204
	N244	N	0.422710	0.673291	0.964549
	N245	N	0.594726	0.672238	0.038743
	N246	N	0.595276	0.314348	0.964678
	N247	N	0.423166	0.313682	0.038782
	N248	N	0.686910	0.955566	0.416306
	N249	N	0.685695	0.031025	0.585084
	N250	N	0.332385	0.955599	0.586253
	N251	N	0.332463	0.031230	0.416897
	N252	N	0.922928	0.455778	0.180638
	N253	N	0.095447	0.529714	0.181166
	N254	N	0.094982	0.455591	0.822711
	N255	N	0.921204	0.529735	0.821710
	N256	N	0.187156	0.908291	0.464371
	N257	N	0.187998	0.079234	0.538903
	N258	N	0.830800	0.078671	0.464440
	N259	N	0.830711	0.907903	0.538832
	N260	N	0.471956	0.169863	0.917296
	N261	N	0.547544	0.169664	0.086239
	N262	N	0.471790	0.815810	0.087031
	N263	N	0.546942	0.816843	0.916506
	N264	N	0.471906	0.907592	0.180204
	N265	N	0.546644	0.079400	0.180702
	N266	N	0.473016	0.081095	0.821517
	N267	N	0.546925	0.908256	0.823290
	N268	N	0.923682	0.171658	0.464358
	N269	N	0.094751	0.171970	0.538670
	N270	N	0.095383	0.814244	0.464924
	N271	N	0.923833	0.814765	0.539083
	N272	N	0.186152	0.454467	0.917470
	N273	N	0.186589	0.530424	0.086793
	N274	N	0.831816	0.455258	0.086273
	N275	N	0.831701	0.531085	0.917070
	O276	O	1.068668	0.898532	-0.023346
	H277	H	1.071941	0.890264	-0.018742
	H278	H	1.072054	0.901253	-0.015633
	O279	O	0.019126	-0.026509	-0.050587
	H280	H	0.021408	-0.032295	-0.051801
	H281	H	0.014827	-0.034687	-0.046188
	O282	O	0.084863	-0.021013	0.968461
	H283	H	0.092243	-0.018088	0.968824
	H284	H	0.081592	-0.024402	0.965379
	O285	O	-0.037681	0.955715	0.015729
	H286	H	-0.036252	0.965735	0.016064
	H287	H	-0.032313	0.962383	0.011004
	O288	O	0.420959	0.468659	0.528287
	H289	H	0.425053	0.458465	0.523219
	H290	H	0.417917	0.464968	0.529374
	O291	O	0.472193	0.465379	0.492061
	H292	H	0.470872	0.476347	0.491776
	H293	H	0.471055	0.468139	0.502957
	O294	O	-0.565620	0.465026	0.532410
	H295	H	-0.570382	0.460732	0.527821
	H296	H	-0.566050	0.462675	0.537054
	O297	O	0.453590	0.507795	0.495982
	H298	H	0.452100	0.512294	0.503493
	H299	H	0.452952	0.505398	0.494297
	O300	O	-0.031004	0.927954	1.038631
	H301	H	-0.035145	0.928514	1.040963
	H302	H	-0.035484	0.919473	1.044292
	O303	O	0.492971	0.518278	0.545947
	H304	H	0.487043	0.518101	0.557141
	H305	H	0.483224	0.516472	0.540002
	O306	O	0.196602	-0.252251	1.233810
	H307	H	0.198729	-0.246454	1.233168
	H308	H	0.203047	-0.262518	1.228880
	O309	O	1.045038	0.962655	0.988169
	H310	H	1.043395	0.950456	0.983924
	H311	H	1.047385	0.966865	0.989641
	O312	O	0.029831	0.943754	-0.030137
	H313	H	0.032469	0.940233	-0.029157
	H314	H	0.036229	0.938787	-0.030522
	O315	O	0.472268	0.448709	0.492536
	H316	H	0.471555	0.449515	0.490244
	H317	H	0.474379	0.443633	0.493774
	O318	O	0.096695	0.914070	0.000840
	H319	H	0.091833	0.917989	0.000388
	H320	H	0.096782	0.912234	0.001359
	O321	O	1.058101	0.987384	-0.028028
	H322	H	1.062288	0.986794	-0.036492
	H323	H	1.051065	0.977435	-0.033950
