data_Molecule from HDF5

_cell_length_a		16.141016
_cell_length_b		16.407408
_cell_length_c		16.172451
_cell_angle_alpha	89.933543
_cell_angle_beta	89.815284
_cell_angle_gamma	89.651821
_symmetry_space_group_name_H-M	'P 1'
_symmetry_Int_Tables_number		1

loop_
	_symmetry_equiv_pos_as_xyz
	x,y,z

loop_
	_atom_site_label
	_atom_site_type_symbol
	_atom_site_fract_x
	_atom_site_fract_y
	_atom_site_fract_z
	H0	H	0.398023	0.843119	0.707395
	H1	H	0.593579	0.168150	0.705333
	H2	H	0.598412	0.842642	0.273602
	H3	H	0.397009	0.168095	0.274391
	H4	H	0.710024	0.407360	0.824699
	H5	H	0.708868	0.601879	0.154335
	H6	H	0.284776	0.602021	0.823406
	H7	H	0.283100	0.408216	0.153817
	H8	H	0.832936	0.723427	0.388003
	H9	H	0.161631	0.718871	0.590703
	H10	H	0.832916	0.290498	0.590394
	H11	H	0.160812	0.287991	0.388567
	H12	H	0.831619	0.408175	0.701943
	H13	H	0.162415	0.599060	0.700925
	H14	H	0.830391	0.601452	0.278575
	H15	H	0.162214	0.407086	0.276801
	H16	H	0.394848	0.721981	0.825790
	H17	H	0.596992	0.720473	0.152829
	H18	H	0.599768	0.288594	0.826019
	H19	H	0.395600	0.290052	0.153109
	H20	H	0.713555	0.842231	0.391961
	H21	H	0.709588	0.168755	0.588029
	H22	H	0.282395	0.842324	0.590068
	H23	H	0.281752	0.168369	0.392677
	H24	H	0.897539	0.341802	0.205284
	H25	H	0.094579	0.666940	0.204650
	H26	H	0.095842	0.341279	0.774573
	H27	H	0.896177	0.667015	0.773255
	H28	H	0.210116	0.909232	0.325331
	H29	H	0.206861	0.100823	0.655842
	H30	H	0.785551	0.101928	0.325330
	H31	H	0.785309	0.908762	0.656024
	H32	H	0.333474	0.221988	0.890352
	H33	H	0.661368	0.219947	0.090062
	H34	H	0.332213	0.790505	0.092823
	H35	H	0.660349	0.787968	0.888047
	H36	H	0.331891	0.909264	0.204327
	H37	H	0.663009	0.100997	0.201822
	H38	H	0.331649	0.103290	0.779467
	H39	H	0.662583	0.909101	0.779028
	H40	H	0.896474	0.220486	0.326362
	H41	H	0.096660	0.219927	0.653443
	H42	H	0.099715	0.789307	0.326245
	H43	H	0.895242	0.788169	0.653717
	H44	H	0.213560	0.342343	0.890104
	H45	H	0.208957	0.667573	0.086244
	H46	H	0.781648	0.342126	0.087773
	H47	H	0.780638	0.667537	0.890488
	H48	H	0.401444	0.122611	0.590407
	H49	H	0.584603	0.894191	0.576329
	H50	H	0.584277	0.121921	0.387425
	H51	H	0.412727	0.891920	0.397123
	H52	H	0.589044	0.401366	0.111138
	H53	H	0.594597	0.608790	0.866481
	H54	H	0.388618	0.605077	0.113102
	H55	H	0.411447	0.405123	0.871508
	H56	H	0.114151	0.597649	0.397849
	H57	H	0.878805	0.601898	0.579154
	H58	H	0.116392	0.405045	0.577292
	H59	H	0.881456	0.414524	0.404813
	H60	H	0.112192	0.415094	0.578559
	H61	H	0.880607	0.596325	0.578357
	H62	H	0.114463	0.597141	0.396289
	H63	H	0.878447	0.415616	0.392684
	H64	H	0.404148	0.583662	0.101803
	H65	H	0.594058	0.586340	0.873927
	H66	H	0.596461	0.418146	0.108097
	H67	H	0.397618	0.411676	0.868900
	H68	H	0.586784	0.116799	0.405648
	H69	H	0.602289	0.887626	0.581193
	H70	H	0.406525	0.119177	0.583530
	H71	H	0.400941	0.891059	0.404171
	H72	H	0.903742	0.620443	0.087568
	H73	H	0.089434	0.388730	0.083093
	H74	H	0.083901	0.618091	0.895346
	H75	H	0.894219	0.385578	0.893559
	H76	H	0.096280	0.903799	0.612288
	H77	H	0.089249	0.092913	0.373693
	H78	H	0.901331	0.104513	0.610469
	H79	H	0.913166	0.910945	0.374741
	H80	H	0.614695	0.095037	0.898340
	H81	H	0.379025	0.105856	0.075801
	H82	H	0.612349	0.921623	0.085610
	H83	H	0.384023	0.926526	0.902702
	H84	H	0.618600	0.900765	0.086108
	H85	H	0.383020	0.091399	0.080689
	H86	H	0.616753	0.099426	0.894623
	H87	H	0.373919	0.910009	0.885495
	H88	H	0.900706	0.095471	0.608429
	H89	H	0.083666	0.099992	0.373014
	H90	H	0.090556	0.919446	0.606141
	H91	H	0.902678	0.909711	0.371207
	H92	H	0.094093	0.620480	0.899021
	H93	H	0.090671	0.388918	0.082236
	H94	H	0.905451	0.618561	0.080168
	H95	H	0.909938	0.388593	0.887841
	H96	H	0.398088	0.122365	0.582220
	H97	H	0.587709	0.887329	0.594968
	H98	H	0.601026	0.123810	0.395733
	H99	H	0.401909	0.887609	0.391048
	H100	H	0.578124	0.414951	0.102309
	H101	H	0.574423	0.599162	0.875491
	H102	H	0.415899	0.609148	0.105765
	H103	H	0.409156	0.419171	0.874613
	H104	H	0.114502	0.599116	0.397350
	H105	H	0.878732	0.598026	0.583548
	H106	H	0.117346	0.409990	0.587706
	H107	H	0.876598	0.404198	0.398703
	H108	H	0.898497	0.621942	0.082490
	H109	H	0.090005	0.389038	0.083660
	H110	H	0.090819	0.622845	0.889198
	H111	H	0.906271	0.392038	0.904864
	H112	H	0.079689	0.905475	0.605958
	H113	H	0.092594	0.100682	0.369901
	H114	H	0.909189	0.099260	0.606977
	H115	H	0.905385	0.919253	0.374967
	H116	H	0.615009	0.100759	0.901100
	H117	H	0.375795	0.101751	0.090651
	H118	H	0.610553	0.910138	0.068621
	H119	H	0.378678	0.902650	0.909313
	C120	C	0.374145	0.013524	0.613667
	C121	C	0.619232	0.997018	0.612874
	C122	C	0.620146	0.013438	0.367562
	C123	C	0.375623	0.997805	0.368636
	C124	C	0.617997	0.382789	-0.001465
	C125	C	0.616802	0.626140	0.980843
	C126	C	0.374133	0.627946	-0.001967
	C127	C	0.376189	0.383990	0.980554
	C128	C	0.005247	0.627187	0.368266
	C129	C	0.988469	0.625620	0.609403
	C130	C	0.005921	0.382784	0.610315
	C131	C	0.988146	0.382918	0.368754
	C132	C	0.874020	0.512902	0.112264
	C133	C	0.118202	0.496231	0.111097
	C134	C	0.118787	0.512944	0.866320
	C135	C	0.874132	0.496386	0.866766
	C136	C	0.119119	0.881926	0.499262
	C137	C	0.117181	0.126062	0.481188
	C138	C	0.875365	0.127310	0.499420
	C139	C	0.876988	0.884311	0.482109
	C140	C	0.506305	0.127084	0.869360
	C141	C	0.488694	0.127031	0.111017
	C142	C	0.505402	0.883111	0.110859
	C143	C	0.487951	0.883947	0.869518
	C144	C	0.377578	0.891416	0.669009
	C145	C	0.614885	0.119709	0.667526
	C146	C	0.618232	0.891099	0.312178
	C147	C	0.377559	0.119850	0.313331
	C148	C	0.673325	0.385944	0.874445
	C149	C	0.671703	0.622750	0.104950
	C150	C	0.320944	0.623673	0.873335
	C151	C	0.320724	0.387553	0.104623
	C152	C	0.881778	0.684221	0.368732
	C153	C	0.112445	0.680350	0.608939
	C154	C	0.881911	0.328326	0.609527
	C155	C	0.112134	0.327083	0.369613
	C156	C	0.881371	0.386831	0.664969
	C157	C	0.113025	0.621110	0.664065
	C158	C	0.880565	0.623491	0.314378
	C159	C	0.112632	0.385969	0.313822
	C160	C	0.375550	0.683561	0.874668
	C161	C	0.615897	0.681485	0.104369
	C162	C	0.618571	0.326665	0.875185
	C163	C	0.376506	0.328754	0.104219
	C164	C	0.675894	0.890923	0.370491
	C165	C	0.672606	0.120022	0.609434
	C166	C	0.320036	0.891185	0.610702
	C167	C	0.319600	0.119680	0.371574
	C168	C	0.876862	0.390391	0.167497
	C169	C	0.115181	0.618606	0.166302
	C170	C	0.116481	0.390125	0.811927
	C171	C	0.875904	0.618608	0.811356
	C172	C	0.173465	0.887135	0.374764
	C173	C	0.170996	0.122440	0.605854
	C174	C	0.821731	0.123749	0.374900
	C175	C	0.821998	0.887472	0.606336
	C176	C	0.382295	0.183238	0.870683
	C177	C	0.612468	0.181711	0.109540
	C178	C	0.381420	0.828465	0.111439
	C179	C	0.611625	0.827272	0.869641
	C180	C	0.381287	0.887628	0.166952
	C181	C	0.613454	0.122287	0.164771
	C182	C	0.381544	0.124054	0.815639
	C183	C	0.612717	0.887272	0.815343
	C184	C	0.876792	0.182659	0.375564
	C185	C	0.116250	0.181648	0.604822
	C186	C	0.118399	0.827612	0.375316
	C187	C	0.876993	0.827786	0.605246
	C188	C	0.174591	0.390410	0.869498
	C189	C	0.171946	0.618970	0.107326
	C190	C	0.819038	0.390619	0.109247
	C191	C	0.818245	0.618706	0.869525
	C192	C	0.395710	0.099337	0.591828
	C193	C	0.597877	0.911797	0.590768
	C194	C	0.597466	0.098666	0.389800
	C195	C	0.398528	0.912177	0.390770
	C196	C	0.594616	0.404833	0.084923
	C197	C	0.594304	0.604473	0.894379
	C198	C	0.396298	0.605852	0.084518
	C199	C	0.399128	0.405765	0.894017
	C200	C	0.092006	0.604701	0.390583
	C201	C	0.901762	0.604775	0.586967
	C202	C	0.092962	0.403843	0.587871
	C203	C	0.901276	0.405049	0.391890
	C204	C	0.896017	0.598212	0.089994
	C205	C	0.096561	0.411174	0.089202
	C206	C	0.096294	0.598208	0.888160
	C207	C	0.896941	0.410933	0.888921
	C208	C	0.095827	0.903339	0.585719
	C209	C	0.095066	0.104192	0.394624
	C210	C	0.897412	0.106041	0.586108
	C211	C	0.900298	0.906671	0.395833
	C212	C	0.592988	0.105072	0.891564
	C213	C	0.401817	0.105981	0.089037
	C214	C	0.591673	0.904418	0.087096
	C215	C	0.401419	0.906259	0.892469
	Zn216	Zn	0.497181	0.005465	0.742462
	Zn217	Zn	0.497632	0.005311	0.238574
	Zn218	Zn	0.744693	0.504693	-0.010506
	Zn219	Zn	0.247624	0.504760	-0.011280
	Zn220	Zn	-0.002950	0.755078	0.489737
	Zn221	Zn	-0.003051	0.254682	0.490008
	Zn222	Zn	-0.003295	0.504317	0.737393
	Zn223	Zn	-0.003337	0.504478	0.241062
	Zn224	Zn	0.496310	0.755243	-0.010131
	Zn225	Zn	0.497206	0.255038	-0.010209
	Zn226	Zn	0.748756	0.005640	0.490734
	Zn227	Zn	0.245404	0.005137	0.490630
	N228	N	0.410525	0.968622	0.670996
	N229	N	0.582445	0.042430	0.669752
	N230	N	0.584439	0.968259	0.310154
	N231	N	0.411512	0.042754	0.311367
	N232	N	0.673000	0.420235	0.952002
	N233	N	0.672207	0.588851	0.027148
	N234	N	0.319642	0.589767	0.951295
	N235	N	0.320489	0.421275	0.026505
	N236	N	0.960367	0.686603	0.401337
	N237	N	0.033944	0.683423	0.575781
	N238	N	0.960482	0.325530	0.576313
	N239	N	0.033489	0.324882	0.402934
	N240	N	0.959449	0.419925	0.665482
	N241	N	0.035137	0.587687	0.664532
	N242	N	0.958450	0.588688	0.313865
	N243	N	0.034538	0.419880	0.313415
	N244	N	0.407686	0.686229	0.953284
	N245	N	0.582545	0.683602	0.026232
	N246	N	0.584621	0.324785	0.953502
	N247	N	0.410535	0.326719	0.026416
	N248	N	0.677172	0.967880	0.404380
	N249	N	0.675465	0.042847	0.576060
	N250	N	0.317841	0.968146	0.577065
	N251	N	0.318452	0.042633	0.405373
	N252	N	0.909884	0.467533	0.169715
	N253	N	0.082589	0.541482	0.168773
	N254	N	0.082400	0.467261	0.809983
	N255	N	0.910001	0.541500	0.809586
	N256	N	0.174219	0.920058	0.452952
	N257	N	0.171683	0.088548	0.528093
	N258	N	0.820615	0.090115	0.452827
	N259	N	0.821987	0.921995	0.528861
	N260	N	0.460833	0.185054	0.903464
	N261	N	0.533888	0.184495	0.076625
	N262	N	0.459642	0.825769	0.077276
	N263	N	0.532982	0.825251	0.902888
	N264	N	0.459287	0.920887	0.166861
	N265	N	0.535434	0.088937	0.165624
	N266	N	0.459407	0.089540	0.815020
	N267	N	0.534883	0.921672	0.815155
	N268	N	0.909591	0.184986	0.454029
	N269	N	0.083722	0.184121	0.526336
	N270	N	0.085480	0.824321	0.453803
	N271	N	0.910325	0.825547	0.526849
	N272	N	0.176183	0.467611	0.902635
	N273	N	0.174200	0.541858	0.073815
	N274	N	0.817302	0.467630	0.075444
	N275	N	0.817071	0.541603	0.903307
	O276	O	0.991642	0.932814	-0.052322
	H277	H	0.985687	0.941101	-0.044389
	H278	H	0.987771	0.923964	-0.043526
	O279	O	0.924553	-1.036955	1.037385
	H280	H	0.917571	-1.029974	1.044414
	H281	H	0.927582	-1.047785	1.035685
	O282	O	0.481510	0.531724	0.439317
	H283	H	0.486227	0.530700	0.443959
	H284	H	0.475768	0.531621	0.436187
	O285	O	0.512501	0.453401	0.408993
	H286	H	0.509685	0.456465	0.405370
	H287	H	0.514757	0.453357	0.415766
	O288	O	-0.017462	-0.001798	0.015401
	H289	H	-0.014007	-0.002950	0.013219
	H290	H	-0.013768	-0.004064	0.022879
	O291	O	-0.515845	0.504790	0.482804
	H292	H	-0.513693	0.506403	0.477514
	H293	H	-0.513881	0.502423	0.480259
	O294	O	0.057212	0.971916	-0.010027
	H295	H	0.050874	0.983478	-0.011773
	H296	H	0.048127	0.958596	-0.010065
	O297	O	0.518140	0.504644	0.427461
	H298	H	0.519144	0.502025	0.423295
	H299	H	0.519379	0.508838	0.415315
	O300	O	0.511515	0.579500	0.490498
	H301	H	0.515852	0.574712	0.487718
	H302	H	0.517285	0.576951	0.491504
	O303	O	0.997401	-0.016348	1.021032
	H304	H	0.993728	-0.014798	1.013687
	H305	H	0.999135	-0.022952	1.020975
	O306	O	-0.047740	1.002167	1.082796
	H307	H	-0.052567	1.000664	1.088413
	H308	H	-0.051189	1.007864	1.078456
	O309	O	0.049581	0.955736	1.004761
	H310	H	0.042416	0.960213	1.004933
	H311	H	0.048495	0.974543	1.010442
	O312	O	0.499600	-0.478765	1.486627
	H313	H	0.503300	-0.466685	1.483479
	H314	H	0.507057	-0.490668	1.476362
	O315	O	0.541219	0.466452	0.451745
	H316	H	0.533625	0.475403	0.462683
	H317	H	0.545847	0.469326	0.453434
	O318	O	-0.007228	-0.048417	0.954394
	H319	H	-0.004732	-0.046863	0.957817
	H320	H	0.005767	-0.052764	0.956101
	O321	O	0.047142	0.947469	-0.030860
	H322	H	0.047175	0.944495	-0.038615
	H323	H	0.045098	0.944082	-0.030108
	O324	O	1.005640	0.025375	1.006383
	H325	H	1.008451	0.018087	0.996669
	H326	H	1.002415	0.029098	1.010097
	O327	O	1.017256	0.935602	1.025042
	H328	H	1.026846	0.938691	1.010837
	H329	H	1.021245	0.926727	1.029896
	O330	O	0.535488	0.528758	0.519601
	H331	H	0.540478	0.537097	0.520961
	H332	H	0.529306	0.531981	0.522052
	O333	O	0.426851	0.602639	0.503764
	H334	H	0.425240	0.597693	0.486103
	H335	H	0.429024	0.598904	0.502917
	O336	O	0.526884	0.479863	0.456191
	H337	H	0.524254	0.486820	0.457276
	H338	H	0.517899	0.478735	0.462890
	O339	O	0.482425	0.481029	0.494581
	H340	H	0.465535	0.491518	0.497741
	H341	H	0.482623	0.486063	0.493953
	O342	O	0.534208	0.504133	0.425096
	H343	H	0.531243	0.505542	0.426376
	H344	H	0.536197	0.503558	0.427176
	O345	O	0.435070	0.576950	0.489838
	H346	H	0.424221	0.569059	0.489141
	H347	H	0.434449	0.581236	0.491403
