data_Molecule from HDF5

_cell_length_a		16.348925
_cell_length_b		16.196728
_cell_length_c		16.261822
_cell_angle_alpha	89.990928
_cell_angle_beta	90.021132
_cell_angle_gamma	89.992284
_symmetry_space_group_name_H-M	'P 1'
_symmetry_Int_Tables_number		1

loop_
	_symmetry_equiv_pos_as_xyz
	x,y,z

loop_
	_atom_site_label
	_atom_site_type_symbol
	_atom_site_fract_x
	_atom_site_fract_y
	_atom_site_fract_z
	H0	H	0.406081	0.833828	0.712628
	H1	H	0.602027	0.162105	0.713635
	H2	H	0.603200	0.833390	0.285769
	H3	H	0.405485	0.161905	0.284103
	H4	H	0.719216	0.397192	0.835349
	H5	H	0.720354	0.596708	0.162145
	H6	H	0.289040	0.595374	0.835995
	H7	H	0.288357	0.395669	0.162768
	H8	H	0.839796	0.712029	0.400342
	H9	H	0.167023	0.710912	0.596608
	H10	H	0.840322	0.282646	0.598146
	H11	H	0.167022	0.283852	0.402893
	H12	H	0.840729	0.398436	0.714533
	H13	H	0.166083	0.596578	0.714682
	H14	H	0.841089	0.596355	0.282885
	H15	H	0.166456	0.397830	0.284522
	H16	H	0.406718	0.709803	0.835519
	H17	H	0.601859	0.710035	0.162788
	H18	H	0.599572	0.284790	0.833942
	H19	H	0.407133	0.282888	0.164035
	H20	H	0.719783	0.834720	0.399014
	H21	H	0.717590	0.162119	0.598421
	H22	H	0.289510	0.834365	0.599778
	H23	H	0.288293	0.161897	0.399226
	H24	H	0.905234	0.332501	0.213912
	H25	H	0.101967	0.661637	0.212078
	H26	H	0.102625	0.333317	0.784215
	H27	H	0.907244	0.661818	0.787553
	H28	H	0.218708	0.899173	0.336455
	H29	H	0.219400	0.098167	0.663841
	H30	H	0.787406	0.099473	0.337181
	H31	H	0.789019	0.898769	0.663155
	H32	H	0.340888	0.211243	0.901530
	H33	H	0.667711	0.210521	0.096326
	H34	H	0.341053	0.781856	0.097585
	H35	H	0.667085	0.781938	0.900628
	H36	H	0.341816	0.896737	0.215418
	H37	H	0.667160	0.096722	0.214224
	H38	H	0.341484	0.097550	0.783899
	H39	H	0.667041	0.898619	0.784772
	H40	H	0.908355	0.209692	0.335100
	H41	H	0.100904	0.211091	0.664518
	H42	H	0.100219	0.785169	0.334876
	H43	H	0.905186	0.783859	0.663664
	H44	H	0.217519	0.331712	0.900596
	H45	H	0.219308	0.660273	0.098203
	H46	H	0.789296	0.333138	0.098781
	H47	H	0.789431	0.660058	0.899148
	H48	H	0.405177	0.117599	0.593827
	H49	H	0.592834	0.880789	0.594613
	H50	H	0.599674	0.115555	0.409606
	H51	H	0.408570	0.880768	0.409662
	H52	H	0.596739	0.411058	0.113316
	H53	H	0.604223	0.580312	0.883362
	H54	H	0.419168	0.587644	0.114067
	H55	H	0.417723	0.399021	0.883792
	H56	H	0.120150	0.596434	0.407732
	H57	H	0.888732	0.584561	0.592613
	H58	H	0.118546	0.405709	0.590422
	H59	H	0.886430	0.402612	0.403275
	H60	H	0.119333	0.406965	0.593473
	H61	H	0.884304	0.593132	0.599736
	H62	H	0.117257	0.586516	0.409445
	H63	H	0.887877	0.403265	0.408594
	H64	H	0.408150	0.596569	0.119346
	H65	H	0.587344	0.588781	0.885195
	H66	H	0.592246	0.398856	0.115448
	H67	H	0.402470	0.399208	0.879396
	H68	H	0.596052	0.115875	0.402048
	H69	H	0.597869	0.882325	0.587035
	H70	H	0.416685	0.115368	0.596236
	H71	H	0.411243	0.880793	0.404556
	H72	H	0.908771	0.612045	0.084518
	H73	H	0.097475	0.378643	0.094313
	H74	H	0.091127	0.614530	0.901490
	H75	H	0.914162	0.376758	0.897348
	H76	H	0.100540	0.901598	0.618366
	H77	H	0.097513	0.087482	0.384389
	H78	H	0.910495	0.083135	0.613831
	H79	H	0.913537	0.899747	0.382366
	H80	H	0.619928	0.091818	0.908905
	H81	H	0.387326	0.090504	0.093365
	H82	H	0.619812	0.903387	0.092028
	H83	H	0.387349	0.905620	0.901009
	H84	H	0.620555	0.904493	0.092216
	H85	H	0.388344	0.089836	0.091168
	H86	H	0.619858	0.087419	0.904820
	H87	H	0.386547	0.899796	0.906721
	H88	H	0.916419	0.095104	0.616172
	H89	H	0.095256	0.093549	0.383207
	H90	H	0.098847	0.910403	0.615592
	H91	H	0.904951	0.907890	0.381886
	H92	H	0.096345	0.611223	0.916258
	H93	H	0.096103	0.379936	0.091538
	H94	H	0.909048	0.616915	0.096277
	H95	H	0.917288	0.383207	0.912709
	H96	H	0.412332	0.112916	0.585265
	H97	H	0.601386	0.878461	0.594557
	H98	H	0.592481	0.113269	0.408373
	H99	H	0.414741	0.882629	0.408875
	H100	H	0.605031	0.402250	0.117642
	H101	H	0.602038	0.598451	0.878322
	H102	H	0.405091	0.581834	0.115964
	H103	H	0.409283	0.412797	0.885031
	H104	H	0.120977	0.589761	0.399746
	H105	H	0.888008	0.595831	0.588392
	H106	H	0.120277	0.403698	0.593143
	H107	H	0.887941	0.407185	0.404784
	H108	H	0.919301	0.610921	0.091121
	H109	H	0.098778	0.379468	0.091458
	H110	H	0.105862	0.616186	0.905052
	H111	H	0.902014	0.377500	0.908920
	H112	H	0.092848	0.903872	0.615447
	H113	H	0.101051	0.091975	0.381858
	H114	H	0.903076	0.093554	0.619828
	H115	H	0.915350	0.911253	0.385965
	H116	H	0.621816	0.092392	0.903457
	H117	H	0.388720	0.088055	0.093197
	H118	H	0.620754	0.903265	0.094087
	H119	H	0.389844	0.906167	0.909549
	C120	C	0.382632	0.006993	0.620783
	C121	C	0.625522	0.989142	0.620897
	C122	C	0.625227	0.006256	0.378352
	C123	C	0.382615	0.989788	0.378134
	C124	C	0.625711	0.375231	0.007203
	C125	C	0.626758	0.618089	0.990284
	C126	C	0.382681	0.617299	0.008058
	C127	C	0.382083	0.374614	0.991209
	C128	C	0.011875	0.619596	0.376718
	C129	C	0.994985	0.619474	0.621403
	C130	C	0.011917	0.376002	0.621451
	C131	C	0.995331	0.375879	0.377810
	C132	C	0.883544	0.505098	0.119833
	C133	C	0.126108	0.487849	0.121153
	C134	C	0.125575	0.505100	0.878338
	C135	C	0.882919	0.487726	0.877606
	C136	C	0.125773	0.876360	0.508120
	C137	C	0.126217	0.119701	0.491694
	C138	C	0.881931	0.119672	0.508463
	C139	C	0.882592	0.877087	0.491399
	C140	C	0.512667	0.119048	0.877310
	C141	C	0.496015	0.118064	0.120664
	C142	C	0.512702	0.874540	0.121867
	C143	C	0.495639	0.875102	0.877229
	C144	C	0.385153	0.882969	0.675447
	C145	C	0.622559	0.112901	0.675957
	C146	C	0.623383	0.882623	0.323274
	C147	C	0.384861	0.113064	0.322239
	C148	C	0.681034	0.376879	0.884121
	C149	C	0.682115	0.616213	0.113363
	C150	C	0.327047	0.615501	0.884858
	C151	C	0.326796	0.375746	0.114340
	C152	C	0.888897	0.674468	0.379426
	C153	C	0.118074	0.673799	0.617913
	C154	C	0.889112	0.320541	0.618947
	C155	C	0.118455	0.321492	0.381855
	C156	C	0.889169	0.378230	0.676463
	C157	C	0.117630	0.616825	0.676380
	C158	C	0.889426	0.617196	0.320990
	C159	C	0.118099	0.378140	0.323110
	C160	C	0.385780	0.671932	0.884360
	C161	C	0.623323	0.672802	0.113802
	C162	C	0.621879	0.320732	0.883618
	C163	C	0.385865	0.319643	0.114660
	C164	C	0.681036	0.883116	0.379947
	C165	C	0.680255	0.112924	0.618952
	C166	C	0.327530	0.883196	0.619174
	C167	C	0.326707	0.112964	0.379458
	C168	C	0.885355	0.381432	0.175490
	C169	C	0.122857	0.612037	0.175128
	C170	C	0.122890	0.382038	0.822455
	C171	C	0.886004	0.612254	0.823929
	C172	C	0.180670	0.878787	0.385054
	C173	C	0.181436	0.117993	0.614852
	C174	C	0.826037	0.118655	0.385621
	C175	C	0.827119	0.878868	0.614360
	C176	C	0.389736	0.173683	0.880502
	C177	C	0.618928	0.172882	0.117630
	C178	C	0.389863	0.819619	0.118456
	C179	C	0.618311	0.819860	0.880268
	C180	C	0.390239	0.876800	0.176930
	C181	C	0.618720	0.116129	0.175728
	C182	C	0.389951	0.117074	0.822354
	C183	C	0.618275	0.877710	0.822504
	C184	C	0.886097	0.173639	0.384583
	C185	C	0.122610	0.174278	0.615286
	C186	C	0.122033	0.821836	0.384398
	C187	C	0.885205	0.821913	0.614797
	C188	C	0.180079	0.381271	0.880291
	C189	C	0.181117	0.611521	0.118573
	C190	C	0.827845	0.381624	0.118321
	C191	C	0.827530	0.611365	0.879328
	C192	C	0.404816	0.093106	0.598399
	C193	C	0.603824	0.902786	0.598667
	C194	C	0.602779	0.092733	0.400372
	C195	C	0.404904	0.903595	0.401181
	C196	C	0.604268	0.397701	0.093107
	C197	C	0.604489	0.595852	0.904442
	C198	C	0.404297	0.595079	0.094102
	C199	C	0.403493	0.397184	0.905134
	C200	C	0.097357	0.597254	0.398907
	C201	C	0.909154	0.597575	0.599872
	C202	C	0.097206	0.398628	0.599050
	C203	C	0.909622	0.397871	0.399360
	C204	C	0.905786	0.591097	0.097288
	C205	C	0.103923	0.401585	0.098940
	C206	C	0.104138	0.591759	0.900971
	C207	C	0.904751	0.401474	0.899759
	C208	C	0.103824	0.898716	0.593933
	C209	C	0.104399	0.097593	0.405475
	C210	C	0.903634	0.097126	0.594516
	C211	C	0.904545	0.899762	0.405557
	C212	C	0.598397	0.096990	0.899216
	C213	C	0.410355	0.095860	0.099050
	C214	C	0.598216	0.897028	0.099367
	C215	C	0.410051	0.897249	0.899341
	Zn216	Zn	0.503875	-0.002653	0.748506
	Zn217	Zn	0.504561	-0.002753	0.250001
	Zn218	Zn	0.755275	0.496474	-0.001498
	Zn219	Zn	0.254123	0.496089	-0.000264
	Zn220	Zn	0.003300	0.747942	0.499403
	Zn221	Zn	0.003701	0.247036	0.500081
	Zn222	Zn	0.003409	0.497491	0.750109
	Zn223	Zn	0.003908	0.496815	0.248364
	Zn224	Zn	0.503783	0.746040	-0.000889
	Zn225	Zn	0.504023	0.246675	-0.000880
	Zn226	Zn	0.753639	-0.001867	0.499576
	Zn227	Zn	0.254580	-0.001686	0.500274
	N228	N	0.418797	0.960747	0.676695
	N229	N	0.589203	0.034948	0.677157
	N230	N	0.589371	0.960244	0.322152
	N231	N	0.418781	0.035409	0.321166
	N232	N	0.683665	0.410041	0.961871
	N233	N	0.684333	0.583131	0.035478
	N234	N	0.325036	0.582282	0.962849
	N235	N	0.324299	0.409246	0.036562
	N236	N	0.966011	0.676165	0.413193
	N237	N	0.040858	0.675463	0.584603
	N238	N	0.966354	0.319151	0.585328
	N239	N	0.041176	0.319919	0.415192
	N240	N	0.966383	0.412126	0.678069
	N241	N	0.040119	0.583814	0.678607
	N242	N	0.966898	0.583887	0.319172
	N243	N	0.040712	0.411395	0.320709
	N244	N	0.419431	0.673366	0.961868
	N245	N	0.589539	0.674064	0.036381
	N246	N	0.588080	0.319666	0.961155
	N247	N	0.419348	0.318956	0.037082
	N248	N	0.682200	0.960967	0.413596
	N249	N	0.682213	0.035009	0.585352
	N250	N	0.325656	0.961291	0.586046
	N251	N	0.325271	0.035170	0.413462
	N252	N	0.919323	0.459097	0.176519
	N253	N	0.089402	0.534084	0.176715
	N254	N	0.089831	0.460220	0.821157
	N255	N	0.919785	0.534495	0.822705
	N256	N	0.183077	0.911933	0.462839
	N257	N	0.183665	0.084619	0.537057
	N258	N	0.823600	0.085576	0.463488
	N259	N	0.825440	0.912447	0.536552
	N260	N	0.466975	0.175133	0.913842
	N261	N	0.541655	0.174328	0.084137
	N262	N	0.466968	0.818111	0.084877
	N263	N	0.540869	0.817777	0.913252
	N264	N	0.467722	0.909905	0.179268
	N265	N	0.541305	0.082661	0.177699
	N266	N	0.467417	0.083726	0.820434
	N267	N	0.541088	0.911531	0.820737
	N268	N	0.920332	0.174136	0.461905
	N269	N	0.089087	0.175502	0.537643
	N270	N	0.088734	0.820122	0.462072
	N271	N	0.919063	0.820708	0.537427
	N272	N	0.181824	0.458992	0.914430
	N273	N	0.183422	0.533406	0.085783
	N274	N	0.826654	0.459368	0.084414
	N275	N	0.825415	0.533112	0.911965
	O276	O	0.978109	1.038033	-0.009897
	H277	H	0.975838	1.037804	-0.008771
	H278	H	0.982397	1.041951	-0.019312
	O279	O	0.015350	-0.016422	0.049175
	H280	H	0.016124	-0.018151	0.046256
	H281	H	0.018493	-0.024011	0.047598
	O282	O	0.059956	-0.055467	1.017553
	H283	H	0.075108	-0.059178	1.017386
	H284	H	0.059630	-0.069215	1.015614
	O285	O	0.379758	0.600934	0.394028
	H286	H	0.371672	0.601936	0.390583
	H287	H	0.388036	0.614167	0.394928
	O288	O	0.486751	0.501913	0.492678
	H289	H	0.485633	0.498094	0.487709
	H290	H	0.489112	0.500445	0.489147
	O291	O	0.403313	0.522201	0.520924
	H292	H	0.392775	0.520111	0.513526
	H293	H	0.400808	0.520037	0.518009
	O294	O	-0.035170	-0.043020	-0.002756
	H295	H	-0.029015	-0.044077	0.002362
	H296	H	-0.038040	-0.031866	-0.013009
	O297	O	0.463361	0.532402	0.491753
	H298	H	0.463429	0.535077	0.487261
	H299	H	0.461441	0.540451	0.489618
	O300	O	-0.023931	0.978141	1.040402
	H301	H	-0.024095	0.976861	1.049022
	H302	H	-0.021745	0.977124	1.034171
	O303	O	0.429884	0.467785	0.565513
	H304	H	0.431342	0.470077	0.564455
	H305	H	0.431451	0.466801	0.557121
	O306	O	0.031954	-0.032984	0.970280
	H307	H	0.032970	-0.037730	0.984528
	H308	H	0.040296	-0.041610	0.960716
	O309	O	1.019802	0.930313	1.013611
	H310	H	1.014082	0.927916	1.019019
	H311	H	1.010146	0.931919	1.007879
	O312	O	0.315068	0.640454	0.405085
	H313	H	0.320643	0.638256	0.399857
	H314	H	0.308452	0.637768	0.396740
	O315	O	0.436584	0.559126	0.537678
	H316	H	0.434317	0.566582	0.537963
	H317	H	0.435309	0.552132	0.529402
	O318	O	0.068982	0.958274	0.045690
	H319	H	0.064045	0.958824	0.038795
	H320	H	0.060669	0.967342	0.043185
	O321	O	1.017643	0.984975	0.016241
	H322	H	1.019785	0.980430	0.012977
	H323	H	1.012837	0.987950	0.007498
