data_Molecule from HDF5

_cell_length_a		16.441582
_cell_length_b		16.554477
_cell_length_c		16.483000
_cell_angle_alpha	90.011404
_cell_angle_beta	90.223538
_cell_angle_gamma	90.172302
_symmetry_space_group_name_H-M	'P 1'
_symmetry_Int_Tables_number		1

loop_
	_symmetry_equiv_pos_as_xyz
	x,y,z

loop_
	_atom_site_label
	_atom_site_type_symbol
	_atom_site_fract_x
	_atom_site_fract_y
	_atom_site_fract_z
	H0	H	0.395226	0.848036	0.731044
	H1	H	0.610010	0.160686	0.728768
	H2	H	0.611299	0.848662	0.283024
	H3	H	0.399399	0.161734	0.283563
	H4	H	0.725146	0.402222	0.847623
	H5	H	0.726023	0.608550	0.163710
	H6	H	0.280757	0.613087	0.849347
	H7	H	0.287924	0.401879	0.164841
	H8	H	0.848859	0.725281	0.401319
	H9	H	0.162207	0.731295	0.617774
	H10	H	0.847701	0.284679	0.610660
	H11	H	0.164692	0.283776	0.402480
	H12	H	0.847618	0.401690	0.725717
	H13	H	0.162854	0.613156	0.731532
	H14	H	0.848238	0.607457	0.287127
	H15	H	0.165465	0.400308	0.286667
	H16	H	0.396532	0.729676	0.849841
	H17	H	0.612923	0.727459	0.162541
	H18	H	0.609422	0.283864	0.847659
	H19	H	0.402506	0.284422	0.163836
	H20	H	0.727239	0.848439	0.401029
	H21	H	0.726109	0.161704	0.610969
	H22	H	0.279268	0.848609	0.614590
	H23	H	0.283503	0.161193	0.400197
	H24	H	0.904807	0.346709	0.224787
	H25	H	0.111116	0.663092	0.226735
	H26	H	0.110346	0.347536	0.785005
	H27	H	0.896489	0.661001	0.781217
	H28	H	0.225935	0.900094	0.348422
	H29	H	0.228897	0.109757	0.664694
	H30	H	0.785894	0.106302	0.348635
	H31	H	0.785116	0.899551	0.665469
	H32	H	0.346268	0.225855	0.897722
	H33	H	0.663311	0.223352	0.108461
	H34	H	0.348254	0.780380	0.113186
	H35	H	0.662792	0.783215	0.900663
	H36	H	0.347404	0.898413	0.227059
	H37	H	0.663917	0.105718	0.224297
	H38	H	0.346757	0.108712	0.782739
	H39	H	0.662835	0.898636	0.785257
	H40	H	0.903147	0.223572	0.348796
	H41	H	0.111663	0.225807	0.665596
	H42	H	0.113307	0.780496	0.350393
	H43	H	0.898193	0.780651	0.663222
	H44	H	0.226213	0.347381	0.901905
	H45	H	0.227573	0.662707	0.110300
	H46	H	0.788084	0.345714	0.106930
	H47	H	0.782331	0.661683	0.899787
	H48	H	0.418920	0.114303	0.592576
	H49	H	0.597334	0.890681	0.594894
	H50	H	0.592372	0.115307	0.419333
	H51	H	0.416264	0.893427	0.419080
	H52	H	0.598625	0.410580	0.120674
	H53	H	0.596397	0.596773	0.891242
	H54	H	0.420686	0.592981	0.117025
	H55	H	0.413957	0.418003	0.893038
	H56	H	0.119917	0.591657	0.414239
	H57	H	0.895528	0.599054	0.584143
	H58	H	0.119662	0.414137	0.594758
	H59	H	0.890590	0.405826	0.416799
	H60	H	0.118677	0.417833	0.595030
	H61	H	0.898168	0.581833	0.593476
	H62	H	0.121677	0.598390	0.420004
	H63	H	0.896760	0.417885	0.421612
	H64	H	0.419207	0.592473	0.116988
	H65	H	0.594515	0.588597	0.893940
	H66	H	0.597425	0.415791	0.119113
	H67	H	0.419459	0.415709	0.893944
	H68	H	0.598387	0.118179	0.417785
	H69	H	0.594066	0.891129	0.599178
	H70	H	0.418014	0.114083	0.594151
	H71	H	0.414510	0.891870	0.416156
	H72	H	0.918106	0.616861	0.097101
	H73	H	0.091340	0.393657	0.098861
	H74	H	0.098008	0.617341	0.919653
	H75	H	0.919677	0.394502	0.915511
	H76	H	0.089397	0.918942	0.616300
	H77	H	0.090633	0.094192	0.395781
	H78	H	0.920218	0.093885	0.618744
	H79	H	0.921158	0.917037	0.396370
	H80	H	0.615013	0.090274	0.920470
	H81	H	0.391905	0.094874	0.090859
	H82	H	0.616964	0.914675	0.091948
	H83	H	0.395178	0.918458	0.921802
	H84	H	0.616813	0.919179	0.095165
	H85	H	0.391008	0.090852	0.098022
	H86	H	0.618611	0.093266	0.912427
	H87	H	0.392267	0.918516	0.915283
	H88	H	0.915474	0.101844	0.622737
	H89	H	0.094835	0.099869	0.393185
	H90	H	0.092354	0.916384	0.618692
	H91	H	0.916314	0.910856	0.393561
	H92	H	0.088266	0.615750	0.915238
	H93	H	0.098870	0.393812	0.092240
	H94	H	0.913605	0.617783	0.095655
	H95	H	0.917430	0.395823	0.921841
	H96	H	0.419775	0.114407	0.593909
	H97	H	0.592525	0.892797	0.594198
	H98	H	0.593588	0.117822	0.412494
	H99	H	0.418312	0.892646	0.415895
	H100	H	0.593652	0.411908	0.118566
	H101	H	0.588074	0.594974	0.894056
	H102	H	0.419751	0.591937	0.115883
	H103	H	0.415488	0.412074	0.891679
	H104	H	0.117248	0.590532	0.422888
	H105	H	0.889419	0.597276	0.603058
	H106	H	0.119748	0.416272	0.598418
	H107	H	0.891949	0.417481	0.408258
	H108	H	0.915037	0.619628	0.099956
	H109	H	0.100446	0.389659	0.101358
	H110	H	0.090364	0.613321	0.925835
	H111	H	0.913590	0.392732	0.917205
	H112	H	0.093617	0.920274	0.617378
	H113	H	0.098107	0.092788	0.394277
	H114	H	0.910703	0.093164	0.621771
	H115	H	0.913453	0.918344	0.395047
	H116	H	0.617802	0.099133	0.919789
	H117	H	0.388691	0.098442	0.097371
	H118	H	0.618606	0.914601	0.096872
	H119	H	0.391980	0.912605	0.919441
	C120	C	0.384560	0.011542	0.627285
	C121	C	0.626774	0.995465	0.628522
	C122	C	0.626734	0.013410	0.384931
	C123	C	0.383613	0.995987	0.384261
	C124	C	0.627311	0.382169	0.014367
	C125	C	0.626270	0.625684	0.997163
	C126	C	0.385500	0.625758	0.013519
	C127	C	0.384800	0.383632	0.997406
	C128	C	0.015206	0.625733	0.386295
	C129	C	0.997854	0.626644	0.628190
	C130	C	0.014553	0.384181	0.627562
	C131	C	0.997828	0.382604	0.384701
	C132	C	0.884913	0.513264	0.127736
	C133	C	0.128725	0.496784	0.128786
	C134	C	0.126074	0.512636	0.886292
	C135	C	0.883665	0.497182	0.884734
	C136	C	0.125759	0.884687	0.514299
	C137	C	0.127550	0.127286	0.498844
	C138	C	0.884382	0.126484	0.515884
	C139	C	0.884299	0.883121	0.498807
	C140	C	0.512592	0.125811	0.884490
	C141	C	0.495902	0.125216	0.126595
	C142	C	0.513653	0.882688	0.127490
	C143	C	0.496774	0.883457	0.885391
	C144	C	0.378990	0.894782	0.689960
	C145	C	0.628753	0.113807	0.688569
	C146	C	0.629078	0.895360	0.323999
	C147	C	0.381166	0.114106	0.323529
	C148	C	0.685492	0.382704	0.894967
	C149	C	0.686463	0.627350	0.116128
	C150	C	0.322085	0.630166	0.896283
	C151	C	0.326569	0.382525	0.116899
	C152	C	0.896216	0.684963	0.383619
	C153	C	0.115168	0.689919	0.634163
	C154	C	0.895497	0.324227	0.629380
	C155	C	0.117364	0.323639	0.383850
	C156	C	0.895303	0.382477	0.686678
	C157	C	0.115593	0.631083	0.690883
	C158	C	0.896008	0.626583	0.326492
	C159	C	0.117535	0.381463	0.326055
	C160	C	0.379679	0.688439	0.896370
	C161	C	0.630185	0.686483	0.115453
	C162	C	0.627912	0.324077	0.895047
	C163	C	0.383595	0.324073	0.116421
	C164	C	0.686924	0.895170	0.382511
	C165	C	0.686348	0.114311	0.630115
	C166	C	0.321109	0.895034	0.631840
	C167	C	0.323477	0.114191	0.381758
	C168	C	0.885156	0.394009	0.185412
	C169	C	0.129795	0.615612	0.187241
	C170	C	0.128605	0.394778	0.825232
	C171	C	0.879738	0.614565	0.822772
	C172	C	0.186102	0.881665	0.395906
	C173	C	0.188326	0.128491	0.617699
	C174	C	0.825593	0.125982	0.396038
	C175	C	0.824374	0.881144	0.617371
	C176	C	0.393745	0.185875	0.880367
	C177	C	0.615812	0.183867	0.127673
	C178	C	0.395347	0.821141	0.130776
	C179	C	0.615376	0.823107	0.882473
	C180	C	0.394908	0.879876	0.187537
	C181	C	0.616359	0.125311	0.184866
	C182	C	0.393947	0.127582	0.823188
	C183	C	0.615258	0.880454	0.824882
	C184	C	0.883721	0.184203	0.396190
	C185	C	0.129961	0.186014	0.618052
	C186	C	0.130256	0.821907	0.397103
	C187	C	0.880726	0.821929	0.616647
	C188	C	0.186467	0.394646	0.883419
	C189	C	0.187932	0.615506	0.129439
	C190	C	0.827195	0.393563	0.126830
	C191	C	0.822783	0.614901	0.881659
	C192	C	0.411470	0.093092	0.600947
	C193	C	0.601898	0.913015	0.603296
	C194	C	0.602036	0.095456	0.409492
	C195	C	0.408960	0.914176	0.409692
	C196	C	0.603401	0.406003	0.097797
	C197	C	0.600475	0.600777	0.914685
	C198	C	0.412397	0.599835	0.095241
	C199	C	0.409108	0.408263	0.914490
	C200	C	0.098252	0.600802	0.411706
	C201	C	0.915626	0.600189	0.601241
	C202	C	0.097671	0.408983	0.603192
	C203	C	0.914836	0.406660	0.408723
	C204	C	0.908775	0.596557	0.104255
	C205	C	0.103944	0.413813	0.104466
	C206	C	0.099838	0.594392	0.912492
	C207	C	0.909663	0.415772	0.910702
	C208	C	0.099370	0.911096	0.596072
	C209	C	0.102011	0.102703	0.415990
	C210	C	0.908472	0.103001	0.599262
	C211	C	0.909778	0.908292	0.416376
	C212	C	0.595465	0.101441	0.910122
	C213	C	0.412338	0.101487	0.102432
	C214	C	0.596118	0.908638	0.101865
	C215	C	0.414440	0.909120	0.911425
	Zn216	Zn	0.504817	0.003579	0.757111
	Zn217	Zn	0.504900	0.004517	0.255312
	Zn218	Zn	0.755109	0.504983	0.006055
	Zn219	Zn	0.256316	0.504979	0.006222
	Zn220	Zn	0.006073	0.754369	0.506912
	Zn221	Zn	0.006608	0.255470	0.507212
	Zn222	Zn	0.005757	0.505482	0.756139
	Zn223	Zn	0.007493	0.505023	0.257256
	Zn224	Zn	0.505707	0.755082	0.005931
	Zn225	Zn	0.504282	0.253628	0.005263
	Zn226	Zn	0.755759	0.004414	0.507083
	Zn227	Zn	0.255289	0.004784	0.506252
	N228	N	0.417823	0.968266	0.687002
	N229	N	0.592930	0.038769	0.687995
	N230	N	0.592229	0.969818	0.325285
	N231	N	0.417894	0.039702	0.325023
	N232	N	0.685074	0.417989	0.970330
	N233	N	0.684179	0.590221	0.041680
	N234	N	0.325670	0.591703	0.970002
	N235	N	0.327173	0.418738	0.041996
	N236	N	0.971508	0.684524	0.420123
	N237	N	0.040678	0.687325	0.595994
	N238	N	0.970688	0.325232	0.593322
	N239	N	0.041966	0.324111	0.419485
	N240	N	0.970330	0.419093	0.685536
	N241	N	0.041717	0.592492	0.687156
	N242	N	0.971181	0.590564	0.328131
	N243	N	0.042282	0.417316	0.326154
	N244	N	0.418504	0.685592	0.970149
	N245	N	0.593365	0.685580	0.040576
	N246	N	0.592615	0.323398	0.970481
	N247	N	0.418831	0.324364	0.040889
	N248	N	0.685455	0.969240	0.419855
	N249	N	0.685320	0.039671	0.593457
	N250	N	0.324501	0.968656	0.593350
	N251	N	0.324666	0.039821	0.418741
	N252	N	0.920113	0.469440	0.186365
	N253	N	0.094155	0.540427	0.187058
	N254	N	0.091913	0.469380	0.826934
	N255	N	0.917061	0.540347	0.824419
	N256	N	0.183423	0.919981	0.469820
	N257	N	0.187036	0.092675	0.542349
	N258	N	0.825748	0.091130	0.471553
	N259	N	0.826375	0.918384	0.542887
	N260	N	0.468564	0.184768	0.917773
	N261	N	0.540106	0.183942	0.092372
	N262	N	0.470326	0.822896	0.094222
	N263	N	0.540487	0.824619	0.919250
	N264	N	0.469523	0.917271	0.185804
	N265	N	0.540669	0.089899	0.184600
	N266	N	0.468829	0.090978	0.825569
	N267	N	0.540418	0.917187	0.826658
	N268	N	0.919184	0.184854	0.471735
	N269	N	0.093137	0.185420	0.543211
	N270	N	0.093650	0.823642	0.471819
	N271	N	0.917347	0.822924	0.541868
	N272	N	0.185211	0.468955	0.920501
	N273	N	0.187429	0.540455	0.093944
	N274	N	0.826648	0.468914	0.092027
	N275	N	0.825194	0.541253	0.919578
	O276	O	0.538846	0.457950	0.717984
	H277	H	0.522443	0.451658	0.713007
	H278	H	0.557161	0.470228	0.723103
	O279	O	0.413088	0.524423	0.342508
	H280	H	0.395220	0.530360	0.327107
	H281	H	0.422200	0.545457	0.351578
	O282	O	1.204890	1.028422	0.210441
	H283	H	1.220875	1.041339	0.225829
	H284	H	1.200588	1.027869	0.209138
	O285	O	0.387157	0.523508	0.483608
	H286	H	0.380136	0.528739	0.479406
	H287	H	0.396156	0.507547	0.495912
	O288	O	-0.146868	-0.039541	-0.027338
	H289	H	-0.148093	-0.033039	-0.055283
	H290	H	-0.144446	-0.028244	-0.006452
	O291	O	0.717406	0.505998	0.685731
	H292	H	0.717941	0.534726	0.677105
	H293	H	0.734737	0.506838	0.693834
	O294	O	-0.018813	0.974040	0.155951
	H295	H	-0.013800	0.964515	0.167502
	H296	H	-0.008105	0.961336	0.142638
	O297	O	0.483591	0.464782	0.466127
	H298	H	0.487236	0.470731	0.455575
	H299	H	0.492980	0.484457	0.475238
	O300	O	0.685384	0.474249	0.286624
	H301	H	0.704866	0.469860	0.260907
	H302	H	0.688086	0.440845	0.293286
	O303	O	0.479907	0.296664	0.714285
	H304	H	0.492116	0.297829	0.704892
	H305	H	0.479873	0.281519	0.730950
	O306	O	0.068906	0.803409	0.953782
	H307	H	0.053294	0.798054	0.942539
	H308	H	0.056021	0.812011	0.959897
	O309	O	0.320737	0.693333	0.322529
	H310	H	0.332660	0.683563	0.342049
	H311	H	0.333174	0.714992	0.311178
	O312	O	0.693918	0.480203	0.501836
	H313	H	0.692532	0.476656	0.490775
	H314	H	0.707535	0.472057	0.507890
	O315	O	0.067709	-0.166124	0.835568
	H316	H	0.076052	-0.180572	0.821526
	H317	H	0.050691	-0.148316	0.828716
	O318	O	0.175978	0.891605	0.138752
	H319	H	0.174401	0.906249	0.133093
	H320	H	0.170285	0.875505	0.121965
	O321	O	0.701629	0.668994	0.354333
	H322	H	0.687708	0.660958	0.369168
	H323	H	0.688525	0.649027	0.366999
	O324	O	0.824267	0.182153	1.179066
	H325	H	0.843625	0.173306	1.159164
	H326	H	0.832318	0.153746	1.167092
	O327	O	1.165585	0.073251	1.016782
	H328	H	1.169534	0.071312	1.019842
	H329	H	1.177610	0.092148	1.012501
	O330	O	0.792056	0.032936	-0.204500
	H331	H	0.764045	0.041452	-0.231183
	H332	H	0.800346	0.063240	-0.198430
	O333	O	0.969619	0.849880	0.854413
	H334	H	0.964905	0.848140	0.831168
	H335	H	0.971096	0.845148	0.847793
	O336	O	1.144952	0.096825	1.038895
	H337	H	1.154154	0.095038	1.040382
	H338	H	1.149714	0.101846	1.052543
	O339	O	0.716805	0.325466	0.295552
	H340	H	0.676826	0.309662	0.300112
	H341	H	0.747275	0.296821	0.260517
	O342	O	0.716957	0.720985	0.531715
	H343	H	0.734136	0.726974	0.526663
	H344	H	0.713626	0.728615	0.539061
	O345	O	0.052772	0.204570	0.068655
	H346	H	0.048946	0.201633	0.080068
	H347	H	0.033776	0.198701	0.076666
	O348	O	0.883403	0.035119	1.160423
	H349	H	0.874292	0.006003	1.159910
	H350	H	0.893987	0.022288	1.172598
	O351	O	1.026678	1.212921	0.208120
	H352	H	1.010468	1.216696	0.207954
	H353	H	1.020218	1.212217	0.214593
	O354	O	0.535456	0.718973	0.470718
	H355	H	0.532612	0.713177	0.475933
	H356	H	0.514240	0.719927	0.466492
	O357	O	0.855845	1.171033	0.805518
	H358	H	0.854502	1.191186	0.796877
	H359	H	0.886690	1.180163	0.811017
	O360	O	0.317972	0.349628	0.691531
	H361	H	0.341936	0.324420	0.707478
	H362	H	0.319164	0.378172	0.672526
	O363	O	0.292712	0.722538	0.483844
	H364	H	0.274835	0.720674	0.477558
	H365	H	0.277784	0.716925	0.483204
	O366	O	1.213326	0.203294	1.112315
	H367	H	1.238129	0.233350	1.128748
	H368	H	1.186270	0.204420	1.136008
	O369	O	0.451645	0.492573	0.319725
	H370	H	0.454919	0.492482	0.331759
	H371	H	0.437941	0.499410	0.313476
	O372	O	0.420275	0.662136	0.291789
	H373	H	0.423205	0.652309	0.285459
	H374	H	0.411410	0.685221	0.272511
	O375	O	-0.183354	0.988115	0.980910
	H376	H	-0.179939	0.988940	0.999582
	H377	H	-0.175651	1.000107	0.979459
	O378	O	0.985755	0.112652	0.106949
	H379	H	0.985851	0.101427	0.102469
	H380	H	0.982244	0.121535	0.101924
	O381	O	0.999184	-0.075625	0.089183
	H382	H	1.003205	-0.084370	0.085641
	H383	H	1.004982	-0.079189	0.077838
	O384	O	0.199243	-0.012419	0.827696
	H385	H	0.207215	-0.020508	0.836246
	H386	H	0.188656	-0.010715	0.823963
	O387	O	-0.021179	1.219620	0.818967
	H388	H	-0.003611	1.223887	0.819122
	H389	H	-0.013431	1.227762	0.813372
	O390	O	0.192093	-0.067505	0.933901
	H391	H	0.168893	-0.075451	0.946864
	H392	H	0.189909	-0.062923	0.956815
	O393	O	0.691312	0.688421	-0.304657
	H394	H	0.649522	0.696303	-0.293559
	H395	H	0.704778	0.695703	-0.328276
	O396	O	0.548368	0.335450	0.514626
	H397	H	0.559232	0.332724	0.518496
	H398	H	0.553960	0.339947	0.497622
	O399	O	0.559284	0.638867	0.445347
	H400	H	0.562261	0.638243	0.468034
	H401	H	0.566751	0.633499	0.440453
	O402	O	-0.199231	-0.136300	1.087430
	H403	H	-0.208015	-0.129084	1.081498
	H404	H	-0.204839	-0.149673	1.077020
	O405	O	-0.027594	-0.110450	-0.057970
	H406	H	-0.038986	-0.102985	-0.061338
	H407	H	-0.021700	-0.107719	-0.054170
	O408	O	0.454758	0.533100	0.615333
	H409	H	0.459594	0.549087	0.605665
	H410	H	0.452714	0.530487	0.613393
	O411	O	0.602750	0.553185	0.411206
	H412	H	0.612549	0.541702	0.398522
	H413	H	0.606345	0.539526	0.416029
	O414	O	0.389442	0.498312	0.469865
	H415	H	0.385904	0.484842	0.472692
	H416	H	0.401444	0.517342	0.455468
	O417	O	0.569339	0.292580	0.295374
	H418	H	0.548630	0.291078	0.293489
	H419	H	0.562565	0.287538	0.291678
	O420	O	0.364392	0.564427	0.627577
	H421	H	0.363224	0.561630	0.625383
	H422	H	0.351760	0.544581	0.623587
	O423	O	-0.095498	0.795110	0.160056
	H424	H	-0.107241	0.794423	0.149045
	H425	H	-0.114738	0.768425	0.181921
	O426	O	0.697689	1.338817	0.672294
	H427	H	0.692832	1.345388	0.654939
	H428	H	0.677777	1.367418	0.683529
	O429	O	0.210955	0.822897	-0.119413
	H430	H	0.226672	0.800222	-0.092181
	H431	H	0.196447	0.833014	-0.131346
	O432	O	0.298580	0.291212	0.552482
	H433	H	0.293624	0.271305	0.555679
	H434	H	0.299435	0.285868	0.571088
	O435	O	-0.202969	0.201623	-0.018204
	H436	H	-0.215836	0.198649	-0.029630
	H437	H	-0.196523	0.205996	-0.028569
	O438	O	0.976997	-0.065554	-0.078377
	H439	H	0.967361	-0.057778	-0.081334
	H440	H	0.981129	-0.068976	-0.070801
	O441	O	0.509039	0.294541	0.510335
	H442	H	0.502024	0.286149	0.517861
	H443	H	0.513944	0.313956	0.514503
	O444	O	0.062964	1.075235	0.942975
	H445	H	0.069435	1.060561	0.953175
	H446	H	0.071917	1.073395	0.950760
	O447	O	0.718821	0.285084	0.472438
	H448	H	0.730473	0.275310	0.457145
	H449	H	0.728964	0.276747	0.466057
	O450	O	0.370043	0.317145	0.323144
	H451	H	0.380506	0.336198	0.330949
	H452	H	0.381746	0.330136	0.345899
	O453	O	0.515889	0.701531	0.708469
	H454	H	0.492757	0.693260	0.697053
	H455	H	0.515454	0.723165	0.727182
	O456	O	1.048973	0.085253	-0.065054
	H457	H	1.059258	0.077292	-0.052660
	H458	H	1.048580	0.089484	-0.063195
	O459	O	0.289325	0.493588	0.702422
	H460	H	0.289556	0.471757	0.706019
	H461	H	0.279079	0.503712	0.711250
	O462	O	0.383475	0.672604	0.578521
	H463	H	0.380504	0.663833	0.593127
	H464	H	0.378220	0.657647	0.561902
	O465	O	0.806502	-0.195176	0.192287
	H466	H	0.784862	-0.215131	0.207166
	H467	H	0.801249	-0.196990	0.166161
