data_Molecule from HDF5

_cell_length_a		16.270775
_cell_length_b		16.237239
_cell_length_c		16.182152
_cell_angle_alpha	90.496010
_cell_angle_beta	90.407700
_cell_angle_gamma	90.103042
_symmetry_space_group_name_H-M	'P 1'
_symmetry_Int_Tables_number		1

loop_
	_symmetry_equiv_pos_as_xyz
	x,y,z

loop_
	_atom_site_label
	_atom_site_type_symbol
	_atom_site_fract_x
	_atom_site_fract_y
	_atom_site_fract_z
	H0	H	0.405422	0.840598	0.702633
	H1	H	0.604410	0.168596	0.707673
	H2	H	0.599434	0.840813	0.275480
	H3	H	0.405123	0.169380	0.277685
	H4	H	0.716425	0.404320	0.827289
	H5	H	0.720925	0.606758	0.155679
	H6	H	0.284598	0.605229	0.828518
	H7	H	0.291904	0.407839	0.156265
	H8	H	0.840025	0.718736	0.392802
	H9	H	0.167411	0.722662	0.594398
	H10	H	0.841228	0.290240	0.589331
	H11	H	0.167728	0.290459	0.392843
	H12	H	0.838876	0.408293	0.702745
	H13	H	0.167604	0.604934	0.708754
	H14	H	0.841592	0.604329	0.276586
	H15	H	0.168354	0.406913	0.278101
	H16	H	0.403346	0.717198	0.826090
	H17	H	0.604982	0.723273	0.155029
	H18	H	0.600764	0.289508	0.827647
	H19	H	0.407069	0.294651	0.156228
	H20	H	0.718701	0.841376	0.388322
	H21	H	0.721440	0.168250	0.592790
	H22	H	0.289452	0.841108	0.586544
	H23	H	0.288476	0.168873	0.390491
	H24	H	0.907622	0.341383	0.203544
	H25	H	0.104196	0.669574	0.208318
	H26	H	0.100458	0.341969	0.776122
	H27	H	0.904683	0.670102	0.779372
	H28	H	0.214505	0.906328	0.324848
	H29	H	0.221691	0.107417	0.653797
	H30	H	0.787222	0.104670	0.326593
	H31	H	0.790254	0.906522	0.654423
	H32	H	0.339043	0.219480	0.892311
	H33	H	0.666217	0.221332	0.092330
	H34	H	0.340460	0.790504	0.087241
	H35	H	0.666497	0.788915	0.890479
	H36	H	0.338715	0.906999	0.201098
	H37	H	0.666277	0.105765	0.208096
	H38	H	0.339507	0.102625	0.775171
	H39	H	0.668096	0.906110	0.777365
	H40	H	0.903988	0.219298	0.326714
	H41	H	0.104602	0.221000	0.655551
	H42	H	0.100811	0.789243	0.327468
	H43	H	0.905957	0.793855	0.655404
	H44	H	0.216574	0.340939	0.892065
	H45	H	0.220660	0.668952	0.093319
	H46	H	0.790456	0.341512	0.089254
	H47	H	0.787111	0.668205	0.891541
	H48	H	0.417593	0.118038	0.576745
	H49	H	0.611295	0.884932	0.579015
	H50	H	0.592236	0.118681	0.405979
	H51	H	0.408330	0.887569	0.394057
	H52	H	0.600332	0.405137	0.112992
	H53	H	0.586327	0.601818	0.875572
	H54	H	0.413314	0.600118	0.108499
	H55	H	0.410835	0.404003	0.872261
	H56	H	0.120974	0.599651	0.404542
	H57	H	0.884459	0.604464	0.588847
	H58	H	0.119442	0.409785	0.578811
	H59	H	0.890377	0.418149	0.399083
	H60	H	0.118532	0.422002	0.585247
	H61	H	0.888528	0.602389	0.579627
	H62	H	0.121439	0.595907	0.399989
	H63	H	0.885297	0.411307	0.391672
	H64	H	0.412420	0.597855	0.107859
	H65	H	0.604882	0.600558	0.870676
	H66	H	0.605254	0.421073	0.109329
	H67	H	0.402348	0.414558	0.872072
	H68	H	0.602658	0.123456	0.401441
	H69	H	0.593633	0.885864	0.595171
	H70	H	0.402269	0.124062	0.581355
	H71	H	0.408567	0.887836	0.394730
	H72	H	0.909897	0.623731	0.084788
	H73	H	0.096209	0.390321	0.078904
	H74	H	0.109528	0.626183	0.903559
	H75	H	0.900305	0.385922	0.900361
	H76	H	0.100884	0.906313	0.612229
	H77	H	0.106220	0.093526	0.371243
	H78	H	0.919237	0.105742	0.608080
	H79	H	0.918670	0.918357	0.377408
	H80	H	0.618575	0.095419	0.902149
	H81	H	0.383856	0.100204	0.089078
	H82	H	0.620566	0.918073	0.087616
	H83	H	0.386465	0.900595	0.906254
	H84	H	0.622794	0.909035	0.085196
	H85	H	0.384665	0.104520	0.081994
	H86	H	0.620995	0.098489	0.896245
	H87	H	0.391768	0.925520	0.899452
	H88	H	0.903970	0.099542	0.610824
	H89	H	0.087717	0.092850	0.377363
	H90	H	0.104994	0.923270	0.608365
	H91	H	0.913457	0.901136	0.370508
	H92	H	0.090309	0.624542	0.889142
	H93	H	0.105170	0.386837	0.085798
	H94	H	0.914215	0.622437	0.086482
	H95	H	0.912098	0.385778	0.887175
	H96	H	0.415155	0.123415	0.591968
	H97	H	0.588977	0.893477	0.572570
	H98	H	0.592755	0.122650	0.393788
	H99	H	0.408474	0.887333	0.395170
	H100	H	0.589867	0.416831	0.106115
	H101	H	0.595367	0.585082	0.877704
	H102	H	0.415626	0.598612	0.108129
	H103	H	0.415056	0.417013	0.876811
	H104	H	0.122383	0.600983	0.399332
	H105	H	0.887865	0.594761	0.586801
	H106	H	0.123945	0.410991	0.591353
	H107	H	0.886977	0.408006	0.401801
	H108	H	0.912990	0.621720	0.081368
	H109	H	0.094564	0.387195	0.089718
	H110	H	0.088580	0.616994	0.912200
	H111	H	0.917794	0.392209	0.903484
	H112	H	0.088463	0.917175	0.604369
	H113	H	0.094627	0.109197	0.369879
	H114	H	0.915991	0.090067	0.603855
	H115	H	0.900431	0.915138	0.370596
	H116	H	0.619926	0.102295	0.902603
	H117	H	0.386910	0.096777	0.081734
	H118	H	0.618489	0.915142	0.078726
	H119	H	0.381605	0.908490	0.881211
	C120	C	0.382741	0.013351	0.611186
	C121	C	0.627200	0.996040	0.612683
	C122	C	0.624539	0.013550	0.369726
	C123	C	0.380851	0.996334	0.367433
	C124	C	0.625672	0.384215	0.000543
	C125	C	0.625949	0.626834	0.982913
	C126	C	0.383108	0.626759	-0.000400
	C127	C	0.382434	0.384625	0.983067
	C128	C	0.013235	0.627018	0.371451
	C129	C	0.995113	0.629020	0.615027
	C130	C	0.012469	0.385216	0.613029
	C131	C	0.995789	0.383815	0.369415
	C132	C	0.883542	0.514125	0.112703
	C133	C	0.127193	0.496523	0.114581
	C134	C	0.124763	0.514224	0.871491
	C135	C	0.881342	0.496692	0.869084
	C136	C	0.125166	0.885542	0.499445
	C137	C	0.126035	0.127824	0.481615
	C138	C	0.883077	0.126962	0.499205
	C139	C	0.882452	0.883718	0.481711
	C140	C	0.511395	0.127057	0.870379
	C141	C	0.493639	0.128806	0.113971
	C142	C	0.512150	0.884848	0.111234
	C143	C	0.494913	0.882724	0.867594
	C144	C	0.385276	0.889669	0.664758
	C145	C	0.624989	0.119521	0.669460
	C146	C	0.621163	0.889924	0.313135
	C147	C	0.384397	0.120405	0.314384
	C148	C	0.679045	0.384763	0.876531
	C149	C	0.682596	0.626580	0.106299
	C150	C	0.324510	0.624622	0.876776
	C151	C	0.328980	0.387626	0.106935
	C152	C	0.889469	0.681242	0.373388
	C153	C	0.118616	0.684452	0.614204
	C154	C	0.889490	0.328820	0.610164
	C155	C	0.118922	0.328417	0.372446
	C156	C	0.888481	0.387769	0.666376
	C157	C	0.118634	0.626040	0.671157
	C158	C	0.890101	0.624424	0.315196
	C159	C	0.119381	0.386339	0.315463
	C160	C	0.383339	0.680517	0.875548
	C161	C	0.625061	0.684561	0.106000
	C162	C	0.621537	0.327748	0.876631
	C163	C	0.385975	0.331150	0.107033
	C164	C	0.679922	0.890135	0.369669
	C165	C	0.683003	0.119352	0.612092
	C166	C	0.326950	0.890221	0.607595
	C167	C	0.326143	0.119874	0.370230
	C168	C	0.886869	0.390588	0.166487
	C169	C	0.124681	0.620638	0.170331
	C170	C	0.121335	0.390678	0.814758
	C171	C	0.883711	0.620539	0.815641
	C172	C	0.178068	0.886237	0.374856
	C173	C	0.182749	0.126875	0.605188
	C174	C	0.826189	0.124295	0.375572
	C175	C	0.827650	0.886725	0.605306
	C176	C	0.388109	0.181736	0.871839
	C177	C	0.617104	0.183935	0.112657
	C178	C	0.388989	0.828701	0.107804
	C179	C	0.617914	0.827175	0.870485
	C180	C	0.388178	0.886679	0.164460
	C181	C	0.617076	0.126440	0.170063
	C182	C	0.388385	0.123659	0.813684
	C183	C	0.618746	0.885350	0.814094
	C184	C	0.883983	0.181522	0.375424
	C185	C	0.124652	0.183449	0.606041
	C186	C	0.121720	0.828018	0.376033
	C187	C	0.885375	0.830625	0.605986
	C188	C	0.179088	0.390298	0.872318
	C189	C	0.182606	0.619999	0.113504
	C190	C	0.828573	0.390564	0.109579
	C191	C	0.825317	0.619632	0.871438
	C192	C	0.405113	0.099572	0.589826
	C193	C	0.604593	0.910250	0.589281
	C194	C	0.602465	0.099220	0.393425
	C195	C	0.402114	0.909924	0.388357
	C196	C	0.604666	0.407263	0.086985
	C197	C	0.602316	0.602926	0.896699
	C198	C	0.406705	0.605230	0.085836
	C199	C	0.403379	0.405590	0.896279
	C200	C	0.099388	0.605223	0.394370
	C201	C	0.909375	0.607178	0.591918
	C202	C	0.098390	0.407572	0.591560
	C203	C	0.909842	0.405945	0.391090
	C204	C	0.905727	0.600377	0.090706
	C205	C	0.105170	0.410490	0.091800
	C206	C	0.102791	0.600415	0.894767
	C207	C	0.903590	0.410323	0.890662
	C208	C	0.104218	0.908737	0.585804
	C209	C	0.102949	0.105201	0.395252
	C210	C	0.906373	0.105016	0.585241
	C211	C	0.904265	0.905052	0.395135
	C212	C	0.597627	0.105095	0.893517
	C213	C	0.407484	0.106812	0.091105
	C214	C	0.598157	0.907368	0.090057
	C215	C	0.408963	0.904935	0.889090
	Zn216	Zn	0.504320	0.004614	0.740516
	Zn217	Zn	0.502412	0.005622	0.240375
	Zn218	Zn	0.754372	0.504833	-0.008690
	Zn219	Zn	0.254695	0.505104	-0.007791
	Zn220	Zn	0.004131	0.756483	0.492329
	Zn221	Zn	0.004229	0.256047	0.491143
	Zn222	Zn	0.003242	0.506176	0.742464
	Zn223	Zn	0.005097	0.506070	0.241912
	Zn224	Zn	0.503673	0.755504	-0.009991
	Zn225	Zn	0.503257	0.256903	-0.007869
	Zn226	Zn	0.754929	0.004713	0.490060
	Zn227	Zn	0.253567	0.005720	0.489360
	N228	N	0.419285	0.967302	0.667162
	N229	N	0.590810	0.041911	0.670003
	N230	N	0.587134	0.967442	0.313155
	N231	N	0.417688	0.042590	0.312521
	N232	N	0.681785	0.419119	0.954507
	N233	N	0.683239	0.591474	0.028515
	N234	N	0.324325	0.591975	0.954983
	N235	N	0.326642	0.420077	0.028869
	N236	N	0.967133	0.683005	0.407709
	N237	N	0.041032	0.686591	0.580128
	N238	N	0.967360	0.327225	0.577693
	N239	N	0.041240	0.326984	0.405486
	N240	N	0.965974	0.422203	0.668177
	N241	N	0.040909	0.592635	0.672107
	N242	N	0.967900	0.591409	0.313847
	N243	N	0.041813	0.420153	0.313297
	N244	N	0.419402	0.681622	0.952708
	N245	N	0.590392	0.684658	0.028319
	N246	N	0.589068	0.327149	0.954889
	N247	N	0.418688	0.329112	0.028793
	N248	N	0.682164	0.967901	0.404122
	N249	N	0.684343	0.041682	0.577571
	N250	N	0.325460	0.968237	0.574821
	N251	N	0.323657	0.041789	0.402460
	N252	N	0.920156	0.468473	0.168621
	N253	N	0.090859	0.543029	0.171400
	N254	N	0.088449	0.468717	0.813986
	N255	N	0.917506	0.542958	0.813852
	N256	N	0.180078	0.921407	0.452542
	N257	N	0.183734	0.093130	0.527033
	N258	N	0.825305	0.091292	0.453664
	N259	N	0.825833	0.919091	0.526965
	N260	N	0.465781	0.183899	0.906259
	N261	N	0.539395	0.185537	0.078515
	N262	N	0.466976	0.827408	0.075362
	N263	N	0.539800	0.825305	0.902679
	N264	N	0.465699	0.920765	0.166903
	N265	N	0.539316	0.092918	0.171080
	N266	N	0.466240	0.090554	0.812520
	N267	N	0.541301	0.919246	0.812077
	N268	N	0.918837	0.183242	0.453115
	N269	N	0.089834	0.184293	0.528168
	N270	N	0.089462	0.827571	0.454407
	N271	N	0.918894	0.828579	0.528309
	N272	N	0.181157	0.468044	0.907064
	N273	N	0.184242	0.542164	0.079640
	N274	N	0.826078	0.468593	0.077142
	N275	N	0.823568	0.541418	0.903921
	O276	O	-0.023946	-0.013702	0.026833
	H277	H	-0.020955	-0.020163	0.026872
	H278	H	-0.017842	-0.012365	0.030473
	O279	O	0.638185	0.504516	0.474457
	H280	H	0.638244	0.500039	0.473408
	H281	H	0.651404	0.516605	0.482882
	O282	O	0.500206	0.471570	0.551669
	H283	H	0.501252	0.474970	0.548597
	H284	H	0.495537	0.471277	0.560304
	O285	O	1.003419	0.002189	1.053024
	H286	H	1.012994	-0.005530	1.055913
	H287	H	1.005334	0.005399	1.054391
	O288	O	1.071546	-0.011593	-0.004202
	H289	H	1.063223	-0.008991	-0.008081
	H290	H	1.072557	-0.005053	-0.001078
	O291	O	0.449175	0.452774	0.502994
	H292	H	0.453997	0.454472	0.510145
	H293	H	0.464034	0.452479	0.504624
	O294	O	0.971049	-0.024536	0.986917
	H295	H	0.958563	-0.029145	0.986828
	H296	H	0.967874	-0.021890	0.984923
	O297	O	-0.011773	-0.022907	-0.033393
	H298	H	-0.019878	-0.015133	-0.034984
	H299	H	-0.004166	-0.023747	-0.032578
	O300	O	0.465474	0.561505	0.434457
	H301	H	0.456596	0.559414	0.433367
	H302	H	0.471613	0.561803	0.443416
	O303	O	0.558388	0.565204	0.589908
	H304	H	0.564739	0.561996	0.587028
	H305	H	0.557430	0.566092	0.597289
	O306	O	0.970119	0.045513	-0.031191
	H307	H	0.969202	0.041222	-0.034406
	H308	H	0.978350	0.043129	-0.032983
	O309	O	0.034262	-0.045409	0.968895
	H310	H	0.041197	-0.050974	0.968224
	H311	H	0.039807	-0.033012	0.972845
	O312	O	1.401630	0.477711	1.565321
	H313	H	1.400643	0.478119	1.551181
	H314	H	1.404127	0.473467	1.566518
	O315	O	0.542343	0.474459	0.494575
	H316	H	0.538813	0.479520	0.492467
	H317	H	0.549147	0.468721	0.494194
	O318	O	0.493438	0.535979	0.499678
	H319	H	0.501565	0.534952	0.494165
	H320	H	0.491111	0.543647	0.495214
	O321	O	-0.038572	1.104091	0.963885
	H322	H	-0.041786	1.107982	0.970206
	H323	H	-0.045790	1.104647	0.955062
	O324	O	0.472030	0.608771	0.549585
	H325	H	0.470418	0.601779	0.554962
	H326	H	0.468192	0.596899	0.549410
	O327	O	0.446405	0.522848	0.496246
	H328	H	0.449350	0.533497	0.491636
	H329	H	0.432480	0.526504	0.495949
	O330	O	0.522563	0.593453	0.525198
	H331	H	0.521523	0.589884	0.521018
	H332	H	0.523507	0.582437	0.526173
	O333	O	0.528957	0.519070	0.402952
	H334	H	0.532514	0.526161	0.403525
	H335	H	0.527496	0.511801	0.400521
	O336	O	0.519495	0.432279	0.573594
	H337	H	0.511848	0.429157	0.588746
	H338	H	0.518074	0.435723	0.585132
	O339	O	0.956338	1.003544	-0.069825
	H340	H	0.964468	0.998631	-0.074781
	H341	H	0.955183	1.000755	-0.070913
	O342	O	0.594549	0.455584	0.530718
	H343	H	0.589418	0.457564	0.529404
	H344	H	0.603498	0.468175	0.519116
	O345	O	0.538974	0.420267	0.465044
	H346	H	0.538202	0.411591	0.472969
	H347	H	0.534955	0.411303	0.459074
	O348	O	-0.326249	0.378068	0.373055
	H349	H	-0.322112	0.381438	0.374077
	H350	H	-0.335988	0.392394	0.375242
	O351	O	-0.011129	0.953705	0.975347
	H352	H	-0.014562	0.945959	0.976843
	H353	H	-0.012507	0.956416	0.968643
	O354	O	0.503007	0.557816	0.430039
	H355	H	0.505647	0.558147	0.422139
	H356	H	0.504193	0.559236	0.438462
	O357	O	-0.008608	0.941633	0.995143
	H358	H	-0.002181	0.945026	0.999692
	H359	H	-0.013761	0.945716	1.002279
