data_Molecule from HDF5

_cell_length_a		16.351134
_cell_length_b		16.204070
_cell_length_c		16.513684
_cell_angle_alpha	89.688994
_cell_angle_beta	89.936512
_cell_angle_gamma	90.064158
_symmetry_space_group_name_H-M	'P 1'
_symmetry_Int_Tables_number		1

loop_
	_symmetry_equiv_pos_as_xyz
	x,y,z

loop_
	_atom_site_label
	_atom_site_type_symbol
	_atom_site_fract_x
	_atom_site_fract_y
	_atom_site_fract_z
	H0	H	0.391984	0.844952	0.712944
	H1	H	0.601469	0.167410	0.709583
	H2	H	0.601055	0.844253	0.271730
	H3	H	0.390808	0.166578	0.270706
	H4	H	0.719392	0.402064	0.835241
	H5	H	0.716986	0.610544	0.152281
	H6	H	0.278045	0.608927	0.833471
	H7	H	0.278478	0.403268	0.153452
	H8	H	0.836485	0.724696	0.389753
	H9	H	0.158695	0.722048	0.592398
	H10	H	0.836276	0.283939	0.598692
	H11	H	0.159861	0.290588	0.395290
	H12	H	0.838409	0.396890	0.717473
	H13	H	0.158636	0.606507	0.710609
	H14	H	0.840017	0.617553	0.268050
	H15	H	0.157304	0.401641	0.273279
	H16	H	0.396358	0.723119	0.832132
	H17	H	0.597596	0.723686	0.153209
	H18	H	0.598893	0.288786	0.832172
	H19	H	0.393959	0.285404	0.152503
	H20	H	0.717257	0.844576	0.385741
	H21	H	0.716504	0.167071	0.592758
	H22	H	0.281351	0.842431	0.592434
	H23	H	0.279869	0.167805	0.390185
	H24	H	0.891025	0.345933	0.216440
	H25	H	0.103545	0.667576	0.212880
	H26	H	0.101814	0.343122	0.776129
	H27	H	0.893376	0.665961	0.772810
	H28	H	0.215376	0.904922	0.331587
	H29	H	0.218496	0.107768	0.651560
	H30	H	0.777980	0.112212	0.332508
	H31	H	0.773561	0.898822	0.648392
	H32	H	0.333836	0.221479	0.891733
	H33	H	0.657505	0.223818	0.092950
	H34	H	0.334064	0.790397	0.090386
	H35	H	0.658280	0.789792	0.892248
	H36	H	0.336820	0.898988	0.213408
	H37	H	0.654507	0.114926	0.214855
	H38	H	0.335903	0.109742	0.771427
	H39	H	0.655926	0.900991	0.770302
	H40	H	0.896320	0.227526	0.333941
	H41	H	0.099280	0.221138	0.654199
	H42	H	0.097252	0.788269	0.332141
	H43	H	0.895142	0.787606	0.651943
	H44	H	0.212786	0.342468	0.895094
	H45	H	0.213865	0.669547	0.092912
	H46	H	0.776586	0.344523	0.099205
	H47	H	0.780164	0.667960	0.891239
	H48	H	0.412502	0.120258	0.582591
	H49	H	0.586707	0.890303	0.581172
	H50	H	0.582864	0.119052	0.401995
	H51	H	0.407078	0.891602	0.405762
	H52	H	0.590366	0.422140	0.104529
	H53	H	0.586928	0.600959	0.879001
	H54	H	0.401430	0.598103	0.108014
	H55	H	0.405634	0.403727	0.875867
	H56	H	0.112867	0.597730	0.401085
	H57	H	0.883441	0.593085	0.582631
	H58	H	0.109887	0.412112	0.581023
	H59	H	0.884869	0.414682	0.410391
	H60	H	0.109719	0.421296	0.587670
	H61	H	0.882614	0.592227	0.587802
	H62	H	0.109543	0.594424	0.406177
	H63	H	0.886289	0.424617	0.405702
	H64	H	0.404660	0.592856	0.105423
	H65	H	0.593050	0.595873	0.879541
	H66	H	0.578407	0.415593	0.103166
	H67	H	0.392043	0.419722	0.878026
	H68	H	0.588831	0.119915	0.403998
	H69	H	0.581189	0.891907	0.582978
	H70	H	0.404504	0.120882	0.577129
	H71	H	0.401922	0.887779	0.399757
	H72	H	0.910219	0.618383	0.076302
	H73	H	0.092411	0.387979	0.087753
	H74	H	0.089021	0.620560	0.906770
	H75	H	0.899200	0.389007	0.909791
	H76	H	0.093820	0.916958	0.606068
	H77	H	0.093968	0.095790	0.378640
	H78	H	0.908807	0.091309	0.603711
	H79	H	0.913739	0.911538	0.378742
	H80	H	0.610919	0.095644	0.898226
	H81	H	0.381365	0.092166	0.087035
	H82	H	0.611271	0.916480	0.083443
	H83	H	0.380113	0.911660	0.898429
	H84	H	0.610251	0.917213	0.081764
	H85	H	0.381382	0.099008	0.080485
	H86	H	0.611364	0.096631	0.898500
	H87	H	0.382961	0.916319	0.904743
	H88	H	0.906026	0.096680	0.607264
	H89	H	0.085417	0.093947	0.381800
	H90	H	0.085419	0.916516	0.603264
	H91	H	0.900576	0.913719	0.375534
	H92	H	0.089768	0.623067	0.896927
	H93	H	0.079912	0.392445	0.090091
	H94	H	0.902072	0.622866	0.083690
	H95	H	0.910702	0.387505	0.896827
	H96	H	0.404488	0.123452	0.586182
	H97	H	0.583016	0.892764	0.577927
	H98	H	0.586838	0.122071	0.398204
	H99	H	0.410389	0.889748	0.397675
	H100	H	0.589514	0.409379	0.109041
	H101	H	0.586622	0.593702	0.881294
	H102	H	0.407231	0.599050	0.106623
	H103	H	0.411898	0.421430	0.883659
	H104	H	0.110828	0.591598	0.400287
	H105	H	0.881566	0.597695	0.586320
	H106	H	0.114712	0.411494	0.591134
	H107	H	0.881658	0.416512	0.399859
	H108	H	0.913728	0.621033	0.086996
	H109	H	0.084486	0.394051	0.077864
	H110	H	0.081457	0.619129	0.900737
	H111	H	0.915719	0.395177	0.911346
	H112	H	0.088805	0.909436	0.607070
	H113	H	0.087237	0.102811	0.378627
	H114	H	0.902318	0.090759	0.604972
	H115	H	0.907860	0.923370	0.381386
	H116	H	0.611113	0.095762	0.899385
	H117	H	0.385312	0.089906	0.078747
	H118	H	0.610375	0.918251	0.083953
	H119	H	0.381901	0.920084	0.897665
	C120	C	0.375808	0.014507	0.613007
	C121	C	0.616752	0.997704	0.611747
	C122	C	0.617833	0.014151	0.369697
	C123	C	0.375506	0.996944	0.370270
	C124	C	0.618064	0.384429	0.000878
	C125	C	0.618917	0.628147	0.985077
	C126	C	0.374603	0.627704	0.000882
	C127	C	0.373350	0.383418	0.984821
	C128	C	0.005769	0.627458	0.371177
	C129	C	0.988963	0.625755	0.615094
	C130	C	0.005882	0.382061	0.617715
	C131	C	0.989805	0.386195	0.373840
	C132	C	0.875650	0.514812	0.115489
	C133	C	0.117756	0.498449	0.114934
	C134	C	0.117744	0.513728	0.872473
	C135	C	0.876791	0.497042	0.873589
	C136	C	0.119544	0.883694	0.500290
	C137	C	0.119624	0.127033	0.484944
	C138	C	0.875401	0.126810	0.500567
	C139	C	0.875574	0.884144	0.483247
	C140	C	0.504732	0.127107	0.869134
	C141	C	0.487897	0.126486	0.113315
	C142	C	0.504452	0.885194	0.113662
	C143	C	0.487737	0.884477	0.869510
	C144	C	0.373731	0.892981	0.672593
	C145	C	0.619670	0.118920	0.670411
	C146	C	0.619673	0.892917	0.310649
	C147	C	0.373716	0.118608	0.311416
	C148	C	0.678530	0.383576	0.882007
	C149	C	0.676985	0.628842	0.104818
	C150	C	0.316845	0.628275	0.881080
	C151	C	0.316651	0.383530	0.105185
	C152	C	0.885154	0.686541	0.370403
	C153	C	0.110412	0.683274	0.612949
	C154	C	0.885025	0.322744	0.618370
	C155	C	0.111228	0.329000	0.375064
	C156	C	0.885928	0.379131	0.677478
	C157	C	0.110262	0.626091	0.671947
	C158	C	0.886985	0.633012	0.309670
	C159	C	0.109814	0.384110	0.314115
	C160	C	0.375786	0.685234	0.880435
	C161	C	0.617839	0.685675	0.105203
	C162	C	0.618560	0.327322	0.880590
	C163	C	0.374347	0.324880	0.104748
	C164	C	0.677413	0.892954	0.367762
	C165	C	0.676844	0.118662	0.612080
	C166	C	0.318572	0.891790	0.613014
	C167	C	0.317968	0.119033	0.370430
	C168	C	0.872994	0.393916	0.176420
	C169	C	0.120666	0.619752	0.172927
	C170	C	0.119517	0.391531	0.815399
	C171	C	0.875210	0.618048	0.813207
	C172	C	0.176576	0.884581	0.379677
	C173	C	0.178229	0.126747	0.604586
	C174	C	0.817176	0.130301	0.380592
	C175	C	0.814741	0.881019	0.601809
	C176	C	0.382807	0.184117	0.870975
	C177	C	0.608797	0.185565	0.112885
	C178	C	0.382973	0.827847	0.111743
	C179	C	0.609476	0.827569	0.871094
	C180	C	0.384285	0.882141	0.172779
	C181	C	0.607460	0.131035	0.173624
	C182	C	0.383673	0.128338	0.811350
	C183	C	0.608232	0.882669	0.810425
	C184	C	0.876204	0.187654	0.381280
	C185	C	0.118974	0.183233	0.605820
	C186	C	0.118080	0.826602	0.379953
	C187	C	0.875382	0.825977	0.603577
	C188	C	0.174900	0.391205	0.874647
	C189	C	0.176010	0.620383	0.113495
	C190	C	0.816190	0.393287	0.117743
	C191	C	0.818528	0.619026	0.871891
	C192	C	0.400037	0.099406	0.588859
	C193	C	0.591021	0.913600	0.587643
	C194	C	0.593250	0.098420	0.394154
	C195	C	0.399498	0.911708	0.394124
	C196	C	0.593376	0.408467	0.083840
	C197	C	0.595588	0.603851	0.901467
	C198	C	0.397783	0.603719	0.084917
	C199	C	0.396569	0.407698	0.900924
	C200	C	0.089308	0.601900	0.395641
	C201	C	0.904701	0.601475	0.592311
	C202	C	0.089641	0.407351	0.593380
	C203	C	0.906103	0.411353	0.398197
	C204	C	0.901155	0.598961	0.089882
	C205	C	0.092757	0.413575	0.091949
	C206	C	0.093604	0.598852	0.894846
	C207	C	0.901211	0.412528	0.898814
	C208	C	0.096310	0.907429	0.583898
	C209	C	0.095784	0.104264	0.401443
	C210	C	0.898843	0.100560	0.583557
	C211	C	0.900184	0.908905	0.400161
	C212	C	0.589108	0.103132	0.891882
	C213	C	0.404398	0.100951	0.089154
	C214	C	0.588775	0.910127	0.090001
	C215	C	0.403454	0.908927	0.893129
	Zn216	Zn	0.496477	0.006057	0.740686
	Zn217	Zn	0.496164	0.006118	0.242431
	Zn218	Zn	0.747788	0.505947	-0.006110
	Zn219	Zn	0.245139	0.506256	-0.006809
	Zn220	Zn	-0.003126	0.754575	0.492626
	Zn221	Zn	-0.002273	0.256245	0.494669
	Zn222	Zn	-0.002483	0.504453	0.745030
	Zn223	Zn	-0.003009	0.507160	0.243650
	Zn224	Zn	0.496832	0.756564	-0.007805
	Zn225	Zn	0.496391	0.254942	-0.008406
	Zn226	Zn	0.745840	0.005076	0.490561
	Zn227	Zn	0.248853	0.005843	0.491998
	N228	N	0.408370	0.970256	0.672723
	N229	N	0.582962	0.042665	0.670198
	N230	N	0.583461	0.969373	0.311571
	N231	N	0.408695	0.041528	0.311312
	N232	N	0.678416	0.418381	0.957841
	N233	N	0.677949	0.593932	0.029017
	N234	N	0.315971	0.593297	0.957119
	N235	N	0.315638	0.418890	0.029411
	N236	N	0.960026	0.683120	0.408070
	N237	N	0.033902	0.683495	0.578695
	N238	N	0.960414	0.324692	0.581783
	N239	N	0.035604	0.330323	0.411526
	N240	N	0.962150	0.415009	0.677520
	N241	N	0.033599	0.591079	0.673484
	N242	N	0.963060	0.597086	0.309870
	N243	N	0.033230	0.419184	0.313315
	N244	N	0.410805	0.684910	0.956034
	N245	N	0.582580	0.685405	0.029623
	N246	N	0.581812	0.327690	0.955417
	N247	N	0.408697	0.324678	0.028752
	N248	N	0.676549	0.969329	0.403582
	N249	N	0.675272	0.042215	0.576303
	N250	N	0.319631	0.968435	0.576617
	N251	N	0.319005	0.042216	0.406179
	N252	N	0.909351	0.470592	0.175043
	N253	N	0.085173	0.542812	0.174028
	N254	N	0.084871	0.468812	0.813824
	N255	N	0.910498	0.541106	0.814012
	N256	N	0.177590	0.919191	0.455431
	N257	N	0.178946	0.092718	0.528499
	N258	N	0.816209	0.093412	0.455902
	N259	N	0.814679	0.916340	0.526022
	N260	N	0.458969	0.183601	0.906357
	N261	N	0.533390	0.183017	0.076273
	N262	N	0.458773	0.829611	0.075670
	N263	N	0.533625	0.828561	0.906954
	N264	N	0.460996	0.917058	0.174094
	N265	N	0.531272	0.095137	0.174167
	N266	N	0.460426	0.093947	0.809946
	N267	N	0.531360	0.917111	0.809176
	N268	N	0.911362	0.185786	0.456829
	N269	N	0.083142	0.183559	0.530577
	N270	N	0.083536	0.825795	0.455851
	N271	N	0.912086	0.827402	0.528703
	N272	N	0.174114	0.468066	0.909305
	N273	N	0.174306	0.543824	0.077976
	N274	N	0.817854	0.469319	0.080475
	N275	N	0.819581	0.542831	0.908820
	O276	O	0.339838	0.374598	0.526043
	H277	H	0.332237	0.357203	0.539835
	H278	H	0.334812	0.379739	0.528319
	O279	O	0.648835	0.397444	0.311382
	H280	H	0.657099	0.409509	0.302012
	H281	H	0.649594	0.420871	0.312601
	O282	O	0.468601	0.513228	0.378500
	H283	H	0.465026	0.523149	0.394750
	H284	H	0.473227	0.515505	0.388660
	O285	O	0.449395	-0.571725	-0.451445
	H286	H	0.459799	-0.574433	-0.443451
	H287	H	0.444412	-0.574292	-0.453840
	O288	O	0.616658	-0.373135	0.565534
	H289	H	0.614350	-0.383548	0.575870
	H290	H	0.616556	-0.369889	0.577377
	O291	O	0.351151	0.637626	0.555913
	H292	H	0.337431	0.650633	0.544749
	H293	H	0.345164	0.631609	0.526978
	O294	O	0.418194	0.594149	0.342115
	H295	H	0.430905	0.599989	0.351953
	H296	H	0.410012	0.594451	0.337437
	O297	O	0.819085	1.111375	0.900759
	H298	H	0.822906	1.114967	0.912958
	H299	H	0.803764	1.117934	0.898579
	O300	O	-0.511016	0.360749	0.337918
	H301	H	-0.517574	0.371972	0.333548
	H302	H	-0.509783	0.374672	0.339229
	O303	O	0.495089	0.560326	0.641540
	H304	H	0.480549	0.559233	0.629459
	H305	H	0.472187	0.549923	0.628891
	O306	O	0.802713	-0.064157	0.150024
	H307	H	0.802113	-0.080883	0.131126
	H308	H	0.815143	-0.080840	0.159620
	O309	O	1.194275	0.892389	-0.015901
	H310	H	1.185996	0.885988	-0.047825
	H311	H	1.214993	0.881552	-0.015311
	O312	O	0.628099	0.540771	-0.329941
	H313	H	0.623514	0.512199	-0.325981
	H314	H	0.624643	0.557943	-0.317981
	O315	O	0.514761	0.459853	0.474086
	H316	H	0.521268	0.457923	0.472353
	H317	H	0.513276	0.469329	0.483366
	O318	O	0.438938	0.443009	0.449276
	H319	H	0.430054	0.443126	0.449946
	H320	H	0.460669	0.432860	0.435638
	O321	O	1.156022	0.113764	1.175171
	H322	H	1.157233	0.114331	1.189487
	H323	H	1.158762	0.125129	1.178850
	O324	O	0.022507	-0.179939	1.040151
	H325	H	0.022617	-0.163730	1.034507
	H326	H	0.032120	-0.187837	1.010958
	O327	O	0.354983	0.491462	0.374990
	H328	H	0.365714	0.477116	0.374196
	H329	H	0.358524	0.488641	0.360670
	O330	O	0.671871	0.349080	0.504100
	H331	H	0.665945	0.341646	0.477075
	H332	H	0.681537	0.340932	0.490554
	O333	O	0.889638	0.842695	1.049000
	H334	H	0.894888	0.834164	1.034170
	H335	H	0.896281	0.854518	1.037082
	O336	O	0.467558	0.659930	0.672335
	H337	H	0.462179	0.655070	0.657124
	H338	H	0.478984	0.678913	0.678970
	O339	O	1.537040	-0.494836	1.487022
	H340	H	1.539292	-0.507577	1.487971
	H341	H	1.550977	-0.485728	1.493597
	O342	O	-0.054155	1.097642	0.910771
	H343	H	-0.057684	1.083846	0.921017
	H344	H	-0.048676	1.101339	0.901285
	O345	O	0.005950	1.041588	1.023269
	H346	H	0.010859	1.047428	1.029426
	H347	H	-0.021184	1.054575	1.026732
	O348	O	1.061306	0.814059	0.855104
	H349	H	1.063674	0.796976	0.834232
	H350	H	1.059163	0.835289	0.843903
	O351	O	-0.047017	-0.097658	0.181857
	H352	H	-0.050905	-0.107884	0.199600
	H353	H	-0.029772	-0.099725	0.154777
	O354	O	0.969320	1.005613	0.122699
	H355	H	0.957067	0.991526	0.129142
	H356	H	0.981697	0.979243	0.127311
	O357	O	-0.024375	1.002168	-0.143840
	H358	H	-0.015770	1.020219	-0.130173
	H359	H	-0.025253	0.999969	-0.160143
	O360	O	0.695830	0.546838	0.631350
	H361	H	0.681243	0.532435	0.621495
	H362	H	0.720686	0.541934	0.626450
	O363	O	0.642451	0.662592	0.444980
	H364	H	0.636571	0.664253	0.468089
	H365	H	0.652575	0.675268	0.456688
	O366	O	1.066995	0.902342	1.141023
	H367	H	1.090150	0.895370	1.119565
	H368	H	1.056790	0.900219	1.141251
	O369	O	0.086368	-0.179913	0.846228
	H370	H	0.082462	-0.180842	0.840952
	H371	H	0.095435	-0.177571	0.831933
	O372	O	0.036208	1.148842	-0.145885
	H373	H	0.025854	1.144496	-0.133678
	H374	H	0.039195	1.165264	-0.145377
	O375	O	0.475616	0.693578	0.383082
	H376	H	0.479476	0.696884	0.394606
	H377	H	0.489960	0.695628	0.369906
	O378	O	0.629458	0.393167	0.353912
	H379	H	0.609279	0.383160	0.351082
	H380	H	0.633327	0.420000	0.355304
	O381	O	0.339423	0.325978	0.585261
	H382	H	0.333127	0.327647	0.592510
	H383	H	0.352966	0.324669	0.587157
	O384	O	-0.116748	0.943967	1.038466
	H385	H	-0.087063	0.942347	1.025883
	H386	H	-0.109257	0.943162	1.023259
	O387	O	0.824739	1.068562	-0.020348
	H388	H	0.830996	1.060733	-0.019314
	H389	H	0.817893	1.068275	0.010358
	O390	O	0.863446	-0.736438	1.078433
	H391	H	0.861969	-0.718945	1.086680
	H392	H	0.878701	-0.744220	1.085041
	O393	O	1.465412	0.420390	1.623927
	H394	H	1.467639	0.429021	1.627680
	H395	H	1.470009	0.421623	1.610022
	O396	O	-0.013071	1.117927	1.082994
	H397	H	-0.031245	1.117715	1.080884
	H398	H	-0.014541	1.102578	1.083096
	O399	O	0.597214	0.652498	0.679078
	H400	H	0.595693	0.652837	0.685217
	H401	H	0.594834	0.641890	0.691620
	O402	O	0.861380	0.073470	1.135641
	H403	H	0.852153	0.047953	1.138999
	H404	H	0.860245	0.062685	1.144011
	O405	O	0.042754	-0.031706	-0.090446
	H406	H	0.043903	-0.019492	-0.103178
	H407	H	0.046329	-0.007104	-0.081494
	O408	O	0.956580	1.175061	0.920744
	H409	H	0.963534	1.179039	0.927435
	H410	H	0.965352	1.186875	0.923089
	O411	O	1.165806	0.943146	-0.054744
	H412	H	1.160048	0.953174	-0.057680
	H413	H	1.162558	0.951061	-0.056248
	O414	O	0.125370	0.165713	1.049991
	H415	H	0.127578	0.159594	1.071650
	H416	H	0.120245	0.162486	1.061483
	O417	O	0.455488	0.639120	0.445804
	H418	H	0.451109	0.645840	0.452886
	H419	H	0.461457	0.626212	0.448423
	O420	O	0.096508	1.094011	-0.104089
	H421	H	0.094879	1.101084	-0.104022
	H422	H	0.093156	1.100070	-0.082591
	O423	O	0.996928	0.020887	-0.202797
	H424	H	0.982645	0.030619	-0.209941
	H425	H	1.006837	0.038480	-0.176827
	O426	O	-0.613454	-0.447338	0.572573
	H427	H	-0.612231	-0.439680	0.563655
	H428	H	-0.626441	-0.454258	0.559637
	O429	O	0.461314	0.405582	0.375790
	H430	H	0.453727	0.412445	0.359178
	H431	H	0.479452	0.382573	0.374344
