data_Molecule from HDF5

_cell_length_a		16.630901
_cell_length_b		16.149252
_cell_length_c		16.289078
_cell_angle_alpha	89.777024
_cell_angle_beta	90.353159
_cell_angle_gamma	89.961596
_symmetry_space_group_name_H-M	'P 1'
_symmetry_Int_Tables_number		1

loop_
	_symmetry_equiv_pos_as_xyz
	x,y,z

loop_
	_atom_site_label
	_atom_site_type_symbol
	_atom_site_fract_x
	_atom_site_fract_y
	_atom_site_fract_z
	H0	H	0.403595	0.831703	0.703500
	H1	H	0.599975	0.159609	0.706696
	H2	H	0.599456	0.834206	0.277624
	H3	H	0.395990	0.158233	0.270650
	H4	H	0.720209	0.388430	0.826448
	H5	H	0.723018	0.596816	0.147043
	H6	H	0.279833	0.600939	0.827677
	H7	H	0.276955	0.382831	0.144912
	H8	H	0.842454	0.711611	0.389041
	H9	H	0.163378	0.711769	0.588594
	H10	H	0.842889	0.277405	0.589114
	H11	H	0.159898	0.274795	0.386218
	H12	H	0.843344	0.391585	0.706111
	H13	H	0.161821	0.597143	0.708066
	H14	H	0.843547	0.597499	0.267041
	H15	H	0.159676	0.388589	0.266201
	H16	H	0.401346	0.711888	0.825416
	H17	H	0.599344	0.705570	0.151880
	H18	H	0.599153	0.278578	0.825775
	H19	H	0.403711	0.279282	0.151247
	H20	H	0.720018	0.836707	0.389109
	H21	H	0.722955	0.157439	0.601201
	H22	H	0.279462	0.835804	0.599041
	H23	H	0.277535	0.156108	0.381795
	H24	H	0.900494	0.333087	0.206068
	H25	H	0.103910	0.658629	0.200842
	H26	H	0.101042	0.331332	0.771297
	H27	H	0.904360	0.659034	0.772765
	H28	H	0.226390	0.886148	0.332322
	H29	H	0.224225	0.105385	0.648618
	H30	H	0.773723	0.108417	0.333567
	H31	H	0.784174	0.890153	0.651609
	H32	H	0.342431	0.216025	0.885200
	H33	H	0.659021	0.216118	0.095449
	H34	H	0.342652	0.772098	0.092937
	H35	H	0.660068	0.778366	0.889695
	H36	H	0.342788	0.888018	0.212247
	H37	H	0.657121	0.101510	0.214546
	H38	H	0.342441	0.101073	0.766824
	H39	H	0.657785	0.890508	0.769640
	H40	H	0.898191	0.214235	0.327403
	H41	H	0.101889	0.214192	0.650910
	H42	H	0.101146	0.781826	0.326089
	H43	H	0.905671	0.779150	0.652040
	H44	H	0.225287	0.335333	0.876122
	H45	H	0.224250	0.653950	0.092510
	H46	H	0.782058	0.334126	0.093151
	H47	H	0.782386	0.656290	0.880536
	H48	H	0.411003	0.111557	0.577867
	H49	H	0.588120	0.879996	0.584555
	H50	H	0.587613	0.114198	0.399290
	H51	H	0.404676	0.878363	0.402153
	H52	H	0.592512	0.408523	0.101164
	H53	H	0.592974	0.585041	0.872265
	H54	H	0.413899	0.586411	0.103539
	H55	H	0.416897	0.412383	0.876757
	H56	H	0.116767	0.581261	0.387927
	H57	H	0.888290	0.589254	0.584012
	H58	H	0.114123	0.403134	0.578234
	H59	H	0.891243	0.405877	0.399592
	H60	H	0.113120	0.408432	0.577983
	H61	H	0.889861	0.590752	0.576112
	H62	H	0.118984	0.596765	0.392032
	H63	H	0.891456	0.411262	0.393664
	H64	H	0.404843	0.579370	0.103641
	H65	H	0.593129	0.588070	0.870942
	H66	H	0.596146	0.404671	0.104285
	H67	H	0.412521	0.401019	0.871636
	H68	H	0.585688	0.111050	0.406889
	H69	H	0.593271	0.883421	0.572517
	H70	H	0.409586	0.111540	0.575655
	H71	H	0.415497	0.880543	0.399478
	H72	H	0.917228	0.609276	0.073954
	H73	H	0.089486	0.377356	0.081318
	H74	H	0.091689	0.608735	0.903750
	H75	H	0.908679	0.377495	0.898432
	H76	H	0.094190	0.905754	0.604574
	H77	H	0.090463	0.079834	0.377134
	H78	H	0.915298	0.090546	0.605271
	H79	H	0.906331	0.900247	0.372309
	H80	H	0.612211	0.086550	0.903500
	H81	H	0.391268	0.080664	0.078606
	H82	H	0.609523	0.911651	0.083022
	H83	H	0.385522	0.897978	0.896028
	H84	H	0.615586	0.901681	0.090722
	H85	H	0.386735	0.085624	0.083540
	H86	H	0.611759	0.080886	0.897717
	H87	H	0.389827	0.905642	0.903447
	H88	H	0.904518	0.084831	0.606684
	H89	H	0.088280	0.083440	0.376804
	H90	H	0.092859	0.908852	0.603289
	H91	H	0.899842	0.913270	0.374631
	H92	H	0.095323	0.612107	0.897408
	H93	H	0.084729	0.382408	0.071147
	H94	H	0.907863	0.609669	0.067655
	H95	H	0.906713	0.376647	0.895725
	H96	H	0.409046	0.113429	0.578379
	H97	H	0.600947	0.878066	0.582044
	H98	H	0.592864	0.114002	0.405713
	H99	H	0.411983	0.883416	0.409722
	H100	H	0.597860	0.410427	0.102071
	H101	H	0.595877	0.585796	0.871053
	H102	H	0.414808	0.575891	0.098839
	H103	H	0.404393	0.411255	0.872582
	H104	H	0.112845	0.586292	0.402327
	H105	H	0.891680	0.582642	0.579514
	H106	H	0.115469	0.406442	0.582674
	H107	H	0.887603	0.404540	0.392604
	H108	H	0.907595	0.613048	0.078245
	H109	H	0.096132	0.378241	0.070840
	H110	H	0.088251	0.609308	0.896341
	H111	H	0.909655	0.377453	0.895233
	H112	H	0.090533	0.906146	0.603974
	H113	H	0.091838	0.082893	0.375387
	H114	H	0.913809	0.078949	0.600884
	H115	H	0.914290	0.912397	0.377731
	H116	H	0.614597	0.088618	0.895494
	H117	H	0.388795	0.088496	0.075822
	H118	H	0.611993	0.899216	0.077402
	H119	H	0.387308	0.908598	0.892748
	C120	C	0.379990	0.004771	0.609997
	C121	C	0.623293	0.987729	0.612511
	C122	C	0.620167	0.006371	0.372376
	C123	C	0.378743	0.987221	0.370220
	C124	C	0.624253	0.374661	-0.004047
	C125	C	0.623912	0.615735	0.978331
	C126	C	0.380278	0.614016	-0.004109
	C127	C	0.380441	0.374647	0.979313
	C128	C	0.010857	0.618557	0.364100
	C129	C	0.995236	0.617349	0.609957
	C130	C	0.009624	0.374548	0.609760
	C131	C	0.994150	0.374294	0.365170
	C132	C	0.880938	0.503629	0.106099
	C133	C	0.122448	0.485659	0.106800
	C134	C	0.122278	0.503014	0.867030
	C135	C	0.879314	0.485530	0.865410
	C136	C	0.123567	0.875005	0.498051
	C137	C	0.122269	0.116338	0.481497
	C138	C	0.878646	0.118120	0.498675
	C139	C	0.878929	0.875880	0.481397
	C140	C	0.508671	0.117503	0.866900
	C141	C	0.492645	0.117631	0.112231
	C142	C	0.508265	0.872199	0.113848
	C143	C	0.492360	0.873432	0.867512
	C144	C	0.382197	0.881609	0.666981
	C145	C	0.621140	0.110378	0.669620
	C146	C	0.619968	0.883523	0.315114
	C147	C	0.377157	0.109177	0.310016
	C148	C	0.680781	0.371228	0.874594
	C149	C	0.682367	0.615396	0.099635
	C150	C	0.320616	0.617887	0.875309
	C151	C	0.319588	0.368334	0.098811
	C152	C	0.890527	0.674139	0.367237
	C153	C	0.115333	0.673424	0.608554
	C154	C	0.890547	0.316395	0.608929
	C155	C	0.112665	0.314207	0.365960
	C156	C	0.890691	0.373455	0.667223
	C157	C	0.114637	0.616350	0.668093
	C158	C	0.890856	0.617243	0.307018
	C159	C	0.112566	0.371268	0.306480
	C160	C	0.381076	0.673120	0.874215
	C161	C	0.621014	0.669321	0.102019
	C162	C	0.620496	0.316420	0.874553
	C163	C	0.382350	0.316544	0.101802
	C164	C	0.679911	0.884858	0.370145
	C165	C	0.682376	0.109313	0.616916
	C166	C	0.320574	0.883429	0.614651
	C167	C	0.318373	0.108274	0.365495
	C168	C	0.881074	0.381685	0.166226
	C169	C	0.123353	0.608707	0.164015
	C170	C	0.121625	0.380588	0.808810
	C171	C	0.882167	0.609279	0.809248
	C172	C	0.184586	0.870624	0.378989
	C173	C	0.183011	0.121615	0.601212
	C174	C	0.815897	0.123926	0.379989
	C175	C	0.823365	0.873133	0.603185
	C176	C	0.389831	0.177009	0.865714
	C177	C	0.611244	0.176787	0.114079
	C178	C	0.389918	0.812152	0.113041
	C179	C	0.612140	0.816412	0.869473
	C180	C	0.389942	0.869788	0.172448
	C181	C	0.610520	0.119716	0.173499
	C182	C	0.390050	0.119393	0.806817
	C183	C	0.610798	0.872374	0.809502
	C184	C	0.877754	0.176867	0.377088
	C185	C	0.122150	0.175926	0.602359
	C186	C	0.122400	0.818318	0.375817
	C187	C	0.883644	0.817340	0.603179
	C188	C	0.183185	0.382341	0.861311
	C189	C	0.183220	0.606600	0.109842
	C190	C	0.822212	0.382038	0.110013
	C191	C	0.821524	0.607733	0.862678
	C192	C	0.403015	0.089999	0.584463
	C193	C	0.600732	0.902576	0.587083
	C194	C	0.595842	0.091085	0.396829
	C195	C	0.403554	0.902819	0.396402
	C196	C	0.602094	0.400270	0.080512
	C197	C	0.600804	0.592956	0.893547
	C198	C	0.404193	0.587926	0.080028
	C199	C	0.404126	0.400702	0.895439
	C200	C	0.094406	0.595005	0.387206
	C201	C	0.911611	0.594374	0.586646
	C202	C	0.092788	0.398901	0.586425
	C203	C	0.911560	0.399802	0.388559
	C204	C	0.904226	0.588511	0.080647
	C205	C	0.097513	0.401581	0.081639
	C206	C	0.098680	0.587804	0.892146
	C207	C	0.901829	0.399835	0.889411
	C208	C	0.099465	0.899783	0.582108
	C209	C	0.097323	0.089754	0.398242
	C210	C	0.903936	0.092152	0.582533
	C211	C	0.900419	0.901378	0.396860
	C212	C	0.591358	0.092558	0.891833
	C213	C	0.410387	0.092143	0.086777
	C214	C	0.590808	0.896977	0.090497
	C215	C	0.409256	0.897235	0.890780
	Zn216	Zn	0.500648	-0.004488	0.737670
	Zn217	Zn	0.499419	-0.003602	0.243125
	Zn218	Zn	0.752742	0.494537	-0.014195
	Zn219	Zn	0.250085	0.493029	-0.013195
	Zn220	Zn	0.002493	0.747865	0.488309
	Zn221	Zn	0.001324	0.245056	0.488398
	Zn222	Zn	0.002001	0.494967	0.739644
	Zn223	Zn	0.002655	0.495436	0.234153
	Zn224	Zn	0.501140	0.743559	-0.010881
	Zn225	Zn	0.501368	0.247115	-0.010778
	Zn226	Zn	0.749822	-0.001960	0.492146
	Zn227	Zn	0.251488	-0.004339	0.490917
	N228	N	0.418414	0.958020	0.664050
	N229	N	0.585355	0.033875	0.667139
	N230	N	0.583732	0.960071	0.316091
	N231	N	0.413974	0.033009	0.312690
	N232	N	0.683202	0.406519	0.951271
	N233	N	0.684537	0.583194	0.021623
	N234	N	0.320060	0.581848	0.951930
	N235	N	0.318237	0.403605	0.021798
	N236	N	0.966243	0.675537	0.401410
	N237	N	0.040056	0.674008	0.572956
	N238	N	0.965473	0.316924	0.573973
	N239	N	0.038171	0.316142	0.401782
	N240	N	0.965854	0.409034	0.667814
	N241	N	0.038913	0.582103	0.669022
	N242	N	0.967034	0.584136	0.304481
	N243	N	0.037752	0.407760	0.305749
	N244	N	0.417529	0.670997	0.950236
	N245	N	0.585586	0.670170	0.025554
	N246	N	0.586096	0.318452	0.951138
	N247	N	0.419394	0.320337	0.026603
	N248	N	0.680408	0.962331	0.404580
	N249	N	0.683760	0.031819	0.581895
	N250	N	0.318984	0.961098	0.579874
	N251	N	0.318935	0.031369	0.401921
	N252	N	0.917179	0.458250	0.163854
	N253	N	0.086453	0.532424	0.162516
	N254	N	0.084121	0.456359	0.812617
	N255	N	0.917129	0.532122	0.810392
	N256	N	0.185377	0.905118	0.456144
	N257	N	0.183012	0.084887	0.525353
	N258	N	0.816304	0.088100	0.456718
	N259	N	0.820268	0.908927	0.526511
	N260	N	0.464444	0.176130	0.902385
	N261	N	0.537057	0.175433	0.076507
	N262	N	0.464528	0.813348	0.077420
	N263	N	0.537499	0.816950	0.904903
	N264	N	0.464517	0.906430	0.173251
	N265	N	0.535702	0.083589	0.172309
	N266	N	0.465050	0.083352	0.807387
	N267	N	0.535300	0.907020	0.808147
	N268	N	0.916113	0.173318	0.451892
	N269	N	0.084890	0.172873	0.526876
	N270	N	0.085171	0.820987	0.450807
	N271	N	0.917493	0.818713	0.526354
	N272	N	0.183557	0.459394	0.896999
	N273	N	0.182908	0.529161	0.075060
	N274	N	0.822196	0.458730	0.073116
	N275	N	0.819563	0.529638	0.896683
	O276	O	0.518392	0.481887	0.584445
	H277	H	0.501567	0.472182	0.577331
	H278	H	0.521921	0.495299	0.604256
	O279	O	0.590093	0.671988	0.609324
	H280	H	0.604979	0.668646	0.626290
	H281	H	0.591723	0.677995	0.611308
	O282	O	0.457648	0.453270	0.412649
	H283	H	0.453276	0.450079	0.407948
	H284	H	0.451546	0.458930	0.422415
	O285	O	0.989895	0.184806	0.086659
	H286	H	0.989875	0.181503	0.078498
	H287	H	0.985603	0.197676	0.072310
	O288	O	-0.066403	-0.122049	0.988831
	H289	H	-0.055904	-0.097185	0.991563
	H290	H	-0.087445	-0.139870	1.017086
	O291	O	0.642417	0.568011	0.466380
	H292	H	0.648998	0.565313	0.486466
	H293	H	0.646078	0.568047	0.483516
	O294	O	0.420466	0.489717	0.481647
	H295	H	0.401867	0.499761	0.477127
	H296	H	0.419787	0.484078	0.468505
	O297	O	1.183455	1.180423	1.168089
	H298	H	1.155310	1.172204	1.170539
	H299	H	1.190679	1.144444	1.160937
	O300	O	-0.692338	0.596887	0.341072
	H301	H	-0.689396	0.602306	0.321821
	H302	H	-0.693582	0.611202	0.341613
	O303	O	0.465975	0.608797	0.619193
	H304	H	0.481656	0.607322	0.612660
	H305	H	0.465337	0.611606	0.628018
	O306	O	0.964620	0.066503	0.112731
	H307	H	0.958792	0.072837	0.114916
	H308	H	0.977048	0.068911	0.117212
	O309	O	0.441797	0.366518	0.595896
	H310	H	0.424158	0.363287	0.591246
	H311	H	0.431361	0.355136	0.601959
	O312	O	0.811010	1.131959	-0.059174
	H313	H	0.804465	1.117686	-0.071597
	H314	H	0.801111	1.150384	-0.057040
	O315	O	0.485699	0.571855	0.458748
	H316	H	0.491295	0.572654	0.461324
	H317	H	0.487765	0.565774	0.457205
	O318	O	0.542461	0.595048	0.366036
	H319	H	0.550240	0.608567	0.373298
	H320	H	0.544811	0.597103	0.373390
	O321	O	1.164530	-0.091172	1.074777
	H322	H	1.155836	-0.084628	1.060464
	H323	H	1.157518	-0.069015	1.085399
	O324	O	0.187592	-0.197399	0.850505
	H325	H	0.188553	-0.171762	0.834915
	H326	H	0.193654	-0.202209	0.868872
	O327	O	0.339599	0.628951	0.490818
	H328	H	0.340846	0.641962	0.484979
	H329	H	0.342084	0.631393	0.479588
	O330	O	0.479278	0.450000	0.337956
	H331	H	0.471013	0.459541	0.343814
	H332	H	0.476246	0.433512	0.345978
	O333	O	0.940062	0.981776	0.933479
	H334	H	0.948080	0.973401	0.957902
	H335	H	0.942350	0.965669	0.942391
	O336	O	0.652675	0.439493	0.456099
	H337	H	0.642961	0.444434	0.445387
	H338	H	0.646441	0.438391	0.456500
	O339	O	1.160402	0.126299	0.962714
	H340	H	1.172678	0.136598	0.968699
	H341	H	1.150987	0.120517	0.959807
	O342	O	-0.037821	0.777340	1.205301
	H343	H	-0.066633	0.762432	1.215710
	H344	H	-0.054287	0.757790	1.220135
	O345	O	-0.076879	1.087766	0.804951
	H346	H	-0.094940	1.062851	0.796381
	H347	H	-0.069749	1.082068	0.805736
	O348	O	0.841065	0.867147	0.850484
	H349	H	0.849368	0.859864	0.853160
	H350	H	0.831905	0.857951	0.857750
	O351	O	0.108697	-0.076158	-0.178349
	H352	H	0.119189	-0.068074	-0.200318
	H353	H	0.105987	-0.066431	-0.177643
	O354	O	1.042281	0.911104	0.051462
	H355	H	1.047827	0.922322	0.055088
	H356	H	1.032556	0.901506	0.050312
	O357	O	-0.023818	0.817851	-0.084439
	H358	H	-0.019485	0.816897	-0.059611
	H359	H	-0.022696	0.816042	-0.078819
	O360	O	0.461884	0.636532	0.339104
	H361	H	0.479675	0.635868	0.344094
	H362	H	0.453248	0.630185	0.359731
	O363	O	0.500065	0.363601	0.449703
	H364	H	0.501507	0.362219	0.453558
	H365	H	0.489945	0.369081	0.454225
	O366	O	0.681943	0.686903	0.725144
	H367	H	0.680148	0.699223	0.737706
	H368	H	0.681975	0.688737	0.724451
	O369	O	0.522003	0.406311	0.584969
	H370	H	0.525006	0.408789	0.585459
	H371	H	0.510111	0.408728	0.576320
	O372	O	0.573542	0.517424	0.535595
	H373	H	0.576682	0.512923	0.551561
	H374	H	0.577798	0.508574	0.539514
	O375	O	0.389685	0.390707	0.442686
	H376	H	0.378834	0.383359	0.432384
	H377	H	0.389032	0.393658	0.449288
	O378	O	0.665539	0.665292	0.312551
	H379	H	0.653891	0.644226	0.325178
	H380	H	0.653868	0.653427	0.340239
	O381	O	0.481537	0.467236	0.499299
	H382	H	0.470842	0.459964	0.503034
	H383	H	0.482552	0.474719	0.492745
	O384	O	0.030387	1.153302	0.789612
	H385	H	0.012071	1.143004	0.800053
	H386	H	0.029112	1.179192	0.785204
	O387	O	0.781157	0.911249	0.035372
	H388	H	0.772752	0.902774	0.059741
	H389	H	0.785960	0.900873	0.047387
	O390	O	-0.131876	0.014232	1.199776
	H391	H	-0.119465	0.022301	1.195150
	H392	H	-0.131347	0.034007	1.193978
	O393	O	1.109502	0.056913	1.187190
	H394	H	1.113738	0.058936	1.189335
	H395	H	1.095719	0.041556	1.190594
	O396	O	-0.033265	1.125117	0.950991
	H397	H	-0.034093	1.133892	0.934682
	H398	H	-0.038377	1.116499	0.956655
	O399	O	0.537765	0.480602	0.416991
	H400	H	0.528449	0.468974	0.414340
	H401	H	0.540541	0.486797	0.404097
	O402	O	1.077861	-0.166608	0.969059
	H403	H	1.084532	-0.141066	0.986240
	H404	H	1.084326	-0.175535	0.958161
	O405	O	-0.096873	-0.065954	-0.075276
	H406	H	-0.095636	-0.078101	-0.079117
	H407	H	-0.097760	-0.069051	-0.069619
	O408	O	1.082978	0.877381	0.833767
	H409	H	1.073080	0.867924	0.823041
	H410	H	1.107514	0.868217	0.845764
	O411	O	0.791285	0.858031	0.192983
	H412	H	0.769691	0.856803	0.219259
	H413	H	0.798683	0.888134	0.194896
	O414	O	-0.201647	0.193105	0.938899
	H415	H	-0.201417	0.191925	0.933320
	H416	H	-0.212220	0.192325	0.921239
	O417	O	0.634381	0.410786	0.519073
	H418	H	0.654895	0.397142	0.515527
	H419	H	0.627176	0.415185	0.502326
	O420	O	0.016302	1.128964	-0.105551
	H421	H	0.026798	1.150780	-0.108029
	H422	H	0.004259	1.119777	-0.072464
	O423	O	0.997646	-0.047471	0.130599
	H424	H	0.985960	-0.070838	0.143911
	H425	H	0.984981	-0.044154	0.118152
	O426	O	0.212982	0.027289	1.063755
	H427	H	0.207762	0.013014	1.065278
	H428	H	0.223342	0.009945	1.054242
	O429	O	0.558480	0.422197	0.513831
	H430	H	0.555442	0.410408	0.510218
	H431	H	0.548331	0.414378	0.526714
