data_Molecule from HDF5

_cell_length_a		16.622678
_cell_length_b		16.500312
_cell_length_c		16.813159
_cell_angle_alpha	90.001410
_cell_angle_beta	90.085503
_cell_angle_gamma	90.005106
_symmetry_space_group_name_H-M	'P 1'
_symmetry_Int_Tables_number		1

loop_
	_symmetry_equiv_pos_as_xyz
	x,y,z

loop_
	_atom_site_label
	_atom_site_type_symbol
	_atom_site_fract_x
	_atom_site_fract_y
	_atom_site_fract_z
	H0	H	0.409411	0.836094	0.730609
	H1	H	0.622752	0.146782	0.725086
	H2	H	0.625679	0.833365	0.285249
	H3	H	0.412960	0.145207	0.284262
	H4	H	0.739689	0.386747	0.850647
	H5	H	0.743576	0.595317	0.159135
	H6	H	0.298389	0.595622	0.851474
	H7	H	0.304282	0.391521	0.161768
	H8	H	0.862682	0.709010	0.403342
	H9	H	0.175385	0.709821	0.606963
	H10	H	0.863524	0.272520	0.606513
	H11	H	0.175454	0.269102	0.400682
	H12	H	0.864793	0.384500	0.725974
	H13	H	0.174863	0.595654	0.725494
	H14	H	0.865642	0.598443	0.281809
	H15	H	0.175007	0.383749	0.283365
	H16	H	0.416385	0.711546	0.851492
	H17	H	0.626987	0.712683	0.159280
	H18	H	0.620600	0.271561	0.849419
	H19	H	0.422214	0.274596	0.162375
	H20	H	0.738528	0.832984	0.404075
	H21	H	0.733880	0.149786	0.604983
	H22	H	0.295833	0.835025	0.612697
	H23	H	0.298290	0.145317	0.399776
	H24	H	0.909804	0.337579	0.231718
	H25	H	0.126539	0.647355	0.225995
	H26	H	0.121768	0.332289	0.788195
	H27	H	0.910848	0.645747	0.782379
	H28	H	0.245567	0.879286	0.354726
	H29	H	0.247978	0.101147	0.655288
	H30	H	0.798584	0.095100	0.351339
	H31	H	0.798056	0.886448	0.659515
	H32	H	0.362388	0.206531	0.904588
	H33	H	0.676824	0.208097	0.107755
	H34	H	0.365147	0.769453	0.107462
	H35	H	0.677126	0.768943	0.900702
	H36	H	0.367019	0.879904	0.228367
	H37	H	0.675317	0.095493	0.226814
	H38	H	0.366247	0.095854	0.783034
	H39	H	0.674555	0.881020	0.781368
	H40	H	0.916595	0.211744	0.351313
	H41	H	0.128395	0.214970	0.657543
	H42	H	0.126763	0.765881	0.353862
	H43	H	0.914449	0.769106	0.659474
	H44	H	0.234540	0.330997	0.906497
	H45	H	0.239975	0.647594	0.109278
	H46	H	0.799726	0.333666	0.110361
	H47	H	0.797972	0.646349	0.899746
	H48	H	0.432980	0.101906	0.597123
	H49	H	0.608965	0.875662	0.597991
	H50	H	0.608181	0.102601	0.414674
	H51	H	0.433133	0.878703	0.417562
	H52	H	0.608862	0.400150	0.115459
	H53	H	0.609226	0.576701	0.896758
	H54	H	0.428182	0.579460	0.115914
	H55	H	0.433056	0.396462	0.894729
	H56	H	0.129777	0.577814	0.419714
	H57	H	0.905232	0.574403	0.604148
	H58	H	0.135065	0.400773	0.603322
	H59	H	0.909028	0.406988	0.412305
	H60	H	0.132971	0.396953	0.592914
	H61	H	0.904587	0.588116	0.593596
	H62	H	0.130648	0.574979	0.413118
	H63	H	0.907710	0.397936	0.415729
	H64	H	0.431936	0.577068	0.114467
	H65	H	0.607245	0.577181	0.897127
	H66	H	0.611529	0.396091	0.117041
	H67	H	0.422587	0.391701	0.890291
	H68	H	0.610021	0.103988	0.414178
	H69	H	0.606615	0.878073	0.594884
	H70	H	0.438044	0.098306	0.592559
	H71	H	0.434237	0.878076	0.417569
	H72	H	0.937609	0.600453	0.092451
	H73	H	0.113656	0.374706	0.100505
	H74	H	0.113225	0.605108	0.913251
	H75	H	0.929807	0.376564	0.911367
	H76	H	0.110721	0.908242	0.614339
	H77	H	0.105649	0.076383	0.397540
	H78	H	0.924964	0.074979	0.615410
	H79	H	0.929616	0.897101	0.394204
	H80	H	0.633468	0.081920	0.913656
	H81	H	0.406119	0.083390	0.098862
	H82	H	0.630963	0.902273	0.093248
	H83	H	0.415535	0.908077	0.924425
	H84	H	0.630589	0.905515	0.095574
	H85	H	0.408919	0.079113	0.092664
	H86	H	0.631409	0.078460	0.916486
	H87	H	0.409870	0.907315	0.908638
	H88	H	0.933594	0.083571	0.615729
	H89	H	0.107562	0.078125	0.395739
	H90	H	0.102279	0.905480	0.612277
	H91	H	0.924504	0.900421	0.392649
	H92	H	0.108097	0.604075	0.911464
	H93	H	0.103726	0.379189	0.098463
	H94	H	0.933478	0.600378	0.088730
	H95	H	0.935605	0.380046	0.914056
	H96	H	0.430996	0.101019	0.590065
	H97	H	0.610897	0.876656	0.593802
	H98	H	0.608002	0.103369	0.412715
	H99	H	0.433703	0.878225	0.418456
	H100	H	0.613584	0.400901	0.117033
	H101	H	0.608808	0.578926	0.896115
	H102	H	0.432573	0.580894	0.115767
	H103	H	0.422641	0.403508	0.893550
	H104	H	0.133003	0.582321	0.414613
	H105	H	0.911801	0.573265	0.588219
	H106	H	0.129442	0.407624	0.596563
	H107	H	0.911332	0.404937	0.421277
	H108	H	0.932647	0.601811	0.093919
	H109	H	0.111879	0.379843	0.090712
	H110	H	0.109215	0.602602	0.916422
	H111	H	0.929677	0.378021	0.918109
	H112	H	0.107685	0.899456	0.615772
	H113	H	0.108182	0.075526	0.397017
	H114	H	0.922180	0.085860	0.619682
	H115	H	0.929285	0.903377	0.395739
	H116	H	0.632356	0.077207	0.911415
	H117	H	0.407820	0.075477	0.100019
	H118	H	0.633071	0.902305	0.096558
	H119	H	0.407900	0.893777	0.918837
	C120	C	0.399290	-0.001779	0.626452
	C121	C	0.639880	0.981441	0.626292
	C122	C	0.640575	-0.000958	0.383895
	C123	C	0.400102	0.980990	0.384920
	C124	C	0.642058	0.367750	0.013909
	C125	C	0.642101	0.610976	0.997789
	C126	C	0.398737	0.611474	0.013562
	C127	C	0.397910	0.368267	0.996562
	C128	C	0.027932	0.611268	0.384259
	C129	C	1.010102	0.611175	0.626860
	C130	C	0.028924	0.369431	0.627308
	C131	C	1.012000	0.370137	0.384303
	C132	C	0.900519	0.498526	0.125232
	C133	C	0.141395	0.481828	0.127395
	C134	C	0.140159	0.498768	0.884527
	C135	C	0.898465	0.481538	0.882939
	C136	C	0.140415	0.869525	0.513701
	C137	C	0.141572	0.111329	0.496830
	C138	C	0.896922	0.112935	0.514433
	C139	C	0.896619	0.868722	0.496724
	C140	C	0.528705	0.110534	0.884017
	C141	C	0.511219	0.111011	0.127815
	C142	C	0.529242	0.869464	0.126496
	C143	C	0.513190	0.869346	0.884327
	C144	C	0.393055	0.882186	0.689069
	C145	C	0.640946	0.100072	0.684779
	C146	C	0.643363	0.880519	0.325329
	C147	C	0.395610	0.098087	0.324122
	C148	C	0.699677	0.367821	0.896735
	C149	C	0.702842	0.613513	0.113378
	C150	C	0.338840	0.613908	0.897616
	C151	C	0.342611	0.370542	0.114986
	C152	C	0.910257	0.670454	0.383479
	C153	C	0.128268	0.670459	0.626860
	C154	C	0.911000	0.311012	0.626558
	C155	C	0.128876	0.309321	0.382205
	C156	C	0.911627	0.366996	0.685826
	C157	C	0.127989	0.614015	0.685754
	C158	C	0.911477	0.615015	0.323521
	C159	C	0.128426	0.366022	0.323770
	C160	C	0.397414	0.671546	0.897606
	C161	C	0.645013	0.671782	0.113304
	C162	C	0.640867	0.310375	0.896370
	C163	C	0.401300	0.313034	0.115360
	C164	C	0.699758	0.880286	0.383930
	C165	C	0.696171	0.101424	0.625278
	C166	C	0.336398	0.881922	0.630674
	C167	C	0.338715	0.098174	0.381787
	C168	C	0.894430	0.382839	0.188716
	C169	C	0.143821	0.600128	0.186062
	C170	C	0.140281	0.379668	0.827536
	C171	C	0.893863	0.598771	0.822437
	C172	C	0.203546	0.863182	0.400052
	C173	C	0.205452	0.117437	0.610501
	C174	C	0.838360	0.114259	0.397549
	C175	C	0.837422	0.867270	0.613103
	C176	C	0.410223	0.168200	0.884453
	C177	C	0.629452	0.169179	0.127552
	C178	C	0.412203	0.808625	0.127575
	C179	C	0.629859	0.808658	0.881996
	C180	C	0.413054	0.864025	0.187188
	C181	C	0.628510	0.113362	0.186901
	C182	C	0.411790	0.113107	0.824379
	C183	C	0.628578	0.864467	0.822553
	C184	C	0.897201	0.171585	0.397505
	C185	C	0.146145	0.173989	0.611508
	C186	C	0.144459	0.806640	0.399421
	C187	C	0.895510	0.809326	0.613061
	C188	C	0.196583	0.379095	0.886274
	C189	C	0.200435	0.600085	0.127945
	C190	C	0.839573	0.380939	0.128679
	C191	C	0.837651	0.598985	0.880955
	C192	C	0.426343	0.079377	0.600600
	C193	C	0.615763	0.898462	0.602297
	C194	C	0.615935	0.081805	0.407399
	C195	C	0.426201	0.899579	0.410497
	C196	C	0.618309	0.392062	0.095393
	C197	C	0.615992	0.585070	0.917588
	C198	C	0.423709	0.586239	0.094333
	C199	C	0.419889	0.390616	0.914547
	C200	C	0.109818	0.585652	0.408914
	C201	C	0.928498	0.585819	0.602712
	C202	C	0.111097	0.394394	0.603938
	C203	C	0.930658	0.395984	0.409239
	C204	C	0.927037	0.579646	0.099103
	C205	C	0.116776	0.399329	0.103578
	C206	C	0.116900	0.582192	0.907173
	C207	C	0.924182	0.399532	0.907752
	C208	C	0.114166	0.896721	0.593386
	C209	C	0.114634	0.084330	0.417298
	C210	C	0.920194	0.088552	0.595752
	C211	C	0.920791	0.893207	0.415434
	C212	C	0.610891	0.086160	0.907362
	C213	C	0.429047	0.086304	0.103931
	C214	C	0.610402	0.895836	0.101901
	C215	C	0.432100	0.895577	0.910097
	Zn216	Zn	0.520104	-0.010278	0.754690
	Zn217	Zn	0.519897	-0.010687	0.255687
	Zn218	Zn	0.771662	0.489650	0.005042
	Zn219	Zn	0.268802	0.490329	0.005469
	Zn220	Zn	0.019150	0.739898	0.505753
	Zn221	Zn	0.020308	0.241113	0.505269
	Zn222	Zn	0.019703	0.490837	0.755588
	Zn223	Zn	0.020017	0.491014	0.255019
	Zn224	Zn	0.521029	0.740703	0.005457
	Zn225	Zn	0.519697	0.238892	0.005417
	Zn226	Zn	0.767775	-0.008896	0.505509
	Zn227	Zn	0.270940	-0.010228	0.505313
	N228	N	0.431459	0.955740	0.686807
	N229	N	0.606848	0.024271	0.685621
	N230	N	0.607349	0.955314	0.325151
	N231	N	0.433032	0.024002	0.325553
	N232	N	0.701034	0.402252	0.971106
	N233	N	0.701358	0.576412	0.040310
	N234	N	0.339089	0.577719	0.971025
	N235	N	0.339891	0.403840	0.040175
	N236	N	0.983954	0.668474	0.420274
	N237	N	0.053975	0.669111	0.591022
	N238	N	0.985190	0.312215	0.590915
	N239	N	0.055357	0.311495	0.419263
	N240	N	0.986242	0.402396	0.686638
	N241	N	0.053486	0.578267	0.686365
	N242	N	0.985936	0.579145	0.323775
	N243	N	0.054583	0.403009	0.324662
	N244	N	0.434209	0.670172	0.970705
	N245	N	0.608135	0.670445	0.040492
	N246	N	0.606101	0.309919	0.970398
	N247	N	0.434511	0.310974	0.040702
	N248	N	0.698406	0.955221	0.419512
	N249	N	0.695984	0.026487	0.589800
	N250	N	0.340254	0.955061	0.592301
	N251	N	0.341075	0.024224	0.419013
	N252	N	0.931897	0.456854	0.186557
	N253	N	0.107839	0.525333	0.186058
	N254	N	0.106002	0.455339	0.826078
	N255	N	0.930911	0.524541	0.823316
	N256	N	0.201053	0.901890	0.472027
	N257	N	0.202558	0.079014	0.538260
	N258	N	0.837965	0.078572	0.471284
	N259	N	0.837864	0.903530	0.539603
	N260	N	0.483951	0.166940	0.920888
	N261	N	0.555324	0.168100	0.091440
	N262	N	0.485651	0.811545	0.090522
	N263	N	0.556843	0.811470	0.919661
	N264	N	0.486845	0.900932	0.186824
	N265	N	0.553833	0.078008	0.187361
	N266	N	0.486444	0.077626	0.824098
	N267	N	0.554683	0.901473	0.823690
	N268	N	0.932857	0.170911	0.471102
	N269	N	0.106825	0.170307	0.539785
	N270	N	0.105573	0.810630	0.471108
	N271	N	0.931526	0.809954	0.539661
	N272	N	0.196970	0.454415	0.920949
	N273	N	0.199268	0.525359	0.092149
	N274	N	0.843203	0.453929	0.089640
	N275	N	0.840250	0.524910	0.918015
	O276	O	0.186916	0.999088	-0.085621
	H277	H	0.189093	1.005967	-0.087413
	H278	H	0.186143	0.991759	-0.081627
	O279	O	-0.008964	0.821510	0.191438
	H280	H	-0.029756	0.807976	0.207933
	H281	H	-0.025850	0.819380	0.195483
	O282	O	0.934582	0.107464	1.060041
	H283	H	0.936983	0.113011	1.039534
	H284	H	0.926599	0.100700	1.043096
	O285	O	0.546295	0.713564	0.727081
	H286	H	0.562143	0.732529	0.749800
	H287	H	0.567363	0.723238	0.722337
	O288	O	0.338839	0.459729	0.433153
	H289	H	0.334728	0.454994	0.415640
	H290	H	0.352968	0.456952	0.430842
	O291	O	0.456474	0.540881	0.741899
	H292	H	0.439367	0.563771	0.742505
	H293	H	0.460289	0.547180	0.742201
	O294	O	1.177511	-0.136381	1.069881
	H295	H	1.174383	-0.128671	1.056747
	H296	H	1.165038	-0.131093	1.078357
	O297	O	0.051456	1.183693	0.193899
	H298	H	0.043776	1.202827	0.202224
	H299	H	0.039724	1.174918	0.179248
	O300	O	0.200580	0.115458	0.829329
	H301	H	0.189491	0.096348	0.845939
	H302	H	0.197064	0.091460	0.842723
	O303	O	0.747833	0.473517	0.501583
	H304	H	0.742413	0.473976	0.491671
	H305	H	0.741966	0.477412	0.490460
	O306	O	0.566076	0.691826	0.492677
	H307	H	0.549733	0.685969	0.488362
	H308	H	0.549998	0.692479	0.480072
	O309	O	0.095740	0.127730	-0.130426
	H310	H	0.076040	0.145713	-0.129125
	H311	H	0.112137	0.139839	-0.118687
	O312	O	0.573998	0.287919	0.601784
	H313	H	0.584424	0.281520	0.605068
	H314	H	0.565442	0.297766	0.609356
	O315	O	1.048179	0.863672	1.240463
	H316	H	1.032756	0.851836	1.243667
	H317	H	1.044671	0.851098	1.242612
	O318	O	0.549311	0.471114	0.375784
	H319	H	0.542236	0.460642	0.376729
	H320	H	0.556395	0.470901	0.366691
	O321	O	-0.189737	0.780475	1.216521
	H322	H	-0.221242	0.762684	1.245469
	H323	H	-0.197653	0.820580	1.210044
	O324	O	0.924482	1.050774	0.065883
	H325	H	0.925576	1.060171	0.040249
	H326	H	0.923831	1.054818	0.052074
	O327	O	-0.003253	-0.012252	1.236885
	H328	H	0.015144	-0.013150	1.240914
	H329	H	0.003904	-0.023478	1.246229
	O330	O	0.319611	0.692990	0.297600
	H331	H	0.321036	0.700336	0.344105
	H332	H	0.290095	0.717432	0.280776
	O333	O	0.231735	0.777465	0.975892
	H334	H	0.206167	0.761322	0.990118
	H335	H	0.244115	0.778706	0.991617
	O336	O	0.650115	0.501923	0.484818
	H337	H	0.642425	0.488213	0.469925
	H338	H	0.659493	0.517377	0.485571
	O339	O	1.004857	0.142865	1.113339
	H340	H	1.028063	0.127919	1.108515
	H341	H	1.012640	0.154706	1.093284
	O342	O	0.038147	-0.229816	0.007383
	H343	H	0.023492	-0.232979	0.021989
	H344	H	0.020889	-0.216947	-0.002891
	O345	O	-0.198179	0.770502	1.035289
	H346	H	-0.203678	0.766920	1.065553
	H347	H	-0.215853	0.757035	1.032366
	O348	O	-0.027313	0.101403	-0.085968
	H349	H	-0.021717	0.107268	-0.068892
	H350	H	-0.019962	0.093461	-0.084228
	O351	O	0.234867	0.202259	0.213877
	H352	H	0.201693	0.193887	0.213091
	H353	H	0.263879	0.234682	0.248413
	O354	O	0.048216	0.153372	1.040821
	H355	H	0.055741	0.132499	1.054828
	H356	H	0.066536	0.156242	1.042337
	O357	O	0.330983	0.301772	0.315345
	H358	H	0.353677	0.321599	0.328881
	H359	H	0.349243	0.315705	0.336162
	O360	O	0.463209	0.273197	0.704383
	H361	H	0.469639	0.268550	0.726949
	H362	H	0.460877	0.280990	0.700632
	O363	O	0.310258	0.570180	0.572244
	H364	H	0.314766	0.554785	0.567357
	H365	H	0.303955	0.546387	0.578673
	O366	O	0.233975	-0.021227	-0.216902
	H367	H	0.252769	-0.034577	-0.214159
	H368	H	0.237291	-0.051845	-0.219531
	O369	O	0.456643	0.328262	0.469999
	H370	H	0.433437	0.321257	0.491142
	H371	H	0.461730	0.325134	0.472573
	O372	O	1.245860	1.011002	0.230278
	H373	H	1.240559	1.032892	0.237809
	H374	H	1.264480	1.030866	0.246662
	O375	O	1.158475	0.010626	0.083380
	H376	H	1.148415	0.012150	0.080681
	H377	H	1.168498	0.003135	0.095452
	O378	O	-0.002381	1.032779	1.115424
	H379	H	0.003514	1.034654	1.136188
	H380	H	-0.008170	1.040291	1.094599
	O381	O	0.212635	0.800168	1.204440
	H382	H	0.204884	0.808503	1.188253
	H383	H	0.198205	0.821430	1.188189
	O384	O	0.221305	-0.214864	-0.210172
	H385	H	0.196556	-0.213945	-0.198201
	H386	H	0.240700	-0.226058	-0.191766
	O387	O	1.732916	1.474886	0.305742
	H388	H	1.734509	1.452290	0.294184
	H389	H	1.742540	1.463961	0.302119
	O390	O	0.297596	0.523219	0.282836
	H391	H	0.270130	0.528525	0.251430
	H392	H	0.305743	0.563919	0.290593
	O393	O	0.526090	0.270090	0.336508
	H394	H	0.535109	0.261198	0.325817
	H395	H	0.527128	0.273233	0.344370
	O396	O	-0.672830	0.695620	0.458860
	H397	H	-0.686566	0.706464	0.468370
	H398	H	-0.666406	0.679596	0.485217
	O399	O	-0.166785	0.021893	0.841330
	H400	H	-0.158941	0.042038	0.840704
	H401	H	-0.176625	0.017185	0.836159
	O402	O	0.729000	0.285742	0.295921
	H403	H	0.709930	0.280693	0.301630
	H404	H	0.754553	0.260647	0.274211
	O405	O	1.049073	-0.228103	0.784424
	H406	H	1.040909	-0.230020	0.768321
	H407	H	1.064298	-0.235522	0.785611
	O408	O	0.047251	-0.055833	-0.087882
	H409	H	0.035174	-0.045311	-0.095216
	H410	H	0.049432	-0.066020	-0.074146
	O411	O	0.350813	0.464880	0.428456
	H412	H	0.360147	0.457628	0.420496
	H413	H	0.353301	0.467541	0.406626
	O414	O	0.702983	0.674537	0.323861
	H415	H	0.690923	0.658531	0.337040
	H416	H	0.679574	0.660952	0.338605
	O417	O	0.510234	0.669067	0.590951
	H418	H	0.520986	0.682978	0.609088
	H419	H	0.508122	0.656722	0.594705
	O420	O	0.666727	0.654142	0.675367
	H421	H	0.668812	0.630269	0.663106
	H422	H	0.684300	0.674393	0.662369
	O423	O	-0.199247	-0.048089	1.223130
	H424	H	-0.197756	-0.035669	1.226147
	H425	H	-0.199048	-0.033168	1.227215
	O426	O	0.731083	0.703964	0.544757
	H427	H	0.731629	0.712521	0.538248
	H428	H	0.729048	0.712728	0.547482
	O429	O	1.336461	0.677867	0.694497
	H430	H	1.327172	0.689214	0.698033
	H431	H	1.336428	0.654799	0.668980
	O432	O	0.708226	0.304778	0.687080
	H433	H	0.706256	0.321622	0.683826
	H434	H	0.696972	0.322918	0.668759
	O435	O	0.052633	1.023513	-0.228313
	H436	H	0.074912	1.035422	-0.227871
	H437	H	0.052885	1.030832	-0.230227
	O438	O	-0.208509	0.187729	-0.017518
	H439	H	-0.226655	0.214045	-0.018482
	H440	H	-0.200688	0.182427	-0.044880
	O441	O	0.250542	0.194072	0.036130
	H442	H	0.281546	0.225602	0.038757
	H443	H	0.249119	0.184723	0.075729
	O444	O	0.493075	0.709739	0.282681
	H445	H	0.480159	0.730887	0.265457
	H446	H	0.465918	0.709328	0.279335
	O447	O	-0.265494	0.514436	0.717711
	H448	H	-0.258717	0.519835	0.705863
	H449	H	-0.240799	0.515081	0.718378
	O450	O	0.307966	1.285803	0.715797
	H451	H	0.326204	1.283651	0.713879
	H452	H	0.283885	1.269537	0.737479
	O453	O	0.522826	0.474775	0.322980
	H454	H	0.534988	0.483661	0.332582
	H455	H	0.522773	0.461911	0.316868
	O456	O	0.805315	0.775537	0.776367
	H457	H	0.826502	0.791026	0.786853
	H458	H	0.809849	0.763055	0.782706
	O459	O	0.517466	0.546710	0.456992
	H460	H	0.516981	0.552722	0.472494
	H461	H	0.510877	0.536698	0.450179
	O462	O	0.293695	0.453167	0.731347
	H463	H	0.301588	0.435710	0.727568
	H464	H	0.267358	0.453001	0.756684
	O465	O	0.987380	0.210275	-0.222853
	H466	H	0.968803	0.214717	-0.229727
	H467	H	0.982871	0.230796	-0.232261
	O468	O	0.650264	0.362641	0.524093
	H469	H	0.649880	0.349826	0.525431
	H470	H	0.651174	0.383516	0.509351
	O471	O	0.570124	0.429894	0.676707
	H472	H	0.571593	0.439423	0.679799
	H473	H	0.577049	0.433128	0.680961
	O474	O	0.309462	0.284057	0.521675
	H475	H	0.300147	0.286802	0.540975
	H476	H	0.306555	0.267968	0.541040
	O477	O	-0.189581	0.925966	1.937267
	H478	H	-0.182459	0.918586	1.945544
	H479	H	-0.195813	0.923439	1.934588
	O480	O	0.744258	0.275499	0.464590
	H481	H	0.747088	0.260508	0.466296
	H482	H	0.753618	0.262670	0.445914
	O483	O	0.533646	0.448584	0.577158
	H484	H	0.527598	0.466713	0.586905
	H485	H	0.533787	0.459746	0.574618
	O486	O	0.811842	0.200120	0.828163
	H487	H	0.786290	0.216218	0.815197
	H488	H	0.811727	0.174145	0.821711
	O489	O	0.831637	1.176857	0.199520
	H490	H	0.856694	1.165475	0.185984
	H491	H	0.843950	1.155539	0.177317
	O492	O	-0.083848	-0.214933	-0.093815
	H493	H	-0.096947	-0.207053	-0.074903
	H494	H	-0.079942	-0.210183	-0.093083
	O495	O	-0.087445	0.999355	0.808481
	H496	H	-0.106610	1.002823	0.804964
	H497	H	-0.072373	1.004090	0.805154
	O498	O	1.002443	0.939210	0.995232
	H499	H	0.990769	0.944971	0.978894
	H500	H	0.993224	0.925341	0.997125
	O501	O	0.564701	0.602606	0.325193
	H502	H	0.555634	0.621807	0.329746
	H503	H	0.569929	0.598234	0.321893
