data_Molecule from HDF5

_cell_length_a		16.404451
_cell_length_b		16.190933
_cell_length_c		16.357232
_cell_angle_alpha	89.969569
_cell_angle_beta	90.135508
_cell_angle_gamma	90.238093
_symmetry_space_group_name_H-M	'P 1'
_symmetry_Int_Tables_number		1

loop_
	_symmetry_equiv_pos_as_xyz
	x,y,z

loop_
	_atom_site_label
	_atom_site_type_symbol
	_atom_site_fract_x
	_atom_site_fract_y
	_atom_site_fract_z
	H0	H	0.389367	0.823145	0.721414
	H1	H	0.594663	0.148758	0.721572
	H2	H	0.594434	0.822867	0.288280
	H3	H	0.392832	0.147645	0.286726
	H4	H	0.712878	0.380550	0.840448
	H5	H	0.715734	0.587835	0.161164
	H6	H	0.275989	0.590274	0.841718
	H7	H	0.273491	0.380840	0.161380
	H8	H	0.833367	0.702834	0.399012
	H9	H	0.154637	0.705074	0.602223
	H10	H	0.832926	0.269732	0.601891
	H11	H	0.154661	0.268691	0.399833
	H12	H	0.834484	0.381529	0.720573
	H13	H	0.154042	0.593104	0.721396
	H14	H	0.834676	0.589262	0.280634
	H15	H	0.154830	0.384497	0.283730
	H16	H	0.394618	0.702563	0.840694
	H17	H	0.595713	0.700003	0.164531
	H18	H	0.594911	0.266496	0.841903
	H19	H	0.395498	0.270019	0.165012
	H20	H	0.709786	0.823362	0.403079
	H21	H	0.711962	0.147953	0.608031
	H22	H	0.272585	0.824282	0.607754
	H23	H	0.277409	0.148573	0.401684
	H24	H	0.892098	0.323979	0.218589
	H25	H	0.100871	0.648200	0.219872
	H26	H	0.095419	0.323629	0.783245
	H27	H	0.891444	0.647445	0.781565
	H28	H	0.213758	0.882351	0.343763
	H29	H	0.215230	0.095224	0.662626
	H30	H	0.770598	0.091923	0.344399
	H31	H	0.774887	0.882196	0.664687
	H32	H	0.333268	0.202692	0.903122
	H33	H	0.656022	0.204054	0.106346
	H34	H	0.333706	0.765878	0.104405
	H35	H	0.654993	0.769042	0.901183
	H36	H	0.334052	0.879563	0.223327
	H37	H	0.654352	0.089835	0.225047
	H38	H	0.334590	0.092796	0.782512
	H39	H	0.652965	0.881493	0.782996
	H40	H	0.890615	0.203027	0.340914
	H41	H	0.094536	0.205164	0.663385
	H42	H	0.093970	0.771506	0.341027
	H43	H	0.890536	0.766487	0.663188
	H44	H	0.211377	0.322762	0.898534
	H45	H	0.214587	0.648338	0.103485
	H46	H	0.777996	0.323685	0.101782
	H47	H	0.774980	0.646512	0.893785
	H48	H	0.412572	0.097340	0.590345
	H49	H	0.582723	0.871190	0.592750
	H50	H	0.590807	0.104624	0.413781
	H51	H	0.402613	0.866148	0.406504
	H52	H	0.586007	0.386489	0.119204
	H53	H	0.588872	0.571638	0.886907
	H54	H	0.401743	0.574092	0.117200
	H55	H	0.401973	0.390517	0.885853
	H56	H	0.111151	0.579437	0.402939
	H57	H	0.878057	0.578878	0.592320
	H58	H	0.110677	0.402151	0.601357
	H59	H	0.883898	0.402155	0.418118
	H60	H	0.110739	0.386905	0.591367
	H61	H	0.881744	0.574048	0.588525
	H62	H	0.108424	0.583259	0.415794
	H63	H	0.877793	0.401340	0.397387
	H64	H	0.405390	0.573188	0.116454
	H65	H	0.580598	0.576675	0.888213
	H66	H	0.597457	0.400016	0.118322
	H67	H	0.400650	0.398291	0.888122
	H68	H	0.577156	0.101486	0.407698
	H69	H	0.585436	0.869553	0.595028
	H70	H	0.395665	0.102136	0.587968
	H71	H	0.409793	0.873881	0.419030
	H72	H	0.904989	0.602125	0.091032
	H73	H	0.090911	0.368328	0.091047
	H74	H	0.087381	0.601593	0.911769
	H75	H	0.901677	0.369484	0.913132
	H76	H	0.088242	0.899426	0.618439
	H77	H	0.084202	0.090072	0.384019
	H78	H	0.911999	0.078001	0.614590
	H79	H	0.901227	0.892250	0.386785
	H80	H	0.609562	0.080654	0.914583
	H81	H	0.382084	0.075231	0.092085
	H82	H	0.609030	0.892542	0.094708
	H83	H	0.379151	0.894468	0.912465
	H84	H	0.606806	0.897388	0.095848
	H85	H	0.380651	0.072434	0.098092
	H86	H	0.604615	0.072075	0.917389
	H87	H	0.380043	0.893987	0.913721
	H88	H	0.896965	0.085167	0.621870
	H89	H	0.097989	0.069138	0.386265
	H90	H	0.079279	0.900099	0.615853
	H91	H	0.894748	0.899314	0.387657
	H92	H	0.086846	0.602093	0.909793
	H93	H	0.081192	0.369955	0.096670
	H94	H	0.907164	0.601266	0.090650
	H95	H	0.905140	0.368703	0.906791
	H96	H	0.403928	0.104266	0.603401
	H97	H	0.581477	0.869502	0.596255
	H98	H	0.579834	0.098107	0.422792
	H99	H	0.394426	0.868796	0.420050
	H100	H	0.580959	0.402464	0.112125
	H101	H	0.588796	0.580718	0.884060
	H102	H	0.404446	0.576604	0.117534
	H103	H	0.407747	0.395211	0.889001
	H104	H	0.106379	0.570034	0.412079
	H105	H	0.880258	0.572312	0.595019
	H106	H	0.104423	0.402121	0.584019
	H107	H	0.875951	0.383392	0.409693
	H108	H	0.906279	0.602006	0.089066
	H109	H	0.081502	0.373418	0.085611
	H110	H	0.085106	0.601319	0.911647
	H111	H	0.907638	0.371958	0.912247
	H112	H	0.082947	0.891772	0.619298
	H113	H	0.074238	0.069937	0.394179
	H114	H	0.897633	0.068218	0.615983
	H115	H	0.904174	0.900011	0.391035
	H116	H	0.608849	0.072971	0.908272
	H117	H	0.378530	0.079441	0.097253
	H118	H	0.610618	0.894474	0.099308
	H119	H	0.379255	0.895446	0.913232
	C120	C	0.371743	-0.005612	0.625450
	C121	C	0.614090	0.977290	0.625732
	C122	C	0.613575	-0.005743	0.384146
	C123	C	0.372261	0.976762	0.383494
	C124	C	0.617324	0.364260	0.010467
	C125	C	0.617315	0.607256	0.992745
	C126	C	0.373671	0.606409	0.010578
	C127	C	0.373288	0.364034	0.994084
	C128	C	0.003066	0.608556	0.378903
	C129	C	0.985751	0.607726	0.622912
	C130	C	0.002617	0.365506	0.622595
	C131	C	0.985481	0.364827	0.379001
	C132	C	0.874934	0.494624	0.121113
	C133	C	0.116621	0.477453	0.122234
	C134	C	0.116578	0.494558	0.879745
	C135	C	0.873635	0.476899	0.879161
	C136	C	0.114421	0.866093	0.511479
	C137	C	0.115746	0.108630	0.494304
	C138	C	0.870765	0.108083	0.511523
	C139	C	0.870157	0.864958	0.494635
	C140	C	0.502094	0.106771	0.882510
	C141	C	0.486544	0.107104	0.126270
	C142	C	0.502638	0.863187	0.126323
	C143	C	0.485294	0.863996	0.882036
	C144	C	0.370257	0.872248	0.683415
	C145	C	0.614292	0.099715	0.683343
	C146	C	0.613808	0.871652	0.326865
	C147	C	0.373189	0.099020	0.325386
	C148	C	0.674148	0.362394	0.889069
	C149	C	0.676130	0.607244	0.113568
	C150	C	0.315626	0.608136	0.889563
	C151	C	0.314368	0.362846	0.114308
	C152	C	0.881870	0.664879	0.379269
	C153	C	0.106375	0.666428	0.622304
	C154	C	0.881352	0.307950	0.621893
	C155	C	0.106465	0.307115	0.380086
	C156	C	0.882359	0.363432	0.681201
	C157	C	0.106095	0.610515	0.681698
	C158	C	0.882586	0.608063	0.320449
	C159	C	0.106671	0.364580	0.322164
	C160	C	0.374378	0.664381	0.889291
	C161	C	0.616230	0.662825	0.115220
	C162	C	0.615514	0.305511	0.889689
	C163	C	0.374912	0.307841	0.116022
	C164	C	0.671269	0.872226	0.383784
	C165	C	0.672872	0.099339	0.626987
	C166	C	0.312042	0.872689	0.626735
	C167	C	0.315929	0.099610	0.382860
	C168	C	0.873686	0.372677	0.179379
	C169	C	0.118861	0.599524	0.180596
	C170	C	0.115236	0.372148	0.822239
	C171	C	0.872740	0.598935	0.820596
	C172	C	0.173550	0.864483	0.391217
	C173	C	0.174861	0.111881	0.614687
	C174	C	0.810730	0.109729	0.391724
	C175	C	0.812938	0.863123	0.615973
	C176	C	0.381655	0.164863	0.882852
	C177	C	0.607408	0.165437	0.126251
	C178	C	0.381661	0.805258	0.124366
	C179	C	0.606469	0.807170	0.881895
	C180	C	0.381951	0.861628	0.183775
	C181	C	0.606539	0.108625	0.185282
	C182	C	0.382237	0.109637	0.823103
	C183	C	0.605354	0.863298	0.823096
	C184	C	0.870583	0.165144	0.390088
	C185	C	0.114782	0.166967	0.615087
	C186	C	0.113824	0.809230	0.389934
	C187	C	0.870940	0.805911	0.615402
	C188	C	0.173288	0.371957	0.879296
	C189	C	0.175987	0.599339	0.122876
	C190	C	0.816490	0.372546	0.121436
	C191	C	0.814776	0.598388	0.876634
	C192	C	0.396680	0.079081	0.600944
	C193	C	0.590211	0.892314	0.601750
	C194	C	0.589715	0.079457	0.407845
	C195	C	0.395349	0.891596	0.408065
	C196	C	0.594621	0.389083	0.094712
	C197	C	0.593193	0.583551	0.908366
	C198	C	0.397149	0.581794	0.095037
	C199	C	0.396611	0.387859	0.909559
	C200	C	0.086987	0.584484	0.403152
	C201	C	0.901845	0.582275	0.598971
	C202	C	0.086690	0.389912	0.599032
	C203	C	0.901195	0.388713	0.401717
	C204	C	0.899113	0.579683	0.097081
	C205	C	0.091832	0.392679	0.098074
	C206	C	0.093369	0.579605	0.903952
	C207	C	0.897796	0.392122	0.903741
	C208	C	0.090375	0.890172	0.595782
	C209	C	0.092185	0.083695	0.409857
	C210	C	0.895166	0.084023	0.595526
	C211	C	0.893379	0.889973	0.410529
	C212	C	0.586032	0.082259	0.906526
	C213	C	0.402288	0.082809	0.102533
	C214	C	0.586855	0.887775	0.103308
	C215	C	0.401357	0.887780	0.906194
	Zn216	Zn	0.492894	-0.014411	0.753484
	Zn217	Zn	0.493915	-0.015101	0.255537
	Zn218	Zn	0.746541	0.486105	-0.000120
	Zn219	Zn	0.244857	0.485243	0.001262
	Zn220	Zn	-0.006886	0.737045	0.501646
	Zn221	Zn	-0.006551	0.236663	0.501546
	Zn222	Zn	-0.005445	0.486240	0.751898
	Zn223	Zn	-0.004706	0.486542	0.250107
	Zn224	Zn	0.494616	0.735036	0.002945
	Zn225	Zn	0.495191	0.235419	0.003341
	Zn226	Zn	0.742063	-0.013808	0.504500
	Zn227	Zn	0.243809	-0.013508	0.504074
	N228	N	0.406494	0.948856	0.682889
	N229	N	0.578605	0.022847	0.682713
	N230	N	0.578528	0.948522	0.327191
	N231	N	0.407505	0.021470	0.325591
	N232	N	0.675432	0.398294	0.965275
	N233	N	0.677277	0.573941	0.036330
	N234	N	0.315112	0.572619	0.966055
	N235	N	0.313300	0.396942	0.037348
	N236	N	0.957814	0.665397	0.414774
	N237	N	0.030587	0.664652	0.586389
	N238	N	0.956935	0.309322	0.585958
	N239	N	0.030043	0.306947	0.414529
	N240	N	0.958770	0.398620	0.681898
	N241	N	0.029995	0.574589	0.682246
	N242	N	0.959165	0.573921	0.320004
	N243	N	0.030662	0.399757	0.321426
	N244	N	0.409853	0.663235	0.965434
	N245	N	0.580626	0.663215	0.038976
	N246	N	0.580915	0.306633	0.965961
	N247	N	0.410749	0.308551	0.040228
	N248	N	0.671314	0.949632	0.418682
	N249	N	0.672976	0.022193	0.591922
	N250	N	0.312825	0.949741	0.591399
	N251	N	0.315064	0.022545	0.417985
	N252	N	0.909490	0.449601	0.179164
	N253	N	0.082519	0.522740	0.180415
	N254	N	0.080811	0.449421	0.822251
	N255	N	0.908834	0.522492	0.821992
	N256	N	0.174002	0.899122	0.467805
	N257	N	0.175377	0.076064	0.538442
	N258	N	0.810543	0.075055	0.468365
	N259	N	0.812571	0.899353	0.540023
	N260	N	0.457295	0.162911	0.919322
	N261	N	0.531723	0.164720	0.090349
	N262	N	0.457740	0.805986	0.089398
	N263	N	0.530959	0.807498	0.918001
	N264	N	0.458282	0.897101	0.185016
	N265	N	0.530324	0.072923	0.185368
	N266	N	0.458159	0.074138	0.822780
	N267	N	0.528905	0.897963	0.822993
	N268	N	0.907290	0.164327	0.465551
	N269	N	0.078812	0.165071	0.539141
	N270	N	0.077637	0.810029	0.465740
	N271	N	0.905629	0.806471	0.538862
	N272	N	0.174376	0.449137	0.914286
	N273	N	0.174492	0.522474	0.087266
	N274	N	0.817280	0.449440	0.085773
	N275	N	0.815166	0.521563	0.912188
	O276	O	0.607486	0.599673	0.516568
	H277	H	0.600381	0.612036	0.526529
	H278	H	0.591783	0.592176	0.508669
	O279	O	0.504123	0.629371	0.578467
	H280	H	0.495581	0.640690	0.579226
	H281	H	0.495268	0.617466	0.575333
	O282	O	1.037832	0.029580	1.068723
	H283	H	1.034886	0.033549	1.072348
	H284	H	1.036037	0.034370	1.059774
	O285	O	0.418971	0.445335	0.415618
	H286	H	0.416093	0.442071	0.403580
	H287	H	0.412429	0.445992	0.419822
	O288	O	0.990342	0.931079	1.186726
	H289	H	0.990889	0.940031	1.177656
	H290	H	0.989668	0.924269	1.193111
	O291	O	-0.158635	0.990810	-0.119351
	H292	H	-0.155814	0.990172	-0.111570
	H293	H	-0.154174	0.987136	-0.098851
	O294	O	0.662324	0.503537	0.607909
	H295	H	0.679209	0.513171	0.620534
	H296	H	0.652990	0.498193	0.616770
	O297	O	0.609032	0.527609	0.554543
	H298	H	0.593335	0.525252	0.556534
	H299	H	0.609603	0.532577	0.541927
	O300	O	0.427571	0.396932	0.424497
	H301	H	0.443978	0.402807	0.444043
	H302	H	0.418964	0.409063	0.420050
	O303	O	0.399427	0.445962	0.653342
	H304	H	0.397396	0.437079	0.648477
	H305	H	0.410052	0.449285	0.641038
	O306	O	0.516564	0.662146	0.385325
	H307	H	0.517407	0.647273	0.394224
	H308	H	0.509469	0.670599	0.383838
	O309	O	0.467107	0.467741	0.424838
	H310	H	0.477317	0.459404	0.451807
	H311	H	0.474081	0.468768	0.417484
	O312	O	0.122729	0.125823	-0.025953
	H313	H	0.136148	0.119273	-0.032186
	H314	H	0.117023	0.125187	-0.020435
	O315	O	0.533383	0.446491	0.639121
	H316	H	0.542658	0.435181	0.639923
	H317	H	0.521994	0.440685	0.648503
	O318	O	0.374479	1.367418	1.309221
	H319	H	0.368336	1.381938	1.306224
	H320	H	0.385244	1.378150	1.301688
	O321	O	0.586837	0.505838	0.613046
	H322	H	0.582426	0.506939	0.613703
	H323	H	0.586252	0.512460	0.615605
	O324	O	-0.077317	1.027674	-0.163734
	H325	H	-0.068506	1.006596	-0.162207
	H326	H	-0.084340	1.025811	-0.153778
	O327	O	0.570483	0.333203	0.430621
	H328	H	0.582705	0.346648	0.428618
	H329	H	0.577853	0.338451	0.435040
	O330	O	-0.091901	-0.149100	1.204908
	H331	H	-0.099897	-0.155807	1.207733
	H332	H	-0.079081	-0.137320	1.209739
	O333	O	0.148941	-0.020207	1.005542
	H334	H	0.157424	-0.017076	1.012436
	H335	H	0.138078	-0.028441	1.010565
	O336	O	0.358512	0.586741	0.490312
	H337	H	0.366856	0.589920	0.493785
	H338	H	0.362668	0.590084	0.501065
	O339	O	0.929373	0.122559	-0.065400
	H340	H	0.934266	0.119500	-0.070690
	H341	H	0.932428	0.128693	-0.064736
	O342	O	-0.048123	-0.045540	-0.162886
	H343	H	-0.043567	-0.070881	-0.165313
	H344	H	-0.052983	-0.028467	-0.156366
	O345	O	1.130843	-0.014808	0.896528
	H346	H	1.124812	-0.022376	0.890129
	H347	H	1.123165	-0.034341	0.892521
	O348	O	0.936265	1.007409	-0.004872
	H349	H	0.939507	1.025607	-0.009137
	H350	H	0.921757	1.009838	0.010961
	O351	O	0.462281	0.422822	0.462425
	H352	H	0.483889	0.427729	0.468734
	H353	H	0.462111	0.417812	0.453354
	O354	O	1.110133	-0.009932	1.080220
	H355	H	1.106755	-0.008964	1.080549
	H356	H	1.118517	-0.010105	1.060428
	O357	O	0.570531	0.344996	0.423252
	H358	H	0.557446	0.343349	0.433075
	H359	H	0.584036	0.329617	0.410544
	O360	O	0.621825	0.422642	0.476104
	H361	H	0.617721	0.436975	0.477242
	H362	H	0.618655	0.412197	0.474929
	O363	O	0.120182	0.819712	0.855111
	H364	H	0.106953	0.815014	0.874914
	H365	H	0.106682	0.815763	0.853554
	O366	O	0.837444	0.808063	0.167126
	H367	H	0.829160	0.848948	0.181288
	H368	H	0.859778	0.810797	0.158097
	O369	O	-0.128552	0.877916	0.111217
	H370	H	-0.141327	0.872520	0.116520
	H371	H	-0.111380	0.902287	0.111062
	O372	O	0.380285	0.590303	0.372144
	H373	H	0.369173	0.582161	0.374672
	H374	H	0.369610	0.597183	0.378201
	O375	O	0.532415	0.486541	0.470852
	H376	H	0.528417	0.480102	0.470636
	H377	H	0.522451	0.491180	0.468108
	O378	O	1.134151	1.046552	-0.010316
	H379	H	1.126570	1.048249	-0.022533
	H380	H	1.131555	1.054042	-0.013975
	O381	O	0.889721	0.073438	-0.070826
	H382	H	0.889348	0.084200	-0.076658
	H383	H	0.893016	0.067781	-0.067941
	O384	O	1.063990	1.103298	0.125783
	H385	H	1.079400	1.104976	0.137087
	H386	H	1.072826	1.118763	0.124524
	O387	O	0.139631	-0.097519	-0.194401
	H388	H	0.146851	-0.111386	-0.216219
	H389	H	0.127803	-0.114229	-0.180889
	O390	O	-0.063810	1.161943	0.061241
	H391	H	-0.042825	1.163687	0.059231
	H392	H	-0.065066	1.172537	0.057247
	O393	O	1.026320	1.092724	1.144638
	H394	H	1.041204	1.094842	1.144139
	H395	H	1.023474	1.098664	1.143635
	O396	O	0.348977	0.544813	0.569508
	H397	H	0.345358	0.544737	0.581209
	H398	H	0.355628	0.528105	0.566266
	O399	O	0.135477	0.943887	1.142322
	H400	H	0.140090	0.940704	1.134622
	H401	H	0.131402	0.944485	1.148377
	O402	O	0.422434	0.563736	0.544108
	H403	H	0.424391	0.568531	0.538656
	H404	H	0.431430	0.558601	0.544895
	O405	O	0.881546	1.122293	0.096956
	H406	H	0.889380	1.111692	0.095305
	H407	H	0.894456	1.139425	0.079173
	O408	O	0.804535	0.784028	0.021706
	H409	H	0.777416	0.763452	0.030925
	H410	H	0.813024	0.783947	0.049402
	O411	O	0.922678	-0.101092	0.899477
	H412	H	0.908129	-0.098386	0.904948
	H413	H	0.909709	-0.104082	0.891072
	O414	O	0.406426	0.381907	0.613068
	H415	H	0.408731	0.389363	0.606010
	H416	H	0.414317	0.395592	0.607227
	O417	O	0.475118	0.364527	0.513848
	H418	H	0.473928	0.358030	0.509963
	H419	H	0.467745	0.367037	0.508052
