data_Molecule from HDF5

_cell_length_a		16.372749
_cell_length_b		16.321814
_cell_length_c		16.483959
_cell_angle_alpha	89.873562
_cell_angle_beta	90.008165
_cell_angle_gamma	89.920440
_symmetry_space_group_name_H-M	'P 1'
_symmetry_Int_Tables_number		1

loop_
	_symmetry_equiv_pos_as_xyz
	x,y,z

loop_
	_atom_site_label
	_atom_site_type_symbol
	_atom_site_fract_x
	_atom_site_fract_y
	_atom_site_fract_z
	H0	H	0.391686	0.823910	0.725720
	H1	H	0.601467	0.143034	0.724207
	H2	H	0.601475	0.823763	0.284899
	H3	H	0.391876	0.142733	0.283085
	H4	H	0.719033	0.375072	0.843990
	H5	H	0.717315	0.582231	0.161536
	H6	H	0.279104	0.583841	0.843208
	H7	H	0.276971	0.376421	0.162024
	H8	H	0.836709	0.698925	0.403171
	H9	H	0.157683	0.699172	0.605771
	H10	H	0.836774	0.263208	0.607865
	H11	H	0.156463	0.261504	0.400597
	H12	H	0.839487	0.374450	0.727408
	H13	H	0.155717	0.588035	0.725595
	H14	H	0.838052	0.585455	0.283265
	H15	H	0.155573	0.373417	0.281391
	H16	H	0.394317	0.703066	0.843755
	H17	H	0.601435	0.700115	0.161735
	H18	H	0.601054	0.259755	0.844491
	H19	H	0.395491	0.262406	0.163986
	H20	H	0.716021	0.823048	0.402283
	H21	H	0.718855	0.142435	0.610766
	H22	H	0.279193	0.821716	0.607704
	H23	H	0.277029	0.143383	0.400073
	H24	H	0.890729	0.322850	0.226340
	H25	H	0.102823	0.640035	0.222054
	H26	H	0.104248	0.321874	0.781224
	H27	H	0.891735	0.640530	0.782428
	H28	H	0.214891	0.882560	0.345361
	H29	H	0.216810	0.087120	0.664132
	H30	H	0.774465	0.089948	0.346054
	H31	H	0.777147	0.877923	0.663447
	H32	H	0.335929	0.199768	0.902929
	H33	H	0.657402	0.200855	0.107425
	H34	H	0.337995	0.764555	0.105556
	H35	H	0.658440	0.764520	0.901369
	H36	H	0.338841	0.879934	0.223196
	H37	H	0.657315	0.088282	0.224824
	H38	H	0.337659	0.089047	0.782729
	H39	H	0.656322	0.877038	0.782209
	H40	H	0.891172	0.205672	0.345845
	H41	H	0.099944	0.202853	0.663488
	H42	H	0.098980	0.764881	0.344542
	H43	H	0.894991	0.762721	0.664249
	H44	H	0.218897	0.320839	0.898226
	H45	H	0.215422	0.641519	0.103501
	H46	H	0.777973	0.320546	0.107274
	H47	H	0.776321	0.639831	0.896969
	H48	H	0.406137	0.096499	0.591093
	H49	H	0.586451	0.868293	0.596330
	H50	H	0.583497	0.096362	0.413918
	H51	H	0.407942	0.868661	0.414063
	H52	H	0.589107	0.393241	0.114751
	H53	H	0.591570	0.570488	0.888001
	H54	H	0.406842	0.574298	0.116430
	H55	H	0.414129	0.391021	0.892552
	H56	H	0.113045	0.575224	0.412237
	H57	H	0.882387	0.571150	0.596205
	H58	H	0.110475	0.396239	0.595150
	H59	H	0.887068	0.401522	0.418194
	H60	H	0.110981	0.392018	0.591177
	H61	H	0.883649	0.572001	0.592509
	H62	H	0.111699	0.571037	0.412813
	H63	H	0.882371	0.396944	0.406917
	H64	H	0.405736	0.572083	0.115941
	H65	H	0.584830	0.570408	0.890732
	H66	H	0.585478	0.391494	0.114723
	H67	H	0.406490	0.386986	0.888262
	H68	H	0.587269	0.097824	0.416661
	H69	H	0.583293	0.870480	0.593415
	H70	H	0.406111	0.098476	0.595358
	H71	H	0.408182	0.869622	0.414811
	H72	H	0.909918	0.595760	0.094264
	H73	H	0.089572	0.364771	0.094524
	H74	H	0.090223	0.595476	0.914714
	H75	H	0.913239	0.366709	0.910179
	H76	H	0.093760	0.889012	0.621098
	H77	H	0.082838	0.070062	0.393976
	H78	H	0.913136	0.080500	0.616997
	H79	H	0.907652	0.891485	0.391689
	H80	H	0.614158	0.079565	0.913511
	H81	H	0.381780	0.073996	0.097803
	H82	H	0.612167	0.890395	0.090505
	H83	H	0.386684	0.899204	0.916409
	H84	H	0.611622	0.897033	0.096259
	H85	H	0.385116	0.072358	0.090449
	H86	H	0.606297	0.066674	0.921381
	H87	H	0.382072	0.894461	0.908502
	H88	H	0.898887	0.070110	0.619281
	H89	H	0.085997	0.075325	0.391031
	H90	H	0.087559	0.894143	0.617524
	H91	H	0.905131	0.891086	0.390047
	H92	H	0.086488	0.595670	0.910394
	H93	H	0.084541	0.366945	0.093718
	H94	H	0.911204	0.593411	0.089443
	H95	H	0.911384	0.369298	0.918678
	H96	H	0.409860	0.096432	0.593775
	H97	H	0.588037	0.869867	0.591935
	H98	H	0.586963	0.098678	0.412552
	H99	H	0.407423	0.868324	0.414655
	H100	H	0.588999	0.389502	0.116600
	H101	H	0.587483	0.576108	0.887852
	H102	H	0.408592	0.571906	0.116293
	H103	H	0.406171	0.396226	0.891227
	H104	H	0.113199	0.572631	0.408897
	H105	H	0.883559	0.568328	0.593643
	H106	H	0.108164	0.397291	0.589924
	H107	H	0.882411	0.389349	0.417623
	H108	H	0.906359	0.594791	0.090767
	H109	H	0.088075	0.366322	0.089895
	H110	H	0.084770	0.593286	0.914988
	H111	H	0.905769	0.365064	0.913837
	H112	H	0.085683	0.885362	0.619712
	H113	H	0.089128	0.069597	0.391254
	H114	H	0.913420	0.063614	0.611835
	H115	H	0.905802	0.892886	0.391348
	H116	H	0.611927	0.065017	0.905484
	H117	H	0.384700	0.066700	0.096274
	H118	H	0.615013	0.888501	0.098387
	H119	H	0.383087	0.889761	0.917217
	C120	C	0.375686	-0.008570	0.625412
	C121	C	0.618197	0.974825	0.625963
	C122	C	0.618052	-0.008045	0.383268
	C123	C	0.375989	0.974696	0.382856
	C124	C	0.619924	0.358818	0.011106
	C125	C	0.619458	0.602824	0.993931
	C126	C	0.375924	0.603907	0.011250
	C127	C	0.376963	0.359747	0.995513
	C128	C	0.006423	0.603419	0.381420
	C129	C	0.988133	0.602516	0.625527
	C130	C	0.005139	0.361999	0.624606
	C131	C	0.988677	0.362089	0.382428
	C132	C	0.876941	0.489346	0.123953
	C133	C	0.119445	0.471683	0.124106
	C134	C	0.119655	0.489386	0.881229
	C135	C	0.876904	0.472216	0.881787
	C136	C	0.119349	0.859743	0.513687
	C137	C	0.118279	0.104131	0.496612
	C138	C	0.875276	0.104857	0.512086
	C139	C	0.875492	0.860858	0.496375
	C140	C	0.505446	0.103371	0.882101
	C141	C	0.489367	0.103040	0.126072
	C142	C	0.507314	0.860804	0.125950
	C143	C	0.489232	0.862250	0.882473
	C144	C	0.373906	0.871306	0.685377
	C145	C	0.620053	0.095074	0.684961
	C146	C	0.620108	0.871592	0.324631
	C147	C	0.373428	0.094783	0.322822
	C148	C	0.679160	0.356681	0.891717
	C149	C	0.678183	0.602243	0.113732
	C150	C	0.317871	0.603944	0.891085
	C151	C	0.317358	0.358419	0.114993
	C152	C	0.885056	0.660618	0.382343
	C153	C	0.109050	0.660721	0.625486
	C154	C	0.885113	0.302269	0.626763
	C155	C	0.108590	0.301296	0.381458
	C156	C	0.886175	0.357815	0.686122
	C157	C	0.108088	0.605559	0.685393
	C158	C	0.885944	0.604090	0.323017
	C159	C	0.108304	0.356914	0.322330
	C160	C	0.375177	0.663142	0.891427
	C161	C	0.620351	0.660746	0.113976
	C162	C	0.620310	0.299467	0.891723
	C163	C	0.376063	0.301404	0.115799
	C164	C	0.676958	0.871231	0.382876
	C165	C	0.678198	0.094896	0.628192
	C166	C	0.317989	0.870105	0.626374
	C167	C	0.316366	0.095110	0.381315
	C168	C	0.873449	0.370071	0.185458
	C169	C	0.121012	0.592121	0.182505
	C170	C	0.121973	0.369334	0.821615
	C171	C	0.873977	0.592515	0.822181
	C172	C	0.176401	0.861675	0.393203
	C173	C	0.177444	0.105637	0.616080
	C174	C	0.814502	0.107960	0.393659
	C175	C	0.816904	0.859686	0.616030
	C176	C	0.384501	0.161732	0.882601
	C177	C	0.609634	0.161915	0.126379
	C178	C	0.386497	0.803115	0.125770
	C179	C	0.609967	0.803472	0.882007
	C180	C	0.386594	0.860654	0.183951
	C181	C	0.609368	0.105911	0.185153
	C182	C	0.385478	0.106539	0.822682
	C183	C	0.608925	0.859589	0.822683
	C184	C	0.872612	0.165834	0.393383
	C185	C	0.119176	0.163401	0.615938
	C186	C	0.118583	0.803321	0.392945
	C187	C	0.875550	0.802070	0.616269
	C188	C	0.179328	0.368873	0.879714
	C189	C	0.177346	0.592774	0.123663
	C190	C	0.817254	0.369025	0.126060
	C191	C	0.816235	0.592105	0.879251
	C192	C	0.400171	0.075300	0.600662
	C193	C	0.592997	0.891529	0.601045
	C194	C	0.593126	0.075816	0.407342
	C195	C	0.400938	0.890787	0.407187
	C196	C	0.595062	0.384119	0.093893
	C197	C	0.594945	0.579237	0.910544
	C198	C	0.400016	0.579673	0.094636
	C199	C	0.401546	0.384238	0.912441
	C200	C	0.090633	0.579817	0.404641
	C201	C	0.904647	0.577659	0.601030
	C202	C	0.088283	0.387840	0.599340
	C203	C	0.905751	0.388351	0.407037
	C204	C	0.902122	0.573013	0.098658
	C205	C	0.094569	0.387919	0.099856
	C206	C	0.094645	0.573013	0.906173
	C207	C	0.902688	0.388811	0.906991
	C208	C	0.095916	0.882710	0.597719
	C209	C	0.093150	0.078897	0.413484
	C210	C	0.900968	0.078896	0.594697
	C211	C	0.899192	0.885040	0.412822
	C212	C	0.588991	0.077922	0.906325
	C213	C	0.405508	0.078086	0.101840
	C214	C	0.591137	0.885028	0.102032
	C215	C	0.405719	0.887258	0.907080
	Zn216	Zn	0.496759	-0.016911	0.753681
	Zn217	Zn	0.497725	-0.016947	0.254427
	Zn218	Zn	0.749044	0.480644	0.002096
	Zn219	Zn	0.247721	0.480845	0.002420
	Zn220	Zn	-0.002929	0.731157	0.504341
	Zn221	Zn	-0.003054	0.233687	0.504255
	Zn222	Zn	-0.002498	0.481200	0.753931
	Zn223	Zn	-0.001829	0.481237	0.252677
	Zn224	Zn	0.498050	0.733076	0.002813
	Zn225	Zn	0.497291	0.229970	0.004326
	Zn226	Zn	0.745990	-0.016999	0.504843
	Zn227	Zn	0.247603	-0.017162	0.504660
	N228	N	0.409185	0.947750	0.684886
	N229	N	0.583535	0.019464	0.683705
	N230	N	0.584376	0.947641	0.324661
	N231	N	0.409980	0.018950	0.323789
	N232	N	0.679098	0.392770	0.966900
	N233	N	0.677834	0.567183	0.038066
	N234	N	0.318068	0.568022	0.966590
	N235	N	0.317600	0.393914	0.039222
	N236	N	0.960935	0.660581	0.417694
	N237	N	0.033626	0.658995	0.588898
	N238	N	0.959972	0.304761	0.589228
	N239	N	0.033168	0.304206	0.418203
	N240	N	0.961879	0.394041	0.684943
	N241	N	0.031927	0.570101	0.685747
	N242	N	0.962689	0.569675	0.321897
	N243	N	0.032863	0.393728	0.322537
	N244	N	0.410521	0.663198	0.967082
	N245	N	0.584878	0.661472	0.038457
	N246	N	0.584352	0.300416	0.967006
	N247	N	0.412351	0.302156	0.040694
	N248	N	0.675854	0.947258	0.418662
	N249	N	0.677317	0.019023	0.592172
	N250	N	0.318736	0.945789	0.590125
	N251	N	0.317905	0.019440	0.418108
	N252	N	0.910060	0.445791	0.184001
	N253	N	0.085778	0.515771	0.182933
	N254	N	0.085507	0.445280	0.822449
	N255	N	0.910976	0.516837	0.823503
	N256	N	0.177209	0.895620	0.469409
	N257	N	0.177104	0.069768	0.540611
	N258	N	0.815862	0.070906	0.468661
	N259	N	0.816691	0.895577	0.540456
	N260	N	0.460301	0.160072	0.918702
	N261	N	0.533949	0.160098	0.090256
	N262	N	0.462565	0.802804	0.090670
	N263	N	0.534628	0.805174	0.918725
	N264	N	0.463085	0.895178	0.184793
	N265	N	0.533524	0.070031	0.184958
	N266	N	0.461691	0.071177	0.822203
	N267	N	0.532730	0.895174	0.822611
	N268	N	0.909523	0.164066	0.468185
	N269	N	0.083408	0.162880	0.540492
	N270	N	0.084140	0.801851	0.468990
	N271	N	0.911013	0.802528	0.540731
	N272	N	0.177786	0.444414	0.916228
	N273	N	0.176791	0.516714	0.088264
	N274	N	0.819564	0.444162	0.088176
	N275	N	0.818154	0.516359	0.915419
	O276	O	0.111964	0.826394	-0.088025
	H277	H	0.106826	0.858360	-0.096209
	H278	H	0.081809	0.819420	-0.080754
	O279	O	0.527621	0.287368	0.625880
	H280	H	0.539241	0.291009	0.621959
	H281	H	0.541906	0.272066	0.625112
	O282	O	0.487183	0.381667	0.350840
	H283	H	0.481625	0.385879	0.349738
	H284	H	0.482310	0.380914	0.347115
	O285	O	1.197024	0.784707	-0.114004
	H286	H	1.191978	0.771379	-0.137059
	H287	H	1.207834	0.774341	-0.104522
	O288	O	0.616137	0.398124	0.541250
	H289	H	0.605672	0.406130	0.530382
	H290	H	0.613032	0.395591	0.549184
	O291	O	0.643158	0.374926	0.359884
	H292	H	0.637040	0.393756	0.346925
	H293	H	0.629108	0.375564	0.364778
	O294	O	0.820478	1.155449	1.006901
	H295	H	0.808929	1.149579	1.001235
	H296	H	0.818658	1.170606	1.001499
	O297	O	0.289706	0.370927	0.634317
	H298	H	0.262442	0.357027	0.656684
	H299	H	0.301555	0.353034	0.644515
	O300	O	0.298777	0.623346	0.299260
	H301	H	0.285196	0.632296	0.291367
	H302	H	0.291500	0.627196	0.317767
	O303	O	0.351096	0.685672	0.433891
	H304	H	0.350483	0.697560	0.419866
	H305	H	0.350163	0.668728	0.434304
	O306	O	-0.207048	-0.098318	1.210242
	H307	H	-0.226521	-0.094159	1.238466
	H308	H	-0.196506	-0.067279	1.214994
	O309	O	1.139669	-0.100766	0.166468
	H310	H	1.132084	-0.105252	0.161771
	H311	H	1.135672	-0.088175	0.149892
	O312	O	-0.147525	0.927754	1.041384
	H313	H	-0.127504	0.927172	1.042035
	H314	H	-0.151984	0.942580	1.049058
	O315	O	1.149077	0.933011	-0.186969
	H316	H	1.161047	0.932914	-0.209550
	H317	H	1.153081	0.908596	-0.178634
	O318	O	0.036014	0.139258	0.104093
	H319	H	0.048857	0.158836	0.115463
	H320	H	0.045396	0.147708	0.087919
	O321	O	0.392303	0.584604	0.551873
	H322	H	0.390235	0.586790	0.556326
	H323	H	0.376763	0.588356	0.561525
	O324	O	1.041306	0.083625	1.009039
	H325	H	1.047141	0.091069	1.019491
	H326	H	1.032217	0.097183	0.983022
	O327	O	0.118300	1.130481	-0.085101
	H328	H	0.110922	1.114048	-0.100037
	H329	H	0.108068	1.137517	-0.082045
	O330	O	0.058461	1.011784	0.902482
	H331	H	0.064355	1.012167	0.902675
	H332	H	0.048480	1.008099	0.894815
	O333	O	-0.107195	0.858467	-0.102740
	H334	H	-0.102800	0.843836	-0.105863
	H335	H	-0.119040	0.850779	-0.090467
	O336	O	1.183731	0.854760	0.128051
	H337	H	1.180844	0.868963	0.111167
	H338	H	1.167748	0.856414	0.118374
	O339	O	-0.188916	0.886627	1.044516
	H340	H	-0.186455	0.882293	1.039032
	H341	H	-0.202387	0.889074	1.046283
	O342	O	0.511727	0.562903	0.475406
	H343	H	0.501147	0.576025	0.472310
	H344	H	0.500237	0.560408	0.475854
	O345	O	-0.029998	0.091959	0.826785
	H346	H	-0.046529	0.099383	0.819814
	H347	H	-0.047612	0.095050	0.819187
	O348	O	0.568427	0.294787	0.463229
	H349	H	0.582142	0.289036	0.463271
	H350	H	0.541132	0.300882	0.456700
	O351	O	1.010426	1.112824	-0.047646
	H352	H	1.015524	1.113670	-0.046070
	H353	H	1.013856	1.105138	-0.042524
	O354	O	0.891694	0.949924	1.106361
	H355	H	0.891074	0.944431	1.101106
	H356	H	0.897509	0.959808	1.110549
	O357	O	-0.316409	0.646422	-0.317058
	H358	H	-0.317079	0.624147	-0.305081
	H359	H	-0.315439	0.635171	-0.335790
	O360	O	0.378506	0.449542	0.565673
	H361	H	0.386026	0.445150	0.576444
	H362	H	0.366778	0.468483	0.563760
	O363	O	0.526715	-0.482840	0.522352
	H364	H	0.531113	-0.482357	0.511799
	H365	H	0.522104	-0.483344	0.523370
	O366	O	0.165438	0.180168	1.122822
	H367	H	0.172876	0.176646	1.124574
	H368	H	0.181107	0.183645	1.115469
	O369	O	1.450801	0.362082	0.323915
	H370	H	1.438874	0.365836	0.334341
	H371	H	1.447327	0.357747	0.309441
	O372	O	0.299681	0.475324	0.338269
	H373	H	0.297927	0.489860	0.331882
	H374	H	0.290949	0.485132	0.342364
	O375	O	-0.049640	-0.228837	1.214492
	H376	H	-0.089250	-0.213473	1.214165
	H377	H	-0.051546	-0.252764	1.240947
	O378	O	0.414774	0.624599	0.588628
	H379	H	0.397777	0.637614	0.589955
	H380	H	0.408079	0.614287	0.573051
	O381	O	0.133456	1.078472	0.159055
	H382	H	0.148283	1.085654	0.151273
	H383	H	0.121106	1.074524	0.146528
	O384	O	0.617556	0.651785	0.362679
	H385	H	0.609301	0.624729	0.368195
	H386	H	0.590374	0.656684	0.378115
	O387	O	0.686543	0.655258	0.543400
	H388	H	0.690529	0.659163	0.553347
	H389	H	0.685934	0.661389	0.537865
	O390	O	0.965540	0.842745	-0.184211
	H391	H	0.951875	0.852969	-0.172793
	H392	H	0.971721	0.824527	-0.189274
	O393	O	1.014888	-0.032377	1.090321
	H394	H	1.018865	-0.038996	1.088697
	H395	H	1.013148	-0.025643	1.084523
	O396	O	0.380986	0.441356	0.549186
	H397	H	0.376067	0.445900	0.537609
	H398	H	0.393323	0.441970	0.546430
	O399	O	0.533460	0.473753	0.603882
	H400	H	0.526025	0.475284	0.582610
	H401	H	0.546669	0.483992	0.604721
	O402	O	0.940197	1.117944	0.022157
	H403	H	0.938344	1.114414	0.020271
	H404	H	0.943577	1.110140	0.019972
	O405	O	0.453215	0.652329	0.682133
	H406	H	0.466324	0.665244	0.694039
	H407	H	0.452950	0.640870	0.668111
	O408	O	0.405267	0.418922	0.511935
	H409	H	0.400196	0.412261	0.518230
	H410	H	0.414324	0.414450	0.509034
	O411	O	1.017841	0.920245	1.070521
	H412	H	1.030720	0.921343	1.078413
	H413	H	0.987775	0.918622	1.076365
	O414	O	0.504657	0.616848	0.436717
	H415	H	0.505188	0.624350	0.433549
	H416	H	0.515052	0.613199	0.438139
	O417	O	0.681735	1.316497	0.403227
	H418	H	0.702810	1.302692	0.391474
	H419	H	0.683857	1.340731	0.387915
	O420	O	-0.181204	0.844473	1.128838
	H421	H	-0.193133	0.856513	1.136542
	H422	H	-0.194540	0.840019	1.150260
	O423	O	0.078335	0.902237	0.042026
	H424	H	0.077160	0.894508	0.052232
	H425	H	0.076130	0.894599	0.043884
	O426	O	0.656006	0.455705	0.702681
	H427	H	0.663523	0.445335	0.708184
	H428	H	0.653219	0.449551	0.695998
	O429	O	0.537368	0.598646	0.316741
	H430	H	0.513500	0.594206	0.316923
	H431	H	0.527868	0.612974	0.314460
	O432	O	0.829768	0.124927	0.825447
	H433	H	0.833040	0.111170	0.831415
	H434	H	0.809219	0.117318	0.828912
	O435	O	0.326667	0.299042	0.673292
	H436	H	0.362150	0.305238	0.673668
	H437	H	0.316304	0.298442	0.662362
	O438	O	-0.087937	0.963831	0.861269
	H439	H	-0.086043	0.956658	0.858770
	H440	H	-0.078862	0.952212	0.857865
	O441	O	0.650112	0.502432	0.498518
	H442	H	0.649240	0.490305	0.502666
	H443	H	0.635171	0.503951	0.502036
