data_Molecule from HDF5

_cell_length_a		16.353331
_cell_length_b		16.298493
_cell_length_c		16.093300
_cell_angle_alpha	90.382592
_cell_angle_beta	90.326492
_cell_angle_gamma	90.193854
_symmetry_space_group_name_H-M	'P 1'
_symmetry_Int_Tables_number		1

loop_
	_symmetry_equiv_pos_as_xyz
	x,y,z

loop_
	_atom_site_label
	_atom_site_type_symbol
	_atom_site_fract_x
	_atom_site_fract_y
	_atom_site_fract_z
	H0	H	0.400368	0.829305	0.708900
	H1	H	0.596213	0.157002	0.714344
	H2	H	0.594717	0.829800	0.282756
	H3	H	0.400012	0.157294	0.285003
	H4	H	0.711011	0.391020	0.833431
	H5	H	0.714771	0.595567	0.162388
	H6	H	0.282600	0.590642	0.833099
	H7	H	0.283831	0.391839	0.161918
	H8	H	0.837089	0.709357	0.396051
	H9	H	0.161195	0.711159	0.604064
	H10	H	0.837413	0.274698	0.600005
	H11	H	0.161010	0.275465	0.399020
	H12	H	0.835129	0.395195	0.710113
	H13	H	0.162417	0.590883	0.714845
	H14	H	0.836032	0.590017	0.282634
	H15	H	0.161952	0.393764	0.284241
	H16	H	0.396954	0.705731	0.832729
	H17	H	0.600221	0.710597	0.161875
	H18	H	0.595571	0.276829	0.833364
	H19	H	0.397363	0.277825	0.162005
	H20	H	0.716654	0.831842	0.393058
	H21	H	0.716731	0.156220	0.602651
	H22	H	0.281820	0.831495	0.598808
	H23	H	0.279668	0.155581	0.396489
	H24	H	0.901140	0.328229	0.209849
	H25	H	0.099297	0.655672	0.215088
	H26	H	0.092276	0.327994	0.784583
	H27	H	0.901890	0.657365	0.785810
	H28	H	0.213566	0.890523	0.334960
	H29	H	0.216102	0.095075	0.663096
	H30	H	0.783822	0.092466	0.334086
	H31	H	0.783922	0.893763	0.663276
	H32	H	0.336369	0.208536	0.894890
	H33	H	0.658910	0.212075	0.103063
	H34	H	0.335830	0.775837	0.097381
	H35	H	0.659681	0.775501	0.896169
	H36	H	0.334925	0.893841	0.211933
	H37	H	0.659815	0.094134	0.215891
	H38	H	0.334943	0.088299	0.783466
	H39	H	0.661175	0.895621	0.784177
	H40	H	0.897329	0.207238	0.334964
	H41	H	0.100102	0.209207	0.663584
	H42	H	0.098697	0.776051	0.335145
	H43	H	0.900202	0.779490	0.663861
	H44	H	0.215188	0.330461	0.892648
	H45	H	0.218043	0.653944	0.102097
	H46	H	0.780066	0.329999	0.097968
	H47	H	0.780089	0.654991	0.895654
	H48	H	0.406099	0.112992	0.599930
	H49	H	0.596045	0.877533	0.585222
	H50	H	0.592146	0.106799	0.416656
	H51	H	0.407812	0.876964	0.401166
	H52	H	0.586924	0.404834	0.114769
	H53	H	0.594911	0.586538	0.876843
	H54	H	0.403738	0.575397	0.112696
	H55	H	0.410253	0.401388	0.881605
	H56	H	0.114211	0.582411	0.407422
	H57	H	0.883053	0.586062	0.592942
	H58	H	0.115971	0.396234	0.591371
	H59	H	0.880332	0.393643	0.401591
	H60	H	0.113154	0.401146	0.587326
	H61	H	0.883084	0.589275	0.589748
	H62	H	0.115704	0.587592	0.407076
	H63	H	0.884963	0.397765	0.410638
	H64	H	0.417321	0.586232	0.113631
	H65	H	0.590789	0.576409	0.882694
	H66	H	0.589370	0.399219	0.116191
	H67	H	0.406209	0.393768	0.878673
	H68	H	0.598440	0.111822	0.404647
	H69	H	0.594609	0.874822	0.593910
	H70	H	0.415520	0.105700	0.585993
	H71	H	0.406451	0.880410	0.410999
	H72	H	0.906428	0.607325	0.086710
	H73	H	0.098938	0.376224	0.081136
	H74	H	0.091645	0.609209	0.904910
	H75	H	0.900905	0.376043	0.904792
	H76	H	0.097186	0.905377	0.617379
	H77	H	0.086818	0.086001	0.382237
	H78	H	0.902454	0.087956	0.619767
	H79	H	0.908719	0.902775	0.381976
	H80	H	0.610867	0.083756	0.915259
	H81	H	0.383652	0.088314	0.084001
	H82	H	0.614413	0.898243	0.090018
	H83	H	0.380565	0.893879	0.905442
	H84	H	0.611212	0.902369	0.085344
	H85	H	0.383528	0.080418	0.089755
	H86	H	0.614160	0.080564	0.902536
	H87	H	0.383397	0.900028	0.905300
	H88	H	0.906495	0.078954	0.615152
	H89	H	0.091928	0.082674	0.380758
	H90	H	0.086601	0.906409	0.614057
	H91	H	0.907907	0.897419	0.381192
	H92	H	0.089014	0.606911	0.910064
	H93	H	0.094183	0.372385	0.099154
	H94	H	0.903941	0.609535	0.091143
	H95	H	0.903384	0.376272	0.902285
	H96	H	0.398841	0.110479	0.583428
	H97	H	0.587805	0.879024	0.588929
	H98	H	0.584496	0.109002	0.404394
	H99	H	0.399439	0.876335	0.405878
	H100	H	0.592987	0.404118	0.115897
	H101	H	0.583343	0.586845	0.881317
	H102	H	0.401388	0.592014	0.119654
	H103	H	0.401631	0.402466	0.878577
	H104	H	0.112948	0.585638	0.412340
	H105	H	0.884289	0.585267	0.587848
	H106	H	0.115578	0.403265	0.594479
	H107	H	0.883974	0.403423	0.402501
	H108	H	0.907887	0.607800	0.091309
	H109	H	0.081742	0.380017	0.087379
	H110	H	0.095124	0.608495	0.910439
	H111	H	0.904728	0.377705	0.906012
	H112	H	0.090058	0.896829	0.617518
	H113	H	0.087285	0.079976	0.384081
	H114	H	0.912652	0.087853	0.615948
	H115	H	0.903810	0.901035	0.381727
	H116	H	0.615794	0.093167	0.906817
	H117	H	0.379361	0.088376	0.093019
	H118	H	0.613158	0.904373	0.091960
	H119	H	0.380472	0.897839	0.899473
	C120	C	0.377446	0.002023	0.618698
	C121	C	0.621492	0.984965	0.620296
	C122	C	0.620096	0.001698	0.377234
	C123	C	0.375469	0.985156	0.376483
	C124	C	0.618526	0.371988	0.006869
	C125	C	0.619537	0.613910	0.989169
	C126	C	0.377217	0.613128	0.006406
	C127	C	0.376827	0.370579	0.988699
	C128	C	0.007208	0.613639	0.378036
	C129	C	0.990851	0.615599	0.621130
	C130	C	0.007060	0.371206	0.619603
	C131	C	0.990186	0.369184	0.376166
	C132	C	0.876929	0.500790	0.118867
	C133	C	0.121612	0.483544	0.120373
	C134	C	0.119753	0.500615	0.877401
	C135	C	0.875104	0.484665	0.875339
	C136	C	0.120307	0.871629	0.508217
	C137	C	0.119650	0.113456	0.490542
	C138	C	0.877753	0.113790	0.507986
	C139	C	0.877306	0.871458	0.490219
	C140	C	0.506227	0.113737	0.877822
	C141	C	0.488866	0.115801	0.120132
	C142	C	0.506167	0.871399	0.119046
	C143	C	0.489204	0.869172	0.874747
	C144	C	0.379812	0.878775	0.672877
	C145	C	0.618060	0.107955	0.676855
	C146	C	0.616373	0.879109	0.320340
	C147	C	0.378660	0.108297	0.322076
	C148	C	0.673122	0.372055	0.882742
	C149	C	0.676452	0.614550	0.112936
	C150	C	0.320547	0.611226	0.882639
	C151	C	0.321304	0.372356	0.112421
	C152	C	0.885372	0.670153	0.377424
	C153	C	0.112882	0.672031	0.622348
	C154	C	0.885450	0.314154	0.618649
	C155	C	0.112546	0.313675	0.378547
	C156	C	0.884399	0.373836	0.673558
	C157	C	0.113226	0.612589	0.677921
	C158	C	0.884819	0.610853	0.320878
	C159	C	0.113160	0.372563	0.321748
	C160	C	0.377655	0.668376	0.882360
	C161	C	0.619300	0.671753	0.112780
	C162	C	0.615847	0.314922	0.882841
	C163	C	0.377738	0.315226	0.112510
	C164	C	0.677069	0.880102	0.375379
	C165	C	0.678028	0.107494	0.621124
	C166	C	0.320654	0.879781	0.618002
	C167	C	0.318856	0.107184	0.377460
	C168	C	0.879855	0.377543	0.173191
	C169	C	0.119745	0.606509	0.177236
	C170	C	0.114675	0.377395	0.821348
	C171	C	0.879344	0.607833	0.821501
	C172	C	0.175640	0.871418	0.384272
	C173	C	0.176833	0.113695	0.614324
	C174	C	0.821413	0.112476	0.383728
	C175	C	0.821530	0.873543	0.613947
	C176	C	0.384435	0.169559	0.876690
	C177	C	0.610755	0.172722	0.121423
	C178	C	0.384297	0.814349	0.117461
	C179	C	0.611367	0.814072	0.876643
	C180	C	0.383766	0.873216	0.174415
	C181	C	0.611097	0.114168	0.177679
	C182	C	0.383791	0.109928	0.821057
	C183	C	0.612074	0.873632	0.820633
	C184	C	0.878175	0.169150	0.384024
	C185	C	0.119503	0.170805	0.614471
	C186	C	0.118408	0.814586	0.384262
	C187	C	0.879493	0.816720	0.614337
	C188	C	0.175285	0.378256	0.875850
	C189	C	0.178808	0.605659	0.120872
	C190	C	0.819564	0.378466	0.117597
	C191	C	0.819088	0.606741	0.876537
	C192	C	0.400162	0.087573	0.596310
	C193	C	0.599405	0.899337	0.596303
	C194	C	0.598164	0.087086	0.401448
	C195	C	0.398076	0.899986	0.399142
	C196	C	0.596265	0.395703	0.093336
	C197	C	0.596297	0.590153	0.902717
	C198	C	0.400608	0.591297	0.093053
	C199	C	0.399372	0.392712	0.902044
	C200	C	0.092176	0.591643	0.402046
	C201	C	0.905529	0.593402	0.597037
	C202	C	0.092751	0.393678	0.597463
	C203	C	0.905042	0.391562	0.398409
	C204	C	0.899502	0.586149	0.096215
	C205	C	0.098292	0.398115	0.096287
	C206	C	0.098236	0.586043	0.901463
	C207	C	0.896612	0.398919	0.897744
	C208	C	0.097761	0.895803	0.594145
	C209	C	0.095766	0.089850	0.404537
	C210	C	0.900598	0.091645	0.594454
	C211	C	0.900174	0.893831	0.403818
	C212	C	0.591499	0.092134	0.901427
	C213	C	0.404036	0.092567	0.095883
	C214	C	0.591068	0.894812	0.096060
	C215	C	0.403630	0.890723	0.896778
	Zn216	Zn	0.497927	-0.006996	0.747355
	Zn217	Zn	0.496924	-0.006045	0.247985
	Zn218	Zn	0.746575	0.493133	-0.002468
	Zn219	Zn	0.249678	0.491516	-0.002018
	Zn220	Zn	-0.000622	0.744086	0.499707
	Zn221	Zn	-0.001289	0.241181	0.499184
	Zn222	Zn	-0.001724	0.492584	0.748179
	Zn223	Zn	-0.000429	0.491857	0.248132
	Zn224	Zn	0.498300	0.741338	-0.002330
	Zn225	Zn	0.497586	0.243618	-0.001300
	Zn226	Zn	0.750208	-0.006285	0.498424
	Zn227	Zn	0.247709	-0.006688	0.498935
	N228	N	0.414671	0.955772	0.673435
	N229	N	0.583622	0.031027	0.676391
	N230	N	0.581467	0.955744	0.321416
	N231	N	0.413058	0.031396	0.321275
	N232	N	0.674919	0.406832	0.960773
	N233	N	0.676611	0.579296	0.034872
	N234	N	0.320209	0.577537	0.960698
	N235	N	0.320589	0.405945	0.034237
	N236	N	0.962436	0.672253	0.412292
	N237	N	0.035793	0.674307	0.587973
	N238	N	0.962934	0.312339	0.585887
	N239	N	0.035190	0.311621	0.411834
	N240	N	0.960870	0.408894	0.673909
	N241	N	0.036294	0.578102	0.677191
	N242	N	0.961517	0.576494	0.321088
	N243	N	0.036139	0.405987	0.319922
	N244	N	0.412289	0.669644	0.960459
	N245	N	0.584576	0.671379	0.034880
	N246	N	0.582493	0.314708	0.961286
	N247	N	0.411529	0.313845	0.034503
	N248	N	0.679263	0.957259	0.410182
	N249	N	0.680284	0.029727	0.586701
	N250	N	0.319022	0.957257	0.585131
	N251	N	0.316665	0.029548	0.410459
	N252	N	0.914528	0.454634	0.174304
	N253	N	0.084839	0.529622	0.176905
	N254	N	0.080600	0.454370	0.822343
	N255	N	0.913222	0.530840	0.820539
	N256	N	0.176888	0.906389	0.462254
	N257	N	0.177054	0.078848	0.536406
	N258	N	0.821033	0.078734	0.461816
	N259	N	0.820049	0.906687	0.535601
	N260	N	0.461657	0.171956	0.911344
	N261	N	0.533813	0.173917	0.086371
	N262	N	0.461459	0.813211	0.083644
	N263	N	0.533964	0.811129	0.909218
	N264	N	0.460664	0.907723	0.175751
	N265	N	0.534287	0.079411	0.176955
	N266	N	0.460465	0.075931	0.821644
	N267	N	0.534991	0.907047	0.819140
	N268	N	0.912415	0.170396	0.462239
	N269	N	0.084196	0.170371	0.536718
	N270	N	0.084518	0.814686	0.462239
	N271	N	0.913379	0.815231	0.536374
	N272	N	0.178854	0.455983	0.909721
	N273	N	0.179840	0.528186	0.086098
	N274	N	0.817616	0.456041	0.084492
	N275	N	0.816097	0.528949	0.909091
	O276	O	0.444314	0.601866	0.496557
	H277	H	0.458462	0.591762	0.497128
	H278	H	0.464264	0.602906	0.488214
	O279	O	0.516321	0.502229	0.518918
	H280	H	0.516083	0.503772	0.522319
	H281	H	0.521471	0.500093	0.515953
	O282	O	1.024073	0.990172	-0.000226
	H283	H	1.013751	0.984806	-0.008178
	H284	H	1.016705	0.991934	-0.010814
	O285	O	0.929484	-0.073345	1.018120
	H286	H	0.937401	-0.073893	1.023412
	H287	H	0.928305	-0.069965	1.017607
	O288	O	0.585544	0.579367	0.571396
	H289	H	0.599874	0.597396	0.578716
	H290	H	0.597983	0.576455	0.577565
	O291	O	0.436035	0.497999	0.414522
	H292	H	0.444631	0.491658	0.420066
	H293	H	0.444034	0.504021	0.409195
	O294	O	0.514671	0.442352	0.504726
	H295	H	0.519971	0.439083	0.508440
	H296	H	0.510618	0.444806	0.508374
	O297	O	-0.086655	-0.108406	1.045859
	H298	H	-0.089935	-0.108715	1.052926
	H299	H	-0.100453	-0.100286	1.044662
	O300	O	0.551987	0.535171	0.513729
	H301	H	0.537961	0.528976	0.499387
	H302	H	0.533998	0.536593	0.518453
	O303	O	1.075827	1.158707	0.091343
	H304	H	1.098068	1.162620	0.091233
	H305	H	1.077096	1.161996	0.106064
	O306	O	0.066454	0.905882	0.984672
	H307	H	0.078380	0.901298	0.986922
	H308	H	0.064905	0.903406	0.985517
	O309	O	0.539319	0.472049	0.510636
	H310	H	0.550189	0.476282	0.519566
	H311	H	0.547532	0.456073	0.516387
	O312	O	-0.084594	-0.025133	0.000282
	H313	H	-0.087557	-0.027661	0.008953
	H314	H	-0.071211	-0.027629	0.005236
	O315	O	0.559723	-0.411913	0.484712
	H316	H	0.565107	-0.399281	0.495462
	H317	H	0.545854	-0.408595	0.468069
	O318	O	0.935186	0.997480	0.987976
	H319	H	0.929304	0.996936	0.992033
	H320	H	0.950080	1.007058	0.986639
	O321	O	-0.049127	-0.016019	0.987454
	H322	H	-0.048373	-0.016711	0.979198
	H323	H	-0.058251	-0.012129	0.996011
	O324	O	0.510180	0.473445	0.563302
	H325	H	0.500851	0.472737	0.553847
	H326	H	0.509466	0.489720	0.563142
	O327	O	0.137506	-0.082942	0.005661
	H328	H	0.132986	-0.075698	-0.000456
	H329	H	0.126498	-0.076994	0.005738
	O330	O	0.534392	0.416129	0.485553
	H331	H	0.551017	0.404598	0.489132
	H332	H	0.539522	0.419588	0.487177
	O333	O	-0.021467	0.985931	1.018162
	H334	H	-0.022732	0.995360	1.014545
	H335	H	-0.025118	0.993923	1.022680
	O336	O	0.066482	0.005844	0.002671
	H337	H	0.055496	0.002757	0.004922
	H338	H	0.075993	-0.008194	0.003687
	O339	O	0.614640	0.588162	0.535037
	H340	H	0.605371	0.576479	0.529531
	H341	H	0.618950	0.612668	0.521403
	O342	O	0.977736	1.113112	1.009768
	H343	H	0.983427	1.110104	1.018430
	H344	H	0.989610	1.106281	1.011764
	O345	O	1.022056	2.033979	0.034800
	H346	H	1.021605	2.039512	0.035811
	H347	H	1.011035	2.023651	0.023191
	O348	O	0.540591	0.584235	0.468837
	H349	H	0.523319	0.591665	0.464836
	H350	H	0.532612	0.591642	0.472641
	O351	O	0.438233	0.552445	0.574658
	H352	H	0.433283	0.558658	0.578475
	H353	H	0.428487	0.546105	0.569831
	O354	O	0.560071	0.518022	0.449644
	H355	H	0.565948	0.512046	0.452240
	H356	H	0.559597	0.524717	0.449920
	O357	O	0.980097	0.047163	0.928887
	H358	H	0.985728	0.043694	0.938596
	H359	H	0.973729	0.053051	0.925684
	O360	O	0.571667	0.422020	0.506202
	H361	H	0.571715	0.421897	0.503011
	H362	H	0.569698	0.426085	0.514394
	O363	O	0.556602	0.457378	0.400434
	H364	H	0.570930	0.468779	0.403729
	H365	H	0.557328	0.449519	0.405200
	O366	O	0.898003	0.993724	0.973896
	H367	H	0.888826	1.006689	0.960283
	H368	H	0.892995	0.985630	0.965985
	O369	O	1.060368	-0.043200	0.964193
	H370	H	1.068439	-0.042067	0.971146
	H371	H	1.053653	-0.041004	0.970755
	O372	O	0.061832	0.095337	0.059690
	H373	H	0.070271	0.094174	0.042640
	H374	H	0.063808	0.088683	0.063264
	O375	O	0.926819	0.045073	0.066442
	H376	H	0.931871	0.041421	0.071756
	H377	H	0.924340	0.041391	0.054863
	O378	O	0.382127	0.596409	0.483802
	H379	H	0.375625	0.595721	0.483304
	H380	H	0.381728	0.593686	0.478350
	O381	O	1.073115	0.874846	0.011189
	H382	H	1.079448	0.878779	0.010249
	H383	H	1.064684	0.873806	0.013784
