data_Molecule from HDF5

_cell_length_a		16.172810
_cell_length_b		16.388333
_cell_length_c		16.183939
_cell_angle_alpha	90.108516
_cell_angle_beta	89.958389
_cell_angle_gamma	90.175601
_symmetry_space_group_name_H-M	'P 1'
_symmetry_Int_Tables_number		1

loop_
	_symmetry_equiv_pos_as_xyz
	x,y,z

loop_
	_atom_site_label
	_atom_site_type_symbol
	_atom_site_fract_x
	_atom_site_fract_y
	_atom_site_fract_z
	H0	H	0.388879	0.832562	0.710197
	H1	H	0.587989	0.158288	0.709131
	H2	H	0.590020	0.834111	0.278599
	H3	H	0.392724	0.158870	0.280063
	H4	H	0.698987	0.399271	0.827398
	H5	H	0.702178	0.592192	0.158094
	H6	H	0.278658	0.591005	0.827654
	H7	H	0.275256	0.398764	0.158014
	H8	H	0.825825	0.710419	0.392645
	H9	H	0.153722	0.711042	0.593631
	H10	H	0.826267	0.278745	0.593262
	H11	H	0.154145	0.281278	0.391286
	H12	H	0.823572	0.399643	0.703412
	H13	H	0.154467	0.592987	0.706329
	H14	H	0.823415	0.590511	0.281998
	H15	H	0.154611	0.399646	0.278379
	H16	H	0.387918	0.711623	0.830549
	H17	H	0.589425	0.709627	0.158025
	H18	H	0.589416	0.279127	0.829698
	H19	H	0.388828	0.281006	0.158107
	H20	H	0.703794	0.832997	0.395132
	H21	H	0.705924	0.157930	0.592980
	H22	H	0.273918	0.833041	0.592606
	H23	H	0.276147	0.158780	0.396232
	H24	H	0.888898	0.332885	0.207860
	H25	H	0.086592	0.658406	0.207638
	H26	H	0.086396	0.332952	0.778266
	H27	H	0.892115	0.658848	0.779271
	H28	H	0.203778	0.898498	0.328883
	H29	H	0.202614	0.093685	0.658846
	H30	H	0.777482	0.091309	0.328709
	H31	H	0.777991	0.898838	0.658589
	H32	H	0.325461	0.208855	0.894386
	H33	H	0.652852	0.212541	0.094923
	H34	H	0.325860	0.779192	0.096357
	H35	H	0.652755	0.779900	0.894528
	H36	H	0.325397	0.898763	0.207823
	H37	H	0.655734	0.092407	0.205399
	H38	H	0.325293	0.091804	0.781570
	H39	H	0.654607	0.897730	0.781714
	H40	H	0.889871	0.209826	0.329474
	H41	H	0.092665	0.213584	0.656442
	H42	H	0.091100	0.779170	0.329352
	H43	H	0.888313	0.779444	0.656713
	H44	H	0.203016	0.332630	0.893813
	H45	H	0.204553	0.658042	0.092661
	H46	H	0.774334	0.331985	0.089188
	H47	H	0.774566	0.658139	0.894834
	H48	H	0.401830	0.112256	0.597297
	H49	H	0.587946	0.877140	0.590067
	H50	H	0.582792	0.112783	0.397046
	H51	H	0.395140	0.881992	0.407839
	H52	H	0.578259	0.404769	0.109004
	H53	H	0.575696	0.592656	0.876163
	H54	H	0.397519	0.590416	0.111301
	H55	H	0.403814	0.405720	0.879555
	H56	H	0.103955	0.575102	0.396209
	H57	H	0.870242	0.590400	0.588970
	H58	H	0.108689	0.394695	0.581835
	H59	H	0.873985	0.400257	0.405053
	H60	H	0.102761	0.409716	0.578072
	H61	H	0.872645	0.591445	0.581745
	H62	H	0.112384	0.598536	0.391380
	H63	H	0.872618	0.404784	0.399534
	H64	H	0.394663	0.587193	0.111867
	H65	H	0.585945	0.591807	0.873768
	H66	H	0.579221	0.399277	0.111780
	H67	H	0.398918	0.390976	0.873838
	H68	H	0.582951	0.109770	0.403872
	H69	H	0.578982	0.879779	0.590731
	H70	H	0.402386	0.107759	0.580742
	H71	H	0.391244	0.876851	0.396862
	H72	H	0.893038	0.611240	0.085533
	H73	H	0.070930	0.383393	0.082769
	H74	H	0.083391	0.612187	0.897908
	H75	H	0.883126	0.372677	0.888121
	H76	H	0.080265	0.902172	0.610153
	H77	H	0.091086	0.101170	0.370261
	H78	H	0.892987	0.091134	0.613514
	H79	H	0.904516	0.897450	0.376804
	H80	H	0.607861	0.088236	0.899020
	H81	H	0.369364	0.102017	0.083409
	H82	H	0.611613	0.893036	0.092774
	H83	H	0.370167	0.896094	0.902340
	H84	H	0.605173	0.898755	0.075935
	H85	H	0.377523	0.079294	0.077546
	H86	H	0.608881	0.093061	0.903429
	H87	H	0.374719	0.904405	0.908445
	H88	H	0.899986	0.083465	0.609180
	H89	H	0.090108	0.076136	0.378348
	H90	H	0.081217	0.901805	0.611452
	H91	H	0.891459	0.898613	0.372881
	H92	H	0.081202	0.611035	0.899591
	H93	H	0.089901	0.379440	0.077116
	H94	H	0.893425	0.613126	0.090001
	H95	H	0.908793	0.381433	0.892787
	H96	H	0.387761	0.113091	0.587818
	H97	H	0.583052	0.880613	0.582360
	H98	H	0.587922	0.113523	0.401398
	H99	H	0.403144	0.881172	0.398467
	H100	H	0.584307	0.403137	0.111934
	H101	H	0.580848	0.583714	0.876873
	H102	H	0.398064	0.586048	0.109863
	H103	H	0.387814	0.403831	0.874183
	H104	H	0.103730	0.592710	0.414521
	H105	H	0.873323	0.583851	0.584762
	H106	H	0.109194	0.406589	0.593936
	H107	H	0.871110	0.397626	0.400116
	H108	H	0.896946	0.610934	0.087129
	H109	H	0.083941	0.376137	0.095514
	H110	H	0.084666	0.611961	0.901728
	H111	H	0.890458	0.382413	0.912387
	H112	H	0.081833	0.902917	0.609954
	H113	H	0.068643	0.091851	0.379631
	H114	H	0.903422	0.093062	0.610908
	H115	H	0.898136	0.909525	0.378401
	H116	H	0.606262	0.086547	0.906075
	H117	H	0.369481	0.084190	0.100799
	H118	H	0.606743	0.911131	0.090630
	H119	H	0.371414	0.906117	0.897901
	C120	C	0.367548	0.003913	0.616867
	C121	C	0.612204	0.986955	0.616284
	C122	C	0.612659	0.004525	0.372284
	C123	C	0.368456	0.987540	0.372531
	C124	C	0.609546	0.373866	0.002129
	C125	C	0.609969	0.616916	0.984538
	C126	C	0.367968	0.616569	0.002260
	C127	C	0.367581	0.372837	0.984801
	C128	C	-0.002089	0.616351	0.372298
	C129	C	0.980583	0.617330	0.614570
	C130	C	-0.001659	0.374517	0.613723
	C131	C	0.981045	0.373137	0.371157
	C132	C	0.866138	0.503898	0.115177
	C133	C	0.110177	0.487228	0.114515
	C134	C	0.111219	0.503944	0.870868
	C135	C	0.866296	0.486687	0.869750
	C136	C	0.110758	0.873988	0.501935
	C137	C	0.112001	0.117868	0.484931
	C138	C	0.869484	0.117015	0.502244
	C139	C	0.868555	0.873438	0.484639
	C140	C	0.498677	0.116765	0.873489
	C141	C	0.481194	0.117114	0.115493
	C142	C	0.498738	0.873337	0.115837
	C143	C	0.480688	0.873711	0.873778
	C144	C	0.369000	0.881186	0.671830
	C145	C	0.609120	0.109582	0.671285
	C146	C	0.609822	0.882353	0.317061
	C147	C	0.372328	0.110182	0.317987
	C148	C	0.663132	0.377386	0.877310
	C149	C	0.664843	0.613082	0.108854
	C150	C	0.314353	0.612886	0.877695
	C151	C	0.312720	0.377344	0.108788
	C152	C	0.874400	0.671859	0.373380
	C153	C	0.104753	0.672609	0.613183
	C154	C	0.874836	0.318086	0.612228
	C155	C	0.104977	0.319071	0.371873
	C156	C	0.873540	0.377883	0.667438
	C157	C	0.105093	0.614277	0.669350
	C158	C	0.873365	0.612573	0.318163
	C159	C	0.104999	0.377894	0.315601
	C160	C	0.369178	0.672640	0.879152
	C161	C	0.608848	0.671599	0.108799
	C162	C	0.608463	0.317954	0.878365
	C163	C	0.368729	0.318389	0.108627
	C164	C	0.666964	0.882000	0.374697
	C165	C	0.667782	0.109285	0.613733
	C166	C	0.311685	0.881483	0.613427
	C167	C	0.314306	0.110253	0.375719
	C168	C	0.868437	0.381264	0.169857
	C169	C	0.107366	0.609971	0.169595
	C170	C	0.107484	0.381556	0.815810
	C171	C	0.870616	0.609884	0.816333
	C172	C	0.166449	0.877403	0.378049
	C173	C	0.166071	0.114930	0.609191
	C174	C	0.814710	0.112835	0.378139
	C175	C	0.814182	0.877014	0.608751
	C176	C	0.374590	0.170870	0.874955
	C177	C	0.604478	0.173380	0.114054
	C178	C	0.375022	0.817582	0.115511
	C179	C	0.604060	0.818023	0.874588
	C180	C	0.374529	0.877158	0.170684
	C181	C	0.605767	0.113761	0.169029
	C182	C	0.374554	0.112503	0.818972
	C183	C	0.605087	0.876756	0.819054
	C184	C	0.870606	0.171740	0.378516
	C185	C	0.111487	0.174531	0.607986
	C186	C	0.110475	0.818146	0.378322
	C187	C	0.869190	0.817528	0.607867
	C188	C	0.165679	0.381419	0.873099
	C189	C	0.165892	0.609767	0.112443
	C190	C	0.811569	0.380842	0.111017
	C191	C	0.812348	0.609650	0.873676
	C192	C	0.390424	0.088989	0.595041
	C193	C	0.589938	0.901321	0.594207
	C194	C	0.590969	0.090109	0.394425
	C195	C	0.390073	0.902094	0.394475
	C196	C	0.587159	0.395763	0.088386
	C197	C	0.587457	0.595728	0.898035
	C198	C	0.390053	0.594212	0.088827
	C199	C	0.390097	0.393989	0.898323
	C200	C	0.084247	0.595059	0.394092
	C201	C	0.894435	0.595112	0.591786
	C202	C	0.084624	0.396885	0.591185
	C203	C	0.894799	0.394685	0.394590
	C204	C	0.887922	0.589553	0.093846
	C205	C	0.087933	0.401678	0.091857
	C206	C	0.089529	0.589696	0.893194
	C207	C	0.887543	0.401181	0.891430
	C208	C	0.087954	0.895695	0.588238
	C209	C	0.089809	0.096086	0.398314
	C210	C	0.892102	0.095638	0.588844
	C211	C	0.891405	0.895272	0.398165
	C212	C	0.585321	0.095412	0.896151
	C213	C	0.394462	0.094898	0.093652
	C214	C	0.585543	0.894912	0.093249
	C215	C	0.394309	0.895630	0.896272
	Zn216	Zn	0.489869	-0.005238	0.745857
	Zn217	Zn	0.490612	-0.004577	0.243565
	Zn218	Zn	0.737701	0.495336	-0.007201
	Zn219	Zn	0.240019	0.495723	-0.007101
	Zn220	Zn	-0.010380	0.745380	0.492959
	Zn221	Zn	-0.009162	0.245477	0.493066
	Zn222	Zn	-0.010867	0.496092	0.741760
	Zn223	Zn	-0.011536	0.495425	0.243565
	Zn224	Zn	0.488969	0.745131	-0.005648
	Zn225	Zn	0.489526	0.244921	-0.006035
	Zn226	Zn	0.741542	-0.004720	0.493680
	Zn227	Zn	0.239078	-0.003838	0.494383
	N228	N	0.402953	0.958165	0.674214
	N229	N	0.575624	0.032348	0.673291
	N230	N	0.576827	0.959419	0.315209
	N231	N	0.405219	0.032698	0.315807
	N232	N	0.664064	0.411556	0.955069
	N233	N	0.665749	0.579854	0.030669
	N234	N	0.313739	0.578673	0.955286
	N235	N	0.311733	0.410385	0.030720
	N236	N	0.952800	0.674461	0.406416
	N237	N	0.026460	0.674760	0.579868
	N238	N	0.953534	0.315865	0.579624
	N239	N	0.026969	0.315983	0.405740
	N240	N	0.951209	0.412382	0.668312
	N241	N	0.027049	0.580582	0.670177
	N242	N	0.950927	0.578671	0.317452
	N243	N	0.026869	0.410707	0.315144
	N244	N	0.401748	0.675069	0.957754
	N245	N	0.575408	0.674165	0.030601
	N246	N	0.575704	0.315839	0.956821
	N247	N	0.402122	0.315466	0.030426
	N248	N	0.668512	0.959100	0.408588
	N249	N	0.669792	0.031956	0.580373
	N250	N	0.310634	0.958780	0.580073
	N251	N	0.311843	0.033105	0.408920
	N252	N	0.901550	0.458672	0.172483
	N253	N	0.073523	0.532829	0.170905
	N254	N	0.074217	0.458741	0.814459
	N255	N	0.903352	0.532509	0.813637
	N256	N	0.166660	0.911561	0.455858
	N257	N	0.166463	0.080260	0.531655
	N258	N	0.813936	0.079586	0.456030
	N259	N	0.813829	0.911019	0.531251
	N260	N	0.452820	0.173548	0.908114
	N261	N	0.525964	0.175325	0.081491
	N262	N	0.453301	0.815118	0.082186
	N263	N	0.525862	0.816260	0.908286
	N264	N	0.452484	0.911112	0.170968
	N265	N	0.527907	0.079494	0.170207
	N266	N	0.452852	0.079717	0.817836
	N267	N	0.527331	0.910794	0.818536
	N268	N	0.904067	0.174332	0.456715
	N269	N	0.078604	0.176407	0.529609
	N270	N	0.076627	0.815861	0.456252
	N271	N	0.902714	0.815590	0.529591
	N272	N	0.168096	0.458585	0.906591
	N273	N	0.167941	0.532416	0.079058
	N274	N	0.810055	0.457999	0.077843
	N275	N	0.809544	0.532236	0.906254
	O276	O	0.552932	0.491111	0.476161
	H277	H	0.555698	0.505364	0.478872
	H278	H	0.555113	0.496484	0.476920
	O279	O	0.477559	0.521662	0.472698
	H280	H	0.472533	0.518199	0.479802
	H281	H	0.474370	0.517062	0.483772
	O282	O	0.504335	0.475539	0.422899
	H283	H	0.504700	0.477395	0.418487
	H284	H	0.504859	0.471791	0.416128
	O285	O	0.524212	1.443550	0.434571
	H286	H	0.523401	1.437116	0.436997
	H287	H	0.525980	1.449546	0.430297
	O288	O	0.487209	0.568688	0.475646
	H289	H	0.489527	0.566131	0.483120
	H290	H	0.474813	0.571719	0.476449
	O291	O	0.027831	-0.023867	0.990165
	H292	H	0.024732	-0.031525	0.988215
	H293	H	0.024834	-0.027693	1.000257
	O294	O	1.042678	0.026010	0.977310
	H295	H	1.039447	0.028758	0.975391
	H296	H	1.036038	0.026630	0.976312
	O297	O	0.458994	0.551976	0.409757
	H298	H	0.457251	0.549197	0.411028
	H299	H	0.464464	0.556236	0.409535
	O300	O	0.525169	0.535014	0.535398
	H301	H	0.517483	0.531202	0.522851
	H302	H	0.536036	0.535456	0.542492
	O303	O	0.070820	1.062305	0.043964
	H304	H	0.077637	1.064674	0.038591
	H305	H	0.074680	1.060606	0.050849
	O306	O	0.530315	0.465996	1.502470
	H307	H	0.542086	0.471312	1.501036
	H308	H	0.531482	0.471404	1.492342
	O309	O	0.414284	0.453395	0.545823
	H310	H	0.417609	0.444079	0.539650
	H311	H	0.418156	0.458335	0.543355
	O312	O	0.451756	0.579423	0.455409
	H313	H	0.449191	0.582268	0.459999
	H314	H	0.444239	0.575858	0.456580
	O315	O	1.083518	0.001819	1.031998
	H316	H	1.082073	0.010314	1.033703
	H317	H	1.078428	-0.001295	1.038603
	O318	O	0.040181	-0.027150	-0.000561
	H319	H	0.039199	-0.025816	-0.008440
	H320	H	0.042868	-0.032022	0.005895
	O321	O	1.038786	0.965183	1.000556
	H322	H	1.044881	0.961650	0.997228
	H323	H	1.041064	0.968696	0.999533
	O324	O	1.032238	-0.005180	0.016060
	H325	H	1.040790	-0.002452	0.017364
	H326	H	1.037029	-0.011473	0.015401
	O327	O	1.446492	0.502328	0.496439
	H328	H	1.441409	0.503684	0.491106
	H329	H	1.452934	0.499869	0.493083
	O330	O	0.476053	0.478019	0.447701
	H331	H	0.479208	0.468872	0.452220
	H332	H	0.478921	0.475249	0.447711
	O333	O	0.458977	0.502336	0.492981
	H334	H	0.459377	0.507577	0.497309
	H335	H	0.455068	0.505787	0.485212
