data_Molecule from HDF5

_cell_length_a		16.333538
_cell_length_b		16.403759
_cell_length_c		16.177657
_cell_angle_alpha	89.624832
_cell_angle_beta	89.681875
_cell_angle_gamma	90.017881
_symmetry_space_group_name_H-M	'P 1'
_symmetry_Int_Tables_number		1

loop_
	_symmetry_equiv_pos_as_xyz
	x,y,z

loop_
	_atom_site_label
	_atom_site_type_symbol
	_atom_site_fract_x
	_atom_site_fract_y
	_atom_site_fract_z
	H0	H	0.393663	0.822660	0.725592
	H1	H	0.595874	0.145889	0.719501
	H2	H	0.598971	0.820397	0.288969
	H3	H	0.399320	0.144224	0.288091
	H4	H	0.712935	0.382020	0.842177
	H5	H	0.712661	0.584154	0.167581
	H6	H	0.279577	0.584131	0.841474
	H7	H	0.276545	0.378001	0.167571
	H8	H	0.837378	0.705418	0.401906
	H9	H	0.158008	0.703825	0.610054
	H10	H	0.837339	0.261889	0.612023
	H11	H	0.159223	0.266784	0.402009
	H12	H	0.834308	0.383207	0.721472
	H13	H	0.160091	0.581516	0.720175
	H14	H	0.834867	0.587016	0.289042
	H15	H	0.159310	0.385170	0.288559
	H16	H	0.389848	0.703743	0.843514
	H17	H	0.597053	0.698648	0.167135
	H18	H	0.597853	0.266984	0.842302
	H19	H	0.391676	0.263076	0.167403
	H20	H	0.719175	0.822984	0.400604
	H21	H	0.715393	0.143732	0.606520
	H22	H	0.276216	0.823354	0.610529
	H23	H	0.279590	0.143978	0.400363
	H24	H	0.893363	0.323215	0.226512
	H25	H	0.097768	0.644776	0.219913
	H26	H	0.096313	0.320228	0.788987
	H27	H	0.896010	0.643275	0.786850
	H28	H	0.212583	0.886320	0.342152
	H29	H	0.212551	0.084412	0.668217
	H30	H	0.780080	0.088209	0.342600
	H31	H	0.777843	0.879921	0.666990
	H32	H	0.335087	0.201882	0.901767
	H33	H	0.656557	0.201632	0.108399
	H34	H	0.335066	0.762944	0.111643
	H35	H	0.654578	0.760893	0.897667
	H36	H	0.334397	0.881987	0.224053
	H37	H	0.660067	0.080397	0.218393
	H38	H	0.334204	0.084051	0.788238
	H39	H	0.658405	0.884761	0.789402
	H40	H	0.895595	0.203332	0.343317
	H41	H	0.098085	0.197860	0.669089
	H42	H	0.103525	0.766529	0.344206
	H43	H	0.893803	0.765697	0.667814
	H44	H	0.215700	0.321641	0.901648
	H45	H	0.215942	0.642473	0.106957
	H46	H	0.777633	0.321884	0.109186
	H47	H	0.775857	0.642794	0.898359
	H48	H	0.409942	0.097434	0.597314
	H49	H	0.597036	0.865245	0.599535
	H50	H	0.590293	0.099162	0.406480
	H51	H	0.414745	0.872597	0.419633
	H52	H	0.579946	0.393220	0.118814
	H53	H	0.589647	0.574118	0.887585
	H54	H	0.404465	0.575580	0.121664
	H55	H	0.408263	0.385661	0.887866
	H56	H	0.115174	0.578254	0.405467
	H57	H	0.883498	0.575277	0.593776
	H58	H	0.110093	0.391853	0.587144
	H59	H	0.883524	0.395252	0.417973
	H60	H	0.112751	0.398035	0.601731
	H61	H	0.883039	0.574602	0.595554
	H62	H	0.111552	0.582429	0.421594
	H63	H	0.882337	0.391440	0.415278
	H64	H	0.401499	0.567070	0.120399
	H65	H	0.584719	0.567549	0.891443
	H66	H	0.585642	0.383104	0.123517
	H67	H	0.399997	0.393785	0.887565
	H68	H	0.584094	0.095202	0.412997
	H69	H	0.579964	0.869838	0.601961
	H70	H	0.403532	0.096378	0.590424
	H71	H	0.394655	0.867245	0.423727
	H72	H	0.901833	0.596468	0.087033
	H73	H	0.082839	0.367930	0.101710
	H74	H	0.091711	0.594860	0.922373
	H75	H	0.912427	0.369408	0.912355
	H76	H	0.086946	0.890492	0.623416
	H77	H	0.080652	0.073643	0.392308
	H78	H	0.906540	0.083515	0.624648
	H79	H	0.908201	0.898640	0.390485
	H80	H	0.608332	0.069132	0.917889
	H81	H	0.379385	0.083049	0.092245
	H82	H	0.612491	0.889879	0.100142
	H83	H	0.378065	0.891719	0.909495
	H84	H	0.612012	0.883599	0.091422
	H85	H	0.387233	0.065172	0.088952
	H86	H	0.612466	0.074663	0.905226
	H87	H	0.381028	0.885837	0.921582
	H88	H	0.897084	0.067822	0.622422
	H89	H	0.089522	0.084911	0.385672
	H90	H	0.088192	0.894178	0.621853
	H91	H	0.913523	0.894064	0.390818
	H92	H	0.094666	0.599862	0.906414
	H93	H	0.083756	0.370802	0.091509
	H94	H	0.897804	0.600778	0.099700
	H95	H	0.900566	0.369778	0.923435
	H96	H	0.400030	0.100095	0.599101
	H97	H	0.587375	0.872327	0.585930
	H98	H	0.593967	0.097554	0.415749
	H99	H	0.403461	0.863529	0.404353
	H100	H	0.591984	0.394025	0.123401
	H101	H	0.581133	0.575131	0.889383
	H102	H	0.410809	0.570378	0.117658
	H103	H	0.410104	0.396117	0.892302
	H104	H	0.108540	0.567133	0.416276
	H105	H	0.882359	0.576587	0.595627
	H106	H	0.115238	0.382863	0.599120
	H107	H	0.882430	0.390555	0.420388
	H108	H	0.911038	0.595879	0.097139
	H109	H	0.092553	0.366552	0.096984
	H110	H	0.079286	0.594629	0.910799
	H111	H	0.897773	0.364109	0.909308
	H112	H	0.084893	0.893249	0.621884
	H113	H	0.095438	0.070960	0.388063
	H114	H	0.914931	0.068680	0.616944
	H115	H	0.907716	0.892062	0.388471
	H116	H	0.612649	0.083099	0.917258
	H117	H	0.379326	0.069476	0.107006
	H118	H	0.608529	0.894187	0.091044
	H119	H	0.383801	0.899212	0.919261
	C120	C	0.373764	-0.008185	0.627439
	C121	C	0.617954	0.975574	0.625786
	C122	C	0.620266	-0.009133	0.381879
	C123	C	0.375340	0.974489	0.384355
	C124	C	0.617122	0.360790	0.014221
	C125	C	0.616026	0.602903	0.996394
	C126	C	0.374221	0.602970	0.012953
	C127	C	0.374247	0.360329	0.996329
	C128	C	0.005532	0.606781	0.383884
	C129	C	0.989304	0.605314	0.626516
	C130	C	0.005725	0.360721	0.627120
	C131	C	0.989125	0.362585	0.385293
	C132	C	0.873433	0.491576	0.126849
	C133	C	0.117197	0.474548	0.126244
	C134	C	0.118134	0.490261	0.883032
	C135	C	0.873859	0.474034	0.883532
	C136	C	0.117822	0.863263	0.514745
	C137	C	0.118749	0.105475	0.496580
	C138	C	0.875924	0.105068	0.514063
	C139	C	0.877503	0.863111	0.496990
	C140	C	0.504411	0.105412	0.883400
	C141	C	0.488394	0.102799	0.125848
	C142	C	0.504608	0.859513	0.126956
	C143	C	0.487105	0.861290	0.884417
	C144	C	0.373995	0.870895	0.686330
	C145	C	0.616382	0.097059	0.682003
	C146	C	0.619711	0.869269	0.326143
	C147	C	0.378030	0.095838	0.326390
	C148	C	0.674552	0.362157	0.891146
	C149	C	0.674000	0.603379	0.118674
	C150	C	0.317498	0.603643	0.890460
	C151	C	0.315566	0.359198	0.118550
	C152	C	0.884972	0.665546	0.383397
	C153	C	0.110196	0.663615	0.628091
	C154	C	0.884867	0.302206	0.629161
	C155	C	0.110586	0.305536	0.383409
	C156	C	0.883473	0.362427	0.683915
	C157	C	0.111128	0.602973	0.683277
	C158	C	0.883617	0.606770	0.326969
	C159	C	0.110610	0.364640	0.326921
	C160	C	0.372505	0.663092	0.891634
	C161	C	0.616348	0.660287	0.118447
	C162	C	0.617065	0.304955	0.891175
	C163	C	0.373027	0.302300	0.118840
	C164	C	0.679178	0.870535	0.382184
	C165	C	0.675758	0.096168	0.625560
	C166	C	0.315393	0.871461	0.629106
	C167	C	0.318707	0.095795	0.382745
	C168	C	0.873916	0.371058	0.186654
	C169	C	0.117368	0.596036	0.182437
	C170	C	0.116866	0.368761	0.826644
	C171	C	0.875473	0.595031	0.825248
	C172	C	0.174998	0.865348	0.391424
	C173	C	0.174727	0.103990	0.619363
	C174	C	0.818553	0.106829	0.391690
	C175	C	0.817719	0.861616	0.618675
	C176	C	0.383239	0.162831	0.882947
	C177	C	0.609122	0.161579	0.126364
	C178	C	0.383221	0.802243	0.129512
	C179	C	0.607355	0.801760	0.880905
	C180	C	0.383236	0.861413	0.185707
	C181	C	0.610756	0.101418	0.181286
	C182	C	0.382628	0.104187	0.826470
	C183	C	0.609077	0.862977	0.826474
	C184	C	0.875986	0.164350	0.392003
	C185	C	0.117868	0.160779	0.619688
	C186	C	0.120629	0.805705	0.392572
	C187	C	0.875347	0.804579	0.619139
	C188	C	0.176091	0.369382	0.882807
	C189	C	0.176050	0.594909	0.125699
	C190	C	0.816122	0.370494	0.128399
	C191	C	0.815993	0.594788	0.881379
	C192	C	0.397596	0.076037	0.602901
	C193	C	0.594860	0.891062	0.602580
	C194	C	0.596361	0.075390	0.404890
	C195	C	0.397763	0.889824	0.408687
	C196	C	0.592970	0.383490	0.099611
	C197	C	0.592134	0.579176	0.911586
	C198	C	0.398478	0.578007	0.097921
	C199	C	0.399058	0.384634	0.911161
	C200	C	0.089837	0.582901	0.407489
	C201	C	0.904940	0.582302	0.602054
	C202	C	0.090654	0.384156	0.603166
	C203	C	0.904570	0.385741	0.410570
	C204	C	0.896838	0.575739	0.101715
	C205	C	0.093205	0.390255	0.103388
	C206	C	0.095047	0.574770	0.906476
	C207	C	0.896945	0.389652	0.907943
	C208	C	0.093632	0.885949	0.600098
	C209	C	0.095440	0.083173	0.410861
	C210	C	0.899251	0.080543	0.599346
	C211	C	0.902554	0.887590	0.411941
	C212	C	0.588867	0.082411	0.906705
	C213	C	0.403860	0.079253	0.102791
	C214	C	0.589152	0.882677	0.101579
	C215	C	0.402886	0.885192	0.909572
	Zn216	Zn	0.496202	-0.016539	0.755527
	Zn217	Zn	0.497651	-0.018185	0.255060
	Zn218	Zn	0.744381	0.482627	0.004985
	Zn219	Zn	0.246624	0.481689	0.004877
	Zn220	Zn	-0.001899	0.735328	0.505394
	Zn221	Zn	-0.002068	0.232414	0.506129
	Zn222	Zn	-0.003364	0.482031	0.754883
	Zn223	Zn	-0.004133	0.484727	0.255889
	Zn224	Zn	0.494827	0.731101	0.005118
	Zn225	Zn	0.495465	0.233069	0.005558
	Zn226	Zn	0.748060	-0.016859	0.504580
	Zn227	Zn	0.245280	-0.015849	0.505037
	N228	N	0.409641	0.946809	0.685439
	N229	N	0.580886	0.021047	0.682194
	N230	N	0.583806	0.945044	0.326016
	N231	N	0.412581	0.019385	0.327183
	N232	N	0.674765	0.395937	0.968570
	N233	N	0.673835	0.568353	0.041744
	N234	N	0.318525	0.566948	0.966947
	N235	N	0.316553	0.394944	0.041534
	N236	N	0.961842	0.665912	0.417888
	N237	N	0.033492	0.665166	0.593628
	N238	N	0.961977	0.301172	0.594506
	N239	N	0.033919	0.304193	0.419099
	N240	N	0.959545	0.398297	0.682478
	N241	N	0.034845	0.567354	0.682495
	N242	N	0.959495	0.570965	0.327210
	N243	N	0.033918	0.399403	0.327940
	N244	N	0.407090	0.662662	0.969021
	N245	N	0.581166	0.660234	0.041392
	N246	N	0.582320	0.303642	0.968777
	N247	N	0.408694	0.302721	0.041623
	N248	N	0.679893	0.947411	0.415825
	N249	N	0.676836	0.019625	0.591434
	N250	N	0.315227	0.947659	0.593280
	N251	N	0.317047	0.019363	0.418087
	N252	N	0.908562	0.447386	0.186076
	N253	N	0.081724	0.520158	0.183152
	N254	N	0.081429	0.444897	0.826786
	N255	N	0.910739	0.519011	0.826380
	N256	N	0.173490	0.900364	0.468320
	N257	N	0.175630	0.070675	0.541625
	N258	N	0.818418	0.070567	0.468515
	N259	N	0.819001	0.897464	0.541787
	N260	N	0.459957	0.163885	0.917620
	N261	N	0.531945	0.162574	0.092440
	N262	N	0.459633	0.800904	0.093606
	N263	N	0.530513	0.800578	0.916024
	N264	N	0.459883	0.896105	0.184340
	N265	N	0.534918	0.065508	0.180957
	N266	N	0.458963	0.069365	0.826451
	N267	N	0.533299	0.899284	0.828563
	N268	N	0.910942	0.163456	0.469151
	N269	N	0.083851	0.161955	0.542161
	N270	N	0.085884	0.804192	0.470282
	N271	N	0.911816	0.805565	0.542420
	N272	N	0.176899	0.445768	0.917093
	N273	N	0.176235	0.518295	0.091657
	N274	N	0.815345	0.446636	0.092206
	N275	N	0.814728	0.518447	0.916774
	O276	O	0.620303	0.628521	0.645404
	H277	H	0.623777	0.628942	0.631764
	H278	H	0.632256	0.604787	0.642515
	O279	O	0.527452	0.341357	0.649117
	H280	H	0.518792	0.345204	0.654038
	H281	H	0.528267	0.334095	0.647216
	O282	O	0.373157	0.472230	0.459645
	H283	H	0.380057	0.467998	0.464852
	H284	H	0.379674	0.469746	0.464211
	O285	O	0.362965	0.491907	0.396834
	H286	H	0.366357	0.486582	0.388203
	H287	H	0.358791	0.468833	0.386989
	O288	O	0.852269	0.984926	1.086976
	H289	H	0.850000	0.985924	1.088798
	H290	H	0.854248	0.986724	1.096297
	O291	O	0.081322	0.820517	-0.060190
	H292	H	0.074089	0.823357	-0.053725
	H293	H	0.086079	0.830432	-0.042184
	O294	O	0.531679	0.314503	0.520430
	H295	H	0.528197	0.317250	0.532219
	H296	H	0.542856	0.309985	0.520541
	O297	O	0.589448	0.502022	0.529160
	H298	H	0.590418	0.512915	0.536765
	H299	H	0.587833	0.512572	0.544452
	O300	O	0.590200	0.335269	0.425934
	H301	H	0.596015	0.341952	0.434346
	H302	H	0.603632	0.330110	0.440473
	O303	O	0.390723	0.408886	0.637786
	H304	H	0.390292	0.418451	0.628859
	H305	H	0.385551	0.418207	0.643491
	O306	O	0.378718	0.384386	0.561020
	H307	H	0.380117	0.378189	0.559632
	H308	H	0.361544	0.396178	0.565044
	O309	O	0.397427	0.376907	0.465032
	H310	H	0.391238	0.382123	0.465196
	H311	H	0.394686	0.371107	0.474909
	O312	O	-0.110699	0.144835	0.081094
	H313	H	-0.118678	0.140351	0.067399
	H314	H	-0.122016	0.150783	0.082992
	O315	O	0.434862	0.381875	0.430289
	H316	H	0.441858	0.376874	0.439741
	H317	H	0.438080	0.366968	0.435640
	O318	O	0.559637	1.499840	1.583827
	H319	H	0.544563	1.502965	1.577723
	H320	H	0.559279	1.497158	1.585357
	O321	O	0.533669	0.614516	0.531989
	H322	H	0.538768	0.632099	0.528250
	H323	H	0.539269	0.598543	0.525991
	O324	O	0.125820	1.054199	-0.044986
	H325	H	0.128455	1.055065	-0.051055
	H326	H	0.125175	1.065318	-0.052153
	O327	O	0.610322	0.481906	0.403749
	H328	H	0.609558	0.504370	0.398981
	H329	H	0.606129	0.478862	0.396498
	O330	O	0.027041	0.029958	1.126027
	H331	H	0.037300	0.032064	1.130360
	H332	H	0.023758	0.034950	1.127488
	O333	O	0.178146	-0.037684	1.075843
	H334	H	0.176187	-0.037358	1.074361
	H335	H	0.187860	-0.038407	1.072062
	O336	O	0.366587	0.569378	0.550551
	H337	H	0.356629	0.561449	0.547205
	H338	H	0.367152	0.591930	0.549991
	O339	O	1.102159	-0.018979	-0.148996
	H340	H	1.093529	-0.018111	-0.146194
	H341	H	1.106513	-0.009254	-0.153220
	O342	O	0.102812	0.117617	-0.004767
	H343	H	0.120627	0.126208	-0.000264
	H344	H	0.098184	0.122025	0.017476
	O345	O	0.996633	-0.063654	0.857271
	H346	H	1.002918	-0.074385	0.869985
	H347	H	0.999144	-0.066174	0.855290
	O348	O	0.878273	1.054770	-0.105904
	H349	H	0.908898	1.053693	-0.104463
	H350	H	0.869412	1.034608	-0.105936
	O351	O	0.609472	0.371388	0.449915
	H352	H	0.609346	0.362565	0.469322
	H353	H	0.612131	0.366279	0.452845
	O354	O	0.925568	0.128848	1.004450
	H355	H	0.916896	0.142060	1.003709
	H356	H	0.923245	0.122820	0.986487
	O357	O	0.502880	0.599668	0.528550
	H358	H	0.516010	0.597042	0.543723
	H359	H	0.482374	0.593553	0.523707
	O360	O	0.538651	0.541913	0.325110
	H361	H	0.532973	0.543094	0.323403
	H362	H	0.538667	0.542967	0.325496
	O363	O	0.154533	0.885815	1.013838
	H364	H	0.156584	0.889552	1.011001
	H365	H	0.149905	0.897215	0.990400
	O366	O	1.121910	1.046222	0.130656
	H367	H	1.130535	1.050849	0.121339
	H368	H	1.116666	1.025573	0.133021
	O369	O	-0.107824	1.101045	-0.073405
	H370	H	-0.113731	1.089761	-0.082816
	H371	H	-0.108372	1.112596	-0.092714
	O372	O	0.666998	0.536306	0.594832
	H373	H	0.675587	0.531971	0.589693
	H374	H	0.666575	0.542610	0.599155
	O375	O	0.476183	0.380743	0.536672
	H376	H	0.478624	0.389777	0.548420
	H377	H	0.481565	0.378937	0.533685
	O378	O	0.819696	1.008450	-0.093159
	H379	H	0.813409	1.004130	-0.080766
	H380	H	0.817360	0.997589	-0.102715
	O381	O	0.986545	-0.165100	0.088914
	H382	H	0.983470	-0.150961	0.091884
	H383	H	1.002941	-0.162700	0.066732
	O384	O	0.804714	0.954057	0.196358
	H385	H	0.794285	0.949991	0.204639
	H386	H	0.805527	0.965131	0.202412
	O387	O	-0.181119	-0.225186	0.022916
	H388	H	-0.186613	-0.241294	0.044388
	H389	H	-0.178126	-0.234942	0.039820
	O390	O	0.098782	0.861047	-0.023117
	H391	H	0.102962	0.860372	-0.017684
	H392	H	0.089769	0.861788	-0.012034
	O393	O	1.029891	1.008943	1.100065
	H394	H	1.027523	1.032439	1.107187
	H395	H	1.020272	1.003680	1.114182
	O396	O	0.374315	0.596001	0.520119
	H397	H	0.375021	0.585471	0.525183
	H398	H	0.370852	0.600221	0.497328
	O399	O	0.036505	0.982611	0.972719
	H400	H	0.033787	0.968097	0.983916
	H401	H	0.038684	0.975637	0.979532
	O402	O	0.628174	0.468937	0.365811
	H403	H	0.638629	0.456231	0.369890
	H404	H	0.620035	0.469876	0.372347
	O405	O	0.935346	1.044898	-0.088324
	H406	H	0.931208	1.027260	-0.091237
	H407	H	0.926878	1.042781	-0.088481
	O408	O	0.918199	0.776372	0.209768
	H409	H	0.913768	0.776457	0.207252
	H410	H	0.916128	0.769303	0.226816
	O411	O	0.961923	-0.012799	0.925061
	H412	H	0.958893	-0.011978	0.935389
	H413	H	0.973886	-0.017141	0.913535
	O414	O	0.360264	0.684766	0.450298
	H415	H	0.353292	0.684209	0.456276
	H416	H	0.362959	0.689107	0.447438
	O417	O	0.535805	0.657955	0.521906
	H418	H	0.539624	0.665145	0.533410
	H419	H	0.539239	0.665962	0.508051
