data_Molecule from HDF5

_cell_length_a		16.065587
_cell_length_b		16.435127
_cell_length_c		16.192602
_cell_angle_alpha	89.884321
_cell_angle_beta	89.972199
_cell_angle_gamma	90.344969
_symmetry_space_group_name_H-M	'P 1'
_symmetry_Int_Tables_number		1

loop_
	_symmetry_equiv_pos_as_xyz
	x,y,z

loop_
	_atom_site_label
	_atom_site_type_symbol
	_atom_site_fract_x
	_atom_site_fract_y
	_atom_site_fract_z
	H0	H	0.401375	0.836779	0.708414
	H1	H	0.602780	0.161817	0.708340
	H2	H	0.600916	0.835832	0.277382
	H3	H	0.405604	0.161597	0.276802
	H4	H	0.712923	0.405403	0.827296
	H5	H	0.715193	0.594411	0.158718
	H6	H	0.293850	0.593330	0.826860
	H7	H	0.290699	0.401178	0.157818
	H8	H	0.837359	0.712105	0.392456
	H9	H	0.166886	0.716577	0.594582
	H10	H	0.837880	0.282742	0.594359
	H11	H	0.167260	0.284460	0.392385
	H12	H	0.836651	0.400956	0.705878
	H13	H	0.170344	0.594101	0.702238
	H14	H	0.836653	0.593465	0.280834
	H15	H	0.169715	0.403406	0.282490
	H16	H	0.402677	0.715556	0.829713
	H17	H	0.607305	0.716231	0.155442
	H18	H	0.603567	0.284040	0.829229
	H19	H	0.400779	0.281275	0.155532
	H20	H	0.716359	0.835599	0.396166
	H21	H	0.717868	0.162210	0.589759
	H22	H	0.287876	0.836560	0.589485
	H23	H	0.291060	0.163140	0.395208
	H24	H	0.902218	0.335707	0.210025
	H25	H	0.104258	0.660870	0.208104
	H26	H	0.100913	0.335569	0.778428
	H27	H	0.904655	0.660458	0.775978
	H28	H	0.212237	0.906640	0.326945
	H29	H	0.215115	0.096706	0.658744
	H30	H	0.792563	0.094002	0.327370
	H31	H	0.790378	0.903282	0.658830
	H32	H	0.338547	0.212692	0.891249
	H33	H	0.667177	0.213933	0.093009
	H34	H	0.339134	0.780511	0.094605
	H35	H	0.669196	0.786182	0.893695
	H36	H	0.336353	0.900383	0.204399
	H37	H	0.668823	0.095350	0.203404
	H38	H	0.336411	0.093348	0.782105
	H39	H	0.670017	0.903960	0.780621
	H40	H	0.900973	0.215303	0.330683
	H41	H	0.103957	0.215667	0.657145
	H42	H	0.104992	0.783048	0.330485
	H43	H	0.898675	0.781273	0.656512
	H44	H	0.216160	0.335417	0.895940
	H45	H	0.218611	0.661334	0.088976
	H46	H	0.787685	0.335407	0.090323
	H47	H	0.791829	0.662132	0.895096
	H48	H	0.404863	0.117164	0.589167
	H49	H	0.587854	0.884036	0.592309
	H50	H	0.597183	0.113550	0.399607
	H51	H	0.406722	0.884661	0.404207
	H52	H	0.590998	0.403142	0.110504
	H53	H	0.587989	0.596421	0.877081
	H54	H	0.405867	0.596204	0.113473
	H55	H	0.412171	0.401259	0.874552
	H56	H	0.118390	0.585115	0.402236
	H57	H	0.883115	0.588664	0.590819
	H58	H	0.123542	0.396087	0.584108
	H59	H	0.881060	0.397548	0.398543
	H60	H	0.117704	0.409866	0.577933
	H61	H	0.882631	0.597727	0.584214
	H62	H	0.124351	0.596712	0.394988
	H63	H	0.886563	0.404994	0.411892
	H64	H	0.411233	0.584165	0.109339
	H65	H	0.602536	0.601567	0.871287
	H66	H	0.596496	0.402047	0.111869
	H67	H	0.408439	0.404817	0.874540
	H68	H	0.600947	0.116251	0.395860
	H69	H	0.595191	0.886273	0.579380
	H70	H	0.411989	0.115985	0.592616
	H71	H	0.403478	0.880965	0.395246
	H72	H	0.910682	0.612971	0.087300
	H73	H	0.087921	0.384214	0.089181
	H74	H	0.093117	0.612578	0.900344
	H75	H	0.906625	0.377588	0.882664
	H76	H	0.095524	0.905385	0.611635
	H77	H	0.093663	0.096726	0.375625
	H78	H	0.905524	0.096398	0.614799
	H79	H	0.905093	0.910504	0.375809
	H80	H	0.621945	0.085963	0.894440
	H81	H	0.385396	0.092569	0.078158
	H82	H	0.621038	0.894930	0.072760
	H83	H	0.383118	0.900754	0.899403
	H84	H	0.615865	0.921533	0.080380
	H85	H	0.384474	0.085351	0.086378
	H86	H	0.625706	0.102541	0.896844
	H87	H	0.387209	0.904452	0.906158
	H88	H	0.910843	0.084364	0.608722
	H89	H	0.098083	0.094759	0.374938
	H90	H	0.093839	0.907020	0.610237
	H91	H	0.918416	0.904729	0.378532
	H92	H	0.104532	0.614478	0.900352
	H93	H	0.099733	0.384148	0.080648
	H94	H	0.911914	0.613498	0.087136
	H95	H	0.923892	0.389089	0.903771
	H96	H	0.411386	0.113586	0.584584
	H97	H	0.602523	0.880273	0.590864
	H98	H	0.595685	0.114249	0.394644
	H99	H	0.412495	0.884329	0.395925
	H100	H	0.594322	0.406831	0.109998
	H101	H	0.600389	0.585576	0.875783
	H102	H	0.419687	0.595671	0.109178
	H103	H	0.413391	0.406317	0.875928
	H104	H	0.120626	0.598260	0.408665
	H105	H	0.886775	0.588086	0.580314
	H106	H	0.123036	0.409101	0.593468
	H107	H	0.885833	0.412907	0.397280
	H108	H	0.911389	0.612879	0.086303
	H109	H	0.100621	0.379807	0.094673
	H110	H	0.098360	0.616300	0.890100
	H111	H	0.895739	0.382098	0.909627
	H112	H	0.092660	0.904915	0.610603
	H113	H	0.093739	0.092208	0.377404
	H114	H	0.919158	0.095683	0.610074
	H115	H	0.906630	0.897112	0.372647
	H116	H	0.618580	0.092204	0.910888
	H117	H	0.381418	0.095856	0.087778
	H118	H	0.626424	0.903782	0.099321
	H119	H	0.385933	0.909026	0.899214
	C120	C	0.380102	0.007868	0.616323
	C121	C	0.624438	0.991368	0.615221
	C122	C	0.625381	0.006842	0.369509
	C123	C	0.380436	0.990994	0.370378
	C124	C	0.623626	0.376841	0.001826
	C125	C	0.625747	0.621362	0.983932
	C126	C	0.383252	0.619981	0.001711
	C127	C	0.381712	0.376040	0.983592
	C128	C	0.011457	0.620734	0.372533
	C129	C	0.993937	0.620060	0.613962
	C130	C	0.011600	0.376983	0.614309
	C131	C	0.994107	0.377627	0.373165
	C132	C	0.881491	0.506252	0.115597
	C133	C	0.125517	0.490300	0.115233
	C134	C	0.126041	0.506666	0.869623
	C135	C	0.880924	0.490204	0.870204
	C136	C	0.123094	0.878379	0.501994
	C137	C	0.124370	0.122378	0.484710
	C138	C	0.882503	0.120238	0.502249
	C139	C	0.880691	0.876301	0.484443
	C140	C	0.512095	0.120153	0.872049
	C141	C	0.493511	0.119665	0.113089
	C142	C	0.511893	0.877316	0.113734
	C143	C	0.494851	0.877420	0.872038
	C144	C	0.381713	0.885397	0.670517
	C145	C	0.622888	0.113502	0.669914
	C146	C	0.621951	0.884462	0.315174
	C147	C	0.384417	0.113224	0.314728
	C148	C	0.677379	0.382545	0.877222
	C149	C	0.679158	0.616525	0.108746
	C150	C	0.329511	0.615834	0.876925
	C151	C	0.326909	0.379256	0.108078
	C152	C	0.886922	0.674642	0.373133
	C153	C	0.118174	0.676908	0.613156
	C154	C	0.887098	0.321222	0.613325
	C155	C	0.118510	0.323094	0.374010
	C156	C	0.886449	0.379984	0.668781
	C157	C	0.119805	0.616313	0.666809
	C158	C	0.886425	0.615531	0.317625
	C159	C	0.119604	0.381953	0.319104
	C160	C	0.384014	0.675980	0.878216
	C161	C	0.625280	0.676969	0.107040
	C162	C	0.622999	0.322304	0.878188
	C163	C	0.381711	0.319787	0.106924
	C164	C	0.678930	0.884195	0.374416
	C165	C	0.680354	0.113485	0.611280
	C166	C	0.324966	0.885391	0.611478
	C167	C	0.327809	0.114110	0.374006
	C168	C	0.882474	0.384082	0.171438
	C169	C	0.123948	0.612361	0.170217
	C170	C	0.121899	0.384193	0.815840
	C171	C	0.884524	0.612409	0.814727
	C172	C	0.176452	0.883967	0.377028
	C173	C	0.178549	0.118132	0.609144
	C174	C	0.828500	0.115978	0.377505
	C175	C	0.826798	0.881002	0.609084
	C176	C	0.387580	0.174444	0.872563
	C177	C	0.617931	0.175560	0.112215
	C178	C	0.387883	0.820079	0.113111
	C179	C	0.619794	0.823690	0.873430
	C180	C	0.386526	0.879583	0.168073
	C181	C	0.618838	0.116593	0.166986
	C182	C	0.386712	0.115248	0.818274
	C183	C	0.620035	0.882072	0.817102
	C184	C	0.882435	0.176197	0.379064
	C185	C	0.123373	0.177294	0.608214
	C186	C	0.122811	0.822592	0.378791
	C187	C	0.880786	0.820547	0.607883
	C188	C	0.179352	0.384092	0.874238
	C189	C	0.180971	0.612678	0.111137
	C190	C	0.825732	0.383826	0.111772
	C191	C	0.828090	0.613083	0.874089
	C192	C	0.402772	0.093444	0.595074
	C193	C	0.601889	0.905586	0.593858
	C194	C	0.604306	0.092459	0.390623
	C195	C	0.401270	0.905574	0.392004
	C196	C	0.600752	0.397821	0.088545
	C197	C	0.603711	0.600495	0.897116
	C198	C	0.405505	0.598406	0.088246
	C199	C	0.404607	0.397804	0.897296
	C200	C	0.098717	0.599715	0.395275
	C201	C	0.906698	0.597991	0.591832
	C202	C	0.098817	0.398713	0.591928
	C203	C	0.906990	0.399057	0.395854
	C204	C	0.904486	0.591199	0.093420
	C205	C	0.102772	0.404825	0.094232
	C206	C	0.104847	0.592302	0.890731
	C207	C	0.902373	0.404916	0.892185
	C208	C	0.100634	0.899571	0.588326
	C209	C	0.101757	0.100847	0.398261
	C210	C	0.905297	0.098694	0.588789
	C211	C	0.903454	0.897635	0.397974
	C212	C	0.599491	0.099664	0.893975
	C213	C	0.406247	0.097570	0.090672
	C214	C	0.598769	0.900065	0.090928
	C215	C	0.407807	0.898494	0.894973
	Zn216	Zn	0.502941	-0.000971	0.744917
	Zn217	Zn	0.502417	-0.001301	0.240500
	Zn218	Zn	0.751756	0.498734	-0.006861
	Zn219	Zn	0.254855	0.498295	-0.007292
	Zn220	Zn	0.002195	0.748645	0.493511
	Zn221	Zn	0.002557	0.249306	0.493197
	Zn222	Zn	0.003179	0.498648	0.740994
	Zn223	Zn	0.003558	0.498158	0.245885
	Zn224	Zn	0.504032	0.748828	-0.007178
	Zn225	Zn	0.502856	0.247698	-0.007572
	Zn226	Zn	0.754582	-0.001237	0.493028
	Zn227	Zn	0.251599	0.000276	0.493383
	N228	N	0.415261	0.962583	0.673552
	N229	N	0.589051	0.036402	0.672531
	N230	N	0.589426	0.961649	0.312157
	N231	N	0.416441	0.035794	0.312436
	N232	N	0.677684	0.415841	0.955163
	N233	N	0.679682	0.582582	0.031206
	N234	N	0.328862	0.581653	0.954576
	N235	N	0.326918	0.413825	0.030562
	N236	N	0.965714	0.678038	0.406241
	N237	N	0.038867	0.679245	0.580988
	N238	N	0.965970	0.319366	0.580012
	N239	N	0.039454	0.320276	0.406913
	N240	N	0.964889	0.414034	0.669327
	N241	N	0.041654	0.581428	0.667239
	N242	N	0.965008	0.582729	0.317121
	N243	N	0.041241	0.415256	0.318611
	N244	N	0.416599	0.678657	0.956731
	N245	N	0.592855	0.680153	0.028456
	N246	N	0.590373	0.318637	0.956726
	N247	N	0.414765	0.317479	0.028598
	N248	N	0.681380	0.961354	0.407483
	N249	N	0.681212	0.036486	0.577878
	N250	N	0.323855	0.962649	0.578685
	N251	N	0.324868	0.037166	0.407787
	N252	N	0.916570	0.461020	0.173809
	N253	N	0.090051	0.535191	0.172924
	N254	N	0.089509	0.461560	0.813000
	N255	N	0.916368	0.534963	0.812051
	N256	N	0.176965	0.917811	0.454686
	N257	N	0.179375	0.084644	0.531278
	N258	N	0.828323	0.081775	0.455183
	N259	N	0.826520	0.914921	0.531344
	N260	N	0.466520	0.177647	0.905413
	N261	N	0.538990	0.177585	0.079338
	N262	N	0.466924	0.818495	0.080128
	N263	N	0.540919	0.820759	0.906776
	N264	N	0.464539	0.914505	0.168411
	N265	N	0.540301	0.082717	0.167864
	N266	N	0.465219	0.082182	0.817630
	N267	N	0.541328	0.914614	0.816135
	N268	N	0.915355	0.178749	0.457433
	N269	N	0.090468	0.180093	0.529816
	N270	N	0.090141	0.819186	0.457271
	N271	N	0.913568	0.817420	0.529332
	N272	N	0.182171	0.461246	0.906863
	N273	N	0.182010	0.535852	0.077781
	N274	N	0.824723	0.460734	0.077997
	N275	N	0.825428	0.536115	0.907789
	O276	O	1.058998	1.034327	0.031856
	H277	H	1.062729	1.040747	0.033073
	H278	H	1.063294	1.040259	0.026152
	O279	O	0.050076	0.027823	0.966193
	H280	H	0.053505	0.018614	0.970142
	H281	H	0.038328	0.028728	0.964546
	O282	O	0.012129	0.010669	0.037954
	H283	H	0.020408	0.019251	0.042077
	H284	H	0.015833	0.005287	0.039473
	O285	O	0.519939	0.483420	0.515325
	H286	H	0.513579	0.483851	0.510447
	H287	H	0.524613	0.495603	0.516013
	O288	O	-0.051281	0.023870	0.036268
	H289	H	-0.054187	0.025737	0.042638
	H290	H	-0.050958	0.030004	0.029452
	O291	O	-0.039512	0.991292	-0.064432
	H292	H	-0.037896	0.993249	-0.063032
	H293	H	-0.037441	0.983269	-0.073106
	O294	O	0.017760	0.995964	-0.048088
	H295	H	0.026341	0.992834	-0.051466
	H296	H	0.016095	1.000414	-0.044743
	O297	O	0.458370	0.434980	0.533559
	H298	H	0.455827	0.432776	0.537224
	H299	H	0.450347	0.442039	0.524310
	O300	O	0.493916	0.520455	0.547704
	H301	H	0.490128	0.512118	0.552009
	H302	H	0.498782	0.513353	0.550281
	O303	O	0.986908	-0.001514	0.916962
	H304	H	0.991935	0.005917	0.916922
	H305	H	0.991976	-0.013686	0.908804
	O306	O	0.093451	0.917593	0.996020
	H307	H	0.091222	0.914176	0.996327
	H308	H	0.090634	0.914239	1.000862
	O309	O	-0.004676	0.987611	1.047089
	H310	H	-0.006177	0.996197	1.047327
	H311	H	-0.002793	0.985737	1.049971
	O312	O	0.002073	-0.023653	0.988682
	H313	H	0.003329	-0.036687	0.986456
	H314	H	0.003721	-0.011196	0.987547
	O315	O	0.488945	0.440486	0.578661
	H316	H	0.488647	0.433012	0.586415
	H317	H	0.485377	0.440033	0.578232
	O318	O	-0.015089	-0.097735	1.004627
	H319	H	-0.009582	-0.085156	1.009418
	H320	H	-0.024705	-0.107237	1.004415
	O321	O	0.479797	0.480761	0.528504
	H322	H	0.488236	0.487849	0.524407
	H323	H	0.481836	0.481251	0.536977
	O324	O	0.962620	-0.036034	1.109540
	H325	H	0.963379	-0.039943	1.106217
	H326	H	0.949958	-0.035375	1.109693
	O327	O	1.043668	0.948610	0.959526
	H328	H	1.049732	0.941920	0.964870
	H329	H	1.047288	0.941983	0.966232
	O330	O	0.500012	0.502933	0.427859
	H331	H	0.502335	0.501836	0.438832
	H332	H	0.498603	0.488944	0.436692
	O333	O	0.455753	0.561271	0.481708
	H334	H	0.463114	0.574764	0.493987
	H335	H	0.447264	0.564767	0.475802
	O336	O	0.549082	0.563659	0.524585
	H337	H	0.550900	0.560049	0.525274
	H338	H	0.554016	0.567854	0.524052
	O339	O	0.494587	0.477032	0.525606
	H340	H	0.493790	0.488463	0.523963
	H341	H	0.490811	0.475646	0.523905
	O342	O	0.519532	0.534258	0.500578
	H343	H	0.521910	0.531430	0.500842
	H344	H	0.523818	0.538381	0.494876
	O345	O	0.486940	0.566639	0.511735
	H346	H	0.489440	0.567498	0.503980
	H347	H	0.492963	0.555807	0.507257
