data_Molecule from HDF5

_cell_length_a		16.197412
_cell_length_b		16.207151
_cell_length_c		16.404937
_cell_angle_alpha	90.021852
_cell_angle_beta	90.079360
_cell_angle_gamma	90.186073
_symmetry_space_group_name_H-M	'P 1'
_symmetry_Int_Tables_number		1

loop_
	_symmetry_equiv_pos_as_xyz
	x,y,z

loop_
	_atom_site_label
	_atom_site_type_symbol
	_atom_site_fract_x
	_atom_site_fract_y
	_atom_site_fract_z
	H0	H	0.400890	0.843399	0.723288
	H1	H	0.600912	0.171486	0.724001
	H2	H	0.602103	0.844916	0.293675
	H3	H	0.400860	0.171115	0.291608
	H4	H	0.717550	0.408847	0.845658
	H5	H	0.716383	0.604947	0.171221
	H6	H	0.287387	0.604262	0.845017
	H7	H	0.285851	0.406418	0.170562
	H8	H	0.835718	0.719108	0.412927
	H9	H	0.165929	0.722878	0.606421
	H10	H	0.836649	0.296153	0.605984
	H11	H	0.166756	0.297436	0.413540
	H12	H	0.837817	0.408586	0.724098
	H13	H	0.165689	0.610394	0.725292
	H14	H	0.838169	0.608931	0.293178
	H15	H	0.165802	0.409606	0.295059
	H16	H	0.403359	0.722174	0.844880
	H17	H	0.602561	0.723647	0.170151
	H18	H	0.599403	0.292823	0.844854
	H19	H	0.402152	0.290161	0.170337
	H20	H	0.714346	0.843419	0.411781
	H21	H	0.712727	0.173140	0.604771
	H22	H	0.288001	0.843070	0.605264
	H23	H	0.290481	0.174103	0.412348
	H24	H	0.900833	0.344777	0.225852
	H25	H	0.103424	0.672675	0.224073
	H26	H	0.102583	0.345029	0.792130
	H27	H	0.900830	0.671333	0.793891
	H28	H	0.215699	0.910592	0.345915
	H29	H	0.216856	0.106762	0.672211
	H30	H	0.787124	0.105907	0.346261
	H31	H	0.787937	0.911663	0.672037
	H32	H	0.336400	0.219085	0.911876
	H33	H	0.666900	0.220682	0.104858
	H34	H	0.337716	0.792930	0.105935
	H35	H	0.667367	0.797124	0.912376
	H36	H	0.338222	0.906887	0.223729
	H37	H	0.665882	0.108532	0.223839
	H38	H	0.337616	0.106113	0.794819
	H39	H	0.665175	0.906980	0.793386
	H40	H	0.904625	0.222366	0.346277
	H41	H	0.100307	0.223729	0.672728
	H42	H	0.099935	0.792727	0.346033
	H43	H	0.903492	0.794150	0.672067
	H44	H	0.212734	0.342236	0.911983
	H45	H	0.217968	0.671464	0.106845
	H46	H	0.788193	0.342861	0.106458
	H47	H	0.790858	0.672829	0.913924
	H48	H	0.407508	0.125859	0.604391
	H49	H	0.588833	0.893908	0.595464
	H50	H	0.591458	0.124728	0.414880
	H51	H	0.406752	0.891748	0.419283
	H52	H	0.592772	0.415387	0.122824
	H53	H	0.586294	0.599732	0.895905
	H54	H	0.406700	0.607523	0.126415
	H55	H	0.413389	0.410817	0.893873
	H56	H	0.120960	0.609936	0.417472
	H57	H	0.881724	0.601543	0.612762
	H58	H	0.120009	0.411655	0.599950
	H59	H	0.884811	0.423095	0.409715
	H60	H	0.116838	0.421858	0.599323
	H61	H	0.883529	0.608508	0.596541
	H62	H	0.115350	0.596671	0.422252
	H63	H	0.880617	0.408323	0.411553
	H64	H	0.405463	0.591311	0.121634
	H65	H	0.598859	0.612129	0.887952
	H66	H	0.593865	0.411066	0.123685
	H67	H	0.403828	0.409256	0.890236
	H68	H	0.594143	0.124475	0.417492
	H69	H	0.603135	0.887761	0.601948
	H70	H	0.412245	0.124873	0.605074
	H71	H	0.407641	0.890097	0.412129
	H72	H	0.908016	0.623559	0.097967
	H73	H	0.097800	0.391661	0.098769
	H74	H	0.094197	0.624078	0.919616
	H75	H	0.919116	0.393803	0.914746
	H76	H	0.100532	0.920327	0.624290
	H77	H	0.097202	0.099519	0.394850
	H78	H	0.905890	0.099188	0.624519
	H79	H	0.896867	0.906788	0.387439
	H80	H	0.618248	0.095123	0.915807
	H81	H	0.386459	0.101959	0.093491
	H82	H	0.622813	0.905844	0.105775
	H83	H	0.384672	0.913821	0.916611
	H84	H	0.615647	0.918207	0.091332
	H85	H	0.387131	0.090021	0.102773
	H86	H	0.620862	0.100751	0.909887
	H87	H	0.385001	0.915536	0.914723
	H88	H	0.910604	0.105180	0.625024
	H89	H	0.091672	0.104250	0.394635
	H90	H	0.087502	0.918584	0.621047
	H91	H	0.906014	0.929026	0.397200
	H92	H	0.097356	0.625313	0.914773
	H93	H	0.094663	0.388780	0.110747
	H94	H	0.907482	0.627160	0.106384
	H95	H	0.905059	0.391332	0.924221
	H96	H	0.409990	0.124460	0.601251
	H97	H	0.589404	0.888648	0.610862
	H98	H	0.595580	0.125802	0.414723
	H99	H	0.413285	0.892541	0.415958
	H100	H	0.596862	0.414490	0.123593
	H101	H	0.604144	0.593753	0.891854
	H102	H	0.419850	0.599503	0.119915
	H103	H	0.406146	0.418997	0.893368
	H104	H	0.120509	0.597891	0.408137
	H105	H	0.888354	0.591133	0.599926
	H106	H	0.120122	0.418529	0.608036
	H107	H	0.886302	0.415975	0.423805
	H108	H	0.915400	0.623051	0.103681
	H109	H	0.085859	0.393109	0.102178
	H110	H	0.091155	0.624885	0.914293
	H111	H	0.905346	0.386372	0.907279
	H112	H	0.094679	0.908162	0.626264
	H113	H	0.097604	0.105850	0.392348
	H114	H	0.903416	0.105618	0.627443
	H115	H	0.920955	0.908465	0.395107
	H116	H	0.619219	0.103466	0.918421
	H117	H	0.381973	0.103056	0.107598
	H118	H	0.618912	0.925214	0.110793
	H119	H	0.384083	0.913394	0.914128
	C120	C	0.380270	0.016231	0.631001
	C121	C	0.622421	0.999014	0.630749
	C122	C	0.622700	0.016649	0.387599
	C123	C	0.380578	1.000022	0.387310
	C124	C	0.623757	0.385122	0.016292
	C125	C	0.624798	0.629798	0.999526
	C126	C	0.381111	0.628518	0.015710
	C127	C	0.379223	0.383936	0.999691
	C128	C	0.010050	0.629887	0.387726
	C129	C	0.993125	0.629786	0.631043
	C130	C	0.010216	0.388118	0.630579
	C131	C	0.993033	0.387718	0.387630
	C132	C	0.880563	0.516075	0.131237
	C133	C	0.123137	0.499860	0.131299
	C134	C	0.122650	0.516127	0.887579
	C135	C	0.881079	0.499235	0.887749
	C136	C	0.122929	0.887099	0.516313
	C137	C	0.124188	0.131423	0.501142
	C138	C	0.879019	0.131220	0.517880
	C139	C	0.879336	0.886467	0.500809
	C140	C	0.510248	0.128270	0.887154
	C141	C	0.493652	0.128396	0.130005
	C142	C	0.510713	0.886275	0.130621
	C143	C	0.493225	0.886150	0.886951
	C144	C	0.381760	0.892256	0.684836
	C145	C	0.620796	0.122564	0.685976
	C146	C	0.621895	0.893584	0.331839
	C147	C	0.381964	0.122925	0.331225
	C148	C	0.679142	0.388175	0.893977
	C149	C	0.678973	0.626111	0.122388
	C150	C	0.325518	0.625021	0.893504
	C151	C	0.323889	0.386023	0.122082
	C152	C	0.885388	0.683064	0.391431
	C153	C	0.117035	0.685109	0.627714
	C154	C	0.885786	0.333722	0.626889
	C155	C	0.117442	0.334265	0.391976
	C156	C	0.886586	0.389097	0.685815
	C157	C	0.116714	0.629098	0.686601
	C158	C	0.886636	0.628279	0.331843
	C159	C	0.116796	0.389690	0.332810
	C160	C	0.383192	0.683627	0.893394
	C161	C	0.622579	0.685154	0.121852
	C162	C	0.620451	0.330587	0.893516
	C163	C	0.381627	0.328254	0.121930
	C164	C	0.677298	0.892889	0.390809
	C165	C	0.676418	0.123415	0.626909
	C166	C	0.325255	0.892330	0.626502
	C167	C	0.326788	0.124243	0.390771
	C168	C	0.881387	0.393384	0.187191
	C169	C	0.122589	0.623267	0.186227
	C170	C	0.121663	0.393332	0.831324
	C171	C	0.882146	0.622566	0.832532
	C172	C	0.177857	0.889923	0.394243
	C173	C	0.179170	0.128040	0.623753
	C174	C	0.824784	0.127190	0.395028
	C175	C	0.825020	0.889938	0.623362
	C176	C	0.385998	0.182283	0.890930
	C177	C	0.617546	0.183719	0.126494
	C178	C	0.386857	0.830659	0.127021
	C179	C	0.617615	0.832987	0.890669
	C180	C	0.387243	0.886994	0.185763
	C181	C	0.616989	0.127893	0.185486
	C182	C	0.386425	0.126147	0.832788
	C183	C	0.616537	0.887802	0.831699
	C184	C	0.883080	0.185070	0.395032
	C185	C	0.121176	0.186021	0.624044
	C186	C	0.120289	0.831291	0.394443
	C187	C	0.882383	0.831648	0.623309
	C188	C	0.176396	0.391934	0.891199
	C189	C	0.179833	0.622829	0.128212
	C190	C	0.825804	0.392377	0.127465
	C191	C	0.827068	0.623305	0.891839
	C192	C	0.403215	0.102815	0.609880
	C193	C	0.600243	0.912425	0.609214
	C194	C	0.600375	0.102740	0.409305
	C195	C	0.402646	0.913698	0.409338
	C196	C	0.601132	0.407200	0.101311
	C197	C	0.602904	0.608223	0.914005
	C198	C	0.403896	0.606002	0.100747
	C199	C	0.401290	0.406200	0.914493
	C200	C	0.096426	0.608083	0.409637
	C201	C	0.906918	0.607092	0.609447
	C202	C	0.096511	0.410859	0.608934
	C203	C	0.906270	0.409404	0.408662
	C204	C	0.903477	0.602485	0.109206
	C205	C	0.099719	0.413536	0.109900
	C206	C	0.100733	0.602450	0.909655
	C207	C	0.903336	0.412767	0.909169
	C208	C	0.100824	0.909280	0.601807
	C209	C	0.102055	0.109684	0.416003
	C210	C	0.900239	0.109771	0.603485
	C211	C	0.901491	0.908324	0.415255
	C212	C	0.596961	0.106289	0.908466
	C213	C	0.407401	0.105003	0.108024
	C214	C	0.596825	0.909424	0.108901
	C215	C	0.406853	0.907852	0.908712
	Zn216	Zn	0.501298	0.007248	0.759107
	Zn217	Zn	0.502095	0.007892	0.258965
	Zn218	Zn	0.753222	0.507568	0.008413
	Zn219	Zn	0.250730	0.506939	0.008674
	Zn220	Zn	0.000895	0.757335	0.508879
	Zn221	Zn	0.001584	0.260591	0.509532
	Zn222	Zn	0.001856	0.508117	0.759247
	Zn223	Zn	0.001758	0.508957	0.259979
	Zn224	Zn	0.502840	0.758732	0.007766
	Zn225	Zn	0.501791	0.255521	0.007839
	Zn226	Zn	0.750325	0.008094	0.509178
	Zn227	Zn	0.252907	0.008961	0.508882
	N228	N	0.415339	0.970206	0.687549
	N229	N	0.588049	0.044044	0.688685
	N230	N	0.588422	0.971407	0.329850
	N231	N	0.414558	0.044565	0.328688
	N232	N	0.681189	0.421410	0.971201
	N233	N	0.680423	0.592382	0.045522
	N234	N	0.323881	0.591757	0.970691
	N235	N	0.322075	0.420085	0.045219
	N236	N	0.963227	0.684222	0.425449
	N237	N	0.039437	0.685685	0.593817
	N238	N	0.963595	0.332956	0.593291
	N239	N	0.039534	0.332791	0.425079
	N240	N	0.964823	0.422547	0.687990
	N241	N	0.038661	0.595333	0.688820
	N242	N	0.964963	0.595811	0.329677
	N243	N	0.038309	0.422301	0.330020
	N244	N	0.417102	0.685737	0.970311
	N245	N	0.589622	0.687899	0.044507
	N246	N	0.586901	0.328478	0.970535
	N247	N	0.415233	0.326876	0.044971
	N248	N	0.677865	0.970533	0.424921
	N249	N	0.677328	0.045869	0.593091
	N250	N	0.324391	0.970506	0.593583
	N251	N	0.325914	0.046737	0.424915
	N252	N	0.914946	0.471330	0.189320
	N253	N	0.088093	0.545611	0.188104
	N254	N	0.088868	0.471480	0.829227
	N255	N	0.915181	0.544447	0.830057
	N256	N	0.179352	0.923997	0.471081
	N257	N	0.181372	0.095019	0.546524
	N258	N	0.822251	0.094296	0.472267
	N259	N	0.823292	0.923391	0.546354
	N260	N	0.464013	0.183482	0.924094
	N261	N	0.539949	0.183845	0.092588
	N262	N	0.464681	0.829951	0.093499
	N263	N	0.539968	0.831689	0.924375
	N264	N	0.465154	0.920697	0.188248
	N265	N	0.538813	0.094364	0.187796
	N266	N	0.464697	0.093224	0.830277
	N267	N	0.538236	0.920263	0.829294
	N268	N	0.916104	0.187625	0.472336
	N269	N	0.087504	0.188188	0.546961
	N270	N	0.086889	0.829347	0.471463
	N271	N	0.915401	0.829280	0.545951
	N272	N	0.176801	0.469341	0.925827
	N273	N	0.180284	0.545073	0.094863
	N274	N	0.825284	0.470019	0.093549
	N275	N	0.826303	0.545594	0.925523
	O276	O	0.466316	0.510292	0.418913
	H277	H	0.467733	0.509699	0.418063
	H278	H	0.462618	0.502859	0.420355
	O279	O	0.088258	0.037328	0.027651
	H280	H	0.079687	0.037389	0.030050
	H281	H	0.087838	0.033883	0.036085
	O282	O	0.430077	0.524259	0.461086
	H283	H	0.426171	0.515225	0.458769
	H284	H	0.430249	0.526498	0.465123
	O285	O	0.461204	0.424285	0.474667
	H286	H	0.467861	0.425565	0.459583
	H287	H	0.470640	0.428410	0.478743
	O288	O	1.075739	0.005092	0.041594
	H289	H	1.082441	0.005730	0.038914
	H290	H	1.081005	0.017403	0.047105
	O291	O	-0.521844	0.509406	-0.561308
	H292	H	-0.517443	0.512580	-0.554164
	H293	H	-0.519904	0.517534	-0.564144
	O294	O	0.542182	0.496789	0.430783
	H295	H	0.543051	0.503851	0.435621
	H296	H	0.539243	0.497414	0.432794
	O297	O	0.076061	1.021005	0.007792
	H298	H	0.076574	1.027559	0.007127
	H299	H	0.080437	1.023955	0.007156
	O300	O	1.540857	-0.449904	0.441633
	H301	H	1.541370	-0.446274	0.429255
	H302	H	1.539211	-0.454858	0.440430
	O303	O	0.441860	0.557599	0.418579
	H304	H	0.447754	0.551244	0.424486
	H305	H	0.435888	0.554911	0.408935
	O306	O	0.067502	1.001401	1.022379
	H307	H	0.068216	0.996695	1.014283
	H308	H	0.070673	1.000273	1.022096
	O309	O	0.424144	0.526831	0.425503
	H310	H	0.421083	0.532744	0.415390
	H311	H	0.419682	0.524859	0.423656
