data_Molecule from HDF5

_cell_length_a		16.517362
_cell_length_b		16.686176
_cell_length_c		16.546133
_cell_angle_alpha	90.163306
_cell_angle_beta	90.022659
_cell_angle_gamma	90.087220
_symmetry_space_group_name_H-M	'P 1'
_symmetry_Int_Tables_number		1

loop_
	_symmetry_equiv_pos_as_xyz
	x,y,z

loop_
	_atom_site_label
	_atom_site_type_symbol
	_atom_site_fract_x
	_atom_site_fract_y
	_atom_site_fract_z
	H0	H	0.386402	0.847804	0.716108
	H1	H	0.600029	0.156798	0.719973
	H2	H	0.600084	0.850952	0.269691
	H3	H	0.386021	0.159224	0.273640
	H4	H	0.713771	0.398543	0.839826
	H5	H	0.710897	0.606236	0.154341
	H6	H	0.272337	0.608554	0.839023
	H7	H	0.273737	0.402079	0.153250
	H8	H	0.837985	0.726462	0.388598
	H9	H	0.148258	0.726387	0.601979
	H10	H	0.835062	0.285832	0.597417
	H11	H	0.150815	0.285162	0.391813
	H12	H	0.833881	0.403766	0.711866
	H13	H	0.149048	0.608962	0.717005
	H14	H	0.836649	0.608068	0.274684
	H15	H	0.150879	0.400227	0.275557
	H16	H	0.387354	0.724475	0.838978
	H17	H	0.599012	0.726279	0.152729
	H18	H	0.599029	0.280956	0.841009
	H19	H	0.385514	0.282285	0.151163
	H20	H	0.720401	0.853767	0.381878
	H21	H	0.714919	0.158507	0.602058
	H22	H	0.271383	0.847689	0.597600
	H23	H	0.272372	0.160477	0.392439
	H24	H	0.891043	0.346435	0.212760
	H25	H	0.098666	0.659547	0.218975
	H26	H	0.094040	0.348017	0.776730
	H27	H	0.890841	0.661934	0.778693
	H28	H	0.212813	0.899226	0.338034
	H29	H	0.211204	0.106223	0.653413
	H30	H	0.774665	0.105948	0.337373
	H31	H	0.769313	0.897985	0.650604
	H32	H	0.335973	0.224154	0.889527
	H33	H	0.646826	0.227467	0.103250
	H34	H	0.335694	0.783057	0.099455
	H35	H	0.650473	0.784653	0.891703
	H36	H	0.334238	0.900431	0.214445
	H37	H	0.647483	0.109016	0.217112
	H38	H	0.334493	0.105690	0.775821
	H39	H	0.650044	0.901524	0.775658
	H40	H	0.890238	0.222823	0.338179
	H41	H	0.097601	0.224861	0.652829
	H42	H	0.100751	0.779298	0.340707
	H43	H	0.884209	0.781229	0.650312
	H44	H	0.212739	0.348528	0.892122
	H45	H	0.215325	0.660450	0.102194
	H46	H	0.772395	0.347727	0.098182
	H47	H	0.775218	0.662185	0.896424
	H48	H	0.405504	0.115424	0.590903
	H49	H	0.572678	0.894945	0.585382
	H50	H	0.579998	0.113855	0.408665
	H51	H	0.403344	0.894079	0.409811
	H52	H	0.581491	0.417042	0.107111
	H53	H	0.584164	0.594117	0.883169
	H54	H	0.401198	0.592085	0.108150
	H55	H	0.404218	0.415212	0.884453
	H56	H	0.105614	0.594001	0.407286
	H57	H	0.880750	0.594972	0.581109
	H58	H	0.105491	0.418351	0.586951
	H59	H	0.878604	0.407754	0.404249
	H60	H	0.107823	0.411447	0.588967
	H61	H	0.880108	0.590169	0.586196
	H62	H	0.103069	0.592389	0.412719
	H63	H	0.882083	0.413696	0.408488
	H64	H	0.408205	0.594079	0.106478
	H65	H	0.581053	0.592498	0.884467
	H66	H	0.577783	0.415355	0.106993
	H67	H	0.403971	0.411141	0.882240
	H68	H	0.580125	0.114566	0.407398
	H69	H	0.581691	0.895002	0.574256
	H70	H	0.403317	0.113219	0.581778
	H71	H	0.396909	0.890978	0.403814
	H72	H	0.904360	0.615376	0.088320
	H73	H	0.087224	0.390060	0.090934
	H74	H	0.088140	0.617855	0.906132
	H75	H	0.900939	0.391594	0.903947
	H76	H	0.084035	0.916704	0.608017
	H77	H	0.080194	0.097073	0.383446
	H78	H	0.898179	0.100207	0.612106
	H79	H	0.906379	0.916196	0.384908
	H80	H	0.605256	0.095374	0.906943
	H81	H	0.378705	0.089948	0.090618
	H82	H	0.604182	0.914515	0.082224
	H83	H	0.381675	0.914599	0.909821
	H84	H	0.604469	0.917333	0.084038
	H85	H	0.377353	0.101755	0.082587
	H86	H	0.603456	0.092744	0.910878
	H87	H	0.379574	0.915277	0.902720
	H88	H	0.901587	0.087824	0.606952
	H89	H	0.084008	0.096263	0.381581
	H90	H	0.078051	0.918999	0.604603
	H91	H	0.907283	0.917151	0.383949
	H92	H	0.079242	0.616525	0.902348
	H93	H	0.075602	0.396562	0.086004
	H94	H	0.902400	0.615795	0.085514
	H95	H	0.903432	0.392689	0.903459
	H96	H	0.397200	0.117738	0.587981
	H97	H	0.586289	0.889986	0.586681
	H98	H	0.578874	0.114049	0.407786
	H99	H	0.405324	0.892956	0.401358
	H100	H	0.581070	0.413253	0.108311
	H101	H	0.580690	0.595821	0.882962
	H102	H	0.403562	0.598866	0.109964
	H103	H	0.400640	0.413890	0.881782
	H104	H	0.103425	0.587615	0.408079
	H105	H	0.878218	0.597225	0.587191
	H106	H	0.104869	0.412727	0.581899
	H107	H	0.879484	0.415021	0.401034
	H108	H	0.900934	0.616584	0.088447
	H109	H	0.086763	0.394389	0.077347
	H110	H	0.081051	0.613467	0.911454
	H111	H	0.901583	0.393542	0.906054
	H112	H	0.078006	0.912256	0.607137
	H113	H	0.082214	0.093057	0.383782
	H114	H	0.910504	0.098337	0.606161
	H115	H	0.907280	0.916073	0.385424
	H116	H	0.603925	0.090208	0.906215
	H117	H	0.382752	0.089466	0.076483
	H118	H	0.605341	0.913979	0.085427
	H119	H	0.377966	0.909118	0.906295
	C120	C	0.370071	0.012072	0.617400
	C121	C	0.613326	0.995421	0.615723
	C122	C	0.613529	0.012974	0.373297
	C123	C	0.369885	0.995484	0.373179
	C124	C	0.613188	0.382972	0.004407
	C125	C	0.614066	0.625688	0.987501
	C126	C	0.372023	0.625948	0.004216
	C127	C	0.371460	0.382910	0.986969
	C128	C	0.001430	0.624058	0.375805
	C129	C	0.983395	0.626229	0.617444
	C130	C	0.001250	0.383608	0.616091
	C131	C	0.984565	0.381733	0.373477
	C132	C	0.871678	0.512201	0.117398
	C133	C	0.115201	0.496449	0.117570
	C134	C	0.114083	0.512794	0.874695
	C135	C	0.871035	0.496534	0.874769
	C136	C	0.113167	0.883151	0.503601
	C137	C	0.113884	0.126157	0.487021
	C138	C	0.872314	0.125622	0.503898
	C139	C	0.872309	0.883362	0.487203
	C140	C	0.500528	0.124237	0.874975
	C141	C	0.482801	0.125959	0.116248
	C142	C	0.500727	0.883419	0.115934
	C143	C	0.484068	0.881953	0.874416
	C144	C	0.368032	0.894553	0.676278
	C145	C	0.617535	0.110813	0.678665
	C146	C	0.618088	0.897652	0.310262
	C147	C	0.368084	0.112726	0.313887
	C148	C	0.673904	0.380436	0.887053
	C149	C	0.672230	0.626020	0.106730
	C150	C	0.312026	0.627121	0.886333
	C151	C	0.312753	0.382595	0.105598
	C152	C	0.884354	0.685348	0.371362
	C153	C	0.101363	0.686213	0.620188
	C154	C	0.882257	0.325301	0.616576
	C155	C	0.103373	0.324028	0.372850
	C156	C	0.881642	0.384010	0.673208
	C157	C	0.101709	0.628038	0.677403
	C158	C	0.883766	0.626540	0.314833
	C159	C	0.103210	0.381153	0.314802
	C160	C	0.369324	0.685059	0.886340
	C161	C	0.616397	0.685408	0.105847
	C162	C	0.616720	0.322084	0.887218
	C163	C	0.368638	0.323356	0.104788
	C164	C	0.677721	0.898805	0.366363
	C165	C	0.674699	0.111539	0.619957
	C166	C	0.310674	0.894695	0.617657
	C167	C	0.311120	0.113195	0.372779
	C168	C	0.871598	0.393829	0.174180
	C169	C	0.117380	0.613061	0.178548
	C170	C	0.114004	0.394879	0.816174
	C171	C	0.871425	0.614949	0.817919
	C172	C	0.173474	0.880625	0.385530
	C173	C	0.172425	0.126048	0.605829
	C174	C	0.813992	0.125447	0.385058
	C175	C	0.810038	0.880204	0.603707
	C176	C	0.382592	0.183613	0.872158
	C177	C	0.600329	0.186508	0.120474
	C178	C	0.382410	0.823600	0.117613
	C179	C	0.602988	0.823987	0.873117
	C180	C	0.381745	0.881878	0.174779
	C181	C	0.600609	0.127705	0.176981
	C182	C	0.382158	0.125031	0.815338
	C183	C	0.602877	0.881837	0.815468
	C184	C	0.871377	0.183656	0.385396
	C185	C	0.115811	0.184891	0.605704
	C186	C	0.117673	0.821088	0.386759
	C187	C	0.867073	0.821956	0.603683
	C188	C	0.172901	0.395244	0.873426
	C189	C	0.175119	0.613675	0.120288
	C190	C	0.812913	0.394424	0.116863
	C191	C	0.814013	0.614919	0.876541
	C192	C	0.395136	0.094077	0.593691
	C193	C	0.587402	0.914436	0.589568
	C194	C	0.587114	0.093218	0.400321
	C195	C	0.394850	0.913937	0.398028
	C196	C	0.587356	0.407968	0.086356
	C197	C	0.589284	0.601218	0.905066
	C198	C	0.397178	0.601838	0.086936
	C199	C	0.395962	0.406643	0.904271
	C200	C	0.082962	0.598604	0.402071
	C201	C	0.901088	0.601293	0.592036
	C202	C	0.084359	0.407210	0.592584
	C203	C	0.901534	0.405424	0.397756
	C204	C	0.895901	0.594436	0.094298
	C205	C	0.090324	0.414881	0.091935
	C206	C	0.089602	0.594621	0.899433
	C207	C	0.894958	0.414204	0.897602
	C208	C	0.087377	0.908777	0.585298
	C209	C	0.089255	0.102418	0.404371
	C210	C	0.896537	0.102234	0.586771
	C211	C	0.899374	0.909058	0.405838
	C212	C	0.582932	0.099553	0.900597
	C213	C	0.400835	0.100958	0.090437
	C214	C	0.583079	0.908298	0.091142
	C215	C	0.401339	0.906124	0.899023
	Zn216	Zn	0.492415	0.003260	0.745976
	Zn217	Zn	0.491332	0.004645	0.244574
	Zn218	Zn	0.741954	0.504309	-0.003907
	Zn219	Zn	0.243894	0.504804	-0.003911
	Zn220	Zn	-0.007422	0.753968	0.495359
	Zn221	Zn	-0.006358	0.254790	0.495763
	Zn222	Zn	-0.007965	0.504564	0.745121
	Zn223	Zn	-0.006568	0.503941	0.246465
	Zn224	Zn	0.493380	0.753981	-0.004200
	Zn225	Zn	0.491862	0.254382	-0.004638
	Zn226	Zn	0.743110	0.004194	0.494694
	Zn227	Zn	0.241535	0.003866	0.494880
	N228	N	0.403926	0.968953	0.676765
	N229	N	0.579841	0.037505	0.676161
	N230	N	0.578756	0.969709	0.314383
	N231	N	0.403752	0.038458	0.313910
	N232	N	0.671700	0.417691	0.960918
	N233	N	0.671042	0.589622	0.032114
	N234	N	0.313477	0.591321	0.960911
	N235	N	0.314365	0.419059	0.031392
	N236	N	0.958494	0.683818	0.408792
	N237	N	0.026690	0.685326	0.583803
	N238	N	0.957607	0.324906	0.581864
	N239	N	0.028272	0.323902	0.408337
	N240	N	0.956781	0.419463	0.673380
	N241	N	0.027345	0.591335	0.675745
	N242	N	0.957446	0.589035	0.317418
	N243	N	0.028105	0.416201	0.315016
	N244	N	0.406029	0.684404	0.960940
	N245	N	0.581211	0.685604	0.030623
	N246	N	0.579887	0.323239	0.961461
	N247	N	0.404121	0.323206	0.029702
	N248	N	0.674731	0.971346	0.405363
	N249	N	0.672368	0.038778	0.581573
	N250	N	0.311564	0.968905	0.582132
	N251	N	0.311918	0.039159	0.408737
	N252	N	0.907148	0.468255	0.175060
	N253	N	0.080839	0.539211	0.176883
	N254	N	0.078419	0.469170	0.816522
	N255	N	0.906074	0.540226	0.816403
	N256	N	0.170698	0.918632	0.459083
	N257	N	0.171407	0.090220	0.531072
	N258	N	0.814166	0.090424	0.460010
	N259	N	0.813100	0.917707	0.530107
	N260	N	0.457271	0.183225	0.908688
	N261	N	0.526061	0.185532	0.083415
	N262	N	0.457510	0.824329	0.081964
	N263	N	0.527982	0.823723	0.908690
	N264	N	0.456454	0.918210	0.174137
	N265	N	0.526587	0.090728	0.174498
	N266	N	0.456703	0.088874	0.817014
	N267	N	0.527674	0.916840	0.815878
	N268	N	0.906709	0.184184	0.460519
	N269	N	0.080589	0.185462	0.530625
	N270	N	0.080803	0.822510	0.461050
	N271	N	0.905319	0.823781	0.530123
	N272	N	0.173412	0.469867	0.908709
	N273	N	0.173922	0.539933	0.083080
	N274	N	0.812543	0.469117	0.082560
	N275	N	0.813319	0.540146	0.910581
	O276	O	0.200163	0.793384	-0.208045
	H277	H	0.225612	0.770330	-0.223528
	H278	H	0.193456	0.833311	-0.215692
	O279	O	0.550457	0.570337	0.272816
	H280	H	0.531437	0.578203	0.280881
	H281	H	0.580266	0.572680	0.274401
	O282	O	0.863557	0.105380	0.815182
	H283	H	0.846270	0.123156	0.796302
	H284	H	0.859265	0.108148	0.831648
	O285	O	0.875595	0.154749	0.873461
	H286	H	0.875936	0.136727	0.865834
	H287	H	0.900272	0.154378	0.870458
	O288	O	0.459476	0.280711	0.714049
	H289	H	0.446835	0.262206	0.732821
	H290	H	0.462246	0.281481	0.711011
	O291	O	0.306790	0.690317	0.676574
	H292	H	0.330937	0.687480	0.656523
	H293	H	0.310175	0.666797	0.668077
	O294	O	0.792449	-0.252289	1.256598
	H295	H	0.798650	-0.236604	1.247737
	H296	H	0.791853	-0.246619	1.273273
	O297	O	0.624948	0.358874	0.570416
	H298	H	0.631003	0.332175	0.576389
	H299	H	0.620195	0.359210	0.553648
	O300	O	-0.039931	0.222897	0.780808
	H301	H	-0.030764	0.217358	0.767973
	H302	H	-0.048174	0.229714	0.764143
	O303	O	0.490930	0.729654	0.499823
	H304	H	0.488617	0.733692	0.509543
	H305	H	0.487470	0.722961	0.488515
	O306	O	0.693457	0.614677	0.363102
	H307	H	0.688634	0.616696	0.375625
	H308	H	0.689643	0.603715	0.350646
	O309	O	0.710998	0.459773	0.274279
	H310	H	0.709639	0.454653	0.260179
	H311	H	0.719196	0.449065	0.263879
	O312	O	0.600234	0.509858	0.531977
	H313	H	0.597233	0.494876	0.516864
	H314	H	0.621143	0.516482	0.531795
	O315	O	0.709125	0.638791	0.715535
	H316	H	0.714995	0.628694	0.720140
	H317	H	0.692483	0.645342	0.709013
	O318	O	0.309515	0.327014	0.311137
	H319	H	0.313956	0.337570	0.303195
	H320	H	0.329876	0.327681	0.314619
	O321	O	0.063923	1.023155	0.821777
	H322	H	0.065768	1.004781	0.830223
	H323	H	0.057480	1.012323	0.822721
	O324	O	0.786271	0.797480	0.081076
	H325	H	0.775831	0.790481	0.059006
	H326	H	0.773438	0.788315	0.091176
	O327	O	-0.194422	0.171869	1.018677
	H328	H	-0.177470	0.164241	1.009867
	H329	H	-0.203938	0.179856	1.013427
	O330	O	0.611702	0.730652	0.474280
	H331	H	0.633760	0.729229	0.471846
	H332	H	0.601262	0.727292	0.468959
	O333	O	0.384092	0.485213	0.639937
	H334	H	0.395188	0.483067	0.649641
	H335	H	0.385666	0.482512	0.625482
	O336	O	0.802437	0.193695	0.182809
	H337	H	0.810612	0.183511	0.147152
	H338	H	0.818180	0.167240	0.175044
	O339	O	1.286167	0.296317	0.702560
	H340	H	1.282204	0.295349	0.720591
	H341	H	1.287006	0.309068	0.703628
	O342	O	-0.188518	-0.173145	-0.187498
	H343	H	-0.172658	-0.165948	-0.165022
	H344	H	-0.197717	-0.180087	-0.195373
	O345	O	0.011264	1.144216	1.088813
	H346	H	0.015083	1.151150	1.087975
	H347	H	0.017510	1.131898	1.075743
	O348	O	0.464767	0.466234	0.537166
	H349	H	0.466167	0.463016	0.530672
	H350	H	0.458431	0.461857	0.526791
	O351	O	0.286529	0.533961	0.285354
	H352	H	0.271809	0.531882	0.266273
	H353	H	0.299790	0.546330	0.294609
	O354	O	-0.093894	-0.171989	0.926485
	H355	H	-0.091144	-0.178682	0.903812
	H356	H	-0.096190	-0.181799	0.931424
	O357	O	0.441544	0.582891	0.422511
	H358	H	0.440074	0.575263	0.420629
	H359	H	0.439249	0.601781	0.432445
	O360	O	0.617376	0.376774	0.699419
	H361	H	0.590764	0.383904	0.688590
	H362	H	0.619977	0.390059	0.686922
	O363	O	-0.095731	-0.196665	0.142231
	H364	H	-0.070574	-0.194753	0.151568
	H365	H	-0.105224	-0.181601	0.128330
	O366	O	0.507932	0.433520	0.328362
	H367	H	0.496368	0.435588	0.327973
	H368	H	0.524969	0.428535	0.342148
	O369	O	0.794318	0.007922	-0.161038
	H370	H	0.785166	0.005649	-0.179853
	H371	H	0.805296	0.009829	-0.163330
	O372	O	0.852572	1.025059	0.024491
	H373	H	0.851086	1.032907	0.026912
	H374	H	0.862792	1.030380	0.024305
	O375	O	1.138611	0.099484	-0.020214
	H376	H	1.149763	0.107218	-0.012224
	H377	H	1.144149	0.093708	0.007669
	O378	O	0.374677	0.396937	0.396111
	H379	H	0.387275	0.381875	0.393885
	H380	H	0.354065	0.394701	0.399107
	O381	O	-0.469507	0.728842	0.715073
	H382	H	-0.454152	0.729225	0.718643
	H383	H	-0.472645	0.736143	0.740337
	O384	O	0.991590	-0.224451	1.016873
	H385	H	0.993905	-0.224622	1.012013
	H386	H	0.998219	-0.222526	1.012706
	O387	O	1.010190	0.975129	-0.040936
	H388	H	1.015530	0.984554	-0.046598
	H389	H	1.005179	0.974933	-0.036151
	O390	O	0.508368	0.357718	0.603398
	H391	H	0.522594	0.355690	0.598268
	H392	H	0.507268	0.352099	0.587591
	O393	O	0.276930	0.286964	0.530752
	H394	H	0.255646	0.268647	0.532299
	H395	H	0.279286	0.286538	0.563574
	O396	O	0.206206	0.786088	0.966211
	H397	H	0.196622	0.783164	0.950921
	H398	H	0.224252	0.761955	0.957348
	O399	O	0.021881	-0.213840	0.773900
	H400	H	0.034352	-0.232317	0.752931
	H401	H	0.036131	-0.219231	0.774182
	O402	O	0.987412	0.876928	0.179277
	H403	H	1.007156	0.868683	0.171062
	H404	H	1.004563	0.871560	0.185705
	O405	O	0.863710	0.065424	0.901680
	H406	H	0.860478	0.055511	0.907040
	H407	H	0.863593	0.041573	0.902036
	O408	O	0.129168	-0.123305	0.080880
	H409	H	0.143370	-0.140159	0.090566
	H410	H	0.136952	-0.121368	0.070564
	O411	O	0.702088	0.730717	0.595941
	H412	H	0.736724	0.763118	0.617086
	H413	H	0.701069	0.712015	0.584906
	O414	O	0.272090	0.532507	0.522657
	H415	H	0.272401	0.512457	0.520580
	H416	H	0.266585	0.520855	0.526236
	O417	O	0.758626	0.228578	0.798453
	H418	H	0.758397	0.220482	0.798899
	H419	H	0.755004	0.220077	0.802843
	O420	O	0.074962	1.175897	1.057420
	H421	H	0.082462	1.176973	1.073868
	H422	H	0.097681	1.187959	1.056933
	O423	O	0.132051	0.198482	0.847916
	H424	H	0.110641	0.181070	0.845503
	H425	H	0.140133	0.189452	0.866303
	O426	O	0.269166	0.469629	0.715245
	H427	H	0.292781	0.469082	0.724031
	H428	H	0.251991	0.471268	0.742148
	O429	O	1.182158	1.026732	1.141229
	H430	H	1.179666	1.029274	1.130092
	H431	H	1.203730	1.021114	1.169011
	O432	O	0.460705	0.324986	0.454433
	H433	H	0.437048	0.317988	0.449764
	H434	H	0.466538	0.330203	0.428860
	O435	O	0.021118	1.209025	0.213923
	H436	H	0.009114	1.202273	0.214393
	H437	H	0.022861	1.227135	0.223439
	O438	O	0.202742	0.207600	0.200394
	H439	H	0.193226	0.216710	0.207648
	H440	H	0.186236	0.189802	0.205833
	O441	O	0.095153	-0.082129	0.190299
	H442	H	0.105867	-0.095514	0.190506
	H443	H	0.083238	-0.074353	0.187502
	O444	O	0.641108	0.545329	0.682416
	H445	H	0.657322	0.530326	0.693884
	H446	H	0.634972	0.523045	0.674446
	O447	O	0.146009	1.207433	1.005599
	H448	H	0.138521	1.205183	1.012243
	H449	H	0.166428	1.220312	1.013996
	O450	O	0.456066	0.728111	1.275462
	H451	H	0.458969	0.724830	1.278677
	H452	H	0.457093	0.746587	1.251726
	O453	O	0.708993	0.278303	0.456432
	H454	H	0.721741	0.264229	0.439385
	H455	H	0.723056	0.277384	0.450368
	O456	O	-0.212469	-0.012595	1.198385
	H457	H	-0.217979	-0.026055	1.202360
	H458	H	-0.211150	-0.022724	1.203656
	O459	O	0.948143	0.995780	0.128493
	H460	H	0.943932	0.986082	0.118467
	H461	H	0.961198	0.992427	0.134244
	O462	O	0.286183	0.706887	0.461774
	H463	H	0.289887	0.710157	0.474067
	H464	H	0.281802	0.699931	0.479118
	O465	O	1.009316	-0.046688	-0.114800
	H466	H	1.020152	-0.045536	-0.131854
	H467	H	1.010656	-0.030134	-0.100505
	O468	O	0.511709	0.285619	0.283336
	H469	H	0.531251	0.281832	0.269862
	H470	H	0.526575	0.287533	0.272807
	O471	O	0.288307	0.709481	0.293326
	H472	H	0.319183	0.714950	0.300279
	H473	H	0.281903	0.686497	0.320855
	O474	O	0.495381	0.458996	0.507454
	H475	H	0.487144	0.448768	0.499752
	H476	H	0.501285	0.456005	0.502523
	O477	O	0.441279	0.651488	1.646662
	H478	H	0.461699	0.642211	1.638891
	H479	H	0.428776	0.658051	1.648685
	O480	O	0.698204	0.293177	0.286355
	H481	H	0.691804	0.311363	0.300096
	H482	H	0.730033	0.261889	0.253114
	O483	O	0.698698	0.581253	0.488224
	H484	H	0.709212	0.565945	0.464130
	H485	H	0.707178	0.570781	0.494852
	O486	O	1.211901	-0.022404	1.045771
	H487	H	1.219583	-0.030511	1.065111
	H488	H	1.198159	-0.038417	1.044933
	O489	O	1.139949	1.006971	-0.223651
	H490	H	1.140947	1.001882	-0.234842
	H491	H	1.138769	1.001192	-0.220735
