data_Molecule from HDF5

_cell_length_a		16.281533
_cell_length_b		16.275384
_cell_length_c		16.258569
_cell_angle_alpha	90.017561
_cell_angle_beta	89.972788
_cell_angle_gamma	90.112617
_symmetry_space_group_name_H-M	'P 1'
_symmetry_Int_Tables_number		1

loop_
	_symmetry_equiv_pos_as_xyz
	x,y,z

loop_
	_atom_site_label
	_atom_site_type_symbol
	_atom_site_fract_x
	_atom_site_fract_y
	_atom_site_fract_z
	H0	H	0.411696	0.836014	0.710366
	H1	H	0.609047	0.164174	0.711188
	H2	H	0.606931	0.836172	0.281878
	H3	H	0.410694	0.163412	0.281502
	H4	H	0.724042	0.402382	0.831879
	H5	H	0.725584	0.601007	0.159778
	H6	H	0.295385	0.598355	0.831956
	H7	H	0.294986	0.401081	0.159760
	H8	H	0.846266	0.714362	0.398211
	H9	H	0.173439	0.715199	0.595041
	H10	H	0.846774	0.285352	0.595369
	H11	H	0.174010	0.286650	0.398397
	H12	H	0.846095	0.401967	0.710371
	H13	H	0.173432	0.599168	0.711217
	H14	H	0.846437	0.599324	0.282427
	H15	H	0.173472	0.400824	0.281514
	H16	H	0.412447	0.713627	0.831708
	H17	H	0.608210	0.714828	0.159950
	H18	H	0.608269	0.285861	0.832086
	H19	H	0.409842	0.285355	0.159675
	H20	H	0.725386	0.836715	0.396118
	H21	H	0.724757	0.163435	0.594185
	H22	H	0.293618	0.836642	0.596672
	H23	H	0.295850	0.164026	0.398328
	H24	H	0.912080	0.336448	0.210735
	H25	H	0.108406	0.663682	0.211100
	H26	H	0.107625	0.335820	0.782625
	H27	H	0.912849	0.664145	0.783145
	H28	H	0.222720	0.903122	0.332014
	H29	H	0.223970	0.098092	0.660053
	H30	H	0.796203	0.098446	0.332304
	H31	H	0.794431	0.900213	0.659930
	H32	H	0.345439	0.213961	0.896716
	H33	H	0.672944	0.215372	0.094236
	H34	H	0.345998	0.785227	0.093845
	H35	H	0.673856	0.786092	0.897450
	H36	H	0.346137	0.901595	0.209694
	H37	H	0.673011	0.099305	0.210390
	H38	H	0.345797	0.097236	0.781554
	H39	H	0.673557	0.902533	0.782669
	H40	H	0.913250	0.213653	0.332285
	H41	H	0.107424	0.213381	0.660796
	H42	H	0.109298	0.785023	0.332879
	H43	H	0.912121	0.786424	0.660162
	H44	H	0.222881	0.335641	0.899111
	H45	H	0.224659	0.663748	0.094744
	H46	H	0.794802	0.336741	0.094981
	H47	H	0.796953	0.664296	0.899198
	H48	H	0.405947	0.118498	0.585202
	H49	H	0.595580	0.887244	0.585321
	H50	H	0.611750	0.119712	0.400589
	H51	H	0.414765	0.883966	0.408135
	H52	H	0.600991	0.400414	0.113842
	H53	H	0.596908	0.589651	0.882858
	H54	H	0.422583	0.589088	0.109679
	H55	H	0.416564	0.404677	0.878812
	H56	H	0.127052	0.598692	0.408981
	H57	H	0.893885	0.592969	0.588577
	H58	H	0.129535	0.405365	0.599331
	H59	H	0.893201	0.407104	0.402513
	H60	H	0.127117	0.400837	0.582658
	H61	H	0.892875	0.592291	0.591875
	H62	H	0.123374	0.586842	0.406463
	H63	H	0.893639	0.406365	0.404649
	H64	H	0.417831	0.599405	0.114384
	H65	H	0.603397	0.601353	0.876929
	H66	H	0.608893	0.409845	0.113453
	H67	H	0.414463	0.406840	0.878291
	H68	H	0.596132	0.115823	0.397911
	H69	H	0.609921	0.883090	0.584448
	H70	H	0.420293	0.119432	0.601207
	H71	H	0.412942	0.882169	0.400334
	H72	H	0.909088	0.617884	0.084328
	H73	H	0.108490	0.377952	0.100612
	H74	H	0.107168	0.617120	0.904505
	H75	H	0.909688	0.381249	0.900429
	H76	H	0.110866	0.908939	0.614500
	H77	H	0.098146	0.092940	0.381225
	H78	H	0.927128	0.097052	0.611024
	H79	H	0.918293	0.907367	0.380132
	H80	H	0.625355	0.091742	0.904176
	H81	H	0.388753	0.104180	0.094190
	H82	H	0.625524	0.904360	0.083099
	H83	H	0.392267	0.897992	0.907923
	H84	H	0.625550	0.913595	0.091913
	H85	H	0.396467	0.092791	0.075995
	H86	H	0.626347	0.093702	0.901393
	H87	H	0.397061	0.914684	0.908145
	H88	H	0.910055	0.100519	0.617574
	H89	H	0.104728	0.100579	0.376952
	H90	H	0.098324	0.912088	0.611081
	H91	H	0.916883	0.905640	0.379117
	H92	H	0.101927	0.617181	0.899701
	H93	H	0.090305	0.387245	0.090022
	H94	H	0.915083	0.620169	0.099603
	H95	H	0.921192	0.383713	0.899396
	H96	H	0.425794	0.111089	0.581712
	H97	H	0.602507	0.880882	0.597284
	H98	H	0.602359	0.113280	0.412104
	H99	H	0.420734	0.884348	0.401815
	H100	H	0.596637	0.411836	0.109774
	H101	H	0.610548	0.589284	0.878950
	H102	H	0.411035	0.589186	0.113517
	H103	H	0.417571	0.407607	0.879632
	H104	H	0.128461	0.593488	0.397414
	H105	H	0.892351	0.595832	0.590255
	H106	H	0.123882	0.416484	0.588118
	H107	H	0.894013	0.407913	0.404237
	H108	H	0.924830	0.614129	0.087902
	H109	H	0.109655	0.385370	0.079075
	H110	H	0.101200	0.615010	0.905967
	H111	H	0.916541	0.384899	0.909947
	H112	H	0.101161	0.899459	0.615747
	H113	H	0.108515	0.090316	0.379369
	H114	H	0.914434	0.082760	0.610901
	H115	H	0.916659	0.908817	0.379172
	H116	H	0.625858	0.095798	0.904430
	H117	H	0.393978	0.082248	0.096415
	H118	H	0.629454	0.902021	0.094759
	H119	H	0.390262	0.907239	0.893637
	C120	C	0.388421	0.008140	0.617810
	C121	C	0.631188	0.991917	0.617874
	C122	C	0.631257	0.008189	0.374609
	C123	C	0.387929	0.991451	0.374868
	C124	C	0.631052	0.378892	0.004120
	C125	C	0.631952	0.622248	0.987833
	C126	C	0.388588	0.621011	0.004235
	C127	C	0.387842	0.378163	0.987556
	C128	C	0.018259	0.621565	0.375582
	C129	C	1.001471	0.621980	0.618405
	C130	C	0.018494	0.379087	0.617885
	C131	C	1.001820	0.378851	0.375278
	C132	C	0.887945	0.509007	0.118737
	C133	C	0.131555	0.491621	0.118253
	C134	C	0.131738	0.508021	0.874881
	C135	C	0.888396	0.491925	0.875566
	C136	C	0.131407	0.878644	0.505030
	C137	C	0.132165	0.122456	0.487774
	C138	C	0.888616	0.121777	0.504690
	C139	C	0.888720	0.878751	0.487946
	C140	C	0.517784	0.121895	0.874545
	C141	C	0.500918	0.122138	0.117605
	C142	C	0.518282	0.878447	0.117163
	C143	C	0.501549	0.878455	0.874941
	C144	C	0.390834	0.885075	0.672957
	C145	C	0.629073	0.115037	0.673136
	C146	C	0.628073	0.884974	0.319590
	C147	C	0.389951	0.114710	0.319357
	C148	C	0.686265	0.381792	0.880860
	C149	C	0.686956	0.620430	0.110990
	C150	C	0.333438	0.618749	0.880924
	C151	C	0.332582	0.380299	0.110856
	C152	C	0.894899	0.676367	0.378191
	C153	C	0.124502	0.677299	0.615652
	C154	C	0.895401	0.323613	0.615568
	C155	C	0.125077	0.324297	0.377827
	C156	C	0.895050	0.381567	0.672764
	C157	C	0.124792	0.619275	0.673024
	C158	C	0.895129	0.619393	0.320383
	C159	C	0.124888	0.381337	0.319981
	C160	C	0.391423	0.676138	0.880816
	C161	C	0.629305	0.677690	0.110986
	C162	C	0.628535	0.324183	0.880747
	C163	C	0.390087	0.323152	0.110727
	C164	C	0.686721	0.885201	0.376444
	C165	C	0.686764	0.114702	0.615373
	C166	C	0.332524	0.885277	0.615997
	C167	C	0.333083	0.114937	0.377571
	C168	C	0.890892	0.385456	0.173296
	C169	C	0.128858	0.614923	0.173122
	C170	C	0.128217	0.384811	0.820359
	C171	C	0.892012	0.615372	0.820799
	C172	C	0.185581	0.882070	0.381307
	C173	C	0.186415	0.119387	0.611255
	C174	C	0.834133	0.118731	0.381213
	C175	C	0.833255	0.880989	0.611167
	C176	C	0.394481	0.176391	0.876531
	C177	C	0.624190	0.177575	0.114878
	C178	C	0.394927	0.823288	0.114325
	C179	C	0.624900	0.823704	0.877213
	C180	C	0.394855	0.881079	0.171884
	C181	C	0.624076	0.119861	0.172569
	C182	C	0.394602	0.118741	0.819215
	C183	C	0.624840	0.881510	0.820213
	C184	C	0.892131	0.176228	0.381164
	C185	C	0.128521	0.176339	0.611520
	C186	C	0.129188	0.823386	0.381700
	C187	C	0.891369	0.824158	0.611259
	C188	C	0.185438	0.384636	0.878167
	C189	C	0.186719	0.614871	0.115333
	C190	C	0.832888	0.385631	0.115860
	C191	C	0.834230	0.615386	0.878201
	C192	C	0.410711	0.094145	0.595831
	C193	C	0.608952	0.905841	0.595709
	C194	C	0.609701	0.094139	0.396962
	C195	C	0.409841	0.905714	0.396853
	C196	C	0.608801	0.401030	0.090075
	C197	C	0.610055	0.600038	0.901834
	C198	C	0.410598	0.599049	0.090133
	C199	C	0.409654	0.400092	0.901314
	C200	C	0.104046	0.599511	0.397591
	C201	C	0.915360	0.600155	0.596710
	C202	C	0.104572	0.401196	0.596397
	C203	C	0.915959	0.400679	0.397293
	C204	C	0.909724	0.595095	0.097109
	C205	C	0.109322	0.405516	0.096384
	C206	C	0.110103	0.594387	0.897025
	C207	C	0.909602	0.405476	0.896970
	C208	C	0.109710	0.900490	0.591524
	C209	C	0.110493	0.101012	0.401458
	C210	C	0.910633	0.099860	0.591002
	C211	C	0.910635	0.900837	0.401744
	C212	C	0.603798	0.100021	0.896839
	C213	C	0.415115	0.099716	0.095443
	C214	C	0.604688	0.900279	0.096022
	C215	C	0.415446	0.900152	0.896805
	Zn216	Zn	0.509869	0.000129	0.746661
	Zn217	Zn	0.509290	0.000228	0.246061
	Zn218	Zn	0.759814	0.500574	-0.003224
	Zn219	Zn	0.259903	0.499766	-0.003715
	Zn220	Zn	0.009808	0.750340	0.496384
	Zn221	Zn	0.010306	0.250650	0.496670
	Zn222	Zn	0.009921	0.500087	0.746920
	Zn223	Zn	0.009913	0.500574	0.247054
	Zn224	Zn	0.510119	0.750057	-0.004165
	Zn225	Zn	0.509168	0.250319	-0.004151
	Zn226	Zn	0.760114	-0.000341	0.496169
	Zn227	Zn	0.259623	-0.000143	0.496086
	N228	N	0.425027	0.962413	0.674181
	N229	N	0.595071	0.037444	0.674618
	N230	N	0.594503	0.962410	0.318265
	N231	N	0.423441	0.037181	0.317625
	N232	N	0.687712	0.415262	0.958670
	N233	N	0.688818	0.586770	0.033454
	N234	N	0.331656	0.585139	0.958645
	N235	N	0.331164	0.413865	0.033306
	N236	N	0.972335	0.677833	0.411893
	N237	N	0.046887	0.679017	0.582414
	N238	N	0.973051	0.321888	0.582269
	N239	N	0.047527	0.322559	0.411329
	N240	N	0.972532	0.415276	0.674371
	N241	N	0.047341	0.585552	0.674801
	N242	N	0.972700	0.585968	0.318642
	N243	N	0.047276	0.414703	0.318184
	N244	N	0.424985	0.677783	0.958416
	N245	N	0.595363	0.678556	0.033478
	N246	N	0.594862	0.322204	0.958314
	N247	N	0.423807	0.321744	0.033125
	N248	N	0.688618	0.962731	0.410126
	N249	N	0.688069	0.037194	0.581755
	N250	N	0.330777	0.962836	0.582537
	N251	N	0.331706	0.037400	0.411320
	N252	N	0.924453	0.463069	0.175183
	N253	N	0.095430	0.537304	0.175155
	N254	N	0.095400	0.462692	0.818147
	N255	N	0.924930	0.537535	0.818985
	N256	N	0.187084	0.915691	0.458968
	N257	N	0.188733	0.086437	0.533519
	N258	N	0.831730	0.085774	0.459193
	N259	N	0.831483	0.914219	0.533383
	N260	N	0.472055	0.178454	0.910122
	N261	N	0.546589	0.179014	0.081386
	N262	N	0.472698	0.821496	0.081312
	N263	N	0.547182	0.821747	0.910419
	N264	N	0.472502	0.914616	0.173864
	N265	N	0.546538	0.086117	0.174404
	N266	N	0.472228	0.085408	0.818032
	N267	N	0.547198	0.914743	0.818504
	N268	N	0.925298	0.178109	0.458877
	N269	N	0.095640	0.178582	0.533502
	N270	N	0.096371	0.821245	0.459665
	N271	N	0.925147	0.822782	0.533767
	N272	N	0.187434	0.462260	0.911307
	N273	N	0.188482	0.537148	0.082123
	N274	N	0.830807	0.463430	0.082944
	N275	N	0.832205	0.537716	0.911790
	O276	O	-0.479134	0.473974	1.466548
	H277	H	-0.470389	0.479787	1.470510
	H278	H	-0.481749	0.471476	1.455611
	O279	O	0.546334	0.523266	0.501852
	H280	H	0.545408	0.521390	0.497525
	H281	H	0.550962	0.520199	0.509142
	O282	O	0.558493	0.437828	0.469822
	H283	H	0.551618	0.438049	0.470892
	H284	H	0.548093	0.425021	0.462684
	O285	O	0.549441	0.446161	0.449284
	H286	H	0.547453	0.435860	0.439966
	H287	H	0.547622	0.447307	0.447960
	O288	O	0.486283	0.475283	0.516300
	H289	H	0.482260	0.483338	0.514005
	H290	H	0.488550	0.481009	0.517609
	O291	O	-0.490056	1.479696	0.477018
	H292	H	-0.481826	1.471961	0.476365
	H293	H	-0.492707	1.482118	0.490053
	O294	O	0.504196	0.477476	0.491283
	H295	H	0.502555	0.484339	0.494476
	H296	H	0.505312	0.477634	0.499614
	O297	O	0.495600	-0.530439	0.472506
	H298	H	0.493335	-0.536599	0.474363
	H299	H	0.501934	-0.527387	0.468599
