data_Molecule from HDF5

_cell_length_a		16.490214
_cell_length_b		16.496275
_cell_length_c		16.631638
_cell_angle_alpha	90.078028
_cell_angle_beta	89.980320
_cell_angle_gamma	90.099120
_symmetry_space_group_name_H-M	'P 1'
_symmetry_Int_Tables_number		1

loop_
	_symmetry_equiv_pos_as_xyz
	x,y,z

loop_
	_atom_site_label
	_atom_site_type_symbol
	_atom_site_fract_x
	_atom_site_fract_y
	_atom_site_fract_z
	H0	H	0.371908	0.849555	0.732223
	H1	H	0.590225	0.159661	0.731095
	H2	H	0.589787	0.847234	0.283986
	H3	H	0.375672	0.159455	0.284687
	H4	H	0.704158	0.397799	0.850595
	H5	H	0.706276	0.611931	0.161243
	H6	H	0.261112	0.608399	0.849902
	H7	H	0.258660	0.398015	0.160727
	H8	H	0.824563	0.722411	0.404600
	H9	H	0.140572	0.726619	0.612259
	H10	H	0.826527	0.282545	0.610876
	H11	H	0.139219	0.280594	0.398334
	H12	H	0.828025	0.395258	0.729779
	H13	H	0.140692	0.611059	0.728289
	H14	H	0.825382	0.608456	0.286585
	H15	H	0.138764	0.397902	0.283075
	H16	H	0.375219	0.726702	0.851501
	H17	H	0.591461	0.729504	0.160542
	H18	H	0.586294	0.282346	0.850310
	H19	H	0.375155	0.281757	0.162610
	H20	H	0.704405	0.847144	0.401056
	H21	H	0.705107	0.160966	0.613738
	H22	H	0.260182	0.847393	0.613439
	H23	H	0.263006	0.160990	0.403620
	H24	H	0.874861	0.347754	0.230046
	H25	H	0.090113	0.659737	0.228304
	H26	H	0.091561	0.347523	0.780428
	H27	H	0.877155	0.660126	0.783835
	H28	H	0.203117	0.900683	0.350785
	H29	H	0.208766	0.115631	0.661954
	H30	H	0.756549	0.113444	0.352888
	H31	H	0.760936	0.899843	0.663147
	H32	H	0.325205	0.226492	0.901031
	H33	H	0.640996	0.223010	0.110508
	H34	H	0.325645	0.781027	0.111930
	H35	H	0.636044	0.779321	0.896750
	H36	H	0.326290	0.894934	0.230180
	H37	H	0.639003	0.109381	0.229134
	H38	H	0.326246	0.113663	0.782841
	H39	H	0.636460	0.895933	0.781920
	H40	H	0.875663	0.227873	0.351483
	H41	H	0.092304	0.232065	0.660854
	H42	H	0.086298	0.783619	0.351087
	H43	H	0.876372	0.782363	0.662755
	H44	H	0.205361	0.346129	0.898345
	H45	H	0.205597	0.659438	0.111552
	H46	H	0.762726	0.345669	0.110153
	H47	H	0.762772	0.660604	0.902845
	H48	H	0.389859	0.119489	0.599175
	H49	H	0.569774	0.891210	0.595594
	H50	H	0.568290	0.114528	0.418734
	H51	H	0.388273	0.888667	0.417616
	H52	H	0.571179	0.416145	0.118408
	H53	H	0.563015	0.588461	0.899365
	H54	H	0.388789	0.586779	0.117702
	H55	H	0.393748	0.414091	0.894544
	H56	H	0.097389	0.594601	0.414217
	H57	H	0.869936	0.594554	0.595386
	H58	H	0.090681	0.425473	0.591228
	H59	H	0.870162	0.417021	0.415315
	H60	H	0.097882	0.416936	0.598829
	H61	H	0.871646	0.591430	0.594994
	H62	H	0.096121	0.594730	0.418395
	H63	H	0.870507	0.413071	0.419506
	H64	H	0.400261	0.588772	0.113803
	H65	H	0.571793	0.599209	0.892913
	H66	H	0.571369	0.410365	0.119117
	H67	H	0.394171	0.413469	0.894998
	H68	H	0.570435	0.115939	0.419098
	H69	H	0.567526	0.893241	0.594905
	H70	H	0.403618	0.114299	0.598489
	H71	H	0.397496	0.890369	0.413298
	H72	H	0.900036	0.613720	0.094600
	H73	H	0.072090	0.392109	0.088450
	H74	H	0.063895	0.610519	0.920225
	H75	H	0.888913	0.387454	0.912133
	H76	H	0.070744	0.915706	0.618354
	H77	H	0.068406	0.090955	0.398710
	H78	H	0.902097	0.094119	0.615115
	H79	H	0.892383	0.912948	0.394273
	H80	H	0.593088	0.094021	0.922808
	H81	H	0.370821	0.090596	0.095696
	H82	H	0.595561	0.912200	0.095282
	H83	H	0.370935	0.918772	0.921812
	H84	H	0.591488	0.918597	0.089037
	H85	H	0.368537	0.093534	0.099959
	H86	H	0.592291	0.086673	0.917267
	H87	H	0.369695	0.918565	0.917476
	H88	H	0.890607	0.097085	0.620687
	H89	H	0.071744	0.094446	0.396876
	H90	H	0.071116	0.916128	0.619084
	H91	H	0.891855	0.916393	0.395032
	H92	H	0.077475	0.615492	0.922193
	H93	H	0.072283	0.389428	0.099223
	H94	H	0.888634	0.616807	0.092055
	H95	H	0.903131	0.393395	0.913090
	H96	H	0.394928	0.114014	0.586812
	H97	H	0.569783	0.892924	0.593126
	H98	H	0.569484	0.115722	0.416976
	H99	H	0.395621	0.893244	0.423028
	H100	H	0.576013	0.413434	0.120227
	H101	H	0.577459	0.585245	0.895476
	H102	H	0.394162	0.597364	0.119651
	H103	H	0.393640	0.413294	0.894127
	H104	H	0.095916	0.591637	0.415736
	H105	H	0.869803	0.591674	0.598179
	H106	H	0.094767	0.413294	0.586638
	H107	H	0.872066	0.418929	0.420768
	H108	H	0.893356	0.619037	0.102522
	H109	H	0.062777	0.393446	0.094221
	H110	H	0.070668	0.617962	0.909457
	H111	H	0.894399	0.393374	0.925036
	H112	H	0.070780	0.916539	0.618266
	H113	H	0.073229	0.089438	0.397060
	H114	H	0.892810	0.085410	0.615017
	H115	H	0.894678	0.914278	0.395722
	H116	H	0.596232	0.094655	0.914264
	H117	H	0.368927	0.095496	0.095194
	H118	H	0.593144	0.921041	0.097881
	H119	H	0.370256	0.914753	0.919278
	C120	C	0.361217	0.013253	0.628442
	C121	C	0.602764	0.995670	0.627939
	C122	C	0.603293	0.012109	0.385420
	C123	C	0.361271	0.994508	0.385751
	C124	C	0.604171	0.381816	0.015194
	C125	C	0.603787	0.624913	0.998110
	C126	C	0.361100	0.624287	0.014352
	C127	C	0.360708	0.381218	0.997353
	C128	C	-0.008102	0.625088	0.385192
	C129	C	0.974475	0.625810	0.628230
	C130	C	-0.008320	0.384133	0.626275
	C131	C	0.974099	0.382745	0.384770
	C132	C	0.861113	0.512535	0.128503
	C133	C	0.102669	0.495203	0.126100
	C134	C	0.104448	0.511461	0.884091
	C135	C	0.862817	0.495389	0.884847
	C136	C	0.103637	0.883462	0.515722
	C137	C	0.105200	0.126654	0.499300
	C138	C	0.861494	0.125664	0.514706
	C139	C	0.860689	0.882593	0.498362
	C140	C	0.490380	0.125028	0.885559
	C141	C	0.473864	0.124938	0.128533
	C142	C	0.490332	0.883031	0.127371
	C143	C	0.472881	0.883263	0.885360
	C144	C	0.355578	0.896106	0.690671
	C145	C	0.607567	0.112976	0.690112
	C146	C	0.607099	0.894213	0.324691
	C147	C	0.358067	0.112563	0.325164
	C148	C	0.663956	0.379677	0.897483
	C149	C	0.665943	0.629650	0.114480
	C150	C	0.300627	0.627112	0.896956
	C151	C	0.299319	0.379345	0.114533
	C152	C	0.872324	0.683461	0.385133
	C153	C	0.093153	0.686664	0.630509
	C154	C	0.873773	0.322428	0.629434
	C155	C	0.092126	0.321530	0.380758
	C156	C	0.874580	0.378763	0.688512
	C157	C	0.093239	0.628973	0.688116
	C158	C	0.872796	0.626752	0.326486
	C159	C	0.091972	0.379638	0.323332
	C160	C	0.357644	0.685873	0.897767
	C161	C	0.608469	0.688015	0.114049
	C162	C	0.605429	0.322065	0.897379
	C163	C	0.357378	0.321720	0.115177
	C164	C	0.664211	0.894296	0.383087
	C165	C	0.664612	0.113550	0.631631
	C166	C	0.299646	0.895148	0.631671
	C167	C	0.302008	0.113409	0.384332
	C168	C	0.857397	0.394657	0.189257
	C169	C	0.107369	0.612741	0.187331
	C170	C	0.108653	0.394132	0.821879
	C171	C	0.859288	0.613045	0.824264
	C172	C	0.163252	0.881734	0.397904
	C173	C	0.167821	0.132416	0.615337
	C174	C	0.798430	0.130318	0.398929
	C175	C	0.800850	0.881157	0.616058
	C176	C	0.372501	0.186302	0.883024
	C177	C	0.592962	0.184092	0.129732
	C178	C	0.372864	0.821254	0.130421
	C179	C	0.589483	0.820440	0.879912
	C180	C	0.373161	0.877845	0.189230
	C181	C	0.591999	0.127305	0.188568
	C182	C	0.372896	0.129934	0.824120
	C183	C	0.589781	0.878827	0.823086
	C184	C	0.857860	0.187092	0.398090
	C185	C	0.109943	0.190449	0.614732
	C186	C	0.105356	0.823523	0.397964
	C187	C	0.858353	0.822715	0.615858
	C188	C	0.165458	0.393370	0.880588
	C189	C	0.165019	0.612482	0.129400
	C190	C	0.801400	0.393733	0.129911
	C191	C	0.802572	0.613495	0.883449
	C192	C	0.388357	0.094622	0.602358
	C193	C	0.576459	0.913891	0.601830
	C194	C	0.576894	0.094057	0.410943
	C195	C	0.386596	0.912338	0.410777
	C196	C	0.579922	0.406222	0.097601
	C197	C	0.577961	0.598515	0.916973
	C198	C	0.387020	0.598354	0.095838
	C199	C	0.386255	0.406300	0.915656
	C200	C	0.074766	0.600755	0.409229
	C201	C	0.892328	0.600148	0.603330
	C202	C	0.073099	0.410899	0.599874
	C203	C	0.892214	0.408812	0.411104
	C204	C	0.886716	0.594993	0.103627
	C205	C	0.076431	0.412940	0.100987
	C206	C	0.078342	0.593471	0.910028
	C207	C	0.888090	0.412957	0.909696
	C208	C	0.078311	0.908986	0.597333
	C209	C	0.078716	0.099441	0.418494
	C210	C	0.887850	0.099582	0.595900
	C211	C	0.885741	0.907399	0.416368
	C212	C	0.572444	0.099072	0.910937
	C213	C	0.390891	0.100102	0.103954
	C214	C	0.572185	0.909768	0.101512
	C215	C	0.391369	0.909830	0.912013
	Zn216	Zn	0.481566	0.004164	0.756862
	Zn217	Zn	0.482277	0.003242	0.257344
	Zn218	Zn	0.733300	0.503491	0.006207
	Zn219	Zn	0.232293	0.503047	0.005318
	Zn220	Zn	-0.017381	0.753522	0.506744
	Zn221	Zn	-0.016421	0.254934	0.506095
	Zn222	Zn	-0.016073	0.503877	0.755500
	Zn223	Zn	-0.017173	0.504116	0.256524
	Zn224	Zn	0.482100	0.754032	0.006073
	Zn225	Zn	0.481862	0.253040	0.007031
	Zn226	Zn	0.731771	0.004366	0.506932
	Zn227	Zn	0.233519	0.004579	0.507727
	N228	N	0.392994	0.970488	0.688958
	N229	N	0.569710	0.038718	0.687901
	N230	N	0.570005	0.968585	0.326076
	N231	N	0.394014	0.037578	0.325569
	N232	N	0.663461	0.415930	0.971953
	N233	N	0.663398	0.591116	0.041318
	N234	N	0.302677	0.589460	0.970488
	N235	N	0.301056	0.415510	0.040293
	N236	N	0.947335	0.682683	0.421074
	N237	N	0.018228	0.685077	0.594154
	N238	N	0.947631	0.325633	0.591253
	N239	N	0.017771	0.323196	0.418007
	N240	N	0.948783	0.416471	0.686566
	N241	N	0.018546	0.592089	0.687171
	N242	N	0.948101	0.591389	0.326088
	N243	N	0.017352	0.416638	0.325447
	N244	N	0.394395	0.684287	0.971816
	N245	N	0.570485	0.685321	0.040608
	N246	N	0.568974	0.323296	0.971510
	N247	N	0.394657	0.322856	0.041365
	N248	N	0.662202	0.968856	0.420024
	N249	N	0.661894	0.039640	0.593601
	N250	N	0.302868	0.969077	0.593749
	N251	N	0.303773	0.039039	0.421282
	N252	N	0.893458	0.469760	0.188742
	N253	N	0.069192	0.538788	0.185441
	N254	N	0.071509	0.468604	0.823935
	N255	N	0.895879	0.538428	0.824987
	N256	N	0.162591	0.918168	0.472313
	N257	N	0.164838	0.093285	0.542552
	N258	N	0.800572	0.092908	0.472483
	N259	N	0.802022	0.917500	0.541788
	N260	N	0.446525	0.183456	0.920522
	N261	N	0.518242	0.182906	0.093300
	N262	N	0.446697	0.824263	0.092669
	N263	N	0.515905	0.823289	0.918321
	N264	N	0.447369	0.915722	0.187447
	N265	N	0.516832	0.091294	0.188015
	N266	N	0.447326	0.092610	0.825488
	N267	N	0.516220	0.917239	0.826365
	N268	N	0.896504	0.184153	0.471100
	N269	N	0.071671	0.186901	0.541511
	N270	N	0.069367	0.824122	0.472325
	N271	N	0.894810	0.823346	0.541502
	N272	N	0.162952	0.467381	0.918519
	N273	N	0.161996	0.538523	0.091693
	N274	N	0.802994	0.468303	0.093189
	N275	N	0.804782	0.539236	0.920523
	O276	O	0.935437	1.194475	-0.001481
	H277	H	0.919244	1.197740	0.017841
	H278	H	0.962383	1.191713	0.001863
	O279	O	0.027426	0.079336	1.222133
	H280	H	0.028077	0.067267	1.221173
	H281	H	0.036376	0.086184	1.222181
	O282	O	0.829595	0.987894	1.059779
	H283	H	0.841440	0.993937	1.054314
	H284	H	0.828173	0.986635	1.057372
	O285	O	0.271572	0.717629	0.476074
	H286	H	0.265557	0.711750	0.498396
	H287	H	0.273067	0.735633	0.488872
	O288	O	1.646735	-0.447533	1.560740
	H289	H	1.656981	-0.433197	1.564968
	H290	H	1.635198	-0.448398	1.589361
	O291	O	0.595429	0.528876	0.728532
	H292	H	0.592005	0.535715	0.712606
	H293	H	0.612124	0.525652	0.741113
	O294	O	0.585853	-0.315885	-0.571882
	H295	H	0.602450	-0.308389	-0.564105
	H296	H	0.599488	-0.316826	-0.571622
	O297	O	1.570775	0.512443	-0.330935
	H298	H	1.588482	0.526089	-0.322428
	H299	H	1.574790	0.503002	-0.362605
	O300	O	0.047150	0.131153	-0.151255
	H301	H	0.034754	0.134195	-0.138145
	H302	H	0.063137	0.146922	-0.149662
	O303	O	0.191712	-0.202757	-0.017057
	H304	H	0.195644	-0.199501	-0.044784
	H305	H	0.207606	-0.215564	-0.040376
	O306	O	0.958337	0.212302	-0.207233
	H307	H	0.950212	0.243654	-0.225077
	H308	H	0.980965	0.217282	-0.169808
	O309	O	0.492390	0.510044	0.413951
	H310	H	0.477741	0.504164	0.424344
	H311	H	0.497386	0.534189	0.416574
	O312	O	0.456437	0.297084	0.710853
	H313	H	0.478087	0.320701	0.701220
	H314	H	0.455659	0.287572	0.739813
	O315	O	0.914840	1.061708	0.233452
	H316	H	0.926493	1.062233	0.240205
	H317	H	0.900801	1.064561	0.218224
	O318	O	0.953091	0.855978	0.086263
	H319	H	0.963581	0.861320	0.087786
	H320	H	0.965201	0.851990	0.086185
	O321	O	0.198631	0.978137	0.964097
	H322	H	0.192620	0.977305	0.966373
	H323	H	0.197078	0.968105	0.954188
	O324	O	0.783020	-0.141383	0.861334
	H325	H	0.783558	-0.140324	0.867142
	H326	H	0.795679	-0.140387	0.893708
	O327	O	1.483116	0.684512	0.289702
	H328	H	1.483871	0.681037	0.295298
	H329	H	1.477432	0.708689	0.275347
	O330	O	0.510385	0.281451	0.285482
	H331	H	0.526079	0.259308	0.261919
	H332	H	0.538912	0.281000	0.288248
	O333	O	0.506804	0.338597	0.577383
	H334	H	0.503465	0.336451	0.568835
	H335	H	0.505243	0.340128	0.574489
	O336	O	0.200272	0.824679	0.191157
	H337	H	0.205913	0.802960	0.192825
	H338	H	0.192403	0.814339	0.193525
	O339	O	0.333930	0.522966	0.435152
	H340	H	0.338293	0.539128	0.447598
	H341	H	0.341252	0.537375	0.408272
	O342	O	0.122141	1.032480	0.133688
	H343	H	0.108038	1.022836	0.126802
	H344	H	0.135025	1.022607	0.148636
	O345	O	-0.259855	0.249678	0.252536
	H346	H	-0.260752	0.262044	0.261191
	H347	H	-0.259827	0.242594	0.285007
	O348	O	0.528500	0.530654	0.511533
	H349	H	0.535261	0.533375	0.507690
	H350	H	0.518942	0.522121	0.499155
	O351	O	-0.220922	0.034664	0.796548
	H352	H	-0.233753	0.019688	0.807096
	H353	H	-0.217529	0.022554	0.798134
	O354	O	0.699323	0.474207	1.288894
	H355	H	0.732200	0.479211	1.258180
	H356	H	0.680792	0.491409	1.300276
	O357	O	0.342687	0.705027	0.335730
	H358	H	0.341569	0.705975	0.359422
	H359	H	0.344602	0.686668	0.336919
	O360	O	0.296833	0.318400	0.685775
	H361	H	0.333755	0.312582	0.693819
	H362	H	0.299947	0.315662	0.651301
	O363	O	0.961024	0.969966	0.772575
	H364	H	0.955530	0.991693	0.779715
	H365	H	0.966382	0.983472	0.774947
	O366	O	1.194400	-0.060080	0.797464
	H367	H	1.211923	-0.044278	0.775999
	H368	H	1.179906	-0.044843	0.807511
	O369	O	-0.026083	0.220207	1.153579
	H370	H	-0.018727	0.216533	1.170100
	H371	H	-0.047517	0.220599	1.157918
	O372	O	0.282942	0.307475	0.426048
	H373	H	0.287403	0.308651	0.423139
	H374	H	0.272393	0.303666	0.442115
	O375	O	0.935586	-0.056656	0.003937
	H376	H	0.941791	-0.040433	0.007232
	H377	H	0.943283	-0.058518	0.005122
	O378	O	-0.004782	-0.130581	1.227188
	H379	H	-0.007847	-0.121855	1.221301
	H380	H	0.022802	-0.132431	1.228226
	O381	O	0.014802	0.785937	-0.215291
	H382	H	-0.000229	0.788389	-0.227900
	H383	H	0.000993	0.779387	-0.230905
	O384	O	0.692265	0.420766	0.596157
	H385	H	0.693349	0.410876	0.598480
	H386	H	0.684812	0.436171	0.588236
	O387	O	0.269278	0.479925	1.714360
	H388	H	0.250485	0.469009	1.731517
	H389	H	0.268167	0.454931	1.711602
	O390	O	0.134777	0.860574	0.851346
	H391	H	0.130509	0.896084	0.844429
	H392	H	0.099425	0.857437	0.841119
	O393	O	0.562944	-0.284038	-0.302979
	H394	H	0.563835	-0.302308	-0.293289
	H395	H	0.570832	-0.278326	-0.285874
	O396	O	0.309515	0.532042	0.380606
	H397	H	0.312588	0.537415	0.379192
	H398	H	0.303057	0.539738	0.391355
	O399	O	0.766506	0.984076	0.225975
	H400	H	0.756843	0.977087	0.224780
	H401	H	0.760678	0.981086	0.237476
	O402	O	1.471688	-0.703845	1.448446
	H403	H	1.471483	-0.692958	1.441834
	H404	H	1.473223	-0.702633	1.417974
	O405	O	0.136612	-0.108676	0.061793
	H406	H	0.149380	-0.111475	0.040853
	H407	H	0.134058	-0.121184	0.053042
	O408	O	1.200788	1.222711	1.031122
	H409	H	1.210387	1.232655	1.061820
	H410	H	1.216710	1.231663	1.039559
	O411	O	1.362963	1.526707	0.407898
	H412	H	1.362544	1.538193	0.403126
	H413	H	1.365849	1.518891	0.424784
	O414	O	0.104258	0.109137	0.089151
	H415	H	0.095534	0.107543	0.073711
	H416	H	0.107825	0.085696	0.096768
	O417	O	1.169118	0.135906	-0.105132
	H418	H	1.182823	0.159459	-0.089229
	H419	H	1.164110	0.114781	-0.083359
	O420	O	0.864965	-0.197829	1.210024
	H421	H	0.889216	-0.192064	1.212433
	H422	H	0.876817	-0.176376	1.217169
	O423	O	0.597498	1.448291	-0.402348
	H424	H	0.594570	1.467808	-0.416781
	H425	H	0.603932	1.446862	-0.413047
	O426	O	-0.120734	1.088664	0.051274
	H427	H	-0.126479	1.092569	0.062330
	H428	H	-0.127949	1.103066	0.054017
	O429	O	0.515922	0.553443	0.684344
	H430	H	0.536328	0.544513	0.687196
	H431	H	0.495999	0.559991	0.676037
	O432	O	0.793992	0.223674	0.991191
	H433	H	0.781066	0.239033	0.982184
	H434	H	0.795209	0.231895	0.963301
	O435	O	0.449166	0.656251	0.527224
	H436	H	0.463405	0.655694	0.540124
	H437	H	0.445236	0.666214	0.528143
	O438	O	0.290418	0.564046	0.571440
	H439	H	0.301441	0.564282	0.580587
	H440	H	0.288644	0.561125	0.580184
	O441	O	0.961113	1.050570	-0.062074
	H442	H	0.958394	1.058734	-0.046973
	H443	H	0.965389	1.058879	-0.063687
	O444	O	0.441222	0.639519	0.675822
	H445	H	0.450337	0.633781	0.682349
	H446	H	0.445232	0.633210	0.669489
	O447	O	0.590460	0.387465	0.302816
	H448	H	0.602943	0.413428	0.298313
	H449	H	0.591545	0.378937	0.328116
	O450	O	0.766336	-0.205497	0.098667
	H451	H	0.774561	-0.209516	0.110253
	H452	H	0.771940	-0.220856	0.101788
	O453	O	0.696367	0.306622	0.491446
	H454	H	0.695670	0.296409	0.503942
	H455	H	0.693151	0.291312	0.508554
	O456	O	-0.171470	0.900891	0.937022
	H457	H	-0.183974	0.889065	0.936958
	H458	H	-0.153367	0.920855	0.937332
	O459	O	0.786314	0.200990	0.806822
	H460	H	0.822430	0.197509	0.806041
	H461	H	0.775943	0.162946	0.793939
	O462	O	0.411834	0.460653	0.475036
	H463	H	0.408427	0.451725	0.464990
	H464	H	0.414291	0.473487	0.466871
	O465	O	0.417204	0.458748	0.306660
	H466	H	0.420529	0.442778	0.304872
	H467	H	0.411716	0.449699	0.306011
	O468	O	0.189495	1.116873	0.216666
	H469	H	0.201513	1.087130	0.215923
	H470	H	0.190548	1.115046	0.221076
	O471	O	0.719075	0.743278	0.744905
	H472	H	0.713996	0.742546	0.755410
	H473	H	0.733187	0.733647	0.764198
	O474	O	0.932815	0.777417	-0.056769
	H475	H	0.940662	0.782098	-0.050078
	H476	H	0.936525	0.778896	-0.053267
	O477	O	0.616994	0.560643	0.382023
	H478	H	0.594288	0.562101	0.376491
	H479	H	0.612986	0.572117	0.383678
