data_Molecule from HDF5

_cell_length_a		16.545674
_cell_length_b		16.311383
_cell_length_c		16.307278
_cell_angle_alpha	90.173455
_cell_angle_beta	89.990154
_cell_angle_gamma	90.141268
_symmetry_space_group_name_H-M	'P 1'
_symmetry_Int_Tables_number		1

loop_
	_symmetry_equiv_pos_as_xyz
	x,y,z

loop_
	_atom_site_label
	_atom_site_type_symbol
	_atom_site_fract_x
	_atom_site_fract_y
	_atom_site_fract_z
	H0	H	0.393042	0.826134	0.719942
	H1	H	0.599967	0.147253	0.717277
	H2	H	0.602444	0.827287	0.278135
	H3	H	0.395476	0.146782	0.282340
	H4	H	0.718174	0.379906	0.841126
	H5	H	0.723334	0.598300	0.157228
	H6	H	0.274837	0.595855	0.842196
	H7	H	0.273512	0.377727	0.157509
	H8	H	0.838884	0.704984	0.396360
	H9	H	0.154991	0.707702	0.605632
	H10	H	0.840413	0.262921	0.605305
	H11	H	0.154736	0.262564	0.392537
	H12	H	0.839524	0.382093	0.721009
	H13	H	0.155768	0.591781	0.721203
	H14	H	0.839952	0.590529	0.277647
	H15	H	0.154102	0.377338	0.274840
	H16	H	0.395128	0.705446	0.839145
	H17	H	0.603456	0.709445	0.159314
	H18	H	0.599659	0.267148	0.840553
	H19	H	0.391030	0.265948	0.159253
	H20	H	0.720367	0.827430	0.389687
	H21	H	0.721318	0.143267	0.606761
	H22	H	0.275096	0.827166	0.607769
	H23	H	0.272962	0.143567	0.390612
	H24	H	0.893756	0.325273	0.217334
	H25	H	0.100696	0.645374	0.220243
	H26	H	0.100881	0.325570	0.781259
	H27	H	0.896971	0.646868	0.782681
	H28	H	0.218883	0.876184	0.341394
	H29	H	0.220224	0.093546	0.658295
	H30	H	0.775816	0.091706	0.340276
	H31	H	0.772877	0.875098	0.656777
	H32	H	0.339207	0.207421	0.896192
	H33	H	0.655792	0.209634	0.105221
	H34	H	0.340177	0.765773	0.103425
	H35	H	0.656036	0.766077	0.894918
	H36	H	0.340482	0.882288	0.220994
	H37	H	0.656430	0.094104	0.222778
	H38	H	0.341534	0.094570	0.774970
	H39	H	0.656123	0.882773	0.778541
	H40	H	0.891529	0.206877	0.340593
	H41	H	0.103770	0.207997	0.658744
	H42	H	0.098339	0.765875	0.339567
	H43	H	0.894118	0.766083	0.660208
	H44	H	0.222694	0.328812	0.890109
	H45	H	0.218720	0.645767	0.105812
	H46	H	0.772913	0.328420	0.107057
	H47	H	0.776052	0.645076	0.891755
	H48	H	0.412480	0.096788	0.582640
	H49	H	0.582510	0.872636	0.587571
	H50	H	0.589903	0.099653	0.414963
	H51	H	0.410043	0.874755	0.416054
	H52	H	0.588097	0.395302	0.117015
	H53	H	0.584955	0.571400	0.887848
	H54	H	0.405046	0.580201	0.116434
	H55	H	0.409818	0.404824	0.888259
	H56	H	0.112306	0.578693	0.405503
	H57	H	0.883740	0.577781	0.590379
	H58	H	0.108571	0.396363	0.587108
	H59	H	0.882975	0.396447	0.401638
	H60	H	0.110317	0.399816	0.591174
	H61	H	0.885809	0.572791	0.588839
	H62	H	0.107947	0.576615	0.417465
	H63	H	0.884955	0.388006	0.414558
	H64	H	0.406020	0.570402	0.113131
	H65	H	0.585627	0.579001	0.885853
	H66	H	0.590716	0.407296	0.113009
	H67	H	0.413161	0.395397	0.886485
	H68	H	0.589636	0.100883	0.411706
	H69	H	0.590320	0.870945	0.584580
	H70	H	0.402717	0.100443	0.584700
	H71	H	0.404041	0.871083	0.411988
	H72	H	0.913469	0.602035	0.096269
	H73	H	0.085314	0.369827	0.092478
	H74	H	0.090002	0.600386	0.914923
	H75	H	0.910807	0.372879	0.909603
	H76	H	0.082174	0.899011	0.612168
	H77	H	0.082471	0.068605	0.389091
	H78	H	0.911481	0.077401	0.613771
	H79	H	0.908692	0.898405	0.386321
	H80	H	0.609403	0.073375	0.908383
	H81	H	0.386847	0.073077	0.092149
	H82	H	0.608954	0.899774	0.086398
	H83	H	0.384383	0.896611	0.907838
	H84	H	0.611250	0.900287	0.091657
	H85	H	0.385216	0.078409	0.093459
	H86	H	0.610966	0.080286	0.908798
	H87	H	0.384483	0.895699	0.910212
	H88	H	0.903409	0.069119	0.613569
	H89	H	0.085011	0.076968	0.384695
	H90	H	0.087301	0.892161	0.616467
	H91	H	0.909851	0.893318	0.385244
	H92	H	0.089247	0.601399	0.909544
	H93	H	0.082618	0.375657	0.081340
	H94	H	0.914554	0.596064	0.080950
	H95	H	0.905426	0.373227	0.916731
	H96	H	0.410194	0.101170	0.592417
	H97	H	0.587904	0.869893	0.592586
	H98	H	0.586488	0.099831	0.413253
	H99	H	0.411489	0.872172	0.408318
	H100	H	0.578636	0.402580	0.110499
	H101	H	0.591637	0.573835	0.884817
	H102	H	0.413840	0.576929	0.113265
	H103	H	0.403655	0.397350	0.883608
	H104	H	0.108180	0.567582	0.408648
	H105	H	0.884461	0.573949	0.594029
	H106	H	0.111438	0.394627	0.591740
	H107	H	0.888394	0.402909	0.414375
	H108	H	0.900981	0.602144	0.086050
	H109	H	0.093761	0.371499	0.082812
	H110	H	0.085229	0.599403	0.912955
	H111	H	0.902461	0.369599	0.909500
	H112	H	0.091089	0.900854	0.615349
	H113	H	0.091676	0.069780	0.384642
	H114	H	0.914146	0.066485	0.610165
	H115	H	0.905385	0.895196	0.383930
	H116	H	0.608813	0.077219	0.914187
	H117	H	0.386342	0.077088	0.087609
	H118	H	0.611155	0.895673	0.088827
	H119	H	0.386011	0.898177	0.909613
	C120	C	0.376108	-0.005367	0.620263
	C121	C	0.619297	0.976574	0.620534
	C122	C	0.619924	-0.004917	0.379101
	C123	C	0.376019	0.977397	0.378849
	C124	C	0.617907	0.367763	0.008678
	C125	C	0.620196	0.608842	0.991109
	C126	C	0.376638	0.608183	0.008642
	C127	C	0.375992	0.365979	0.991077
	C128	C	0.005151	0.606148	0.378639
	C129	C	0.989032	0.607675	0.622941
	C130	C	0.006170	0.363985	0.622435
	C131	C	0.989127	0.362886	0.377177
	C132	C	0.876374	0.494876	0.120290
	C133	C	0.119527	0.477460	0.119952
	C134	C	0.119675	0.494877	0.879654
	C135	C	0.876061	0.477577	0.879494
	C136	C	0.118636	0.863738	0.509263
	C137	C	0.118996	0.105708	0.491234
	C138	C	0.877058	0.104666	0.507557
	C139	C	0.875495	0.862987	0.490290
	C140	C	0.505571	0.108798	0.878237
	C141	C	0.489958	0.109234	0.123111
	C142	C	0.506320	0.865896	0.121190
	C143	C	0.489455	0.864929	0.877388
	C144	C	0.374577	0.874441	0.680486
	C145	C	0.619987	0.098257	0.678976
	C146	C	0.621400	0.875154	0.317817
	C147	C	0.375529	0.098084	0.320349
	C148	C	0.677859	0.363151	0.888869
	C149	C	0.681869	0.614485	0.110099
	C150	C	0.316150	0.611914	0.889065
	C151	C	0.314668	0.361525	0.110227
	C152	C	0.886186	0.665232	0.377537
	C153	C	0.107624	0.668042	0.624469
	C154	C	0.887532	0.303179	0.624302
	C155	C	0.107412	0.302376	0.374409
	C156	C	0.887286	0.362050	0.682147
	C157	C	0.107836	0.610267	0.682405
	C158	C	0.886936	0.608303	0.318169
	C159	C	0.107159	0.359677	0.315646
	C160	C	0.375880	0.667116	0.888043
	C161	C	0.622302	0.669850	0.111079
	C162	C	0.619035	0.306699	0.888549
	C163	C	0.373166	0.305584	0.111311
	C164	C	0.680087	0.875296	0.373414
	C165	C	0.680279	0.096108	0.623903
	C166	C	0.315341	0.874979	0.624810
	C167	C	0.314392	0.096125	0.374389
	C168	C	0.874554	0.373814	0.178653
	C169	C	0.120558	0.597609	0.180711
	C170	C	0.120519	0.374256	0.819858
	C171	C	0.876876	0.598468	0.821052
	C172	C	0.178314	0.859619	0.389085
	C173	C	0.180024	0.110674	0.610540
	C174	C	0.816104	0.108972	0.388222
	C175	C	0.814184	0.859007	0.609759
	C176	C	0.386845	0.168131	0.876931
	C177	C	0.608443	0.170135	0.124697
	C178	C	0.387629	0.805814	0.122656
	C179	C	0.608484	0.805699	0.876129
	C180	C	0.387650	0.863812	0.181127
	C181	C	0.608855	0.112301	0.183009
	C182	C	0.387990	0.111953	0.816568
	C183	C	0.608818	0.863849	0.818210
	C184	C	0.874280	0.166246	0.388163
	C185	C	0.121923	0.167828	0.610662
	C186	C	0.118731	0.804222	0.388222
	C187	C	0.874290	0.804469	0.611325
	C188	C	0.180762	0.375538	0.874622
	C189	C	0.179246	0.597581	0.123963
	C190	C	0.814242	0.375640	0.124026
	C191	C	0.816683	0.597656	0.875284
	C192	C	0.401185	0.077840	0.594106
	C193	C	0.594159	0.892976	0.595610
	C194	C	0.595626	0.078484	0.405627
	C195	C	0.401305	0.894207	0.404691
	C196	C	0.592951	0.394275	0.092008
	C197	C	0.594900	0.582371	0.907851
	C198	C	0.401081	0.582834	0.092424
	C199	C	0.401692	0.391747	0.907803
	C200	C	0.087881	0.581438	0.403340
	C201	C	0.906367	0.582135	0.598189
	C202	C	0.088505	0.389509	0.597179
	C203	C	0.906793	0.388479	0.402875
	C204	C	0.902101	0.578278	0.095027
	C205	C	0.094514	0.394062	0.093428
	C206	C	0.095207	0.578526	0.905340
	C207	C	0.899503	0.393826	0.904767
	C208	C	0.093940	0.889871	0.592873
	C209	C	0.093601	0.079267	0.407842
	C210	C	0.902564	0.078428	0.590811
	C211	C	0.900688	0.888504	0.406946
	C212	C	0.588178	0.084095	0.903325
	C213	C	0.407584	0.083648	0.098360
	C214	C	0.588921	0.891467	0.096249
	C215	C	0.406643	0.889715	0.901989
	Zn216	Zn	0.497865	-0.013493	0.748714
	Zn217	Zn	0.498916	-0.013177	0.251772
	Zn218	Zn	0.747900	0.487613	-0.000315
	Zn219	Zn	0.248953	0.486318	-0.000374
	Zn220	Zn	-0.003080	0.735893	0.500551
	Zn221	Zn	-0.002184	0.234533	0.499590
	Zn222	Zn	-0.002193	0.486275	0.752180
	Zn223	Zn	-0.002406	0.484959	0.248357
	Zn224	Zn	0.498638	0.735861	-0.000312
	Zn225	Zn	0.497239	0.238696	0.000471
	Zn226	Zn	0.747800	-0.015564	0.499197
	Zn227	Zn	0.247360	-0.015303	0.499698
	N228	N	0.411505	0.949938	0.678207
	N229	N	0.582943	0.022838	0.677144
	N230	N	0.584749	0.950561	0.321106
	N231	N	0.413197	0.023208	0.323060
	N232	N	0.677394	0.400230	0.964644
	N233	N	0.680781	0.577284	0.034361
	N234	N	0.316522	0.575879	0.965185
	N235	N	0.316351	0.398270	0.034519
	N236	N	0.960852	0.664099	0.414425
	N237	N	0.032682	0.666679	0.588264
	N238	N	0.962528	0.304028	0.588111
	N239	N	0.033029	0.304371	0.411892
	N240	N	0.961953	0.398909	0.681189
	N241	N	0.033024	0.573519	0.681662
	N242	N	0.961789	0.572114	0.318886
	N243	N	0.032560	0.396588	0.317276
	N244	N	0.412802	0.664920	0.963462
	N245	N	0.584639	0.666239	0.036184
	N246	N	0.582445	0.309449	0.964077
	N247	N	0.410711	0.308139	0.036167
	N248	N	0.679288	0.950813	0.410890
	N249	N	0.680100	0.019524	0.588385
	N250	N	0.316199	0.950655	0.587968
	N251	N	0.314424	0.019979	0.409962
	N252	N	0.912552	0.448741	0.176423
	N253	N	0.084604	0.521682	0.178775
	N254	N	0.083114	0.449233	0.822861
	N255	N	0.913009	0.522793	0.823491
	N256	N	0.178505	0.895766	0.465227
	N257	N	0.178326	0.072902	0.535145
	N258	N	0.817921	0.071341	0.463452
	N259	N	0.814590	0.894556	0.533378
	N260	N	0.460929	0.165987	0.914903
	N261	N	0.533585	0.168516	0.088244
	N262	N	0.462379	0.807039	0.086302
	N263	N	0.533344	0.806345	0.912233
	N264	N	0.462607	0.900436	0.180374
	N265	N	0.534090	0.075286	0.182358
	N266	N	0.462726	0.075598	0.817462
	N267	N	0.533823	0.899816	0.818706
	N268	N	0.911496	0.163824	0.463621
	N269	N	0.084725	0.165049	0.535352
	N270	N	0.082347	0.806522	0.464066
	N271	N	0.911710	0.806854	0.536262
	N272	N	0.180713	0.451876	0.910590
	N273	N	0.178745	0.521714	0.087139
	N274	N	0.815120	0.452089	0.088608
	N275	N	0.816023	0.521470	0.911108
	O276	O	0.612515	0.675643	0.685263
	H277	H	0.585382	0.679349	0.695654
	H278	H	0.615423	0.654312	0.693736
	O279	O	0.523440	0.503449	0.638331
	H280	H	0.529557	0.512479	0.629937
	H281	H	0.521282	0.489855	0.649460
	O282	O	0.320533	0.672864	0.317460
	H283	H	0.313092	0.677270	0.355307
	H284	H	0.328759	0.648243	0.322827
	O285	O	0.792041	1.002913	-0.098671
	H286	H	0.799086	1.011691	-0.085684
	H287	H	0.791054	0.993702	-0.118368
	O288	O	0.405298	0.318406	0.499131
	H289	H	0.392239	0.310641	0.493498
	H290	H	0.397312	0.322359	0.475789
	O291	O	0.687271	0.340997	0.429761
	H292	H	0.682746	0.342086	0.425170
	H293	H	0.702688	0.335050	0.414847
	O294	O	0.791637	0.843571	1.089851
	H295	H	0.817797	0.855230	1.094859
	H296	H	0.771142	0.825563	1.096928
	O297	O	0.494590	0.699922	0.334681
	H298	H	0.480511	0.719266	0.328623
	H299	H	0.477778	0.704178	0.340034
	O300	O	0.604672	0.479742	0.406321
	H301	H	0.616569	0.481019	0.403343
	H302	H	0.589391	0.495925	0.386904
	O303	O	0.646757	0.489234	0.630108
	H304	H	0.652149	0.489395	0.632001
	H305	H	0.662654	0.484273	0.620060
	O306	O	-0.031694	0.199869	0.791551
	H307	H	-0.034886	0.210531	0.780587
	H308	H	-0.047272	0.200922	0.779366
	O309	O	1.022080	0.059005	-0.137563
	H310	H	1.015413	0.069567	-0.146535
	H311	H	1.023322	0.063836	-0.138932
	O312	O	0.093222	0.800207	0.814265
	H313	H	0.082036	0.800064	0.818303
	H314	H	0.107222	0.780341	0.824819
	O315	O	1.190651	0.889610	-0.002861
	H316	H	1.196600	0.885368	0.011560
	H317	H	1.179040	0.893981	0.006222
	O318	O	-0.166311	0.052036	-0.001516
	H319	H	-0.179643	0.052474	-0.002860
	H320	H	-0.172335	0.040130	0.003213
	O321	O	0.505258	0.282033	0.391320
	H322	H	0.530450	0.276002	0.376246
	H323	H	0.497589	0.283650	0.370403
	O324	O	1.040397	0.021235	0.898782
	H325	H	1.045480	0.031607	0.902492
	H326	H	1.028625	0.010640	0.891001
	O327	O	0.303833	0.584483	0.473437
	H328	H	0.304105	0.567080	0.461691
	H329	H	0.307136	0.576204	0.490245
	O330	O	0.183913	1.117548	1.182766
	H331	H	0.186825	1.117819	1.144703
	H332	H	0.197371	1.082423	1.197725
	O333	O	-0.006550	1.202517	-0.002319
	H334	H	-0.008779	1.210574	-0.003212
	H335	H	0.000742	1.197531	-0.012499
	O336	O	0.811031	1.173468	-0.190011
	H337	H	0.799924	1.146063	-0.173070
	H338	H	0.827165	1.176575	-0.160815
	O339	O	0.206345	0.970665	0.796756
	H340	H	0.205345	0.959790	0.791147
	H341	H	0.216302	0.945186	0.782848
	O342	O	0.471851	0.512568	0.317246
	H343	H	0.474156	0.516278	0.310642
	H344	H	0.476432	0.522580	0.322527
	O345	O	0.129568	-0.015216	1.186564
	H346	H	0.114263	-0.026301	1.185283
	H347	H	0.126502	-0.014720	1.206094
	O348	O	0.282254	0.514154	0.288920
	H349	H	0.276875	0.510474	0.293614
	H350	H	0.269126	0.525400	0.271614
	O351	O	0.855707	1.037437	0.172517
	H352	H	0.865997	1.052920	0.163151
	H353	H	0.854946	1.050294	0.189893
	O354	O	1.189150	0.802893	0.930525
	H355	H	1.201234	0.801722	0.962615
	H356	H	1.203187	0.806194	0.919725
	O357	O	-0.572941	0.433828	-0.300601
	H358	H	-0.560287	0.419809	-0.300341
	H359	H	-0.569484	0.421890	-0.296521
	O360	O	0.348275	0.678486	0.500598
	H361	H	0.329517	0.657431	0.508921
	H362	H	0.333088	0.683499	0.506635
	O363	O	0.967176	-0.122528	-0.186064
	H364	H	0.964499	-0.139543	-0.183107
	H365	H	0.959750	-0.108701	-0.186363
	O366	O	-0.109718	-0.201346	1.182801
	H367	H	-0.114441	-0.175492	1.176813
	H368	H	-0.116580	-0.208580	1.174338
	O369	O	0.910275	-0.162116	1.077423
	H370	H	0.892483	-0.156420	1.088247
	H371	H	0.901635	-0.159255	1.097112
	O372	O	0.552629	0.402777	0.425391
	H373	H	0.557897	0.422351	0.423228
	H374	H	0.556915	0.395864	0.431361
	O375	O	-0.099264	-0.198365	1.086794
	H376	H	-0.095460	-0.177189	1.086800
	H377	H	-0.093632	-0.199688	1.076423
	O378	O	0.314031	0.300720	0.677270
	H379	H	0.302221	0.311398	0.662848
	H380	H	0.363542	0.293953	0.684582
	O381	O	-0.128889	1.148982	0.063120
	H382	H	-0.118058	1.152957	0.064247
	H383	H	-0.108204	1.166236	0.069494
	O384	O	0.463124	0.649214	0.621466
	H385	H	0.446769	0.641516	0.611063
	H386	H	0.462674	0.659295	0.609363
	O387	O	0.663581	0.328245	0.583956
	H388	H	0.661263	0.307396	0.577331
	H389	H	0.668573	0.334778	0.586756
	O390	O	1.173393	1.049137	-0.046415
	H391	H	1.187454	1.043944	-0.044926
	H392	H	1.163589	1.037948	-0.054282
	O393	O	1.040788	-0.010876	1.007933
	H394	H	1.038030	-0.002847	0.998343
	H395	H	1.048416	-0.004632	1.011508
	O396	O	0.288278	0.464301	0.624469
	H397	H	0.290028	0.469703	0.623766
	H398	H	0.293689	0.454476	0.633937
	O399	O	0.329997	0.278185	0.471430
	H400	H	0.299458	0.264359	0.473324
	H401	H	0.347633	0.284782	0.495652
	O402	O	0.844317	0.946901	-0.029090
	H403	H	0.849333	0.944876	-0.044219
	H404	H	0.848204	0.945840	-0.031819
	O405	O	0.382817	0.630750	0.638609
	H406	H	0.381250	0.620807	0.634919
	H407	H	0.378988	0.610737	0.644562
	O408	O	0.683228	0.390098	0.359259
	H409	H	0.690904	0.416019	0.345606
	H410	H	0.679314	0.409873	0.373983
	O411	O	0.866769	0.989436	0.792010
	H412	H	0.863808	0.975629	0.786420
	H413	H	0.872182	0.989031	0.776167
	O414	O	0.700473	0.625369	0.643110
	H415	H	0.673908	0.609986	0.659397
	H416	H	0.725343	0.640543	0.646133
	O417	O	0.108567	0.790502	1.070073
	H418	H	0.104825	0.776913	1.079694
	H419	H	0.103843	0.799102	1.069720
	O420	O	0.024079	1.199553	1.213247
	H421	H	0.072823	1.191999	1.206657
	H422	H	0.030753	1.233617	1.238725
	O423	O	0.181594	1.170981	0.060866
	H424	H	0.188293	1.169135	0.041575
	H425	H	0.181467	1.161680	0.049061
	O426	O	0.372373	0.384359	0.359583
	H427	H	0.379835	0.381804	0.347419
	H428	H	0.366794	0.359206	0.372802
	O429	O	0.641271	0.558943	0.410760
	H430	H	0.627091	0.569914	0.415010
	H431	H	0.635119	0.579537	0.417974
	O432	O	0.651269	0.679372	0.511111
	H433	H	0.658518	0.684362	0.512996
	H434	H	0.660046	0.693300	0.509608
	O435	O	0.490931	0.297744	0.653115
	H436	H	0.507070	0.289451	0.625782
	H437	H	0.502018	0.278515	0.656141
	O438	O	0.034978	0.950925	1.197855
	H439	H	0.017363	0.967369	1.187938
	H440	H	0.019326	0.942888	1.203663
	O441	O	0.633337	0.484816	0.389807
	H442	H	0.643511	0.495493	0.380700
	H443	H	0.633425	0.494331	0.387468
