data_Molecule from HDF5

_cell_length_a		16.202632
_cell_length_b		16.403973
_cell_length_c		16.166460
_cell_angle_alpha	89.935270
_cell_angle_beta	89.823795
_cell_angle_gamma	89.818149
_symmetry_space_group_name_H-M	'P 1'
_symmetry_Int_Tables_number		1

loop_
	_symmetry_equiv_pos_as_xyz
	x,y,z

loop_
	_atom_site_label
	_atom_site_type_symbol
	_atom_site_fract_x
	_atom_site_fract_y
	_atom_site_fract_z
	H0	H	0.400761	0.844141	0.697243
	H1	H	0.599518	0.168630	0.693639
	H2	H	0.602892	0.842955	0.264207
	H3	H	0.404152	0.168909	0.265019
	H4	H	0.718819	0.405793	0.816517
	H5	H	0.713724	0.603032	0.146203
	H6	H	0.289628	0.604481	0.815396
	H7	H	0.289043	0.406427	0.144306
	H8	H	0.840059	0.722747	0.378408
	H9	H	0.165857	0.723057	0.582276
	H10	H	0.839767	0.289868	0.584183
	H11	H	0.164356	0.285968	0.375384
	H12	H	0.839436	0.408243	0.696108
	H13	H	0.168961	0.602305	0.691618
	H14	H	0.839466	0.606118	0.265232
	H15	H	0.167369	0.406316	0.265363
	H16	H	0.400115	0.723360	0.816258
	H17	H	0.604543	0.723660	0.142577
	H18	H	0.604974	0.290179	0.815747
	H19	H	0.400219	0.287800	0.142177
	H20	H	0.719869	0.843677	0.378399
	H21	H	0.716920	0.168318	0.577338
	H22	H	0.284299	0.843619	0.581891
	H23	H	0.284222	0.167181	0.378275
	H24	H	0.905424	0.343132	0.195890
	H25	H	0.101320	0.668017	0.194989
	H26	H	0.102930	0.343288	0.765531
	H27	H	0.905811	0.669078	0.766203
	H28	H	0.216070	0.907560	0.315398
	H29	H	0.214609	0.102379	0.644922
	H30	H	0.789606	0.104430	0.314317
	H31	H	0.788832	0.910263	0.644701
	H32	H	0.339706	0.223530	0.877434
	H33	H	0.666645	0.221104	0.079763
	H34	H	0.339571	0.790132	0.081486
	H35	H	0.665039	0.788535	0.875455
	H36	H	0.338154	0.908797	0.193830
	H37	H	0.667466	0.103382	0.193147
	H38	H	0.337623	0.103718	0.766455
	H39	H	0.666691	0.908250	0.765209
	H40	H	0.900426	0.224528	0.316948
	H41	H	0.102608	0.221427	0.643261
	H42	H	0.105494	0.788712	0.317250
	H43	H	0.901326	0.790677	0.644208
	H44	H	0.220101	0.343255	0.880604
	H45	H	0.218737	0.667455	0.079957
	H46	H	0.787593	0.342919	0.081025
	H47	H	0.785619	0.668284	0.881230
	H48	H	0.408092	0.119713	0.567597
	H49	H	0.594454	0.887477	0.583069
	H50	H	0.589488	0.119067	0.385853
	H51	H	0.403004	0.888613	0.390247
	H52	H	0.584334	0.412586	0.094192
	H53	H	0.582764	0.599966	0.866452
	H54	H	0.416789	0.600214	0.094906
	H55	H	0.406764	0.420466	0.862741
	H56	H	0.119022	0.598699	0.390116
	H57	H	0.888358	0.598962	0.564841
	H58	H	0.122012	0.416401	0.581927
	H59	H	0.883348	0.415684	0.377916
	H60	H	0.122205	0.400785	0.568965
	H61	H	0.887032	0.592841	0.576395
	H62	H	0.119901	0.595997	0.388007
	H63	H	0.884732	0.403905	0.396881
	H64	H	0.408878	0.601604	0.099110
	H65	H	0.601481	0.606022	0.859374
	H66	H	0.596094	0.403006	0.100983
	H67	H	0.421337	0.415186	0.865421
	H68	H	0.600283	0.120254	0.391501
	H69	H	0.587365	0.895120	0.565377
	H70	H	0.405622	0.122275	0.573495
	H71	H	0.411498	0.889068	0.379827
	H72	H	0.906124	0.620611	0.070578
	H73	H	0.093308	0.389557	0.076014
	H74	H	0.105373	0.625121	0.883103
	H75	H	0.918359	0.394409	0.893176
	H76	H	0.095220	0.918034	0.596680
	H77	H	0.088490	0.098314	0.363602
	H78	H	0.905518	0.106455	0.599824
	H79	H	0.915695	0.909311	0.363407
	H80	H	0.617660	0.095395	0.887999
	H81	H	0.383779	0.103838	0.073597
	H82	H	0.621315	0.915826	0.078078
	H83	H	0.380829	0.906224	0.881119
	H84	H	0.621548	0.904757	0.068897
	H85	H	0.387875	0.098877	0.064229
	H86	H	0.620581	0.099137	0.884499
	H87	H	0.387362	0.908977	0.898351
	H88	H	0.904415	0.091505	0.596016
	H89	H	0.094928	0.099861	0.361124
	H90	H	0.088054	0.911783	0.597063
	H91	H	0.907798	0.909312	0.360009
	H92	H	0.090000	0.621111	0.881221
	H93	H	0.095569	0.391560	0.068160
	H94	H	0.906995	0.623041	0.077245
	H95	H	0.903383	0.390478	0.893439
	H96	H	0.411694	0.120358	0.572818
	H97	H	0.606349	0.888638	0.566668
	H98	H	0.599124	0.124137	0.379436
	H99	H	0.415655	0.893614	0.391824
	H100	H	0.600119	0.418705	0.096616
	H101	H	0.599011	0.586407	0.865304
	H102	H	0.410777	0.594253	0.095809
	H103	H	0.410785	0.405803	0.859896
	H104	H	0.121144	0.599522	0.387215
	H105	H	0.884366	0.605052	0.575246
	H106	H	0.115439	0.418392	0.562569
	H107	H	0.891857	0.424571	0.396182
	H108	H	0.912713	0.620264	0.073545
	H109	H	0.101567	0.388446	0.073549
	H110	H	0.097253	0.619230	0.895513
	H111	H	0.911743	0.388527	0.880746
	H112	H	0.096381	0.909256	0.599761
	H113	H	0.093050	0.094102	0.363773
	H114	H	0.918343	0.099174	0.594838
	H115	H	0.910302	0.915861	0.362979
	H116	H	0.618914	0.099910	0.889446
	H117	H	0.387447	0.093399	0.075028
	H118	H	0.616472	0.917059	0.063930
	H119	H	0.387309	0.923582	0.886317
	C120	C	0.379164	0.013929	0.601595
	C121	C	0.624138	0.997654	0.600567
	C122	C	0.625744	0.014094	0.356631
	C123	C	0.380563	0.997348	0.357675
	C124	C	0.623986	0.383109	-0.011321
	C125	C	0.623676	0.626887	0.971793
	C126	C	0.381894	0.627831	-0.011687
	C127	C	0.382545	0.384311	0.970945
	C128	C	0.011634	0.627557	0.358721
	C129	C	0.995087	0.627155	0.601150
	C130	C	0.011736	0.383643	0.601649
	C131	C	0.994354	0.384692	0.359324
	C132	C	0.880419	0.513928	0.103037
	C133	C	0.125367	0.496885	0.101925
	C134	C	0.126572	0.514347	0.857980
	C135	C	0.881513	0.497910	0.859374
	C136	C	0.123355	0.883891	0.489157
	C137	C	0.122268	0.126503	0.471401
	C138	C	0.880727	0.127858	0.488224
	C139	C	0.881521	0.883927	0.471282
	C140	C	0.511256	0.127743	0.857747
	C141	C	0.494729	0.127187	0.100283
	C142	C	0.511402	0.884177	0.100363
	C143	C	0.493442	0.884058	0.858136
	C144	C	0.381119	0.892258	0.658395
	C145	C	0.620620	0.120002	0.655839
	C146	C	0.623386	0.891731	0.301559
	C147	C	0.382872	0.119744	0.302116
	C148	C	0.680801	0.385687	0.865563
	C149	C	0.677736	0.624061	0.096152
	C150	C	0.326744	0.625283	0.864688
	C151	C	0.326622	0.386312	0.094872
	C152	C	0.889055	0.684597	0.358989
	C153	C	0.117569	0.683932	0.600888
	C154	C	0.888777	0.327865	0.602814
	C155	C	0.116540	0.326590	0.358263
	C156	C	0.888552	0.386738	0.658649
	C157	C	0.119124	0.623848	0.655494
	C158	C	0.888507	0.625944	0.302889
	C159	C	0.117805	0.385911	0.302750
	C160	C	0.382140	0.684369	0.865267
	C161	C	0.623295	0.684127	0.094321
	C162	C	0.623955	0.327955	0.865257
	C163	C	0.381724	0.326904	0.093776
	C164	C	0.681694	0.892062	0.358517
	C165	C	0.679276	0.119729	0.598412
	C166	C	0.322908	0.892051	0.600854
	C167	C	0.323607	0.119213	0.358951
	C168	C	0.884304	0.391639	0.158267
	C169	C	0.122173	0.619341	0.157047
	C170	C	0.124026	0.391728	0.803294
	C171	C	0.884526	0.620439	0.803948
	C172	C	0.178965	0.886398	0.365042
	C173	C	0.177482	0.123631	0.595354
	C174	C	0.826580	0.125216	0.363873
	C175	C	0.826172	0.888314	0.595304
	C176	C	0.388204	0.184432	0.858494
	C177	C	0.617837	0.182859	0.099051
	C178	C	0.388173	0.828841	0.100333
	C179	C	0.616579	0.827408	0.857178
	C180	C	0.387488	0.887843	0.156001
	C181	C	0.618422	0.124129	0.155348
	C182	C	0.387094	0.125099	0.803272
	C183	C	0.617255	0.887248	0.802284
	C184	C	0.881101	0.185230	0.365389
	C185	C	0.121667	0.182720	0.594571
	C186	C	0.123458	0.827814	0.365810
	C187	C	0.881926	0.828972	0.595165
	C188	C	0.182398	0.392011	0.860236
	C189	C	0.180584	0.619140	0.100015
	C190	C	0.825777	0.391536	0.100997
	C191	C	0.824869	0.620087	0.860997
	C192	C	0.401763	0.098705	0.577977
	C193	C	0.602464	0.912437	0.578298
	C194	C	0.603090	0.099074	0.378939
	C195	C	0.403409	0.912411	0.380674
	C196	C	0.600529	0.405074	0.075046
	C197	C	0.601022	0.604169	0.885886
	C198	C	0.405299	0.605319	0.074338
	C199	C	0.406120	0.407195	0.885046
	C200	C	0.097689	0.604615	0.381676
	C201	C	0.908882	0.605144	0.578855
	C202	C	0.097627	0.405366	0.577917
	C203	C	0.908747	0.408062	0.383195
	C204	C	0.902057	0.599250	0.080303
	C205	C	0.103145	0.411881	0.079408
	C206	C	0.104059	0.599685	0.880027
	C207	C	0.904482	0.413120	0.882364
	C208	C	0.099971	0.906351	0.575365
	C209	C	0.099123	0.103955	0.385177
	C210	C	0.902836	0.105506	0.574437
	C211	C	0.904432	0.905145	0.384647
	C212	C	0.596995	0.105035	0.880689
	C213	C	0.408507	0.105279	0.077728
	C214	C	0.597438	0.905937	0.077036
	C215	C	0.407364	0.906237	0.881718
	Zn216	Zn	0.501800	0.006022	0.730298
	Zn217	Zn	0.503193	0.005618	0.228555
	Zn218	Zn	0.751548	0.505384	-0.018675
	Zn219	Zn	0.254900	0.505639	-0.019911
	Zn220	Zn	0.003102	0.755665	0.480249
	Zn221	Zn	0.002158	0.255885	0.479797
	Zn222	Zn	0.004487	0.505659	0.729454
	Zn223	Zn	0.003354	0.505597	0.230949
	Zn224	Zn	0.502775	0.756201	-0.020489
	Zn225	Zn	0.502719	0.255667	-0.020838
	Zn226	Zn	0.753685	0.005869	0.478357
	Zn227	Zn	0.250853	0.005318	0.479391
	N228	N	0.415416	0.968901	0.659016
	N229	N	0.587100	0.042959	0.657374
	N230	N	0.589232	0.968658	0.300142
	N231	N	0.417828	0.043107	0.301408
	N232	N	0.680924	0.419308	0.943440
	N233	N	0.678104	0.589052	0.018829
	N234	N	0.326407	0.590706	0.942113
	N235	N	0.326994	0.421345	0.017465
	N236	N	0.966818	0.685834	0.392953
	N237	N	0.039532	0.685827	0.567626
	N238	N	0.966423	0.325881	0.568097
	N239	N	0.038802	0.325704	0.392520
	N240	N	0.965957	0.420763	0.658216
	N241	N	0.041856	0.589022	0.655695
	N242	N	0.965854	0.591237	0.302503
	N243	N	0.040843	0.421558	0.303487
	N244	N	0.415896	0.685923	0.943356
	N245	N	0.590127	0.685965	0.016147
	N246	N	0.589466	0.326300	0.943149
	N247	N	0.415790	0.325722	0.015843
	N248	N	0.683098	0.968918	0.392232
	N249	N	0.681527	0.042895	0.564737
	N250	N	0.321775	0.968714	0.566132
	N251	N	0.321945	0.042210	0.392514
	N252	N	0.917426	0.468720	0.159521
	N253	N	0.088526	0.542357	0.158325
	N254	N	0.090339	0.468784	0.801487
	N255	N	0.918840	0.543509	0.802534
	N256	N	0.179057	0.920566	0.442696
	N257	N	0.177793	0.089283	0.517713
	N258	N	0.826147	0.090357	0.441270
	N259	N	0.825924	0.921653	0.517221
	N260	N	0.466371	0.186105	0.891618
	N261	N	0.539934	0.184554	0.065455
	N262	N	0.466222	0.826425	0.066558
	N263	N	0.538645	0.825402	0.891129
	N264	N	0.465135	0.921454	0.156356
	N265	N	0.540916	0.090260	0.156307
	N266	N	0.464393	0.090560	0.802552
	N267	N	0.539722	0.921740	0.802729
	N268	N	0.914100	0.186886	0.443535
	N269	N	0.088146	0.184478	0.516446
	N270	N	0.089865	0.826000	0.444050
	N271	N	0.915531	0.826033	0.516845
	N272	N	0.184034	0.469244	0.893489
	N273	N	0.182839	0.542086	0.066531
	N274	N	0.823233	0.468636	0.067469
	N275	N	0.822932	0.543041	0.894629
	O276	O	-0.427466	-0.616458	0.355902
	H277	H	-0.411102	-0.624936	0.347581
	H278	H	-0.427486	-0.612123	0.353644
	O279	O	0.568891	0.452482	0.489292
	H280	H	0.574032	0.462193	0.498057
	H281	H	0.569665	0.450686	0.482977
	O282	O	0.509203	0.638737	0.549601
	H283	H	0.504152	0.654044	0.546993
	H284	H	0.506534	0.631275	0.541187
	O285	O	-0.044887	0.991320	1.015813
	H286	H	-0.045384	0.992470	1.029574
	H287	H	-0.039044	0.992866	1.019387
	O288	O	0.427927	0.366641	0.644749
	H289	H	0.424673	0.358345	0.650773
	H290	H	0.441344	0.360259	0.641014
	O291	O	0.562199	1.584399	1.365633
	H292	H	0.561354	1.595517	1.371647
	H293	H	0.550282	1.578669	1.370817
	O294	O	1.052047	1.011391	1.047544
	H295	H	1.056337	1.006518	1.052041
	H296	H	1.046953	1.012055	1.047423
	O297	O	0.977019	0.043905	0.935231
	H298	H	0.978046	0.038431	0.932685
	H299	H	0.971280	0.037840	0.935340
	O300	O	0.357356	0.521234	0.479807
	H301	H	0.339156	0.528136	0.475334
	H302	H	0.359539	0.518881	0.477746
	O303	O	0.969329	-0.057948	0.032368
	H304	H	0.970408	-0.053274	0.034407
	H305	H	0.959908	-0.061726	0.036052
	O306	O	0.008976	1.000678	1.008750
	H307	H	0.004965	1.002682	1.003268
	H308	H	0.010584	1.008166	0.997118
	O309	O	0.594791	0.610235	0.565412
	H310	H	0.591917	0.627142	0.582716
	H311	H	0.590213	0.618538	0.559906
	O312	O	1.012279	-0.014603	1.056797
	H313	H	1.009530	-0.010735	1.052849
	H314	H	1.018216	-0.015520	1.062997
	O315	O	0.634441	0.487197	0.544774
	H316	H	0.634317	0.502578	0.531391
	H317	H	0.629938	0.481499	0.552072
	O318	O	-0.013810	0.012966	0.997737
	H319	H	-0.008561	0.006825	0.993996
	H320	H	-0.027809	0.014836	0.993501
	O321	O	2.008760	0.094316	1.944508
	H322	H	2.007740	0.100810	1.938005
	H323	H	2.000240	0.093904	1.940049
	O324	O	0.506463	0.457525	0.482636
	H325	H	0.505436	0.448740	0.480603
	H326	H	0.502423	0.442613	0.489406
	O327	O	0.652326	0.424605	0.373727
	H328	H	0.660243	0.424994	0.377273
	H329	H	0.647284	0.436225	0.378615
	O330	O	0.408001	-0.368639	0.401057
	H331	H	0.411919	-0.369486	0.402540
	H332	H	0.423676	-0.362485	0.380302
	O333	O	1.053819	1.048699	-0.057406
	H334	H	1.049360	1.051275	-0.056947
	H335	H	1.047545	1.052530	-0.055935
	O336	O	0.525601	0.551593	0.501986
	H337	H	0.535963	0.558374	0.503203
	H338	H	0.526413	0.542366	0.494685
	O339	O	0.442025	0.550567	0.479621
	H340	H	0.429590	0.553190	0.493560
	H341	H	0.461949	0.556144	0.464461
	O342	O	0.478670	1.419506	0.542275
	H343	H	0.482828	1.423734	0.538586
	H344	H	0.469779	1.423817	0.529552
	O345	O	0.522918	0.475257	0.472735
	H346	H	0.540005	0.458637	0.467596
	H347	H	0.509752	0.465121	0.484761
	O348	O	0.494803	0.572139	0.607511
	H349	H	0.486810	0.565938	0.610954
	H350	H	0.497528	0.579028	0.623815
	O351	O	-0.534967	0.452198	0.420656
	H352	H	-0.555989	0.455041	0.399973
	H353	H	-0.523386	0.445296	0.420310
	O354	O	0.450858	0.545524	0.486366
	H355	H	0.451352	0.554857	0.487083
	H356	H	0.449530	0.545232	0.491523
	O357	O	0.419117	0.582827	0.340521
	H358	H	0.403607	0.575833	0.347479
	H359	H	0.409201	0.582573	0.350436
	O360	O	-0.079112	0.043015	-0.061388
	H361	H	-0.077531	0.048009	-0.063642
	H362	H	-0.071947	0.039721	-0.057940
	O363	O	0.563715	0.622042	0.510407
	H364	H	0.565989	0.625033	0.506531
	H365	H	0.565187	0.627204	0.506843
	O366	O	-0.020437	0.031537	0.971984
	H367	H	-0.020208	0.035157	0.971126
	H368	H	-0.019914	0.035191	0.960483
	O369	O	0.472474	0.428121	0.427548
	H370	H	0.469219	0.422316	0.430861
	H371	H	0.476354	0.429637	0.427995
