data_Molecule from HDF5

_cell_length_a		16.304055
_cell_length_b		16.187535
_cell_length_c		16.457938
_cell_angle_alpha	89.859583
_cell_angle_beta	90.006718
_cell_angle_gamma	90.249971
_symmetry_space_group_name_H-M	'P 1'
_symmetry_Int_Tables_number		1

loop_
	_symmetry_equiv_pos_as_xyz
	x,y,z

loop_
	_atom_site_label
	_atom_site_type_symbol
	_atom_site_fract_x
	_atom_site_fract_y
	_atom_site_fract_z
	H0	H	0.388413	0.824255	0.724588
	H1	H	0.597158	0.148086	0.724099
	H2	H	0.595098	0.824211	0.286598
	H3	H	0.388381	0.147562	0.286064
	H4	H	0.711268	0.381027	0.843088
	H5	H	0.716716	0.590707	0.161698
	H6	H	0.277038	0.586541	0.842305
	H7	H	0.271912	0.381182	0.163101
	H8	H	0.830465	0.701961	0.401125
	H9	H	0.156501	0.701667	0.600772
	H10	H	0.830966	0.267663	0.603731
	H11	H	0.156021	0.270733	0.404149
	H12	H	0.832615	0.378467	0.724575
	H13	H	0.155300	0.589223	0.720958
	H14	H	0.832649	0.590571	0.282022
	H15	H	0.154044	0.381123	0.282884
	H16	H	0.391315	0.705164	0.844556
	H17	H	0.595696	0.702244	0.165795
	H18	H	0.591520	0.268574	0.842979
	H19	H	0.391436	0.268317	0.165237
	H20	H	0.706678	0.822506	0.404547
	H21	H	0.711170	0.148043	0.607624
	H22	H	0.275605	0.823154	0.605586
	H23	H	0.280211	0.149799	0.406215
	H24	H	0.887814	0.324220	0.222718
	H25	H	0.098814	0.647493	0.221780
	H26	H	0.095277	0.322527	0.786328
	H27	H	0.890167	0.646549	0.783249
	H28	H	0.212699	0.885063	0.343429
	H29	H	0.211998	0.089994	0.664577
	H30	H	0.771259	0.090495	0.345146
	H31	H	0.773785	0.881109	0.663768
	H32	H	0.329428	0.199430	0.906389
	H33	H	0.654205	0.203512	0.105252
	H34	H	0.330781	0.765842	0.107955
	H35	H	0.654524	0.769105	0.905185
	H36	H	0.330600	0.881761	0.223609
	H37	H	0.652570	0.092505	0.225568
	H38	H	0.332492	0.090956	0.784823
	H39	H	0.652128	0.878796	0.783799
	H40	H	0.892049	0.203344	0.342370
	H41	H	0.093490	0.203386	0.664869
	H42	H	0.094391	0.769906	0.341311
	H43	H	0.892445	0.767112	0.664162
	H44	H	0.207577	0.321689	0.902590
	H45	H	0.210881	0.648500	0.102956
	H46	H	0.775252	0.323348	0.104860
	H47	H	0.774085	0.646608	0.897202
	H48	H	0.406371	0.104355	0.605679
	H49	H	0.576871	0.872437	0.596261
	H50	H	0.597749	0.105699	0.417775
	H51	H	0.402712	0.869506	0.413158
	H52	H	0.585776	0.397364	0.117436
	H53	H	0.585589	0.580185	0.888963
	H54	H	0.406733	0.576092	0.117350
	H55	H	0.397303	0.384865	0.886034
	H56	H	0.109631	0.572375	0.404083
	H57	H	0.877574	0.579756	0.592571
	H58	H	0.108912	0.398254	0.599556
	H59	H	0.876703	0.393232	0.407879
	H60	H	0.109028	0.391885	0.594519
	H61	H	0.881530	0.569835	0.590329
	H62	H	0.110392	0.584129	0.410697
	H63	H	0.878182	0.393371	0.414489
	H64	H	0.396508	0.576147	0.120024
	H65	H	0.585329	0.572460	0.891266
	H66	H	0.582219	0.395674	0.117410
	H67	H	0.393426	0.397282	0.888436
	H68	H	0.575699	0.104461	0.399365
	H69	H	0.583696	0.870615	0.592878
	H70	H	0.409955	0.098316	0.590191
	H71	H	0.401317	0.868963	0.414652
	H72	H	0.908926	0.599535	0.088705
	H73	H	0.085010	0.369650	0.092415
	H74	H	0.092611	0.606105	0.905437
	H75	H	0.909497	0.368797	0.904860
	H76	H	0.089318	0.897942	0.618078
	H77	H	0.087966	0.081431	0.388401
	H78	H	0.897272	0.072345	0.618224
	H79	H	0.902378	0.895409	0.390046
	H80	H	0.605028	0.073004	0.919193
	H81	H	0.376095	0.076184	0.101682
	H82	H	0.610003	0.888570	0.099155
	H83	H	0.378069	0.894442	0.915584
	H84	H	0.603986	0.898017	0.088445
	H85	H	0.375749	0.078862	0.094262
	H86	H	0.608537	0.073743	0.908376
	H87	H	0.378663	0.898005	0.916620
	H88	H	0.907479	0.073077	0.614792
	H89	H	0.088980	0.073561	0.390689
	H90	H	0.078681	0.896612	0.614419
	H91	H	0.898203	0.892577	0.388015
	H92	H	0.075459	0.600681	0.905173
	H93	H	0.081716	0.369156	0.098027
	H94	H	0.901645	0.601614	0.090733
	H95	H	0.905295	0.372567	0.922181
	H96	H	0.393849	0.104314	0.593696
	H97	H	0.582715	0.868794	0.600298
	H98	H	0.572556	0.094524	0.426532
	H99	H	0.400054	0.868446	0.412585
	H100	H	0.585758	0.393578	0.117740
	H101	H	0.578803	0.576993	0.891169
	H102	H	0.400997	0.567497	0.115746
	H103	H	0.405668	0.393424	0.891070
	H104	H	0.105153	0.573230	0.417112
	H105	H	0.877349	0.572322	0.600211
	H106	H	0.106170	0.399364	0.592520
	H107	H	0.879154	0.399472	0.410487
	H108	H	0.906434	0.601096	0.095921
	H109	H	0.078682	0.371363	0.092395
	H110	H	0.085937	0.598540	0.920439
	H111	H	0.892951	0.366280	0.910823
	H112	H	0.085030	0.887811	0.618581
	H113	H	0.081661	0.077132	0.391130
	H114	H	0.903058	0.081379	0.618726
	H115	H	0.897312	0.898405	0.390215
	H116	H	0.610239	0.082412	0.914750
	H117	H	0.378158	0.071284	0.096023
	H118	H	0.607079	0.903138	0.102776
	H119	H	0.377959	0.896929	0.913184
	C120	C	0.371924	-0.005008	0.626742
	C121	C	0.613416	0.977390	0.627388
	C122	C	0.612750	-0.005579	0.383966
	C123	C	0.371824	0.976849	0.383810
	C124	C	0.614017	0.364291	0.011510
	C125	C	0.615175	0.607633	0.995910
	C126	C	0.371081	0.605566	0.012183
	C127	C	0.368592	0.361825	0.994853
	C128	C	0.001609	0.607215	0.380254
	C129	C	0.985335	0.606209	0.624562
	C130	C	0.001221	0.364255	0.625443
	C131	C	0.984864	0.364986	0.381259
	C132	C	0.873181	0.494127	0.123369
	C133	C	0.114004	0.477108	0.124370
	C134	C	0.114238	0.493814	0.881285
	C135	C	0.871524	0.476260	0.881055
	C136	C	0.114923	0.864624	0.511000
	C137	C	0.116407	0.108507	0.495848
	C138	C	0.870924	0.107185	0.512043
	C139	C	0.869757	0.863831	0.495231
	C140	C	0.501096	0.106791	0.883719
	C141	C	0.483461	0.107491	0.127379
	C142	C	0.500529	0.864446	0.127242
	C143	C	0.484409	0.864779	0.884309
	C144	C	0.369993	0.872574	0.684991
	C145	C	0.615305	0.099441	0.685050
	C146	C	0.613593	0.872433	0.326174
	C147	C	0.370954	0.099313	0.325947
	C148	C	0.671886	0.362691	0.891154
	C149	C	0.675936	0.608881	0.114796
	C150	C	0.315024	0.605960	0.890747
	C151	C	0.310923	0.361899	0.115352
	C152	C	0.879438	0.663965	0.381437
	C153	C	0.107465	0.663607	0.621819
	C154	C	0.879607	0.305830	0.624365
	C155	C	0.107402	0.308502	0.383259
	C156	C	0.880522	0.361611	0.684039
	C157	C	0.106930	0.607649	0.681675
	C158	C	0.880510	0.608423	0.322013
	C159	C	0.106259	0.363537	0.323171
	C160	C	0.371994	0.664838	0.892037
	C161	C	0.615734	0.664566	0.116781
	C162	C	0.612156	0.306780	0.890970
	C163	C	0.370477	0.305743	0.116461
	C164	C	0.669235	0.871769	0.384988
	C165	C	0.672247	0.099344	0.627225
	C166	C	0.313839	0.872245	0.625829
	C167	C	0.316898	0.100461	0.385600
	C168	C	0.870352	0.372549	0.182753
	C169	C	0.116706	0.599050	0.182374
	C170	C	0.114266	0.371370	0.824471
	C171	C	0.870954	0.598056	0.822332
	C172	C	0.173537	0.865138	0.391102
	C173	C	0.173136	0.108554	0.616372
	C174	C	0.811646	0.108626	0.392395
	C175	C	0.812609	0.862363	0.615880
	C176	C	0.378600	0.162302	0.885768
	C177	C	0.605263	0.165297	0.125875
	C178	C	0.379221	0.804841	0.127236
	C179	C	0.605616	0.806989	0.885108
	C180	C	0.379013	0.862711	0.184687
	C181	C	0.604509	0.109621	0.185666
	C182	C	0.380038	0.108205	0.825336
	C183	C	0.604603	0.861944	0.824725
	C184	C	0.871992	0.164605	0.390971
	C185	C	0.114342	0.165492	0.616488
	C186	C	0.114082	0.808384	0.389927
	C187	C	0.871623	0.805479	0.615837
	C188	C	0.169918	0.370687	0.882713
	C189	C	0.172674	0.599457	0.123253
	C190	C	0.814209	0.372001	0.124151
	C191	C	0.813344	0.598021	0.879474
	C192	C	0.396316	0.080025	0.603505
	C193	C	0.588252	0.892512	0.603354
	C194	C	0.588874	0.079564	0.407533
	C195	C	0.394650	0.891408	0.406694
	C196	C	0.591200	0.388493	0.095554
	C197	C	0.590456	0.583623	0.912188
	C198	C	0.394461	0.580519	0.095775
	C199	C	0.391753	0.384927	0.910574
	C200	C	0.086257	0.583425	0.403622
	C201	C	0.900733	0.581230	0.601235
	C202	C	0.085892	0.389193	0.602155
	C203	C	0.900235	0.388508	0.404113
	C204	C	0.898425	0.578663	0.098701
	C205	C	0.089013	0.392033	0.101097
	C206	C	0.091323	0.579547	0.903935
	C207	C	0.895725	0.391228	0.905539
	C208	C	0.091085	0.887524	0.595232
	C209	C	0.093011	0.084301	0.411817
	C210	C	0.895410	0.082694	0.595608
	C211	C	0.892516	0.888329	0.411248
	C212	C	0.585798	0.083053	0.907124
	C213	C	0.398602	0.082736	0.104106
	C214	C	0.584946	0.889457	0.103637
	C215	C	0.400038	0.889536	0.908198
	Zn216	Zn	0.492789	-0.013856	0.755713
	Zn217	Zn	0.491995	-0.014142	0.255980
	Zn218	Zn	0.744182	0.485113	0.002597
	Zn219	Zn	0.241285	0.484761	0.002073
	Zn220	Zn	-0.007650	0.734929	0.502421
	Zn221	Zn	-0.006358	0.236741	0.503033
	Zn222	Zn	-0.006311	0.485097	0.754610
	Zn223	Zn	-0.006902	0.485947	0.252135
	Zn224	Zn	0.492545	0.735861	0.005867
	Zn225	Zn	0.492153	0.235012	0.004353
	Zn226	Zn	0.740638	-0.014116	0.505049
	Zn227	Zn	0.244622	-0.013382	0.504296
	N228	N	0.405276	0.949803	0.685843
	N229	N	0.579758	0.022318	0.685409
	N230	N	0.579343	0.949719	0.325384
	N231	N	0.404313	0.021493	0.324510
	N232	N	0.673041	0.398012	0.967057
	N233	N	0.675845	0.574334	0.038440
	N234	N	0.314339	0.569726	0.966353
	N235	N	0.309829	0.396033	0.038797
	N236	N	0.955910	0.663664	0.416688
	N237	N	0.030708	0.663015	0.587159
	N238	N	0.955859	0.307395	0.588584
	N239	N	0.030970	0.309080	0.418818
	N240	N	0.957213	0.397127	0.684744
	N241	N	0.029819	0.572645	0.683571
	N242	N	0.957458	0.573892	0.321253
	N243	N	0.029130	0.397722	0.321742
	N244	N	0.406242	0.664728	0.968348
	N245	N	0.578610	0.663872	0.041766
	N246	N	0.577091	0.307485	0.966831
	N247	N	0.405640	0.305600	0.040579
	N248	N	0.668996	0.948799	0.420130
	N249	N	0.671176	0.022423	0.591958
	N250	N	0.314981	0.949204	0.590418
	N251	N	0.317108	0.023421	0.420783
	N252	N	0.906363	0.449516	0.182396
	N253	N	0.080984	0.522022	0.183099
	N254	N	0.080392	0.449050	0.823569
	N255	N	0.906428	0.521338	0.823377
	N256	N	0.174158	0.899261	0.467580
	N257	N	0.174697	0.074065	0.540093
	N258	N	0.811030	0.073743	0.468600
	N259	N	0.811183	0.897886	0.539970
	N260	N	0.454950	0.161681	0.921253
	N261	N	0.529003	0.164092	0.090328
	N262	N	0.455720	0.805971	0.092026
	N263	N	0.529869	0.808644	0.921476
	N264	N	0.455392	0.898873	0.184994
	N265	N	0.527585	0.074485	0.186744
	N266	N	0.457281	0.074480	0.823831
	N267	N	0.527970	0.897217	0.824044
	N268	N	0.908323	0.164016	0.466461
	N269	N	0.079620	0.165316	0.540508
	N270	N	0.078409	0.807687	0.465658
	N271	N	0.906349	0.806200	0.539827
	N272	N	0.170018	0.447835	0.917428
	N273	N	0.171142	0.522543	0.087880
	N274	N	0.815821	0.448482	0.087806
	N275	N	0.813506	0.521185	0.915207
	O276	O	0.608183	0.621134	0.447933
	H277	H	0.616912	0.647852	0.443310
	H278	H	0.611990	0.610280	0.460067
	O279	O	0.497943	0.561430	0.357405
	H280	H	0.473366	0.569392	0.359969
	H281	H	0.492009	0.572791	0.342296
	O282	O	1.067465	-0.098582	1.125057
	H283	H	1.060809	-0.100913	1.128981
	H284	H	1.061369	-0.095302	1.136845
	O285	O	0.448241	0.623975	0.360875
	H286	H	0.426664	0.616652	0.359363
	H287	H	0.447085	0.632853	0.369310
	O288	O	1.166896	0.811467	0.974905
	H289	H	1.172556	0.804715	0.982395
	H290	H	1.179063	0.826816	0.987813
	O291	O	0.186896	0.919239	-0.198353
	H292	H	0.185969	0.906906	-0.179056
	H293	H	0.206928	0.912400	-0.215845
	O294	O	0.561670	0.595276	0.567615
	H295	H	0.567811	0.608284	0.572940
	H296	H	0.552403	0.602216	0.566720
	O297	O	0.436247	0.575009	0.547916
	H298	H	0.439827	0.573824	0.551635
	H299	H	0.437318	0.570432	0.562051
	O300	O	0.466209	0.478617	0.413714
	H301	H	0.451478	0.479509	0.419852
	H302	H	0.470156	0.473492	0.418494
	O303	O	0.352456	0.474273	0.584520
	H304	H	0.361930	0.451088	0.586506
	H305	H	0.353836	0.470804	0.594036
	O306	O	0.452685	0.317325	0.353848
	H307	H	0.446516	0.306478	0.351630
	H308	H	0.471057	0.322249	0.359200
	O309	O	0.409268	0.570420	0.431309
	H310	H	0.388503	0.561554	0.433910
	H311	H	0.405373	0.569139	0.431259
	O312	O	-0.136417	0.156449	-0.092776
	H313	H	-0.135947	0.138159	-0.098599
	H314	H	-0.133852	0.158939	-0.095740
	O315	O	0.438998	0.376028	0.600815
	H316	H	0.462453	0.376322	0.595552
	H317	H	0.451600	0.373049	0.598402
	O318	O	0.531359	1.512274	1.571428
	H319	H	0.528520	1.520123	1.558980
	H320	H	0.533921	1.503313	1.572911
	O321	O	0.679505	0.474507	0.542686
	H322	H	0.681369	0.473040	0.547968
	H323	H	0.692828	0.479268	0.559814
	O324	O	-0.140585	0.891707	0.132008
	H325	H	-0.145286	0.894643	0.126203
	H326	H	-0.138074	0.900214	0.116589
	O327	O	0.454263	0.511522	0.595128
	H328	H	0.440375	0.510880	0.585146
	H329	H	0.456740	0.522366	0.602659
	O330	O	0.070310	-0.005605	1.005477
	H331	H	0.067056	0.003445	1.007319
	H332	H	0.074474	0.005209	1.016017
	O333	O	-0.108509	-0.156160	1.213092
	H334	H	-0.123329	-0.173230	1.220991
	H335	H	-0.131566	-0.155181	1.226099
	O336	O	0.493686	0.419425	0.467965
	H337	H	0.495937	0.440307	0.469743
	H338	H	0.497903	0.409830	0.464445
	O339	O	1.193735	0.081144	-0.050853
	H340	H	1.196226	0.083883	-0.036979
	H341	H	1.201436	0.075183	-0.051749
	O342	O	-0.108250	0.142225	-0.104296
	H343	H	-0.088096	0.143718	-0.108495
	H344	H	-0.123982	0.145259	-0.092034
	O345	O	1.111478	-0.202232	0.859654
	H346	H	1.106619	-0.198769	0.864346
	H347	H	1.110338	-0.207729	0.858091
	O348	O	1.052466	0.989324	0.117756
	H349	H	1.031931	1.001716	0.112485
	H350	H	1.051969	0.990543	0.117433
	O351	O	0.396493	0.394727	0.594027
	H352	H	0.415071	0.392261	0.584802
	H353	H	0.398331	0.387013	0.598593
	O354	O	0.801997	0.033003	0.815159
	H355	H	0.785816	0.027272	0.821193
	H356	H	0.792077	0.042225	0.818188
	O357	O	0.591871	0.577328	0.616484
	H358	H	0.588264	0.588060	0.622122
	H359	H	0.597794	0.579465	0.609196
	O360	O	0.436442	0.474003	0.477934
	H361	H	0.435376	0.477457	0.483466
	H362	H	0.430669	0.479575	0.476399
	O363	O	-0.089593	1.096781	1.148258
	H364	H	-0.093976	1.090425	1.145650
	H365	H	-0.102834	1.099795	1.136154
	O366	O	0.955571	1.075705	-0.071768
	H367	H	0.957234	1.068560	-0.076997
	H368	H	0.968325	1.079955	-0.070087
	O369	O	-0.137659	0.870450	0.063434
	H370	H	-0.131275	0.877396	0.051384
	H371	H	-0.124421	0.856517	0.055514
	O372	O	0.627363	0.573183	0.474093
	H373	H	0.622289	0.556432	0.477833
	H374	H	0.632094	0.585275	0.463809
	O375	O	0.644052	0.347587	0.460146
	H376	H	0.653503	0.340914	0.471219
	H377	H	0.636002	0.356449	0.457794
	O378	O	0.954712	0.844025	0.013890
	H379	H	0.972328	0.841379	0.025383
	H380	H	0.960237	0.851782	0.008556
	O381	O	1.120488	0.103224	0.083261
	H382	H	1.116012	0.118139	0.078866
	H383	H	1.105107	0.091815	0.084068
	O384	O	1.125198	1.049776	-0.082484
	H385	H	1.104445	1.052563	-0.089775
	H386	H	1.133749	1.048563	-0.079026
	O387	O	-0.069782	0.163872	0.025063
	H388	H	-0.078540	0.172356	0.027341
	H389	H	-0.050928	0.168245	0.021084
	O390	O	0.014886	1.106388	0.135455
	H391	H	0.018869	1.099611	0.141624
	H392	H	0.015924	1.108809	0.133858
	O393	O	0.924843	0.860621	0.872408
	H394	H	0.933750	0.865218	0.859516
	H395	H	0.923495	0.884298	0.875908
	O396	O	0.503728	0.585174	0.552392
	H397	H	0.495648	0.576576	0.550321
	H398	H	0.501436	0.594143	0.545587
	O399	O	-0.163635	1.003607	1.022623
	H400	H	-0.156937	0.992858	1.031679
	H401	H	-0.165619	0.985494	1.028511
	O402	O	0.548168	0.401649	0.345769
	H403	H	0.545248	0.418806	0.343284
	H404	H	0.559611	0.390957	0.354051
	O405	O	1.023753	0.972939	-0.129987
	H406	H	1.025614	0.973387	-0.138203
	H407	H	1.033655	0.978660	-0.125837
	O408	O	0.912241	0.794563	-0.034738
	H409	H	0.915583	0.782255	-0.049839
	H410	H	0.909170	0.792662	-0.035243
	O411	O	1.047342	0.005688	1.172664
	H412	H	1.062868	0.000138	1.167268
	H413	H	1.058842	0.020912	1.185333
	O414	O	0.480936	0.370219	0.631018
	H415	H	0.490392	0.371657	0.636581
	H416	H	0.495326	0.379127	0.638229
	O417	O	0.417981	0.387856	0.514780
	H418	H	0.406521	0.367797	0.517792
	H419	H	0.429634	0.389379	0.509638
