data_Molecule from HDF5

_cell_length_a		16.577146
_cell_length_b		16.721338
_cell_length_c		16.615081
_cell_angle_alpha	89.967052
_cell_angle_beta	89.955709
_cell_angle_gamma	90.028103
_symmetry_space_group_name_H-M	'P 1'
_symmetry_Int_Tables_number		1

loop_
	_symmetry_equiv_pos_as_xyz
	x,y,z

loop_
	_atom_site_label
	_atom_site_type_symbol
	_atom_site_fract_x
	_atom_site_fract_y
	_atom_site_fract_z
	H0	H	0.408573	0.829905	0.726175
	H1	H	0.621665	0.137824	0.722569
	H2	H	0.623522	0.830275	0.278359
	H3	H	0.410259	0.136953	0.279024
	H4	H	0.741123	0.375476	0.849233
	H5	H	0.738268	0.587095	0.158576
	H6	H	0.295596	0.590734	0.847713
	H7	H	0.295267	0.377982	0.157327
	H8	H	0.862951	0.706683	0.393764
	H9	H	0.172531	0.704069	0.606730
	H10	H	0.861389	0.261320	0.609093
	H11	H	0.171960	0.261370	0.396488
	H12	H	0.860717	0.378302	0.723075
	H13	H	0.174146	0.585613	0.720039
	H14	H	0.862249	0.588892	0.279607
	H15	H	0.172402	0.378292	0.281220
	H16	H	0.410596	0.706874	0.848276
	H17	H	0.624232	0.705573	0.157077
	H18	H	0.627044	0.258482	0.849974
	H19	H	0.407516	0.258392	0.155398
	H20	H	0.740734	0.830976	0.393440
	H21	H	0.737912	0.137755	0.606457
	H22	H	0.291357	0.830886	0.610935
	H23	H	0.294032	0.137716	0.396493
	H24	H	0.909963	0.329631	0.226179
	H25	H	0.126051	0.636018	0.228184
	H26	H	0.122514	0.328526	0.781117
	H27	H	0.911832	0.637320	0.780259
	H28	H	0.235552	0.881059	0.345392
	H29	H	0.236584	0.088310	0.657238
	H30	H	0.795272	0.089763	0.346088
	H31	H	0.795366	0.879152	0.656979
	H32	H	0.361888	0.204946	0.897180
	H33	H	0.668810	0.210017	0.114044
	H34	H	0.363359	0.758655	0.111910
	H35	H	0.673151	0.763864	0.898544
	H36	H	0.361675	0.876028	0.225382
	H37	H	0.670730	0.091224	0.225690
	H38	H	0.361751	0.088854	0.781827
	H39	H	0.673156	0.880047	0.782856
	H40	H	0.908737	0.207726	0.348019
	H41	H	0.121185	0.204142	0.657305
	H42	H	0.121617	0.762420	0.346843
	H43	H	0.909971	0.761570	0.656578
	H44	H	0.238273	0.328783	0.898088
	H45	H	0.242325	0.636558	0.111548
	H46	H	0.794453	0.329502	0.109525
	H47	H	0.795637	0.637843	0.897634
	H48	H	0.430414	0.094136	0.594158
	H49	H	0.607592	0.871690	0.590830
	H50	H	0.600777	0.091378	0.414258
	H51	H	0.432022	0.873833	0.413845
	H52	H	0.607855	0.397905	0.113769
	H53	H	0.608869	0.568652	0.891582
	H54	H	0.435132	0.564215	0.109292
	H55	H	0.427919	0.399542	0.891547
	H56	H	0.128842	0.573409	0.415818
	H57	H	0.905363	0.570656	0.590663
	H58	H	0.128168	0.393596	0.587577
	H59	H	0.905216	0.396063	0.413242
	H60	H	0.128060	0.396276	0.592369
	H61	H	0.903695	0.572982	0.592746
	H62	H	0.127134	0.570337	0.417680
	H63	H	0.905049	0.393158	0.415001
	H64	H	0.434434	0.578274	0.114773
	H65	H	0.601270	0.572918	0.893155
	H66	H	0.598370	0.399774	0.110333
	H67	H	0.434219	0.392624	0.891575
	H68	H	0.607299	0.093800	0.416550
	H69	H	0.604453	0.871113	0.593722
	H70	H	0.428624	0.093003	0.588766
	H71	H	0.425379	0.872880	0.416967
	H72	H	0.927226	0.593016	0.088246
	H73	H	0.107825	0.372686	0.089445
	H74	H	0.106255	0.593829	0.914771
	H75	H	0.932586	0.373129	0.912680
	H76	H	0.104068	0.886931	0.616748
	H77	H	0.103819	0.070568	0.391600
	H78	H	0.923941	0.071476	0.613017
	H79	H	0.935083	0.898262	0.394075
	H80	H	0.626768	0.065255	0.914426
	H81	H	0.406374	0.065082	0.091576
	H82	H	0.626354	0.899425	0.089388
	H83	H	0.403661	0.892421	0.914090
	H84	H	0.630844	0.893842	0.094309
	H85	H	0.403588	0.075318	0.090681
	H86	H	0.632831	0.075302	0.905587
	H87	H	0.406136	0.895014	0.917365
	H88	H	0.930001	0.069198	0.611540
	H89	H	0.103221	0.076041	0.389932
	H90	H	0.110857	0.897022	0.614617
	H91	H	0.930189	0.887527	0.388305
	H92	H	0.108760	0.595230	0.911120
	H93	H	0.104049	0.373359	0.092839
	H94	H	0.929013	0.594548	0.093068
	H95	H	0.926026	0.372940	0.917281
	H96	H	0.424660	0.094826	0.592849
	H97	H	0.604062	0.873364	0.590784
	H98	H	0.605246	0.095825	0.410218
	H99	H	0.426408	0.870917	0.410635
	H100	H	0.600973	0.390814	0.114668
	H101	H	0.607706	0.577115	0.888401
	H102	H	0.422211	0.569427	0.115169
	H103	H	0.425278	0.391362	0.888763
	H104	H	0.127632	0.569933	0.413432
	H105	H	0.904642	0.573988	0.589314
	H106	H	0.129966	0.391371	0.592646
	H107	H	0.906410	0.395945	0.416314
	H108	H	0.932503	0.592098	0.089804
	H109	H	0.103589	0.374766	0.087949
	H110	H	0.104245	0.594109	0.910511
	H111	H	0.925867	0.370481	0.909139
	H112	H	0.099833	0.896725	0.610646
	H113	H	0.107518	0.073055	0.388450
	H114	H	0.929240	0.075108	0.613525
	H115	H	0.923297	0.898184	0.389768
	H116	H	0.629538	0.078297	0.919858
	H117	H	0.408433	0.070359	0.082309
	H118	H	0.627986	0.891559	0.086428
	H119	H	0.404938	0.896329	0.913023
	C120	C	0.394493	-0.007990	0.624762
	C121	C	0.637386	0.974680	0.623075
	C122	C	0.637713	-0.007869	0.380257
	C123	C	0.395345	0.974701	0.381173
	C124	C	0.637623	0.362012	0.011785
	C125	C	0.638602	0.604798	0.994097
	C126	C	0.396724	0.604620	0.011021
	C127	C	0.396378	0.362284	0.993532
	C128	C	0.025297	0.603789	0.381809
	C129	C	1.008096	0.604134	0.622994
	C130	C	0.025424	0.362010	0.623215
	C131	C	1.008239	0.362142	0.381473
	C132	C	0.896551	0.491276	0.123545
	C133	C	0.139178	0.474901	0.124276
	C134	C	0.138746	0.491969	0.880540
	C135	C	0.895255	0.474513	0.880530
	C136	C	0.137862	0.861790	0.511092
	C137	C	0.137084	0.104734	0.493264
	C138	C	0.895105	0.104976	0.510332
	C139	C	0.895524	0.861859	0.492939
	C140	C	0.526446	0.105208	0.881042
	C141	C	0.508008	0.103809	0.122432
	C142	C	0.525714	0.862041	0.123832
	C143	C	0.508234	0.862645	0.882528
	C144	C	0.390837	0.876361	0.685775
	C145	C	0.639937	0.091367	0.682824
	C146	C	0.641413	0.876558	0.318745
	C147	C	0.392340	0.091053	0.320197
	C148	C	0.700392	0.357910	0.895887
	C149	C	0.698381	0.606101	0.111648
	C150	C	0.335683	0.608495	0.894449
	C151	C	0.335203	0.359493	0.110269
	C152	C	0.909041	0.665454	0.376901
	C153	C	0.125741	0.663687	0.624885
	C154	C	0.908107	0.301888	0.626343
	C155	C	0.125190	0.301732	0.378576
	C156	C	0.907893	0.360056	0.683326
	C157	C	0.126511	0.604803	0.681248
	C158	C	0.908783	0.607315	0.319919
	C159	C	0.125587	0.359828	0.321313
	C160	C	0.392934	0.666246	0.894797
	C161	C	0.641672	0.664829	0.110953
	C162	C	0.643574	0.299586	0.896260
	C163	C	0.391214	0.300212	0.109414
	C164	C	0.699704	0.876934	0.376080
	C165	C	0.697561	0.091167	0.624915
	C166	C	0.332555	0.876777	0.628306
	C167	C	0.334715	0.091334	0.378417
	C168	C	0.892660	0.375661	0.185169
	C169	C	0.143402	0.590073	0.186711
	C170	C	0.140958	0.375321	0.821017
	C171	C	0.893139	0.591084	0.820460
	C172	C	0.196418	0.861354	0.392864
	C173	C	0.196810	0.106633	0.610503
	C174	C	0.835280	0.107478	0.393046
	C175	C	0.835044	0.860020	0.610044
	C176	C	0.408961	0.164895	0.879076
	C177	C	0.623160	0.167686	0.129410
	C178	C	0.409531	0.799849	0.128573
	C179	C	0.626135	0.803672	0.880222
	C180	C	0.408888	0.858200	0.185229
	C181	C	0.624045	0.108621	0.185070
	C182	C	0.408690	0.107226	0.821562
	C183	C	0.626162	0.861442	0.822847
	C184	C	0.891465	0.166468	0.394119
	C185	C	0.139429	0.164307	0.610389
	C186	C	0.139749	0.802618	0.393487
	C187	C	0.892210	0.801902	0.609937
	C188	C	0.198479	0.375338	0.879270
	C189	C	0.201232	0.590431	0.128809
	C190	C	0.835217	0.375602	0.127101
	C191	C	0.835315	0.591036	0.878526
	C192	C	0.420389	0.073026	0.599068
	C193	C	0.612510	0.893329	0.598664
	C194	C	0.611714	0.072800	0.406341
	C195	C	0.420699	0.893824	0.406536
	C196	C	0.610397	0.388739	0.092122
	C197	C	0.613320	0.580056	0.912308
	C198	C	0.422966	0.578278	0.091871
	C199	C	0.422083	0.387484	0.911795
	C200	C	0.106457	0.578198	0.408132
	C201	C	0.925846	0.579413	0.598089
	C202	C	0.107357	0.386666	0.597982
	C203	C	0.926769	0.387819	0.407383
	C204	C	0.922322	0.572154	0.097754
	C205	C	0.112741	0.394500	0.097563
	C206	C	0.113571	0.573264	0.905075
	C207	C	0.920753	0.393438	0.905592
	C208	C	0.112368	0.886483	0.592716
	C209	C	0.112148	0.080224	0.411283
	C210	C	0.920435	0.079363	0.591590
	C211	C	0.921965	0.887394	0.411922
	C212	C	0.608394	0.079991	0.905850
	C213	C	0.427211	0.077540	0.095822
	C214	C	0.607183	0.887693	0.097667
	C215	C	0.426270	0.887476	0.907641
	Zn216	Zn	0.516730	-0.016748	0.753173
	Zn217	Zn	0.516402	-0.016216	0.251326
	Zn218	Zn	0.766664	0.483264	0.003084
	Zn219	Zn	0.267835	0.484093	0.001941
	Zn220	Zn	0.016438	0.732863	0.502043
	Zn221	Zn	0.016143	0.233290	0.502358
	Zn222	Zn	0.017117	0.483089	0.751597
	Zn223	Zn	0.017497	0.483184	0.252818
	Zn224	Zn	0.517348	0.733348	0.003036
	Zn225	Zn	0.517028	0.233193	0.002599
	Zn226	Zn	0.767025	-0.016885	0.501530
	Zn227	Zn	0.265714	-0.016457	0.502419
	N228	N	0.428702	0.949208	0.683710
	N229	N	0.603338	0.017746	0.682074
	N230	N	0.603653	0.949484	0.321091
	N231	N	0.429102	0.017556	0.321588
	N232	N	0.696963	0.396135	0.968867
	N233	N	0.696694	0.569478	0.037736
	N234	N	0.337696	0.570906	0.967770
	N235	N	0.337853	0.397278	0.036866
	N236	N	0.982595	0.663596	0.414609
	N237	N	0.050782	0.663814	0.589700
	N238	N	0.982194	0.302861	0.589667
	N239	N	0.051075	0.302999	0.415355
	N240	N	0.981987	0.396605	0.681697
	N241	N	0.052054	0.568715	0.680484
	N242	N	0.982015	0.569464	0.322874
	N243	N	0.051593	0.396480	0.322789
	N244	N	0.430215	0.664022	0.968472
	N245	N	0.605544	0.664276	0.036733
	N246	N	0.605275	0.301813	0.969418
	N247	N	0.428425	0.301817	0.035671
	N248	N	0.697685	0.949786	0.413512
	N249	N	0.696433	0.017486	0.588508
	N250	N	0.334725	0.949883	0.590937
	N251	N	0.336188	0.017918	0.415539
	N252	N	0.930065	0.448825	0.183225
	N253	N	0.105574	0.517099	0.184052
	N254	N	0.104420	0.448931	0.821633
	N255	N	0.929487	0.517358	0.821303
	N256	N	0.195804	0.897255	0.467147
	N257	N	0.195611	0.070382	0.536533
	N258	N	0.837169	0.069951	0.466431
	N259	N	0.836991	0.896668	0.536208
	N260	N	0.483389	0.163850	0.915193
	N261	N	0.550013	0.164942	0.090958
	N262	N	0.483345	0.801917	0.091169
	N263	N	0.551712	0.804012	0.916481
	N264	N	0.482327	0.896073	0.182644
	N265	N	0.551546	0.069457	0.180857
	N266	N	0.482980	0.070954	0.822329
	N267	N	0.551659	0.897299	0.823811
	N268	N	0.928021	0.165154	0.468137
	N269	N	0.103059	0.163514	0.536263
	N270	N	0.104394	0.802478	0.468160
	N271	N	0.929048	0.802738	0.535975
	N272	N	0.197413	0.449123	0.915396
	N273	N	0.198730	0.517708	0.090459
	N274	N	0.837485	0.448477	0.089474
	N275	N	0.836327	0.517463	0.915090
	O276	O	0.047174	0.959433	-0.145977
	H277	H	0.043907	0.963863	-0.145088
	H278	H	0.047124	0.956157	-0.141438
	O279	O	-0.204704	0.907015	-0.050606
	H280	H	-0.206661	0.917276	-0.045906
	H281	H	-0.204530	0.896086	-0.042534
	O282	O	1.231549	0.195957	1.038169
	H283	H	1.232965	0.194423	1.047862
	H284	H	1.242319	0.208749	1.033466
	O285	O	0.554987	0.452133	0.738844
	H286	H	0.551007	0.434884	0.736186
	H287	H	0.554937	0.452748	0.741898
	O288	O	0.292315	0.709683	0.471291
	H289	H	0.286020	0.724764	0.465781
	H290	H	0.284399	0.719606	0.453472
	O291	O	0.735244	0.671658	0.505316
	H292	H	0.744175	0.678197	0.523980
	H293	H	0.733294	0.671253	0.515845
	O294	O	1.035013	0.146766	1.219168
	H295	H	1.034442	0.157443	1.226571
	H296	H	1.041013	0.133949	1.222992
	O297	O	-0.049687	0.848152	-0.139693
	H298	H	-0.061657	0.863662	-0.133071
	H299	H	-0.025963	0.850045	-0.124466
	O300	O	-0.156047	0.133479	1.187124
	H301	H	-0.160582	0.127062	1.176077
	H302	H	-0.131221	0.131671	1.184906
	O303	O	0.519583	0.600300	0.559513
	H304	H	0.514674	0.591520	0.570447
	H305	H	0.509063	0.603267	0.569800
	O306	O	0.395491	0.554542	0.493745
	H307	H	0.396101	0.569006	0.493124
	H308	H	0.399220	0.569527	0.489227
	O309	O	0.327084	0.292668	0.311366
	H310	H	0.334024	0.320356	0.333436
	H311	H	0.353580	0.306450	0.325332
	O312	O	0.705407	0.292150	0.693990
	H313	H	0.685734	0.316345	0.678722
	H314	H	0.687455	0.300192	0.671425
	O315	O	0.829665	1.027368	1.000554
	H316	H	0.839305	1.033565	0.997418
	H317	H	0.823358	1.034755	1.002394
	O318	O	0.536025	0.273289	0.285447
	H319	H	0.552262	0.280644	0.284475
	H320	H	0.539089	0.252489	0.267858
	O321	O	0.061740	1.044671	0.872972
	H322	H	0.067308	1.064385	0.880053
	H323	H	0.062952	1.039618	0.882985
	O324	O	1.055349	0.974488	-0.008028
	H325	H	1.059244	0.967639	-0.009054
	H326	H	1.054381	0.973910	-0.006649
	O327	O	-0.081405	-0.137894	1.196124
	H328	H	-0.080670	-0.138560	1.193460
	H329	H	-0.078181	-0.149065	1.207520
	O330	O	0.576428	0.544776	0.272183
	H331	H	0.575233	0.542561	0.276488
	H332	H	0.580693	0.553530	0.276532
	O333	O	0.226044	0.941583	0.800217
	H334	H	0.242281	0.938881	0.785343
	H335	H	0.215503	0.942999	0.808889
	O336	O	0.371136	0.491480	0.634619
	H337	H	0.370773	0.472878	0.635275
	H338	H	0.348827	0.491289	0.649848
	O339	O	0.814391	0.180590	1.013779
	H340	H	0.829493	0.186318	1.007670
	H341	H	0.794253	0.195941	1.011898
	O342	O	-0.009262	-0.040830	-0.188688
	H343	H	-0.016141	-0.032730	-0.185568
	H344	H	-0.002035	-0.030549	-0.185886
	O345	O	0.092812	0.820306	1.108314
	H346	H	0.106734	0.838118	1.100157
	H347	H	0.101192	0.828300	1.122191
	O348	O	-0.190050	0.189689	-0.207531
	H349	H	-0.193601	0.181084	-0.192909
	H350	H	-0.208707	0.215036	-0.231709
	O351	O	0.733610	0.386544	0.547021
	H352	H	0.744879	0.390703	0.548498
	H353	H	0.730780	0.394171	0.559050
	O354	O	-0.185857	-0.219755	1.047287
	H355	H	-0.206356	-0.233340	1.054602
	H356	H	-0.182553	-0.210677	1.061907
	O357	O	0.450578	0.444958	0.507746
	H358	H	0.454072	0.462010	0.516008
	H359	H	0.460747	0.446981	0.502320
	O360	O	0.287935	0.511370	0.608731
	H361	H	0.286384	0.510524	0.616973
	H362	H	0.284551	0.519502	0.605409
	O363	O	0.297382	0.260487	0.532518
	H364	H	0.267148	0.238281	0.535819
	H365	H	0.300203	0.287261	0.528162
	O366	O	0.228422	0.193447	0.210925
	H367	H	0.213959	0.192100	0.187882
	H368	H	0.260083	0.227019	0.242466
	O369	O	0.490120	0.266287	0.726610
	H370	H	0.483007	0.254076	0.725199
	H371	H	0.473629	0.252109	0.738308
	O372	O	1.237704	0.759398	-0.020071
	H373	H	1.260354	0.743765	-0.043396
	H374	H	1.239476	0.758893	-0.043152
	O375	O	0.962311	-0.221091	0.009635
	H376	H	0.974888	-0.231129	0.015726
	H377	H	0.931428	-0.225666	0.022113
	O378	O	0.085523	1.209475	0.938805
	H379	H	0.082489	1.210515	0.952140
	H380	H	0.079516	1.211258	0.932800
	O381	O	0.217407	0.816118	1.167709
	H382	H	0.202270	0.815839	1.144066
	H383	H	0.218276	0.828877	1.171982
	O384	O	0.234059	-0.107889	0.089911
	H385	H	0.228848	-0.112276	0.100746
	H386	H	0.237940	-0.109212	0.092573
	O387	O	1.355178	1.519802	0.323599
	H388	H	1.348941	1.514263	0.314169
	H389	H	1.358602	1.507990	0.323213
	O390	O	0.320616	0.684569	0.297487
	H391	H	0.304534	0.693318	0.281182
	H392	H	0.329111	0.670060	0.300016
	O393	O	0.567248	0.318369	0.550290
	H394	H	0.567648	0.308040	0.527369
	H395	H	0.560235	0.307529	0.558401
	O396	O	-0.295790	0.487668	0.725112
	H397	H	-0.313312	0.505265	0.723612
	H398	H	-0.266533	0.495983	0.752005
	O399	O	-0.182509	-0.061190	1.183116
	H400	H	-0.198262	-0.055391	1.195392
	H401	H	-0.182501	-0.049463	1.175078
	O402	O	0.715782	0.278325	0.298112
	H403	H	0.735698	0.284286	0.281797
	H404	H	0.706679	0.300221	0.305658
	O405	O	1.032230	0.058420	1.080975
	H406	H	1.041055	0.061031	1.082557
	H407	H	1.041508	0.057726	1.072860
	O408	O	0.223163	0.034632	-0.063650
	H409	H	0.219906	0.043054	-0.060997
	H410	H	0.230411	0.025837	-0.059399
	O411	O	0.631966	0.511357	0.498983
	H412	H	0.632221	0.509393	0.517699
	H413	H	0.626849	0.501108	0.502067
	O414	O	0.457002	0.244721	0.447909
	H415	H	0.453485	0.249194	0.452445
	H416	H	0.440422	0.234816	0.443997
	O417	O	0.378728	0.610329	0.694485
	H418	H	0.398959	0.586582	0.692137
	H419	H	0.359149	0.620125	0.720773
	O420	O	0.701711	0.672165	0.317605
	H421	H	0.692604	0.656255	0.331958
	H422	H	0.682248	0.662498	0.337197
	O423	O	0.062861	-0.134773	1.035830
	H424	H	0.074215	-0.139223	1.044576
	H425	H	0.054491	-0.143542	1.031657
	O426	O	0.557748	0.685460	0.694121
	H427	H	0.558262	0.700123	0.699610
	H428	H	0.551360	0.687555	0.700191
	O429	O	1.203854	0.793039	0.796290
	H430	H	1.189058	0.811485	0.800684
	H431	H	1.174760	0.788281	0.783341
	O432	O	0.458680	0.420401	0.271008
	H433	H	0.469930	0.426355	0.283742
	H434	H	0.477286	0.422681	0.270697
	O435	O	0.208094	1.176745	-0.191324
	H436	H	0.211760	1.161342	-0.191583
	H437	H	0.183647	1.174369	-0.169434
	O438	O	-0.038961	0.224386	0.041694
	H439	H	-0.043811	0.223732	0.066666
	H440	H	-0.033121	0.224205	0.043538
	O441	O	0.240877	0.017783	0.220293
	H442	H	0.254069	0.025532	0.239477
	H443	H	0.243448	0.042517	0.227726
	O444	O	0.489152	0.700482	0.284182
	H445	H	0.481035	0.704714	0.278607
	H446	H	0.486873	0.721186	0.278583
	O447	O	-0.271381	0.652163	0.719679
	H448	H	-0.237409	0.676341	0.753176
	H449	H	-0.296424	0.657720	0.718020
	O450	O	0.312536	1.273312	0.712193
	H451	H	0.310400	1.267935	0.697577
	H452	H	0.301906	1.264605	0.709697
	O453	O	0.729032	0.447887	0.284987
	H454	H	0.750163	0.452995	0.274101
	H455	H	0.730073	0.464804	0.298941
	O456	O	0.467603	0.686135	0.656584
	H457	H	0.474467	0.687178	0.630934
	H458	H	0.474465	0.682224	0.653061
	O459	O	0.804293	0.766576	0.212266
	H460	H	0.814183	0.790761	0.203291
	H461	H	0.776142	0.743858	0.239518
	O462	O	0.713595	0.278524	0.466805
	H463	H	0.712122	0.288981	0.448231
	H464	H	0.735255	0.257724	0.461585
	O465	O	0.989028	0.203424	-0.219221
	H466	H	0.963019	0.214446	-0.229162
	H467	H	0.983930	0.210751	-0.224843
	O468	O	0.422593	0.443448	0.591108
	H469	H	0.441772	0.446443	0.591266
	H470	H	0.418322	0.435870	0.596348
	O471	O	0.557923	0.672525	0.620007
	H472	H	0.557866	0.674421	0.627113
	H473	H	0.554569	0.680456	0.625813
	O474	O	0.298274	0.439097	0.399356
	H475	H	0.297351	0.450225	0.407768
	H476	H	0.308163	0.455244	0.399334
	O477	O	-0.172435	0.793472	1.812053
	H478	H	-0.153486	0.816161	1.823893
	H479	H	-0.152562	0.806695	1.834333
	O480	O	0.740333	0.523823	0.496156
	H481	H	0.732084	0.541817	0.496043
	H482	H	0.741270	0.525543	0.521363
	O483	O	0.588977	0.705833	0.451222
	H484	H	0.605556	0.706806	0.452020
	H485	H	0.582951	0.698942	0.464941
	O486	O	1.084232	-0.237014	0.784377
	H487	H	1.064967	-0.245954	0.774949
	H488	H	1.072083	-0.236850	0.771419
	O489	O	1.055523	0.985546	0.191315
	H490	H	1.064152	0.977691	0.185601
	H491	H	1.047650	0.979149	0.186654
	O492	O	-0.044230	-0.130472	0.162811
	H493	H	-0.041690	-0.134590	0.171277
	H494	H	-0.056152	-0.132577	0.169347
	O495	O	-0.198495	1.017640	0.784713
	H496	H	-0.213318	1.016716	0.788646
	H497	H	-0.208292	1.035163	0.776064
	O498	O	0.925310	1.167111	1.134430
	H499	H	0.928947	1.174781	1.137266
	H500	H	0.932130	1.152449	1.127314
	O501	O	0.501874	0.355693	0.491672
	H502	H	0.521568	0.363665	0.491363
	H503	H	0.491874	0.354411	0.481491
