data_Molecule from HDF5

_cell_length_a		16.278868
_cell_length_b		16.239025
_cell_length_c		16.287830
_cell_angle_alpha	89.935735
_cell_angle_beta	89.818698
_cell_angle_gamma	89.941572
_symmetry_space_group_name_H-M	'P 1'
_symmetry_Int_Tables_number		1

loop_
	_symmetry_equiv_pos_as_xyz
	x,y,z

loop_
	_atom_site_label
	_atom_site_type_symbol
	_atom_site_fract_x
	_atom_site_fract_y
	_atom_site_fract_z
	H0	H	0.400734	0.836041	0.715708
	H1	H	0.597493	0.164074	0.714966
	H2	H	0.598990	0.836840	0.284573
	H3	H	0.398767	0.163280	0.286206
	H4	H	0.713432	0.402235	0.836935
	H5	H	0.711764	0.601418	0.164028
	H6	H	0.283587	0.599355	0.837244
	H7	H	0.281867	0.403086	0.164372
	H8	H	0.835500	0.715272	0.403655
	H9	H	0.162309	0.712843	0.598150
	H10	H	0.835417	0.284637	0.601585
	H11	H	0.163034	0.286737	0.402279
	H12	H	0.835045	0.400267	0.717015
	H13	H	0.161924	0.597977	0.714616
	H14	H	0.835326	0.602477	0.287220
	H15	H	0.161558	0.402030	0.285361
	H16	H	0.400844	0.714530	0.836784
	H17	H	0.594335	0.715056	0.164258
	H18	H	0.597690	0.286082	0.836572
	H19	H	0.395549	0.284497	0.163376
	H20	H	0.713263	0.835802	0.401972
	H21	H	0.714537	0.162642	0.601658
	H22	H	0.285637	0.835329	0.600374
	H23	H	0.282935	0.163332	0.401986
	H24	H	0.897838	0.336672	0.217519
	H25	H	0.095650	0.664775	0.214499
	H26	H	0.095771	0.336111	0.788802
	H27	H	0.897193	0.663355	0.784310
	H28	H	0.214548	0.900902	0.338403
	H29	H	0.212061	0.097286	0.665224
	H30	H	0.782378	0.101023	0.337918
	H31	H	0.782914	0.899878	0.664702
	H32	H	0.333601	0.213667	0.902827
	H33	H	0.660421	0.217186	0.100534
	H34	H	0.334057	0.787666	0.099009
	H35	H	0.660766	0.785409	0.900911
	H36	H	0.334827	0.900727	0.216546
	H37	H	0.661006	0.101620	0.217041
	H38	H	0.334899	0.098849	0.786218
	H39	H	0.661984	0.901947	0.786941
	H40	H	0.899971	0.216436	0.337885
	H41	H	0.096909	0.213968	0.665445
	H42	H	0.098671	0.785948	0.337256
	H43	H	0.900667	0.785938	0.665240
	H44	H	0.212742	0.337813	0.901963
	H45	H	0.209461	0.666061	0.098069
	H46	H	0.781237	0.337041	0.101199
	H47	H	0.784765	0.665779	0.903304
	H48	H	0.410073	0.116983	0.598638
	H49	H	0.585814	0.884831	0.593374
	H50	H	0.594932	0.115427	0.414376
	H51	H	0.398906	0.880177	0.407204
	H52	H	0.589115	0.399184	0.119124
	H53	H	0.590164	0.594427	0.884353
	H54	H	0.410460	0.590632	0.114574
	H55	H	0.398506	0.403725	0.881190
	H56	H	0.112040	0.584053	0.408756
	H57	H	0.879653	0.593322	0.602081
	H58	H	0.117216	0.410767	0.605965
	H59	H	0.880566	0.403870	0.408070
	H60	H	0.117749	0.395352	0.592738
	H61	H	0.881496	0.598938	0.588366
	H62	H	0.119218	0.595237	0.398115
	H63	H	0.884248	0.408507	0.415088
	H64	H	0.403033	0.603587	0.120432
	H65	H	0.592738	0.595931	0.882647
	H66	H	0.596836	0.416005	0.116686
	H67	H	0.403289	0.414819	0.885500
	H68	H	0.591340	0.118720	0.403472
	H69	H	0.596422	0.882554	0.591582
	H70	H	0.406909	0.114512	0.587505
	H71	H	0.411733	0.883443	0.402977
	H72	H	0.905409	0.615699	0.090575
	H73	H	0.079165	0.385635	0.100395
	H74	H	0.089136	0.618776	0.904275
	H75	H	0.899529	0.378156	0.893088
	H76	H	0.084368	0.910840	0.614873
	H77	H	0.090739	0.095451	0.384483
	H78	H	0.904792	0.092858	0.617431
	H79	H	0.900834	0.907666	0.382989
	H80	H	0.614852	0.088107	0.900224
	H81	H	0.383292	0.088326	0.093716
	H82	H	0.614887	0.907260	0.094412
	H83	H	0.378887	0.898975	0.908896
	H84	H	0.613585	0.908099	0.089915
	H85	H	0.380059	0.094753	0.098282
	H86	H	0.617679	0.102843	0.907210
	H87	H	0.384418	0.912638	0.914605
	H88	H	0.904249	0.090571	0.617257
	H89	H	0.095029	0.091926	0.384302
	H90	H	0.090185	0.895686	0.619978
	H91	H	0.908599	0.913470	0.387705
	H92	H	0.088999	0.617560	0.908273
	H93	H	0.090113	0.387926	0.081823
	H94	H	0.899876	0.618778	0.095446
	H95	H	0.922711	0.390265	0.911621
	H96	H	0.398877	0.119043	0.595344
	H97	H	0.591808	0.880300	0.600985
	H98	H	0.584391	0.113005	0.411164
	H99	H	0.407867	0.885666	0.416238
	H100	H	0.578959	0.413600	0.111398
	H101	H	0.592568	0.592578	0.883854
	H102	H	0.395621	0.589742	0.118404
	H103	H	0.411779	0.404508	0.884612
	H104	H	0.115280	0.600046	0.413586
	H105	H	0.884472	0.584451	0.591222
	H106	H	0.110810	0.413861	0.586578
	H107	H	0.882806	0.412054	0.407686
	H108	H	0.908210	0.617248	0.098418
	H109	H	0.100264	0.379573	0.099164
	H110	H	0.092175	0.618573	0.907086
	H111	H	0.893640	0.384565	0.923890
	H112	H	0.101030	0.908801	0.620040
	H113	H	0.090307	0.090219	0.386572
	H114	H	0.906939	0.091766	0.615943
	H115	H	0.910149	0.902597	0.384863
	H116	H	0.611040	0.090228	0.915517
	H117	H	0.381867	0.095755	0.089800
	H118	H	0.614107	0.911504	0.093594
	H119	H	0.379531	0.911500	0.900002
	C120	C	0.377099	0.008284	0.622787
	C121	C	0.619906	0.991069	0.623228
	C122	C	0.619869	0.008198	0.379753
	C123	C	0.377016	0.991290	0.379631
	C124	C	0.618367	0.380190	0.008271
	C125	C	0.619434	0.623027	0.991971
	C126	C	0.375381	0.622894	0.009426
	C127	C	0.375398	0.379215	0.991975
	C128	C	0.007382	0.622609	0.379033
	C129	C	0.989893	0.620825	0.622349
	C130	C	0.007411	0.377524	0.623846
	C131	C	0.990514	0.379315	0.380341
	C132	C	0.875210	0.509022	0.123659
	C133	C	0.118525	0.492771	0.122408
	C134	C	0.118635	0.509478	0.879299
	C135	C	0.876512	0.492548	0.880161
	C136	C	0.120563	0.877352	0.510034
	C137	C	0.120259	0.121068	0.493290
	C138	C	0.876707	0.121576	0.509116
	C139	C	0.877166	0.878393	0.493075
	C140	C	0.506441	0.122047	0.879200
	C141	C	0.489403	0.122662	0.123027
	C142	C	0.506195	0.879655	0.122224
	C143	C	0.489257	0.879094	0.879213
	C144	C	0.380022	0.885099	0.678290
	C145	C	0.617847	0.114841	0.677827
	C146	C	0.618880	0.885441	0.323201
	C147	C	0.378210	0.114358	0.324097
	C148	C	0.674957	0.381775	0.885646
	C149	C	0.674492	0.621455	0.114859
	C150	C	0.321365	0.620045	0.885850
	C151	C	0.319838	0.382336	0.115380
	C152	C	0.884411	0.678083	0.382234
	C153	C	0.113035	0.675759	0.619347
	C154	C	0.884300	0.322264	0.621794
	C155	C	0.113715	0.323930	0.381506
	C156	C	0.884162	0.379601	0.679441
	C157	C	0.112883	0.618139	0.676956
	C158	C	0.884378	0.621593	0.324639
	C159	C	0.113058	0.381249	0.323611
	C160	C	0.379789	0.677019	0.885729
	C161	C	0.615726	0.677746	0.115377
	C162	C	0.617232	0.324441	0.885437
	C163	C	0.376071	0.323270	0.114868
	C164	C	0.675786	0.884991	0.381263
	C165	C	0.675581	0.114250	0.621023
	C166	C	0.322740	0.884621	0.620886
	C167	C	0.320844	0.114280	0.381797
	C168	C	0.876966	0.385837	0.179821
	C169	C	0.116063	0.616049	0.176972
	C170	C	0.116527	0.385569	0.825524
	C171	C	0.877798	0.615216	0.823620
	C172	C	0.176131	0.880706	0.386820
	C173	C	0.174587	0.118029	0.616431
	C174	C	0.820875	0.120492	0.386708
	C175	C	0.821112	0.879720	0.615835
	C176	C	0.382981	0.176791	0.881900
	C177	C	0.611724	0.179152	0.120998
	C178	C	0.383153	0.824777	0.119783
	C179	C	0.612506	0.824156	0.881146
	C180	C	0.383711	0.880848	0.178531
	C181	C	0.611939	0.121350	0.178793
	C182	C	0.383374	0.119636	0.824069
	C183	C	0.612951	0.881956	0.824443
	C184	C	0.879301	0.178013	0.386594
	C185	C	0.117526	0.176023	0.616508
	C186	C	0.118484	0.823403	0.386311
	C187	C	0.879678	0.823166	0.616182
	C188	C	0.174335	0.386373	0.882166
	C189	C	0.172785	0.616330	0.118980
	C190	C	0.819291	0.385857	0.121760
	C191	C	0.821671	0.616140	0.882494
	C192	C	0.398842	0.094571	0.600422
	C193	C	0.597774	0.904962	0.601669
	C194	C	0.596942	0.093439	0.402831
	C195	C	0.399571	0.905197	0.402276
	C196	C	0.595107	0.402933	0.093543
	C197	C	0.598011	0.600837	0.905930
	C198	C	0.396583	0.601316	0.095687
	C199	C	0.397913	0.401112	0.906115
	C200	C	0.093384	0.599828	0.400435
	C201	C	0.903907	0.598785	0.600189
	C202	C	0.093253	0.400067	0.601527
	C203	C	0.904841	0.401622	0.403410
	C204	C	0.897856	0.594842	0.101376
	C205	C	0.096244	0.406609	0.100369
	C206	C	0.096652	0.596015	0.900463
	C207	C	0.898874	0.406470	0.902869
	C208	C	0.098486	0.898737	0.596051
	C209	C	0.098465	0.099123	0.407419
	C210	C	0.898942	0.098528	0.594745
	C211	C	0.899859	0.901089	0.407346
	C212	C	0.592106	0.100234	0.901118
	C213	C	0.403720	0.099588	0.100621
	C214	C	0.592187	0.902306	0.099317
	C215	C	0.403379	0.901230	0.901281
	Zn216	Zn	0.498436	0.000261	0.750916
	Zn217	Zn	0.498190	-0.000130	0.251195
	Zn218	Zn	0.747533	0.500933	0.000830
	Zn219	Zn	0.246794	0.501332	0.000570
	Zn220	Zn	-0.001162	0.749640	0.500615
	Zn221	Zn	-0.000647	0.250221	0.501463
	Zn222	Zn	-0.002245	0.499814	0.751267
	Zn223	Zn	-0.002035	0.500835	0.251582
	Zn224	Zn	0.497689	0.751001	0.000514
	Zn225	Zn	0.497213	0.250874	0.000515
	Zn226	Zn	0.748020	-0.000617	0.501296
	Zn227	Zn	0.248595	-0.000807	0.501726
	N228	N	0.413418	0.962841	0.679089
	N229	N	0.583912	0.037327	0.679402
	N230	N	0.584766	0.963025	0.322111
	N231	N	0.412300	0.036922	0.322761
	N232	N	0.675893	0.415688	0.962881
	N233	N	0.676720	0.588011	0.037284
	N234	N	0.318609	0.587121	0.963615
	N235	N	0.319159	0.416295	0.037947
	N236	N	0.961856	0.678816	0.415403
	N237	N	0.035444	0.677340	0.585846
	N238	N	0.961776	0.320987	0.587822
	N239	N	0.036563	0.322858	0.416301
	N240	N	0.961620	0.413282	0.680727
	N241	N	0.035240	0.584729	0.678840
	N242	N	0.961853	0.587423	0.322683
	N243	N	0.035408	0.414845	0.322613
	N244	N	0.412584	0.678928	0.963620
	N245	N	0.582357	0.678981	0.037924
	N246	N	0.582774	0.323120	0.962839
	N247	N	0.410114	0.321400	0.037360
	N248	N	0.676551	0.962361	0.415691
	N249	N	0.677192	0.036325	0.587862
	N250	N	0.320757	0.962316	0.586864
	N251	N	0.320248	0.036716	0.415966
	N252	N	0.910944	0.463481	0.181263
	N253	N	0.082835	0.538249	0.179100
	N254	N	0.082495	0.463182	0.823699
	N255	N	0.911227	0.537461	0.821978
	N256	N	0.177442	0.913691	0.464557
	N257	N	0.176615	0.084846	0.538817
	N258	N	0.819311	0.086146	0.463910
	N259	N	0.819619	0.913428	0.538470
	N260	N	0.460494	0.178472	0.915457
	N261	N	0.534319	0.180324	0.087269
	N262	N	0.460516	0.823918	0.085422
	N263	N	0.535052	0.822446	0.914634
	N264	N	0.461325	0.914283	0.179824
	N265	N	0.534752	0.086881	0.179914
	N266	N	0.460943	0.086293	0.822205
	N267	N	0.535194	0.915730	0.823297
	N268	N	0.913118	0.178882	0.463897
	N269	N	0.084191	0.177760	0.538897
	N270	N	0.084499	0.821322	0.463853
	N271	N	0.913935	0.822115	0.538588
	N272	N	0.175595	0.464482	0.914854
	N273	N	0.174279	0.538590	0.085574
	N274	N	0.817880	0.463442	0.087867
	N275	N	0.820808	0.538603	0.916968
	O276	O	0.999815	1.056006	0.020896
	H277	H	0.998409	1.052931	0.014600
	H278	H	0.999808	1.059584	0.023213
	O279	O	-0.033554	0.031892	-0.001555
	H280	H	-0.036933	0.030509	-0.007876
	H281	H	-0.037831	0.026758	-0.005410
	O282	O	0.006596	0.081306	1.046002
	H283	H	0.011934	0.086402	1.047911
	H284	H	0.001084	0.074781	1.053334
	O285	O	0.587393	0.359669	0.434162
	H286	H	0.604400	0.347904	0.424185
	H287	H	0.595341	0.347129	0.445740
	O288	O	0.579194	0.402401	0.516644
	H289	H	0.574160	0.402163	0.509885
	H290	H	0.585294	0.398225	0.522108
	O291	O	0.532537	0.423067	0.438224
	H292	H	0.528958	0.410079	0.431126
	H293	H	0.526853	0.433397	0.437420
	O294	O	-0.015864	-0.016579	-0.027515
	H295	H	-0.011385	-0.022904	-0.032299
	H296	H	-0.012842	-0.008858	-0.023506
	O297	O	0.596190	0.436938	0.444080
	H298	H	0.587768	0.442021	0.445388
	H299	H	0.591624	0.439036	0.457284
	O300	O	0.021882	0.930811	0.976418
	H301	H	0.025777	0.934634	0.982957
	H302	H	0.022266	0.927497	0.976126
	O303	O	0.540272	0.461370	0.398965
	H304	H	0.543659	0.460060	0.393144
	H305	H	0.538174	0.458349	0.400505
	O306	O	-0.014931	-0.047844	1.023703
	H307	H	-0.021506	-0.039835	1.020502
	H308	H	-0.010019	-0.050901	1.027380
	O309	O	0.992746	1.023279	0.992527
	H310	H	0.996898	1.020414	0.982334
	H311	H	0.993336	1.023279	0.991504
	O312	O	0.598632	0.418186	0.435304
	H313	H	0.589584	0.418941	0.432423
	H314	H	0.604279	0.428069	0.420100
	O315	O	0.579903	0.457390	0.440981
	H316	H	0.587239	0.454082	0.431789
	H317	H	0.577600	0.458360	0.441778
	O318	O	0.025221	1.010049	0.066682
	H319	H	0.013657	1.011101	0.079594
	H320	H	0.030408	1.018708	0.066205
	O321	O	0.965640	1.057855	0.079405
	H322	H	0.965959	1.059323	0.085028
	H323	H	0.955712	1.053591	0.079193
