data_Molecule from HDF5

_cell_length_a		16.313035
_cell_length_b		16.088512
_cell_length_c		16.316595
_cell_angle_alpha	90.422456
_cell_angle_beta	90.110498
_cell_angle_gamma	89.597842
_symmetry_space_group_name_H-M	'P 1'
_symmetry_Int_Tables_number		1

loop_
	_symmetry_equiv_pos_as_xyz
	x,y,z

loop_
	_atom_site_label
	_atom_site_type_symbol
	_atom_site_fract_x
	_atom_site_fract_y
	_atom_site_fract_z
	H0	H	0.406783	0.840252	0.704331
	H1	H	0.602417	0.170576	0.710674
	H2	H	0.602914	0.841736	0.277025
	H3	H	0.401841	0.172175	0.280664
	H4	H	0.717992	0.402573	0.828496
	H5	H	0.719304	0.608355	0.153339
	H6	H	0.284002	0.607331	0.829968
	H7	H	0.285662	0.406229	0.153896
	H8	H	0.838806	0.721110	0.394127
	H9	H	0.166511	0.719574	0.589312
	H10	H	0.838643	0.295651	0.587295
	H11	H	0.165499	0.290345	0.392279
	H12	H	0.840043	0.407070	0.706501
	H13	H	0.165136	0.606908	0.709359
	H14	H	0.840484	0.609467	0.274154
	H15	H	0.164597	0.402825	0.274985
	H16	H	0.403279	0.719702	0.829060
	H17	H	0.597836	0.719532	0.156549
	H18	H	0.600270	0.287685	0.829486
	H19	H	0.405453	0.296404	0.156810
	H20	H	0.717073	0.841536	0.393088
	H21	H	0.715617	0.171833	0.594225
	H22	H	0.287928	0.841375	0.591620
	H23	H	0.287027	0.171552	0.396453
	H24	H	0.903214	0.341223	0.206127
	H25	H	0.102404	0.670245	0.208168
	H26	H	0.102941	0.341502	0.776271
	H27	H	0.901215	0.671731	0.778848
	H28	H	0.219164	0.903177	0.329366
	H29	H	0.217809	0.109092	0.654158
	H30	H	0.782309	0.107859	0.330196
	H31	H	0.786660	0.907324	0.654937
	H32	H	0.337778	0.220025	0.896650
	H33	H	0.664826	0.221059	0.092901
	H34	H	0.337236	0.796631	0.088908
	H35	H	0.664414	0.789487	0.894170
	H36	H	0.339491	0.908930	0.208318
	H37	H	0.664430	0.107695	0.211403
	H38	H	0.340254	0.109119	0.775684
	H39	H	0.664545	0.900643	0.775219
	H40	H	0.902583	0.219533	0.327227
	H41	H	0.098810	0.222214	0.654393
	H42	H	0.099191	0.792244	0.327298
	H43	H	0.905642	0.794618	0.656058
	H44	H	0.217769	0.341577	0.889829
	H45	H	0.214026	0.671129	0.090599
	H46	H	0.788842	0.340890	0.089088
	H47	H	0.786184	0.671401	0.894081
	H48	H	0.417638	0.119454	0.580413
	H49	H	0.602403	0.885667	0.589400
	H50	H	0.588569	0.123928	0.399265
	H51	H	0.416126	0.889201	0.397452
	H52	H	0.599090	0.411192	0.109586
	H53	H	0.586854	0.597883	0.877567
	H54	H	0.400180	0.602889	0.111771
	H55	H	0.394561	0.419706	0.873391
	H56	H	0.116800	0.593000	0.398348
	H57	H	0.888893	0.598025	0.579887
	H58	H	0.119048	0.415149	0.585469
	H59	H	0.886970	0.414345	0.400908
	H60	H	0.119410	0.413560	0.584825
	H61	H	0.886700	0.596765	0.589995
	H62	H	0.121053	0.599167	0.393200
	H63	H	0.886803	0.419364	0.394909
	H64	H	0.407098	0.594695	0.106978
	H65	H	0.598208	0.602851	0.872589
	H66	H	0.599815	0.419857	0.107091
	H67	H	0.420388	0.421417	0.881332
	H68	H	0.591927	0.122859	0.407363
	H69	H	0.589296	0.889976	0.587703
	H70	H	0.400823	0.125273	0.580726
	H71	H	0.409661	0.889172	0.405376
	H72	H	0.914548	0.620938	0.080855
	H73	H	0.097294	0.388098	0.080882
	H74	H	0.094822	0.625344	0.897218
	H75	H	0.915028	0.390357	0.899270
	H76	H	0.111089	0.917719	0.611238
	H77	H	0.091833	0.104739	0.372988
	H78	H	0.911153	0.101401	0.606500
	H79	H	0.905464	0.911261	0.374123
	H80	H	0.617135	0.096144	0.903570
	H81	H	0.386853	0.093245	0.089192
	H82	H	0.617109	0.912481	0.080442
	H83	H	0.387115	0.918992	0.895903
	H84	H	0.617515	0.919194	0.088027
	H85	H	0.381868	0.105986	0.094284
	H86	H	0.617194	0.094541	0.901190
	H87	H	0.383945	0.912211	0.894853
	H88	H	0.908062	0.103311	0.608298
	H89	H	0.103473	0.095649	0.373443
	H90	H	0.087312	0.926024	0.602097
	H91	H	0.906995	0.918198	0.377159
	H92	H	0.090440	0.623294	0.899320
	H93	H	0.094530	0.386978	0.085112
	H94	H	0.905875	0.623676	0.081731
	H95	H	0.905929	0.387924	0.900754
	H96	H	0.410746	0.127060	0.595139
	H97	H	0.598192	0.890022	0.576551
	H98	H	0.597345	0.126231	0.401108
	H99	H	0.407275	0.886695	0.395323
	H100	H	0.591946	0.415454	0.106605
	H101	H	0.597944	0.590029	0.876354
	H102	H	0.411355	0.605943	0.109205
	H103	H	0.410307	0.397581	0.871898
	H104	H	0.118577	0.601646	0.402668
	H105	H	0.883841	0.605843	0.585432
	H106	H	0.118528	0.414450	0.583583
	H107	H	0.883581	0.411529	0.393781
	H108	H	0.912063	0.624350	0.088861
	H109	H	0.092219	0.389272	0.080733
	H110	H	0.094267	0.624190	0.902473
	H111	H	0.910095	0.386277	0.891907
	H112	H	0.090051	0.900099	0.611417
	H113	H	0.090218	0.091084	0.378259
	H114	H	0.907645	0.099376	0.607052
	H115	H	0.912929	0.912649	0.377006
	H116	H	0.618415	0.096870	0.901283
	H117	H	0.386299	0.104735	0.081245
	H118	H	0.620318	0.909034	0.089941
	H119	H	0.385615	0.914017	0.902219
	C120	C	0.381362	0.014670	0.613980
	C121	C	0.624648	0.997517	0.614503
	C122	C	0.622610	0.015014	0.372648
	C123	C	0.381256	0.997784	0.371932
	C124	C	0.625074	0.384143	0.000172
	C125	C	0.623159	0.627180	0.983215
	C126	C	0.378457	0.628913	0.001090
	C127	C	0.380575	0.385489	0.983691
	C128	C	0.011164	0.627947	0.369444
	C129	C	0.994162	0.628852	0.614306
	C130	C	0.010870	0.385764	0.612681
	C131	C	0.993860	0.384927	0.368816
	C132	C	0.881347	0.514560	0.112689
	C133	C	0.123270	0.496944	0.112592
	C134	C	0.123082	0.515344	0.869834
	C135	C	0.880648	0.497727	0.869810
	C136	C	0.124758	0.884166	0.500534
	C137	C	0.123489	0.127758	0.482745
	C138	C	0.879010	0.129624	0.499926
	C139	C	0.880322	0.885272	0.483666
	C140	C	0.510268	0.126481	0.872549
	C141	C	0.492995	0.129707	0.117018
	C142	C	0.510382	0.885506	0.114213
	C143	C	0.493294	0.884007	0.869666
	C144	C	0.384951	0.890097	0.667998
	C145	C	0.622566	0.121672	0.671994
	C146	C	0.622448	0.891228	0.315538
	C147	C	0.382232	0.122592	0.318065
	C148	C	0.679962	0.383737	0.877438
	C149	C	0.680223	0.627612	0.105413
	C150	C	0.322766	0.626958	0.878557
	C151	C	0.324669	0.387350	0.105948
	C152	C	0.887966	0.683711	0.372687
	C153	C	0.117504	0.682662	0.610799
	C154	C	0.887847	0.332088	0.608949
	C155	C	0.116367	0.327990	0.371546
	C156	C	0.888477	0.387655	0.668135
	C157	C	0.116704	0.626781	0.670375
	C158	C	0.888912	0.628059	0.313125
	C159	C	0.116246	0.384358	0.313462
	C160	C	0.381965	0.682970	0.878007
	C161	C	0.619835	0.682667	0.107045
	C162	C	0.621337	0.326560	0.877854
	C163	C	0.384436	0.332518	0.107159
	C164	C	0.678921	0.890952	0.373610
	C165	C	0.678839	0.122118	0.613981
	C166	C	0.326128	0.890649	0.611796
	C167	C	0.325128	0.122350	0.375437
	C168	C	0.883491	0.390325	0.167674
	C169	C	0.121817	0.621023	0.169498
	C170	C	0.122414	0.390948	0.813860
	C171	C	0.881444	0.622097	0.815870
	C172	C	0.180403	0.884448	0.377805
	C173	C	0.178993	0.127719	0.605548
	C174	C	0.821437	0.127679	0.378302
	C175	C	0.825156	0.887432	0.606407
	C176	C	0.386908	0.182322	0.875698
	C177	C	0.616114	0.183672	0.113781
	C178	C	0.386736	0.832571	0.110480
	C179	C	0.615636	0.827131	0.873170
	C180	C	0.387854	0.888335	0.169777
	C181	C	0.615868	0.127341	0.172582
	C182	C	0.388338	0.127360	0.815230
	C183	C	0.615632	0.882757	0.813976
	C184	C	0.881315	0.183230	0.376881
	C185	C	0.119969	0.184185	0.605638
	C186	C	0.120757	0.829056	0.376850
	C187	C	0.884035	0.831160	0.606964
	C188	C	0.179327	0.390890	0.870782
	C189	C	0.177397	0.621387	0.111280
	C190	C	0.826198	0.390422	0.109991
	C191	C	0.824124	0.622011	0.873084
	C192	C	0.403267	0.101364	0.591871
	C193	C	0.602998	0.911002	0.591337
	C194	C	0.599279	0.101861	0.395917
	C195	C	0.404327	0.910904	0.393136
	C196	C	0.603228	0.408427	0.085794
	C197	C	0.600852	0.603819	0.897904
	C198	C	0.399878	0.607555	0.086953
	C199	C	0.401990	0.406842	0.897731
	C200	C	0.096808	0.604808	0.391687
	C201	C	0.908601	0.606655	0.591777
	C202	C	0.096736	0.407859	0.590824
	C203	C	0.907921	0.408240	0.390334
	C204	C	0.904169	0.600757	0.090490
	C205	C	0.101174	0.410458	0.088961
	C206	C	0.099934	0.601851	0.893074
	C207	C	0.903538	0.410626	0.891226
	C208	C	0.102638	0.907778	0.586008
	C209	C	0.101727	0.104101	0.397028
	C210	C	0.902056	0.107780	0.585338
	C211	C	0.902157	0.907343	0.398192
	C212	C	0.595534	0.102802	0.895244
	C213	C	0.407163	0.107682	0.094850
	C214	C	0.596199	0.907137	0.092279
	C215	C	0.407717	0.908131	0.891369
	Zn216	Zn	0.503119	0.006203	0.742140
	Zn217	Zn	0.501854	0.007050	0.244314
	Zn218	Zn	0.753413	0.506205	-0.009119
	Zn219	Zn	0.250729	0.505955	-0.008465
	Zn220	Zn	0.002317	0.756459	0.491706
	Zn221	Zn	0.001919	0.257416	0.490364
	Zn222	Zn	0.002227	0.506602	0.742230
	Zn223	Zn	0.003039	0.505647	0.240465
	Zn224	Zn	0.501329	0.756365	-0.007050
	Zn225	Zn	0.501733	0.256522	-0.006527
	Zn226	Zn	0.751269	0.006995	0.492952
	Zn227	Zn	0.252883	0.006051	0.492158
	N228	N	0.418676	0.968218	0.669371
	N229	N	0.589791	0.043226	0.672748
	N230	N	0.587879	0.969531	0.315009
	N231	N	0.416449	0.044135	0.315824
	N232	N	0.682262	0.418885	0.954540
	N233	N	0.682659	0.594117	0.027553
	N234	N	0.320648	0.593895	0.955965
	N235	N	0.322201	0.419757	0.028102
	N236	N	0.964912	0.683688	0.407052
	N237	N	0.040258	0.684327	0.576882
	N238	N	0.965005	0.330634	0.575241
	N239	N	0.039103	0.328424	0.405371
	N240	N	0.966242	0.420094	0.670568
	N241	N	0.038995	0.594098	0.672667
	N242	N	0.966539	0.594088	0.310976
	N243	N	0.039046	0.419160	0.311672
	N244	N	0.415893	0.684372	0.955209
	N245	N	0.585337	0.682804	0.030115
	N246	N	0.588158	0.326453	0.955295
	N247	N	0.418652	0.331429	0.030206
	N248	N	0.679265	0.969087	0.408286
	N249	N	0.680292	0.043983	0.579202
	N250	N	0.323534	0.969194	0.579005
	N251	N	0.324347	0.043764	0.408128
	N252	N	0.917076	0.468589	0.169546
	N253	N	0.088869	0.542459	0.170485
	N254	N	0.088056	0.469292	0.813236
	N255	N	0.915876	0.543738	0.813762
	N256	N	0.183106	0.917962	0.455651
	N257	N	0.181249	0.093258	0.528105
	N258	N	0.819881	0.095165	0.455913
	N259	N	0.822664	0.920323	0.528843
	N260	N	0.463716	0.181982	0.910718
	N261	N	0.538751	0.185466	0.080005
	N262	N	0.464086	0.830361	0.076841
	N263	N	0.538495	0.827557	0.907019
	N264	N	0.465583	0.920607	0.172101
	N265	N	0.538198	0.094751	0.174790
	N266	N	0.466040	0.093521	0.813088
	N267	N	0.538413	0.917377	0.811541
	N268	N	0.916709	0.184369	0.453508
	N269	N	0.085932	0.184029	0.528416
	N270	N	0.087034	0.828471	0.454152
	N271	N	0.917815	0.829796	0.529740
	N272	N	0.180181	0.469376	0.905036
	N273	N	0.178284	0.543445	0.076479
	N274	N	0.824672	0.468651	0.076418
	N275	N	0.823762	0.543564	0.905965
	O276	O	-0.003015	-0.004241	0.089437
	H277	H	-0.005892	-0.005132	0.080112
	H278	H	-0.005789	-0.016101	0.089048
	O279	O	0.529378	0.483445	0.421111
	H280	H	0.534128	0.479993	0.423944
	H281	H	0.531807	0.481343	0.426095
	O282	O	0.495296	0.554811	0.518123
	H283	H	0.496867	0.556989	0.524225
	H284	H	0.486944	0.552547	0.509610
	O285	O	0.022461	1.006486	0.981323
	H286	H	0.016306	1.004031	0.990162
	H287	H	0.022447	1.011576	0.974975
	O288	O	0.497700	0.561587	0.528198
	H289	H	0.505633	0.575829	0.540158
	H290	H	0.491270	0.561485	0.520552
	O291	O	1.064102	0.900118	0.927685
	H292	H	1.069018	0.903956	0.926131
	H293	H	1.060936	0.902691	0.914209
	O294	O	0.982951	0.916042	0.943216
	H295	H	0.990688	0.915305	0.952645
	H296	H	0.974903	0.913599	0.935798
	O297	O	1.012237	0.023974	0.944377
	H298	H	1.010955	0.016571	0.942814
	H299	H	0.994516	0.013165	0.947879
	O300	O	0.505713	0.458743	0.569034
	H301	H	0.500770	0.448951	0.566948
	H302	H	0.510339	0.466378	0.569325
	O303	O	0.889560	0.102378	0.037149
	H304	H	0.895754	0.108271	0.031503
	H305	H	0.886594	0.089544	0.047002
	O306	O	-0.144099	1.025439	0.864652
	H307	H	-0.149555	1.043068	0.859430
	H308	H	-0.155647	1.026514	0.885586
	O309	O	0.508218	0.528639	0.473893
	H310	H	0.509575	0.526076	0.473533
	H311	H	0.508261	0.512154	0.463242
	O312	O	1.078683	-0.013152	0.967325
	H313	H	1.070444	-0.018290	0.970757
	H314	H	1.073696	-0.013889	0.958897
	O315	O	0.453948	0.493753	0.444551
	H316	H	0.453053	0.493860	0.452474
	H317	H	0.463408	0.491762	0.430497
	O318	O	0.049501	0.049383	0.966436
	H319	H	0.058543	0.048653	0.955698
	H320	H	0.061490	0.028135	0.959102
	O321	O	0.939351	1.028692	0.980510
	H322	H	0.948252	1.021779	0.986550
	H323	H	0.946431	1.024805	0.967345
	O324	O	0.534132	0.469937	0.442132
	H325	H	0.525762	0.471541	0.438165
	H326	H	0.539213	0.472494	0.440600
	O327	O	0.496825	0.442013	0.469765
	H328	H	0.493654	0.438718	0.461504
	H329	H	0.494835	0.448871	0.473565
	O330	O	0.913564	0.016004	1.033445
	H331	H	0.919559	0.013602	1.029593
	H332	H	0.913554	0.020689	1.039154
	O333	O	0.952767	0.926937	0.090258
	H334	H	0.960645	0.929537	0.083683
	H335	H	0.947617	0.923049	0.093509
	O336	O	0.569210	0.565212	0.558547
	H337	H	0.569755	0.568930	0.552831
	H338	H	0.577606	0.566330	0.568801
	O339	O	0.522294	0.447436	0.512451
	H340	H	0.524009	0.438140	0.510468
	H341	H	0.526573	0.446316	0.509142
	O342	O	0.305046	1.187991	0.260777
	H343	H	0.304530	1.182240	0.253333
	H344	H	0.302318	1.190766	0.269061
	O345	O	-0.055629	-0.001000	-0.020926
	H346	H	-0.052761	0.013128	-0.026059
	H347	H	-0.065359	0.011909	-0.030836
	O348	O	0.383229	0.586299	0.441577
	H349	H	0.373718	0.599323	0.447986
	H350	H	0.389931	0.576674	0.442390
	O351	O	0.131137	-0.095924	0.898140
	H352	H	0.133866	-0.107995	0.895265
	H353	H	0.122210	-0.089029	0.902433
	O354	O	0.508017	0.477720	0.413765
	H355	H	0.503138	0.473785	0.423778
	H356	H	0.511802	0.479137	0.408929
	O357	O	0.500617	0.510133	0.485562
	H358	H	0.501359	0.506377	0.490472
	H359	H	0.491860	0.507848	0.476521
	O360	O	-0.068270	-0.001454	-0.020030
	H361	H	-0.072788	-0.009262	-0.003330
	H362	H	-0.068975	-0.010550	-0.027262
	O363	O	0.543530	0.522616	0.474095
	H364	H	0.546324	0.518668	0.470294
	H365	H	0.553147	0.523439	0.479567
	O366	O	-0.052094	0.128781	0.882294
	H367	H	-0.047464	0.122576	0.879457
	H368	H	-0.052770	0.134470	0.888193
	O369	O	0.592302	0.556469	0.486980
	H370	H	0.594702	0.557491	0.477487
	H371	H	0.591489	0.558070	0.480981
