data_Molecule from HDF5

_cell_length_a		16.455651
_cell_length_b		16.429948
_cell_length_c		16.423228
_cell_angle_alpha	89.984917
_cell_angle_beta	89.988009
_cell_angle_gamma	90.179202
_symmetry_space_group_name_H-M	'P 1'
_symmetry_Int_Tables_number		1

loop_
	_symmetry_equiv_pos_as_xyz
	x,y,z

loop_
	_atom_site_label
	_atom_site_type_symbol
	_atom_site_fract_x
	_atom_site_fract_y
	_atom_site_fract_z
	H0	H	0.395427	0.828151	0.724042
	H1	H	0.613246	0.141989	0.723906
	H2	H	0.615294	0.831375	0.271663
	H3	H	0.396703	0.143635	0.276792
	H4	H	0.729788	0.379367	0.844387
	H5	H	0.730140	0.598991	0.156992
	H6	H	0.278336	0.595062	0.844924
	H7	H	0.278343	0.376048	0.157209
	H8	H	0.850261	0.711952	0.389587
	H9	H	0.161990	0.709242	0.608155
	H10	H	0.845719	0.264027	0.606025
	H11	H	0.161010	0.261301	0.392546
	H12	H	0.845579	0.381166	0.721927
	H13	H	0.161675	0.593710	0.724377
	H14	H	0.848433	0.594839	0.275887
	H15	H	0.159378	0.373830	0.274608
	H16	H	0.394910	0.710439	0.843960
	H17	H	0.612985	0.712163	0.157197
	H18	H	0.611904	0.264577	0.842939
	H19	H	0.393365	0.259739	0.156238
	H20	H	0.728660	0.828983	0.389852
	H21	H	0.730891	0.140498	0.610331
	H22	H	0.279128	0.828931	0.608724
	H23	H	0.280289	0.143332	0.391235
	H24	H	0.894311	0.329061	0.225197
	H25	H	0.115419	0.640263	0.229021
	H26	H	0.110151	0.328749	0.779242
	H27	H	0.896784	0.643865	0.777600
	H28	H	0.230798	0.875854	0.343182
	H29	H	0.225861	0.090095	0.658505
	H30	H	0.776477	0.096328	0.344147
	H31	H	0.778879	0.875049	0.655951
	H32	H	0.346924	0.207991	0.892449
	H33	H	0.660151	0.212656	0.108828
	H34	H	0.348050	0.761741	0.109760
	H35	H	0.660979	0.762541	0.893156
	H36	H	0.347267	0.878804	0.223268
	H37	H	0.660524	0.097307	0.225091
	H38	H	0.346777	0.090040	0.778538
	H39	H	0.661869	0.878217	0.777252
	H40	H	0.894020	0.210627	0.343538
	H41	H	0.109387	0.205810	0.658563
	H42	H	0.115511	0.758947	0.343925
	H43	H	0.895799	0.760182	0.656507
	H44	H	0.229874	0.331207	0.890535
	H45	H	0.230152	0.641165	0.112269
	H46	H	0.776263	0.330905	0.111734
	H47	H	0.781503	0.644268	0.893515
	H48	H	0.415146	0.097749	0.588170
	H49	H	0.596402	0.868493	0.593708
	H50	H	0.581079	0.092915	0.414768
	H51	H	0.419056	0.872776	0.406717
	H52	H	0.590612	0.400505	0.112225
	H53	H	0.590037	0.575209	0.888351
	H54	H	0.424109	0.574861	0.111369
	H55	H	0.423187	0.397148	0.890262
	H56	H	0.117339	0.575752	0.416383
	H57	H	0.890807	0.571761	0.595305
	H58	H	0.114754	0.399364	0.587056
	H59	H	0.892777	0.402536	0.411154
	H60	H	0.118429	0.398639	0.596762
	H61	H	0.890719	0.579127	0.586383
	H62	H	0.112796	0.567184	0.420334
	H63	H	0.888796	0.392662	0.409943
	H64	H	0.413366	0.577610	0.116078
	H65	H	0.593591	0.573626	0.888379
	H66	H	0.589315	0.399741	0.112965
	H67	H	0.412284	0.395529	0.885775
	H68	H	0.596760	0.096333	0.423227
	H69	H	0.583857	0.873852	0.589160
	H70	H	0.416785	0.098742	0.589940
	H71	H	0.422425	0.877151	0.416218
	H72	H	0.915121	0.598231	0.085255
	H73	H	0.091028	0.372456	0.089673
	H74	H	0.094471	0.602134	0.909218
	H75	H	0.917415	0.375016	0.914291
	H76	H	0.097329	0.898277	0.613388
	H77	H	0.087373	0.077321	0.387369
	H78	H	0.919238	0.069835	0.610186
	H79	H	0.919260	0.900988	0.389082
	H80	H	0.616760	0.074704	0.913971
	H81	H	0.392002	0.073877	0.088189
	H82	H	0.614017	0.903145	0.083283
	H83	H	0.392896	0.896205	0.915276
	H84	H	0.616343	0.901485	0.089009
	H85	H	0.392477	0.073873	0.086483
	H86	H	0.617420	0.074175	0.911602
	H87	H	0.392280	0.901371	0.911503
	H88	H	0.917276	0.076291	0.612656
	H89	H	0.098499	0.077120	0.383634
	H90	H	0.089725	0.903602	0.608538
	H91	H	0.919079	0.897016	0.388439
	H92	H	0.086264	0.598002	0.913744
	H93	H	0.086141	0.375541	0.085668
	H94	H	0.917874	0.599698	0.092321
	H95	H	0.914006	0.374308	0.915290
	H96	H	0.417671	0.097733	0.587952
	H97	H	0.594897	0.874191	0.580244
	H98	H	0.594857	0.101575	0.405805
	H99	H	0.412348	0.873271	0.414965
	H100	H	0.590783	0.399132	0.113386
	H101	H	0.590936	0.571410	0.890351
	H102	H	0.415050	0.566377	0.111751
	H103	H	0.414984	0.405799	0.890544
	H104	H	0.116448	0.566898	0.410077
	H105	H	0.894917	0.568104	0.585118
	H106	H	0.119376	0.390285	0.590309
	H107	H	0.893687	0.395583	0.419152
	H108	H	0.922610	0.595684	0.086821
	H109	H	0.092405	0.373954	0.083005
	H110	H	0.094106	0.598456	0.919064
	H111	H	0.914706	0.374056	0.911618
	H112	H	0.088043	0.894049	0.611973
	H113	H	0.094065	0.067592	0.388892
	H114	H	0.912640	0.071325	0.612082
	H115	H	0.915710	0.899201	0.387829
	H116	H	0.617484	0.076256	0.911894
	H117	H	0.391995	0.072085	0.087039
	H118	H	0.616821	0.897396	0.084058
	H119	H	0.389910	0.895849	0.909351
	C120	C	0.382927	-0.006081	0.621845
	C121	C	0.625972	0.976223	0.621735
	C122	C	0.625967	-0.005542	0.378382
	C123	C	0.383333	0.977933	0.378382
	C124	C	0.625223	0.366116	0.009221
	C125	C	0.625573	0.608383	0.992372
	C126	C	0.382851	0.607406	0.009584
	C127	C	0.382112	0.364536	0.992075
	C128	C	0.012801	0.605412	0.380348
	C129	C	0.996130	0.607077	0.622681
	C130	C	0.012888	0.363580	0.623337
	C131	C	0.995055	0.362827	0.378997
	C132	C	0.882847	0.494661	0.122649
	C133	C	0.125258	0.476652	0.122312
	C134	C	0.125315	0.495599	0.879975
	C135	C	0.882417	0.478212	0.880022
	C136	C	0.126449	0.864048	0.508032
	C137	C	0.126046	0.106589	0.491341
	C138	C	0.882039	0.106798	0.508345
	C139	C	0.883617	0.863924	0.491778
	C140	C	0.513223	0.107501	0.878711
	C141	C	0.495371	0.108334	0.121315
	C142	C	0.512659	0.865897	0.120720
	C143	C	0.495665	0.864079	0.878619
	C144	C	0.378376	0.875718	0.683531
	C145	C	0.630808	0.094278	0.683650
	C146	C	0.631867	0.877781	0.313457
	C147	C	0.379398	0.096527	0.317117
	C148	C	0.688435	0.361892	0.891513
	C149	C	0.688383	0.614606	0.109987
	C150	C	0.319577	0.612351	0.892001
	C151	C	0.319201	0.358699	0.109643
	C152	C	0.896564	0.669855	0.373806
	C153	C	0.114314	0.669115	0.626450
	C154	C	0.893503	0.303493	0.625036
	C155	C	0.113409	0.301217	0.374777
	C156	C	0.893338	0.361773	0.682803
	C157	C	0.114470	0.610988	0.683903
	C158	C	0.895780	0.611388	0.316812
	C159	C	0.112737	0.357441	0.315932
	C160	C	0.377643	0.670003	0.891611
	C161	C	0.630226	0.671523	0.109923
	C162	C	0.629686	0.304632	0.890639
	C163	C	0.376495	0.300629	0.109243
	C164	C	0.688193	0.876613	0.372565
	C165	C	0.689302	0.093631	0.626697
	C166	C	0.320527	0.875920	0.625778
	C167	C	0.321096	0.095694	0.374256
	C168	C	0.877320	0.376488	0.184657
	C169	C	0.131584	0.593555	0.186891
	C170	C	0.128708	0.376802	0.818529
	C171	C	0.879135	0.596484	0.817952
	C172	C	0.189313	0.858845	0.390213
	C173	C	0.186100	0.108733	0.610691
	C174	C	0.818494	0.112331	0.391025
	C175	C	0.820445	0.858474	0.609059
	C176	C	0.394428	0.168098	0.874775
	C177	C	0.613162	0.171548	0.126174
	C178	C	0.395103	0.802669	0.126521
	C179	C	0.614118	0.802905	0.875390
	C180	C	0.394832	0.861312	0.183078
	C181	C	0.613360	0.113964	0.184138
	C182	C	0.394470	0.109571	0.817867
	C183	C	0.614310	0.860443	0.817480
	C184	C	0.877080	0.169712	0.390760
	C185	C	0.127960	0.166194	0.610864
	C186	C	0.131745	0.800605	0.390464
	C187	C	0.878596	0.800819	0.609316
	C188	C	0.188137	0.377909	0.874323
	C189	C	0.188789	0.594175	0.128609
	C190	C	0.818384	0.377553	0.128030
	C191	C	0.821649	0.596918	0.875879
	C192	C	0.409051	0.076607	0.595931
	C193	C	0.599415	0.893905	0.595162
	C194	C	0.598744	0.075642	0.406535
	C195	C	0.410212	0.895921	0.405049
	C196	C	0.598042	0.392264	0.091488
	C197	C	0.599018	0.581057	0.910443
	C198	C	0.409850	0.580689	0.091701
	C199	C	0.409067	0.391910	0.910162
	C200	C	0.094181	0.577963	0.407822
	C201	C	0.913544	0.580605	0.596618
	C202	C	0.095716	0.388779	0.598456
	C203	C	0.913248	0.389304	0.405616
	C204	C	0.910482	0.576445	0.095673
	C205	C	0.097809	0.395301	0.094218
	C206	C	0.099345	0.577828	0.906240
	C207	C	0.907995	0.395976	0.906327
	C208	C	0.099481	0.891151	0.589940
	C209	C	0.100761	0.081263	0.408357
	C210	C	0.908687	0.080124	0.590326
	C211	C	0.910390	0.891180	0.409673
	C212	C	0.595644	0.082302	0.904980
	C213	C	0.413565	0.081172	0.094947
	C214	C	0.594397	0.892895	0.093263
	C215	C	0.413482	0.890228	0.904463
	Zn216	Zn	0.504517	-0.014620	0.749993
	Zn217	Zn	0.504638	-0.013352	0.249672
	Zn218	Zn	0.754091	0.488118	0.001249
	Zn219	Zn	0.253958	0.485999	0.001344
	Zn220	Zn	0.005615	0.735086	0.500512
	Zn221	Zn	0.004222	0.235129	0.500770
	Zn222	Zn	0.003952	0.486255	0.751853
	Zn223	Zn	0.004620	0.484591	0.251460
	Zn224	Zn	0.504126	0.736060	0.000693
	Zn225	Zn	0.503509	0.236678	-0.000506
	Zn226	Zn	0.754084	-0.015208	0.499659
	Zn227	Zn	0.254905	-0.014534	0.499648
	N228	N	0.416740	0.950147	0.680902
	N229	N	0.592287	0.020087	0.680707
	N230	N	0.594042	0.952182	0.316735
	N231	N	0.417438	0.022150	0.319508
	N232	N	0.686045	0.398973	0.966483
	N233	N	0.685534	0.575808	0.035892
	N234	N	0.322597	0.574036	0.966293
	N235	N	0.322531	0.397718	0.035735
	N236	N	0.970397	0.666084	0.412741
	N237	N	0.039533	0.666857	0.589236
	N238	N	0.968978	0.303992	0.589255
	N239	N	0.039240	0.304344	0.413182
	N240	N	0.968634	0.398210	0.682084
	N241	N	0.039708	0.573578	0.681945
	N242	N	0.969158	0.571940	0.320793
	N243	N	0.038197	0.394899	0.318250
	N244	N	0.416237	0.666890	0.965775
	N245	N	0.591673	0.667613	0.035759
	N246	N	0.591057	0.307044	0.964969
	N247	N	0.414916	0.304237	0.034948
	N248	N	0.684831	0.950161	0.412233
	N249	N	0.686750	0.018907	0.589277
	N250	N	0.323294	0.950458	0.588014
	N251	N	0.323436	0.020937	0.411560
	N252	N	0.916526	0.450428	0.181676
	N253	N	0.092698	0.519504	0.182943
	N254	N	0.090269	0.450886	0.821923
	N255	N	0.916234	0.521737	0.820343
	N256	N	0.185875	0.897728	0.464119
	N257	N	0.185337	0.072781	0.535218
	N258	N	0.821530	0.073829	0.465241
	N259	N	0.823456	0.896934	0.534914
	N260	N	0.469370	0.167182	0.911657
	N261	N	0.538888	0.168428	0.088149
	N262	N	0.469432	0.805464	0.088433
	N263	N	0.539434	0.804969	0.912500
	N264	N	0.468975	0.899892	0.179783
	N265	N	0.539137	0.075346	0.181288
	N266	N	0.469412	0.072878	0.819859
	N267	N	0.539616	0.897762	0.819387
	N268	N	0.916119	0.166110	0.464684
	N269	N	0.091744	0.165370	0.535433
	N270	N	0.093387	0.803773	0.464795
	N271	N	0.917071	0.804000	0.535133
	N272	N	0.186451	0.452736	0.911626
	N273	N	0.185101	0.520322	0.089322
	N274	N	0.821535	0.452318	0.090471
	N275	N	0.823643	0.522464	0.913879
	O276	O	0.720248	0.468168	0.280739
	H277	H	0.746766	0.453745	0.252300
	H278	H	0.713312	0.427305	0.284864
	O279	O	1.176779	0.051335	0.904440
	H280	H	1.173314	0.054807	0.915893
	H281	H	1.172145	0.058395	0.912853
	O282	O	0.527836	0.272866	0.291547
	H283	H	0.523790	0.249549	0.254233
	H284	H	0.499406	0.301383	0.296537
	O285	O	0.710751	0.297849	0.483480
	H286	H	0.675029	0.287912	0.507380
	H287	H	0.733188	0.272482	0.485743
	O288	O	1.185490	0.808012	-0.179878
	H289	H	1.187300	0.843666	-0.187973
	H290	H	1.187023	0.801949	-0.138635
	O291	O	0.294873	0.367116	0.530910
	H292	H	0.285433	0.356348	0.522044
	H293	H	0.306197	0.365020	0.516295
	O294	O	-0.069423	0.201631	1.065447
	H295	H	-0.058901	0.176221	1.083118
	H296	H	-0.032463	0.205175	1.037509
	O297	O	0.395787	0.440154	1.710947
	H298	H	0.385763	0.424631	1.732023
	H299	H	0.412541	0.453827	1.724228
	O300	O	0.330891	0.660650	0.324938
	H301	H	0.326435	0.671550	0.368863
	H302	H	0.357639	0.649739	0.317013
	O303	O	0.174431	0.173464	0.767539
	H304	H	0.176121	0.163437	0.753066
	H305	H	0.170463	0.206586	0.766655
	O306	O	0.558903	0.538010	0.287148
	H307	H	0.568095	0.551737	0.299833
	H308	H	0.579361	0.523027	0.286403
	O309	O	0.681040	0.671931	0.683571
	H310	H	0.694909	0.680272	0.632568
	H311	H	0.698148	0.637031	0.697042
	O312	O	-0.164630	0.948269	0.944060
	H313	H	-0.155282	0.962062	0.925885
	H314	H	-0.145013	0.968365	0.943593
	O315	O	0.561230	0.364653	0.663478
	H316	H	0.547161	0.350310	0.675244
	H317	H	0.544194	0.363263	0.656483
	O318	O	1.055618	-0.224949	0.042002
	H319	H	1.018446	-0.223687	0.032611
	H320	H	1.033755	-0.220730	0.066922
	O321	O	0.052104	-0.017144	0.031432
	H322	H	0.069107	-0.044829	0.032184
	H323	H	0.055647	0.003902	0.040445
	O324	O	0.830704	0.805176	0.177441
	H325	H	0.818301	0.857599	0.190239
	H326	H	0.837037	0.792383	0.165280
	O327	O	0.689043	0.309685	0.322494
	H328	H	0.636943	0.295691	0.313350
	H329	H	0.697590	0.302333	0.374553
	O330	O	-0.178741	1.169584	-0.181750
	H331	H	-0.191150	1.180632	-0.128254
	H332	H	-0.188879	1.116053	-0.189095
	O333	O	0.292548	0.502514	0.291463
	H334	H	0.290662	0.512915	0.300992
	H335	H	0.272094	0.514414	0.271837
	O336	O	0.200180	-0.028493	-0.192635
	H337	H	0.211766	-0.018320	-0.186786
	H338	H	0.188582	-0.021999	-0.200307
	O339	O	-0.020674	1.206851	0.779749
	H340	H	-0.038277	1.230669	0.753955
	H341	H	-0.060842	1.207764	0.779307
	O342	O	0.308098	1.287184	0.629503
	H343	H	0.279785	1.299818	0.638424
	H344	H	0.296779	1.297741	0.585182
	O345	O	1.182234	1.137611	0.169098
	H346	H	1.136477	1.145335	0.188428
	H347	H	1.192183	1.100554	0.182533
	O348	O	0.565349	0.708209	0.441977
	H349	H	0.539597	0.702967	0.445560
	H350	H	0.583404	0.710562	0.438371
	O351	O	0.469185	1.490159	1.624702
	H352	H	0.492582	1.497103	1.639058
	H353	H	0.470050	1.508205	1.621213
	O354	O	0.026072	0.772209	-0.215285
	H355	H	0.029881	0.762815	-0.212398
	H356	H	0.051515	0.754216	-0.228431
	O357	O	-0.073655	-0.206989	0.915804
	H358	H	-0.082416	-0.186587	0.916695
	H359	H	-0.079122	-0.209189	0.905385
	O360	O	0.348304	0.538312	0.563875
	H361	H	0.364422	0.525119	0.575573
	H362	H	0.344003	0.525596	0.576266
	O363	O	-0.199702	0.004536	0.794393
	H364	H	-0.155966	-0.018820	0.789947
	H365	H	-0.230743	0.001533	0.763552
	O366	O	0.488392	0.699766	0.288373
	H367	H	0.480405	0.716370	0.277597
	H368	H	0.499078	0.685429	0.279268
	O369	O	0.719528	0.699074	-0.477396
	H370	H	0.746143	0.704842	-0.486087
	H371	H	0.720964	0.698225	-0.497919
	O372	O	1.023380	0.200365	1.216223
	H373	H	1.021215	0.227740	1.249779
	H374	H	0.998601	0.190279	1.204764
	O375	O	0.189340	0.991424	1.216626
	H376	H	0.210831	0.979103	1.225125
	H377	H	0.182441	0.969882	1.227849
	O378	O	0.972662	0.924626	0.891401
	H379	H	0.992678	0.926397	0.901606
	H380	H	0.976882	0.911746	0.899134
	O381	O	0.549962	0.276765	0.529427
	H382	H	0.539838	0.283549	0.545425
	H383	H	0.524869	0.286784	0.545870
	O384	O	-0.203606	1.043370	1.068720
	H385	H	-0.193773	1.042101	1.042840
	H386	H	-0.204500	1.060380	1.045559
	O387	O	0.214159	-0.219110	0.980676
	H388	H	0.178520	-0.224907	0.995056
	H389	H	0.237392	-0.245419	0.984563
	O390	O	0.061589	0.199060	-0.044664
	H391	H	0.094529	0.200707	-0.054061
	H392	H	0.065798	0.201957	-0.078694
	O393	O	0.963346	0.774152	1.178795
	H394	H	0.946138	0.765697	1.181621
	H395	H	0.968182	0.765301	1.199267
	O396	O	0.442830	0.418032	0.279046
	H397	H	0.426172	0.426004	0.290979
	H398	H	0.446988	0.449717	0.273187
	O399	O	0.571728	0.463199	0.481316
	H400	H	0.562657	0.458707	0.491984
	H401	H	0.567426	0.478372	0.466206
	O402	O	1.061905	0.906771	1.190387
	H403	H	1.039125	0.903191	1.193942
	H404	H	1.086101	0.912031	1.166270
	O405	O	0.446309	0.605884	-0.444126
	H406	H	0.449771	0.613764	-0.441673
	H407	H	0.465629	0.607161	-0.430336
	O408	O	0.978724	-0.009048	-0.144304
	H409	H	0.989334	-0.007874	-0.122809
	H410	H	0.992126	-0.002334	-0.160884
	O411	O	1.208689	1.195738	0.031480
	H412	H	1.222945	1.211720	0.042472
	H413	H	1.207563	1.193776	0.064801
	O414	O	0.681253	0.568002	0.419310
	H415	H	0.693916	0.548260	0.397379
	H416	H	0.664026	0.567209	0.430968
	O417	O	0.303163	1.423140	-0.473101
	H418	H	0.305731	1.439516	-0.462449
	H419	H	0.319502	1.416558	-0.466500
	O420	O	-0.048055	0.042845	0.215442
	H421	H	-0.066477	0.038228	0.217755
	H422	H	-0.050615	0.028223	0.218439
	O423	O	0.480510	0.265004	0.720779
	H424	H	0.435923	0.267933	0.716576
	H425	H	0.466834	0.235183	0.749544
	O426	O	0.184006	0.962461	1.023074
	H427	H	0.182541	0.955606	1.019054
	H428	H	0.200018	0.946466	1.014937
	O429	O	0.715742	0.450183	0.553437
	H430	H	0.710861	0.460499	0.554970
	H431	H	0.721792	0.431221	0.532119
	O432	O	0.449539	0.609480	0.644143
	H433	H	0.447170	0.611722	0.651486
	H434	H	0.457085	0.617138	0.651112
	O435	O	0.709379	0.506579	0.708547
	H436	H	0.722333	0.504446	0.733048
	H437	H	0.704083	0.489881	0.691908
	O438	O	-0.204650	-0.186255	0.003453
	H439	H	-0.213094	-0.187917	0.010971
	H440	H	-0.228691	-0.173966	-0.000073
	O441	O	0.794810	-0.035863	0.212065
	H442	H	0.762488	-0.030455	0.223806
	H443	H	0.784183	-0.013110	0.184918
	O444	O	0.786607	0.203321	0.978714
	H445	H	0.813431	0.219756	1.002005
	H446	H	0.774712	0.237170	0.984464
	O447	O	0.298189	0.688688	0.485514
	H448	H	0.276739	0.693305	0.499126
	H449	H	0.306732	0.688848	0.497292
	O450	O	0.522683	0.702278	0.720084
	H451	H	0.550041	0.714875	0.732729
	H452	H	0.552996	0.713698	0.730309
	O453	O	0.389270	0.326115	0.444256
	H454	H	0.408798	0.354224	0.452988
	H455	H	0.408888	0.329887	0.411400
