data_Molecule from HDF5

_cell_length_a		16.610603
_cell_length_b		16.454277
_cell_length_c		16.547379
_cell_angle_alpha	89.925891
_cell_angle_beta	89.996926
_cell_angle_gamma	90.170431
_symmetry_space_group_name_H-M	'P 1'
_symmetry_Int_Tables_number		1

loop_
	_symmetry_equiv_pos_as_xyz
	x,y,z

loop_
	_atom_site_label
	_atom_site_type_symbol
	_atom_site_fract_x
	_atom_site_fract_y
	_atom_site_fract_z
	H0	H	0.361229	0.836599	0.732986
	H1	H	0.570735	0.151400	0.731227
	H2	H	0.572359	0.836565	0.288727
	H3	H	0.362294	0.151260	0.290441
	H4	H	0.687443	0.389845	0.854955
	H5	H	0.688975	0.599362	0.168643
	H6	H	0.246444	0.598223	0.854916
	H7	H	0.244286	0.386404	0.168149
	H8	H	0.809242	0.714451	0.407701
	H9	H	0.124176	0.713982	0.613907
	H10	H	0.809538	0.274132	0.614481
	H11	H	0.123435	0.274168	0.408895
	H12	H	0.809418	0.391913	0.730749
	H13	H	0.124163	0.597454	0.731315
	H14	H	0.811397	0.600417	0.287712
	H15	H	0.121717	0.387344	0.289356
	H16	H	0.366347	0.711083	0.853505
	H17	H	0.572271	0.715334	0.168990
	H18	H	0.569911	0.275431	0.853204
	H19	H	0.363088	0.272088	0.168201
	H20	H	0.688707	0.836855	0.404036
	H21	H	0.687102	0.151078	0.615275
	H22	H	0.244380	0.836433	0.617010
	H23	H	0.245751	0.150686	0.405869
	H24	H	0.860187	0.335675	0.234257
	H25	H	0.073335	0.650831	0.234003
	H26	H	0.069860	0.335327	0.792716
	H27	H	0.864351	0.651524	0.792306
	H28	H	0.192316	0.883651	0.355769
	H29	H	0.188021	0.098366	0.667425
	H30	H	0.741924	0.103546	0.356025
	H31	H	0.745161	0.888817	0.667379
	H32	H	0.311446	0.215553	0.905125
	H33	H	0.623770	0.215331	0.115603
	H34	H	0.311508	0.768841	0.119591
	H35	H	0.623533	0.775078	0.908862
	H36	H	0.311566	0.884665	0.235889
	H37	H	0.621847	0.100871	0.234199
	H38	H	0.311694	0.100139	0.788174
	H39	H	0.621080	0.888426	0.788798
	H40	H	0.861049	0.216855	0.355094
	H41	H	0.070481	0.212728	0.668745
	H42	H	0.074253	0.769212	0.354659
	H43	H	0.863204	0.773959	0.668482
	H44	H	0.186309	0.335371	0.907490
	H45	H	0.189509	0.651085	0.118491
	H46	H	0.743056	0.336515	0.119029
	H47	H	0.747503	0.651534	0.908833
	H48	H	0.381435	0.105458	0.600665
	H49	H	0.550375	0.881888	0.601673
	H50	H	0.557906	0.106069	0.424303
	H51	H	0.383139	0.882453	0.422751
	H52	H	0.560210	0.404762	0.124974
	H53	H	0.558962	0.586896	0.898058
	H54	H	0.371413	0.580968	0.126351
	H55	H	0.379736	0.406575	0.900343
	H56	H	0.073299	0.577615	0.431003
	H57	H	0.853769	0.583366	0.603708
	H58	H	0.081956	0.398187	0.603117
	H59	H	0.856096	0.407799	0.423778
	H60	H	0.077901	0.404927	0.598870
	H61	H	0.853574	0.585899	0.604400
	H62	H	0.077324	0.576690	0.416542
	H63	H	0.853719	0.405322	0.421445
	H64	H	0.380355	0.573830	0.120908
	H65	H	0.560064	0.580584	0.899993
	H66	H	0.553853	0.409656	0.121665
	H67	H	0.375490	0.402514	0.898689
	H68	H	0.553391	0.106115	0.420607
	H69	H	0.556702	0.880769	0.595109
	H70	H	0.376518	0.104793	0.594873
	H71	H	0.377452	0.883148	0.428213
	H72	H	0.872898	0.606135	0.097378
	H73	H	0.060575	0.379970	0.099463
	H74	H	0.062996	0.608458	0.922835
	H75	H	0.875582	0.380109	0.921774
	H76	H	0.061904	0.908140	0.623363
	H77	H	0.055484	0.080151	0.399755
	H78	H	0.874924	0.081671	0.623657
	H79	H	0.877620	0.911065	0.400495
	H80	H	0.578479	0.082127	0.921211
	H81	H	0.354663	0.083587	0.099217
	H82	H	0.579197	0.904329	0.102697
	H83	H	0.354455	0.903701	0.922659
	H84	H	0.576843	0.903376	0.096765
	H85	H	0.356085	0.080587	0.099628
	H86	H	0.579574	0.083905	0.919480
	H87	H	0.354835	0.904648	0.923824
	H88	H	0.877213	0.081164	0.622547
	H89	H	0.054628	0.083884	0.398549
	H90	H	0.050271	0.910357	0.619225
	H91	H	0.881776	0.902331	0.399377
	H92	H	0.053781	0.607424	0.917589
	H93	H	0.052401	0.379926	0.105589
	H94	H	0.881831	0.606526	0.105885
	H95	H	0.876542	0.381192	0.922203
	H96	H	0.374490	0.108065	0.601373
	H97	H	0.558483	0.878692	0.603597
	H98	H	0.552763	0.103980	0.425923
	H99	H	0.376118	0.879926	0.421214
	H100	H	0.552285	0.401170	0.123615
	H101	H	0.553719	0.583319	0.900628
	H102	H	0.382491	0.586193	0.123789
	H103	H	0.373534	0.407751	0.899786
	H104	H	0.079666	0.589035	0.424362
	H105	H	0.854184	0.585335	0.602030
	H106	H	0.080124	0.405491	0.607670
	H107	H	0.855677	0.403830	0.425310
	H108	H	0.883831	0.600824	0.094657
	H109	H	0.052157	0.384628	0.096267
	H110	H	0.054675	0.603718	0.927268
	H111	H	0.875424	0.379939	0.923465
	H112	H	0.053522	0.898895	0.623398
	H113	H	0.058275	0.082527	0.398289
	H114	H	0.876965	0.083433	0.624049
	H115	H	0.872806	0.903645	0.396835
	H116	H	0.578939	0.084976	0.921614
	H117	H	0.354441	0.081576	0.102266
	H118	H	0.576204	0.909426	0.099645
	H119	H	0.354396	0.906128	0.922331
	C120	C	0.345034	0.002100	0.631773
	C121	C	0.587209	0.984944	0.632012
	C122	C	0.587652	0.001856	0.390000
	C123	C	0.346123	0.985240	0.390416
	C124	C	0.587044	0.373369	0.019588
	C125	C	0.588997	0.615438	1.003487
	C126	C	0.346001	0.613604	0.020161
	C127	C	0.344411	0.371779	1.002956
	C128	C	-0.025892	0.614822	0.390558
	C129	C	0.958175	0.615904	0.633731
	C130	C	-0.024483	0.372233	0.633593
	C131	C	0.958174	0.372843	0.391100
	C132	C	0.845771	0.501290	0.132822
	C133	C	0.087748	0.485548	0.133220
	C134	C	0.087840	0.502130	0.891252
	C135	C	0.845198	0.485139	0.890921
	C136	C	0.088411	0.871906	0.518951
	C137	C	0.087763	0.114106	0.502657
	C138	C	0.844307	0.115572	0.519963
	C139	C	0.845475	0.872986	0.502667
	C140	C	0.475806	0.115767	0.888941
	C141	C	0.458334	0.115053	0.132362
	C142	C	0.475351	0.871267	0.133749
	C143	C	0.457666	0.872629	0.890413
	C144	C	0.342776	0.883627	0.692415
	C145	C	0.589212	0.103919	0.691345
	C146	C	0.590617	0.883975	0.328767
	C147	C	0.343930	0.103833	0.330174
	C148	C	0.646868	0.371846	0.901642
	C149	C	0.648877	0.617814	0.121493
	C150	C	0.286629	0.616129	0.901862
	C151	C	0.284740	0.368446	0.121117
	C152	C	0.856522	0.674881	0.388440
	C153	C	0.076970	0.674323	0.633422
	C154	C	0.856669	0.313894	0.633530
	C155	C	0.076036	0.313395	0.389424
	C156	C	0.856585	0.372255	0.691275
	C157	C	0.076851	0.616447	0.691698
	C158	C	0.857396	0.617973	0.329305
	C159	C	0.075380	0.369860	0.330213
	C160	C	0.346139	0.672410	0.901206
	C161	C	0.590739	0.675285	0.121731
	C162	C	0.588483	0.314644	0.900907
	C163	C	0.343679	0.311674	0.121250
	C164	C	0.648501	0.884101	0.386303
	C165	C	0.647236	0.103776	0.634002
	C166	C	0.284791	0.883679	0.634814
	C167	C	0.286045	0.103616	0.387592
	C168	C	0.842195	0.383165	0.194231
	C169	C	0.091052	0.603675	0.193879
	C170	C	0.088945	0.383097	0.831868
	C171	C	0.844595	0.604164	0.831795
	C172	C	0.150830	0.866665	0.402242
	C173	C	0.147912	0.116411	0.620432
	C174	C	0.782958	0.120262	0.402689
	C175	C	0.785222	0.870236	0.620429
	C176	C	0.358403	0.175756	0.886642
	C177	C	0.576215	0.175544	0.134443
	C178	C	0.358317	0.809187	0.137635
	C179	C	0.575802	0.813736	0.889147
	C180	C	0.358243	0.867191	0.195160
	C181	C	0.575444	0.118539	0.193451
	C182	C	0.358472	0.118330	0.828308
	C183	C	0.574935	0.870358	0.829771
	C184	C	0.842406	0.176661	0.402218
	C185	C	0.089448	0.173338	0.621136
	C186	C	0.092069	0.809674	0.401795
	C187	C	0.844114	0.813456	0.621046
	C188	C	0.146677	0.382939	0.889406
	C189	C	0.149049	0.603633	0.136376
	C190	C	0.784146	0.383414	0.136767
	C191	C	0.786925	0.604237	0.889805
	C192	C	0.370381	0.084710	0.606190
	C193	C	0.562350	0.902159	0.607210
	C194	C	0.561868	0.084074	0.415890
	C195	C	0.371754	0.903266	0.416521
	C196	C	0.562477	0.398100	0.101959
	C197	C	0.564636	0.590596	0.920910
	C198	C	0.370860	0.587633	0.102297
	C199	C	0.369116	0.397918	0.920971
	C200	C	0.055641	0.588738	0.416584
	C201	C	0.875405	0.591794	0.610165
	C202	C	0.058387	0.396075	0.610142
	C203	C	0.876386	0.398453	0.416358
	C204	C	0.871997	0.583064	0.106710
	C205	C	0.062349	0.403102	0.107584
	C206	C	0.063967	0.584920	0.915656
	C207	C	0.869007	0.401896	0.915521
	C208	C	0.062606	0.898301	0.600644
	C209	C	0.063006	0.089190	0.420232
	C210	C	0.869304	0.089536	0.601938
	C211	C	0.870278	0.898464	0.420266
	C212	C	0.557612	0.090855	0.913655
	C213	C	0.376438	0.089226	0.107400
	C214	C	0.556165	0.898024	0.107383
	C215	C	0.375860	0.897639	0.915642
	Zn216	Zn	0.466266	-0.006313	0.760366
	Zn217	Zn	0.466436	-0.006702	0.261158
	Zn218	Zn	0.717100	0.493850	0.012067
	Zn219	Zn	0.216356	0.493701	0.012230
	Zn220	Zn	-0.033518	0.744246	0.511286
	Zn221	Zn	-0.032987	0.243280	0.511770
	Zn222	Zn	-0.032882	0.493536	0.762630
	Zn223	Zn	-0.033607	0.493580	0.261499
	Zn224	Zn	0.466502	0.743174	0.012138
	Zn225	Zn	0.466689	0.244022	0.010850
	Zn226	Zn	0.715795	-0.006345	0.511273
	Zn227	Zn	0.216798	-0.006579	0.510581
	N228	N	0.379585	0.958377	0.690640
	N229	N	0.552663	0.029008	0.690402
	N230	N	0.553600	0.958479	0.330947
	N231	N	0.380621	0.029231	0.331780
	N232	N	0.646392	0.407597	0.976586
	N233	N	0.648033	0.581488	0.046978
	N234	N	0.286514	0.580414	0.976966
	N235	N	0.284954	0.405041	0.046471
	N236	N	0.930382	0.673107	0.425679
	N237	N	0.001978	0.674299	0.598416
	N238	N	0.931737	0.313596	0.598614
	N239	N	0.002111	0.315080	0.426569
	N240	N	0.931585	0.407353	0.691677
	N241	N	0.001882	0.581081	0.692218
	N242	N	0.931640	0.581506	0.330490
	N243	N	0.000906	0.405865	0.330924
	N244	N	0.382273	0.671088	0.975891
	N245	N	0.554123	0.673911	0.047223
	N246	N	0.552129	0.315430	0.975306
	N247	N	0.379894	0.313560	0.046737
	N248	N	0.646936	0.958581	0.423645
	N249	N	0.646214	0.028677	0.597925
	N250	N	0.286038	0.958504	0.597984
	N251	N	0.287097	0.028708	0.424206
	N252	N	0.879890	0.457496	0.191840
	N253	N	0.053775	0.529142	0.192205
	N254	N	0.053097	0.458226	0.832747
	N255	N	0.880127	0.528950	0.832411
	N256	N	0.148821	0.904509	0.476237
	N257	N	0.146999	0.080285	0.545676
	N258	N	0.783821	0.083055	0.476992
	N259	N	0.785876	0.906493	0.545648
	N260	N	0.432328	0.174373	0.923475
	N261	N	0.502352	0.173551	0.097205
	N262	N	0.432129	0.811475	0.100157
	N263	N	0.501922	0.815067	0.926356
	N264	N	0.431861	0.905078	0.192948
	N265	N	0.501053	0.081875	0.192552
	N266	N	0.432628	0.081870	0.829320
	N267	N	0.500318	0.905973	0.830217
	N268	N	0.879669	0.174042	0.476198
	N269	N	0.052392	0.171963	0.546926
	N270	N	0.054028	0.812924	0.475453
	N271	N	0.880711	0.814959	0.546693
	N272	N	0.146202	0.457887	0.925747
	N273	N	0.147331	0.528961	0.099502
	N274	N	0.786236	0.457877	0.099206
	N275	N	0.787334	0.529108	0.925880
	O276	O	0.977635	1.173869	-0.055442
	H277	H	0.981671	1.166738	-0.058303
	H278	H	0.965987	1.165660	-0.056584
	O279	O	-0.132976	-0.218078	1.177842
	H280	H	-0.123551	-0.214872	1.172497
	H281	H	-0.132586	-0.238376	1.195198
	O282	O	1.296608	1.373053	0.656788
	H283	H	1.299987	1.353988	0.656675
	H284	H	1.308262	1.366996	0.652358
	O285	O	0.450894	0.535485	0.302039
	H286	H	0.451992	0.531622	0.287625
	H287	H	0.455882	0.535771	0.318429
	O288	O	1.709907	-0.258828	1.758766
	H289	H	1.731747	-0.253778	1.772591
	H290	H	1.705631	-0.289755	1.755755
	O291	O	0.498493	0.585046	0.545218
	H292	H	0.498481	0.572689	0.541786
	H293	H	0.514202	0.593120	0.551689
	O294	O	0.450220	-0.621911	-0.501179
	H295	H	0.448327	-0.618596	-0.513169
	H296	H	0.443656	-0.626112	-0.497945
	O297	O	1.497340	0.645947	-0.339105
	H298	H	1.500079	0.645295	-0.334573
	H299	H	1.508048	0.644083	-0.328631
	O300	O	-0.043754	-0.131829	0.146878
	H301	H	-0.046210	-0.148649	0.159945
	H302	H	-0.031257	-0.127169	0.138388
	O303	O	0.177850	-0.040629	-0.196608
	H304	H	0.187495	-0.040129	-0.213928
	H305	H	0.169407	-0.038734	-0.196562
	O306	O	0.835930	-0.130736	-0.047517
	H307	H	0.848636	-0.132802	-0.057100
	H308	H	0.822120	-0.139390	-0.051391
	O309	O	0.844134	0.796419	0.881444
	H310	H	0.844780	0.812788	0.885449
	H311	H	0.860459	0.799652	0.896761
	O312	O	0.607074	0.406725	0.615176
	H313	H	0.603899	0.412191	0.599094
	H314	H	0.614511	0.396820	0.604619
	O315	O	0.874006	1.209855	-0.205115
	H316	H	0.847916	1.202438	-0.205517
	H317	H	0.877359	1.234127	-0.230223
	O318	O	0.817750	1.152623	0.200025
	H319	H	0.833333	1.140919	0.196636
	H320	H	0.814492	1.143674	0.194984
	O321	O	-0.224639	1.011454	1.004739
	H322	H	-0.223342	1.011024	1.009788
	H323	H	-0.222437	1.010335	1.016286
	O324	O	0.915373	0.119143	1.029804
	H325	H	0.911339	0.106601	1.026233
	H326	H	0.921236	0.111940	1.026930
	O327	O	1.255307	0.702350	0.489526
	H328	H	1.244350	0.716244	0.485704
	H329	H	1.267458	0.710878	0.499248
	O330	O	0.624475	0.646495	0.327455
	H331	H	0.620202	0.634509	0.326646
	H332	H	0.615381	0.641976	0.331764
	O333	O	0.663100	0.452381	0.362042
	H334	H	0.663420	0.434420	0.354737
	H335	H	0.674172	0.434465	0.352244
	O336	O	0.760038	0.793792	0.192265
	H337	H	0.776562	0.795911	0.184278
	H338	H	0.755447	0.778319	0.187468
	O339	O	0.627564	0.438468	0.697602
	H340	H	0.603524	0.450320	0.683000
	H341	H	0.629058	0.441874	0.687506
	O342	O	0.140015	0.903446	0.044489
	H343	H	0.156033	0.901423	0.031506
	H344	H	0.143276	0.913786	0.041404
	O345	O	-0.693504	0.668069	0.684385
	H346	H	-0.689232	0.655235	0.675538
	H347	H	-0.675672	0.661125	0.669551
	O348	O	0.279958	0.486280	0.700655
	H349	H	0.259179	0.474146	0.699258
	H350	H	0.289135	0.476012	0.699700
	O351	O	0.248284	0.480454	0.492769
	H352	H	0.252659	0.495889	0.490851
	H353	H	0.236697	0.483555	0.471675
	O354	O	0.561148	0.632786	1.559240
	H355	H	0.565452	0.638031	1.549420
	H356	H	0.556773	0.645390	1.560579
	O357	O	0.595132	0.471804	0.478869
	H358	H	0.601841	0.474652	0.495080
	H359	H	0.585919	0.483277	0.465952
	O360	O	0.666950	0.299790	0.315919
	H361	H	0.666195	0.294634	0.310641
	H362	H	0.648904	0.291580	0.331062
	O363	O	1.045884	1.199876	1.074732
	H364	H	1.055455	1.211743	1.047097
	H365	H	1.021953	1.201893	1.087634
	O366	O	1.111640	-0.030067	0.957584
	H367	H	1.110490	-0.029047	0.975193
	H368	H	1.110565	-0.012097	0.953474
	O369	O	0.173328	-0.208190	0.806044
	H370	H	0.177376	-0.226861	0.795258
	H371	H	0.177594	-0.184385	0.813800
	O372	O	-0.007530	0.206324	0.220339
	H373	H	-0.009725	0.206727	0.214225
	H374	H	-0.020273	0.224682	0.229369
	O375	O	0.893082	-0.095731	0.036232
	H376	H	0.892147	-0.088377	0.043053
	H377	H	0.901804	-0.095514	0.029511
	O378	O	-0.074691	0.026354	1.199982
	H379	H	-0.080809	0.012997	1.199043
	H380	H	-0.065186	0.022329	1.202465
	O381	O	0.036957	0.883790	0.032164
	H382	H	0.052413	0.881925	0.026649
	H383	H	0.031706	0.884945	0.017536
	O384	O	0.066500	0.981638	0.026057
	H385	H	0.059298	0.969663	0.023201
	H386	H	0.075901	0.977783	0.020695
	O387	O	0.542202	0.357536	1.599539
	H388	H	0.529646	0.351081	1.595395
	H389	H	0.547454	0.356843	1.597443
	O390	O	0.638390	0.280961	0.505385
	H391	H	0.635190	0.278421	0.485208
	H392	H	0.634790	0.271413	0.517153
	O393	O	0.373177	-0.433632	-0.384464
	H394	H	0.376413	-0.418278	-0.374316
	H395	H	0.364100	-0.444393	-0.372035
	O396	O	0.353903	0.284699	0.639834
	H397	H	0.356302	0.282974	0.643200
	H398	H	0.337119	0.270220	0.646146
	O399	O	1.098049	1.103661	-0.085396
	H400	H	1.088851	1.094527	-0.077357
	H401	H	1.081730	1.105329	-0.092918
	O402	O	1.658907	-0.522080	1.713969
	H403	H	1.662860	-0.521886	1.711664
	H404	H	1.664575	-0.530065	1.702287
	O405	O	-0.005598	-0.226884	-0.202380
	H406	H	0.022398	-0.228667	-0.192808
	H407	H	-0.006162	-0.251647	-0.226521
	O408	O	1.183282	1.019987	1.231109
	H409	H	1.193641	1.022241	1.246566
	H410	H	1.188125	1.042965	1.232755
	O411	O	1.374092	1.368702	0.381694
	H412	H	1.369579	1.349816	0.364606
	H413	H	1.381843	1.377661	0.384403
	O414	O	0.184989	0.210543	0.042614
	H415	H	0.169493	0.211512	0.044747
	H416	H	0.202811	0.236067	0.037840
	O417	O	1.216947	0.233513	0.267291
	H418	H	1.217255	0.217757	0.267857
	H419	H	1.195036	0.234179	0.254886
	O420	O	1.017265	-0.090470	1.183789
	H421	H	1.006432	-0.083777	1.187415
	H422	H	1.037910	-0.088553	1.192429
	O423	O	0.463416	1.701513	-0.659682
	H424	H	0.471924	1.686363	-0.660637
	H425	H	0.464319	1.712404	-0.659520
	O426	O	0.133532	1.140382	-0.086860
	H427	H	0.117885	1.116835	-0.074690
	H428	H	0.119767	1.140219	-0.089801
	O429	O	1.045384	0.890145	1.029994
	H430	H	1.038279	0.890237	1.032203
	H431	H	1.055198	0.895083	1.034309
	O432	O	0.752983	-0.031488	1.224682
	H433	H	0.769517	-0.056780	1.209012
	H434	H	0.721073	-0.043517	1.256183
	O435	O	0.418306	0.352242	0.628606
	H436	H	0.416508	0.365681	0.629007
	H437	H	0.431442	0.331478	0.633783
	O438	O	0.372655	0.360511	0.479727
	H439	H	0.366106	0.368708	0.474086
	H440	H	0.370366	0.357696	0.486524
	O441	O	1.510404	0.398355	-0.664637
	H442	H	1.496527	0.383062	-0.669174
	H443	H	1.491248	0.408939	-0.672618
	O444	O	0.577103	0.440394	0.504968
	H445	H	0.575929	0.438732	0.501922
	H446	H	0.579454	0.443063	0.506780
	O447	O	0.453512	0.694363	0.605119
	H448	H	0.464754	0.688198	0.603678
	H449	H	0.462085	0.694572	0.621936
	O450	O	0.818250	0.098718	-0.086931
	H451	H	0.810449	0.089637	-0.081048
	H452	H	0.804925	0.097918	-0.106874
	O453	O	0.372847	0.387444	0.318360
	H454	H	0.358133	0.380241	0.324127
	H455	H	0.380449	0.395404	0.326835
	O456	O	-0.240126	1.138565	0.810135
	H457	H	-0.234113	1.143000	0.838530
	H458	H	-0.249517	1.125993	0.799735
	O459	O	0.942309	-0.046714	0.823743
	H460	H	0.951166	-0.048289	0.826967
	H461	H	0.937626	-0.045980	0.828360
	O462	O	0.255670	0.521007	0.297920
	H463	H	0.238301	0.524782	0.281132
	H464	H	0.261075	0.540864	0.295007
	O465	O	0.678847	0.707954	0.612974
	H466	H	0.676715	0.704499	0.619699
	H467	H	0.684052	0.715606	0.616047
	O468	O	-0.170303	0.981844	-0.125379
	H469	H	-0.173175	0.989950	-0.125822
	H470	H	-0.176701	0.977317	-0.119407
	O471	O	1.141549	0.769863	0.992261
	H472	H	1.158791	0.760462	1.005130
	H473	H	1.145100	0.772960	0.981309
	O474	O	0.753187	1.204368	-0.022383
	H475	H	0.760787	1.183905	-0.024946
	H476	H	0.724139	1.222457	-0.013146
	O477	O	0.278613	0.644312	0.340675
	H478	H	0.276485	0.643779	0.349020
	H479	H	0.310291	0.645861	0.343821
