data_Molecule from HDF5

_cell_length_a		16.146635
_cell_length_b		16.226198
_cell_length_c		16.420232
_cell_angle_alpha	89.963602
_cell_angle_beta	90.149393
_cell_angle_gamma	90.090523
_symmetry_space_group_name_H-M	'P 1'
_symmetry_Int_Tables_number		1

loop_
	_symmetry_equiv_pos_as_xyz
	x,y,z

loop_
	_atom_site_label
	_atom_site_type_symbol
	_atom_site_fract_x
	_atom_site_fract_y
	_atom_site_fract_z
	H0	H	0.406085	0.827665	0.716680
	H1	H	0.607057	0.153716	0.716993
	H2	H	0.607814	0.827702	0.285024
	H3	H	0.403764	0.152617	0.283944
	H4	H	0.718489	0.392917	0.837043
	H5	H	0.721659	0.588622	0.162607
	H6	H	0.292606	0.585914	0.836907
	H7	H	0.290252	0.390850	0.162734
	H8	H	0.840807	0.703346	0.401360
	H9	H	0.170441	0.702741	0.598088
	H10	H	0.840768	0.276243	0.597640
	H11	H	0.171093	0.277710	0.403416
	H12	H	0.842151	0.388813	0.715165
	H13	H	0.169524	0.591662	0.716454
	H14	H	0.841959	0.591076	0.283747
	H15	H	0.169827	0.389347	0.284873
	H16	H	0.406837	0.706375	0.838278
	H17	H	0.606836	0.706351	0.162075
	H18	H	0.603909	0.274579	0.838129
	H19	H	0.404447	0.272736	0.162438
	H20	H	0.717614	0.825265	0.405122
	H21	H	0.720498	0.154532	0.600080
	H22	H	0.294939	0.825158	0.596924
	H23	H	0.293374	0.155128	0.404309
	H24	H	0.904675	0.326859	0.215397
	H25	H	0.108462	0.653186	0.217072
	H26	H	0.106064	0.327978	0.783468
	H27	H	0.903757	0.653167	0.782436
	H28	H	0.220384	0.892325	0.338284
	H29	H	0.219660	0.087123	0.664050
	H30	H	0.790513	0.087684	0.338677
	H31	H	0.792361	0.891657	0.664600
	H32	H	0.341010	0.202089	0.904466
	H33	H	0.670332	0.203413	0.099457
	H34	H	0.341096	0.777372	0.097470
	H35	H	0.671507	0.778787	0.904993
	H36	H	0.342462	0.889543	0.215723
	H37	H	0.669361	0.092018	0.217421
	H38	H	0.342081	0.091879	0.784945
	H39	H	0.669708	0.889368	0.785919
	H40	H	0.905577	0.205332	0.338166
	H41	H	0.104999	0.206221	0.662871
	H42	H	0.104605	0.774960	0.337694
	H43	H	0.908329	0.774022	0.663277
	H44	H	0.215989	0.324378	0.903568
	H45	H	0.219212	0.654827	0.097311
	H46	H	0.793523	0.325294	0.095567
	H47	H	0.792949	0.655667	0.902489
	H48	H	0.414675	0.107325	0.592176
	H49	H	0.602653	0.872701	0.593045
	H50	H	0.597245	0.104921	0.416892
	H51	H	0.403938	0.868509	0.401589
	H52	H	0.597121	0.394278	0.115877
	H53	H	0.592065	0.583348	0.886543
	H54	H	0.413355	0.579004	0.114090
	H55	H	0.399213	0.391931	0.880307
	H56	H	0.122919	0.581462	0.404432
	H57	H	0.889811	0.571640	0.596259
	H58	H	0.123122	0.402076	0.595499
	H59	H	0.889048	0.398768	0.408527
	H60	H	0.124493	0.394732	0.594680
	H61	H	0.883661	0.588723	0.598680
	H62	H	0.124320	0.584157	0.408533
	H63	H	0.888122	0.399642	0.403786
	H64	H	0.416577	0.586897	0.116012
	H65	H	0.599862	0.590846	0.882298
	H66	H	0.602048	0.397484	0.116447
	H67	H	0.414674	0.408529	0.888970
	H68	H	0.603931	0.109822	0.404561
	H69	H	0.598551	0.872118	0.600499
	H70	H	0.410414	0.108600	0.595104
	H71	H	0.424462	0.875035	0.401865
	H72	H	0.914145	0.607933	0.095737
	H73	H	0.094268	0.375562	0.090695
	H74	H	0.091568	0.604288	0.911994
	H75	H	0.917740	0.373876	0.903907
	H76	H	0.100904	0.896111	0.616734
	H77	H	0.107388	0.089657	0.381123
	H78	H	0.925103	0.079667	0.612092
	H79	H	0.910259	0.888114	0.382202
	H80	H	0.625150	0.081465	0.903270
	H81	H	0.389725	0.074853	0.096634
	H82	H	0.624410	0.895677	0.095450
	H83	H	0.386155	0.892541	0.907303
	H84	H	0.623691	0.898982	0.092486
	H85	H	0.385457	0.086082	0.098921
	H86	H	0.624157	0.086041	0.910515
	H87	H	0.390829	0.900841	0.912877
	H88	H	0.912758	0.093385	0.619252
	H89	H	0.100841	0.073929	0.387346
	H90	H	0.098459	0.896729	0.615414
	H91	H	0.904505	0.904069	0.386000
	H92	H	0.105981	0.608968	0.910001
	H93	H	0.101712	0.372260	0.093018
	H94	H	0.917487	0.606533	0.093136
	H95	H	0.913323	0.374910	0.911395
	H96	H	0.414980	0.108375	0.597818
	H97	H	0.594239	0.874639	0.593558
	H98	H	0.589402	0.106126	0.404541
	H99	H	0.412255	0.876437	0.419243
	H100	H	0.596952	0.399413	0.114161
	H101	H	0.602835	0.579420	0.885122
	H102	H	0.407979	0.585368	0.117337
	H103	H	0.422153	0.386408	0.885538
	H104	H	0.122609	0.579845	0.409253
	H105	H	0.890430	0.583909	0.582334
	H106	H	0.122405	0.398488	0.589442
	H107	H	0.887769	0.395433	0.405757
	H108	H	0.912724	0.607107	0.091021
	H109	H	0.095126	0.371938	0.098751
	H110	H	0.095681	0.608754	0.898619
	H111	H	0.909342	0.371924	0.904362
	H112	H	0.098589	0.894269	0.616138
	H113	H	0.090174	0.088221	0.386946
	H114	H	0.906140	0.075346	0.615874
	H115	H	0.920348	0.899456	0.389167
	H116	H	0.621447	0.077628	0.910101
	H117	H	0.388768	0.083318	0.088160
	H118	H	0.624373	0.900070	0.096929
	H119	H	0.388519	0.902237	0.903162
	C120	C	0.384610	-0.000599	0.622913
	C121	C	0.627815	0.981495	0.623823
	C122	C	0.626410	-0.001508	0.380447
	C123	C	0.384401	0.981629	0.379349
	C124	C	0.627491	0.368210	0.008287
	C125	C	0.628177	0.612946	0.991892
	C126	C	0.383983	0.612182	0.008680
	C127	C	0.383030	0.367375	0.991861
	C128	C	0.014448	0.611183	0.378515
	C129	C	0.996816	0.610928	0.621446
	C130	C	0.014289	0.369065	0.621321
	C131	C	0.997312	0.368903	0.378276
	C132	C	0.885016	0.498794	0.121314
	C133	C	0.127257	0.481771	0.122585
	C134	C	0.126290	0.498707	0.878554
	C135	C	0.884109	0.481772	0.877786
	C136	C	0.128285	0.867416	0.508704
	C137	C	0.127848	0.112477	0.492543
	C138	C	0.884414	0.111893	0.508919
	C139	C	0.883707	0.867860	0.493136
	C140	C	0.514631	0.110902	0.879685
	C141	C	0.496792	0.111182	0.122913
	C142	C	0.515357	0.868991	0.122943
	C143	C	0.497308	0.869609	0.879756
	C144	C	0.386584	0.876184	0.678030
	C145	C	0.626802	0.104919	0.678869
	C146	C	0.626426	0.876060	0.323991
	C147	C	0.385099	0.104458	0.323375
	C148	C	0.681609	0.371428	0.885852
	C149	C	0.683877	0.609570	0.113986
	C150	C	0.329228	0.608394	0.885994
	C151	C	0.328062	0.370221	0.114288
	C152	C	0.890150	0.666082	0.381005
	C153	C	0.121165	0.665500	0.618616
	C154	C	0.890252	0.313808	0.618309
	C155	C	0.121430	0.314383	0.381768
	C156	C	0.890856	0.369746	0.676790
	C157	C	0.120433	0.610703	0.677801
	C158	C	0.890617	0.610321	0.322464
	C159	C	0.120851	0.370132	0.322977
	C160	C	0.386266	0.667745	0.886522
	C161	C	0.626785	0.668021	0.113856
	C162	C	0.624775	0.312303	0.886559
	C163	C	0.385125	0.311606	0.114210
	C164	C	0.681192	0.874785	0.383806
	C165	C	0.682924	0.105267	0.620670
	C166	C	0.331188	0.875042	0.618585
	C167	C	0.330269	0.105605	0.383150
	C168	C	0.885310	0.375708	0.177030
	C169	C	0.127095	0.604724	0.178185
	C170	C	0.125015	0.376030	0.822534
	C171	C	0.884693	0.604719	0.821343
	C172	C	0.182907	0.871041	0.386735
	C173	C	0.182198	0.108740	0.615131
	C174	C	0.828074	0.109081	0.387031
	C175	C	0.829918	0.870953	0.615700
	C176	C	0.390413	0.165292	0.883019
	C177	C	0.620839	0.166490	0.120544
	C178	C	0.390789	0.814289	0.119022
	C179	C	0.621998	0.815688	0.883955
	C180	C	0.391311	0.870105	0.177751
	C181	C	0.620473	0.110780	0.178911
	C182	C	0.391139	0.110366	0.823781
	C183	C	0.621062	0.870752	0.824729
	C184	C	0.885376	0.167325	0.386810
	C185	C	0.125563	0.168269	0.614343
	C186	C	0.125195	0.812764	0.386484
	C187	C	0.887193	0.812134	0.614920
	C188	C	0.180051	0.374457	0.882095
	C189	C	0.182360	0.605328	0.118700
	C190	C	0.829960	0.374981	0.117466
	C191	C	0.829636	0.605906	0.881207
	C192	C	0.406876	0.085798	0.601490
	C193	C	0.605112	0.895450	0.602171
	C194	C	0.603530	0.084598	0.402431
	C195	C	0.406963	0.895474	0.401077
	C196	C	0.605360	0.390550	0.093441
	C197	C	0.605138	0.591043	0.906741
	C198	C	0.406065	0.590062	0.093787
	C199	C	0.405443	0.389219	0.906870
	C200	C	0.100828	0.588470	0.400895
	C201	C	0.910426	0.588065	0.599219
	C202	C	0.100925	0.391822	0.599670
	C203	C	0.910751	0.391342	0.399847
	C204	C	0.908107	0.584896	0.099659
	C205	C	0.104009	0.395437	0.100688
	C206	C	0.104177	0.585023	0.900547
	C207	C	0.906860	0.395967	0.899975
	C208	C	0.106060	0.889430	0.594138
	C209	C	0.105779	0.090378	0.407158
	C210	C	0.907781	0.089580	0.593719
	C211	C	0.905349	0.890551	0.407871
	C212	C	0.601235	0.088187	0.901584
	C213	C	0.410354	0.088104	0.101062
	C214	C	0.601841	0.891730	0.101356
	C215	C	0.410740	0.891947	0.901480
	Zn216	Zn	0.506456	-0.009440	0.751568
	Zn217	Zn	0.506104	-0.009718	0.251056
	Zn218	Zn	0.756679	0.490436	-0.000467
	Zn219	Zn	0.254242	0.489372	-0.000049
	Zn220	Zn	0.005781	0.738319	0.500089
	Zn221	Zn	0.005698	0.241818	0.500022
	Zn222	Zn	0.005678	0.490412	0.749156
	Zn223	Zn	0.005656	0.490604	0.250343
	Zn224	Zn	0.506049	0.741953	0.000823
	Zn225	Zn	0.505782	0.238503	0.001446
	Zn226	Zn	0.754487	-0.009628	0.501557
	Zn227	Zn	0.257145	-0.009706	0.500791
	N228	N	0.419258	0.954453	0.680755
	N229	N	0.593354	0.026892	0.681223
	N230	N	0.593128	0.954095	0.321863
	N231	N	0.418103	0.026407	0.320906
	N232	N	0.683454	0.405267	0.962582
	N233	N	0.684749	0.575815	0.037123
	N234	N	0.327860	0.574428	0.962683
	N235	N	0.326737	0.404114	0.037481
	N236	N	0.968099	0.666692	0.415242
	N237	N	0.043395	0.666016	0.584440
	N238	N	0.968060	0.313455	0.584559
	N239	N	0.043675	0.313526	0.415384
	N240	N	0.969070	0.403630	0.678599
	N241	N	0.042160	0.577123	0.679381
	N242	N	0.968813	0.577045	0.320709
	N243	N	0.042462	0.403416	0.320676
	N244	N	0.419457	0.670488	0.963770
	N245	N	0.592720	0.670016	0.037080
	N246	N	0.591646	0.310398	0.963749
	N247	N	0.418678	0.309537	0.037202
	N248	N	0.681260	0.952018	0.418184
	N249	N	0.683550	0.027815	0.587006
	N250	N	0.329912	0.952706	0.585162
	N251	N	0.329610	0.028113	0.416949
	N252	N	0.918974	0.453686	0.179426
	N253	N	0.093664	0.526735	0.180623
	N254	N	0.092291	0.454252	0.820143
	N255	N	0.917972	0.526576	0.818894
	N256	N	0.184874	0.904147	0.463820
	N257	N	0.183841	0.075014	0.538471
	N258	N	0.827352	0.075275	0.463945
	N259	N	0.827560	0.904839	0.538913
	N260	N	0.468108	0.165742	0.917269
	N261	N	0.543032	0.166913	0.086320
	N262	N	0.468730	0.813427	0.085722
	N263	N	0.543967	0.814789	0.917303
	N264	N	0.469764	0.903317	0.180307
	N265	N	0.542295	0.077168	0.180615
	N266	N	0.469531	0.077056	0.821826
	N267	N	0.542553	0.903657	0.821933
	N268	N	0.919706	0.169200	0.463415
	N269	N	0.092303	0.170473	0.536958
	N270	N	0.091760	0.810649	0.463439
	N271	N	0.919952	0.810177	0.537610
	N272	N	0.180789	0.451849	0.916282
	N273	N	0.182524	0.527720	0.084782
	N274	N	0.829609	0.452502	0.083493
	N275	N	0.829251	0.528581	0.915587
	O276	O	0.955827	1.043874	0.031930
	H277	H	0.944584	1.040565	0.031637
	H278	H	0.944965	1.041208	0.030259
	O279	O	0.069083	-0.025897	-0.034121
	H280	H	0.058451	-0.022145	-0.023976
	H281	H	0.068133	-0.016717	-0.035401
	O282	O	-0.033415	-0.041392	1.007411
	H283	H	-0.032347	-0.043382	1.009322
	H284	H	-0.038140	-0.041610	1.005030
	O285	O	0.043293	1.044096	0.040636
	H286	H	0.050489	1.038458	0.045242
	H287	H	0.049637	1.043450	0.051898
	O288	O	0.554525	0.507787	0.494543
	H289	H	0.560258	0.513521	0.492006
	H290	H	0.558144	0.514328	0.490118
	O291	O	0.557049	0.548244	0.477769
	H292	H	0.552024	0.545307	0.477816
	H293	H	0.549625	0.547355	0.471822
	O294	O	-0.519290	0.522883	0.454318
	H295	H	-0.522627	0.519246	0.453049
	H296	H	-0.522363	0.525264	0.451303
	O297	O	0.519923	0.479777	0.447557
	H298	H	0.519436	0.478783	0.450323
	H299	H	0.523404	0.475517	0.448389
	O300	O	-0.034817	0.986842	0.994845
	H301	H	-0.026299	0.989775	0.987958
	H302	H	-0.038596	0.979500	0.998754
	O303	O	0.502968	0.530667	0.459971
	H304	H	0.500578	0.527959	0.463656
	H305	H	0.499452	0.533013	0.451758
	O306	O	0.550540	-0.480917	1.469196
	H307	H	0.553279	-0.464657	1.470536
	H308	H	0.549503	-0.485167	1.473649
	O309	O	0.988764	1.025990	1.015706
	H310	H	0.997365	1.029628	1.018328
	H311	H	0.985202	1.033206	1.013594
	O312	O	-0.019840	0.980581	0.004745
	H313	H	-0.024107	0.979941	0.004178
	H314	H	-0.024072	0.986045	0.005092
	O315	O	0.521241	0.478395	0.496377
	H316	H	0.533574	0.479457	0.508964
	H317	H	0.526003	0.477335	0.497811
	O318	O	0.083816	0.998645	-0.007895
	H319	H	0.089743	1.004665	-0.017099
	H320	H	0.088471	0.997643	-0.005736
	O321	O	1.038130	1.032915	0.005806
	H322	H	1.045735	1.030768	-0.003965
	H323	H	1.050484	1.030809	0.009668
