data_Molecule from HDF5

_cell_length_a		16.242602
_cell_length_b		16.148042
_cell_length_c		16.339772
_cell_angle_alpha	89.954886
_cell_angle_beta	89.765621
_cell_angle_gamma	90.117101
_symmetry_space_group_name_H-M	'P 1'
_symmetry_Int_Tables_number		1

loop_
	_symmetry_equiv_pos_as_xyz
	x,y,z

loop_
	_atom_site_label
	_atom_site_type_symbol
	_atom_site_fract_x
	_atom_site_fract_y
	_atom_site_fract_z
	H0	H	0.402542	0.843483	0.704369
	H1	H	0.603405	0.171273	0.703921
	H2	H	0.602327	0.842886	0.274069
	H3	H	0.401821	0.170645	0.272663
	H4	H	0.720590	0.408104	0.826833
	H5	H	0.717136	0.606359	0.152587
	H6	H	0.287195	0.608371	0.826213
	H7	H	0.286902	0.406751	0.151045
	H8	H	0.837151	0.720200	0.394195
	H9	H	0.166191	0.723211	0.587399
	H10	H	0.838566	0.292532	0.588254
	H11	H	0.166393	0.295067	0.388987
	H12	H	0.839536	0.407438	0.706606
	H13	H	0.166088	0.609617	0.705286
	H14	H	0.839163	0.609661	0.273333
	H15	H	0.165299	0.407634	0.273507
	H16	H	0.406258	0.721432	0.824731
	H17	H	0.602086	0.722296	0.151936
	H18	H	0.602812	0.292936	0.825850
	H19	H	0.404111	0.293801	0.152410
	H20	H	0.715566	0.842531	0.390425
	H21	H	0.714960	0.172823	0.585107
	H22	H	0.289087	0.843203	0.588348
	H23	H	0.290058	0.171862	0.390395
	H24	H	0.901837	0.343517	0.205495
	H25	H	0.100557	0.672239	0.202594
	H26	H	0.104187	0.344255	0.772257
	H27	H	0.904055	0.671948	0.775705
	H28	H	0.218664	0.908996	0.326779
	H29	H	0.218493	0.108016	0.651775
	H30	H	0.789115	0.106571	0.325613
	H31	H	0.785745	0.907683	0.650892
	H32	H	0.338810	0.221441	0.891889
	H33	H	0.667105	0.221129	0.085602
	H34	H	0.339214	0.792431	0.085965
	H35	H	0.667908	0.795793	0.891645
	H36	H	0.339666	0.906008	0.204329
	H37	H	0.666973	0.106416	0.202264
	H38	H	0.339488	0.108193	0.773409
	H39	H	0.666099	0.906653	0.772442
	H40	H	0.906946	0.220867	0.324866
	H41	H	0.100480	0.222245	0.651904
	H42	H	0.100774	0.794024	0.326338
	H43	H	0.904713	0.796135	0.652927
	H44	H	0.216920	0.342546	0.890180
	H45	H	0.217353	0.671705	0.087103
	H46	H	0.788379	0.342924	0.089887
	H47	H	0.792198	0.672873	0.892839
	H48	H	0.416232	0.123158	0.579423
	H49	H	0.593606	0.889894	0.582182
	H50	H	0.601815	0.130827	0.383016
	H51	H	0.412779	0.888433	0.391625
	H52	H	0.593737	0.418974	0.103144
	H53	H	0.603916	0.601806	0.870964
	H54	H	0.407510	0.611779	0.109299
	H55	H	0.406836	0.419770	0.872872
	H56	H	0.120810	0.600792	0.389236
	H57	H	0.882775	0.604450	0.588966
	H58	H	0.114085	0.428040	0.576794
	H59	H	0.884571	0.410643	0.397345
	H60	H	0.123232	0.415537	0.594583
	H61	H	0.886452	0.603833	0.579070
	H62	H	0.119850	0.606189	0.398111
	H63	H	0.886670	0.418213	0.400557
	H64	H	0.400034	0.589673	0.104807
	H65	H	0.598053	0.595809	0.874694
	H66	H	0.593039	0.410470	0.105691
	H67	H	0.416009	0.414535	0.874653
	H68	H	0.581320	0.121773	0.393927
	H69	H	0.595238	0.889600	0.580443
	H70	H	0.406589	0.126556	0.578398
	H71	H	0.414611	0.892034	0.400402
	H72	H	0.908543	0.625268	0.081679
	H73	H	0.091783	0.389654	0.085037
	H74	H	0.095886	0.627048	0.890277
	H75	H	0.906446	0.389518	0.904710
	H76	H	0.094910	0.908616	0.607725
	H77	H	0.092718	0.098794	0.374139
	H78	H	0.910928	0.093328	0.601874
	H79	H	0.910296	0.916737	0.372969
	H80	H	0.618617	0.103937	0.901765
	H81	H	0.385891	0.091843	0.092181
	H82	H	0.622488	0.911651	0.087252
	H83	H	0.383911	0.910943	0.891433
	H84	H	0.619689	0.911973	0.076342
	H85	H	0.381490	0.111261	0.084422
	H86	H	0.617741	0.091517	0.895024
	H87	H	0.386200	0.911670	0.901501
	H88	H	0.913497	0.106241	0.605510
	H89	H	0.098916	0.106191	0.370655
	H90	H	0.103630	0.918740	0.607060
	H91	H	0.910945	0.909819	0.371547
	H92	H	0.091109	0.623181	0.900960
	H93	H	0.095005	0.390679	0.079611
	H94	H	0.910120	0.625904	0.084920
	H95	H	0.908549	0.386951	0.890088
	H96	H	0.410991	0.127125	0.587446
	H97	H	0.595901	0.888505	0.582084
	H98	H	0.603112	0.123751	0.406340
	H99	H	0.405963	0.888104	0.397997
	H100	H	0.601529	0.414806	0.107141
	H101	H	0.594989	0.604604	0.872913
	H102	H	0.422372	0.596488	0.099760
	H103	H	0.408094	0.409108	0.869207
	H104	H	0.117126	0.595987	0.398436
	H105	H	0.886594	0.595459	0.585580
	H106	H	0.120662	0.405672	0.574240
	H107	H	0.884861	0.417030	0.392578
	H108	H	0.912482	0.624649	0.082213
	H109	H	0.098001	0.387947	0.084892
	H110	H	0.102469	0.625331	0.900014
	H111	H	0.919401	0.392884	0.898168
	H112	H	0.090837	0.920127	0.602651
	H113	H	0.102538	0.096079	0.372562
	H114	H	0.901082	0.101279	0.607728
	H115	H	0.904148	0.913083	0.369462
	H116	H	0.622429	0.103335	0.889238
	H117	H	0.390008	0.095913	0.072249
	H118	H	0.619180	0.921154	0.083243
	H119	H	0.387775	0.920515	0.895679
	C120	C	0.382252	0.016636	0.610374
	C121	C	0.623712	0.998495	0.609673
	C122	C	0.624203	0.016570	0.366642
	C123	C	0.382262	0.998341	0.367847
	C124	C	0.626043	0.385620	-0.002085
	C125	C	0.626247	0.629577	0.980526
	C126	C	0.381992	0.628744	-0.003219
	C127	C	0.381087	0.385087	0.979868
	C128	C	0.010482	0.629707	0.367730
	C129	C	0.993781	0.630069	0.612281
	C130	C	0.011086	0.386743	0.610932
	C131	C	0.993510	0.386624	0.367759
	C132	C	0.881066	0.516389	0.111925
	C133	C	0.123413	0.498558	0.110664
	C134	C	0.125063	0.516390	0.867789
	C135	C	0.883051	0.498830	0.869307
	C136	C	0.125200	0.886239	0.498171
	C137	C	0.125913	0.129665	0.480211
	C138	C	0.881265	0.128939	0.496997
	C139	C	0.879972	0.885498	0.479759
	C140	C	0.511265	0.128940	0.867089
	C141	C	0.494394	0.128758	0.110781
	C142	C	0.512152	0.885283	0.110657
	C143	C	0.494339	0.885680	0.867461
	C144	C	0.383293	0.892494	0.665829
	C145	C	0.622337	0.122270	0.665282
	C146	C	0.622424	0.892235	0.311766
	C147	C	0.383180	0.121880	0.311526
	C148	C	0.682160	0.387663	0.875336
	C149	C	0.680414	0.627171	0.103491
	C150	C	0.326375	0.627510	0.874567
	C151	C	0.325312	0.386966	0.102464
	C152	C	0.886566	0.683460	0.372297
	C153	C	0.117381	0.685340	0.608299
	C154	C	0.887682	0.331039	0.608365
	C155	C	0.117077	0.332042	0.369211
	C156	C	0.888066	0.387668	0.667439
	C157	C	0.117165	0.629107	0.667194
	C158	C	0.887696	0.628368	0.312504
	C159	C	0.116610	0.388503	0.311859
	C160	C	0.385653	0.683799	0.873994
	C161	C	0.622885	0.684708	0.103127
	C162	C	0.623596	0.330567	0.874918
	C163	C	0.383551	0.330741	0.103047
	C164	C	0.678583	0.891981	0.369673
	C165	C	0.678168	0.123025	0.606311
	C166	C	0.326753	0.892462	0.608214
	C167	C	0.327191	0.122383	0.369975
	C168	C	0.882508	0.392580	0.167401
	C169	C	0.121212	0.623009	0.165229
	C170	C	0.123293	0.392857	0.811534
	C171	C	0.884295	0.622937	0.813942
	C172	C	0.180568	0.888172	0.375336
	C173	C	0.180604	0.127931	0.603041
	C174	C	0.826978	0.126922	0.374146
	C175	C	0.824373	0.887979	0.602445
	C176	C	0.387907	0.183790	0.870819
	C177	C	0.617958	0.183643	0.106756
	C178	C	0.388265	0.829885	0.107192
	C179	C	0.618598	0.832366	0.870438
	C180	C	0.388445	0.886218	0.166048
	C181	C	0.617669	0.126881	0.165179
	C182	C	0.388191	0.127594	0.812108
	C183	C	0.617596	0.887511	0.811396
	C184	C	0.885648	0.183758	0.373949
	C185	C	0.122024	0.184763	0.603006
	C186	C	0.121576	0.831464	0.375163
	C187	C	0.883594	0.832391	0.603607
	C188	C	0.179580	0.392096	0.869970
	C189	C	0.179141	0.622638	0.107828
	C190	C	0.825891	0.392331	0.109959
	C191	C	0.828848	0.623218	0.872182
	C192	C	0.404844	0.103232	0.588374
	C193	C	0.601459	0.911669	0.588006
	C194	C	0.602054	0.102910	0.388092
	C195	C	0.404632	0.911907	0.390324
	C196	C	0.602954	0.408063	0.083125
	C197	C	0.605239	0.607204	0.894919
	C198	C	0.403527	0.606004	0.082460
	C199	C	0.403818	0.407708	0.894337
	C200	C	0.097021	0.607514	0.389142
	C201	C	0.907733	0.607604	0.591009
	C202	C	0.096878	0.409662	0.588574
	C203	C	0.907654	0.408772	0.390401
	C204	C	0.903796	0.603062	0.089423
	C205	C	0.101522	0.411825	0.089333
	C206	C	0.103051	0.602850	0.890449
	C207	C	0.905038	0.412148	0.891220
	C208	C	0.103141	0.908994	0.583591
	C209	C	0.104432	0.107311	0.394521
	C210	C	0.902357	0.106855	0.582895
	C211	C	0.902027	0.906921	0.393633
	C212	C	0.597455	0.106287	0.888963
	C213	C	0.407996	0.106242	0.089261
	C214	C	0.598007	0.908207	0.088880
	C215	C	0.408290	0.907749	0.889483
	Zn216	Zn	0.502499	0.007168	0.738931
	Zn217	Zn	0.502861	0.007036	0.239251
	Zn218	Zn	0.754950	0.507665	-0.010248
	Zn219	Zn	0.252733	0.506848	-0.010958
	Zn220	Zn	0.001979	0.757998	0.489612
	Zn221	Zn	0.003123	0.258135	0.488190
	Zn222	Zn	0.003062	0.508454	0.740835
	Zn223	Zn	0.002197	0.507658	0.239474
	Zn224	Zn	0.504245	0.757634	-0.011822
	Zn225	Zn	0.502733	0.257333	-0.010913
	Zn226	Zn	0.751826	0.007935	0.488047
	Zn227	Zn	0.254713	0.007772	0.489369
	N228	N	0.417138	0.970655	0.667219
	N229	N	0.589230	0.043771	0.667682
	N230	N	0.589235	0.970505	0.309631
	N231	N	0.416595	0.043783	0.309977
	N232	N	0.683610	0.421117	0.952582
	N233	N	0.682722	0.593397	0.026190
	N234	N	0.323884	0.593968	0.951981
	N235	N	0.323563	0.420063	0.024892
	N236	N	0.964233	0.684531	0.405983
	N237	N	0.039712	0.686265	0.575011
	N238	N	0.965127	0.330182	0.574075
	N239	N	0.039730	0.330872	0.403622
	N240	N	0.965766	0.421692	0.669205
	N241	N	0.039344	0.595337	0.669699
	N242	N	0.965854	0.595704	0.309687
	N243	N	0.038674	0.421771	0.310616
	N244	N	0.419553	0.684612	0.951044
	N245	N	0.590076	0.686387	0.025753
	N246	N	0.589353	0.328979	0.952099
	N247	N	0.417673	0.329470	0.025826
	N248	N	0.679991	0.970189	0.402969
	N249	N	0.678927	0.045123	0.572229
	N250	N	0.325736	0.970685	0.574505
	N251	N	0.326849	0.044648	0.404643
	N252	N	0.915858	0.470912	0.168944
	N253	N	0.087543	0.544805	0.167223
	N254	N	0.090159	0.471126	0.809991
	N255	N	0.917404	0.544662	0.812014
	N256	N	0.182868	0.921466	0.452708
	N257	N	0.183284	0.094502	0.525558
	N258	N	0.823921	0.093989	0.451717
	N259	N	0.822085	0.920364	0.524559
	N260	N	0.465538	0.184692	0.904374
	N261	N	0.540175	0.184702	0.073588
	N262	N	0.466004	0.829212	0.073556
	N263	N	0.541067	0.831254	0.904652
	N264	N	0.466259	0.919962	0.168401
	N265	N	0.539703	0.093383	0.167534
	N266	N	0.465947	0.094187	0.809728
	N267	N	0.539416	0.920173	0.809415
	N268	N	0.918527	0.185194	0.451355
	N269	N	0.088913	0.186119	0.525703
	N270	N	0.088054	0.829930	0.452613
	N271	N	0.917366	0.830695	0.526245
	N272	N	0.180835	0.469951	0.904146
	N273	N	0.180720	0.544374	0.074697
	N274	N	0.825046	0.470355	0.076172
	N275	N	0.827883	0.545011	0.905975
	O276	O	0.070277	0.013969	0.017820
	H277	H	0.081079	0.021768	0.014728
	H278	H	0.069646	0.020361	0.017053
	O279	O	0.437479	0.504862	0.460938
	H280	H	0.439770	0.509599	0.451876
	H281	H	0.439080	0.510219	0.456323
	O282	O	0.433559	0.550782	0.402322
	H283	H	0.437064	0.560315	0.407591
	H284	H	0.436139	0.539456	0.397107
	O285	O	0.901161	-0.034837	0.969156
	H286	H	0.903742	-0.033046	0.968650
	H287	H	0.897012	-0.042873	0.968893
	O288	O	1.021401	-0.006509	-0.020616
	H289	H	1.017463	-0.014095	-0.037977
	H290	H	1.025813	-0.016961	-0.018976
	O291	O	0.590107	0.427439	0.448969
	H292	H	0.578085	0.416310	0.459367
	H293	H	0.602298	0.414022	0.433564
	O294	O	1.004814	-0.024637	1.032569
	H295	H	1.012068	-0.022046	1.040153
	H296	H	1.006760	-0.025240	1.033422
	O297	O	-0.047932	-0.014508	-0.057597
	H298	H	-0.041186	-0.011810	-0.057130
	H299	H	-0.051525	-0.010882	-0.053607
	O300	O	0.499152	0.511651	0.389123
	H301	H	0.493184	0.500218	0.393676
	H302	H	0.501753	0.509070	0.390807
	O303	O	0.561187	0.478698	0.599518
	H304	H	0.555278	0.469785	0.596426
	H305	H	0.557291	0.486665	0.591572
	O306	O	1.034736	0.046311	0.038030
	H307	H	1.037663	0.046359	0.034055
	H308	H	1.028771	0.051640	0.037820
	O309	O	0.006083	0.092583	0.975379
	H310	H	0.004090	0.081550	0.981026
	H311	H	0.006917	0.089941	0.978744
	O312	O	1.426186	0.605336	1.443328
	H313	H	1.428034	0.611849	1.435437
	H314	H	1.415349	0.595973	1.441408
	O315	O	0.511907	0.449282	0.453522
	H316	H	0.518345	0.449542	0.456589
	H317	H	0.514076	0.442516	0.457568
	O318	O	0.623556	0.536284	0.500937
	H319	H	0.629509	0.546445	0.516729
	H320	H	0.617571	0.534473	0.498865
	O321	O	-0.054161	1.029229	1.029027
	H322	H	-0.063004	1.026678	1.031895
	H323	H	-0.053250	1.021691	1.026700
	O324	O	0.403308	0.558750	0.427774
	H325	H	0.408531	0.561860	0.424022
	H326	H	0.404307	0.558823	0.426407
	O327	O	0.501581	0.564566	0.460197
	H328	H	0.490392	0.572758	0.472536
	H329	H	0.499267	0.564929	0.465477
	O330	O	0.479641	0.468899	0.499997
	H331	H	0.478536	0.483915	0.480968
	H332	H	0.485754	0.478076	0.511162
	O333	O	0.506018	0.564255	0.536183
	H334	H	0.513752	0.572919	0.548005
	H335	H	0.510490	0.556770	0.530322
	O336	O	0.426263	0.458492	0.542157
	H337	H	0.417698	0.444857	0.535450
	H338	H	0.418887	0.464896	0.538267
	O339	O	1.492376	0.490963	0.512513
	H340	H	1.495723	0.480624	0.519089
	H341	H	1.498564	0.490880	0.519793
	O342	O	0.564918	0.494307	0.466310
	H343	H	0.569406	0.501597	0.469274
	H344	H	0.570759	0.494951	0.468859
	O345	O	0.527661	0.458954	0.491997
	H346	H	0.533257	0.458323	0.496822
	H347	H	0.530199	0.469853	0.491002
	O348	O	-0.443177	0.482603	0.559963
	H349	H	-0.449613	0.471085	0.559814
	H350	H	-0.446048	0.506782	0.555785
	O351	O	0.041545	0.997758	0.914599
	H352	H	0.042595	1.000494	0.909021
	H353	H	0.037122	1.002795	0.917862
	O354	O	0.359403	0.507392	0.560370
	H355	H	0.350244	0.502040	0.565650
	H356	H	0.361812	0.492906	0.562483
	O357	O	0.012674	0.955401	0.946963
	H358	H	0.006938	0.954513	0.944482
	H359	H	0.015284	0.956907	0.955633
