data_Molecule from HDF5

_cell_length_a		16.359755
_cell_length_b		16.285621
_cell_length_c		16.238458
_cell_angle_alpha	90.263904
_cell_angle_beta	90.103353
_cell_angle_gamma	90.037682
_symmetry_space_group_name_H-M	'P 1'
_symmetry_Int_Tables_number		1

loop_
	_symmetry_equiv_pos_as_xyz
	x,y,z

loop_
	_atom_site_label
	_atom_site_type_symbol
	_atom_site_fract_x
	_atom_site_fract_y
	_atom_site_fract_z
	H0	H	0.398472	0.831517	0.712138
	H1	H	0.599824	0.156823	0.714717
	H2	H	0.600737	0.831294	0.281256
	H3	H	0.399938	0.156278	0.278638
	H4	H	0.714045	0.388706	0.831566
	H5	H	0.717102	0.595092	0.156830
	H6	H	0.281969	0.593904	0.833416
	H7	H	0.280051	0.390077	0.156889
	H8	H	0.839278	0.714099	0.392079
	H9	H	0.162746	0.712936	0.596576
	H10	H	0.838553	0.279010	0.593558
	H11	H	0.160951	0.276625	0.390419
	H12	H	0.838230	0.394732	0.710266
	H13	H	0.161197	0.599195	0.715408
	H14	H	0.837455	0.595261	0.278069
	H15	H	0.160015	0.392424	0.274672
	H16	H	0.396972	0.709023	0.834135
	H17	H	0.599806	0.707581	0.158671
	H18	H	0.596144	0.276029	0.832258
	H19	H	0.397073	0.276182	0.158076
	H20	H	0.718043	0.832964	0.395238
	H21	H	0.715806	0.157986	0.599126
	H22	H	0.277290	0.835625	0.601854
	H23	H	0.283199	0.156516	0.393066
	H24	H	0.897560	0.331596	0.210627
	H25	H	0.100287	0.655570	0.212442
	H26	H	0.100233	0.333038	0.775496
	H27	H	0.901011	0.657885	0.781950
	H28	H	0.219249	0.892900	0.333709
	H29	H	0.219771	0.103304	0.656862
	H30	H	0.782289	0.095292	0.333571
	H31	H	0.786850	0.896496	0.659557
	H32	H	0.338824	0.210542	0.892097
	H33	H	0.660121	0.212835	0.099347
	H34	H	0.336776	0.774943	0.100072
	H35	H	0.659664	0.774776	0.896106
	H36	H	0.338758	0.891309	0.216232
	H37	H	0.663162	0.094058	0.211835
	H38	H	0.339686	0.095853	0.777917
	H39	H	0.660854	0.889876	0.779280
	H40	H	0.899758	0.208862	0.331573
	H41	H	0.101585	0.215267	0.657060
	H42	H	0.103365	0.777253	0.332252
	H43	H	0.901068	0.779712	0.657926
	H44	H	0.216649	0.332798	0.888866
	H45	H	0.218916	0.654203	0.099911
	H46	H	0.782561	0.330766	0.094984
	H47	H	0.778884	0.654232	0.891261
	H48	H	0.418729	0.104405	0.582258
	H49	H	0.591447	0.880632	0.585330
	H50	H	0.600885	0.112040	0.408280
	H51	H	0.409786	0.881911	0.411981
	H52	H	0.587494	0.401698	0.110595
	H53	H	0.595010	0.584595	0.876988
	H54	H	0.405766	0.589665	0.114566
	H55	H	0.404772	0.400739	0.877943
	H56	H	0.113924	0.585404	0.405737
	H57	H	0.886025	0.592442	0.580021
	H58	H	0.113972	0.403736	0.577518
	H59	H	0.882326	0.399323	0.397115
	H60	H	0.113860	0.413015	0.587344
	H61	H	0.887663	0.580969	0.586679
	H62	H	0.114150	0.583020	0.402764
	H63	H	0.883828	0.397380	0.406652
	H64	H	0.401633	0.576520	0.112527
	H65	H	0.587181	0.575954	0.882057
	H66	H	0.593065	0.400549	0.112288
	H67	H	0.408347	0.404069	0.881024
	H68	H	0.590449	0.112343	0.396503
	H69	H	0.597691	0.877986	0.587276
	H70	H	0.401523	0.110438	0.582750
	H71	H	0.405962	0.878501	0.406549
	H72	H	0.904954	0.609867	0.085050
	H73	H	0.088037	0.379078	0.085398
	H74	H	0.082607	0.607773	0.906655
	H75	H	0.903670	0.378266	0.903537
	H76	H	0.089592	0.899848	0.611897
	H77	H	0.102235	0.080636	0.378498
	H78	H	0.913725	0.088492	0.610442
	H79	H	0.908423	0.900003	0.377979
	H80	H	0.611051	0.076700	0.912519
	H81	H	0.387509	0.077320	0.084836
	H82	H	0.616755	0.894144	0.089071
	H83	H	0.384968	0.901586	0.906506
	H84	H	0.611588	0.902379	0.083477
	H85	H	0.382856	0.083236	0.094988
	H86	H	0.617417	0.081295	0.897942
	H87	H	0.383756	0.902369	0.903428
	H88	H	0.906441	0.093005	0.614367
	H89	H	0.083771	0.078736	0.383985
	H90	H	0.094918	0.910883	0.610442
	H91	H	0.904529	0.906917	0.378701
	H92	H	0.096379	0.608658	0.913236
	H93	H	0.086858	0.379790	0.081399
	H94	H	0.908536	0.609271	0.086028
	H95	H	0.904918	0.375523	0.898100
	H96	H	0.412134	0.112853	0.597887
	H97	H	0.592253	0.878036	0.591705
	H98	H	0.587147	0.107144	0.410872
	H99	H	0.413689	0.879991	0.405085
	H100	H	0.592563	0.406185	0.109915
	H101	H	0.582667	0.588148	0.879576
	H102	H	0.415106	0.580329	0.108738
	H103	H	0.409861	0.398930	0.880122
	H104	H	0.115244	0.587046	0.402585
	H105	H	0.882372	0.592015	0.593623
	H106	H	0.117212	0.400248	0.589743
	H107	H	0.885541	0.406482	0.402886
	H108	H	0.907173	0.607539	0.082715
	H109	H	0.091238	0.378140	0.082275
	H110	H	0.093924	0.613139	0.899204
	H111	H	0.909472	0.378275	0.901160
	H112	H	0.083202	0.909279	0.606299
	H113	H	0.090805	0.096004	0.376573
	H114	H	0.906068	0.083739	0.611713
	H115	H	0.911911	0.905820	0.381313
	H116	H	0.616478	0.092408	0.909970
	H117	H	0.384572	0.089975	0.084346
	H118	H	0.614652	0.903741	0.093652
	H119	H	0.383255	0.899620	0.904880
	C120	C	0.378862	0.003062	0.618487
	C121	C	0.622642	0.986386	0.618850
	C122	C	0.622846	0.003232	0.375244
	C123	C	0.379821	0.986485	0.376033
	C124	C	0.620242	0.371469	0.003452
	C125	C	0.619785	0.613522	0.986802
	C126	C	0.376977	0.613542	0.004889
	C127	C	0.376941	0.370901	0.986860
	C128	C	0.007925	0.615867	0.373270
	C129	C	0.992591	0.617952	0.616713
	C130	C	0.008289	0.375197	0.614937
	C131	C	0.990607	0.371734	0.371419
	C132	C	0.877051	0.501789	0.115051
	C133	C	0.120335	0.485081	0.115492
	C134	C	0.120765	0.502863	0.873930
	C135	C	0.876308	0.484585	0.871776
	C136	C	0.121280	0.874940	0.503201
	C137	C	0.122564	0.117656	0.486626
	C138	C	0.878593	0.117161	0.504125
	C139	C	0.879088	0.874625	0.487000
	C140	C	0.508378	0.113637	0.875749
	C141	C	0.491750	0.114538	0.118138
	C142	C	0.507752	0.870083	0.119509
	C143	C	0.490611	0.871043	0.875196
	C144	C	0.378477	0.880911	0.674779
	C145	C	0.620586	0.108318	0.676483
	C146	C	0.621155	0.880567	0.318891
	C147	C	0.380467	0.107852	0.317608
	C148	C	0.676023	0.370358	0.880778
	C149	C	0.678090	0.614006	0.108447
	C150	C	0.320426	0.613477	0.882169
	C151	C	0.318932	0.370531	0.108340
	C152	C	0.887048	0.674505	0.373040
	C153	C	0.113978	0.675008	0.616387
	C154	C	0.886933	0.317694	0.613697
	C155	C	0.112369	0.314947	0.371002
	C156	C	0.886778	0.375378	0.671696
	C157	C	0.113419	0.618055	0.675346
	C158	C	0.886341	0.615657	0.315982
	C159	C	0.112007	0.372768	0.313621
	C160	C	0.377532	0.670669	0.882540
	C161	C	0.619612	0.669961	0.109427
	C162	C	0.617561	0.313856	0.881147
	C163	C	0.377358	0.314049	0.109130
	C164	C	0.679482	0.881214	0.375660
	C165	C	0.677919	0.109031	0.618458
	C166	C	0.318090	0.882947	0.619886
	C167	C	0.322279	0.108107	0.374519
	C168	C	0.877994	0.380028	0.172259
	C169	C	0.120072	0.606876	0.173878
	C170	C	0.119727	0.381383	0.814793
	C171	C	0.879034	0.608281	0.817934
	C172	C	0.180271	0.873575	0.381981
	C173	C	0.180828	0.120795	0.608301
	C174	C	0.821088	0.115161	0.381972
	C175	C	0.824164	0.876113	0.610364
	C176	C	0.387160	0.171579	0.874198
	C177	C	0.612339	0.173272	0.118573
	C178	C	0.386009	0.813225	0.119440
	C179	C	0.611609	0.813243	0.876081
	C180	C	0.386637	0.871365	0.177264
	C181	C	0.613762	0.114118	0.174552
	C182	C	0.387557	0.114388	0.817156
	C183	C	0.612464	0.870828	0.818266
	C184	C	0.879685	0.171669	0.380917
	C185	C	0.121992	0.176767	0.608291
	C186	C	0.122492	0.816184	0.381235
	C187	C	0.881045	0.818093	0.609363
	C188	C	0.177811	0.381110	0.871235
	C189	C	0.179007	0.606135	0.117759
	C190	C	0.820704	0.379541	0.114291
	C191	C	0.818699	0.606543	0.872619
	C192	C	0.403698	0.087370	0.594538
	C193	C	0.600196	0.900988	0.594941
	C194	C	0.599624	0.088479	0.398561
	C195	C	0.402978	0.902105	0.400841
	C196	C	0.597555	0.395659	0.088817
	C197	C	0.595484	0.589798	0.901528
	C198	C	0.400599	0.589284	0.089713
	C199	C	0.400605	0.394350	0.901717
	C200	C	0.092418	0.591991	0.396803
	C201	C	0.907398	0.595147	0.593408
	C202	C	0.092881	0.398886	0.591709
	C203	C	0.905912	0.394416	0.395300
	C204	C	0.900216	0.586804	0.091531
	C205	C	0.095817	0.400773	0.090441
	C206	C	0.097724	0.587678	0.899027
	C207	C	0.899225	0.399647	0.894169
	C208	C	0.096437	0.899758	0.587671
	C209	C	0.099133	0.092217	0.401762
	C210	C	0.901873	0.094969	0.589806
	C211	C	0.901562	0.897494	0.401598
	C212	C	0.593102	0.090180	0.899854
	C213	C	0.406978	0.090609	0.094807
	C214	C	0.592428	0.893181	0.095712
	C215	C	0.406057	0.894384	0.898182
	Zn216	Zn	0.500614	-0.006642	0.747063
	Zn217	Zn	0.501023	-0.006256	0.247265
	Zn218	Zn	0.748420	0.493045	-0.006318
	Zn219	Zn	0.249116	0.492540	-0.005160
	Zn220	Zn	0.000593	0.746369	0.494330
	Zn221	Zn	0.000582	0.245110	0.493982
	Zn222	Zn	-0.000057	0.495951	0.745721
	Zn223	Zn	-0.001189	0.493685	0.243613
	Zn224	Zn	0.498136	0.741549	-0.003517
	Zn225	Zn	0.498722	0.242669	-0.003694
	Zn226	Zn	0.750629	-0.004453	0.496991
	Zn227	Zn	0.250462	-0.003930	0.496328
	N228	N	0.415494	0.956685	0.674115
	N229	N	0.587047	0.030889	0.676977
	N230	N	0.586551	0.957512	0.318619
	N231	N	0.415577	0.031305	0.318401
	N232	N	0.677979	0.405438	0.958028
	N233	N	0.678379	0.579587	0.030927
	N234	N	0.319741	0.578839	0.959332
	N235	N	0.318665	0.405126	0.031235
	N236	N	0.963592	0.674809	0.407860
	N237	N	0.037711	0.674774	0.580482
	N238	N	0.963652	0.317397	0.579119
	N239	N	0.035956	0.314074	0.406138
	N240	N	0.963173	0.410627	0.672453
	N241	N	0.036859	0.583298	0.675641
	N242	N	0.962386	0.579815	0.316110
	N243	N	0.035361	0.407366	0.313926
	N244	N	0.411832	0.670984	0.959877
	N245	N	0.584006	0.669669	0.032693
	N246	N	0.583475	0.314590	0.958430
	N247	N	0.412675	0.314137	0.032406
	N248	N	0.680741	0.958479	0.409701
	N249	N	0.679481	0.031960	0.583517
	N250	N	0.317957	0.960055	0.585809
	N251	N	0.321714	0.031765	0.410278
	N252	N	0.912342	0.457142	0.172976
	N253	N	0.084076	0.530642	0.172493
	N254	N	0.084948	0.458121	0.816349
	N255	N	0.914089	0.531628	0.817126
	N256	N	0.179572	0.909564	0.458841
	N257	N	0.181193	0.084576	0.531586
	N258	N	0.820523	0.081964	0.459625
	N259	N	0.822804	0.910403	0.533227
	N260	N	0.463325	0.170998	0.910326
	N261	N	0.535538	0.173677	0.084276
	N262	N	0.462361	0.812411	0.084220
	N263	N	0.535116	0.813346	0.910861
	N264	N	0.463488	0.906022	0.177609
	N265	N	0.537587	0.078310	0.174556
	N266	N	0.463816	0.078808	0.818189
	N267	N	0.536116	0.905909	0.817192
	N268	N	0.914877	0.172953	0.457755
	N269	N	0.086283	0.174646	0.531719
	N270	N	0.086490	0.817140	0.457523
	N271	N	0.914378	0.816933	0.531670
	N272	N	0.178714	0.457751	0.907235
	N273	N	0.179562	0.529224	0.082454
	N274	N	0.820109	0.456259	0.079478
	N275	N	0.816607	0.528676	0.905038
	O276	O	0.004785	0.113973	0.054827
	H277	H	0.010093	0.093929	0.062891
	H278	H	-0.002533	0.120072	0.053178
	O279	O	0.507967	0.467361	0.317706
	H280	H	0.492527	0.474823	0.328698
	H281	H	0.504347	0.462414	0.309950
	O282	O	0.945327	-0.117785	0.072526
	H283	H	0.936573	-0.130192	0.079836
	H284	H	0.943056	-0.098989	0.074811
	O285	O	-0.069407	0.991451	-0.050255
	H286	H	-0.071121	1.005296	-0.062308
	H287	H	-0.079247	0.995316	-0.041145
	O288	O	1.119223	0.810844	-0.124564
	H289	H	1.123124	0.800831	-0.129324
	H290	H	1.112568	0.806045	-0.132393
	O291	O	0.359689	0.499878	0.499417
	H292	H	0.368927	0.494427	0.514999
	H293	H	0.362122	0.508825	0.506694
	O294	O	1.070367	0.971612	0.887757
	H295	H	1.056989	0.986275	0.868750
	H296	H	1.071219	0.980839	0.886670
	O297	O	-0.082134	-0.015447	0.166346
	H298	H	-0.081370	-0.014742	0.160758
	H299	H	-0.076772	-0.023832	0.172172
	O300	O	0.435326	0.347570	0.456577
	H301	H	0.436644	0.352046	0.455854
	H302	H	0.434100	0.347783	0.456567
	O303	O	0.061708	1.088047	1.000505
	H304	H	0.066778	1.087390	0.994523
	H305	H	0.051844	1.093174	1.006251
	O306	O	0.530408	0.493412	0.556739
	H307	H	0.522038	0.472320	0.559477
	H308	H	0.534361	0.496027	0.555584
	O309	O	1.118178	-0.113718	-0.066989
	H310	H	1.112852	-0.124970	-0.074730
	H311	H	1.121402	-0.102387	-0.048684
	O312	O	-0.023973	-0.047984	0.942116
	H313	H	-0.028374	-0.046061	0.944206
	H314	H	-0.020248	-0.033896	0.954713
	O315	O	0.398102	0.508562	0.390174
	H316	H	0.393859	0.507310	0.404767
	H317	H	0.408214	0.484015	0.396564
	O318	O	0.475511	0.635588	0.394132
	H319	H	0.462006	0.638471	0.394056
	H320	H	0.478384	0.628817	0.387390
	O321	O	0.545244	0.430308	0.416993
	H322	H	0.547267	0.434868	0.419259
	H323	H	0.546515	0.426039	0.419219
	O324	O	0.534542	0.653253	0.563793
	H325	H	0.542535	0.657712	0.554642
	H326	H	0.547219	0.648042	0.561608
	O327	O	0.012453	1.075371	0.954171
	H328	H	-0.005067	1.060394	0.969374
	H329	H	0.025675	1.090295	0.958836
	O330	O	0.542977	0.595302	0.559690
	H331	H	0.561836	0.605428	0.557256
	H332	H	0.548154	0.595964	0.558660
	O333	O	0.082094	0.854136	0.959613
	H334	H	0.070266	0.850995	0.955809
	H335	H	0.079453	0.859428	0.971761
	O336	O	1.133548	0.998959	1.049399
	H337	H	1.136157	1.002591	1.052714
	H338	H	1.138451	0.998830	1.034660
	O339	O	0.648116	0.467036	0.445011
	H340	H	0.640616	0.457977	0.443339
	H341	H	0.649902	0.468391	0.441151
	O342	O	0.861385	-0.030725	-0.051518
	H343	H	0.866622	-0.027909	-0.035054
	H344	H	0.865657	-0.034740	-0.050812
	O345	O	0.653899	0.500237	0.577435
	H346	H	0.661364	0.513801	0.578601
	H347	H	0.659701	0.509015	0.578894
	O348	O	0.979155	0.970932	1.021051
	H349	H	0.979652	0.968530	1.022693
	H350	H	0.985710	0.959220	1.016855
	O351	O	0.598686	0.416036	0.468761
	H352	H	0.587737	0.418802	0.447888
	H353	H	0.608501	0.407337	0.455892
	O354	O	0.459918	0.423424	0.607704
	H355	H	0.468971	0.432206	0.606069
	H356	H	0.454479	0.422310	0.616343
	O357	O	0.632183	0.521841	0.553442
	H358	H	0.637756	0.523322	0.564995
	H359	H	0.622233	0.521976	0.558302
	O360	O	-0.076520	-0.042579	0.059505
	H361	H	-0.065054	-0.048721	0.069367
	H362	H	-0.076115	-0.043468	0.045705
	O363	O	0.501612	0.525660	0.551909
	H364	H	0.521801	0.528102	0.556841
	H365	H	0.489070	0.526759	0.554125
	O366	O	0.480343	0.594202	0.496364
	H367	H	0.466153	0.600486	0.495334
	H368	H	0.475088	0.604731	0.491556
	O369	O	0.405854	0.385053	0.637854
	H370	H	0.407193	0.404651	0.649412
	H371	H	0.407970	0.374030	0.631289
	O372	O	-0.050906	0.942198	0.994151
	H373	H	-0.043734	0.944030	0.999063
	H374	H	-0.050642	0.932062	0.990875
	O375	O	0.568626	0.377562	0.525605
	H376	H	0.569043	0.376768	0.530195
	H377	H	0.580865	0.385564	0.518221
	O378	O	0.359479	0.598933	0.389230
	H379	H	0.358386	0.601186	0.391894
	H380	H	0.356488	0.599220	0.385348
	O381	O	0.500138	0.614032	0.615955
	H382	H	0.499914	0.616844	0.627567
	H383	H	0.500567	0.614104	0.603522
	O384	O	-0.110046	1.129917	-0.051989
	H385	H	-0.098732	1.138459	-0.043983
	H386	H	-0.127763	1.112776	-0.053312
	O387	O	1.084619	0.034016	0.843580
	H388	H	1.083486	0.035455	0.844885
	H389	H	1.095062	0.039590	0.825719
	O390	O	0.124087	0.965482	0.135501
	H391	H	0.133217	0.957094	0.124440
	H392	H	0.130384	0.962065	0.129967
	O393	O	1.032947	1.096960	-0.148831
	H394	H	1.034720	1.105107	-0.136939
	H395	H	1.023787	1.091376	-0.144028
	O396	O	0.407290	0.617180	0.520495
	H397	H	0.394131	0.615973	0.505859
	H398	H	0.399892	0.611550	0.508314
	O399	O	0.060712	1.142462	1.134668
	H400	H	0.056402	1.150660	1.144975
	H401	H	0.072776	1.145665	1.117197
	O402	O	0.952396	1.044001	0.999412
	H403	H	0.948958	1.036761	0.992299
	H404	H	0.953896	1.048277	0.990107
	O405	O	0.525079	0.424130	0.451258
	H406	H	0.526523	0.430802	0.452172
	H407	H	0.518569	0.419352	0.446711
