data_Molecule from HDF5

_cell_length_a		16.711431
_cell_length_b		16.500155
_cell_length_c		16.501288
_cell_angle_alpha	89.954161
_cell_angle_beta	89.976543
_cell_angle_gamma	89.960252
_symmetry_space_group_name_H-M	'P 1'
_symmetry_Int_Tables_number		1

loop_
	_symmetry_equiv_pos_as_xyz
	x,y,z

loop_
	_atom_site_label
	_atom_site_type_symbol
	_atom_site_fract_x
	_atom_site_fract_y
	_atom_site_fract_z
	H0	H	0.384254	0.833487	0.711668
	H1	H	0.589517	0.148288	0.710406
	H2	H	0.587077	0.831329	0.274218
	H3	H	0.384676	0.148419	0.273013
	H4	H	0.710334	0.382638	0.836683
	H5	H	0.707962	0.596764	0.147336
	H6	H	0.263711	0.598235	0.834164
	H7	H	0.264137	0.385590	0.147135
	H8	H	0.832636	0.713941	0.385077
	H9	H	0.142350	0.710289	0.594691
	H10	H	0.829335	0.271340	0.592098
	H11	H	0.144213	0.273721	0.390781
	H12	H	0.830935	0.386053	0.711920
	H13	H	0.143231	0.591912	0.710255
	H14	H	0.831764	0.596839	0.268687
	H15	H	0.144548	0.390763	0.273624
	H16	H	0.382886	0.711271	0.832884
	H17	H	0.587444	0.708166	0.149721
	H18	H	0.589869	0.271201	0.834378
	H19	H	0.381476	0.271271	0.147942
	H20	H	0.705618	0.832496	0.388281
	H21	H	0.707215	0.147920	0.595666
	H22	H	0.262543	0.836701	0.600686
	H23	H	0.267365	0.147894	0.388586
	H24	H	0.885486	0.332594	0.208615
	H25	H	0.089265	0.648424	0.210314
	H26	H	0.087557	0.330952	0.774353
	H27	H	0.882614	0.647292	0.769543
	H28	H	0.208833	0.884861	0.335838
	H29	H	0.206288	0.095355	0.649576
	H30	H	0.770450	0.091362	0.331310
	H31	H	0.765689	0.884083	0.647840
	H32	H	0.332404	0.215134	0.883954
	H33	H	0.639186	0.215556	0.098363
	H34	H	0.328598	0.773501	0.090637
	H35	H	0.642483	0.769619	0.887069
	H36	H	0.328239	0.890935	0.208553
	H37	H	0.639888	0.097965	0.214860
	H38	H	0.332456	0.096690	0.768033
	H39	H	0.643260	0.887115	0.770865
	H40	H	0.889177	0.205087	0.330285
	H41	H	0.088020	0.208571	0.650026
	H42	H	0.091950	0.770157	0.334883
	H43	H	0.883628	0.769984	0.649046
	H44	H	0.208740	0.334568	0.885196
	H45	H	0.206765	0.648170	0.094888
	H46	H	0.766371	0.334063	0.095591
	H47	H	0.765199	0.646753	0.884503
	H48	H	0.397090	0.101364	0.573655
	H49	H	0.574545	0.878689	0.578836
	H50	H	0.578113	0.104235	0.400174
	H51	H	0.400212	0.877959	0.402512
	H52	H	0.581469	0.402459	0.106664
	H53	H	0.580043	0.582801	0.876137
	H54	H	0.395188	0.577296	0.102595
	H55	H	0.401158	0.399791	0.878329
	H56	H	0.098149	0.580594	0.401404
	H57	H	0.876690	0.575100	0.580511
	H58	H	0.098196	0.393156	0.578120
	H59	H	0.872629	0.400104	0.391745
	H60	H	0.096579	0.403698	0.580937
	H61	H	0.874070	0.581295	0.582001
	H62	H	0.096534	0.578815	0.403052
	H63	H	0.872978	0.391474	0.400321
	H64	H	0.397446	0.582090	0.103160
	H65	H	0.577053	0.575570	0.878766
	H66	H	0.574521	0.411214	0.101513
	H67	H	0.391936	0.404045	0.876599
	H68	H	0.577568	0.104046	0.402666
	H69	H	0.579467	0.877761	0.577050
	H70	H	0.394136	0.105847	0.581554
	H71	H	0.394959	0.877602	0.406097
	H72	H	0.902108	0.600528	0.074948
	H73	H	0.076234	0.377818	0.080939
	H74	H	0.076831	0.605721	0.894546
	H75	H	0.897549	0.377700	0.902977
	H76	H	0.077862	0.906472	0.603036
	H77	H	0.078151	0.081610	0.378021
	H78	H	0.893498	0.083849	0.606222
	H79	H	0.900881	0.902764	0.380191
	H80	H	0.596839	0.083859	0.908936
	H81	H	0.374278	0.078014	0.084015
	H82	H	0.598289	0.895578	0.079248
	H83	H	0.373596	0.899166	0.896827
	H84	H	0.596435	0.903514	0.081875
	H85	H	0.372972	0.084101	0.080692
	H86	H	0.593762	0.072886	0.905744
	H87	H	0.375464	0.898394	0.905033
	H88	H	0.892745	0.077048	0.603416
	H89	H	0.081826	0.081210	0.377625
	H90	H	0.070979	0.905412	0.600777
	H91	H	0.896971	0.899739	0.378274
	H92	H	0.069582	0.600984	0.903196
	H93	H	0.075557	0.378198	0.078579
	H94	H	0.889207	0.605800	0.076147
	H95	H	0.896940	0.378819	0.903540
	H96	H	0.403273	0.102085	0.581258
	H97	H	0.578441	0.876954	0.582285
	H98	H	0.579193	0.104326	0.402366
	H99	H	0.394820	0.876503	0.400049
	H100	H	0.570135	0.399364	0.102902
	H101	H	0.572178	0.581936	0.879044
	H102	H	0.392238	0.581196	0.104604
	H103	H	0.399525	0.409886	0.880538
	H104	H	0.097522	0.578032	0.400333
	H105	H	0.877032	0.580433	0.575411
	H106	H	0.100710	0.397013	0.588416
	H107	H	0.876471	0.403072	0.403117
	H108	H	0.897462	0.605912	0.087312
	H109	H	0.077497	0.377787	0.078832
	H110	H	0.080823	0.603262	0.905788
	H111	H	0.896686	0.378389	0.902929
	H112	H	0.074535	0.899920	0.604771
	H113	H	0.079162	0.078467	0.379166
	H114	H	0.899310	0.080384	0.603139
	H115	H	0.895499	0.905085	0.379453
	H116	H	0.599040	0.080620	0.897213
	H117	H	0.376640	0.079334	0.077466
	H118	H	0.599398	0.897800	0.087603
	H119	H	0.377233	0.905687	0.900581
	C120	C	0.365888	-0.000337	0.612544
	C121	C	0.608787	0.981980	0.611693
	C122	C	0.608286	-0.000771	0.369955
	C123	C	0.366229	0.982102	0.371859
	C124	C	0.607335	0.370826	0.000186
	C125	C	0.607134	0.611368	0.982447
	C126	C	0.364010	0.612590	-0.000674
	C127	C	0.364920	0.371405	0.982068
	C128	C	-0.004793	0.612073	0.369172
	C129	C	0.978891	0.610366	0.611678
	C130	C	-0.005232	0.367548	0.612798
	C131	C	0.978221	0.368682	0.368601
	C132	C	0.865606	0.499575	0.111380
	C133	C	0.107550	0.482273	0.111075
	C134	C	0.107296	0.498805	0.869804
	C135	C	0.864970	0.481608	0.869631
	C136	C	0.108163	0.870001	0.500300
	C137	C	0.108849	0.111402	0.483236
	C138	C	0.866005	0.110868	0.498900
	C139	C	0.865573	0.869283	0.482784
	C140	C	0.494752	0.112387	0.870245
	C141	C	0.477027	0.113163	0.113165
	C142	C	0.493992	0.869068	0.112900
	C143	C	0.478424	0.868941	0.869466
	C144	C	0.364381	0.881114	0.672571
	C145	C	0.609325	0.100723	0.671099
	C146	C	0.607565	0.879574	0.311996
	C147	C	0.365722	0.101291	0.312828
	C148	C	0.668896	0.365890	0.883111
	C149	C	0.667088	0.614349	0.100602
	C150	C	0.304241	0.615823	0.881079
	C151	C	0.304514	0.368001	0.100015
	C152	C	0.878900	0.673418	0.366508
	C153	C	0.095839	0.669734	0.613103
	C154	C	0.876398	0.310192	0.612003
	C155	C	0.096927	0.312276	0.370267
	C156	C	0.877139	0.367236	0.671247
	C157	C	0.096190	0.611102	0.670796
	C158	C	0.878557	0.615055	0.308792
	C159	C	0.097066	0.370597	0.312219
	C160	C	0.363420	0.671959	0.880509
	C161	C	0.607328	0.669916	0.101775
	C162	C	0.609113	0.310412	0.882127
	C163	C	0.362843	0.311052	0.100462
	C164	C	0.666268	0.879792	0.368761
	C165	C	0.667849	0.100484	0.614145
	C166	C	0.304165	0.882532	0.617644
	C167	C	0.307369	0.100803	0.369933
	C168	C	0.865611	0.380335	0.169917
	C169	C	0.108601	0.601126	0.170682
	C170	C	0.107816	0.379197	0.812296
	C171	C	0.863870	0.599935	0.809357
	C172	C	0.168884	0.866683	0.382948
	C173	C	0.166974	0.113488	0.602099
	C174	C	0.809798	0.110483	0.378808
	C175	C	0.806111	0.866659	0.600952
	C176	C	0.378660	0.173931	0.866251
	C177	C	0.592973	0.174789	0.116503
	C178	C	0.375578	0.812256	0.111308
	C179	C	0.595849	0.809724	0.868330
	C180	C	0.375371	0.870589	0.169493
	C181	C	0.593223	0.116397	0.174504
	C182	C	0.378749	0.115207	0.808703
	C183	C	0.596067	0.868174	0.810551
	C184	C	0.868512	0.167145	0.378403
	C185	C	0.107812	0.169737	0.602235
	C186	C	0.110647	0.809720	0.382336
	C187	C	0.864592	0.809658	0.601496
	C188	C	0.167726	0.380902	0.867616
	C189	C	0.166896	0.601017	0.113492
	C190	C	0.806815	0.381019	0.113456
	C191	C	0.805499	0.599811	0.866485
	C192	C	0.390940	0.081723	0.586335
	C193	C	0.584484	0.899214	0.586784
	C194	C	0.585144	0.082232	0.394599
	C195	C	0.389925	0.898959	0.396058
	C196	C	0.582559	0.396913	0.082411
	C197	C	0.583313	0.586897	0.899556
	C198	C	0.388161	0.587465	0.081863
	C199	C	0.390298	0.397156	0.899902
	C200	C	0.076301	0.586579	0.394464
	C201	C	0.897093	0.585827	0.586588
	C202	C	0.077049	0.391160	0.589213
	C203	C	0.895576	0.391565	0.391515
	C204	C	0.889336	0.582405	0.086656
	C205	C	0.083539	0.399454	0.086431
	C206	C	0.082822	0.581673	0.894194
	C207	C	0.889818	0.399580	0.895772
	C208	C	0.081861	0.896200	0.581781
	C209	C	0.086306	0.087290	0.399888
	C210	C	0.888647	0.087302	0.582559
	C211	C	0.890716	0.895128	0.400487
	C212	C	0.575598	0.086361	0.896472
	C213	C	0.395703	0.087756	0.088045
	C214	C	0.576701	0.892204	0.089841
	C215	C	0.396648	0.893623	0.893730
	Zn216	Zn	0.487281	-0.009242	0.740059
	Zn217	Zn	0.485835	-0.009425	0.242320
	Zn218	Zn	0.736519	0.491279	-0.008957
	Zn219	Zn	0.236080	0.491487	-0.009777
	Zn220	Zn	-0.012893	0.741409	0.491184
	Zn221	Zn	-0.013468	0.239359	0.490561
	Zn222	Zn	-0.013447	0.489611	0.741785
	Zn223	Zn	-0.013172	0.490855	0.239661
	Zn224	Zn	0.485935	0.739708	-0.008785
	Zn225	Zn	0.485637	0.242583	-0.009043
	Zn226	Zn	0.737131	-0.009754	0.490793
	Zn227	Zn	0.237355	-0.009428	0.492411
	N228	N	0.402005	0.954911	0.669623
	N229	N	0.573367	0.025916	0.669893
	N230	N	0.572760	0.955080	0.312046
	N231	N	0.401484	0.026484	0.314027
	N232	N	0.668113	0.402555	0.957733
	N233	N	0.667362	0.578861	0.025321
	N234	N	0.304275	0.579704	0.956001
	N235	N	0.305620	0.404601	0.025274
	N236	N	0.952565	0.672018	0.403099
	N237	N	0.021681	0.669516	0.577207
	N238	N	0.950721	0.309800	0.576857
	N239	N	0.021861	0.310632	0.404401
	N240	N	0.951705	0.401928	0.671974
	N241	N	0.022155	0.575261	0.670156
	N242	N	0.951953	0.577896	0.310079
	N243	N	0.022010	0.404359	0.310686
	N244	N	0.399845	0.670033	0.954972
	N245	N	0.570868	0.668305	0.027161
	N246	N	0.571593	0.313177	0.956070
	N247	N	0.399597	0.312812	0.025975
	N248	N	0.667125	0.955254	0.403866
	N249	N	0.667820	0.025439	0.578157
	N250	N	0.305035	0.957337	0.581115
	N251	N	0.307488	0.025720	0.405889
	N252	N	0.901492	0.455109	0.168930
	N253	N	0.072596	0.526319	0.169481
	N254	N	0.070883	0.453590	0.813675
	N255	N	0.900054	0.525344	0.811022
	N256	N	0.167525	0.903652	0.457450
	N257	N	0.167651	0.077914	0.526940
	N258	N	0.807941	0.076392	0.454881
	N259	N	0.806716	0.902842	0.525923
	N260	N	0.451726	0.171933	0.904093
	N261	N	0.519638	0.172960	0.079246
	N262	N	0.450627	0.811015	0.077157
	N263	N	0.521686	0.810101	0.904222
	N264	N	0.450169	0.904874	0.170859
	N265	N	0.520035	0.078684	0.172510
	N266	N	0.452014	0.077605	0.811056
	N267	N	0.521925	0.904004	0.810872
	N268	N	0.902544	0.167566	0.454173
	N269	N	0.072433	0.168732	0.527136
	N270	N	0.073456	0.811743	0.456306
	N271	N	0.901313	0.811377	0.527016
	N272	N	0.167871	0.456485	0.902354
	N273	N	0.166588	0.526088	0.077437
	N274	N	0.806467	0.456311	0.078092
	N275	N	0.806062	0.525194	0.903171
	O276	O	0.388245	0.605958	-0.516097
	H277	H	0.383714	0.599940	-0.536274
	H278	H	0.393443	0.603497	-0.534644
	O279	O	0.419488	0.554462	0.711786
	H280	H	0.434455	0.552094	0.704414
	H281	H	0.432279	0.526273	0.717113
	O282	O	0.674780	0.304803	0.680859
	H283	H	0.666569	0.314252	0.667351
	H284	H	0.660223	0.322794	0.658744
	O285	O	0.964402	0.199126	1.030816
	H286	H	0.967908	0.202289	1.039822
	H287	H	0.963964	0.200795	1.022881
	O288	O	0.191766	0.781026	0.781295
	H289	H	0.207736	0.814964	0.778553
	H290	H	0.221713	0.766963	0.756250
	O291	O	0.272101	0.273113	0.521025
	H292	H	0.243843	0.248978	0.533537
	H293	H	0.277595	0.281003	0.560224
	O294	O	0.951999	-0.224371	1.201185
	H295	H	0.935834	-0.230822	1.218815
	H296	H	0.939511	-0.226550	1.206424
	O297	O	0.495398	0.462112	0.639474
	H298	H	0.515034	0.455767	0.639829
	H299	H	0.503318	0.463595	0.629450
	O300	O	-0.102315	-0.046740	1.071637
	H301	H	-0.099581	-0.022145	1.058537
	H302	H	-0.124254	-0.053394	1.073817
	O303	O	0.450506	0.284439	0.700010
	H304	H	0.461979	0.277262	0.701152
	H305	H	0.453559	0.282532	0.694039
	O306	O	1.056582	1.065755	-0.049159
	H307	H	1.057775	1.069093	-0.054210
	H308	H	1.060944	1.059525	-0.050765
	O309	O	0.345342	0.484043	0.275369
	H310	H	0.342544	0.491529	0.269831
	H311	H	0.346365	0.496964	0.268776
	O312	O	0.951724	0.834032	0.990138
	H313	H	0.941856	0.825924	0.996615
	H314	H	0.951927	0.836088	0.982601
	O315	O	0.344866	0.500005	0.430536
	H316	H	0.334448	0.516053	0.436482
	H317	H	0.335867	0.496501	0.433472
	O318	O	0.280080	0.283792	0.699544
	H319	H	0.266744	0.304945	0.712630
	H320	H	0.307640	0.273340	0.711644
	O321	O	-0.235395	1.200234	0.961723
	H322	H	-0.226792	1.204586	0.956907
	H323	H	-0.244809	1.218117	0.957122
	O324	O	1.067833	0.957230	-0.021221
	H325	H	1.066067	0.952650	-0.004127
	H326	H	1.070869	0.951201	-0.042001
	O327	O	0.142068	-0.163230	1.013562
	H328	H	0.142221	-0.178385	1.000995
	H329	H	0.123065	-0.164301	1.010499
	O330	O	0.677944	0.676793	0.305571
	H331	H	0.682996	0.657186	0.310570
	H332	H	0.675361	0.679446	0.310315
	O333	O	0.521268	0.668306	0.659305
	H334	H	0.515469	0.690270	0.668624
	H335	H	0.507151	0.665231	0.656317
	O336	O	0.922762	-0.147410	-0.162417
	H337	H	0.948620	-0.160132	-0.163126
	H338	H	0.941154	-0.138215	-0.170592
	O339	O	1.521317	0.618748	0.592180
	H340	H	1.513468	0.612236	0.590830
	H341	H	1.509248	0.630471	0.586080
	O342	O	-0.208576	-0.197444	-0.196117
	H343	H	-0.202360	-0.186574	-0.197324
	H344	H	-0.176722	-0.193369	-0.179087
	O345	O	0.301150	1.303613	1.306993
	H346	H	0.321224	1.315602	1.331509
	H347	H	0.313444	1.331513	1.319975
	O348	O	0.644939	0.432890	0.599537
	H349	H	0.654801	0.429137	0.599686
	H350	H	0.654139	0.436469	0.585232
	O351	O	0.457883	0.509463	0.429722
	H352	H	0.463257	0.509405	0.427617
	H353	H	0.468979	0.507369	0.433199
	O354	O	-0.225267	-0.174186	0.992107
	H355	H	-0.203479	-0.179966	0.977417
	H356	H	-0.235541	-0.194282	0.996941
	O357	O	0.712469	0.264729	0.452606
	H358	H	0.711366	0.264995	0.410650
	H359	H	0.741316	0.238949	0.442908
	O360	O	0.710580	0.585321	0.465517
	H361	H	0.717680	0.595580	0.469859
	H362	H	0.702426	0.578204	0.480834
	O363	O	0.029657	-0.004242	0.003145
	H364	H	0.017075	-0.003232	0.017045
	H365	H	0.039654	-0.010631	-0.004757
	O366	O	0.517805	0.280985	0.279973
	H367	H	0.516344	0.275797	0.270056
	H368	H	0.525340	0.279230	0.272699
	O369	O	0.791706	0.180836	0.176525
	H370	H	0.803414	0.158664	0.152727
	H371	H	0.813585	0.166427	0.157654
	O372	O	0.987924	1.199575	0.170513
	H373	H	1.028485	1.200840	0.164140
	H374	H	0.992535	1.211821	0.190006
	O375	O	1.021536	-0.231069	-0.226582
	H376	H	1.029795	-0.264347	-0.261732
	H377	H	1.062583	-0.214077	-0.224124
	O378	O	0.386686	0.450048	0.482854
	H379	H	0.385532	0.453316	0.491361
	H380	H	0.392032	0.444446	0.493948
	O381	O	-0.625034	0.564928	0.506603
	H382	H	-0.606710	0.567929	0.498794
	H383	H	-0.631841	0.571106	0.497314
	O384	O	1.114031	0.101731	1.031945
	H385	H	1.115117	0.115301	1.034662
	H386	H	1.108478	0.086689	1.033044
	O387	O	0.772866	1.198733	-0.214248
	H388	H	0.749676	1.226495	-0.236438
	H389	H	0.782775	1.185181	-0.197944
	O390	O	0.704928	0.513140	0.711069
	H391	H	0.719360	0.535423	0.727070
	H392	H	0.712182	0.528719	0.707684
	O393	O	0.275021	0.457837	0.701971
	H394	H	0.276307	0.452026	0.711390
	H395	H	0.273790	0.463682	0.706823
	O396	O	0.132750	1.207183	1.101156
	H397	H	0.165446	1.229780	1.103565
	H398	H	0.134137	1.209964	1.133228
	O399	O	0.018406	0.017017	0.774646
	H400	H	0.017377	0.036082	0.779044
	H401	H	0.000058	0.007132	0.778742
	O402	O	1.192813	0.944938	-0.208581
	H403	H	1.203704	0.959825	-0.218831
	H404	H	1.185410	0.957649	-0.199487
	O405	O	0.772088	-0.217557	1.138746
	H406	H	0.786818	-0.212895	1.149679
	H407	H	0.758488	-0.210199	1.118390
	O408	O	-0.172498	-0.030958	0.029305
	H409	H	-0.172862	-0.032882	0.030850
	H410	H	-0.183691	-0.036966	0.008769
	O411	O	1.064482	0.924274	1.203625
	H412	H	1.051875	0.930022	1.205446
	H413	H	1.037055	0.924822	1.206900
	O414	O	0.564208	0.283082	0.549555
	H415	H	0.568483	0.280538	0.532795
	H416	H	0.564778	0.275021	0.530164
	O417	O	1.197239	0.030071	1.201144
	H418	H	1.192186	0.013560	1.189311
	H419	H	1.198365	0.024499	1.217875
	O420	O	-0.226423	1.024162	0.779099
	H421	H	-0.222854	1.037903	0.770571
	H422	H	-0.240461	1.026602	0.765210
	O423	O	0.180645	0.176804	0.804697
	H424	H	0.175901	0.176768	0.824484
	H425	H	0.177960	0.158147	0.811720
	O426	O	0.297258	0.681444	0.678270
	H427	H	0.314320	0.672129	0.651080
	H428	H	0.319785	0.657450	0.669606
	O429	O	0.930019	1.167184	0.787305
	H430	H	0.909533	1.171892	0.794203
	H431	H	0.922661	1.184093	0.765612
	O432	O	0.480856	0.579308	0.373535
	H433	H	0.479045	0.588077	0.391284
	H434	H	0.487329	0.576020	0.360547
	O435	O	0.178405	0.799088	0.181912
	H436	H	0.156295	0.810675	0.165367
	H437	H	0.163079	0.822355	0.161291
	O438	O	-0.026209	0.069454	0.108177
	H439	H	-0.018632	0.079613	0.117391
	H440	H	-0.019741	0.064416	0.106431
	O441	O	0.057994	-0.222026	-0.021202
	H442	H	0.065113	-0.220264	-0.016815
	H443	H	0.062879	-0.235127	-0.031956
	O444	O	0.697526	0.695218	0.693482
	H445	H	0.707483	0.720373	0.714878
	H446	H	0.659804	0.693753	0.695710
	O447	O	-0.235640	0.956576	1.207681
	H448	H	-0.261003	0.953932	1.220614
	H449	H	-0.251408	0.966383	1.190556
	O450	O	0.707885	0.457834	1.274381
	H451	H	0.722695	0.458558	1.267347
	H452	H	0.717561	0.455816	1.277585
	O453	O	0.442661	0.680772	0.515941
	H454	H	0.441556	0.673794	0.500481
	H455	H	0.456690	0.684556	0.507549
	O456	O	0.201902	0.205037	1.203136
	H457	H	0.235408	0.234120	1.237459
	H458	H	0.208254	0.164347	1.197218
	O459	O	0.772408	1.043842	0.081949
	H460	H	0.772936	1.063446	0.054165
	H461	H	0.771174	1.028663	0.066257
	O462	O	0.444593	0.708793	0.274452
	H463	H	0.432269	0.715315	0.264926
	H464	H	0.429132	0.719600	0.260748
	O465	O	1.216216	-0.082420	-0.063474
	H466	H	1.240884	-0.093353	-0.062028
	H467	H	1.213190	-0.075144	-0.074343
	O468	O	0.443067	0.281308	0.453943
	H469	H	0.447362	0.276907	0.447626
	H470	H	0.424608	0.276770	0.457363
	O471	O	0.277371	0.697610	0.285022
	H472	H	0.244501	0.729883	0.253799
	H473	H	0.283369	0.672365	0.293597
	O474	O	0.477093	0.419787	0.321411
	H475	H	0.466310	0.427208	0.326561
	H476	H	0.481803	0.423677	0.309657
	O477	O	0.672311	0.490059	1.433271
	H478	H	0.674860	0.486376	1.442340
	H479	H	0.673869	0.479026	1.430300
	O480	O	0.277024	0.620594	0.451711
	H481	H	0.271646	0.616774	0.455984
	H482	H	0.278789	0.619343	0.437618
	O483	O	0.648567	0.695525	0.491283
	H484	H	0.648180	0.699836	0.488710
	H485	H	0.667057	0.704408	0.506373
	O486	O	0.695897	0.281966	1.284145
	H487	H	0.705776	0.288062	1.262077
	H488	H	0.695217	0.273448	1.261152
	O489	O	1.029823	1.148077	-0.149524
	H490	H	1.044761	1.151894	-0.134376
	H491	H	1.021961	1.162080	-0.150929
