data_Molecule from HDF5

_cell_length_a		16.117878
_cell_length_b		16.243144
_cell_length_c		16.391036
_cell_angle_alpha	90.219833
_cell_angle_beta	89.711358
_cell_angle_gamma	90.039568
_symmetry_space_group_name_H-M	'P 1'
_symmetry_Int_Tables_number		1

loop_
	_symmetry_equiv_pos_as_xyz
	x,y,z

loop_
	_atom_site_label
	_atom_site_type_symbol
	_atom_site_fract_x
	_atom_site_fract_y
	_atom_site_fract_z
	H0	H	0.393593	0.839254	0.715280
	H1	H	0.600013	0.164036	0.715782
	H2	H	0.599823	0.839261	0.277924
	H3	H	0.393850	0.163610	0.281643
	H4	H	0.710760	0.405052	0.837141
	H5	H	0.705045	0.603174	0.163273
	H6	H	0.280004	0.598726	0.837721
	H7	H	0.277113	0.402160	0.162807
	H8	H	0.828839	0.715172	0.406606
	H9	H	0.158229	0.717508	0.603232
	H10	H	0.828971	0.287051	0.602220
	H11	H	0.158610	0.287319	0.401862
	H12	H	0.829580	0.401440	0.718472
	H13	H	0.158828	0.602316	0.716498
	H14	H	0.829630	0.604044	0.288189
	H15	H	0.155240	0.396641	0.280977
	H16	H	0.394771	0.716916	0.836861
	H17	H	0.593768	0.721448	0.159748
	H18	H	0.597949	0.284412	0.837264
	H19	H	0.389965	0.282214	0.160425
	H20	H	0.710385	0.836994	0.398794
	H21	H	0.707155	0.166337	0.591661
	H22	H	0.281684	0.837394	0.596071
	H23	H	0.278874	0.164810	0.397504
	H24	H	0.888915	0.339742	0.218563
	H25	H	0.094641	0.665474	0.220164
	H26	H	0.097214	0.340954	0.783282
	H27	H	0.893521	0.665505	0.786897
	H28	H	0.211581	0.899405	0.337594
	H29	H	0.211536	0.101397	0.661479
	H30	H	0.784477	0.096926	0.335310
	H31	H	0.776067	0.901679	0.660927
	H32	H	0.329669	0.216171	0.898707
	H33	H	0.658847	0.217868	0.097244
	H34	H	0.330218	0.790961	0.095726
	H35	H	0.659830	0.788109	0.898523
	H36	H	0.333056	0.897038	0.216747
	H37	H	0.659096	0.103254	0.213570
	H38	H	0.332504	0.104041	0.780966
	H39	H	0.659974	0.901578	0.782487
	H40	H	0.891723	0.221154	0.340371
	H41	H	0.096050	0.218813	0.662445
	H42	H	0.097777	0.780210	0.340484
	H43	H	0.893993	0.787889	0.663791
	H44	H	0.207506	0.338705	0.902708
	H45	H	0.208133	0.667212	0.100254
	H46	H	0.776379	0.339768	0.098730
	H47	H	0.783518	0.667935	0.906721
	H48	H	0.406805	0.119136	0.592271
	H49	H	0.592497	0.884099	0.584895
	H50	H	0.588345	0.117924	0.403870
	H51	H	0.398268	0.884579	0.407967
	H52	H	0.586932	0.409318	0.115381
	H53	H	0.588379	0.596686	0.882717
	H54	H	0.406212	0.593025	0.113048
	H55	H	0.409237	0.402139	0.884835
	H56	H	0.110693	0.594200	0.415488
	H57	H	0.874404	0.603856	0.591746
	H58	H	0.115028	0.406503	0.601648
	H59	H	0.873923	0.406868	0.407382
	H60	H	0.110232	0.405927	0.585894
	H61	H	0.879480	0.585708	0.592799
	H62	H	0.108362	0.584885	0.412728
	H63	H	0.877827	0.409139	0.418157
	H64	H	0.403442	0.603420	0.116577
	H65	H	0.589828	0.596545	0.882108
	H66	H	0.582696	0.412975	0.112665
	H67	H	0.392915	0.408774	0.881982
	H68	H	0.588642	0.118187	0.404030
	H69	H	0.587866	0.881791	0.599569
	H70	H	0.405578	0.117440	0.589514
	H71	H	0.406619	0.883508	0.398646
	H72	H	0.904138	0.621461	0.104087
	H73	H	0.075865	0.388014	0.097164
	H74	H	0.081377	0.621857	0.897117
	H75	H	0.904709	0.384769	0.904959
	H76	H	0.085775	0.912057	0.614350
	H77	H	0.081309	0.099776	0.385738
	H78	H	0.905440	0.093032	0.613444
	H79	H	0.905278	0.902304	0.383799
	H80	H	0.609995	0.086390	0.905379
	H81	H	0.378399	0.090119	0.089582
	H82	H	0.610174	0.921090	0.087674
	H83	H	0.377980	0.915929	0.902143
	H84	H	0.617284	0.908860	0.096859
	H85	H	0.377928	0.090825	0.092888
	H86	H	0.615112	0.096928	0.901961
	H87	H	0.375689	0.905760	0.902766
	H88	H	0.899374	0.098597	0.617584
	H89	H	0.092149	0.094508	0.382530
	H90	H	0.085325	0.906357	0.616718
	H91	H	0.901766	0.907368	0.383452
	H92	H	0.077760	0.614361	0.917225
	H93	H	0.082941	0.390067	0.084302
	H94	H	0.905788	0.615873	0.091695
	H95	H	0.905024	0.387428	0.913036
	H96	H	0.403359	0.118531	0.591018
	H97	H	0.577962	0.888062	0.589826
	H98	H	0.588752	0.118158	0.403670
	H99	H	0.409821	0.887542	0.409957
	H100	H	0.580920	0.407445	0.113858
	H101	H	0.588633	0.596049	0.883228
	H102	H	0.395719	0.595544	0.117639
	H103	H	0.406057	0.418630	0.889829
	H104	H	0.111598	0.590459	0.406640
	H105	H	0.873543	0.594727	0.607285
	H106	H	0.107823	0.420270	0.594802
	H107	H	0.878271	0.418060	0.410614
	H108	H	0.893070	0.622151	0.095457
	H109	H	0.089748	0.384556	0.096062
	H110	H	0.097620	0.622588	0.911458
	H111	H	0.897634	0.385086	0.909908
	H112	H	0.091107	0.909874	0.616508
	H113	H	0.082803	0.087690	0.387380
	H114	H	0.897273	0.089564	0.615780
	H115	H	0.907583	0.907731	0.386673
	H116	H	0.610907	0.095745	0.912603
	H117	H	0.377548	0.092990	0.089924
	H118	H	0.612249	0.907082	0.081608
	H119	H	0.379085	0.911680	0.910998
	C120	C	0.374758	0.010347	0.620022
	C121	C	0.616753	0.992580	0.619497
	C122	C	0.617846	0.009917	0.375214
	C123	C	0.374282	0.992813	0.376416
	C124	C	0.615138	0.380941	0.007268
	C125	C	0.616144	0.625653	0.990588
	C126	C	0.372579	0.625182	0.008506
	C127	C	0.371782	0.379664	0.991906
	C128	C	0.001827	0.621279	0.382897
	C129	C	0.984993	0.623658	0.624968
	C130	C	0.002320	0.381202	0.623861
	C131	C	0.984619	0.380119	0.380501
	C132	C	0.870109	0.511627	0.125254
	C133	C	0.113795	0.494959	0.123037
	C134	C	0.115187	0.511677	0.879647
	C135	C	0.873412	0.494303	0.881030
	C136	C	0.117758	0.878299	0.509134
	C137	C	0.116257	0.123738	0.491810
	C138	C	0.872402	0.123070	0.508369
	C139	C	0.873817	0.878577	0.491737
	C140	C	0.503875	0.122916	0.876918
	C141	C	0.486491	0.122338	0.120167
	C142	C	0.504729	0.881972	0.118780
	C143	C	0.486261	0.880951	0.875985
	C144	C	0.374693	0.887850	0.676488
	C145	C	0.618077	0.115669	0.676321
	C146	C	0.618119	0.887388	0.317732
	C147	C	0.374522	0.115212	0.320249
	C148	C	0.672635	0.383738	0.885677
	C149	C	0.669137	0.623511	0.113557
	C150	C	0.317429	0.620726	0.886236
	C151	C	0.315188	0.381363	0.113974
	C152	C	0.878027	0.677519	0.385992
	C153	C	0.109211	0.679206	0.622797
	C154	C	0.878500	0.324851	0.622623
	C155	C	0.108847	0.324633	0.381667
	C156	C	0.878659	0.381574	0.680334
	C157	C	0.109303	0.621993	0.679444
	C158	C	0.878405	0.622320	0.327014
	C159	C	0.107170	0.378981	0.321403
	C160	C	0.374648	0.679413	0.885892
	C161	C	0.613696	0.682505	0.111932
	C162	C	0.616480	0.323877	0.885587
	C163	C	0.371303	0.321686	0.112690
	C164	C	0.673353	0.886514	0.377529
	C165	C	0.671288	0.116724	0.614745
	C166	C	0.318790	0.887032	0.617247
	C167	C	0.317526	0.115677	0.378144
	C168	C	0.869871	0.388806	0.180497
	C169	C	0.114506	0.616778	0.181272
	C170	C	0.115504	0.389126	0.822564
	C171	C	0.874180	0.616989	0.824977
	C172	C	0.174038	0.879088	0.386734
	C173	C	0.173132	0.121793	0.613184
	C174	C	0.819863	0.119166	0.385158
	C175	C	0.815445	0.881674	0.613143
	C176	C	0.379591	0.178577	0.878506
	C177	C	0.609944	0.179403	0.117637
	C178	C	0.380141	0.827050	0.116797
	C179	C	0.610430	0.825626	0.878028
	C180	C	0.381597	0.880208	0.176815
	C181	C	0.610008	0.122169	0.175299
	C182	C	0.380877	0.122896	0.819860
	C183	C	0.610455	0.881834	0.820075
	C184	C	0.873550	0.180748	0.387604
	C185	C	0.115927	0.180411	0.613643
	C186	C	0.117358	0.819739	0.388195
	C187	C	0.874342	0.825286	0.614676
	C188	C	0.170478	0.388109	0.882129
	C189	C	0.170619	0.617766	0.121581
	C190	C	0.813995	0.388667	0.120939
	C191	C	0.819836	0.618399	0.884986
	C192	C	0.398213	0.096033	0.597623
	C193	C	0.593081	0.906994	0.597727
	C194	C	0.595056	0.095778	0.397354
	C195	C	0.397957	0.907367	0.399018
	C196	C	0.590586	0.403302	0.092009
	C197	C	0.595142	0.602942	0.904783
	C198	C	0.395177	0.603660	0.093675
	C199	C	0.395565	0.403103	0.907505
	C200	C	0.087656	0.596962	0.405145
	C201	C	0.898338	0.601398	0.603666
	C202	C	0.088532	0.404362	0.600853
	C203	C	0.898875	0.404383	0.405090
	C204	C	0.894021	0.597594	0.103708
	C205	C	0.089890	0.409558	0.099374
	C206	C	0.092417	0.597335	0.902104
	C207	C	0.895839	0.408191	0.902808
	C208	C	0.094296	0.902380	0.593887
	C209	C	0.092441	0.100740	0.407218
	C210	C	0.894523	0.100533	0.593493
	C211	C	0.897855	0.899597	0.406647
	C212	C	0.589780	0.099689	0.899944
	C213	C	0.400099	0.098385	0.097517
	C214	C	0.590938	0.905402	0.095391
	C215	C	0.400048	0.904161	0.898565
	Zn216	Zn	0.496117	0.002189	0.748675
	Zn217	Zn	0.495482	0.000706	0.247498
	Zn218	Zn	0.744298	0.503758	0.000523
	Zn219	Zn	0.243385	0.502919	0.001053
	Zn220	Zn	-0.005028	0.749604	0.502880
	Zn221	Zn	-0.006246	0.253148	0.502004
	Zn222	Zn	-0.006466	0.502265	0.752234
	Zn223	Zn	-0.007342	0.502057	0.253163
	Zn224	Zn	0.494740	0.754602	-0.001354
	Zn225	Zn	0.493969	0.250215	-0.001515
	Zn226	Zn	0.745054	0.000725	0.497707
	Zn227	Zn	0.246239	0.001587	0.498598
	N228	N	0.408881	0.965605	0.678388
	N229	N	0.584997	0.037553	0.679575
	N230	N	0.584245	0.965041	0.316179
	N231	N	0.409075	0.037920	0.319002
	N232	N	0.671834	0.418607	0.962287
	N233	N	0.670789	0.588823	0.036853
	N234	N	0.315894	0.587971	0.963456
	N235	N	0.315464	0.416834	0.037918
	N236	N	0.955937	0.677008	0.420019
	N237	N	0.031102	0.680405	0.589632
	N238	N	0.956468	0.324419	0.588104
	N239	N	0.031704	0.325299	0.417449
	N240	N	0.956737	0.415539	0.681541
	N241	N	0.031059	0.588181	0.681104
	N242	N	0.956327	0.587826	0.325231
	N243	N	0.028783	0.412773	0.320534
	N244	N	0.407991	0.682568	0.963043
	N245	N	0.581594	0.684078	0.034445
	N246	N	0.581389	0.321873	0.962161
	N247	N	0.405811	0.320490	0.035768
	N248	N	0.673309	0.963546	0.412684
	N249	N	0.670665	0.039452	0.580130
	N250	N	0.318602	0.964179	0.582979
	N251	N	0.317163	0.038338	0.412337
	N252	N	0.903951	0.466604	0.183453
	N253	N	0.080120	0.539125	0.182449
	N254	N	0.081952	0.466885	0.820838
	N255	N	0.906954	0.538746	0.822547
	N256	N	0.174275	0.915029	0.462917
	N257	N	0.173594	0.087358	0.536417
	N258	N	0.819271	0.083958	0.461283
	N259	N	0.815048	0.914173	0.535706
	N260	N	0.456967	0.178736	0.913202
	N261	N	0.531933	0.179475	0.083988
	N262	N	0.457556	0.828225	0.081097
	N263	N	0.532315	0.824989	0.912265
	N264	N	0.459953	0.913691	0.178107
	N265	N	0.532153	0.087708	0.176860
	N266	N	0.459282	0.089136	0.818603
	N267	N	0.532425	0.915707	0.818842
	N268	N	0.905510	0.183197	0.465237
	N269	N	0.081065	0.181722	0.537245
	N270	N	0.083541	0.818905	0.465397
	N271	N	0.909920	0.823265	0.538403
	N272	N	0.170433	0.465238	0.916974
	N273	N	0.170132	0.540962	0.085851
	N274	N	0.813984	0.466055	0.087542
	N275	N	0.819185	0.541106	0.918926
	O276	O	1.068524	-0.048232	0.890538
	H277	H	1.064577	-0.043812	0.882421
	H278	H	1.070927	-0.048602	0.876353
	O279	O	0.465863	0.439526	0.545115
	H280	H	0.470302	0.451667	0.552457
	H281	H	0.470880	0.439599	0.528436
	O282	O	0.458094	0.444090	0.422869
	H283	H	0.453993	0.446238	0.414883
	H284	H	0.458892	0.441933	0.421762
	O285	O	0.543824	0.569128	0.449515
	H286	H	0.555115	0.567694	0.433007
	H287	H	0.538834	0.569721	0.449401
	O288	O	0.419728	0.451441	0.471849
	H289	H	0.417123	0.452155	0.477639
	H290	H	0.413525	0.445440	0.474537
	O291	O	0.047366	0.006786	1.024329
	H292	H	0.051505	0.013672	1.024764
	H293	H	0.047789	0.005115	1.024685
	O294	O	0.966396	0.918976	0.070091
	H295	H	0.979521	0.904157	0.063136
	H296	H	0.967300	0.915248	0.073575
	O297	O	0.963060	0.935742	0.024454
	H298	H	0.969515	0.946951	0.032186
	H299	H	0.964169	0.924148	0.026078
	O300	O	0.395553	0.632793	0.430259
	H301	H	0.400732	0.630436	0.422387
	H302	H	0.393665	0.644986	0.418115
	O303	O	0.927956	0.159023	0.844554
	H304	H	0.938984	0.160737	0.851607
	H305	H	0.921431	0.178125	0.826304
	O306	O	0.460289	0.521822	0.463564
	H307	H	0.459167	0.529715	0.469731
	H308	H	0.459292	0.529599	0.462092
	O309	O	0.589590	0.389098	0.445462
	H310	H	0.576747	0.377294	0.441381
	H311	H	0.586809	0.387883	0.447113
	O312	O	0.629869	1.258938	0.783293
	H313	H	0.625743	1.258978	0.789311
	H314	H	0.632211	1.259630	0.775191
	O315	O	0.999034	0.983914	-0.086047
	H316	H	0.999929	0.979120	-0.100287
	H317	H	1.010665	0.978575	-0.098685
	O318	O	0.547716	0.470221	0.570583
	H319	H	0.541362	0.459072	0.565042
	H320	H	0.555086	0.478675	0.578502
	O321	O	0.616731	0.533142	0.492273
	H322	H	0.614328	0.534079	0.493006
	H323	H	0.618606	0.525150	0.473000
	O324	O	0.061169	0.972976	0.957258
	H325	H	0.064457	0.964552	0.955661
	H326	H	0.050092	0.984087	0.962090
	O327	O	0.070427	0.845978	0.981882
	H328	H	0.058859	0.838020	0.977921
	H329	H	0.070058	0.850967	0.970789
	O330	O	-0.039672	-0.083146	-0.087535
	H331	H	-0.031411	-0.085741	-0.079194
	H332	H	-0.032999	-0.065008	-0.089524
	O333	O	0.609783	0.569305	0.502672
	H334	H	0.609923	0.564032	0.495562
	H335	H	0.607757	0.571737	0.504488
	O336	O	0.111143	-0.064662	0.023754
	H337	H	0.111710	-0.076183	0.022293
	H338	H	0.107727	-0.059679	0.024538
	O339	O	0.049132	0.096511	-0.139901
	H340	H	0.052806	0.086932	-0.145925
	H341	H	0.055037	0.105153	-0.115199
	O342	O	0.461019	0.373358	0.516722
	H343	H	0.458359	0.378346	0.530886
	H344	H	0.454913	0.377018	0.522302
	O345	O	0.004832	1.052641	1.173929
	H346	H	0.005649	1.045888	1.172174
	H347	H	0.000179	1.047355	1.186588
	O348	O	0.563329	0.538857	0.386907
	H349	H	0.558657	0.518316	0.400053
	H350	H	0.572727	0.542587	0.365984
	O351	O	0.343966	0.483611	0.627385
	H352	H	0.346312	0.499218	0.624112
	H353	H	0.348488	0.485286	0.632507
	O354	O	0.116453	1.190568	0.120321
	H355	H	0.104688	1.199872	0.123363
	H356	H	0.120167	1.191866	0.124516
	O357	O	0.440820	0.557384	0.472792
	H358	H	0.437565	0.555680	0.474673
	H359	H	0.445798	0.558072	0.482766
	O360	O	0.849523	-0.058128	1.003280
	H361	H	0.843315	-0.043625	1.007027
	H362	H	0.848240	-0.070733	1.006521
	O363	O	0.578466	0.473952	0.371111
	H364	H	0.595213	0.458491	0.377697
	H365	H	0.577027	0.462956	0.369147
	O366	O	0.530894	0.551436	0.596049
	H367	H	0.542125	0.555996	0.588670
	H368	H	0.531381	0.553162	0.594794
	O369	O	0.944195	0.078016	-0.121461
	H370	H	0.945882	0.058130	-0.125438
	H371	H	0.945613	0.080795	-0.122100
	O372	O	0.377012	0.401157	0.603486
	H373	H	0.369532	0.394734	0.614373
	H374	H	0.368797	0.396564	0.609544
	O375	O	0.973911	0.043137	1.010111
	H376	H	0.974371	0.039907	0.998548
	H377	H	0.986106	0.047167	1.011779
	O378	O	0.053584	1.067532	0.170993
	H379	H	0.040520	1.058812	0.178566
	H380	H	0.048340	1.062998	0.164179
	O381	O	0.416680	0.481839	0.492096
	H382	H	0.421332	0.472904	0.492697
	H383	H	0.417671	0.490785	0.495925
	O384	O	0.828342	1.133230	-0.022203
	H385	H	0.829091	1.133291	-0.031617
	H386	H	0.821123	1.137299	-0.018327
	O387	O	1.055413	0.101265	1.024946
	H388	H	1.056954	0.103569	1.039304
	H389	H	1.057938	0.106897	1.040205
	O390	O	1.038657	0.995632	0.066798
	H391	H	1.046747	0.988809	0.065454
	H392	H	1.029904	0.992031	0.065307
	O393	O	0.452294	0.629301	0.458550
	H394	H	0.445563	0.628878	0.445919
	H395	H	0.464902	0.615747	0.453789
