data_Molecule from HDF5

_cell_length_a		16.247704
_cell_length_b		16.487187
_cell_length_c		16.453674
_cell_angle_alpha	90.163846
_cell_angle_beta	90.125419
_cell_angle_gamma	89.791921
_symmetry_space_group_name_H-M	'P 1'
_symmetry_Int_Tables_number		1

loop_
	_symmetry_equiv_pos_as_xyz
	x,y,z

loop_
	_atom_site_label
	_atom_site_type_symbol
	_atom_site_fract_x
	_atom_site_fract_y
	_atom_site_fract_z
	H0	H	0.388245	0.829333	0.722107
	H1	H	0.603780	0.141776	0.722183
	H2	H	0.605277	0.828440	0.273912
	H3	H	0.394055	0.145553	0.279978
	H4	H	0.718404	0.380931	0.839920
	H5	H	0.720009	0.591478	0.157612
	H6	H	0.276365	0.589740	0.839253
	H7	H	0.280273	0.384800	0.159332
	H8	H	0.837693	0.708440	0.392346
	H9	H	0.157730	0.705517	0.604763
	H10	H	0.837643	0.265368	0.605789
	H11	H	0.156754	0.264519	0.395156
	H12	H	0.836627	0.382979	0.718656
	H13	H	0.157452	0.591418	0.720085
	H14	H	0.836638	0.591208	0.278982
	H15	H	0.157355	0.381629	0.281963
	H16	H	0.388414	0.709657	0.841182
	H17	H	0.608197	0.712226	0.156046
	H18	H	0.606708	0.260869	0.842663
	H19	H	0.394955	0.266136	0.157685
	H20	H	0.719852	0.827574	0.391619
	H21	H	0.718824	0.142219	0.604064
	H22	H	0.280995	0.824938	0.598281
	H23	H	0.277886	0.145110	0.397700
	H24	H	0.890148	0.328128	0.221754
	H25	H	0.102879	0.642737	0.222739
	H26	H	0.104605	0.329149	0.775473
	H27	H	0.889399	0.644533	0.776445
	H28	H	0.212652	0.884970	0.337641
	H29	H	0.218516	0.088048	0.659023
	H30	H	0.775791	0.090578	0.341242
	H31	H	0.775181	0.879712	0.656865
	H32	H	0.337746	0.207036	0.893178
	H33	H	0.657698	0.208217	0.106665
	H34	H	0.337538	0.768401	0.102286
	H35	H	0.655330	0.759887	0.888526
	H36	H	0.336590	0.885254	0.215729
	H37	H	0.657487	0.094337	0.222761
	H38	H	0.336662	0.091004	0.778669
	H39	H	0.656257	0.876212	0.774303
	H40	H	0.889863	0.208805	0.342108
	H41	H	0.107231	0.209490	0.657471
	H42	H	0.102999	0.762651	0.341594
	H43	H	0.890472	0.763228	0.656938
	H44	H	0.216351	0.326390	0.896068
	H45	H	0.213926	0.645666	0.100362
	H46	H	0.779120	0.326363	0.101159
	H47	H	0.773317	0.644230	0.893705
	H48	H	0.405121	0.098332	0.585037
	H49	H	0.583872	0.872740	0.586577
	H50	H	0.588263	0.099511	0.408841
	H51	H	0.399404	0.868875	0.402052
	H52	H	0.584651	0.388284	0.114102
	H53	H	0.584945	0.574153	0.887596
	H54	H	0.408054	0.575979	0.111962
	H55	H	0.404451	0.395569	0.884354
	H56	H	0.110714	0.571149	0.408814
	H57	H	0.885248	0.570468	0.585280
	H58	H	0.115626	0.393340	0.593770
	H59	H	0.881264	0.401699	0.406420
	H60	H	0.110229	0.393503	0.580359
	H61	H	0.881373	0.575435	0.592276
	H62	H	0.112872	0.577379	0.410074
	H63	H	0.878331	0.390657	0.408340
	H64	H	0.409623	0.578466	0.111903
	H65	H	0.583087	0.572435	0.888212
	H66	H	0.594885	0.399931	0.113409
	H67	H	0.410308	0.397857	0.887713
	H68	H	0.582882	0.098088	0.407501
	H69	H	0.583481	0.873146	0.585782
	H70	H	0.405495	0.100757	0.592993
	H71	H	0.413193	0.871707	0.399117
	H72	H	0.908297	0.598003	0.087219
	H73	H	0.086771	0.371665	0.089671
	H74	H	0.091134	0.602787	0.903858
	H75	H	0.909735	0.372829	0.904990
	H76	H	0.090240	0.894711	0.613294
	H77	H	0.081522	0.074731	0.388342
	H78	H	0.913592	0.074728	0.610094
	H79	H	0.907061	0.901187	0.387171
	H80	H	0.610241	0.070895	0.910849
	H81	H	0.386930	0.071393	0.085069
	H82	H	0.610152	0.900335	0.085247
	H83	H	0.383300	0.895066	0.910816
	H84	H	0.613240	0.899711	0.088527
	H85	H	0.381280	0.076220	0.095421
	H86	H	0.611843	0.072993	0.909065
	H87	H	0.386032	0.900448	0.913765
	H88	H	0.907949	0.079274	0.612797
	H89	H	0.084873	0.080602	0.385760
	H90	H	0.088028	0.895673	0.612635
	H91	H	0.916085	0.896798	0.388994
	H92	H	0.078524	0.597553	0.906908
	H93	H	0.089732	0.371764	0.090299
	H94	H	0.909943	0.599163	0.091411
	H95	H	0.913338	0.376200	0.909788
	H96	H	0.412909	0.097744	0.589255
	H97	H	0.584053	0.872555	0.586093
	H98	H	0.584890	0.096800	0.412556
	H99	H	0.407654	0.874564	0.412247
	H100	H	0.580571	0.401734	0.107901
	H101	H	0.581954	0.574505	0.887907
	H102	H	0.406518	0.578824	0.112263
	H103	H	0.409814	0.391662	0.884530
	H104	H	0.109679	0.573426	0.414849
	H105	H	0.882986	0.579456	0.583893
	H106	H	0.109270	0.405124	0.588845
	H107	H	0.883500	0.396930	0.416592
	H108	H	0.912473	0.596367	0.088309
	H109	H	0.087736	0.371493	0.092264
	H110	H	0.087867	0.598092	0.916454
	H111	H	0.906638	0.374078	0.910610
	H112	H	0.087017	0.892898	0.612978
	H113	H	0.088580	0.074489	0.386733
	H114	H	0.906973	0.071587	0.612239
	H115	H	0.908759	0.891256	0.385094
	H116	H	0.611567	0.073450	0.912742
	H117	H	0.382788	0.083481	0.084964
	H118	H	0.613271	0.896384	0.084713
	H119	H	0.382973	0.900627	0.906785
	C120	C	0.375898	-0.006037	0.620092
	C121	C	0.617702	0.976369	0.619837
	C122	C	0.618812	-0.006105	0.376340
	C123	C	0.375637	0.977334	0.375525
	C124	C	0.619710	0.363650	0.007513
	C125	C	0.618288	0.607852	0.991324
	C126	C	0.375186	0.608909	0.007120
	C127	C	0.376728	0.364480	0.990644
	C128	C	0.005347	0.606526	0.378593
	C129	C	0.988715	0.607560	0.620458
	C130	C	0.005782	0.365496	0.620106
	C131	C	0.987716	0.364470	0.379129
	C132	C	0.876535	0.493863	0.120879
	C133	C	0.119423	0.476851	0.121853
	C134	C	0.118772	0.494749	0.877174
	C135	C	0.875985	0.478671	0.876732
	C136	C	0.119573	0.863077	0.507729
	C137	C	0.118551	0.107611	0.491639
	C138	C	0.875703	0.107595	0.507916
	C139	C	0.876773	0.864257	0.490922
	C140	C	0.505834	0.105732	0.878026
	C141	C	0.489657	0.108595	0.120909
	C142	C	0.506394	0.867104	0.118204
	C143	C	0.488872	0.864322	0.876794
	C144	C	0.372003	0.875685	0.680742
	C145	C	0.621664	0.094651	0.681442
	C146	C	0.622703	0.875630	0.314496
	C147	C	0.374941	0.097618	0.318891
	C148	C	0.679039	0.362105	0.888051
	C149	C	0.680089	0.610561	0.109971
	C150	C	0.315519	0.609291	0.887387
	C151	C	0.319175	0.365417	0.111214
	C152	C	0.885421	0.667650	0.375169
	C153	C	0.109254	0.666452	0.622923
	C154	C	0.885350	0.305714	0.622967
	C155	C	0.108590	0.304651	0.377078
	C156	C	0.884846	0.364122	0.679308
	C157	C	0.109293	0.609611	0.680586
	C158	C	0.885032	0.609220	0.318635
	C159	C	0.108836	0.362665	0.320453
	C160	C	0.371630	0.669021	0.888415
	C161	C	0.624068	0.670530	0.109093
	C162	C	0.623965	0.301712	0.889459
	C163	C	0.376004	0.306072	0.110313
	C164	C	0.679732	0.874991	0.373497
	C165	C	0.678806	0.094835	0.622862
	C166	C	0.318562	0.873622	0.618890
	C167	C	0.317152	0.097513	0.377337
	C168	C	0.872833	0.375218	0.181002
	C169	C	0.120746	0.595945	0.181717
	C170	C	0.122016	0.376048	0.816424
	C171	C	0.871815	0.597268	0.816681
	C172	C	0.175621	0.864224	0.386634
	C173	C	0.179119	0.107892	0.611126
	C174	C	0.815254	0.109177	0.388851
	C175	C	0.815465	0.861988	0.609671
	C176	C	0.385887	0.166971	0.875232
	C177	C	0.609762	0.168272	0.124060
	C178	C	0.385796	0.807752	0.120448
	C179	C	0.607987	0.801285	0.872021
	C180	C	0.385371	0.865918	0.177036
	C181	C	0.609734	0.111405	0.181910
	C182	C	0.385470	0.109277	0.817877
	C183	C	0.608259	0.859134	0.814727
	C184	C	0.871901	0.168488	0.389631
	C185	C	0.123433	0.168156	0.610387
	C186	C	0.120965	0.803293	0.388528
	C187	C	0.872744	0.803625	0.609587
	C188	C	0.178009	0.374850	0.876332
	C189	C	0.176426	0.597307	0.121277
	C190	C	0.817217	0.374346	0.121094
	C191	C	0.814093	0.597037	0.875063
	C192	C	0.400739	0.077104	0.596113
	C193	C	0.591515	0.894331	0.593681
	C194	C	0.592817	0.076472	0.402007
	C195	C	0.399718	0.893594	0.397815
	C196	C	0.593986	0.389185	0.090193
	C197	C	0.591101	0.581274	0.909183
	C198	C	0.400710	0.584575	0.090317
	C199	C	0.401116	0.388137	0.907108
	C200	C	0.089278	0.581152	0.404130
	C201	C	0.904884	0.582293	0.594754
	C202	C	0.089673	0.390115	0.594958
	C203	C	0.903149	0.389195	0.403507
	C204	C	0.902491	0.576287	0.096052
	C205	C	0.095150	0.393549	0.097560
	C206	C	0.093150	0.577755	0.901849
	C207	C	0.902244	0.396031	0.901466
	C208	C	0.095340	0.887267	0.591359
	C209	C	0.092580	0.083457	0.408594
	C210	C	0.901902	0.082416	0.590337
	C211	C	0.903071	0.889300	0.408622
	C212	C	0.589454	0.079840	0.903572
	C213	C	0.405695	0.083852	0.095788
	C214	C	0.590282	0.891785	0.093384
	C215	C	0.405898	0.890978	0.903023
	Zn216	Zn	0.496756	-0.014629	0.748974
	Zn217	Zn	0.498029	-0.013120	0.247226
	Zn218	Zn	0.747766	0.485717	-0.000697
	Zn219	Zn	0.247577	0.486099	-0.001077
	Zn220	Zn	-0.002769	0.734779	0.499248
	Zn221	Zn	-0.002681	0.236881	0.500457
	Zn222	Zn	-0.002680	0.486862	0.747524
	Zn223	Zn	-0.003236	0.485359	0.250769
	Zn224	Zn	0.497464	0.737312	-0.001325
	Zn225	Zn	0.498411	0.234979	-0.001234
	Zn226	Zn	0.747327	-0.015302	0.498691
	Zn227	Zn	0.247279	-0.014611	0.498567
	N228	N	0.406809	0.951470	0.681500
	N229	N	0.584610	0.019797	0.679744
	N230	N	0.585660	0.950638	0.316269
	N231	N	0.410360	0.022003	0.317575
	N232	N	0.676662	0.399779	0.962504
	N233	N	0.676860	0.572260	0.035811
	N234	N	0.317526	0.572679	0.962232
	N235	N	0.319353	0.400920	0.035680
	N236	N	0.961479	0.666049	0.411986
	N237	N	0.033085	0.665622	0.586530
	N238	N	0.961642	0.306345	0.587121
	N239	N	0.032119	0.305429	0.412592
	N240	N	0.960781	0.400474	0.677734
	N241	N	0.033044	0.573700	0.679024
	N242	N	0.960598	0.571799	0.320839
	N243	N	0.032480	0.398940	0.321418
	N244	N	0.408109	0.668861	0.963974
	N245	N	0.586646	0.669043	0.033965
	N246	N	0.587935	0.302470	0.964971
	N247	N	0.410895	0.305292	0.034301
	N248	N	0.677451	0.949530	0.411069
	N249	N	0.676743	0.020319	0.585483
	N250	N	0.320586	0.948284	0.581898
	N251	N	0.317255	0.021596	0.411639
	N252	N	0.908837	0.450404	0.181154
	N253	N	0.086369	0.519865	0.182438
	N254	N	0.086232	0.451666	0.816527
	N255	N	0.909497	0.522538	0.817524
	N256	N	0.174998	0.900598	0.461774
	N257	N	0.176287	0.070974	0.536163
	N258	N	0.817492	0.072044	0.463441
	N259	N	0.817926	0.898947	0.534927
	N260	N	0.462037	0.165161	0.911968
	N261	N	0.534154	0.166582	0.086683
	N262	N	0.462130	0.808285	0.084605
	N263	N	0.532691	0.804212	0.909793
	N264	N	0.461443	0.901992	0.175836
	N265	N	0.533885	0.074952	0.179956
	N266	N	0.461168	0.072038	0.819466
	N267	N	0.533271	0.897696	0.817717
	N268	N	0.908910	0.167686	0.464781
	N269	N	0.086331	0.168070	0.535212
	N270	N	0.087147	0.802311	0.465129
	N271	N	0.910214	0.804880	0.534856
	N272	N	0.176159	0.449690	0.913347
	N273	N	0.175841	0.522214	0.084777
	N274	N	0.819119	0.449259	0.084511
	N275	N	0.816619	0.522319	0.911592
	O276	O	0.458786	0.645774	0.576244
	H277	H	0.448209	0.656191	0.572775
	H278	H	0.450685	0.648357	0.594716
	O279	O	0.639860	0.487300	0.707105
	H280	H	0.629705	0.491285	0.717774
	H281	H	0.636051	0.491892	0.701786
	O282	O	0.302948	0.679713	0.301934
	H283	H	0.292819	0.693946	0.306502
	H284	H	0.336980	0.681331	0.302497
	O285	O	0.845914	0.933198	-0.065143
	H286	H	0.850472	0.926353	-0.044706
	H287	H	0.860160	0.927753	-0.061881
	O288	O	0.364480	0.289954	0.620935
	H289	H	0.364023	0.283824	0.629650
	H290	H	0.357540	0.301325	0.611020
	O291	O	0.694877	0.475124	0.294880
	H292	H	0.696746	0.449767	0.297132
	H293	H	0.720587	0.470504	0.282692
	O294	O	0.791011	0.811602	1.056186
	H295	H	0.782606	0.822489	1.045717
	H296	H	0.772120	0.796255	1.053939
	O297	O	0.421213	0.366724	0.601273
	H298	H	0.418771	0.377637	0.610677
	H299	H	0.423436	0.361438	0.606246
	O300	O	0.399366	0.387332	0.345864
	H301	H	0.411656	0.405802	0.340343
	H302	H	0.383950	0.385447	0.324767
	O303	O	0.493836	0.497673	0.460476
	H304	H	0.485538	0.505523	0.450121
	H305	H	0.484134	0.495339	0.465444
	O306	O	-0.158984	0.175550	0.807003
	H307	H	-0.177359	0.129865	0.802243
	H308	H	-0.178182	0.197394	0.821683
	O309	O	1.084863	0.103476	-0.136526
	H310	H	1.066643	0.111601	-0.139657
	H311	H	1.088176	0.128154	-0.141490
	O312	O	-0.037409	0.865728	0.788363
	H313	H	-0.036555	0.860586	0.793319
	H314	H	-0.014999	0.873576	0.778924
	O315	O	0.848084	0.991780	0.163041
	H316	H	0.851734	0.963659	0.165781
	H317	H	0.828957	0.987768	0.180521
	O318	O	-0.059252	0.013924	0.194423
	H319	H	-0.078208	-0.000133	0.188386
	H320	H	-0.041142	0.006686	0.202021
	O321	O	0.541466	0.508845	0.366040
	H322	H	0.545317	0.521272	0.357602
	H323	H	0.555399	0.504353	0.369031
	O324	O	1.173317	0.083476	1.006736
	H325	H	1.167442	0.096169	0.999129
	H326	H	1.183001	0.089089	1.016410
	O327	O	0.300369	0.691718	0.458167
	H328	H	0.289257	0.677663	0.461137
	H329	H	0.287967	0.704394	0.449422
	O330	O	0.207587	0.998790	1.172220
	H331	H	0.219648	1.011440	1.186609
	H332	H	0.213368	1.019104	1.177309
	O333	O	-0.006504	0.977045	0.035725
	H334	H	0.004497	0.966821	0.027706
	H335	H	0.002728	0.967706	0.024642
	O336	O	0.790620	1.188634	-0.045199
	H337	H	0.775917	1.177978	-0.043037
	H338	H	0.768339	1.191379	-0.035527
	O339	O	0.192497	0.905779	0.813175
	H340	H	0.194719	0.921184	0.808613
	H341	H	0.181066	0.901001	0.801780
	O342	O	0.523343	0.675526	0.356056
	H343	H	0.528260	0.671995	0.349049
	H344	H	0.507089	0.679943	0.374230
	O345	O	-0.180552	-0.115379	0.994946
	H346	H	-0.171007	-0.088867	0.999930
	H347	H	-0.183949	-0.100751	0.967517
	O348	O	0.319865	0.516245	0.289744
	H349	H	0.325488	0.555744	0.290540
	H350	H	0.301307	0.521234	0.276133
	O351	O	0.997538	1.108381	-0.025339
	H352	H	0.986188	1.112069	-0.019886
	H353	H	1.007406	1.116692	-0.019241
	O354	O	1.084752	0.914401	0.839541
	H355	H	1.070562	0.924353	0.861179
	H356	H	1.068628	0.917101	0.827394
	O357	O	-0.606436	0.476019	-0.300699
	H358	H	-0.591564	0.465545	-0.304645
	H359	H	-0.635286	0.472943	-0.296283
	O360	O	0.366767	0.455475	0.447065
	H361	H	0.358728	0.453314	0.467278
	H362	H	0.368871	0.458363	0.444140
	O363	O	1.020955	-0.121827	-0.002535
	H364	H	1.032705	-0.115557	-0.015050
	H365	H	1.024894	-0.125267	-0.018543
	O366	O	-0.153721	-0.199773	1.175633
	H367	H	-0.166349	-0.206889	1.141861
	H368	H	-0.124466	-0.217100	1.185769
	O369	O	1.171718	0.114676	1.195740
	H370	H	1.166610	0.131544	1.162263
	H371	H	1.139075	0.109750	1.209821
	O372	O	0.558966	0.509097	0.492506
	H373	H	0.571059	0.517928	0.500486
	H374	H	0.557057	0.513700	0.496021
	O375	O	-0.100119	0.033118	1.036822
	H376	H	-0.106933	0.020343	1.046455
	H377	H	-0.100951	0.036706	1.044709
	O378	O	0.326205	0.337243	0.519535
	H379	H	0.322300	0.327490	0.502707
	H380	H	0.334226	0.333845	0.493934
	O381	O	-0.023388	1.193233	-0.164553
	H382	H	-0.041281	1.201935	-0.177982
	H383	H	-0.042290	1.199913	-0.166303
	O384	O	0.343824	0.494299	0.700393
	H385	H	0.341986	0.504861	0.691404
	H386	H	0.327819	0.481862	0.708053
	O387	O	0.668077	0.303153	0.321181
	H388	H	0.649479	0.295677	0.336036
	H389	H	0.650343	0.309324	0.328425
	O390	O	1.028487	0.774564	-0.058625
	H391	H	1.030616	0.769716	-0.066517
	H392	H	1.010757	0.771568	-0.049468
	O393	O	1.195493	-0.182440	0.964496
	H394	H	1.187470	-0.166227	0.947361
	H395	H	1.211728	-0.191870	0.961146
	O396	O	0.479244	0.357477	0.420759
	H397	H	0.470106	0.373195	0.411062
	H398	H	0.484032	0.372743	0.409939
	O399	O	0.469067	0.331822	0.507920
	H400	H	0.457977	0.338755	0.495543
	H401	H	0.471599	0.335361	0.514379
	O402	O	1.135765	1.023770	-0.134962
	H403	H	1.136945	1.031209	-0.145407
	H404	H	1.136846	1.035989	-0.119400
	O405	O	0.576556	0.521404	0.430244
	H406	H	0.590383	0.509157	0.418174
	H407	H	0.574049	0.500982	0.433926
	O408	O	0.559291	0.694061	0.645051
	H409	H	0.584600	0.704730	0.660918
	H410	H	0.563561	0.684450	0.668005
	O411	O	0.789418	1.018342	0.828098
	H412	H	0.770033	1.016442	0.803519
	H413	H	0.807665	0.996503	0.831498
	O414	O	0.696102	0.468996	0.581958
	H415	H	0.677455	0.471930	0.601073
	H416	H	0.692834	0.468667	0.587210
	O417	O	0.132508	0.876463	1.189636
	H418	H	0.143189	0.889431	1.187459
	H419	H	0.123335	0.876126	1.163219
	O420	O	0.021560	1.196703	1.206393
	H421	H	0.010659	1.192130	1.214352
	H422	H	0.011257	1.199255	1.230713
	O423	O	0.114512	1.152425	0.071561
	H424	H	0.125281	1.161453	0.058875
	H425	H	0.088628	1.153433	0.062725
	O426	O	0.634909	0.272747	0.417547
	H427	H	0.617655	0.282495	0.405434
	H428	H	0.651122	0.262004	0.412251
	O429	O	0.435232	0.553589	0.497258
	H430	H	0.430531	0.542603	0.489841
	H431	H	0.437600	0.557899	0.502332
	O432	O	0.700313	0.684825	0.569849
	H433	H	0.715484	0.685015	0.568580
	H434	H	0.678314	0.688830	0.555911
	O435	O	0.594685	0.358148	0.678566
	H436	H	0.590559	0.362547	0.663150
	H437	H	0.596248	0.350858	0.673447
	O438	O	-0.014189	0.840449	1.198192
	H439	H	-0.005124	0.859638	1.209106
	H440	H	-0.004853	0.833134	1.176714
	O441	O	0.626609	0.666952	0.636373
	H442	H	0.643391	0.673813	0.603032
	H443	H	0.616490	0.652515	0.640924
