data_Molecule from HDF5

_cell_length_a		16.179173
_cell_length_b		16.453232
_cell_length_c		16.048779
_cell_angle_alpha	88.810875
_cell_angle_beta	89.149812
_cell_angle_gamma	90.525675
_symmetry_space_group_name_H-M	'P 1'
_symmetry_Int_Tables_number		1

loop_
	_symmetry_equiv_pos_as_xyz
	x,y,z

loop_
	_atom_site_label
	_atom_site_type_symbol
	_atom_site_fract_x
	_atom_site_fract_y
	_atom_site_fract_z
	H0	H	0.399406	0.833770	0.722573
	H1	H	0.599300	0.158516	0.708475
	H2	H	0.602151	0.831591	0.288023
	H3	H	0.408108	0.156103	0.281930
	H4	H	0.719581	0.400304	0.833888
	H5	H	0.714077	0.587963	0.165863
	H6	H	0.296321	0.593333	0.832657
	H7	H	0.284331	0.388979	0.163486
	H8	H	0.838910	0.712559	0.397309
	H9	H	0.165387	0.712646	0.595352
	H10	H	0.841302	0.273154	0.608061
	H11	H	0.166106	0.280866	0.393020
	H12	H	0.839886	0.393354	0.718616
	H13	H	0.170196	0.589996	0.703197
	H14	H	0.836719	0.591801	0.288471
	H15	H	0.168335	0.405597	0.285981
	H16	H	0.403102	0.714049	0.836463
	H17	H	0.604397	0.707355	0.164145
	H18	H	0.605334	0.283802	0.833959
	H19	H	0.395646	0.272255	0.162448
	H20	H	0.719623	0.833615	0.403318
	H21	H	0.720550	0.156255	0.597644
	H22	H	0.281651	0.833836	0.607213
	H23	H	0.289450	0.156384	0.398473
	H24	H	0.901103	0.334784	0.222083
	H25	H	0.100135	0.660041	0.204922
	H26	H	0.105118	0.332995	0.783195
	H27	H	0.911101	0.657750	0.782590
	H28	H	0.217598	0.901638	0.335500
	H29	H	0.213602	0.091125	0.665596
	H30	H	0.792652	0.096654	0.333773
	H31	H	0.787332	0.893355	0.665994
	H32	H	0.340259	0.215419	0.894813
	H33	H	0.664284	0.212566	0.099919
	H34	H	0.340060	0.771412	0.109239
	H35	H	0.665512	0.780551	0.895905
	H36	H	0.339038	0.891367	0.219581
	H37	H	0.669131	0.087712	0.204465
	H38	H	0.336646	0.093780	0.787780
	H39	H	0.667583	0.902948	0.786025
	H40	H	0.903534	0.215653	0.336033
	H41	H	0.106004	0.210740	0.663352
	H42	H	0.102833	0.788315	0.333424
	H43	H	0.895692	0.773231	0.662709
	H44	H	0.221494	0.332422	0.899329
	H45	H	0.221761	0.655819	0.093939
	H46	H	0.784448	0.333522	0.106363
	H47	H	0.790364	0.656463	0.895423
	H48	H	0.409930	0.109523	0.587836
	H49	H	0.587227	0.882162	0.592752
	H50	H	0.598604	0.111868	0.396736
	H51	H	0.410672	0.880109	0.412265
	H52	H	0.592921	0.391178	0.120730
	H53	H	0.599321	0.589963	0.880070
	H54	H	0.413814	0.586889	0.118624
	H55	H	0.407901	0.402712	0.878764
	H56	H	0.120790	0.594440	0.403177
	H57	H	0.886785	0.586171	0.587173
	H58	H	0.116601	0.399094	0.573121
	H59	H	0.885752	0.401264	0.413095
	H60	H	0.118819	0.415048	0.593763
	H61	H	0.885813	0.582121	0.592894
	H62	H	0.121372	0.593965	0.401707
	H63	H	0.887407	0.403227	0.416057
	H64	H	0.405511	0.581070	0.118671
	H65	H	0.594880	0.589079	0.882108
	H66	H	0.596882	0.405517	0.117056
	H67	H	0.416796	0.409953	0.882534
	H68	H	0.594340	0.108550	0.404213
	H69	H	0.596849	0.879728	0.589847
	H70	H	0.402893	0.111503	0.592250
	H71	H	0.408229	0.879513	0.414086
	H72	H	0.900211	0.613312	0.089061
	H73	H	0.097421	0.380064	0.087254
	H74	H	0.102873	0.611363	0.897365
	H75	H	0.905384	0.378825	0.912903
	H76	H	0.096533	0.893409	0.622217
	H77	H	0.089214	0.086254	0.384864
	H78	H	0.901279	0.086521	0.621756
	H79	H	0.913911	0.896061	0.379225
	H80	H	0.617756	0.086882	0.904619
	H81	H	0.387091	0.083825	0.083084
	H82	H	0.621573	0.899025	0.095643
	H83	H	0.387079	0.902722	0.919296
	H84	H	0.621216	0.894190	0.088818
	H85	H	0.385653	0.077178	0.094627
	H86	H	0.620705	0.092951	0.902008
	H87	H	0.385136	0.904866	0.909656
	H88	H	0.912484	0.072614	0.613563
	H89	H	0.094462	0.097698	0.379253
	H90	H	0.091106	0.907774	0.617050
	H91	H	0.902982	0.907610	0.378713
	H92	H	0.096982	0.608512	0.900806
	H93	H	0.095066	0.377901	0.100646
	H94	H	0.910683	0.612643	0.098345
	H95	H	0.914498	0.379292	0.906299
	H96	H	0.410893	0.111431	0.595778
	H97	H	0.594137	0.878643	0.600081
	H98	H	0.602652	0.110662	0.403907
	H99	H	0.407860	0.878247	0.411686
	H100	H	0.583001	0.401382	0.114266
	H101	H	0.595884	0.593598	0.880366
	H102	H	0.414490	0.577013	0.115368
	H103	H	0.418959	0.398892	0.881160
	H104	H	0.120831	0.595891	0.401697
	H105	H	0.883813	0.589286	0.593201
	H106	H	0.127396	0.390138	0.596420
	H107	H	0.886557	0.404856	0.412827
	H108	H	0.912907	0.608441	0.085113
	H109	H	0.085680	0.382609	0.092670
	H110	H	0.103115	0.609402	0.904570
	H111	H	0.914183	0.382407	0.916353
	H112	H	0.080145	0.895225	0.617518
	H113	H	0.100984	0.087153	0.380888
	H114	H	0.920253	0.090776	0.617037
	H115	H	0.917606	0.909927	0.384758
	H116	H	0.618472	0.092347	0.909162
	H117	H	0.381983	0.089865	0.093054
	H118	H	0.618876	0.901902	0.088025
	H119	H	0.383681	0.895322	0.913283
	C120	C	0.377719	0.003972	0.624387
	C121	C	0.622644	0.987117	0.621146
	C122	C	0.627072	0.003190	0.375772
	C123	C	0.381526	0.985982	0.380468
	C124	C	0.623180	0.373018	0.008274
	C125	C	0.624342	0.616493	0.990739
	C126	C	0.383417	0.613548	0.008432
	C127	C	0.381543	0.372020	0.989794
	C128	C	0.011351	0.620795	0.375324
	C129	C	0.994426	0.614969	0.617731
	C130	C	0.013024	0.371409	0.621600
	C131	C	0.994654	0.376248	0.380833
	C132	C	0.878562	0.504480	0.123594
	C133	C	0.123480	0.487383	0.119592
	C134	C	0.129188	0.502715	0.873853
	C135	C	0.883513	0.486581	0.878975
	C136	C	0.120726	0.874261	0.509202
	C137	C	0.124008	0.117514	0.490677
	C138	C	0.882536	0.115277	0.508693
	C139	C	0.880187	0.873057	0.490363
	C140	C	0.510675	0.119000	0.876564
	C141	C	0.493682	0.113150	0.118294
	C142	C	0.511949	0.868695	0.123452
	C143	C	0.493755	0.874418	0.881429
	C144	C	0.379017	0.882217	0.683427
	C145	C	0.620594	0.109546	0.672925
	C146	C	0.623513	0.880526	0.324408
	C147	C	0.386177	0.107688	0.321084
	C148	C	0.681051	0.378589	0.883548
	C149	C	0.677395	0.610008	0.116089
	C150	C	0.331573	0.613460	0.882844
	C151	C	0.322821	0.370312	0.113953
	C152	C	0.887889	0.674729	0.377519
	C153	C	0.117331	0.672829	0.614922
	C154	C	0.890145	0.312811	0.625773
	C155	C	0.117583	0.320394	0.376701
	C156	C	0.889431	0.372586	0.680586
	C157	C	0.119541	0.611715	0.668578
	C158	C	0.886716	0.614766	0.323477
	C159	C	0.118777	0.382401	0.323340
	C160	C	0.384585	0.673667	0.885031
	C161	C	0.622684	0.669181	0.115284
	C162	C	0.624074	0.320776	0.883416
	C163	C	0.377888	0.312042	0.113420
	C164	C	0.682045	0.881743	0.381511
	C165	C	0.680925	0.108328	0.617774
	C166	C	0.320433	0.882153	0.626120
	C167	C	0.327188	0.108051	0.379106
	C168	C	0.880265	0.382921	0.183050
	C169	C	0.121388	0.610405	0.170044
	C170	C	0.125905	0.381179	0.820676
	C171	C	0.888679	0.608825	0.820693
	C172	C	0.179160	0.879958	0.384762
	C173	C	0.177514	0.112691	0.615696
	C174	C	0.829225	0.115783	0.383707
	C175	C	0.823824	0.872984	0.615629
	C176	C	0.388298	0.175671	0.876891
	C177	C	0.616179	0.171698	0.117420
	C178	C	0.388891	0.810993	0.126528
	C179	C	0.616847	0.819453	0.878215
	C180	C	0.388260	0.870599	0.181515
	C181	C	0.618715	0.109527	0.169635
	C182	C	0.386394	0.114996	0.823664
	C183	C	0.617841	0.880523	0.823660
	C184	C	0.883995	0.175377	0.384931
	C185	C	0.123994	0.172369	0.614523
	C186	C	0.122250	0.823475	0.383682
	C187	C	0.878230	0.813318	0.613986
	C188	C	0.183765	0.380982	0.878410
	C189	C	0.181938	0.608322	0.114869
	C190	C	0.822285	0.382408	0.125339
	C191	C	0.828693	0.608238	0.876962
	C192	C	0.401107	0.088767	0.599238
	C193	C	0.599527	0.902191	0.600531
	C194	C	0.605256	0.088180	0.395451
	C195	C	0.402696	0.901324	0.405461
	C196	C	0.598255	0.393258	0.094939
	C197	C	0.602929	0.596749	0.903500
	C198	C	0.405025	0.588748	0.095236
	C199	C	0.407163	0.396624	0.903407
	C200	C	0.098381	0.600832	0.395976
	C201	C	0.907766	0.592352	0.597141
	C202	C	0.098661	0.394652	0.595286
	C203	C	0.908605	0.396968	0.406628
	C204	C	0.901181	0.589344	0.098408
	C205	C	0.099707	0.402476	0.099548
	C206	C	0.107606	0.587569	0.894862
	C207	C	0.904874	0.402183	0.904446
	C208	C	0.096447	0.893206	0.596430
	C209	C	0.101507	0.096526	0.404293
	C210	C	0.904798	0.090457	0.594981
	C211	C	0.904419	0.897403	0.403368
	C212	C	0.596673	0.097159	0.898678
	C213	C	0.407165	0.090539	0.096504
	C214	C	0.598146	0.891560	0.098067
	C215	C	0.407693	0.894975	0.906713
	Zn216	Zn	0.501206	-0.003697	0.751610
	Zn217	Zn	0.503193	-0.007122	0.248047
	Zn218	Zn	0.751407	0.494857	-0.000425
	Zn219	Zn	0.255697	0.493618	-0.001593
	Zn220	Zn	0.001892	0.746453	0.497663
	Zn221	Zn	0.003784	0.244321	0.500037
	Zn222	Zn	0.004652	0.493921	0.747295
	Zn223	Zn	0.002131	0.497435	0.250448
	Zn224	Zn	0.502557	0.742748	0.000934
	Zn225	Zn	0.501976	0.244824	-0.001202
	Zn226	Zn	0.754156	-0.004950	0.500040
	Zn227	Zn	0.249276	-0.005093	0.501685
	N228	N	0.413484	0.958875	0.682699
	N229	N	0.585135	0.033259	0.675315
	N230	N	0.590244	0.957119	0.320332
	N231	N	0.419308	0.030901	0.321939
	N232	N	0.680313	0.410541	0.962164
	N233	N	0.678786	0.578107	0.037462
	N234	N	0.330960	0.576407	0.960557
	N235	N	0.324882	0.406924	0.036109
	N236	N	0.966596	0.678520	0.408991
	N237	N	0.038482	0.674957	0.584217
	N238	N	0.967936	0.311734	0.589870
	N239	N	0.039238	0.316536	0.411618
	N240	N	0.966834	0.408044	0.678178
	N241	N	0.042190	0.576135	0.670339
	N242	N	0.964528	0.581929	0.321937
	N243	N	0.041444	0.416533	0.325747
	N244	N	0.416328	0.673595	0.964108
	N245	N	0.590625	0.673485	0.036348
	N246	N	0.589196	0.316989	0.962076
	N247	N	0.414052	0.313044	0.035234
	N248	N	0.684533	0.958991	0.412463
	N249	N	0.682360	0.031168	0.586336
	N250	N	0.319305	0.958976	0.590278
	N251	N	0.324047	0.031490	0.415195
	N252	N	0.914464	0.459780	0.182083
	N253	N	0.085615	0.534072	0.173389
	N254	N	0.092776	0.457758	0.817648
	N255	N	0.922006	0.532080	0.821731
	N256	N	0.178565	0.910661	0.463871
	N257	N	0.177849	0.079141	0.537771
	N258	N	0.828309	0.079135	0.461559
	N259	N	0.824816	0.909296	0.537593
	N260	N	0.466499	0.178323	0.909098
	N261	N	0.537390	0.173919	0.086129
	N262	N	0.467046	0.809497	0.091224
	N263	N	0.538779	0.815529	0.913287
	N264	N	0.465834	0.905754	0.179749
	N265	N	0.541463	0.073713	0.170361
	N266	N	0.463626	0.080584	0.823080
	N267	N	0.540082	0.913895	0.825360
	N268	N	0.916546	0.175305	0.463771
	N269	N	0.091430	0.175420	0.535903
	N270	N	0.086792	0.819751	0.461924
	N271	N	0.912409	0.813194	0.534910
	N272	N	0.186119	0.457764	0.910684
	N273	N	0.183488	0.530919	0.084320
	N274	N	0.820972	0.458897	0.089014
	N275	N	0.825317	0.531503	0.912682
	O276	O	0.533287	0.524790	0.497985
	H277	H	0.531713	0.522109	0.494926
	H278	H	0.537884	0.524635	0.492405
	O279	O	0.565684	0.576696	0.484030
	H280	H	0.555802	0.585747	0.477109
	H281	H	0.567950	0.580399	0.476135
	O282	O	0.922376	0.974607	0.023615
	H283	H	0.923775	0.982545	0.036251
	H284	H	0.920243	0.978204	0.024750
	O285	O	1.021033	-0.004037	1.040564
	H286	H	1.025903	-0.022111	1.039974
	H287	H	1.014754	-0.019491	1.032820
	O288	O	0.496843	0.498987	0.548157
	H289	H	0.506912	0.502463	0.550691
	H290	H	0.502682	0.492083	0.549552
	O291	O	0.570107	0.495520	0.497406
	H292	H	0.568284	0.487016	0.508846
	H293	H	0.575023	0.501201	0.487481
	O294	O	0.421106	0.518495	0.523750
	H295	H	0.407849	0.517215	0.539925
	H296	H	0.419689	0.510681	0.523936
	O297	O	-0.006285	-0.046358	0.940185
	H298	H	-0.018908	-0.059121	0.950494
	H299	H	-0.010770	-0.046166	0.930281
	O300	O	0.518599	0.526747	0.411483
	H301	H	0.508424	0.518487	0.398051
	H302	H	0.506859	0.521605	0.403210
	O303	O	0.935602	1.146881	-0.051310
	H304	H	0.953905	1.137438	-0.054067
	H305	H	0.934051	1.154056	-0.042097
	O306	O	0.064434	0.912785	0.961950
	H307	H	0.060178	0.927560	0.950213
	H308	H	0.065673	0.904936	0.967813
	O309	O	0.518197	0.551825	0.514860
	H310	H	0.531222	0.556199	0.518781
	H311	H	0.516181	0.530795	0.509051
	O312	O	-0.151920	0.094180	-0.099572
	H313	H	-0.162769	0.105217	-0.109532
	H314	H	-0.154732	0.070977	-0.086196
	O315	O	0.455720	-0.515484	0.459841
	H316	H	0.460005	-0.513926	0.454080
	H317	H	0.444821	-0.502536	0.451886
	O318	O	0.945917	0.928291	0.941531
	H319	H	0.941602	0.923940	0.953088
	H320	H	0.936171	0.926774	0.936623
	O321	O	0.125916	0.083269	0.939650
	H322	H	0.120265	0.091965	0.926106
	H323	H	0.126426	0.077487	0.921084
	O324	O	0.469725	0.469438	0.555851
	H325	H	0.476173	0.460851	0.565250
	H326	H	0.468390	0.472756	0.537657
	O327	O	-0.009022	-0.066575	0.065390
	H328	H	-0.020286	-0.052641	0.067825
	H329	H	-0.021800	-0.071046	0.077987
	O330	O	0.520977	0.405775	0.517411
	H331	H	0.521200	0.404575	0.517037
	H332	H	0.529753	0.402431	0.515274
	O333	O	0.091177	0.951638	0.905907
	H334	H	0.096655	0.949563	0.902113
	H335	H	0.078311	0.945439	0.900570
	O336	O	0.013460	-0.008757	-0.116999
	H337	H	0.015541	-0.018281	-0.122103
	H338	H	0.001844	-0.002332	-0.123477
	O339	O	0.439067	0.533437	0.419553
	H340	H	0.437037	0.520077	0.429280
	H341	H	0.429777	0.534248	0.428901
	O342	O	1.010548	0.984551	1.139214
	H343	H	1.019644	1.000710	1.138365
	H344	H	1.022688	0.970584	1.143086
	O345	O	0.841348	1.942491	0.047674
	H346	H	0.848327	1.942897	0.056098
	H347	H	0.832390	1.943166	0.073241
	O348	O	0.401478	0.419789	0.519976
	H349	H	0.412786	0.418926	0.507109
	H350	H	0.389463	0.427165	0.530185
	O351	O	0.576361	0.477375	0.417520
	H352	H	0.573642	0.471957	0.422858
	H353	H	0.571002	0.487774	0.408818
	O354	O	0.504882	0.503288	0.526450
	H355	H	0.509240	0.505037	0.529198
	H356	H	0.513749	0.513490	0.531481
	O357	O	0.963555	0.112231	1.021168
	H358	H	0.955155	0.108454	1.023143
	H359	H	0.950970	0.117410	1.024054
	O360	O	0.457389	0.516301	0.493780
	H361	H	0.461224	0.509385	0.514234
	H362	H	0.440509	0.524702	0.492116
	O363	O	0.503975	0.450290	0.608093
	H364	H	0.508912	0.450023	0.616257
	H365	H	0.513217	0.454822	0.612624
	O366	O	1.057698	0.991201	0.966105
	H367	H	1.053703	0.992625	0.971888
	H368	H	1.066106	0.986859	0.967522
	O369	O	1.058444	0.049973	1.066812
	H370	H	1.068345	0.055621	1.058958
	H371	H	1.070742	0.052685	1.059009
	O372	O	-0.046415	0.078460	0.073301
	H373	H	-0.040019	0.081831	0.066642
	H374	H	-0.054012	0.085829	0.066969
	O375	O	0.955605	-0.066233	0.072358
	H376	H	0.951866	-0.067264	0.082706
	H377	H	0.966277	-0.053615	0.075046
	O378	O	0.504887	0.524462	0.486479
	H379	H	0.498687	0.521180	0.495147
	H380	H	0.499459	0.526980	0.487194
	O381	O	0.929210	0.877694	0.067406
	H382	H	0.940499	0.872227	0.066978
	H383	H	0.914442	0.876268	0.068780
