data_Molecule from HDF5

_cell_length_a		16.171646
_cell_length_b		16.339745
_cell_length_c		16.229902
_cell_angle_alpha	89.773167
_cell_angle_beta	90.134925
_cell_angle_gamma	90.050736
_symmetry_space_group_name_H-M	'P 1'
_symmetry_Int_Tables_number		1

loop_
	_symmetry_equiv_pos_as_xyz
	x,y,z

loop_
	_atom_site_label
	_atom_site_type_symbol
	_atom_site_fract_x
	_atom_site_fract_y
	_atom_site_fract_z
	H0	H	0.392235	0.836070	0.712837
	H1	H	0.591545	0.162614	0.712709
	H2	H	0.591111	0.837047	0.283697
	H3	H	0.391340	0.161693	0.278790
	H4	H	0.705842	0.402983	0.834239
	H5	H	0.703231	0.594395	0.163866
	H6	H	0.278010	0.597367	0.834135
	H7	H	0.279903	0.400756	0.163666
	H8	H	0.826108	0.712890	0.399147
	H9	H	0.155325	0.716090	0.598419
	H10	H	0.827295	0.284369	0.598469
	H11	H	0.155916	0.287138	0.399812
	H12	H	0.826369	0.402330	0.711518
	H13	H	0.156854	0.597879	0.711958
	H14	H	0.827647	0.598966	0.283170
	H15	H	0.157204	0.403790	0.286904
	H16	H	0.391929	0.714182	0.833944
	H17	H	0.591717	0.713755	0.161380
	H18	H	0.592276	0.285364	0.834160
	H19	H	0.391383	0.281444	0.160708
	H20	H	0.705336	0.837027	0.400245
	H21	H	0.705865	0.163491	0.594525
	H22	H	0.276913	0.836495	0.595128
	H23	H	0.278166	0.163922	0.398015
	H24	H	0.893513	0.337695	0.215427
	H25	H	0.091187	0.663909	0.212864
	H26	H	0.090838	0.336455	0.784247
	H27	H	0.892245	0.662964	0.783034
	H28	H	0.203227	0.903554	0.331805
	H29	H	0.206805	0.097371	0.661188
	H30	H	0.777834	0.098530	0.332273
	H31	H	0.778634	0.903173	0.661718
	H32	H	0.327153	0.214898	0.895892
	H33	H	0.655578	0.213467	0.096513
	H34	H	0.327719	0.784674	0.095503
	H35	H	0.655751	0.785459	0.898447
	H36	H	0.326683	0.901186	0.209857
	H37	H	0.656131	0.097419	0.210146
	H38	H	0.326350	0.097515	0.783330
	H39	H	0.656542	0.902967	0.785421
	H40	H	0.891803	0.217225	0.333847
	H41	H	0.091647	0.213921	0.661510
	H42	H	0.090034	0.785072	0.333385
	H43	H	0.891316	0.785162	0.660957
	H44	H	0.206503	0.336008	0.901831
	H45	H	0.207094	0.663642	0.096728
	H46	H	0.777357	0.336190	0.098328
	H47	H	0.778328	0.663700	0.900725
	H48	H	0.391879	0.116658	0.585880
	H49	H	0.584518	0.885125	0.587600
	H50	H	0.586532	0.120164	0.393074
	H51	H	0.399216	0.883336	0.401220
	H52	H	0.573837	0.395433	0.114922
	H53	H	0.585439	0.592777	0.881077
	H54	H	0.391540	0.600283	0.120449
	H55	H	0.403988	0.396991	0.879957
	H56	H	0.107838	0.597621	0.413603
	H57	H	0.875219	0.590755	0.588972
	H58	H	0.107845	0.408894	0.591233
	H59	H	0.879154	0.417870	0.413024
	H60	H	0.109260	0.406162	0.594149
	H61	H	0.872831	0.592070	0.595310
	H62	H	0.107666	0.587049	0.405817
	H63	H	0.871051	0.409295	0.393506
	H64	H	0.397247	0.582174	0.113198
	H65	H	0.584318	0.593727	0.880843
	H66	H	0.596216	0.401968	0.119506
	H67	H	0.388792	0.409175	0.878859
	H68	H	0.575265	0.113884	0.404372
	H69	H	0.588092	0.881963	0.592250
	H70	H	0.401984	0.117277	0.598521
	H71	H	0.399877	0.884311	0.405922
	H72	H	0.898536	0.617331	0.095544
	H73	H	0.091242	0.382621	0.092134
	H74	H	0.085249	0.613281	0.912514
	H75	H	0.906438	0.386022	0.906042
	H76	H	0.078161	0.913474	0.610515
	H77	H	0.091940	0.086229	0.379644
	H78	H	0.899634	0.086589	0.612021
	H79	H	0.893273	0.899662	0.376430
	H80	H	0.608036	0.092877	0.909716
	H81	H	0.374757	0.089389	0.086011
	H82	H	0.605785	0.909759	0.080636
	H83	H	0.373572	0.902406	0.908101
	H84	H	0.610006	0.913032	0.099048
	H85	H	0.374056	0.089494	0.089698
	H86	H	0.609413	0.090657	0.901034
	H87	H	0.375747	0.910236	0.906453
	H88	H	0.904858	0.096182	0.613932
	H89	H	0.073481	0.094158	0.383800
	H90	H	0.080970	0.899181	0.615956
	H91	H	0.894464	0.913827	0.381122
	H92	H	0.091492	0.618782	0.902082
	H93	H	0.083740	0.382614	0.100131
	H94	H	0.901770	0.614797	0.089367
	H95	H	0.895362	0.384630	0.912602
	H96	H	0.407303	0.111996	0.584710
	H97	H	0.581307	0.883721	0.594424
	H98	H	0.590956	0.116559	0.409278
	H99	H	0.395254	0.882871	0.403853
	H100	H	0.581168	0.417991	0.110734
	H101	H	0.585878	0.593926	0.879547
	H102	H	0.410779	0.597393	0.113466
	H103	H	0.404990	0.415546	0.886669
	H104	H	0.111662	0.598473	0.401771
	H105	H	0.873708	0.597145	0.589980
	H106	H	0.109393	0.404955	0.589528
	H107	H	0.872408	0.396364	0.412335
	H108	H	0.894443	0.616813	0.089532
	H109	H	0.081360	0.386716	0.089712
	H110	H	0.078270	0.614175	0.901013
	H111	H	0.895927	0.381180	0.899414
	H112	H	0.093233	0.909747	0.615404
	H113	H	0.087929	0.105979	0.375447
	H114	H	0.894386	0.095066	0.615973
	H115	H	0.906717	0.904409	0.381562
	H116	H	0.610001	0.098513	0.903816
	H117	H	0.373294	0.093671	0.087328
	H118	H	0.612683	0.895699	0.091424
	H119	H	0.372368	0.905336	0.900371
	C120	C	0.370594	0.007679	0.618615
	C121	C	0.613894	0.991240	0.619907
	C122	C	0.613148	0.008680	0.374945
	C123	C	0.369476	0.991402	0.374487
	C124	C	0.613066	0.377281	0.006838
	C125	C	0.613585	0.620975	0.989355
	C126	C	0.370704	0.621280	0.006958
	C127	C	0.370366	0.377842	0.989955
	C128	C	-0.000013	0.622239	0.377786
	C129	C	0.983093	0.621799	0.620067
	C130	C	-0.000075	0.377874	0.620601
	C131	C	0.983215	0.380146	0.377985
	C132	C	0.869862	0.508300	0.120692
	C133	C	0.114443	0.491839	0.121585
	C134	C	0.113855	0.508047	0.877026
	C135	C	0.870285	0.491844	0.877125
	C136	C	0.111921	0.879267	0.505197
	C137	C	0.113517	0.122706	0.488391
	C138	C	0.870386	0.121878	0.505522
	C139	C	0.869544	0.878426	0.488471
	C140	C	0.499971	0.121676	0.875735
	C141	C	0.482835	0.119904	0.117343
	C142	C	0.500736	0.877161	0.119126
	C143	C	0.482967	0.878483	0.876789
	C144	C	0.372399	0.884773	0.674314
	C145	C	0.612127	0.113929	0.674963
	C146	C	0.610874	0.885647	0.321141
	C147	C	0.371851	0.113864	0.318333
	C148	C	0.668440	0.381141	0.883310
	C149	C	0.667101	0.616527	0.113874
	C150	C	0.315318	0.618268	0.883282
	C151	C	0.316512	0.380156	0.113923
	C152	C	0.875728	0.675999	0.379190
	C153	C	0.106368	0.677794	0.618424
	C154	C	0.876265	0.322450	0.618452
	C155	C	0.106907	0.325026	0.379842
	C156	C	0.875867	0.381022	0.674818
	C157	C	0.107251	0.618963	0.674700
	C158	C	0.876322	0.619103	0.321689
	C159	C	0.107516	0.383118	0.323760
	C160	C	0.372080	0.676253	0.883232
	C161	C	0.611636	0.675630	0.112793
	C162	C	0.611759	0.322944	0.883093
	C163	C	0.371613	0.320555	0.112498
	C164	C	0.667760	0.885740	0.379168
	C165	C	0.668754	0.114360	0.615993
	C166	C	0.314818	0.885161	0.616058
	C167	C	0.315074	0.114771	0.376932
	C168	C	0.872948	0.385912	0.176706
	C169	C	0.111798	0.615121	0.175339
	C170	C	0.111503	0.384932	0.822169
	C171	C	0.872430	0.614465	0.821444
	C172	C	0.166175	0.882378	0.381097
	C173	C	0.168763	0.118670	0.612271
	C174	C	0.815439	0.119587	0.381682
	C175	C	0.815455	0.882088	0.612465
	C176	C	0.376114	0.176662	0.876545
	C177	C	0.606379	0.175589	0.116348
	C178	C	0.376850	0.822123	0.116455
	C179	C	0.606755	0.823533	0.878605
	C180	C	0.376509	0.880301	0.173152
	C181	C	0.606760	0.117596	0.172542
	C182	C	0.375880	0.118432	0.820351
	C183	C	0.607287	0.882119	0.822723
	C184	C	0.871854	0.178492	0.382443
	C185	C	0.111825	0.176742	0.612288
	C186	C	0.109945	0.823311	0.382162
	C187	C	0.871242	0.823218	0.612022
	C188	C	0.168748	0.384686	0.880663
	C189	C	0.169576	0.614777	0.117975
	C190	C	0.814998	0.385335	0.118686
	C191	C	0.815469	0.614745	0.879712
	C192	C	0.393566	0.093256	0.596183
	C193	C	0.591391	0.905683	0.597974
	C194	C	0.590884	0.094614	0.396075
	C195	C	0.391292	0.905737	0.396972
	C196	C	0.590395	0.398678	0.092766
	C197	C	0.591566	0.599852	0.902836
	C198	C	0.393167	0.599638	0.093355
	C199	C	0.392860	0.400427	0.904100
	C200	C	0.086697	0.600661	0.400337
	C201	C	0.896215	0.599701	0.597979
	C202	C	0.086560	0.400099	0.598148
	C203	C	0.896557	0.401517	0.399901
	C204	C	0.891841	0.594257	0.098280
	C205	C	0.092105	0.406219	0.100285
	C206	C	0.091549	0.593124	0.898647
	C207	C	0.892534	0.406171	0.899503
	C208	C	0.090450	0.900994	0.591455
	C209	C	0.091123	0.101671	0.402058
	C210	C	0.892926	0.099225	0.591671
	C211	C	0.891447	0.899931	0.401955
	C212	C	0.586664	0.100314	0.898325
	C213	C	0.396320	0.097392	0.094426
	C214	C	0.587356	0.899541	0.096838
	C215	C	0.396256	0.899771	0.898586
	Zn216	Zn	0.491663	-0.000380	0.748591
	Zn217	Zn	0.491992	-0.000281	0.245810
	Zn218	Zn	0.740974	0.499443	-0.001408
	Zn219	Zn	0.242513	0.499599	-0.000638
	Zn220	Zn	-0.009222	0.750324	0.497931
	Zn221	Zn	-0.008426	0.250641	0.497981
	Zn222	Zn	-0.008374	0.500112	0.747998
	Zn223	Zn	-0.007310	0.501121	0.249904
	Zn224	Zn	0.492313	0.749236	-0.002643
	Zn225	Zn	0.491175	0.248933	-0.002890
	Zn226	Zn	0.741734	0.000031	0.496670
	Zn227	Zn	0.241322	0.000205	0.496576
	N228	N	0.406215	0.962176	0.675987
	N229	N	0.578838	0.036402	0.677577
	N230	N	0.577549	0.963210	0.318417
	N231	N	0.404885	0.036384	0.316670
	N232	N	0.669263	0.414217	0.960975
	N233	N	0.668490	0.583273	0.036021
	N234	N	0.314408	0.584722	0.961226
	N235	N	0.315651	0.415108	0.036692
	N236	N	0.953760	0.678089	0.413236
	N237	N	0.028072	0.679534	0.585064
	N238	N	0.954624	0.320312	0.585541
	N239	N	0.028751	0.323089	0.412977
	N240	N	0.953777	0.414856	0.675981
	N241	N	0.029440	0.585059	0.675799
	N242	N	0.954698	0.586356	0.320805
	N243	N	0.029613	0.416819	0.322496
	N244	N	0.405938	0.678088	0.961089
	N245	N	0.579060	0.678502	0.034440
	N246	N	0.578024	0.320222	0.960903
	N247	N	0.404430	0.319030	0.034437
	N248	N	0.669286	0.963148	0.411834
	N249	N	0.669857	0.037084	0.582450
	N250	N	0.313471	0.962619	0.582274
	N251	N	0.313636	0.037610	0.411364
	N252	N	0.906101	0.463475	0.178219
	N253	N	0.078230	0.537769	0.177885
	N254	N	0.078177	0.462478	0.819689
	N255	N	0.905751	0.537025	0.819771
	N256	N	0.167644	0.916549	0.458540
	N257	N	0.170132	0.086085	0.534264
	N258	N	0.814357	0.085050	0.459119
	N259	N	0.814564	0.915819	0.534727
	N260	N	0.454177	0.178863	0.910273
	N261	N	0.528215	0.176830	0.082404
	N262	N	0.455117	0.820014	0.083595
	N263	N	0.528614	0.821451	0.911869
	N264	N	0.454734	0.913748	0.174810
	N265	N	0.528899	0.083721	0.173102
	N266	N	0.454016	0.085216	0.819521
	N267	N	0.529240	0.915367	0.821303
	N268	N	0.905274	0.179952	0.460589
	N269	N	0.077957	0.179355	0.534336
	N270	N	0.076997	0.821370	0.460313
	N271	N	0.904197	0.820896	0.533938
	N272	N	0.170369	0.461884	0.914059
	N273	N	0.171342	0.537273	0.085248
	N274	N	0.813219	0.462541	0.084408
	N275	N	0.814004	0.537495	0.913792
	O276	O	0.455964	0.460352	0.514805
	H277	H	0.457413	0.458056	0.525816
	H278	H	0.451191	0.456736	0.523436
	O279	O	0.397592	0.453890	0.479533
	H280	H	0.407514	0.449013	0.473479
	H281	H	0.408992	0.456765	0.486571
	O282	O	0.473317	0.540180	0.527358
	H283	H	0.462602	0.539409	0.530484
	H284	H	0.469782	0.548214	0.513933
	O285	O	0.431359	1.508830	0.513273
	H286	H	0.433624	1.507073	0.516567
	H287	H	0.432616	1.506423	0.503027
	O288	O	0.484117	0.501468	0.431657
	H289	H	0.481694	0.488713	0.428590
	H290	H	0.479785	0.504629	0.431372
	O291	O	-0.034109	0.027465	0.919756
	H292	H	-0.034698	0.017500	0.916566
	H293	H	-0.032283	0.027619	0.923818
	O294	O	0.977379	0.039496	0.934667
	H295	H	0.971910	0.044425	0.933725
	H296	H	0.970231	0.041970	0.936495
	O297	O	0.513133	0.518394	0.482603
	H298	H	0.517447	0.515934	0.487222
	H299	H	0.502036	0.523299	0.486191
	O300	O	0.404807	0.449155	0.547891
	H301	H	0.403788	0.439526	0.549663
	H302	H	0.405266	0.440664	0.548814
	O303	O	0.446990	0.536228	0.540060
	H304	H	0.446427	0.531017	0.538921
	H305	H	0.447954	0.538837	0.533321
	O306	O	1.000592	-0.009306	0.941020
	H307	H	0.996999	-0.006015	0.936745
	H308	H	1.004417	-0.009897	0.942601
	O309	O	0.457845	0.411497	0.534020
	H310	H	0.462451	0.407339	0.531066
	H311	H	0.451984	0.412537	0.529454
	O312	O	0.525867	0.495709	0.469465
	H313	H	0.520094	0.495771	0.469031
	H314	H	0.526788	0.495921	0.465783
	O315	O	0.941701	0.032525	0.922376
	H316	H	0.933769	0.028331	0.920274
	H317	H	0.940974	0.034255	0.928966
	O318	O	0.022804	0.005430	-0.033113
	H319	H	0.026718	0.014256	-0.036442
	H320	H	0.022468	0.006068	-0.031718
	O321	O	0.880715	0.939753	0.888419
	H322	H	0.883628	0.935538	0.879346
	H323	H	0.878438	0.933407	0.889655
	O324	O	0.980601	-0.003912	-0.059451
	H325	H	0.993481	-0.000503	-0.052624
	H326	H	0.976643	-0.015548	-0.067293
	O327	O	0.982121	0.981657	-0.044055
	H328	H	0.980694	0.971804	-0.051459
	H329	H	0.984939	0.990917	-0.040501
	O330	O	0.517098	0.502670	0.551202
	H331	H	0.523626	0.512568	0.558413
	H332	H	0.516455	0.509749	0.559213
	O333	O	0.458731	0.497008	0.513752
	H334	H	0.457372	0.493090	0.513109
	H335	H	0.453855	0.505560	0.511513
