data_Molecule from HDF5

_cell_length_a		16.492790
_cell_length_b		16.430646
_cell_length_c		16.552233
_cell_angle_alpha	89.945733
_cell_angle_beta	90.066266
_cell_angle_gamma	89.985136
_symmetry_space_group_name_H-M	'P 1'
_symmetry_Int_Tables_number		1

loop_
	_symmetry_equiv_pos_as_xyz
	x,y,z

loop_
	_atom_site_label
	_atom_site_type_symbol
	_atom_site_fract_x
	_atom_site_fract_y
	_atom_site_fract_z
	H0	H	0.398925	0.841102	0.740168
	H1	H	0.611484	0.156081	0.743174
	H2	H	0.612262	0.841827	0.296071
	H3	H	0.398007	0.156267	0.298921
	H4	H	0.726359	0.390825	0.861943
	H5	H	0.724902	0.605816	0.174606
	H6	H	0.283345	0.601435	0.860472
	H7	H	0.284124	0.397860	0.175807
	H8	H	0.843216	0.722660	0.410247
	H9	H	0.158631	0.717954	0.620807
	H10	H	0.844661	0.274101	0.626355
	H11	H	0.160086	0.281468	0.416416
	H12	H	0.845724	0.388432	0.744127
	H13	H	0.157090	0.604134	0.740271
	H14	H	0.843018	0.605889	0.294036
	H15	H	0.158225	0.394832	0.297083
	H16	H	0.399371	0.719798	0.861183
	H17	H	0.609011	0.720571	0.176265
	H18	H	0.609457	0.275042	0.862062
	H19	H	0.398983	0.278940	0.175841
	H20	H	0.726916	0.842048	0.412243
	H21	H	0.727505	0.155390	0.627267
	H22	H	0.282267	0.840766	0.624987
	H23	H	0.283255	0.156995	0.417123
	H24	H	0.894459	0.341194	0.238639
	H25	H	0.104830	0.656161	0.238191
	H26	H	0.107022	0.341617	0.796478
	H27	H	0.892476	0.655361	0.793457
	H28	H	0.223263	0.894176	0.362484
	H29	H	0.222327	0.103442	0.677046
	H30	H	0.775319	0.109442	0.364592
	H31	H	0.778482	0.890896	0.675020
	H32	H	0.344308	0.218431	0.915880
	H33	H	0.659861	0.221410	0.124719
	H34	H	0.343774	0.780812	0.120742
	H35	H	0.659509	0.774756	0.911869
	H36	H	0.345163	0.894358	0.239860
	H37	H	0.659372	0.105804	0.242010
	H38	H	0.346233	0.105451	0.796268
	H39	H	0.658510	0.889310	0.793863
	H40	H	0.894554	0.222496	0.362319
	H41	H	0.107045	0.221383	0.675889
	H42	H	0.104472	0.779388	0.360824
	H43	H	0.896575	0.776645	0.675299
	H44	H	0.222779	0.340617	0.912728
	H45	H	0.220594	0.657270	0.120378
	H46	H	0.779748	0.342339	0.123288
	H47	H	0.777415	0.655632	0.909875
	H48	H	0.419204	0.112291	0.613090
	H49	H	0.583353	0.886635	0.615198
	H50	H	0.584951	0.107236	0.436792
	H51	H	0.415594	0.885860	0.429698
	H52	H	0.592549	0.415352	0.128005
	H53	H	0.584349	0.580862	0.910841
	H54	H	0.415181	0.589936	0.130272
	H55	H	0.414037	0.408507	0.905531
	H56	H	0.114325	0.595334	0.430050
	H57	H	0.886404	0.591004	0.607031
	H58	H	0.110556	0.422700	0.610210
	H59	H	0.887708	0.410030	0.427925
	H60	H	0.118217	0.403828	0.615635
	H61	H	0.890538	0.584937	0.601079
	H62	H	0.108934	0.581793	0.432703
	H63	H	0.887723	0.410818	0.429350
	H64	H	0.408891	0.593138	0.133940
	H65	H	0.585926	0.594338	0.906217
	H66	H	0.587181	0.411411	0.127584
	H67	H	0.412066	0.405900	0.903677
	H68	H	0.594769	0.112218	0.433483
	H69	H	0.584188	0.893219	0.596903
	H70	H	0.411354	0.110143	0.601751
	H71	H	0.411765	0.884689	0.432132
	H72	H	0.908673	0.616468	0.113057
	H73	H	0.088629	0.384504	0.111184
	H74	H	0.085841	0.609335	0.928437
	H75	H	0.916028	0.388000	0.931567
	H76	H	0.097635	0.910855	0.633004
	H77	H	0.089303	0.085893	0.408778
	H78	H	0.919297	0.083298	0.627613
	H79	H	0.915570	0.911921	0.407785
	H80	H	0.614151	0.084295	0.930653
	H81	H	0.389844	0.089728	0.106527
	H82	H	0.615129	0.908939	0.107822
	H83	H	0.391174	0.910600	0.929564
	H84	H	0.615324	0.911666	0.108216
	H85	H	0.391393	0.084635	0.110516
	H86	H	0.615790	0.087084	0.929801
	H87	H	0.392604	0.910849	0.931189
	H88	H	0.916944	0.090322	0.630835
	H89	H	0.090936	0.094341	0.405304
	H90	H	0.087686	0.910519	0.630550
	H91	H	0.913418	0.911002	0.407028
	H92	H	0.096038	0.611674	0.933369
	H93	H	0.091735	0.385488	0.103822
	H94	H	0.923637	0.609225	0.107002
	H95	H	0.915112	0.388010	0.933048
	H96	H	0.406279	0.116681	0.613303
	H97	H	0.599803	0.884679	0.604990
	H98	H	0.586150	0.111441	0.425706
	H99	H	0.412803	0.883672	0.427675
	H100	H	0.592802	0.408873	0.131457
	H101	H	0.596706	0.585167	0.905463
	H102	H	0.408704	0.586039	0.131605
	H103	H	0.410690	0.409003	0.904606
	H104	H	0.114293	0.584955	0.419831
	H105	H	0.888413	0.581653	0.609622
	H106	H	0.110482	0.407152	0.596247
	H107	H	0.888166	0.411048	0.428217
	H108	H	0.909331	0.610543	0.096183
	H109	H	0.096178	0.382318	0.110019
	H110	H	0.093887	0.615243	0.922757
	H111	H	0.913887	0.387147	0.931892
	H112	H	0.092396	0.902104	0.633404
	H113	H	0.097890	0.087812	0.405139
	H114	H	0.911364	0.084147	0.630252
	H115	H	0.913395	0.913506	0.408292
	H116	H	0.614929	0.086561	0.932800
	H117	H	0.388366	0.089999	0.111989
	H118	H	0.616672	0.910346	0.109717
	H119	H	0.391394	0.912702	0.930122
	C120	C	0.380959	0.008173	0.640989
	C121	C	0.623713	0.991277	0.639925
	C122	C	0.623679	0.007190	0.398184
	C123	C	0.381291	0.989621	0.398325
	C124	C	0.624247	0.377670	0.026006
	C125	C	0.622640	0.620330	1.010647
	C126	C	0.380565	0.620561	0.027086
	C127	C	0.380760	0.377079	1.009152
	C128	C	0.008548	0.620519	0.395177
	C129	C	0.992313	0.618777	0.638595
	C130	C	0.009614	0.376969	0.640620
	C131	C	0.992177	0.378116	0.397121
	C132	C	0.880427	0.507848	0.138238
	C133	C	0.122877	0.489518	0.139086
	C134	C	0.123397	0.507608	0.896363
	C135	C	0.880397	0.490696	0.897321
	C136	C	0.123766	0.876605	0.527957
	C137	C	0.123947	0.120709	0.510794
	C138	C	0.881181	0.120427	0.527056
	C139	C	0.880716	0.878313	0.510675
	C140	C	0.510910	0.119121	0.898544
	C141	C	0.494187	0.120544	0.141365
	C142	C	0.511271	0.878125	0.140292
	C143	C	0.494905	0.877561	0.897327
	C144	C	0.379862	0.888657	0.700643
	C145	C	0.628519	0.108950	0.702261
	C146	C	0.628926	0.889129	0.336664
	C147	C	0.379768	0.108893	0.339055
	C148	C	0.685586	0.373600	0.908620
	C149	C	0.684481	0.623616	0.127832
	C150	C	0.322478	0.621309	0.907901
	C151	C	0.322802	0.377295	0.128360
	C152	C	0.890469	0.682065	0.392229
	C153	C	0.110980	0.678662	0.640204
	C154	C	0.892024	0.314749	0.644145
	C155	C	0.112028	0.319997	0.396748
	C156	C	0.892614	0.371289	0.703223
	C157	C	0.110344	0.622022	0.699429
	C158	C	0.890315	0.624070	0.334144
	C159	C	0.111005	0.376357	0.337436
	C160	C	0.380089	0.679821	0.908327
	C161	C	0.626287	0.680690	0.128640
	C162	C	0.627862	0.315434	0.909092
	C163	C	0.380041	0.318654	0.128457
	C164	C	0.686246	0.889378	0.394538
	C165	C	0.686329	0.108725	0.644685
	C166	C	0.321897	0.888493	0.643172
	C167	C	0.322852	0.109455	0.397854
	C168	C	0.876907	0.388971	0.198719
	C169	C	0.123838	0.608997	0.198052
	C170	C	0.125343	0.388743	0.836506
	C171	C	0.875610	0.608391	0.834758
	C172	C	0.183246	0.875388	0.409550
	C173	C	0.182896	0.122115	0.629471
	C174	C	0.817178	0.125989	0.410773
	C175	C	0.819279	0.873967	0.628157
	C176	C	0.392149	0.179166	0.896673
	C177	C	0.612553	0.181065	0.143271
	C178	C	0.391862	0.819254	0.140959
	C179	C	0.612504	0.815485	0.894031
	C180	C	0.392513	0.875875	0.199878
	C181	C	0.612407	0.123604	0.201599
	C182	C	0.392986	0.122848	0.837304
	C183	C	0.612307	0.872820	0.835490
	C184	C	0.876613	0.182315	0.409767
	C185	C	0.125461	0.180740	0.629044
	C186	C	0.124188	0.818305	0.408666
	C187	C	0.877873	0.816862	0.628398
	C188	C	0.183343	0.388494	0.894126
	C189	C	0.181325	0.609331	0.139645
	C190	C	0.819442	0.389458	0.141381
	C191	C	0.817943	0.608532	0.892362
	C192	C	0.405286	0.091382	0.616547
	C193	C	0.596834	0.909497	0.613297
	C194	C	0.596388	0.088870	0.424536
	C195	C	0.406024	0.906402	0.422850
	C196	C	0.598266	0.404314	0.107653
	C197	C	0.596531	0.594343	0.928658
	C198	C	0.404124	0.596543	0.110353
	C199	C	0.405069	0.400917	0.926285
	C200	C	0.091074	0.594717	0.420370
	C201	C	0.909856	0.593031	0.613131
	C202	C	0.091652	0.403714	0.614850
	C203	C	0.909538	0.403120	0.421574
	C204	C	0.906502	0.590390	0.112613
	C205	C	0.098971	0.405942	0.115186
	C206	C	0.098714	0.590716	0.921053
	C207	C	0.907323	0.409136	0.924428
	C208	C	0.099373	0.900732	0.610819
	C209	C	0.099650	0.096326	0.427867
	C210	C	0.908072	0.093517	0.608340
	C211	C	0.906636	0.904688	0.428944
	C212	C	0.593361	0.093396	0.923910
	C213	C	0.411401	0.095264	0.116629
	C214	C	0.593920	0.903150	0.115666
	C215	C	0.413120	0.904077	0.922945
	Zn216	Zn	0.503480	-0.000948	0.768379
	Zn217	Zn	0.503088	-0.001407	0.269708
	Zn218	Zn	0.752105	0.499879	0.017922
	Zn219	Zn	0.251832	0.498642	0.017668
	Zn220	Zn	0.000402	0.748148	0.518123
	Zn221	Zn	0.001755	0.249417	0.518608
	Zn222	Zn	0.000703	0.498700	0.768787
	Zn223	Zn	-0.000052	0.498689	0.266938
	Zn224	Zn	0.502173	0.749045	0.019367
	Zn225	Zn	0.502796	0.248502	0.018984
	Zn226	Zn	0.752158	-0.000623	0.519179
	Zn227	Zn	0.252926	-0.001211	0.519515
	N228	N	0.415607	0.964129	0.699698
	N229	N	0.590177	0.034773	0.699233
	N230	N	0.590589	0.963469	0.338830
	N231	N	0.415358	0.033340	0.339195
	N232	N	0.683460	0.411469	0.982552
	N233	N	0.682511	0.587007	0.053287
	N234	N	0.322572	0.585366	0.982886
	N235	N	0.323144	0.412632	0.053315
	N236	N	0.964987	0.680028	0.429491
	N237	N	0.036529	0.676666	0.603172
	N238	N	0.965810	0.318227	0.605803
	N239	N	0.037230	0.320944	0.433032
	N240	N	0.966741	0.409314	0.701075
	N241	N	0.035345	0.585633	0.698594
	N242	N	0.964883	0.586571	0.336012
	N243	N	0.035319	0.411564	0.337083
	N244	N	0.415134	0.679632	0.983629
	N245	N	0.588717	0.678804	0.054648
	N246	N	0.590384	0.317933	0.983019
	N247	N	0.415192	0.318168	0.053155
	N248	N	0.683246	0.963807	0.431937
	N249	N	0.683332	0.034663	0.606652
	N250	N	0.322624	0.963746	0.606683
	N251	N	0.323567	0.034166	0.433714
	N252	N	0.914172	0.463610	0.196823
	N253	N	0.088227	0.533512	0.197916
	N254	N	0.088851	0.463900	0.837679
	N255	N	0.913523	0.534055	0.837596
	N256	N	0.183330	0.910642	0.484771
	N257	N	0.182056	0.085606	0.554894
	N258	N	0.820101	0.088249	0.484753
	N259	N	0.820948	0.911339	0.553810
	N260	N	0.466806	0.177265	0.933683
	N261	N	0.537966	0.179181	0.106445
	N262	N	0.466879	0.820325	0.104860
	N263	N	0.538619	0.818414	0.931943
	N264	N	0.467785	0.911508	0.199707
	N265	N	0.537661	0.086773	0.200651
	N266	N	0.467922	0.086399	0.838243
	N267	N	0.538266	0.910896	0.837500
	N268	N	0.915563	0.179013	0.483149
	N269	N	0.089600	0.180085	0.554075
	N270	N	0.088097	0.818824	0.483410
	N271	N	0.915180	0.819406	0.554388
	N272	N	0.182187	0.463386	0.930665
	N273	N	0.180998	0.533888	0.103941
	N274	N	0.821263	0.464585	0.104696
	N275	N	0.820993	0.534455	0.930718
	O276	O	0.483239	0.366577	0.359932
	H277	H	0.495501	0.354576	0.355430
	H278	H	0.499737	0.357477	0.371635
	O279	O	0.699061	0.471445	0.311212
	H280	H	0.691093	0.487001	0.294221
	H281	H	0.707874	0.496097	0.332264
	O282	O	1.115160	0.944205	0.047405
	H283	H	1.111510	0.936991	0.041743
	H284	H	1.110771	0.938394	0.046812
	O285	O	0.312385	0.689784	0.320328
	H286	H	0.330905	0.665563	0.314597
	H287	H	0.287448	0.705466	0.311598
	O288	O	0.216635	-0.030032	-0.190223
	H289	H	0.207468	-0.025742	-0.187268
	H290	H	0.230659	-0.027968	-0.213427
	O291	O	0.311159	0.307156	0.712428
	H292	H	0.298198	0.338919	0.715255
	H293	H	0.309390	0.311223	0.725253
	O294	O	0.217549	1.211393	0.053074
	H295	H	0.222007	1.209537	0.047777
	H296	H	0.230752	1.220955	0.058479
	O297	O	0.637656	0.304194	0.326001
	H298	H	0.654603	0.296783	0.361892
	H299	H	0.640653	0.333576	0.322642
	O300	O	0.390240	0.500446	0.401071
	H301	H	0.395322	0.486551	0.413895
	H302	H	0.387080	0.487460	0.400492
	O303	O	0.987005	0.799819	0.217285
	H304	H	0.997177	0.792472	0.209401
	H305	H	0.997104	0.799003	0.223930
	O306	O	0.382546	0.520504	1.416174
	H307	H	0.386818	0.529834	1.410243
	H308	H	0.380155	0.514108	1.434556
	O309	O	0.385230	0.520929	0.610961
	H310	H	0.381917	0.536932	0.611356
	H311	H	0.401302	0.521588	0.607095
	O312	O	0.545224	0.319913	0.584627
	H313	H	0.542809	0.324495	0.589230
	H314	H	0.536466	0.321749	0.573717
	O315	O	0.159015	0.136429	0.848632
	H316	H	0.148429	0.123624	0.847057
	H317	H	0.141719	0.136551	0.861023
	O318	O	-0.038901	1.060522	0.216438
	H319	H	-0.024965	1.065638	0.207751
	H320	H	-0.016863	1.073579	0.214742
	O321	O	0.302040	0.470416	0.722142
	H322	H	0.288588	0.488573	0.733825
	H323	H	0.310870	0.494286	0.704253
	O324	O	1.033773	0.009167	0.830645
	H325	H	1.021918	0.021477	0.830702
	H326	H	1.025004	0.010673	0.832179
	O327	O	0.879094	0.107822	1.146560
	H328	H	0.874975	0.101797	1.134243
	H329	H	0.878717	0.109716	1.153547
	O330	O	0.546072	0.592177	-0.529569
	H331	H	0.553701	0.595953	-0.537618
	H332	H	0.555987	0.599544	-0.516818
	O333	O	0.830384	1.045916	1.055318
	H334	H	0.817031	1.030576	1.044979
	H335	H	0.827382	1.041559	1.078889
	O336	O	1.217987	0.024416	1.010355
	H337	H	1.222480	0.029979	1.007627
	H338	H	1.210775	0.031490	1.017495
	O339	O	0.202922	0.199874	0.221566
	H340	H	0.230087	0.213100	0.245960
	H341	H	0.185300	0.208663	0.195491
	O342	O	0.510237	0.434323	0.297440
	H343	H	0.510809	0.405114	0.295597
	H344	H	0.511868	0.440611	0.300088
	O345	O	0.210782	0.029771	0.232577
	H346	H	0.231267	0.037192	0.247575
	H347	H	0.210211	0.050718	0.232965
	O348	O	1.055582	-0.200470	0.965310
	H349	H	1.065063	-0.204895	0.970347
	H350	H	1.056716	-0.205109	0.951950
	O351	O	0.810843	0.987445	-0.187134
	H352	H	0.818205	1.007382	-0.191536
	H353	H	0.799419	0.989584	-0.203236
	O354	O	0.447806	0.716615	0.567220
	H355	H	0.445890	0.714884	0.574806
	H356	H	0.424080	0.716148	0.563982
	O357	O	0.984689	1.121619	0.912318
	H358	H	0.974659	1.133060	0.908336
	H359	H	0.983157	1.123151	0.915207
	O360	O	0.743379	0.248852	0.319714
	H361	H	0.744819	0.273834	0.321872
	H362	H	0.753666	0.250426	0.338963
	O363	O	1.007127	0.185001	0.910725
	H364	H	0.999726	0.186885	0.931519
	H365	H	0.995645	0.191763	0.906284
	O366	O	1.311494	0.342896	0.354549
	H367	H	1.326269	0.365738	0.364366
	H368	H	1.324192	0.347918	0.371630
	O369	O	0.416133	0.343229	0.524960
	H370	H	0.407076	0.345509	0.527560
	H371	H	0.399884	0.342565	0.523290
	O372	O	0.518464	0.697609	0.725046
	H373	H	0.527294	0.717933	0.737186
	H374	H	0.530596	0.682997	0.717826
	O375	O	-0.069471	0.948777	0.880857
	H376	H	-0.061346	0.957683	0.890228
	H377	H	-0.070438	0.951460	0.889618
	O378	O	1.030437	0.194663	0.007577
	H379	H	1.037466	0.190749	0.009966
	H380	H	1.035637	0.188919	0.034904
	O381	O	0.798918	0.202267	-0.045026
	H382	H	0.776502	0.222120	-0.055420
	H383	H	0.788113	0.182886	-0.014384
	O384	O	0.164870	-0.217927	1.009360
	H385	H	0.156616	-0.204766	0.993328
	H386	H	0.178443	-0.238513	1.006937
	O387	O	-0.372938	1.521687	0.401213
	H388	H	-0.381038	1.528632	0.406708
	H389	H	-0.373428	1.510200	0.402306
	O390	O	-0.199161	-0.076106	1.223269
	H391	H	-0.205215	-0.076300	1.253940
	H392	H	-0.176338	-0.047033	1.236238
	O393	O	0.913921	0.814429	-0.067981
	H394	H	0.908673	0.816933	-0.073128
	H395	H	0.904264	0.812500	-0.061460
	O396	O	0.286047	0.715772	0.486606
	H397	H	0.275986	0.718243	0.467622
	H398	H	0.271156	0.729356	0.475264
	O399	O	-0.182654	-0.190683	0.141429
	H400	H	-0.192657	-0.163302	0.161134
	H401	H	-0.159571	-0.197234	0.155984
	O402	O	-0.197484	0.021778	0.995858
	H403	H	-0.195234	0.007416	0.990098
	H404	H	-0.199596	0.008043	0.998156
	O405	O	0.182576	-0.204154	0.200821
	H406	H	0.191383	-0.192726	0.188209
	H407	H	0.158826	-0.189183	0.183643
	O408	O	0.396857	0.598435	0.718930
	H409	H	0.376970	0.609584	0.735077
	H410	H	0.436578	0.595136	0.728129
	O411	O	0.282973	0.348019	0.495301
	H412	H	0.277880	0.353637	0.510081
	H413	H	0.266001	0.342365	0.511424
	O414	O	0.614780	0.548580	0.434777
	H415	H	0.616246	0.548671	0.430339
	H416	H	0.615769	0.558196	0.457176
	O417	O	0.711797	0.484130	0.657869
	H418	H	0.714602	0.489377	0.673855
	H419	H	0.721970	0.491938	0.654973
	O420	O	0.683888	0.687849	0.707627
	H421	H	0.702773	0.675107	0.715339
	H422	H	0.672829	0.688172	0.690540
	O423	O	0.033149	1.214620	0.237501
	H424	H	0.041635	1.224036	0.223362
	H425	H	0.043524	1.239650	0.256851
	O426	O	0.609081	1.410359	0.650488
	H427	H	0.592027	1.398268	0.656322
	H428	H	0.612477	1.404429	0.670219
	O429	O	0.226115	0.772623	-0.202247
	H430	H	0.188935	0.768030	-0.202130
	H431	H	0.232978	0.804270	-0.202558
	O432	O	0.290535	0.569323	0.578838
	H433	H	0.305558	0.572390	0.572943
	H434	H	0.283030	0.589553	0.581316
	O435	O	-0.121411	-0.108269	0.020134
	H436	H	-0.144342	-0.126780	0.022820
	H437	H	-0.120877	-0.111436	0.049723
	O438	O	0.820831	0.132306	-0.172250
	H439	H	0.826566	0.133191	-0.177087
	H440	H	0.823794	0.145357	-0.147838
	O441	O	0.716852	0.709594	0.546001
	H442	H	0.713700	0.726406	0.539485
	H443	H	0.716685	0.725923	0.550146
	O444	O	0.068508	0.889347	0.971193
	H445	H	0.063041	0.890435	0.990017
	H446	H	0.051495	0.892216	0.973866
	O447	O	0.646401	0.424579	-0.350405
	H448	H	0.636916	0.407242	-0.339430
	H449	H	0.633849	0.437911	-0.359900
	O450	O	0.477017	0.282464	0.736330
	H451	H	0.457571	0.272884	0.733986
	H452	H	0.462620	0.262586	0.747348
	O453	O	0.669416	0.282733	0.517971
	H454	H	0.658122	0.270350	0.522794
	H455	H	0.682575	0.278143	0.525571
	O456	O	1.026004	0.813426	-0.182974
	H457	H	1.024071	0.805323	-0.183057
	H458	H	1.020930	0.815509	-0.196227
	O459	O	0.475249	0.722298	0.300628
	H460	H	0.481079	0.732554	0.280731
	H461	H	0.451532	0.722191	0.289657
	O462	O	0.529460	0.676558	0.543052
	H463	H	0.523935	0.668745	0.519368
	H464	H	0.499212	0.676833	0.554660
	O465	O	1.068859	-0.048697	0.230066
	H466	H	1.077721	-0.037649	0.217262
	H467	H	1.074994	-0.043270	0.234145
