data_Molecule from HDF5

_cell_length_a		16.357654
_cell_length_b		16.216305
_cell_length_c		16.229108
_cell_angle_alpha	90.250000
_cell_angle_beta	90.044784
_cell_angle_gamma	90.091352
_symmetry_space_group_name_H-M	'P 1'
_symmetry_Int_Tables_number		1

loop_
	_symmetry_equiv_pos_as_xyz
	x,y,z

loop_
	_atom_site_label
	_atom_site_type_symbol
	_atom_site_fract_x
	_atom_site_fract_y
	_atom_site_fract_z
	H0	H	0.407007	0.840911	0.717192
	H1	H	0.601076	0.171226	0.720136
	H2	H	0.600344	0.842250	0.292966
	H3	H	0.406527	0.171769	0.293438
	H4	H	0.717971	0.405671	0.841176
	H5	H	0.720237	0.607914	0.168982
	H6	H	0.288736	0.605544	0.841616
	H7	H	0.286947	0.406303	0.168327
	H8	H	0.839824	0.719629	0.407985
	H9	H	0.166868	0.721918	0.604848
	H10	H	0.839963	0.293533	0.602702
	H11	H	0.166861	0.292113	0.406425
	H12	H	0.840352	0.408592	0.719386
	H13	H	0.166949	0.605442	0.720647
	H14	H	0.840528	0.603429	0.291210
	H15	H	0.166398	0.407067	0.288974
	H16	H	0.406812	0.718984	0.841149
	H17	H	0.602054	0.720929	0.170084
	H18	H	0.600744	0.291004	0.841962
	H19	H	0.406564	0.294963	0.171211
	H20	H	0.718396	0.842722	0.404872
	H21	H	0.719140	0.170780	0.606551
	H22	H	0.288012	0.842734	0.605400
	H23	H	0.289397	0.170672	0.407359
	H24	H	0.905783	0.341764	0.217095
	H25	H	0.100514	0.671239	0.218174
	H26	H	0.100327	0.342056	0.791226
	H27	H	0.905782	0.671523	0.792227
	H28	H	0.219202	0.905919	0.342133
	H29	H	0.218349	0.106195	0.670072
	H30	H	0.788893	0.104437	0.341587
	H31	H	0.788475	0.906587	0.669527
	H32	H	0.339870	0.219546	0.910098
	H33	H	0.666259	0.222158	0.105968
	H34	H	0.340563	0.791845	0.103960
	H35	H	0.667287	0.792075	0.908378
	H36	H	0.340707	0.908580	0.220123
	H37	H	0.667304	0.106100	0.221816
	H38	H	0.340436	0.104362	0.791630
	H39	H	0.666504	0.906020	0.790247
	H40	H	0.905235	0.219151	0.340786
	H41	H	0.101095	0.221354	0.669933
	H42	H	0.102137	0.791796	0.341278
	H43	H	0.906829	0.793338	0.670196
	H44	H	0.217828	0.342525	0.905435
	H45	H	0.219965	0.669930	0.106609
	H46	H	0.788524	0.343055	0.104060
	H47	H	0.789560	0.670589	0.906351
	H48	H	0.403723	0.126036	0.601579
	H49	H	0.604377	0.889686	0.589787
	H50	H	0.589788	0.121516	0.415354
	H51	H	0.410778	0.889185	0.410556
	H52	H	0.590453	0.420948	0.118599
	H53	H	0.603913	0.589601	0.888921
	H54	H	0.411069	0.604048	0.123969
	H55	H	0.409626	0.410882	0.887873
	H56	H	0.119910	0.603603	0.414736
	H57	H	0.888544	0.593679	0.601615
	H58	H	0.119482	0.406086	0.591396
	H59	H	0.887501	0.413923	0.408718
	H60	H	0.116249	0.422902	0.595321
	H61	H	0.884649	0.605363	0.603082
	H62	H	0.117532	0.595394	0.414983
	H63	H	0.887000	0.410305	0.411614
	H64	H	0.406716	0.595420	0.122816
	H65	H	0.587132	0.597994	0.891801
	H66	H	0.595686	0.405444	0.124781
	H67	H	0.409672	0.416432	0.889564
	H68	H	0.602580	0.123736	0.421158
	H69	H	0.599036	0.887034	0.606264
	H70	H	0.416505	0.123302	0.604250
	H71	H	0.411905	0.890816	0.414488
	H72	H	0.904354	0.624930	0.094682
	H73	H	0.095431	0.389400	0.097311
	H74	H	0.098790	0.620671	0.925183
	H75	H	0.896425	0.383106	0.904203
	H76	H	0.106721	0.918125	0.623865
	H77	H	0.094670	0.092028	0.391991
	H78	H	0.912652	0.099434	0.622115
	H79	H	0.912694	0.905358	0.387039
	H80	H	0.619481	0.103740	0.918813
	H81	H	0.387133	0.098422	0.105397
	H82	H	0.618600	0.912572	0.097075
	H83	H	0.393121	0.923669	0.916686
	H84	H	0.619647	0.916715	0.100113
	H85	H	0.386822	0.104084	0.099115
	H86	H	0.617316	0.092381	0.913706
	H87	H	0.383986	0.911363	0.899140
	H88	H	0.909571	0.100192	0.622407
	H89	H	0.093166	0.104903	0.388447
	H90	H	0.089868	0.921131	0.618646
	H91	H	0.901433	0.916065	0.387499
	H92	H	0.106052	0.628477	0.907017
	H93	H	0.096876	0.390236	0.095033
	H94	H	0.911476	0.625644	0.104986
	H95	H	0.924074	0.390988	0.903145
	H96	H	0.411465	0.121213	0.591892
	H97	H	0.587880	0.893871	0.594785
	H98	H	0.600383	0.127196	0.407300
	H99	H	0.407780	0.888821	0.414155
	H100	H	0.607081	0.419336	0.123252
	H101	H	0.601474	0.608318	0.884262
	H102	H	0.415033	0.596391	0.119825
	H103	H	0.414113	0.413371	0.890326
	H104	H	0.120468	0.599072	0.407672
	H105	H	0.890001	0.601443	0.592583
	H106	H	0.122591	0.411779	0.607530
	H107	H	0.888639	0.414266	0.413238
	H108	H	0.916319	0.621310	0.094368
	H109	H	0.097847	0.388475	0.096636
	H110	H	0.086524	0.621880	0.908715
	H111	H	0.909892	0.394028	0.927608
	H112	H	0.094906	0.904861	0.624928
	H113	H	0.104961	0.099132	0.386864
	H114	H	0.910236	0.097346	0.622274
	H115	H	0.915578	0.919443	0.391806
	H116	H	0.621751	0.101555	0.906727
	H117	H	0.389077	0.096629	0.097563
	H118	H	0.621205	0.911588	0.101448
	H119	H	0.386681	0.901431	0.920084
	C120	C	0.382174	0.014851	0.627517
	C121	C	0.625588	0.998520	0.626660
	C122	C	0.625307	0.015276	0.385230
	C123	C	0.382178	0.998351	0.384789
	C124	C	0.625561	0.385160	0.013980
	C125	C	0.625971	0.628008	0.996966
	C126	C	0.382712	0.627197	0.013841
	C127	C	0.382493	0.384823	0.997312
	C128	C	0.011782	0.627790	0.384016
	C129	C	0.995523	0.628968	0.627910
	C130	C	0.011526	0.385347	0.626507
	C131	C	0.995379	0.384048	0.382550
	C132	C	0.882183	0.515259	0.126355
	C133	C	0.125735	0.497732	0.126430
	C134	C	0.125143	0.515023	0.883997
	C135	C	0.882060	0.498270	0.883622
	C136	C	0.125288	0.885612	0.514086
	C137	C	0.125710	0.128184	0.497274
	C138	C	0.881907	0.127668	0.513931
	C139	C	0.882064	0.885083	0.497389
	C140	C	0.511713	0.127516	0.884838
	C141	C	0.495499	0.128551	0.129230
	C142	C	0.512090	0.884852	0.128038
	C143	C	0.495569	0.883890	0.883705
	C144	C	0.385257	0.890638	0.681116
	C145	C	0.622182	0.121981	0.682351
	C146	C	0.621776	0.891381	0.330062
	C147	C	0.385649	0.122285	0.330515
	C148	C	0.680233	0.386168	0.890456
	C149	C	0.681550	0.627232	0.120294
	C150	C	0.327353	0.625146	0.890350
	C151	C	0.325971	0.386437	0.120280
	C152	C	0.888762	0.682204	0.387050
	C153	C	0.118025	0.684141	0.625359
	C154	C	0.888933	0.330647	0.623731
	C155	C	0.118064	0.329626	0.385634
	C156	C	0.889042	0.387972	0.681663
	C157	C	0.118086	0.626427	0.683097
	C158	C	0.888991	0.624531	0.329107
	C159	C	0.117853	0.386795	0.327315
	C160	C	0.385981	0.681664	0.890088
	C161	C	0.623040	0.683651	0.120756
	C162	C	0.622054	0.328915	0.890905
	C163	C	0.385464	0.331135	0.121531
	C164	C	0.680127	0.891665	0.386113
	C165	C	0.680857	0.121956	0.625881
	C166	C	0.326574	0.891363	0.625140
	C167	C	0.327438	0.121971	0.387070
	C168	C	0.885032	0.391243	0.180181
	C169	C	0.122171	0.621558	0.181271
	C170	C	0.121742	0.391162	0.828698
	C171	C	0.885775	0.622390	0.829830
	C172	C	0.180692	0.886546	0.390642
	C173	C	0.180338	0.126271	0.621049
	C174	C	0.826782	0.124940	0.390491
	C175	C	0.826266	0.886428	0.620507
	C176	C	0.388786	0.182418	0.888489
	C177	C	0.617968	0.184230	0.126905
	C178	C	0.389455	0.829444	0.124960
	C179	C	0.618410	0.829163	0.886751
	C180	C	0.389420	0.887456	0.182717
	C181	C	0.618272	0.126306	0.184054
	C182	C	0.388765	0.124646	0.830121
	C183	C	0.617984	0.886008	0.828226
	C184	C	0.884642	0.181785	0.390048
	C185	C	0.122525	0.183733	0.620796
	C186	C	0.122371	0.829985	0.390132
	C187	C	0.885292	0.830442	0.620859
	C188	C	0.179805	0.391488	0.885572
	C189	C	0.181360	0.621071	0.125807
	C190	C	0.826481	0.391946	0.124148
	C191	C	0.827528	0.621801	0.886345
	C192	C	0.403980	0.101224	0.605717
	C193	C	0.603589	0.912251	0.603658
	C194	C	0.603989	0.101760	0.407789
	C195	C	0.403754	0.912116	0.406609
	C196	C	0.604025	0.408392	0.100237
	C197	C	0.603956	0.605242	0.910563
	C198	C	0.404496	0.605233	0.099947
	C199	C	0.404585	0.406930	0.911509
	C200	C	0.097326	0.605817	0.405993
	C201	C	0.909866	0.606713	0.605857
	C202	C	0.097331	0.407290	0.604653
	C203	C	0.909853	0.406275	0.404566
	C204	C	0.904261	0.601604	0.104593
	C205	C	0.103391	0.411724	0.103167
	C206	C	0.103459	0.601193	0.906894
	C207	C	0.903637	0.411799	0.905334
	C208	C	0.103508	0.908222	0.600171
	C209	C	0.103904	0.105354	0.411305
	C210	C	0.904309	0.105680	0.600179
	C211	C	0.903618	0.907250	0.410931
	C212	C	0.597263	0.105627	0.906662
	C213	C	0.409833	0.106278	0.107198
	C214	C	0.597771	0.907139	0.106080
	C215	C	0.410069	0.905593	0.905697
	Zn216	Zn	0.503545	0.005781	0.754788
	Zn217	Zn	0.503892	0.006805	0.257245
	Zn218	Zn	0.754222	0.506735	0.005276
	Zn219	Zn	0.253988	0.506336	0.005266
	Zn220	Zn	0.003918	0.757359	0.505349
	Zn221	Zn	0.003261	0.256034	0.505229
	Zn222	Zn	0.003445	0.506860	0.755625
	Zn223	Zn	0.003552	0.506272	0.254153
	Zn224	Zn	0.504028	0.755813	0.005799
	Zn225	Zn	0.503789	0.256740	0.007333
	Zn226	Zn	0.754007	0.006580	0.505900
	Zn227	Zn	0.254020	0.006526	0.505934
	N228	N	0.419205	0.968122	0.682367
	N229	N	0.588568	0.044159	0.682893
	N230	N	0.588117	0.969129	0.329585
	N231	N	0.419083	0.044466	0.329082
	N232	N	0.682540	0.420431	0.968180
	N233	N	0.683477	0.593502	0.042396
	N234	N	0.325270	0.591914	0.968146
	N235	N	0.323932	0.419125	0.042257
	N236	N	0.966119	0.684223	0.420555
	N237	N	0.040734	0.685884	0.591711
	N238	N	0.966094	0.328951	0.590156
	N239	N	0.040830	0.327705	0.419127
	N240	N	0.966457	0.421252	0.683474
	N241	N	0.040876	0.592748	0.684664
	N242	N	0.966364	0.591253	0.327160
	N243	N	0.040521	0.419941	0.325300
	N244	N	0.419621	0.683030	0.967735
	N245	N	0.588870	0.684112	0.043124
	N246	N	0.588740	0.328365	0.968644
	N247	N	0.420071	0.330323	0.044281
	N248	N	0.682176	0.969574	0.419937
	N249	N	0.683184	0.043957	0.592206
	N250	N	0.324441	0.969728	0.592474
	N251	N	0.325119	0.044031	0.420055
	N252	N	0.919033	0.468853	0.181649
	N253	N	0.088424	0.543862	0.181923
	N254	N	0.088586	0.468895	0.827519
	N255	N	0.918959	0.544434	0.828055
	N256	N	0.182641	0.920497	0.468467
	N257	N	0.182518	0.092446	0.543200
	N258	N	0.825324	0.091810	0.468310
	N259	N	0.824241	0.919690	0.542685
	N260	N	0.466054	0.184031	0.922190
	N261	N	0.540755	0.185613	0.093453
	N262	N	0.466881	0.827609	0.091624
	N263	N	0.541381	0.827807	0.920452
	N264	N	0.466589	0.921092	0.184641
	N265	N	0.541065	0.092255	0.185433
	N266	N	0.466170	0.091634	0.827451
	N267	N	0.540711	0.919559	0.826230
	N268	N	0.918345	0.183513	0.467985
	N269	N	0.089048	0.184733	0.543127
	N270	N	0.088686	0.829231	0.467899
	N271	N	0.919347	0.829703	0.543317
	N272	N	0.182173	0.469514	0.919208
	N273	N	0.183784	0.542886	0.092402
	N274	N	0.824795	0.470085	0.091286
	N275	N	0.825051	0.543649	0.918942
	O276	O	0.489388	0.487513	0.480995
	H277	H	0.494108	0.482068	0.484955
	H278	H	0.486174	0.487785	0.485180
	O279	O	0.028698	0.066200	-0.008548
	H280	H	0.030134	0.078261	-0.004797
	H281	H	0.029922	0.074306	-0.007711
	O282	O	0.489553	0.530292	0.487542
	H283	H	0.493350	0.534030	0.490745
	H284	H	0.492692	0.534190	0.483809
	O285	O	0.521512	0.468065	0.501338
	H286	H	0.515139	0.468640	0.498814
	H287	H	0.523876	0.467606	0.497190
	O288	O	1.019298	0.090050	0.000163
	H289	H	1.018887	0.081012	0.004924
	H290	H	1.023999	0.088560	-0.000837
	O291	O	-0.566314	0.475410	-0.509010
	H292	H	-0.574693	0.473530	-0.512266
	H293	H	-0.565240	0.480827	-0.510384
	O294	O	0.486105	0.504582	0.498398
	H295	H	0.489538	0.508348	0.495435
	H296	H	0.489814	0.499438	0.498368
	O297	O	0.022829	1.026117	0.001713
	H298	H	0.027676	1.017448	0.004647
	H299	H	0.015665	1.013962	-0.002628
	O300	O	1.339393	-0.296295	0.634745
	H301	H	1.336842	-0.287920	0.632233
	H302	H	1.341049	-0.287988	0.640165
	O303	O	0.475584	0.477938	0.514026
	H304	H	0.471721	0.477351	0.517509
	H305	H	0.481135	0.479370	0.513150
	O306	O	0.009371	1.006884	0.986508
	H307	H	0.006225	1.012526	0.981243
	H308	H	0.012998	1.015010	0.987218
	O309	O	0.473195	0.554596	0.507429
	H310	H	0.474108	0.542166	0.501687
	H311	H	0.475119	0.552087	0.516355
