data_Molecule from HDF5

_cell_length_a		16.130704
_cell_length_b		16.370057
_cell_length_c		16.202819
_cell_angle_alpha	90.307746
_cell_angle_beta	89.895855
_cell_angle_gamma	89.619695
_symmetry_space_group_name_H-M	'P 1'
_symmetry_Int_Tables_number		1

loop_
	_symmetry_equiv_pos_as_xyz
	x,y,z

loop_
	_atom_site_label
	_atom_site_type_symbol
	_atom_site_fract_x
	_atom_site_fract_y
	_atom_site_fract_z
	H0	H	0.402381	0.837212	0.719541
	H1	H	0.599387	0.163703	0.719658
	H2	H	0.604112	0.838917	0.283823
	H3	H	0.401810	0.163923	0.290533
	H4	H	0.715042	0.401055	0.837977
	H5	H	0.711309	0.597307	0.166876
	H6	H	0.285522	0.598758	0.837603
	H7	H	0.290011	0.406569	0.167326
	H8	H	0.838744	0.716405	0.398524
	H9	H	0.165798	0.713501	0.603725
	H10	H	0.838006	0.283229	0.602169
	H11	H	0.165486	0.282139	0.399315
	H12	H	0.835757	0.401983	0.715509
	H13	H	0.165320	0.597154	0.718255
	H14	H	0.835382	0.594067	0.291935
	H15	H	0.164913	0.396683	0.286323
	H16	H	0.396810	0.719179	0.839316
	H17	H	0.602250	0.716864	0.164520
	H18	H	0.603732	0.281481	0.839331
	H19	H	0.398795	0.287003	0.166089
	H20	H	0.718595	0.837983	0.400868
	H21	H	0.716084	0.164197	0.601804
	H22	H	0.287330	0.836596	0.601862
	H23	H	0.285751	0.162429	0.405832
	H24	H	0.901546	0.335270	0.215838
	H25	H	0.097997	0.660205	0.220239
	H26	H	0.101677	0.337105	0.785215
	H27	H	0.897690	0.661740	0.785065
	H28	H	0.218014	0.899499	0.338334
	H29	H	0.211946	0.096388	0.666897
	H30	H	0.789174	0.095330	0.336639
	H31	H	0.787137	0.901732	0.666116
	H32	H	0.336130	0.215951	0.901595
	H33	H	0.663955	0.216013	0.102819
	H34	H	0.337005	0.786596	0.105031
	H35	H	0.664500	0.781681	0.899416
	H36	H	0.336245	0.906125	0.216084
	H37	H	0.665998	0.098999	0.215660
	H38	H	0.336366	0.099613	0.789503
	H39	H	0.666392	0.900014	0.788043
	H40	H	0.900436	0.214323	0.337184
	H41	H	0.103832	0.216501	0.663439
	H42	H	0.106219	0.779905	0.339058
	H43	H	0.899988	0.782272	0.664961
	H44	H	0.218166	0.337413	0.900989
	H45	H	0.212483	0.662184	0.102168
	H46	H	0.785080	0.336545	0.099518
	H47	H	0.783644	0.663235	0.904317
	H48	H	0.396131	0.118834	0.599190
	H49	H	0.591830	0.886526	0.594401
	H50	H	0.592568	0.117245	0.406983
	H51	H	0.409303	0.882915	0.403326
	H52	H	0.590910	0.404677	0.120104
	H53	H	0.597899	0.599943	0.880113
	H54	H	0.404183	0.593415	0.119513
	H55	H	0.407319	0.398948	0.881708
	H56	H	0.115779	0.590032	0.423188
	H57	H	0.882410	0.591282	0.599101
	H58	H	0.119860	0.400638	0.590813
	H59	H	0.883676	0.403928	0.411907
	H60	H	0.116121	0.409859	0.588415
	H61	H	0.883579	0.597752	0.590092
	H62	H	0.117226	0.577468	0.405012
	H63	H	0.883535	0.407133	0.408238
	H64	H	0.411221	0.594172	0.117848
	H65	H	0.594704	0.580776	0.886495
	H66	H	0.593968	0.407300	0.119534
	H67	H	0.404115	0.412949	0.885382
	H68	H	0.594779	0.115662	0.412706
	H69	H	0.596878	0.886029	0.593605
	H70	H	0.415990	0.115923	0.605046
	H71	H	0.416259	0.886152	0.409445
	H72	H	0.917329	0.610208	0.093093
	H73	H	0.097693	0.379034	0.103900
	H74	H	0.087485	0.614359	0.907992
	H75	H	0.909325	0.383540	0.904320
	H76	H	0.101827	0.900258	0.622993
	H77	H	0.098131	0.092478	0.381298
	H78	H	0.914496	0.085398	0.614585
	H79	H	0.920709	0.904612	0.387625
	H80	H	0.620343	0.093373	0.907502
	H81	H	0.378833	0.101893	0.097710
	H82	H	0.616939	0.905607	0.084942
	H83	H	0.388551	0.909762	0.924600
	H84	H	0.617266	0.914759	0.095433
	H85	H	0.385220	0.093300	0.091718
	H86	H	0.618187	0.096881	0.916023
	H87	H	0.385723	0.920849	0.905945
	H88	H	0.916776	0.099964	0.618686
	H89	H	0.094004	0.086143	0.385797
	H90	H	0.093169	0.914584	0.616098
	H91	H	0.906978	0.898804	0.381622
	H92	H	0.091943	0.614430	0.914882
	H93	H	0.084874	0.386332	0.091505
	H94	H	0.895313	0.615877	0.090180
	H95	H	0.911940	0.386807	0.911646
	H96	H	0.410155	0.110647	0.585942
	H97	H	0.595129	0.884321	0.597545
	H98	H	0.598325	0.118307	0.408393
	H99	H	0.407399	0.884852	0.412607
	H100	H	0.589277	0.408447	0.118411
	H101	H	0.579416	0.594377	0.887538
	H102	H	0.406768	0.599621	0.120198
	H103	H	0.417590	0.408192	0.887265
	H104	H	0.124310	0.598718	0.404120
	H105	H	0.886957	0.587509	0.589464
	H106	H	0.120199	0.408102	0.598322
	H107	H	0.881575	0.402564	0.407465
	H108	H	0.905186	0.618761	0.110187
	H109	H	0.102696	0.382525	0.085860
	H110	H	0.094719	0.616930	0.907899
	H111	H	0.903384	0.384198	0.911467
	H112	H	0.084713	0.899803	0.618289
	H113	H	0.090263	0.093262	0.384595
	H114	H	0.902949	0.094220	0.620308
	H115	H	0.907649	0.913823	0.386855
	H116	H	0.616438	0.087766	0.913927
	H117	H	0.381166	0.091563	0.102531
	H118	H	0.621301	0.902263	0.097986
	H119	H	0.379609	0.899667	0.907004
	C120	C	0.378742	0.007973	0.625968
	C121	C	0.623860	0.992764	0.624792
	C122	C	0.624543	0.009228	0.379580
	C123	C	0.380943	0.992098	0.381104
	C124	C	0.621216	0.377956	0.010862
	C125	C	0.620332	0.621114	0.992810
	C126	C	0.377875	0.624037	0.010706
	C127	C	0.380253	0.379488	0.993649
	C128	C	0.010126	0.618109	0.381449
	C129	C	0.992900	0.620442	0.622927
	C130	C	0.010032	0.377447	0.622336
	C131	C	0.991805	0.375454	0.379711
	C132	C	0.877697	0.507415	0.124864
	C133	C	0.122368	0.489939	0.124050
	C134	C	0.122103	0.508071	0.880055
	C135	C	0.877910	0.492023	0.879914
	C136	C	0.124259	0.875786	0.510925
	C137	C	0.122835	0.120059	0.492594
	C138	C	0.881426	0.121051	0.509492
	C139	C	0.881004	0.877133	0.493261
	C140	C	0.509262	0.121693	0.882595
	C141	C	0.491271	0.123193	0.124878
	C142	C	0.510071	0.879690	0.123160
	C143	C	0.492796	0.879026	0.881853
	C144	C	0.381775	0.885830	0.681545
	C145	C	0.620697	0.115205	0.681084
	C146	C	0.623526	0.887245	0.322722
	C147	C	0.382035	0.114844	0.327555
	C148	C	0.677375	0.380155	0.887117
	C149	C	0.675242	0.618536	0.117122
	C150	C	0.322465	0.620507	0.887028
	C151	C	0.325846	0.384373	0.117792
	C152	C	0.887124	0.676037	0.381360
	C153	C	0.116442	0.675899	0.623257
	C154	C	0.886563	0.321816	0.621508
	C155	C	0.115992	0.319847	0.379951
	C156	C	0.885535	0.380729	0.677850
	C157	C	0.116528	0.617632	0.679578
	C158	C	0.885488	0.615365	0.327964
	C159	C	0.115752	0.376847	0.323762
	C160	C	0.377933	0.680253	0.887939
	C161	C	0.620434	0.677557	0.116066
	C162	C	0.621372	0.321162	0.887878
	C163	C	0.380110	0.324676	0.116908
	C164	C	0.680370	0.886703	0.381159
	C165	C	0.678452	0.115510	0.622296
	C166	C	0.324694	0.885241	0.622697
	C167	C	0.323611	0.113970	0.384390
	C168	C	0.881087	0.384144	0.178225
	C169	C	0.118478	0.612087	0.181154
	C170	C	0.121244	0.385779	0.823614
	C171	C	0.878112	0.613668	0.823645
	C172	C	0.180487	0.878499	0.387497
	C173	C	0.175837	0.117385	0.617065
	C174	C	0.826182	0.117112	0.385808
	C175	C	0.824785	0.880568	0.616810
	C176	C	0.385386	0.177586	0.882935
	C177	C	0.615113	0.177947	0.122602
	C178	C	0.386132	0.824789	0.123703
	C179	C	0.615736	0.820755	0.880708
	C180	C	0.385775	0.884141	0.179032
	C181	C	0.616223	0.119563	0.178648
	C182	C	0.385497	0.119724	0.826887
	C183	C	0.616866	0.879506	0.825213
	C184	C	0.881707	0.175937	0.386045
	C185	C	0.122090	0.177274	0.615242
	C186	C	0.124966	0.818942	0.387845
	C187	C	0.881180	0.821227	0.616131
	C188	C	0.179247	0.385952	0.881261
	C189	C	0.175398	0.613109	0.122336
	C190	C	0.822864	0.384836	0.120820
	C191	C	0.821199	0.614240	0.882698
	C192	C	0.400884	0.093072	0.603474
	C193	C	0.601325	0.907795	0.601970
	C194	C	0.601728	0.095016	0.402675
	C195	C	0.404138	0.906616	0.402319
	C196	C	0.598172	0.400342	0.097018
	C197	C	0.597342	0.598364	0.906950
	C198	C	0.400754	0.602100	0.096628
	C199	C	0.403073	0.400528	0.907061
	C200	C	0.096800	0.595402	0.404138
	C201	C	0.906561	0.598625	0.599639
	C202	C	0.096233	0.399776	0.599175
	C203	C	0.905272	0.398005	0.402638
	C204	C	0.899507	0.592809	0.103908
	C205	C	0.101422	0.404732	0.100564
	C206	C	0.098314	0.593178	0.903422
	C207	C	0.901392	0.406895	0.902479
	C208	C	0.100364	0.898517	0.596871
	C209	C	0.100801	0.097375	0.406116
	C210	C	0.904498	0.099584	0.595528
	C211	C	0.904772	0.899286	0.407496
	C212	C	0.596057	0.099173	0.905541
	C213	C	0.404333	0.101917	0.103733
	C214	C	0.596206	0.900988	0.099721
	C215	C	0.406928	0.903116	0.905560
	Zn216	Zn	0.501150	0.000688	0.755000
	Zn217	Zn	0.501879	0.001171	0.251697
	Zn218	Zn	0.748431	0.500392	0.002341
	Zn219	Zn	0.251537	0.500173	0.001838
	Zn220	Zn	0.002682	0.747703	0.501379
	Zn221	Zn	0.002301	0.249032	0.500387
	Zn222	Zn	0.000560	0.499551	0.750831
	Zn223	Zn	0.000481	0.497012	0.253755
	Zn224	Zn	0.501010	0.750723	0.002017
	Zn225	Zn	0.499625	0.249789	0.002438
	Zn226	Zn	0.752830	0.000742	0.501764
	Zn227	Zn	0.250933	-0.000614	0.502617
	N228	N	0.414624	0.963206	0.683619
	N229	N	0.587505	0.037993	0.682900
	N230	N	0.589342	0.964497	0.321873
	N231	N	0.416928	0.037980	0.325251
	N232	N	0.677283	0.414888	0.964552
	N233	N	0.675227	0.583887	0.039669
	N234	N	0.322179	0.586321	0.964297
	N235	N	0.325589	0.417892	0.040007
	N236	N	0.965702	0.677726	0.414198
	N237	N	0.038675	0.677610	0.588611
	N238	N	0.965045	0.319426	0.588062
	N239	N	0.037886	0.318900	0.414123
	N240	N	0.963367	0.414292	0.678742
	N241	N	0.038583	0.583989	0.679473
	N242	N	0.962981	0.580062	0.327978
	N243	N	0.037429	0.410654	0.323202
	N244	N	0.411500	0.682708	0.965952
	N245	N	0.587239	0.679462	0.037880
	N246	N	0.587533	0.319360	0.965859
	N247	N	0.413205	0.321712	0.038738
	N248	N	0.681036	0.963638	0.415749
	N249	N	0.680698	0.038293	0.588251
	N250	N	0.322362	0.962240	0.589214
	N251	N	0.322896	0.036674	0.417225
	N252	N	0.914477	0.461296	0.181046
	N253	N	0.086086	0.534559	0.182327
	N254	N	0.086303	0.462727	0.822872
	N255	N	0.912627	0.536632	0.821756
	N256	N	0.180170	0.913128	0.465046
	N257	N	0.176183	0.082151	0.539945
	N258	N	0.825921	0.083554	0.463478
	N259	N	0.824368	0.914509	0.539340
	N260	N	0.463521	0.178743	0.916809
	N261	N	0.536552	0.180271	0.090022
	N262	N	0.464295	0.821933	0.089617
	N263	N	0.537717	0.820456	0.915059
	N264	N	0.463738	0.917556	0.179039
	N265	N	0.538152	0.086197	0.180144
	N266	N	0.463761	0.085718	0.826594
	N267	N	0.539219	0.915035	0.825634
	N268	N	0.915313	0.178749	0.463947
	N269	N	0.089839	0.178979	0.536667
	N270	N	0.090598	0.817402	0.465596
	N271	N	0.915177	0.818929	0.538253
	N272	N	0.180041	0.463046	0.915419
	N273	N	0.178079	0.536321	0.087594
	N274	N	0.820560	0.462207	0.088262
	N275	N	0.820920	0.537515	0.916948
	O276	O	0.562077	0.494598	0.540849
	H277	H	0.554182	0.496906	0.547424
	H278	H	0.556146	0.496789	0.531271
	O279	O	0.407751	0.557008	0.498885
	H280	H	0.407851	0.552488	0.500156
	H281	H	0.398033	0.560773	0.508085
	O282	O	0.886338	1.016505	-0.134313
	H283	H	0.883809	1.026733	-0.141215
	H284	H	0.877233	1.027666	-0.129815
	O285	O	1.070891	0.007294	1.009015
	H286	H	1.079463	-0.005061	0.999201
	H287	H	1.073617	0.014722	1.022303
	O288	O	0.610813	0.522267	0.499355
	H289	H	0.613311	0.534415	0.493926
	H290	H	0.616725	0.515672	0.503714
	O291	O	0.457938	0.579443	0.405921
	H292	H	0.456043	0.581316	0.405382
	H293	H	0.443178	0.588868	0.407119
	O294	O	0.530563	0.490132	0.453431
	H295	H	0.527769	0.489707	0.446437
	H296	H	0.548314	0.491549	0.455042
	O297	O	0.027540	0.036253	1.093823
	H298	H	0.023195	0.052991	1.086331
	H299	H	0.012711	0.038581	1.092074
	O300	O	0.461006	0.497558	0.499850
	H301	H	0.459201	0.509690	0.508262
	H302	H	0.468400	0.487924	0.507740
	O303	O	1.060828	1.114790	0.056205
	H304	H	1.060056	1.125992	0.053909
	H305	H	1.065661	1.109221	0.046143
	O306	O	0.074872	0.932310	0.999418
	H307	H	0.067720	0.931386	0.998931
	H308	H	0.069588	0.931150	1.001470
	O309	O	0.537340	0.551680	0.609926
	H310	H	0.540182	0.547729	0.610735
	H311	H	0.544341	0.545647	0.611836
	O312	O	0.048161	0.057294	-0.026032
	H313	H	0.063835	0.049155	-0.028721
	H314	H	0.033936	0.045850	-0.020356
	O315	O	0.932446	0.028127	-0.047273
	H316	H	0.944275	0.036942	-0.053252
	H317	H	0.929113	0.019898	-0.038954
	O318	O	0.936922	1.019545	1.018738
	H319	H	0.956876	1.029425	1.028462
	H320	H	0.952452	1.009845	1.014679
	O321	O	-0.030621	-0.007023	1.040162
	H322	H	-0.041747	-0.005530	1.043669
	H323	H	-0.014603	-0.029114	1.043701
	O324	O	0.535375	0.555880	0.602473
	H325	H	0.541023	0.558707	0.596452
	H326	H	0.542031	0.559292	0.612169
	O327	O	-0.045943	-0.099336	-0.067616
	H328	H	-0.045110	-0.097066	-0.077171
	H329	H	-0.050510	-0.100983	-0.078597
	O330	O	0.495814	0.549031	0.416694
	H331	H	0.497769	0.548827	0.414234
	H332	H	0.493432	0.535665	0.416888
	O333	O	0.121730	0.867811	0.955736
	H334	H	0.115037	0.873838	0.954394
	H335	H	0.126213	0.873680	0.954419
	O336	O	0.033501	-0.066162	0.017033
	H337	H	0.036068	-0.072777	0.017409
	H338	H	0.027221	-0.074128	0.013790
	O339	O	0.453811	0.482381	0.540185
	H340	H	0.451725	0.481948	0.546427
	H341	H	0.459684	0.483947	0.540696
	O342	O	1.059504	0.968103	0.857374
	H343	H	1.059067	0.966329	0.846477
	H344	H	1.055364	0.979654	0.860386
	O345	O	0.798422	1.268240	-0.184058
	H346	H	0.797032	1.278622	-0.174698
	H347	H	0.805256	1.261731	-0.179754
	O348	O	0.542742	0.464895	0.503960
	H349	H	0.539460	0.473465	0.512417
	H350	H	0.546242	0.471522	0.498314
	O351	O	0.426823	0.479655	0.497913
	H352	H	0.419599	0.488043	0.503458
	H353	H	0.420098	0.485583	0.498103
	O354	O	0.539181	0.410495	0.385214
	H355	H	0.550423	0.416413	0.368511
	H356	H	0.548101	0.405194	0.384994
	O357	O	0.870192	0.011541	0.978808
	H358	H	0.867127	0.006144	0.972313
	H359	H	0.863270	0.017788	0.976503
	O360	O	0.519370	0.513376	0.477127
	H361	H	0.515196	0.510139	0.475582
	H362	H	0.509790	0.515197	0.461093
	O363	O	0.492035	0.476798	0.499616
	H364	H	0.494498	0.470848	0.496626
	H365	H	0.490505	0.483979	0.510680
	O366	O	0.988985	0.885811	0.902934
	H367	H	0.995048	0.884844	0.888830
	H368	H	0.993616	0.891825	0.901724
	O369	O	0.859549	0.009692	1.072074
	H370	H	0.852496	0.003253	1.081134
	H371	H	0.864138	0.004565	1.074990
	O372	O	0.031534	0.008556	-0.025193
	H373	H	0.032136	0.003266	-0.024952
	H374	H	0.029156	0.018526	-0.012322
	O375	O	1.130640	0.023504	0.054993
	H376	H	1.125069	0.022859	0.059330
	H377	H	1.140333	0.012668	0.048720
	O378	O	0.515846	0.457683	0.550328
	H379	H	0.522261	0.445366	0.550589
	H380	H	0.520946	0.452911	0.545222
	O381	O	0.497124	0.510182	0.529831
	H382	H	0.490525	0.520038	0.536716
	H383	H	0.507157	0.502594	0.539290
