data_Molecule from HDF5

_cell_length_a		16.539518
_cell_length_b		16.275514
_cell_length_c		16.266792
_cell_angle_alpha	90.468804
_cell_angle_beta	89.902476
_cell_angle_gamma	89.944342
_symmetry_space_group_name_H-M	'P 1'
_symmetry_Int_Tables_number		1

loop_
	_symmetry_equiv_pos_as_xyz
	x,y,z

loop_
	_atom_site_label
	_atom_site_type_symbol
	_atom_site_fract_x
	_atom_site_fract_y
	_atom_site_fract_z
	H0	H	0.389391	0.845986	0.706064
	H1	H	0.593055	0.168379	0.707332
	H2	H	0.592455	0.846186	0.266204
	H3	H	0.388305	0.170231	0.272815
	H4	H	0.714712	0.399838	0.830617
	H5	H	0.714124	0.617151	0.149644
	H6	H	0.271868	0.611630	0.830734
	H7	H	0.268333	0.397739	0.147672
	H8	H	0.832405	0.725052	0.385577
	H9	H	0.149296	0.727482	0.594703
	H10	H	0.832459	0.287321	0.594746
	H11	H	0.148163	0.280021	0.381402
	H12	H	0.834422	0.402980	0.711871
	H13	H	0.151063	0.609512	0.708886
	H14	H	0.835238	0.610992	0.268029
	H15	H	0.150593	0.398902	0.267594
	H16	H	0.392910	0.721446	0.826920
	H17	H	0.594625	0.729081	0.149902
	H18	H	0.595720	0.288842	0.828360
	H19	H	0.387937	0.288265	0.149281
	H20	H	0.710396	0.845509	0.380109
	H21	H	0.714166	0.164898	0.597014
	H22	H	0.271630	0.846534	0.593003
	H23	H	0.267412	0.165524	0.382394
	H24	H	0.887860	0.346296	0.210198
	H25	H	0.096896	0.666932	0.213134
	H26	H	0.098420	0.346658	0.767959
	H27	H	0.893677	0.668461	0.774901
	H28	H	0.213556	0.894316	0.328854
	H29	H	0.211773	0.112873	0.647978
	H30	H	0.768414	0.112725	0.329412
	H31	H	0.768288	0.899839	0.647459
	H32	H	0.335758	0.232101	0.881495
	H33	H	0.649192	0.231497	0.096535
	H34	H	0.334106	0.786232	0.094040
	H35	H	0.649717	0.784342	0.879287
	H36	H	0.333394	0.903297	0.209538
	H37	H	0.648059	0.116242	0.212843
	H38	H	0.334294	0.114860	0.766954
	H39	H	0.649677	0.903457	0.765718
	H40	H	0.882652	0.228925	0.330542
	H41	H	0.093450	0.224994	0.649562
	H42	H	0.092961	0.784182	0.327866
	H43	H	0.891219	0.792976	0.652227
	H44	H	0.217590	0.349121	0.879332
	H45	H	0.215438	0.666161	0.100046
	H46	H	0.766587	0.349993	0.100337
	H47	H	0.770369	0.665427	0.882270
	H48	H	0.395727	0.122450	0.576722
	H49	H	0.577643	0.894562	0.571247
	H50	H	0.578459	0.120160	0.400040
	H51	H	0.399676	0.892045	0.399939
	H52	H	0.580345	0.419517	0.104750
	H53	H	0.577312	0.589393	0.879471
	H54	H	0.403387	0.597347	0.104526
	H55	H	0.406832	0.424310	0.877906
	H56	H	0.105509	0.591470	0.394898
	H57	H	0.879616	0.595185	0.579824
	H58	H	0.101635	0.421319	0.575673
	H59	H	0.879765	0.412202	0.406609
	H60	H	0.106729	0.415692	0.584064
	H61	H	0.876445	0.596097	0.589648
	H62	H	0.106086	0.602868	0.405656
	H63	H	0.883097	0.424580	0.402407
	H64	H	0.404054	0.595393	0.104490
	H65	H	0.582342	0.603301	0.872016
	H66	H	0.583509	0.421504	0.104865
	H67	H	0.406204	0.416879	0.875062
	H68	H	0.581679	0.120261	0.405902
	H69	H	0.583630	0.891278	0.574415
	H70	H	0.401919	0.122616	0.580491
	H71	H	0.402558	0.892468	0.396325
	H72	H	0.905671	0.619813	0.078537
	H73	H	0.079835	0.396514	0.068847
	H74	H	0.077456	0.618235	0.907750
	H75	H	0.898910	0.390342	0.901679
	H76	H	0.086222	0.918051	0.604521
	H77	H	0.083012	0.094066	0.372663
	H78	H	0.905489	0.101430	0.603307
	H79	H	0.904125	0.914804	0.374458
	H80	H	0.600495	0.088193	0.900581
	H81	H	0.379286	0.101643	0.075377
	H82	H	0.603704	0.920059	0.076312
	H83	H	0.378745	0.914950	0.897740
	H84	H	0.604024	0.919547	0.077356
	H85	H	0.380139	0.094218	0.078546
	H86	H	0.608342	0.099155	0.890561
	H87	H	0.378605	0.915710	0.898291
	H88	H	0.892458	0.092666	0.605099
	H89	H	0.080488	0.085474	0.376129
	H90	H	0.080800	0.920385	0.602186
	H91	H	0.898750	0.911777	0.372177
	H92	H	0.091314	0.623305	0.905317
	H93	H	0.087459	0.390773	0.077007
	H94	H	0.903453	0.619850	0.076569
	H95	H	0.906283	0.391584	0.898617
	H96	H	0.401730	0.120366	0.573481
	H97	H	0.577671	0.892118	0.578453
	H98	H	0.584701	0.122517	0.400926
	H99	H	0.403815	0.894073	0.400290
	H100	H	0.579833	0.423184	0.103528
	H101	H	0.592456	0.590976	0.873441
	H102	H	0.404522	0.596623	0.103591
	H103	H	0.400577	0.421797	0.874436
	H104	H	0.099453	0.589751	0.408656
	H105	H	0.876189	0.603931	0.582517
	H106	H	0.105289	0.410114	0.574389
	H107	H	0.877504	0.415704	0.394009
	H108	H	0.903365	0.621362	0.079316
	H109	H	0.076192	0.394244	0.080278
	H110	H	0.081021	0.623175	0.894086
	H111	H	0.904664	0.394386	0.906217
	H112	H	0.081106	0.914357	0.603953
	H113	H	0.074497	0.092683	0.375605
	H114	H	0.905249	0.086251	0.598465
	H115	H	0.898639	0.918388	0.374007
	H116	H	0.605128	0.103121	0.906494
	H117	H	0.377402	0.100425	0.082977
	H118	H	0.604119	0.918974	0.076584
	H119	H	0.378194	0.915843	0.896878
	C120	C	0.369088	0.015735	0.609130
	C121	C	0.611790	0.998089	0.608647
	C122	C	0.612799	0.015245	0.367066
	C123	C	0.369709	0.998604	0.367364
	C124	C	0.613515	0.387413	-0.001353
	C125	C	0.615409	0.629482	0.980408
	C126	C	0.372119	0.628160	-0.001719
	C127	C	0.371307	0.386775	0.980580
	C128	C	-0.000120	0.626938	0.369840
	C129	C	0.982839	0.629004	0.613299
	C130	C	-0.000021	0.384509	0.611268
	C131	C	0.983828	0.383430	0.367558
	C132	C	0.871257	0.515451	0.111441
	C133	C	0.114054	0.498910	0.110468
	C134	C	0.115389	0.516152	0.868291
	C135	C	0.872238	0.498178	0.869925
	C136	C	0.113803	0.883503	0.497574
	C137	C	0.110887	0.124704	0.480379
	C138	C	0.868381	0.127065	0.497496
	C139	C	0.869629	0.884219	0.480114
	C140	C	0.500547	0.129546	0.867185
	C141	C	0.483249	0.131012	0.111338
	C142	C	0.499537	0.887324	0.108963
	C143	C	0.483301	0.884575	0.865381
	C144	C	0.369571	0.894536	0.667510
	C145	C	0.612759	0.119420	0.668622
	C146	C	0.612378	0.894667	0.305793
	C147	C	0.369021	0.120867	0.310512
	C148	C	0.674178	0.383167	0.878435
	C149	C	0.674268	0.633990	0.101303
	C150	C	0.312395	0.629748	0.877955
	C151	C	0.309422	0.381580	0.100106
	C152	C	0.880444	0.686080	0.367281
	C153	C	0.102151	0.687624	0.613506
	C154	C	0.880563	0.326097	0.613359
	C155	C	0.101285	0.320890	0.363544
	C156	C	0.881496	0.383484	0.672089
	C157	C	0.102995	0.628958	0.670330
	C158	C	0.881785	0.629016	0.308926
	C159	C	0.102577	0.380261	0.307014
	C160	C	0.372377	0.684666	0.876284
	C161	C	0.614971	0.689834	0.101665
	C162	C	0.614987	0.327574	0.877343
	C163	C	0.369202	0.326977	0.100920
	C164	C	0.671138	0.894070	0.362515
	C165	C	0.673026	0.117554	0.613543
	C166	C	0.311027	0.894670	0.610965
	C167	C	0.308561	0.118621	0.364874
	C168	C	0.868974	0.394919	0.171082
	C169	C	0.115906	0.618954	0.172916
	C170	C	0.117201	0.395367	0.807376
	C171	C	0.872707	0.619533	0.812027
	C172	C	0.173585	0.878187	0.377089
	C173	C	0.171068	0.129336	0.600451
	C174	C	0.807952	0.130566	0.377552
	C175	C	0.809598	0.882695	0.600365
	C176	C	0.382505	0.191116	0.864125
	C177	C	0.601683	0.191184	0.114080
	C178	C	0.381314	0.826205	0.111830
	C179	C	0.602235	0.824772	0.862162
	C180	C	0.380748	0.884849	0.169252
	C181	C	0.601208	0.133847	0.172503
	C182	C	0.381841	0.132618	0.807005
	C183	C	0.602168	0.883583	0.804939
	C184	C	0.865133	0.188494	0.378168
	C185	C	0.112003	0.185346	0.601252
	C186	C	0.113466	0.823090	0.376554
	C187	C	0.870670	0.829326	0.602797
	C188	C	0.176465	0.396386	0.863082
	C189	C	0.175038	0.618382	0.116556
	C190	C	0.808437	0.396751	0.116429
	C191	C	0.811789	0.618042	0.866312
	C192	C	0.392762	0.100026	0.584208
	C193	C	0.586837	0.914239	0.582284
	C194	C	0.588538	0.099269	0.394276
	C195	C	0.394767	0.914732	0.391764
	C196	C	0.588499	0.413836	0.082551
	C197	C	0.590945	0.602666	0.896664
	C198	C	0.396811	0.603622	0.082361
	C199	C	0.396878	0.413195	0.897495
	C200	C	0.082283	0.601927	0.395555
	C201	C	0.899164	0.605281	0.590368
	C202	C	0.082828	0.408543	0.585546
	C203	C	0.901541	0.409836	0.393397
	C204	C	0.896838	0.598613	0.085589
	C205	C	0.088572	0.415463	0.083075
	C206	C	0.090348	0.599814	0.894875
	C207	C	0.896471	0.414063	0.895006
	C208	C	0.089757	0.910131	0.581692
	C209	C	0.086276	0.098342	0.396582
	C210	C	0.893868	0.100922	0.580836
	C211	C	0.893516	0.908070	0.395517
	C212	C	0.582788	0.104218	0.892112
	C213	C	0.400510	0.105966	0.086104
	C214	C	0.582151	0.912375	0.083970
	C215	C	0.400188	0.908574	0.890335
	Zn216	Zn	0.491034	0.007722	0.737132
	Zn217	Zn	0.490379	0.008752	0.239665
	Zn218	Zn	0.742634	0.507161	-0.009604
	Zn219	Zn	0.243030	0.507591	-0.010027
	Zn220	Zn	-0.009688	0.757092	0.490314
	Zn221	Zn	-0.009313	0.254405	0.489442
	Zn222	Zn	-0.006742	0.506423	0.741177
	Zn223	Zn	-0.006748	0.506180	0.239515
	Zn224	Zn	0.492582	0.756452	-0.011557
	Zn225	Zn	0.492544	0.259288	-0.011006
	Zn226	Zn	0.741298	0.004881	0.488321
	Zn227	Zn	0.241330	0.005875	0.487274
	N228	N	0.404927	0.970979	0.666647
	N229	N	0.575248	0.044161	0.665542
	N230	N	0.577141	0.971249	0.308375
	N231	N	0.405934	0.045089	0.311629
	N232	N	0.673426	0.419493	0.954896
	N233	N	0.674750	0.597180	0.024870
	N234	N	0.312111	0.595408	0.954880
	N235	N	0.310435	0.418028	0.024246
	N236	N	0.954910	0.684863	0.404675
	N237	N	0.026427	0.687861	0.578716
	N238	N	0.955367	0.326505	0.576433
	N239	N	0.026278	0.322468	0.399978
	N240	N	0.956859	0.418784	0.671168
	N241	N	0.027580	0.593414	0.670526
	N242	N	0.956810	0.592856	0.310423
	N243	N	0.028294	0.418383	0.309281
	N244	N	0.408604	0.683798	0.952215
	N245	N	0.579488	0.687329	0.025407
	N246	N	0.578092	0.330026	0.953266
	N247	N	0.406921	0.329970	0.025590
	N248	N	0.671604	0.970217	0.399813
	N249	N	0.672542	0.041043	0.577059
	N250	N	0.310686	0.971025	0.575427
	N251	N	0.308848	0.041684	0.399348
	N252	N	0.907253	0.469688	0.168277
	N253	N	0.078806	0.543492	0.169339
	N254	N	0.079760	0.470796	0.810596
	N255	N	0.909799	0.544014	0.814226
	N256	N	0.173864	0.915207	0.453460
	N257	N	0.170522	0.092269	0.524340
	N258	N	0.810091	0.092792	0.452840
	N259	N	0.808783	0.916044	0.523076
	N260	N	0.457104	0.189317	0.901118
	N261	N	0.527208	0.189658	0.076866
	N262	N	0.456207	0.827780	0.074771
	N263	N	0.527308	0.825084	0.898928
	N264	N	0.454978	0.922348	0.167516
	N265	N	0.526424	0.097396	0.171137
	N266	N	0.455991	0.094730	0.808781
	N267	N	0.527275	0.920012	0.806695
	N268	N	0.902048	0.186288	0.453652
	N269	N	0.075165	0.182425	0.525570
	N270	N	0.076965	0.826195	0.452436
	N271	N	0.907281	0.830245	0.526908
	N272	N	0.175403	0.472330	0.900406
	N273	N	0.173843	0.542724	0.078551
	N274	N	0.809639	0.472854	0.080148
	N275	N	0.811208	0.541375	0.901441
	O276	O	0.375218	0.480402	0.632425
	H277	H	0.364720	0.489858	0.627179
	H278	H	0.395639	0.466700	0.637105
	O279	O	0.673162	0.653488	0.557261
	H280	H	0.689908	0.663360	0.551677
	H281	H	0.664404	0.653419	0.567776
	O282	O	0.313769	0.508625	0.531667
	H283	H	0.308158	0.507791	0.527000
	H284	H	0.316546	0.518517	0.521172
	O285	O	0.466994	-0.487412	-0.635558
	H286	H	0.462192	-0.489002	-0.643421
	H287	H	0.466925	-0.481948	-0.616114
	O288	O	0.445841	-0.641667	0.454051
	H289	H	0.434853	-0.639012	0.454774
	H290	H	0.452187	-0.652564	0.461191
	O291	O	0.520487	0.689915	0.485110
	H292	H	0.514975	0.688219	0.491268
	H293	H	0.523426	0.689263	0.493924
	O294	O	0.636211	0.534876	0.319615
	H295	H	0.647348	0.538781	0.311684
	H296	H	0.635641	0.548908	0.313655
	O297	O	1.199184	1.212667	1.004733
	H298	H	1.184362	1.190793	0.979944
	H299	H	1.231116	1.238263	1.006775
	O300	O	-0.601364	0.657529	0.577712
	H301	H	-0.600194	0.651118	0.591782
	H302	H	-0.617959	0.672285	0.593628
	O303	O	0.803400	0.809808	1.107328
	H304	H	0.794457	0.846977	1.114902
	H305	H	0.819505	0.792754	1.111321
	O306	O	1.013976	0.214659	0.196657
	H307	H	1.005607	0.228014	0.227635
	H308	H	0.994877	0.190632	0.211097
	O309	O	1.021948	1.157303	-0.049410
	H310	H	1.013291	1.168429	-0.036272
	H311	H	1.012952	1.150282	-0.070414
	O312	O	0.573762	0.488631	-0.396846
	H313	H	0.584061	0.481925	-0.385906
	H314	H	0.567094	0.494830	-0.383686
	O315	O	0.494514	0.494219	0.590563
	H316	H	0.495493	0.488723	0.581234
	H317	H	0.494049	0.481258	0.594909
	O318	O	0.404456	0.446895	0.463124
	H319	H	0.392290	0.455091	0.453128
	H320	H	0.407479	0.467174	0.465118
	O321	O	1.133889	-0.138900	1.015105
	H322	H	1.144517	-0.146565	1.015701
	H323	H	1.132594	-0.116020	0.993064
	O324	O	-0.041589	-0.088174	0.978493
	H325	H	-0.050718	-0.093257	0.973961
	H326	H	-0.032359	-0.076558	0.980594
	O327	O	1.145449	-0.135627	0.015797
	H328	H	1.159839	-0.113467	0.029753
	H329	H	1.147014	-0.163330	0.029648
	O330	O	0.470769	0.536115	0.325609
	H331	H	0.472075	0.549745	0.340971
	H332	H	0.450497	0.531612	0.317818
	O333	O	1.145186	0.809192	0.795889
	H334	H	1.138649	0.824580	0.804488
	H335	H	1.124100	0.804633	0.800089
	O336	O	0.202630	1.022887	1.198212
	H337	H	0.203304	1.056900	1.188171
	H338	H	0.225514	1.044957	1.221978
	O339	O	1.592122	-0.605269	1.416926
	H340	H	1.605315	-0.595067	1.405560
	H341	H	1.592591	-0.602432	1.419950
	O342	O	-0.011210	1.143464	0.783134
	H343	H	-0.000720	1.151482	0.781395
	H344	H	-0.006864	1.148939	0.780673
	O345	O	0.348175	0.538560	1.540238
	H346	H	0.338751	0.535396	1.542934
	H347	H	0.354489	0.542509	1.540241
	O348	O	0.793497	1.072104	1.055566
	H349	H	0.803369	1.080080	1.054814
	H350	H	0.800468	1.080009	1.050466
	O351	O	-0.159230	-0.142387	0.007333
	H352	H	-0.145020	-0.131073	0.043717
	H353	H	-0.174473	-0.159685	0.003301
	O354	O	1.174393	1.181992	0.166384
	H355	H	1.183438	1.195268	0.115431
	H356	H	1.123452	1.195608	0.174000
	O357	O	0.185557	1.061316	-0.141625
	H358	H	0.183229	1.051177	-0.162864
	H359	H	0.187779	1.049263	-0.124279
	O360	O	0.314880	0.633588	0.345474
	H361	H	0.319102	0.645593	0.347629
	H362	H	0.325460	0.647986	0.354092
	O363	O	0.566308	0.627982	0.475147
	H364	H	0.559750	0.631161	0.480621
	H365	H	0.563574	0.613047	0.479424
	O366	O	1.010404	1.222266	0.984339
	H367	H	1.030369	1.225951	1.007582
	H368	H	1.003578	1.225234	0.992064
	O369	O	-0.056261	0.063200	1.195365
	H370	H	-0.057563	0.033413	1.196188
	H371	H	-0.060593	0.042224	1.193722
	O372	O	0.114361	0.997894	-0.099114
	H373	H	0.127029	0.976577	-0.107538
	H374	H	0.111924	0.990433	-0.088131
	O375	O	0.535144	0.351026	0.353755
	H376	H	0.556917	0.371998	0.348442
	H377	H	0.526273	0.329594	0.336910
	O378	O	0.510268	0.370699	0.602820
	H379	H	0.496701	0.375569	0.571832
	H380	H	0.535857	0.377377	0.603589
	O381	O	0.503085	0.515751	0.376448
	H382	H	0.505599	0.483304	0.386657
	H383	H	0.509444	0.509180	0.361542
	O384	O	-0.219847	0.982027	1.199755
	H385	H	-0.252872	0.978489	1.231354
	H386	H	-0.219272	0.980195	1.168846
	O387	O	0.805262	1.099609	-0.171560
	H388	H	0.804456	1.097213	-0.155057
	H389	H	0.789564	1.076442	-0.159721
	O390	O	0.791105	-0.852050	0.940714
	H391	H	0.799579	-0.852595	0.915535
	H392	H	0.785581	-0.821593	0.944625
	O393	O	1.456029	0.361391	1.409173
	H394	H	1.434367	0.349427	1.404532
	H395	H	1.465867	0.359453	1.399153
	O396	O	0.012679	0.878071	0.933935
	H397	H	0.006174	0.880972	0.923401
	H398	H	0.022251	0.886228	0.923526
	O399	O	0.587659	0.583849	0.669735
	H400	H	0.592418	0.579673	0.671225
	H401	H	0.582813	0.601632	0.668076
	O402	O	1.197846	-0.038292	0.984960
	H403	H	1.205709	-0.038236	0.998092
	H404	H	1.181857	-0.036304	0.978810
	O405	O	0.028511	-0.121338	0.182796
	H406	H	0.058277	-0.117293	0.174584
	H407	H	0.038153	-0.142822	0.170058
	O408	O	1.005350	0.855540	0.791844
	H409	H	1.002181	0.852407	0.797130
	H410	H	1.003374	0.865600	0.784378
	O411	O	0.798212	0.967254	-0.135036
	H412	H	0.799600	0.969424	-0.123616
	H413	H	0.792106	0.961975	-0.116383
	O414	O	-0.102253	-0.022600	0.921364
	H415	H	-0.082012	-0.013330	0.921806
	H416	H	-0.113728	-0.012987	0.935493
	O417	O	0.530446	0.367323	0.477070
	H418	H	0.514814	0.346792	0.463923
	H419	H	0.538194	0.369352	0.498054
	O420	O	-0.137644	1.192294	-0.198191
	H421	H	-0.156516	1.162014	-0.190050
	H422	H	-0.112768	1.214406	-0.222138
	O423	O	0.913399	-0.177160	0.089806
	H424	H	0.906599	-0.172114	0.079002
	H425	H	0.931290	-0.186469	0.078291
	O426	O	-0.565412	-0.544458	0.593935
	H427	H	-0.569125	-0.541838	0.605356
	H428	H	-0.567404	-0.547456	0.578465
	O429	O	0.677879	0.568218	0.463121
	H430	H	0.678502	0.547085	0.463094
	H431	H	0.688179	0.581482	0.472956
