data_Molecule from HDF5

_cell_length_a		16.394183
_cell_length_b		16.489735
_cell_length_c		16.436975
_cell_angle_alpha	89.982390
_cell_angle_beta	90.082246
_cell_angle_gamma	89.888942
_symmetry_space_group_name_H-M	'P 1'
_symmetry_Int_Tables_number		1

loop_
	_symmetry_equiv_pos_as_xyz
	x,y,z

loop_
	_atom_site_label
	_atom_site_type_symbol
	_atom_site_fract_x
	_atom_site_fract_y
	_atom_site_fract_z
	H0	H	0.400540	0.833571	0.727194
	H1	H	0.614877	0.148457	0.726064
	H2	H	0.618408	0.834177	0.277829
	H3	H	0.399847	0.146155	0.279724
	H4	H	0.733103	0.383163	0.846783
	H5	H	0.729332	0.595888	0.161863
	H6	H	0.285438	0.598280	0.844832
	H7	H	0.285658	0.385066	0.159552
	H8	H	0.851013	0.716212	0.394043
	H9	H	0.166183	0.715288	0.610891
	H10	H	0.851764	0.268764	0.607908
	H11	H	0.165163	0.267551	0.393782
	H12	H	0.851484	0.384859	0.723974
	H13	H	0.166384	0.599892	0.727292
	H14	H	0.850745	0.599902	0.278148
	H15	H	0.166288	0.387175	0.281257
	H16	H	0.399539	0.715837	0.845609
	H17	H	0.614079	0.712528	0.160852
	H18	H	0.619137	0.265320	0.847404
	H19	H	0.400211	0.266727	0.159527
	H20	H	0.732501	0.833535	0.396008
	H21	H	0.731063	0.148168	0.607882
	H22	H	0.284499	0.833424	0.611593
	H23	H	0.284474	0.146321	0.396332
	H24	H	0.903338	0.332591	0.223708
	H25	H	0.115412	0.648051	0.226831
	H26	H	0.117977	0.334437	0.778056
	H27	H	0.902771	0.648161	0.781653
	H28	H	0.230302	0.883929	0.345073
	H29	H	0.230138	0.096525	0.661016
	H30	H	0.783939	0.099397	0.345288
	H31	H	0.787555	0.886139	0.660436
	H32	H	0.351511	0.214594	0.895944
	H33	H	0.667555	0.212370	0.110304
	H34	H	0.350687	0.767920	0.110724
	H35	H	0.667171	0.771407	0.900609
	H36	H	0.350345	0.885244	0.224472
	H37	H	0.666225	0.097990	0.226808
	H38	H	0.350079	0.098003	0.781615
	H39	H	0.667877	0.888745	0.785839
	H40	H	0.901124	0.213549	0.344069
	H41	H	0.115977	0.214418	0.659157
	H42	H	0.114557	0.768421	0.345178
	H43	H	0.899926	0.766669	0.658939
	H44	H	0.232011	0.333598	0.895470
	H45	H	0.231871	0.648202	0.110704
	H46	H	0.789441	0.332050	0.106970
	H47	H	0.788534	0.649034	0.900994
	H48	H	0.417410	0.104058	0.594419
	H49	H	0.599352	0.878446	0.589817
	H50	H	0.597864	0.101541	0.417519
	H51	H	0.419252	0.877525	0.417117
	H52	H	0.597010	0.402188	0.116192
	H53	H	0.599159	0.579037	0.889446
	H54	H	0.421022	0.579148	0.114970
	H55	H	0.422734	0.402420	0.890438
	H56	H	0.119339	0.574791	0.415029
	H57	H	0.898193	0.579702	0.585420
	H58	H	0.123692	0.396499	0.587484
	H59	H	0.895471	0.400975	0.418553
	H60	H	0.119172	0.406635	0.585052
	H61	H	0.897840	0.574244	0.592315
	H62	H	0.121646	0.581400	0.413476
	H63	H	0.895388	0.407170	0.411367
	H64	H	0.420590	0.579700	0.115256
	H65	H	0.595077	0.578194	0.891667
	H66	H	0.596016	0.400809	0.116332
	H67	H	0.420873	0.403208	0.890392
	H68	H	0.596594	0.103041	0.412152
	H69	H	0.599187	0.876734	0.596112
	H70	H	0.424378	0.100756	0.592005
	H71	H	0.419436	0.876807	0.413266
	H72	H	0.925915	0.601514	0.091384
	H73	H	0.092061	0.379360	0.096570
	H74	H	0.090582	0.601238	0.914203
	H75	H	0.917357	0.377172	0.915204
	H76	H	0.092765	0.906028	0.613258
	H77	H	0.103666	0.076238	0.388207
	H78	H	0.927541	0.081798	0.613066
	H79	H	0.928882	0.905229	0.392758
	H80	H	0.623829	0.079544	0.909286
	H81	H	0.394700	0.078641	0.093753
	H82	H	0.621946	0.905307	0.096276
	H83	H	0.392563	0.899158	0.914614
	H84	H	0.622917	0.895156	0.090121
	H85	H	0.396211	0.082256	0.087542
	H86	H	0.622969	0.083977	0.918488
	H87	H	0.395139	0.902948	0.916115
	H88	H	0.917011	0.083664	0.617281
	H89	H	0.090987	0.073655	0.393664
	H90	H	0.093458	0.899342	0.615595
	H91	H	0.918728	0.895068	0.386343
	H92	H	0.098794	0.602082	0.918281
	H93	H	0.093450	0.382647	0.084938
	H94	H	0.914804	0.603428	0.086389
	H95	H	0.921880	0.376384	0.910288
	H96	H	0.417650	0.101452	0.587209
	H97	H	0.593954	0.879814	0.593489
	H98	H	0.592231	0.100844	0.415641
	H99	H	0.422345	0.878619	0.414596
	H100	H	0.597704	0.401245	0.116180
	H101	H	0.596511	0.582126	0.889807
	H102	H	0.420148	0.579021	0.115104
	H103	H	0.422297	0.404364	0.891352
	H104	H	0.118058	0.580032	0.420396
	H105	H	0.894401	0.582805	0.592914
	H106	H	0.123282	0.404753	0.595616
	H107	H	0.892309	0.398302	0.410353
	H108	H	0.916693	0.606753	0.098230
	H109	H	0.102424	0.377401	0.090841
	H110	H	0.097455	0.605151	0.909625
	H111	H	0.923333	0.379985	0.916748
	H112	H	0.099260	0.903612	0.616569
	H113	H	0.093534	0.086858	0.388024
	H114	H	0.919049	0.073430	0.612577
	H115	H	0.914643	0.909201	0.389950
	H116	H	0.619885	0.073640	0.916810
	H117	H	0.398390	0.075641	0.088380
	H118	H	0.618312	0.905207	0.085084
	H119	H	0.393744	0.902954	0.911728
	C120	C	0.386368	-0.001372	0.625195
	C121	C	0.630156	0.982609	0.624907
	C122	C	0.629916	-0.001551	0.381492
	C123	C	0.386908	0.981284	0.381813
	C124	C	0.630619	0.368367	0.012432
	C125	C	0.629185	0.611921	0.994888
	C126	C	0.387012	0.612866	0.011036
	C127	C	0.387740	0.369798	0.994384
	C128	C	0.015973	0.612460	0.381714
	C129	C	1.000408	0.612877	0.624232
	C130	C	0.017408	0.369994	0.622495
	C131	C	0.998940	0.369536	0.380484
	C132	C	0.887150	0.499095	0.124332
	C133	C	0.129462	0.483140	0.124180
	C134	C	0.129800	0.499301	0.880646
	C135	C	0.887284	0.482011	0.881605
	C136	C	0.128781	0.869625	0.511072
	C137	C	0.129717	0.112194	0.493780
	C138	C	0.887043	0.112778	0.510440
	C139	C	0.887192	0.869919	0.493571
	C140	C	0.517720	0.112666	0.881678
	C141	C	0.500637	0.111878	0.124036
	C142	C	0.516629	0.869321	0.123818
	C143	C	0.499023	0.869669	0.882025
	C144	C	0.383097	0.880830	0.686844
	C145	C	0.632977	0.101112	0.685544
	C146	C	0.635298	0.880981	0.319189
	C147	C	0.382450	0.098904	0.320198
	C148	C	0.692588	0.365142	0.894025
	C149	C	0.689661	0.614232	0.114001
	C150	C	0.325640	0.616211	0.892335
	C151	C	0.325813	0.366543	0.112343
	C152	C	0.897990	0.675191	0.376793
	C153	C	0.118756	0.674672	0.628588
	C154	C	0.898918	0.308921	0.626117
	C155	C	0.118043	0.308681	0.376687
	C156	C	0.898954	0.366723	0.683797
	C157	C	0.118964	0.616848	0.686334
	C158	C	0.897818	0.617038	0.319364
	C159	C	0.118616	0.368195	0.320816
	C160	C	0.382404	0.674912	0.892964
	C161	C	0.631948	0.672237	0.113762
	C162	C	0.635994	0.306285	0.894407
	C163	C	0.383164	0.307852	0.112269
	C164	C	0.692261	0.880713	0.377795
	C165	C	0.690894	0.101046	0.627045
	C166	C	0.324885	0.880676	0.629227
	C167	C	0.324832	0.099125	0.378305
	C168	C	0.885401	0.380141	0.184142
	C169	C	0.133187	0.601163	0.185962
	C170	C	0.134672	0.381363	0.819009
	C171	C	0.884422	0.600636	0.821593
	C172	C	0.190155	0.866013	0.392544
	C173	C	0.190359	0.114883	0.612911
	C174	C	0.825110	0.116439	0.392256
	C175	C	0.826699	0.867130	0.612533
	C176	C	0.398884	0.174143	0.878179
	C177	C	0.619405	0.172851	0.128114
	C178	C	0.397966	0.808471	0.127757
	C179	C	0.619335	0.810766	0.881260
	C180	C	0.397840	0.866744	0.184705
	C181	C	0.618887	0.115495	0.186101
	C182	C	0.398029	0.115769	0.821470
	C183	C	0.619681	0.869164	0.824238
	C184	C	0.883571	0.173332	0.391621
	C185	C	0.133619	0.173811	0.612049
	C186	C	0.132255	0.808600	0.392516
	C187	C	0.882912	0.808107	0.611841
	C188	C	0.191933	0.381214	0.877301
	C189	C	0.191070	0.601209	0.127975
	C190	C	0.828357	0.379842	0.125914
	C191	C	0.827463	0.601069	0.880736
	C192	C	0.412265	0.080632	0.598745
	C193	C	0.604868	0.899941	0.600157
	C194	C	0.603145	0.080473	0.407652
	C195	C	0.413008	0.898992	0.407662
	C196	C	0.604457	0.394081	0.094616
	C197	C	0.603995	0.586957	0.911881
	C198	C	0.413040	0.586971	0.093510
	C199	C	0.414378	0.395804	0.912228
	C200	C	0.098264	0.586161	0.408656
	C201	C	0.918124	0.586382	0.597645
	C202	C	0.100398	0.395480	0.596733
	C203	C	0.916006	0.394804	0.406245
	C204	C	0.912057	0.582238	0.099328
	C205	C	0.103480	0.401264	0.098192
	C206	C	0.103311	0.581282	0.906601
	C207	C	0.913347	0.399281	0.906714
	C208	C	0.102582	0.895484	0.593703
	C209	C	0.103702	0.086348	0.411318
	C210	C	0.913540	0.087007	0.592889
	C211	C	0.913232	0.895700	0.411296
	C212	C	0.600509	0.086689	0.907301
	C213	C	0.418057	0.086196	0.097582
	C214	C	0.599420	0.894608	0.097946
	C215	C	0.415700	0.894433	0.906905
	Zn216	Zn	0.508060	-0.009064	0.753895
	Zn217	Zn	0.508757	-0.010162	0.252611
	Zn218	Zn	0.758289	0.490404	0.003763
	Zn219	Zn	0.258568	0.491750	0.002290
	Zn220	Zn	0.008190	0.741238	0.502631
	Zn221	Zn	0.008023	0.241011	0.501640
	Zn222	Zn	0.008526	0.490566	0.751804
	Zn223	Zn	0.007990	0.491446	0.252705
	Zn224	Zn	0.507995	0.741143	0.003220
	Zn225	Zn	0.509092	0.240373	0.003152
	Zn226	Zn	0.758840	-0.008783	0.502206
	Zn227	Zn	0.257694	-0.010286	0.503111
	N228	N	0.420602	0.955210	0.684419
	N229	N	0.595929	0.026402	0.684503
	N230	N	0.597336	0.955331	0.321291
	N231	N	0.420419	0.024618	0.322190
	N232	N	0.689316	0.403181	0.968221
	N233	N	0.687891	0.577186	0.039198
	N234	N	0.328159	0.578485	0.966877
	N235	N	0.328547	0.404372	0.037983
	N236	N	0.972545	0.672439	0.415070
	N237	N	0.044088	0.672319	0.590580
	N238	N	0.973725	0.310905	0.588825
	N239	N	0.042591	0.309318	0.412925
	N240	N	0.973782	0.403956	0.681639
	N241	N	0.044418	0.578887	0.683647
	N242	N	0.971999	0.578743	0.322532
	N243	N	0.043546	0.405282	0.323138
	N244	N	0.419715	0.673034	0.967777
	N245	N	0.594848	0.670818	0.038845
	N246	N	0.597895	0.308393	0.968810
	N247	N	0.420912	0.309805	0.037781
	N248	N	0.688787	0.954768	0.415933
	N249	N	0.689222	0.026385	0.590369
	N250	N	0.326844	0.955027	0.591503
	N251	N	0.327617	0.024953	0.416049
	N252	N	0.921049	0.455475	0.183311
	N253	N	0.095696	0.526916	0.183758
	N254	N	0.097110	0.455818	0.820573
	N255	N	0.920688	0.525401	0.821911
	N256	N	0.187996	0.903265	0.467175
	N257	N	0.188185	0.077427	0.538284
	N258	N	0.827383	0.079290	0.467000
	N259	N	0.828967	0.904772	0.537986
	N260	N	0.474364	0.172637	0.914549
	N261	N	0.544634	0.170585	0.090159
	N262	N	0.472835	0.809991	0.090738
	N263	N	0.543085	0.810590	0.916021
	N264	N	0.472678	0.904115	0.182217
	N265	N	0.543998	0.078141	0.183772
	N266	N	0.472916	0.078200	0.823524
	N267	N	0.543769	0.904611	0.824371
	N268	N	0.921677	0.171077	0.466253
	N269	N	0.096675	0.172465	0.536913
	N270	N	0.094986	0.810659	0.467403
	N271	N	0.919712	0.809629	0.536935
	N272	N	0.188858	0.455504	0.915102
	N273	N	0.188998	0.526903	0.090109
	N274	N	0.829163	0.455039	0.089731
	N275	N	0.828910	0.526064	0.917031
	O276	O	0.561074	0.427346	0.728943
	H277	H	0.569400	0.448282	0.730036
	H278	H	0.564241	0.449126	0.725205
	O279	O	0.799698	-0.078448	1.121036
	H280	H	0.802847	-0.085550	1.111829
	H281	H	0.810328	-0.084849	1.108160
	O282	O	0.396029	0.698360	0.541754
	H283	H	0.407121	0.699741	0.529932
	H284	H	0.391922	0.688460	0.533363
	O285	O	0.460886	0.269419	0.453715
	H286	H	0.459022	0.270150	0.463242
	H287	H	0.455673	0.268972	0.445515
	O288	O	1.130554	1.100274	0.045897
	H289	H	1.134689	1.106599	0.067328
	H290	H	1.133774	1.111095	0.058381
	O291	O	0.582794	0.388561	0.598987
	H292	H	0.563582	0.413991	0.579754
	H293	H	0.583722	0.398633	0.575019
	O294	O	-0.025790	0.174699	1.162678
	H295	H	-0.052148	0.165965	1.147303
	H296	H	-0.031352	0.177979	1.179818
	O297	O	0.295591	0.466746	1.715400
	H298	H	0.278840	0.451969	1.722316
	H299	H	0.283687	0.482113	1.718610
	O300	O	0.322692	0.679453	0.318088
	H301	H	0.335838	0.690226	0.323117
	H302	H	0.313291	0.629775	0.310941
	O303	O	-0.293246	-0.621578	0.519652
	H304	H	-0.291867	-0.606010	0.546619
	H305	H	-0.305700	-0.635396	0.528531
	O306	O	0.548846	0.274765	0.557717
	H307	H	0.536231	0.273526	0.577668
	H308	H	0.531330	0.280701	0.562038
	O309	O	0.724630	0.516555	0.722640
	H310	H	0.732124	0.549848	0.725460
	H311	H	0.739870	0.538477	0.739732
	O312	O	-0.106349	1.104340	0.792311
	H313	H	-0.078854	1.108988	0.806417
	H314	H	-0.118726	1.120169	0.765918
	O315	O	0.700723	0.459859	0.468927
	H316	H	0.696909	0.465917	0.470701
	H317	H	0.702670	0.440780	0.459599
	O318	O	1.197148	0.173103	0.187496
	H319	H	1.157995	0.186691	0.187153
	H320	H	1.201539	0.190894	0.184649
	O321	O	0.167192	0.089380	0.042463
	H322	H	0.172852	0.091297	0.029980
	H323	H	0.154518	0.099066	0.044572
	O324	O	0.987337	1.104568	-0.147154
	H325	H	1.002946	1.108580	-0.141207
	H326	H	0.987009	1.112640	-0.121132
	O327	O	0.705599	0.698930	0.531146
	H328	H	0.698616	0.699570	0.521895
	H329	H	0.719158	0.723260	0.533021
	O330	O	0.007959	1.003329	-0.101003
	H331	H	0.016749	1.009461	-0.115429
	H332	H	0.012254	0.994752	-0.093149
	O333	O	0.526866	0.273659	0.289868
	H334	H	0.517004	0.263607	0.290718
	H335	H	0.542485	0.266548	0.275317
	O336	O	0.013677	-0.223614	0.115585
	H337	H	0.023947	-0.236068	0.119124
	H338	H	0.006703	-0.215791	0.107887
	O339	O	0.203033	0.887117	1.076237
	H340	H	0.211590	0.898489	1.085835
	H341	H	0.191095	0.880129	1.088970
	O342	O	0.322736	1.305533	0.680023
	H343	H	0.333247	1.316657	0.665543
	H344	H	0.354766	1.315358	0.694341
	O345	O	0.852884	0.977483	-0.031523
	H346	H	0.848700	0.986341	-0.055038
	H347	H	0.869605	0.977929	-0.032657
	O348	O	0.301089	0.514176	0.295156
	H349	H	0.289857	0.502266	0.287700
	H350	H	0.309908	0.495065	0.294628
	O351	O	0.299021	1.373966	1.387555
	H352	H	0.312965	1.371223	1.404130
	H353	H	0.310309	1.384086	1.391200
	O354	O	-0.101012	0.814758	0.010922
	H355	H	-0.092446	0.809315	-0.003223
	H356	H	-0.094958	0.838430	0.009618
	O357	O	-0.035955	-0.012284	1.170867
	H358	H	-0.033698	-0.022818	1.177690
	H359	H	-0.038351	-0.027997	1.168624
	O360	O	0.728325	0.523463	0.471244
	H361	H	0.734379	0.531944	0.467267
	H362	H	0.737710	0.535316	0.489557
	O363	O	0.183741	-0.113002	0.872088
	H364	H	0.181174	-0.104310	0.895610
	H365	H	0.190830	-0.087990	0.864305
	O366	O	0.485071	0.467298	0.288009
	H367	H	0.494121	0.459132	0.291946
	H368	H	0.489621	0.482656	0.289272
	O369	O	0.607930	0.613505	-0.345147
	H370	H	0.599190	0.614977	-0.359662
	H371	H	0.627383	0.630979	-0.338458
	O372	O	1.206410	-0.156272	0.948416
	H373	H	1.223224	-0.171172	0.948868
	H374	H	1.205496	-0.134462	0.949432
	O375	O	0.076180	0.881011	1.005080
	H376	H	0.078198	0.897351	1.010495
	H377	H	0.079144	0.877161	1.012564
	O378	O	0.834028	0.877543	1.004011
	H379	H	0.845031	0.871040	0.997444
	H380	H	0.835492	0.871196	1.017661
	O381	O	0.718938	0.468240	0.291105
	H382	H	0.713256	0.448262	0.303498
	H383	H	0.742444	0.471974	0.272193
	O384	O	-0.247248	0.731247	0.850079
	H385	H	-0.263302	0.739726	0.859054
	H386	H	-0.252441	0.737043	0.821620
	O387	O	-0.060656	0.076705	1.209179
	H388	H	-0.045253	0.063329	1.221954
	H389	H	-0.095089	0.066468	1.212979
	O390	O	0.215833	0.011228	0.209670
	H391	H	0.215390	0.041349	0.212584
	H392	H	0.233663	0.033946	0.226575
	O393	O	1.042498	1.074225	1.009939
	H394	H	1.036020	1.079856	1.021447
	H395	H	1.050347	1.070012	1.007611
	O396	O	0.381501	0.476986	0.466549
	H397	H	0.396734	0.476928	0.472556
	H398	H	0.381078	0.466444	0.459069
	O399	O	0.570770	0.699801	0.457493
	H400	H	0.562939	0.704569	0.430750
	H401	H	0.568864	0.700922	0.477769
	O402	O	0.861009	1.178436	0.953295
	H403	H	0.840458	1.196809	0.943272
	H404	H	0.851503	1.156742	0.946917
	O405	O	0.694005	0.306182	-0.680508
	H406	H	0.675060	0.317688	-0.686380
	H407	H	0.696257	0.299315	-0.637531
	O408	O	1.171938	0.024021	-0.195551
	H409	H	1.182937	0.048768	-0.202514
	H410	H	1.182100	0.027785	-0.191651
	O411	O	1.003866	0.994739	-0.123713
	H412	H	1.006548	0.995985	-0.113286
	H413	H	1.000630	1.001147	-0.126391
	O414	O	0.503160	0.494499	0.522087
	H415	H	0.497446	0.499619	0.526031
	H416	H	0.517165	0.493069	0.513635
	O417	O	0.556114	1.534214	-0.616877
	H418	H	0.569914	1.543368	-0.620161
	H419	H	0.560560	1.529823	-0.626706
	O420	O	-0.184305	0.181935	-0.022423
	H421	H	-0.176088	0.187205	-0.030570
	H422	H	-0.199184	0.174475	-0.016289
	O423	O	0.485276	0.279558	0.718496
	H424	H	0.500792	0.293265	0.734984
	H425	H	0.493570	0.273545	0.740580
	O426	O	0.029642	1.191683	0.862426
	H427	H	0.019020	1.207698	0.864516
	H428	H	0.034154	1.189792	0.870681
	O429	O	0.401237	0.619856	0.614654
	H430	H	0.391119	0.636925	0.614420
	H431	H	0.391774	0.606982	0.612774
	O432	O	0.301393	0.617579	0.485914
	H433	H	0.300323	0.626894	0.486810
	H434	H	0.312423	0.618915	0.484674
	O435	O	0.537521	0.710565	0.723542
	H436	H	0.529233	0.697780	0.728846
	H437	H	0.532864	0.732436	0.743550
	O438	O	-0.103985	-0.166185	0.199177
	H439	H	-0.092574	-0.162146	0.205902
	H440	H	-0.106406	-0.171947	0.180189
	O441	O	1.028870	-0.201991	-0.158778
	H442	H	1.043498	-0.217174	-0.176617
	H443	H	1.065018	-0.188100	-0.153740
	O444	O	0.856742	-0.094182	0.841203
	H445	H	0.876239	-0.076078	0.834289
	H446	H	0.853565	-0.084707	0.829524
	O447	O	0.485291	0.697279	0.303532
	H448	H	0.468788	0.708829	0.302548
	H449	H	0.488789	0.691742	0.293251
	O450	O	0.526392	0.507867	0.568541
	H451	H	0.531804	0.515829	0.569238
	H452	H	0.534559	0.513847	0.568323
	O453	O	0.293951	0.282106	0.518709
	H454	H	0.280652	0.281750	0.529283
	H455	H	0.294078	0.268834	0.533269
