data_Molecule from HDF5

_cell_length_a		16.262051
_cell_length_b		16.309998
_cell_length_c		16.559679
_cell_angle_alpha	90.017092
_cell_angle_beta	90.234255
_cell_angle_gamma	90.101939
_symmetry_space_group_name_H-M	'P 1'
_symmetry_Int_Tables_number		1

loop_
	_symmetry_equiv_pos_as_xyz
	x,y,z

loop_
	_atom_site_label
	_atom_site_type_symbol
	_atom_site_fract_x
	_atom_site_fract_y
	_atom_site_fract_z
	H0	H	0.392585	0.830510	0.709004
	H1	H	0.606050	0.148363	0.707625
	H2	H	0.609297	0.830783	0.263382
	H3	H	0.393929	0.148101	0.265655
	H4	H	0.718651	0.387153	0.827156
	H5	H	0.722307	0.594052	0.145068
	H6	H	0.278882	0.590283	0.827922
	H7	H	0.280844	0.385051	0.146495
	H8	H	0.838719	0.705797	0.383200
	H9	H	0.159874	0.708374	0.593007
	H10	H	0.838129	0.271193	0.588468
	H11	H	0.162413	0.271999	0.388448
	H12	H	0.840502	0.380563	0.708137
	H13	H	0.157366	0.597620	0.712339
	H14	H	0.840272	0.594113	0.265276
	H15	H	0.159699	0.380699	0.267018
	H16	H	0.393191	0.710120	0.828217
	H17	H	0.608523	0.713598	0.143289
	H18	H	0.602094	0.270056	0.826751
	H19	H	0.396871	0.267172	0.145583
	H20	H	0.716944	0.827618	0.385515
	H21	H	0.719569	0.149504	0.590174
	H22	H	0.281530	0.827632	0.590208
	H23	H	0.282301	0.149899	0.385837
	H24	H	0.892711	0.328034	0.207949
	H25	H	0.109393	0.645573	0.210985
	H26	H	0.109727	0.330581	0.763040
	H27	H	0.887364	0.644768	0.760756
	H28	H	0.222355	0.882042	0.329943
	H29	H	0.223389	0.094849	0.645115
	H30	H	0.776705	0.093940	0.329080
	H31	H	0.777011	0.880774	0.644248
	H32	H	0.337862	0.205403	0.884410
	H33	H	0.660836	0.208911	0.091258
	H34	H	0.340920	0.767174	0.090497
	H35	H	0.659149	0.767802	0.880371
	H36	H	0.341860	0.877927	0.209792
	H37	H	0.658770	0.098864	0.211288
	H38	H	0.339959	0.095595	0.764110
	H39	H	0.658086	0.881015	0.764272
	H40	H	0.893139	0.211055	0.329574
	H41	H	0.106829	0.212085	0.645054
	H42	H	0.108030	0.762927	0.330711
	H43	H	0.892443	0.763420	0.642924
	H44	H	0.217983	0.327123	0.885033
	H45	H	0.219918	0.649079	0.090675
	H46	H	0.779835	0.328132	0.089778
	H47	H	0.779574	0.648594	0.882511
	H48	H	0.420790	0.102141	0.581776
	H49	H	0.584266	0.875441	0.577176
	H50	H	0.585671	0.104230	0.392879
	H51	H	0.407896	0.873013	0.397868
	H52	H	0.584022	0.397374	0.097515
	H53	H	0.584033	0.580267	0.876242
	H54	H	0.413186	0.575832	0.096679
	H55	H	0.405492	0.394640	0.872685
	H56	H	0.113787	0.574726	0.398678
	H57	H	0.884813	0.570935	0.581102
	H58	H	0.112122	0.406357	0.576765
	H59	H	0.885176	0.396078	0.399535
	H60	H	0.115999	0.399380	0.580923
	H61	H	0.884236	0.580488	0.573782
	H62	H	0.113953	0.574735	0.398754
	H63	H	0.886304	0.403689	0.395973
	H64	H	0.414086	0.579553	0.098168
	H65	H	0.592676	0.581212	0.872345
	H66	H	0.592516	0.395584	0.100877
	H67	H	0.407239	0.399469	0.874929
	H68	H	0.582533	0.100535	0.400199
	H69	H	0.590092	0.874122	0.574495
	H70	H	0.412144	0.099934	0.566274
	H71	H	0.414136	0.873792	0.392245
	H72	H	0.915971	0.601010	0.077581
	H73	H	0.080780	0.375501	0.080120
	H74	H	0.092820	0.604080	0.897155
	H75	H	0.909923	0.376248	0.906211
	H76	H	0.090688	0.905736	0.597429
	H77	H	0.094162	0.078402	0.374198
	H78	H	0.911647	0.078519	0.598642
	H79	H	0.912407	0.899122	0.375315
	H80	H	0.613158	0.073601	0.895825
	H81	H	0.385716	0.076844	0.078246
	H82	H	0.614384	0.899929	0.075217
	H83	H	0.386363	0.909545	0.890182
	H84	H	0.612935	0.904442	0.073459
	H85	H	0.386154	0.077689	0.074676
	H86	H	0.616479	0.080492	0.891924
	H87	H	0.380617	0.891772	0.893197
	H88	H	0.910194	0.079558	0.599635
	H89	H	0.087199	0.074761	0.378090
	H90	H	0.082693	0.895929	0.597162
	H91	H	0.909000	0.895096	0.373167
	H92	H	0.082687	0.601860	0.893676
	H93	H	0.093101	0.374507	0.070243
	H94	H	0.912183	0.601303	0.074969
	H95	H	0.907423	0.371146	0.892158
	H96	H	0.403326	0.107022	0.580401
	H97	H	0.589012	0.872911	0.580856
	H98	H	0.591334	0.103148	0.399947
	H99	H	0.415785	0.876028	0.399887
	H100	H	0.591020	0.403540	0.097130
	H101	H	0.589736	0.572465	0.876091
	H102	H	0.409944	0.578069	0.098562
	H103	H	0.411036	0.394996	0.874284
	H104	H	0.113950	0.575288	0.398502
	H105	H	0.889121	0.569925	0.569416
	H106	H	0.114422	0.398360	0.572847
	H107	H	0.882442	0.397046	0.391089
	H108	H	0.912364	0.603050	0.079663
	H109	H	0.094785	0.369465	0.084922
	H110	H	0.085448	0.599305	0.904299
	H111	H	0.920570	0.377262	0.895867
	H112	H	0.094423	0.894027	0.602373
	H113	H	0.086678	0.082777	0.374451
	H114	H	0.908984	0.077699	0.598766
	H115	H	0.907094	0.900645	0.373868
	H116	H	0.614417	0.081028	0.899458
	H117	H	0.386733	0.074629	0.075819
	H118	H	0.614710	0.903856	0.077481
	H119	H	0.388565	0.901337	0.907286
	C120	C	0.379594	-0.002534	0.607589
	C121	C	0.621258	0.979740	0.608940
	C122	C	0.619724	-0.002858	0.365578
	C123	C	0.378922	0.979883	0.364922
	C124	C	0.621001	0.367369	-0.005572
	C125	C	0.622409	0.611283	0.978457
	C126	C	0.379145	0.609534	-0.006226
	C127	C	0.377080	0.365401	0.978629
	C128	C	0.008370	0.607891	0.365839
	C129	C	0.990996	0.608107	0.608385
	C130	C	0.008727	0.367738	0.608918
	C131	C	0.991219	0.366975	0.365621
	C132	C	0.879773	0.496464	0.108471
	C133	C	0.122420	0.478731	0.109740
	C134	C	0.120229	0.496706	0.866115
	C135	C	0.878829	0.479688	0.865259
	C136	C	0.122107	0.865863	0.495398
	C137	C	0.122025	0.110964	0.479782
	C138	C	0.877645	0.110668	0.495155
	C139	C	0.877360	0.865770	0.478220
	C140	C	0.508088	0.109945	0.864543
	C141	C	0.491759	0.109736	0.108711
	C142	C	0.508832	0.868520	0.107510
	C143	C	0.490953	0.868288	0.864985
	C144	C	0.375522	0.877730	0.668305
	C145	C	0.623934	0.100291	0.667922
	C146	C	0.625080	0.878045	0.304555
	C147	C	0.375775	0.100039	0.305504
	C148	C	0.679279	0.367819	0.874789
	C149	C	0.682839	0.613058	0.097405
	C150	C	0.318837	0.609978	0.875211
	C151	C	0.319729	0.365509	0.098606
	C152	C	0.887312	0.666802	0.364227
	C153	C	0.111432	0.668831	0.611137
	C154	C	0.887112	0.309088	0.608530
	C155	C	0.113308	0.309556	0.367246
	C156	C	0.888310	0.363896	0.668032
	C157	C	0.110272	0.613604	0.670629
	C158	C	0.888102	0.610806	0.305624
	C159	C	0.112106	0.364166	0.307332
	C160	C	0.375993	0.669632	0.875408
	C161	C	0.625959	0.672617	0.096364
	C162	C	0.621233	0.309338	0.874605
	C163	C	0.377710	0.307138	0.098319
	C164	C	0.678813	0.876190	0.365363
	C165	C	0.680225	0.100846	0.609051
	C166	C	0.320201	0.876462	0.609208
	C167	C	0.320278	0.100995	0.365355
	C168	C	0.875787	0.376155	0.167918
	C169	C	0.126508	0.598472	0.170057
	C170	C	0.125402	0.377609	0.804625
	C171	C	0.872653	0.598047	0.802858
	C172	C	0.182268	0.863721	0.377169
	C173	C	0.182751	0.113148	0.597977
	C174	C	0.817172	0.112274	0.376344
	C175	C	0.817036	0.862875	0.596580
	C176	C	0.386684	0.167660	0.864488
	C177	C	0.612163	0.170302	0.110629
	C178	C	0.388928	0.806754	0.109492
	C179	C	0.611036	0.807450	0.862472
	C180	C	0.389695	0.862180	0.168819
	C181	C	0.611142	0.115252	0.170429
	C182	C	0.387732	0.112881	0.804657
	C183	C	0.610620	0.864182	0.804732
	C184	C	0.874934	0.171001	0.376674
	C185	C	0.124755	0.171716	0.597975
	C186	C	0.125251	0.804249	0.377555
	C187	C	0.874443	0.804118	0.596039
	C188	C	0.179729	0.375884	0.865073
	C189	C	0.181646	0.600167	0.110102
	C190	C	0.819221	0.375971	0.109321
	C191	C	0.818555	0.599900	0.863445
	C192	C	0.404874	0.081257	0.583120
	C193	C	0.595445	0.896051	0.584741
	C194	C	0.593839	0.080818	0.390401
	C195	C	0.404939	0.896122	0.389431
	C196	C	0.596493	0.391746	0.077098
	C197	C	0.596410	0.585563	0.896232
	C198	C	0.404965	0.584785	0.076364
	C199	C	0.400875	0.389413	0.895586
	C200	C	0.092246	0.582327	0.391070
	C201	C	0.907684	0.581457	0.582414
	C202	C	0.092481	0.393792	0.584171
	C203	C	0.906794	0.391598	0.388871
	C204	C	0.905898	0.579963	0.084230
	C205	C	0.097115	0.394961	0.085473
	C206	C	0.094492	0.579959	0.891353
	C207	C	0.905216	0.396492	0.890639
	C208	C	0.096628	0.891382	0.577640
	C209	C	0.096603	0.085794	0.397106
	C210	C	0.903072	0.085942	0.577522
	C211	C	0.902497	0.891117	0.395740
	C212	C	0.592606	0.085338	0.888735
	C213	C	0.407965	0.083659	0.083378
	C214	C	0.592322	0.895197	0.082540
	C215	C	0.407062	0.893738	0.889716
	Zn216	Zn	0.499507	-0.011163	0.736607
	Zn217	Zn	0.500081	-0.011311	0.236521
	Zn218	Zn	0.751885	0.488593	-0.012936
	Zn219	Zn	0.248480	0.488274	-0.012733
	Zn220	Zn	-0.000406	0.735918	0.486365
	Zn221	Zn	-0.000201	0.240188	0.487514
	Zn222	Zn	-0.000493	0.488006	0.737250
	Zn223	Zn	0.000716	0.487868	0.237221
	Zn224	Zn	0.500249	0.740571	-0.014025
	Zn225	Zn	0.500126	0.236921	-0.013258
	Zn226	Zn	0.748421	-0.011787	0.486373
	Zn227	Zn	0.251365	-0.012042	0.487678
	N228	N	0.411625	0.953999	0.667638
	N229	N	0.588140	0.023808	0.668159
	N230	N	0.589405	0.954445	0.304453
	N231	N	0.411121	0.023493	0.304870
	N232	N	0.679548	0.402903	0.950247
	N233	N	0.680837	0.575512	0.022959
	N234	N	0.320734	0.573347	0.949815
	N235	N	0.318943	0.400647	0.023182
	N236	N	0.963035	0.664985	0.401197
	N237	N	0.036243	0.665601	0.573071
	N238	N	0.963132	0.311212	0.572513
	N239	N	0.036948	0.310957	0.402589
	N240	N	0.965094	0.399417	0.668525
	N241	N	0.034231	0.576635	0.669066
	N242	N	0.964550	0.574956	0.306483
	N243	N	0.035236	0.398961	0.305955
	N244	N	0.412840	0.669357	0.950320
	N245	N	0.589430	0.671766	0.021458
	N246	N	0.585670	0.309049	0.949859
	N247	N	0.412531	0.306876	0.022769
	N248	N	0.675660	0.951296	0.402783
	N249	N	0.678983	0.024764	0.573393
	N250	N	0.322615	0.951804	0.572174
	N251	N	0.321952	0.025004	0.401436
	N252	N	0.912829	0.452148	0.167532
	N253	N	0.090781	0.522189	0.170132
	N254	N	0.088931	0.453578	0.805151
	N255	N	0.909558	0.522288	0.804083
	N256	N	0.180180	0.901395	0.451290
	N257	N	0.181066	0.075829	0.523519
	N258	N	0.818861	0.075338	0.450891
	N259	N	0.818763	0.900637	0.522411
	N260	N	0.462618	0.166008	0.901129
	N261	N	0.536835	0.167024	0.072718
	N262	N	0.464098	0.810480	0.072051
	N263	N	0.535496	0.809944	0.899303
	N264	N	0.465186	0.900129	0.167544
	N265	N	0.535229	0.078122	0.169075
	N266	N	0.464495	0.077812	0.804565
	N267	N	0.534893	0.901285	0.806129
	N268	N	0.911937	0.170120	0.451383
	N269	N	0.087651	0.170334	0.523385
	N270	N	0.088388	0.805342	0.452179
	N271	N	0.911248	0.805581	0.521515
	N272	N	0.176605	0.450815	0.902799
	N273	N	0.179026	0.524627	0.073175
	N274	N	0.821382	0.451647	0.073145
	N275	N	0.822339	0.525331	0.901784
	O276	O	0.502296	0.584247	0.367751
	H277	H	0.502024	0.577468	0.382687
	H278	H	0.492126	0.598402	0.360716
	O279	O	0.455791	0.632374	0.621382
	H280	H	0.454283	0.644061	0.622280
	H281	H	0.450917	0.636335	0.610846
	O282	O	0.598991	0.539973	0.503155
	H283	H	0.573532	0.537957	0.495858
	H284	H	0.606317	0.535312	0.503565
	O285	O	1.039299	-0.093261	0.040511
	H286	H	1.039653	-0.106284	0.033199
	H287	H	1.027952	-0.086039	0.048381
	O288	O	-0.162182	-0.069956	0.888068
	H289	H	-0.193574	-0.059599	0.865292
	H290	H	-0.146516	-0.095131	0.903531
	O291	O	0.449194	0.473629	0.650176
	H292	H	0.445574	0.463790	0.653927
	H293	H	0.436112	0.478687	0.655157
	O294	O	0.474594	0.555853	0.439167
	H295	H	0.486475	0.545665	0.435706
	H296	H	0.477626	0.573420	0.438069
	O297	O	1.186572	1.175737	1.170488
	H298	H	1.195552	1.158478	1.153746
	H299	H	1.167446	1.156087	1.180355
	O300	O	-0.582576	0.649736	0.545385
	H301	H	-0.588184	0.653005	0.538504
	H302	H	-0.569688	0.647680	0.539211
	O303	O	0.402947	0.426027	0.305347
	H304	H	0.382570	0.407922	0.313722
	H305	H	0.401206	0.422212	0.307648
	O306	O	0.945419	0.167361	-0.026888
	H307	H	0.929686	0.176973	-0.036167
	H308	H	0.956184	0.176128	-0.043889
	O309	O	0.374119	0.662911	0.301358
	H310	H	0.386741	0.673583	0.297082
	H311	H	0.359331	0.634526	0.298943
	O312	O	1.089487	1.149158	-0.110732
	H313	H	1.086228	1.146716	-0.096377
	H314	H	1.101150	1.139734	-0.103893
	O315	O	0.561243	0.504387	0.408082
	H316	H	0.549885	0.515218	0.415208
	H317	H	0.562815	0.517710	0.400331
	O318	O	0.629719	0.540106	0.377891
	H319	H	0.634701	0.539004	0.371324
	H320	H	0.616716	0.550628	0.363583
	O321	O	1.186696	0.018702	1.077346
	H322	H	1.194722	-0.002371	1.079755
	H323	H	1.190961	0.011665	1.095154
	O324	O	-0.173085	-0.223537	0.990428
	H325	H	-0.194945	-0.246867	0.985795
	H326	H	-0.167122	-0.212400	0.988922
	O327	O	0.605178	0.415072	0.544187
	H328	H	0.608082	0.422359	0.546853
	H329	H	0.617807	0.413917	0.535924
	O330	O	0.590342	0.417371	0.550935
	H331	H	0.594286	0.412988	0.560815
	H332	H	0.604478	0.427396	0.554052
	O333	O	0.803838	0.935341	1.187898
	H334	H	0.804422	0.968787	1.172427
	H335	H	0.784089	0.939253	1.190435
	O336	O	0.493394	0.429078	0.498092
	H337	H	0.496355	0.430684	0.491568
	H338	H	0.494109	0.434981	0.500181
	O339	O	1.026117	0.200363	1.205919
	H340	H	1.032457	0.195265	1.194501
	H341	H	1.027115	0.223427	1.234028
	O342	O	0.074986	1.071402	1.152106
	H343	H	0.065711	1.058255	1.144844
	H344	H	0.085282	1.053462	1.147982
	O345	O	0.099214	0.909091	1.135129
	H346	H	0.105263	0.907399	1.115892
	H347	H	0.084612	0.897719	1.134490
	O348	O	1.194087	0.787805	0.955899
	H349	H	1.199668	0.779789	0.966088
	H350	H	1.190274	0.791721	0.931024
	O351	O	0.178633	-0.120984	-0.187158
	H352	H	0.175093	-0.093999	-0.189577
	H353	H	0.147961	-0.120412	-0.196978
	O354	O	0.905744	1.122607	-0.225752
	H355	H	0.922321	1.118807	-0.209731
	H356	H	0.895675	1.144444	-0.254610
	O357	O	-0.180581	0.800969	0.132944
	H358	H	-0.194536	0.851256	0.136860
	H359	H	-0.192916	0.786414	0.104014
	O360	O	0.456572	0.516616	0.623698
	H361	H	0.455168	0.517328	0.628601
	H362	H	0.462743	0.500577	0.616706
	O363	O	0.465996	0.507916	0.383223
	H364	H	0.461579	0.511138	0.376236
	H365	H	0.458956	0.503859	0.376708
	O366	O	1.005008	0.984610	1.081217
	H367	H	1.002144	0.984695	1.086405
	H368	H	1.006028	0.977443	1.078451
	O369	O	0.536555	0.370376	0.464257
	H370	H	0.521091	0.367920	0.454686
	H371	H	0.540153	0.362517	0.482399
	O372	O	-0.189672	1.178481	-0.162957
	H373	H	-0.178748	1.175295	-0.166838
	H374	H	-0.191742	1.153846	-0.169930
	O375	O	0.569863	0.389168	0.433796
	H376	H	0.557216	0.402916	0.435788
	H377	H	0.567933	0.373733	0.420318
	O378	O	0.505161	0.444750	0.493500
	H379	H	0.504326	0.453477	0.497222
	H380	H	0.513426	0.444102	0.494541
	O381	O	0.542318	0.377676	0.391433
	H382	H	0.532184	0.385565	0.390869
	H383	H	0.548049	0.371478	0.388338
	O384	O	0.175956	0.909520	0.788805
	H385	H	0.198846	0.907128	0.788898
	H386	H	0.173802	0.930658	0.792695
	O387	O	0.860911	0.934355	-0.047895
	H388	H	0.862929	0.954383	-0.067896
	H389	H	0.873678	0.946049	-0.043021
	O390	O	0.065292	0.138072	0.989064
	H391	H	0.079332	0.145320	1.005538
	H392	H	0.062717	0.138983	0.997358
	O393	O	1.342631	0.404570	1.546034
	H394	H	1.345965	0.404368	1.537370
	H395	H	1.348154	0.401341	1.543519
	O396	O	-0.167101	1.060352	1.041612
	H397	H	-0.172369	1.079785	1.030263
	H398	H	-0.157372	1.062745	1.026653
	O399	O	0.453543	0.576114	0.445812
	H400	H	0.444326	0.576342	0.460959
	H401	H	0.448447	0.576436	0.435856
	O402	O	1.133523	-0.016520	1.020947
	H403	H	1.131896	-0.018549	1.021368
	H404	H	1.126163	-0.005868	1.019292
	O405	O	-0.043197	-0.167666	-0.101130
	H406	H	-0.050401	-0.175866	-0.077997
	H407	H	-0.030453	-0.160720	-0.096621
	O408	O	1.010689	0.775936	0.789995
	H409	H	1.018266	0.775437	0.799216
	H410	H	1.008623	0.746224	0.777870
	O411	O	0.950978	1.023685	0.015293
	H412	H	0.961290	1.031144	0.015159
	H413	H	0.944928	1.030874	0.013737
	O414	O	0.063052	0.188854	0.899601
	H415	H	0.062146	0.208485	0.893187
	H416	H	0.063483	0.191988	0.925192
	O417	O	0.546484	0.572333	0.618067
	H418	H	0.561853	0.575523	0.617472
	H419	H	0.547671	0.589850	0.618605
	O420	O	-0.127728	0.939439	-0.148030
	H421	H	-0.122154	0.942795	-0.158255
	H422	H	-0.120963	0.921176	-0.143984
	O423	O	1.045646	0.028810	-0.093141
	H424	H	1.046745	0.032678	-0.078984
	H425	H	1.041767	0.026937	-0.092644
	O426	O	-0.017368	-0.154066	1.192960
	H427	H	-0.021663	-0.163945	1.203723
	H428	H	-0.039295	-0.152620	1.191587
	O429	O	0.421272	0.515270	0.575842
	H430	H	0.421501	0.521109	0.584708
	H431	H	0.414814	0.510401	0.594435
