data_Molecule from HDF5

_cell_length_a		16.181506
_cell_length_b		16.300625
_cell_length_c		16.372750
_cell_angle_alpha	89.544009
_cell_angle_beta	90.171836
_cell_angle_gamma	90.312948
_symmetry_space_group_name_H-M	'P 1'
_symmetry_Int_Tables_number		1

loop_
	_symmetry_equiv_pos_as_xyz
	x,y,z

loop_
	_atom_site_label
	_atom_site_type_symbol
	_atom_site_fract_x
	_atom_site_fract_y
	_atom_site_fract_z
	H0	H	0.397139	0.837147	0.716759
	H1	H	0.604987	0.160188	0.709634
	H2	H	0.609412	0.837407	0.273405
	H3	H	0.400902	0.157448	0.275303
	H4	H	0.712829	0.400414	0.831179
	H5	H	0.719737	0.596179	0.155580
	H6	H	0.283197	0.595723	0.833671
	H7	H	0.283991	0.392980	0.157664
	H8	H	0.838263	0.712579	0.392073
	H9	H	0.163673	0.710947	0.598374
	H10	H	0.837246	0.276638	0.594764
	H11	H	0.164599	0.283857	0.398078
	H12	H	0.836456	0.390676	0.710727
	H13	H	0.162707	0.594117	0.712274
	H14	H	0.837504	0.595668	0.277370
	H15	H	0.160898	0.390149	0.278027
	H16	H	0.396660	0.716001	0.834736
	H17	H	0.606086	0.714919	0.156132
	H18	H	0.599487	0.283096	0.831817
	H19	H	0.397831	0.275096	0.155394
	H20	H	0.718056	0.833804	0.395722
	H21	H	0.720165	0.159080	0.593638
	H22	H	0.284326	0.834806	0.599028
	H23	H	0.286380	0.158644	0.392564
	H24	H	0.892958	0.333071	0.216282
	H25	H	0.105152	0.654604	0.214891
	H26	H	0.099524	0.330875	0.781316
	H27	H	0.896154	0.654415	0.773625
	H28	H	0.220031	0.894861	0.334103
	H29	H	0.219693	0.095472	0.656801
	H30	H	0.786083	0.096751	0.333327
	H31	H	0.783952	0.893247	0.657686
	H32	H	0.336806	0.209699	0.893875
	H33	H	0.664834	0.212420	0.091590
	H34	H	0.339533	0.777453	0.099624
	H35	H	0.664397	0.781008	0.894235
	H36	H	0.340839	0.891665	0.215439
	H37	H	0.665003	0.100035	0.211319
	H38	H	0.339612	0.101305	0.774395
	H39	H	0.666196	0.900189	0.782047
	H40	H	0.900866	0.213702	0.334537
	H41	H	0.104078	0.211850	0.656960
	H42	H	0.105217	0.775980	0.334711
	H43	H	0.895524	0.772215	0.656055
	H44	H	0.213417	0.331123	0.899292
	H45	H	0.217579	0.656592	0.096849
	H46	H	0.781164	0.332150	0.094689
	H47	H	0.787888	0.658338	0.895006
	H48	H	0.410314	0.111555	0.580490
	H49	H	0.598487	0.879692	0.588330
	H50	H	0.586395	0.111685	0.394003
	H51	H	0.407762	0.879244	0.404755
	H52	H	0.588692	0.407343	0.107011
	H53	H	0.596854	0.584471	0.880331
	H54	H	0.405981	0.585748	0.111377
	H55	H	0.404062	0.406552	0.879268
	H56	H	0.117242	0.590427	0.407845
	H57	H	0.881667	0.586203	0.591680
	H58	H	0.119627	0.401694	0.595652
	H59	H	0.886890	0.409941	0.410803
	H60	H	0.117314	0.398882	0.586366
	H61	H	0.884621	0.587270	0.576821
	H62	H	0.112765	0.580947	0.409117
	H63	H	0.880339	0.404708	0.396000
	H64	H	0.413315	0.583659	0.108178
	H65	H	0.582743	0.587007	0.882922
	H66	H	0.588236	0.400391	0.109119
	H67	H	0.409128	0.403392	0.880148
	H68	H	0.591296	0.108750	0.412681
	H69	H	0.590323	0.879964	0.596024
	H70	H	0.409548	0.114621	0.588164
	H71	H	0.415560	0.880890	0.400474
	H72	H	0.913128	0.608692	0.085645
	H73	H	0.087555	0.378860	0.091698
	H74	H	0.089216	0.609437	0.904413
	H75	H	0.901715	0.378484	0.908317
	H76	H	0.082616	0.908944	0.604264
	H77	H	0.097312	0.085691	0.379769
	H78	H	0.910871	0.086523	0.611956
	H79	H	0.919963	0.905901	0.385042
	H80	H	0.616434	0.088377	0.905140
	H81	H	0.386998	0.078865	0.085634
	H82	H	0.617312	0.917878	0.092198
	H83	H	0.389728	0.910238	0.912707
	H84	H	0.622242	0.896704	0.088771
	H85	H	0.382440	0.088659	0.092167
	H86	H	0.619671	0.090776	0.896274
	H87	H	0.385081	0.913186	0.898588
	H88	H	0.911539	0.084855	0.610401
	H89	H	0.089271	0.089257	0.381378
	H90	H	0.090738	0.892034	0.612989
	H91	H	0.907790	0.895322	0.377788
	H92	H	0.091241	0.609413	0.903196
	H93	H	0.088198	0.380454	0.085501
	H94	H	0.910248	0.609027	0.084234
	H95	H	0.902495	0.374754	0.896509
	H96	H	0.417113	0.110829	0.585659
	H97	H	0.588246	0.884672	0.585835
	H98	H	0.604612	0.116223	0.399907
	H99	H	0.414671	0.883206	0.409465
	H100	H	0.594493	0.404022	0.111634
	H101	H	0.591645	0.597895	0.877805
	H102	H	0.412111	0.591447	0.111194
	H103	H	0.403590	0.400812	0.878152
	H104	H	0.118003	0.583112	0.400527
	H105	H	0.886933	0.574050	0.584106
	H106	H	0.115041	0.408655	0.589214
	H107	H	0.882093	0.394463	0.409198
	H108	H	0.911052	0.609395	0.087377
	H109	H	0.092584	0.377546	0.088294
	H110	H	0.089043	0.609161	0.902258
	H111	H	0.912376	0.379680	0.902654
	H112	H	0.101772	0.909045	0.611282
	H113	H	0.095464	0.094192	0.378286
	H114	H	0.912963	0.086899	0.610773
	H115	H	0.903887	0.911702	0.381942
	H116	H	0.620158	0.097123	0.902935
	H117	H	0.385666	0.089505	0.080300
	H118	H	0.613451	0.908092	0.073052
	H119	H	0.383284	0.900185	0.904168
	C120	C	0.380982	0.005917	0.616864
	C121	C	0.623203	0.988611	0.617752
	C122	C	0.624728	0.005422	0.372543
	C123	C	0.382068	0.987951	0.374102
	C124	C	0.620111	0.375533	0.002267
	C125	C	0.622618	0.619203	0.986488
	C126	C	0.378700	0.617910	0.004090
	C127	C	0.377010	0.372841	0.986470
	C128	C	0.008914	0.615691	0.374080
	C129	C	0.991711	0.613699	0.615836
	C130	C	0.009541	0.371759	0.618976
	C131	C	0.991128	0.374182	0.376116
	C132	C	0.878881	0.502560	0.116750
	C133	C	0.121327	0.485455	0.118500
	C134	C	0.119762	0.501833	0.874611
	C135	C	0.877078	0.485217	0.872018
	C136	C	0.123139	0.873384	0.503508
	C137	C	0.124531	0.118858	0.486572
	C138	C	0.881675	0.116371	0.503831
	C139	C	0.879110	0.872657	0.487822
	C140	C	0.510460	0.120399	0.871512
	C141	C	0.493215	0.116746	0.114818
	C142	C	0.510833	0.875487	0.116920
	C143	C	0.493477	0.877572	0.875040
	C144	C	0.378882	0.884852	0.676709
	C145	C	0.624047	0.111191	0.672279
	C146	C	0.626763	0.884923	0.313827
	C147	C	0.381920	0.109347	0.314906
	C148	C	0.675457	0.379454	0.879983
	C149	C	0.681287	0.616988	0.107459
	C150	C	0.321132	0.616854	0.882543
	C151	C	0.321434	0.373168	0.108556
	C152	C	0.886823	0.673388	0.373158
	C153	C	0.114439	0.672199	0.617365
	C154	C	0.886116	0.315064	0.615524
	C155	C	0.115058	0.320095	0.377692
	C156	C	0.885546	0.371954	0.673115
	C157	C	0.113983	0.614149	0.674080
	C158	C	0.886628	0.615479	0.315901
	C159	C	0.113169	0.373190	0.318083
	C160	C	0.377709	0.676726	0.883008
	C161	C	0.624555	0.675994	0.107634
	C162	C	0.618806	0.321219	0.880246
	C163	C	0.378176	0.314468	0.107504
	C164	C	0.681232	0.883123	0.374587
	C165	C	0.681202	0.110842	0.614326
	C166	C	0.323009	0.883650	0.617844
	C167	C	0.324844	0.109810	0.373223
	C168	C	0.875432	0.381251	0.175927
	C169	C	0.123065	0.606482	0.176018
	C170	C	0.118643	0.379655	0.819522
	C171	C	0.877716	0.606630	0.813501
	C172	C	0.181020	0.874654	0.382422
	C173	C	0.181815	0.116471	0.608219
	C174	C	0.824566	0.116015	0.382076
	C175	C	0.821985	0.872824	0.609062
	C176	C	0.386517	0.173767	0.873417
	C177	C	0.616222	0.174280	0.112516
	C178	C	0.388433	0.816393	0.118594
	C179	C	0.615779	0.819968	0.874942
	C180	C	0.388985	0.873297	0.176003
	C181	C	0.616354	0.118234	0.171713
	C182	C	0.387876	0.119401	0.814020
	C183	C	0.616636	0.879164	0.819043
	C184	C	0.881690	0.174395	0.382415
	C185	C	0.124104	0.174229	0.608406
	C186	C	0.123890	0.815413	0.382858
	C187	C	0.877895	0.812834	0.608346
	C188	C	0.175398	0.379520	0.878285
	C189	C	0.179424	0.607498	0.117261
	C190	C	0.819780	0.380727	0.115555
	C191	C	0.823229	0.608435	0.873540
	C192	C	0.405184	0.090422	0.592114
	C193	C	0.599207	0.903641	0.596261
	C194	C	0.601128	0.090313	0.395507
	C195	C	0.405730	0.903158	0.397740
	C196	C	0.597043	0.397407	0.087287
	C197	C	0.597776	0.596622	0.902092
	C198	C	0.403271	0.593916	0.088446
	C199	C	0.398974	0.396769	0.901359
	C200	C	0.093964	0.591742	0.398549
	C201	C	0.906473	0.589653	0.591259
	C202	C	0.095044	0.395770	0.596879
	C203	C	0.905433	0.396664	0.398633
	C204	C	0.904112	0.586960	0.092791
	C205	C	0.096537	0.400855	0.095219
	C206	C	0.096597	0.587191	0.896943
	C207	C	0.899064	0.399826	0.895610
	C208	C	0.098785	0.896761	0.587717
	C209	C	0.100794	0.096315	0.401851
	C210	C	0.905112	0.092856	0.588983
	C211	C	0.903446	0.897213	0.403436
	C212	C	0.596571	0.098607	0.894788
	C213	C	0.407413	0.092502	0.092700
	C214	C	0.595405	0.900302	0.091931
	C215	C	0.408247	0.900964	0.898281
	Zn216	Zn	0.501866	-0.001745	0.746036
	Zn217	Zn	0.502952	-0.003740	0.244331
	Zn218	Zn	0.749977	0.495727	-0.005792
	Zn219	Zn	0.249079	0.494946	-0.004065
	Zn220	Zn	0.001044	0.743317	0.495786
	Zn221	Zn	0.001772	0.246752	0.495788
	Zn222	Zn	-0.000933	0.493326	0.745203
	Zn223	Zn	-0.000356	0.493075	0.247048
	Zn224	Zn	0.501176	0.748095	-0.004320
	Zn225	Zn	0.500063	0.245833	-0.006412
	Zn226	Zn	0.751499	-0.003900	0.495868
	Zn227	Zn	0.252678	-0.003797	0.495355
	N228	N	0.414262	0.961693	0.676376
	N229	N	0.588726	0.034288	0.674579
	N230	N	0.592525	0.961915	0.312500
	N231	N	0.416738	0.032477	0.315120
	N232	N	0.676400	0.412636	0.957022
	N233	N	0.680259	0.582465	0.031163
	N234	N	0.321486	0.581148	0.958854
	N235	N	0.320738	0.408982	0.032283
	N236	N	0.963832	0.673603	0.408445
	N237	N	0.037443	0.671918	0.581627
	N238	N	0.964122	0.314684	0.582722
	N239	N	0.038238	0.320418	0.413098
	N240	N	0.963215	0.406430	0.675440
	N241	N	0.036716	0.578528	0.673226
	N242	N	0.963821	0.580426	0.316287
	N243	N	0.035184	0.406083	0.316761
	N244	N	0.412796	0.677546	0.959654
	N245	N	0.588744	0.677316	0.031359
	N246	N	0.584951	0.318884	0.957151
	N247	N	0.411999	0.314288	0.030572
	N248	N	0.679776	0.959009	0.410612
	N249	N	0.680872	0.033776	0.581058
	N250	N	0.323976	0.959940	0.581312
	N251	N	0.324697	0.033386	0.409225
	N252	N	0.911351	0.457794	0.176739
	N253	N	0.087767	0.529510	0.177055
	N254	N	0.084809	0.456921	0.817182
	N255	N	0.910150	0.528954	0.812324
	N256	N	0.180733	0.909872	0.458518
	N257	N	0.182061	0.082704	0.531566
	N258	N	0.824761	0.080536	0.458546
	N259	N	0.822532	0.909228	0.532979
	N260	N	0.463812	0.174491	0.908329
	N261	N	0.538747	0.173423	0.078048
	N262	N	0.465024	0.817545	0.082798
	N263	N	0.538301	0.818990	0.908981
	N264	N	0.466299	0.909104	0.175533
	N265	N	0.538851	0.083170	0.173359
	N266	N	0.466082	0.087319	0.812467
	N267	N	0.539422	0.914512	0.819008
	N268	N	0.916528	0.174630	0.459166
	N269	N	0.089279	0.176082	0.531658
	N270	N	0.088483	0.814668	0.459188
	N271	N	0.912577	0.812513	0.531719
	N272	N	0.176127	0.456553	0.911786
	N273	N	0.178405	0.531212	0.082083
	N274	N	0.821609	0.457185	0.079416
	N275	N	0.822665	0.531974	0.909432
	O276	O	0.133178	0.017144	0.085481
	H277	H	0.125661	0.021715	0.094266
	H278	H	0.124791	0.013770	0.080490
	O279	O	0.355420	0.369484	0.649830
	H280	H	0.352773	0.372199	0.658718
	H281	H	0.352058	0.384434	0.638319
	O282	O	1.041790	0.097649	0.073563
	H283	H	1.042708	0.088727	0.068742
	H284	H	1.033064	0.092542	0.076294
	O285	O	-0.140842	0.930337	0.106389
	H286	H	-0.127322	0.919154	0.108982
	H287	H	-0.159934	0.931265	0.119338
	O288	O	0.934325	1.027134	-0.010453
	H289	H	0.942622	1.032958	-0.009819
	H290	H	0.920328	1.012197	-0.004613
	O291	O	0.622207	0.442395	0.384288
	H292	H	0.621845	0.441361	0.371544
	H293	H	0.613057	0.449492	0.379343
	O294	O	0.990841	0.890569	0.841459
	H295	H	1.000127	0.872515	0.830507
	H296	H	0.994426	0.894671	0.849336
	O297	O	-0.073499	-0.108823	0.069750
	H298	H	-0.098269	-0.112473	0.060743
	H299	H	-0.084835	-0.134575	0.085490
	O300	O	0.517853	0.595422	0.616798
	H301	H	0.511898	0.591356	0.619234
	H302	H	0.522643	0.591465	0.615971
	O303	O	0.041716	1.059162	1.035309
	H304	H	0.062323	1.068896	1.043534
	H305	H	0.032261	1.072069	1.036517
	O306	O	0.509023	0.491774	0.511828
	H307	H	0.493771	0.491993	0.513518
	H308	H	0.497707	0.472135	0.520660
	O309	O	0.937109	-0.127036	0.077493
	H310	H	0.931811	-0.121865	0.081029
	H311	H	0.922894	-0.124394	0.078012
	O312	O	-0.112318	0.083868	0.871599
	H313	H	-0.102696	0.090267	0.861363
	H314	H	-0.109957	0.084041	0.880403
	O315	O	0.435228	0.451124	0.531170
	H316	H	0.438264	0.451548	0.534462
	H317	H	0.425903	0.457426	0.530337
	O318	O	0.517404	0.558868	0.429267
	H319	H	0.527057	0.540434	0.423572
	H320	H	0.500098	0.571656	0.430308
	O321	O	0.541349	0.466916	0.552805
	H322	H	0.540901	0.458596	0.559067
	H323	H	0.532055	0.471923	0.558059
	O324	O	0.510767	0.588825	0.598292
	H325	H	0.511959	0.578311	0.587736
	H326	H	0.515287	0.579713	0.601113
	O327	O	0.156691	0.906842	0.870157
	H328	H	0.169335	0.895691	0.873547
	H329	H	0.146580	0.915834	0.886900
	O330	O	0.382490	0.529194	0.338287
	H331	H	0.378803	0.521624	0.343855
	H332	H	0.389271	0.542777	0.338899
	O333	O	-0.065158	0.925989	1.099190
	H334	H	-0.056436	0.915467	1.102467
	H335	H	-0.068524	0.923620	1.105980
	O336	O	1.062480	1.169310	0.971804
	H337	H	1.060689	1.177289	0.971756
	H338	H	1.059173	1.165254	0.972971
	O339	O	0.396827	0.520714	0.400191
	H340	H	0.396869	0.527189	0.382053
	H341	H	0.388500	0.504989	0.409932
	O342	O	1.069357	-0.081668	-0.004169
	H343	H	1.064781	-0.081103	-0.016287
	H344	H	1.067492	-0.083245	0.005861
	O345	O	0.553915	0.518115	0.570579
	H346	H	0.562050	0.521619	0.576525
	H347	H	0.549559	0.517254	0.571601
	O348	O	1.145428	0.937273	0.816201
	H349	H	1.148674	0.932739	0.827372
	H350	H	1.168148	0.939484	0.812105
	O351	O	0.445009	0.354997	0.607999
	H352	H	0.435015	0.336666	0.621889
	H353	H	0.429410	0.362668	0.600226
	O354	O	0.673296	0.586141	0.486477
	H355	H	0.670851	0.579544	0.490703
	H356	H	0.678041	0.598089	0.479259
	O357	O	0.473361	0.525384	0.490501
	H358	H	0.487503	0.541157	0.488534
	H359	H	0.472136	0.533020	0.493171
	O360	O	0.054452	0.118570	0.163800
	H361	H	0.069365	0.111969	0.154431
	H362	H	0.061391	0.129931	0.160438
	O363	O	0.448405	0.605177	0.476956
	H364	H	0.440071	0.618686	0.487848
	H365	H	0.460127	0.600271	0.475677
	O366	O	0.516704	0.546076	0.595571
	H367	H	0.529121	0.550348	0.596234
	H368	H	0.526418	0.533774	0.594061
	O369	O	0.498376	0.520857	0.461934
	H370	H	0.505463	0.529795	0.469878
	H371	H	0.499952	0.498361	0.463439
	O372	O	-0.129061	0.870753	1.169624
	H373	H	-0.129571	0.885685	1.179203
	H374	H	-0.128916	0.873893	1.155702
	O375	O	0.513742	0.470864	0.335604
	H376	H	0.517977	0.474332	0.332952
	H377	H	0.518767	0.481105	0.341111
	O378	O	0.597157	0.442225	0.556442
	H379	H	0.606714	0.438557	0.542946
	H380	H	0.581418	0.451580	0.563675
	O381	O	0.503481	0.378577	0.407096
	H382	H	0.505269	0.380514	0.395898
	H383	H	0.497684	0.373607	0.402196
	O384	O	0.077879	0.877062	-0.130065
	H385	H	0.078693	0.873429	-0.117986
	H386	H	0.087320	0.900490	-0.122271
	O387	O	0.887177	0.011901	1.011275
	H388	H	0.890977	0.006028	1.003629
	H389	H	0.884050	0.008790	1.000409
	O390	O	-0.021411	1.029481	-0.164121
	H391	H	-0.025194	1.027993	-0.170750
	H392	H	-0.014263	1.033570	-0.148904
	O393	O	1.047659	1.066000	-0.049960
	H394	H	1.036377	1.072455	-0.045110
	H395	H	1.054716	1.062407	-0.040146
	O396	O	0.472051	0.480054	0.447084
	H397	H	0.455836	0.488366	0.448292
	H398	H	0.474741	0.483556	0.446076
	O399	O	0.146126	0.931398	0.997099
	H400	H	0.131948	0.939607	1.007516
	H401	H	0.140530	0.929305	0.988537
	O402	O	0.954246	1.008506	1.118086
	H403	H	0.963676	1.024231	1.110589
	H404	H	0.958900	1.010268	1.110808
	O405	O	0.488194	0.640427	0.332436
	H406	H	0.501811	0.654423	0.341849
	H407	H	0.493526	0.654516	0.337039
