data_Molecule from HDF5

_cell_length_a		16.247682
_cell_length_b		16.271765
_cell_length_c		16.322966
_cell_angle_alpha	90.081154
_cell_angle_beta	90.027672
_cell_angle_gamma	90.034324
_symmetry_space_group_name_H-M	'P 1'
_symmetry_Int_Tables_number		1

loop_
	_symmetry_equiv_pos_as_xyz
	x,y,z

loop_
	_atom_site_label
	_atom_site_type_symbol
	_atom_site_fract_x
	_atom_site_fract_y
	_atom_site_fract_z
	H0	H	0.392211	0.827370	0.706136
	H1	H	0.588975	0.154875	0.706887
	H2	H	0.589575	0.827988	0.276603
	H3	H	0.392813	0.156147	0.279066
	H4	H	0.702630	0.394351	0.829145
	H5	H	0.704739	0.590843	0.155789
	H6	H	0.275962	0.588955	0.829040
	H7	H	0.275161	0.394675	0.156611
	H8	H	0.826048	0.705456	0.394502
	H9	H	0.154822	0.703525	0.588596
	H10	H	0.826419	0.278061	0.589884
	H11	H	0.154684	0.278769	0.395798
	H12	H	0.825831	0.394088	0.705566
	H13	H	0.154060	0.590135	0.707196
	H14	H	0.825897	0.589503	0.279538
	H15	H	0.153725	0.393609	0.277896
	H16	H	0.391954	0.705327	0.828881
	H17	H	0.588232	0.707255	0.155545
	H18	H	0.587222	0.278030	0.829746
	H19	H	0.391667	0.277932	0.156760
	H20	H	0.703639	0.826229	0.396110
	H21	H	0.704357	0.154809	0.589989
	H22	H	0.277537	0.827037	0.588962
	H23	H	0.275928	0.155732	0.394872
	H24	H	0.890559	0.328184	0.207089
	H25	H	0.087673	0.655913	0.207710
	H26	H	0.087850	0.327618	0.778794
	H27	H	0.891614	0.654790	0.778560
	H28	H	0.204057	0.893083	0.328864
	H29	H	0.204165	0.089153	0.656318
	H30	H	0.776267	0.088247	0.329816
	H31	H	0.777551	0.892817	0.656594
	H32	H	0.325993	0.205685	0.895202
	H33	H	0.654602	0.207141	0.092628
	H34	H	0.326021	0.778490	0.090213
	H35	H	0.653106	0.776883	0.894304
	H36	H	0.326529	0.892349	0.207684
	H37	H	0.654406	0.090155	0.207401
	H38	H	0.326384	0.090220	0.777803
	H39	H	0.653837	0.893186	0.778551
	H40	H	0.891248	0.205741	0.329813
	H41	H	0.090108	0.207155	0.656029
	H42	H	0.088229	0.776868	0.329328
	H43	H	0.893598	0.777929	0.656264
	H44	H	0.203194	0.327802	0.895319
	H45	H	0.203149	0.656709	0.090134
	H46	H	0.775070	0.328037	0.090633
	H47	H	0.776601	0.655840	0.895203
	H48	H	0.393963	0.110055	0.589768
	H49	H	0.584216	0.877269	0.577090
	H50	H	0.591135	0.109304	0.400580
	H51	H	0.396036	0.872946	0.391516
	H52	H	0.579798	0.406811	0.106399
	H53	H	0.583223	0.577833	0.877896
	H54	H	0.393823	0.586362	0.109648
	H55	H	0.395457	0.405385	0.878497
	H56	H	0.110144	0.590361	0.394004
	H57	H	0.875216	0.582142	0.584097
	H58	H	0.108300	0.396193	0.586272
	H59	H	0.873553	0.395061	0.402793
	H60	H	0.106413	0.400501	0.583876
	H61	H	0.871446	0.583557	0.590697
	H62	H	0.105322	0.586732	0.407419
	H63	H	0.874062	0.401460	0.399571
	H64	H	0.396608	0.582426	0.107635
	H65	H	0.577298	0.588574	0.877129
	H66	H	0.577805	0.392295	0.109267
	H67	H	0.402527	0.395019	0.878358
	H68	H	0.580445	0.108835	0.393219
	H69	H	0.591729	0.869782	0.590971
	H70	H	0.401610	0.108019	0.587852
	H71	H	0.404827	0.878666	0.401284
	H72	H	0.896771	0.608365	0.086950
	H73	H	0.092531	0.375909	0.077972
	H74	H	0.088867	0.610213	0.900840
	H75	H	0.891755	0.371085	0.891203
	H76	H	0.090971	0.893607	0.612206
	H77	H	0.078819	0.083830	0.377916
	H78	H	0.894835	0.080563	0.608688
	H79	H	0.893085	0.893865	0.374383
	H80	H	0.606818	0.084364	0.898566
	H81	H	0.378834	0.071535	0.082428
	H82	H	0.608817	0.900148	0.091911
	H83	H	0.372446	0.889486	0.906467
	H84	H	0.607957	0.892567	0.082441
	H85	H	0.369267	0.088062	0.100157
	H86	H	0.606614	0.085154	0.900510
	H87	H	0.376187	0.909191	0.901692
	H88	H	0.902391	0.085367	0.608161
	H89	H	0.083809	0.088989	0.375325
	H90	H	0.084199	0.906444	0.607260
	H91	H	0.895376	0.903667	0.377397
	H92	H	0.081980	0.609797	0.892918
	H93	H	0.083521	0.371281	0.097791
	H94	H	0.897337	0.607585	0.085889
	H95	H	0.904925	0.377061	0.898341
	H96	H	0.395697	0.107405	0.582285
	H97	H	0.575021	0.875324	0.592193
	H98	H	0.580639	0.104632	0.405472
	H99	H	0.391758	0.875161	0.404251
	H100	H	0.591451	0.398537	0.112153
	H101	H	0.588933	0.588181	0.873483
	H102	H	0.398892	0.587419	0.108681
	H103	H	0.390548	0.394110	0.874452
	H104	H	0.105462	0.576670	0.396499
	H105	H	0.872269	0.589251	0.585355
	H106	H	0.107563	0.400474	0.588547
	H107	H	0.871727	0.395691	0.396331
	H108	H	0.896246	0.608347	0.085906
	H109	H	0.071109	0.379901	0.081542
	H110	H	0.078653	0.605944	0.902256
	H111	H	0.891309	0.375479	0.906765
	H112	H	0.076891	0.893662	0.608311
	H113	H	0.086584	0.081467	0.376641
	H114	H	0.895023	0.089401	0.611353
	H115	H	0.902815	0.896047	0.377780
	H116	H	0.605705	0.083593	0.900439
	H117	H	0.373385	0.096351	0.076252
	H118	H	0.603960	0.904493	0.081693
	H119	H	0.368917	0.896412	0.887903
	C120	C	0.368961	-0.000137	0.614550
	C121	C	0.612148	0.982485	0.614730
	C122	C	0.612390	-0.000713	0.371200
	C123	C	0.368866	0.983908	0.370890
	C124	C	0.611609	0.370359	0.001567
	C125	C	0.611645	0.613702	0.984018
	C126	C	0.368234	0.613593	0.000661
	C127	C	0.367587	0.369990	0.984906
	C128	C	-0.001662	0.612722	0.371705
	C129	C	0.981847	0.612820	0.614332
	C130	C	-0.001180	0.370484	0.613903
	C131	C	0.981532	0.369627	0.371016
	C132	C	0.867931	0.499976	0.114535
	C133	C	0.110925	0.483993	0.114069
	C134	C	0.111229	0.500084	0.870731
	C135	C	0.867781	0.483039	0.870872
	C136	C	0.112083	0.869560	0.500910
	C137	C	0.111900	0.113300	0.484485
	C138	C	0.869086	0.112936	0.501587
	C139	C	0.868893	0.869582	0.484632
	C140	C	0.498745	0.113071	0.871317
	C141	C	0.482118	0.113616	0.114646
	C142	C	0.498411	0.870469	0.114072
	C143	C	0.481155	0.870054	0.870734
	C144	C	0.371536	0.876315	0.668704
	C145	C	0.609310	0.105880	0.669163
	C146	C	0.609742	0.876416	0.315417
	C147	C	0.371435	0.106823	0.316028
	C148	C	0.665538	0.373206	0.878236
	C149	C	0.666677	0.611304	0.107066
	C150	C	0.313492	0.610083	0.877801
	C151	C	0.313101	0.373715	0.107864
	C152	C	0.874648	0.667327	0.374656
	C153	C	0.105590	0.666866	0.610504
	C154	C	0.875333	0.315517	0.610606
	C155	C	0.105465	0.315810	0.374412
	C156	C	0.875000	0.372934	0.668216
	C157	C	0.105245	0.610192	0.669094
	C158	C	0.874608	0.610019	0.317430
	C159	C	0.104880	0.372590	0.315710
	C160	C	0.371207	0.667604	0.877692
	C161	C	0.608730	0.668924	0.106973
	C162	C	0.608110	0.315747	0.878433
	C163	C	0.370754	0.315457	0.107928
	C164	C	0.666185	0.875479	0.374799
	C165	C	0.667059	0.105748	0.611454
	C166	C	0.314500	0.876217	0.610474
	C167	C	0.313574	0.106714	0.373645
	C168	C	0.870161	0.376960	0.169296
	C169	C	0.108212	0.607280	0.169235
	C170	C	0.108470	0.376603	0.816395
	C171	C	0.871166	0.606315	0.816503
	C172	C	0.166499	0.872605	0.377871
	C173	C	0.167013	0.110513	0.607460
	C174	C	0.814349	0.109146	0.378329
	C175	C	0.815076	0.872567	0.607817
	C176	C	0.374865	0.167784	0.874495
	C177	C	0.605662	0.168806	0.112202
	C178	C	0.374858	0.815849	0.111191
	C179	C	0.604647	0.815302	0.873933
	C180	C	0.375250	0.872873	0.169314
	C181	C	0.605564	0.111183	0.169536
	C182	C	0.375204	0.110979	0.815831
	C183	C	0.604896	0.872848	0.816458
	C184	C	0.871315	0.167653	0.378457
	C185	C	0.110280	0.168952	0.607331
	C186	C	0.109000	0.814559	0.378077
	C187	C	0.872136	0.814827	0.607403
	C188	C	0.165779	0.376597	0.874226
	C189	C	0.165301	0.607764	0.110862
	C190	C	0.813117	0.376718	0.110984
	C191	C	0.813889	0.606698	0.874484
	C192	C	0.390715	0.086205	0.593139
	C193	C	0.590131	0.896313	0.593162
	C194	C	0.590455	0.085372	0.393323
	C195	C	0.391089	0.897732	0.392633
	C196	C	0.589643	0.392615	0.087158
	C197	C	0.589667	0.591561	0.898215
	C198	C	0.390099	0.591978	0.086709
	C199	C	0.389719	0.391709	0.899041
	C200	C	0.084611	0.590799	0.393056
	C201	C	0.895359	0.591331	0.592978
	C202	C	0.085212	0.392473	0.592577
	C203	C	0.895338	0.391333	0.392749
	C204	C	0.890328	0.585975	0.092719
	C205	C	0.088881	0.398055	0.092191
	C206	C	0.089627	0.586434	0.892280
	C207	C	0.889558	0.396768	0.892502
	C208	C	0.090520	0.891545	0.587118
	C209	C	0.089765	0.091074	0.398862
	C210	C	0.890913	0.091623	0.587188
	C211	C	0.890739	0.891335	0.398737
	C212	C	0.584487	0.090797	0.893236
	C213	C	0.396113	0.091681	0.092688
	C214	C	0.584656	0.892547	0.091867
	C215	C	0.394754	0.891840	0.892378
	Zn216	Zn	0.490121	-0.008702	0.742922
	Zn217	Zn	0.490523	-0.008232	0.242426
	Zn218	Zn	0.739935	0.491696	-0.007461
	Zn219	Zn	0.239405	0.492472	-0.007439
	Zn220	Zn	-0.009931	0.741279	0.492583
	Zn221	Zn	-0.009399	0.241746	0.493003
	Zn222	Zn	-0.010028	0.491465	0.742604
	Zn223	Zn	-0.010479	0.492156	0.243205
	Zn224	Zn	0.489479	0.742394	-0.007517
	Zn225	Zn	0.490455	0.241784	-0.006839
	Zn226	Zn	0.740708	-0.009443	0.493346
	Zn227	Zn	0.240450	-0.008496	0.492966
	N228	N	0.404309	0.954212	0.671552
	N229	N	0.575781	0.028311	0.671115
	N230	N	0.577096	0.954385	0.313106
	N231	N	0.405130	0.029280	0.314400
	N232	N	0.667631	0.406764	0.955598
	N233	N	0.668626	0.577820	0.029706
	N234	N	0.311730	0.577074	0.955291
	N235	N	0.310935	0.406690	0.030359
	N236	N	0.952704	0.669346	0.407520
	N237	N	0.027922	0.668408	0.576913
	N238	N	0.953094	0.314265	0.577322
	N239	N	0.027902	0.313752	0.407805
	N240	N	0.952878	0.406204	0.670500
	N241	N	0.027338	0.577223	0.671371
	N242	N	0.952222	0.576623	0.315602
	N243	N	0.026926	0.405589	0.313733
	N244	N	0.404420	0.669790	0.955135
	N245	N	0.575118	0.670506	0.029431
	N246	N	0.575393	0.313754	0.956095
	N247	N	0.403828	0.313124	0.030354
	N248	N	0.668142	0.953037	0.408458
	N249	N	0.668829	0.028044	0.578301
	N250	N	0.312922	0.954013	0.577418
	N251	N	0.312120	0.029209	0.407191
	N252	N	0.903563	0.454633	0.171623
	N253	N	0.075139	0.529405	0.171316
	N254	N	0.075400	0.454341	0.814131
	N255	N	0.903994	0.528411	0.814110
	N256	N	0.168464	0.906161	0.455322
	N257	N	0.168071	0.076370	0.530265
	N258	N	0.812661	0.075940	0.455719
	N259	N	0.812865	0.905812	0.530472
	N260	N	0.452374	0.169141	0.908288
	N261	N	0.527973	0.170195	0.078440
	N262	N	0.452410	0.814433	0.077350
	N263	N	0.526812	0.813511	0.906870
	N264	N	0.453130	0.906202	0.170898
	N265	N	0.527999	0.077539	0.171108
	N266	N	0.453018	0.077623	0.813830
	N267	N	0.527165	0.906286	0.814673
	N268	N	0.904831	0.169977	0.455809
	N269	N	0.076813	0.170715	0.529974
	N270	N	0.075727	0.812887	0.455624
	N271	N	0.904974	0.813064	0.529741
	N272	N	0.167540	0.454378	0.907378
	N273	N	0.167115	0.530135	0.077362
	N274	N	0.811715	0.454337	0.077674
	N275	N	0.811612	0.528954	0.907332
	O276	O	0.999645	0.050755	1.066211
	H277	H	1.006588	0.046931	1.074807
	H278	H	0.996846	0.070664	1.066810
	O279	O	1.005747	1.033586	1.060058
	H280	H	1.003965	1.031746	1.057231
	H281	H	1.012538	1.040044	1.054207
	O282	O	1.008387	1.058602	0.073208
	H283	H	1.014727	1.044747	0.078699
	H284	H	1.005193	1.053153	0.077660
	O285	O	0.998531	1.073837	1.045483
	H286	H	0.999078	1.074231	1.041004
	H287	H	0.992963	1.079252	1.047822
