data_Molecule from HDF5

_cell_length_a		16.405039
_cell_length_b		16.190290
_cell_length_c		16.259295
_cell_angle_alpha	89.996028
_cell_angle_beta	90.056992
_cell_angle_gamma	90.009239
_symmetry_space_group_name_H-M	'P 1'
_symmetry_Int_Tables_number		1

loop_
	_symmetry_equiv_pos_as_xyz
	x,y,z

loop_
	_atom_site_label
	_atom_site_type_symbol
	_atom_site_fract_x
	_atom_site_fract_y
	_atom_site_fract_z
	H0	H	0.413485	0.832499	0.707621
	H1	H	0.608592	0.161973	0.709735
	H2	H	0.609529	0.832668	0.281930
	H3	H	0.413794	0.162499	0.283442
	H4	H	0.726378	0.396894	0.832740
	H5	H	0.726636	0.597463	0.159162
	H6	H	0.294457	0.597972	0.833003
	H7	H	0.294729	0.396150	0.158877
	H8	H	0.848185	0.712722	0.396883
	H9	H	0.173817	0.712223	0.595380
	H10	H	0.847248	0.283820	0.593184
	H11	H	0.173816	0.284690	0.399610
	H12	H	0.847578	0.398491	0.711200
	H13	H	0.172628	0.597265	0.713430
	H14	H	0.848241	0.596983	0.279593
	H15	H	0.172719	0.397348	0.280391
	H16	H	0.413747	0.710265	0.831711
	H17	H	0.608496	0.711014	0.159983
	H18	H	0.607826	0.284722	0.831253
	H19	H	0.413847	0.283857	0.160509
	H20	H	0.727112	0.834173	0.395339
	H21	H	0.726856	0.160829	0.597399
	H22	H	0.294503	0.834680	0.596651
	H23	H	0.294875	0.161771	0.395125
	H24	H	0.912610	0.332596	0.209128
	H25	H	0.107346	0.662437	0.208769
	H26	H	0.106350	0.332167	0.784365
	H27	H	0.912900	0.662280	0.782558
	H28	H	0.226384	0.897817	0.332518
	H29	H	0.225713	0.097593	0.659926
	H30	H	0.795453	0.097539	0.332539
	H31	H	0.795021	0.896775	0.659256
	H32	H	0.347767	0.212168	0.897743
	H33	H	0.673592	0.211313	0.093159
	H34	H	0.347750	0.782777	0.093364
	H35	H	0.673539	0.783676	0.898284
	H36	H	0.347886	0.897444	0.212150
	H37	H	0.673441	0.096105	0.211126
	H38	H	0.348261	0.096566	0.780016
	H39	H	0.672629	0.898469	0.779444
	H40	H	0.915315	0.209838	0.331383
	H41	H	0.106348	0.210223	0.661388
	H42	H	0.106909	0.784790	0.331446
	H43	H	0.914344	0.783860	0.660723
	H44	H	0.225970	0.333792	0.896031
	H45	H	0.226026	0.661181	0.095661
	H46	H	0.795897	0.333161	0.094489
	H47	H	0.795090	0.661122	0.895397
	H48	H	0.418603	0.116416	0.593371
	H49	H	0.601596	0.879189	0.593280
	H50	H	0.605771	0.115823	0.399565
	H51	H	0.411949	0.878734	0.401457
	H52	H	0.605819	0.410986	0.110922
	H53	H	0.604869	0.589208	0.879147
	H54	H	0.414222	0.585867	0.112370
	H55	H	0.418490	0.407878	0.880735
	H56	H	0.126320	0.589322	0.399873
	H57	H	0.895717	0.588221	0.591910
	H58	H	0.124572	0.404348	0.584385
	H59	H	0.891219	0.396368	0.397623
	H60	H	0.125973	0.409181	0.595132
	H61	H	0.894617	0.593793	0.590148
	H62	H	0.126199	0.591957	0.404143
	H63	H	0.897756	0.404099	0.411617
	H64	H	0.421887	0.589373	0.111602
	H65	H	0.603707	0.588182	0.879899
	H66	H	0.598662	0.403646	0.111715
	H67	H	0.418235	0.403636	0.879811
	H68	H	0.599658	0.112981	0.404585
	H69	H	0.598293	0.883692	0.583190
	H70	H	0.421238	0.112734	0.584561
	H71	H	0.423996	0.881799	0.401741
	H72	H	0.921875	0.610759	0.081885
	H73	H	0.103662	0.379521	0.089340
	H74	H	0.103875	0.618370	0.892382
	H75	H	0.922513	0.382615	0.905702
	H76	H	0.099593	0.904512	0.611293
	H77	H	0.103350	0.090804	0.379803
	H78	H	0.917112	0.084384	0.611179
	H79	H	0.916798	0.898527	0.377411
	H80	H	0.626494	0.097781	0.906386
	H81	H	0.398060	0.088508	0.084439
	H82	H	0.621642	0.907761	0.078255
	H83	H	0.394908	0.906378	0.899919
	H84	H	0.626024	0.913457	0.099416
	H85	H	0.394081	0.087351	0.096490
	H86	H	0.623152	0.083117	0.907442
	H87	H	0.393723	0.901275	0.899526
	H88	H	0.922059	0.093316	0.611900
	H89	H	0.104644	0.091266	0.379609
	H90	H	0.107335	0.901592	0.615096
	H91	H	0.911989	0.910697	0.379560
	H92	H	0.094081	0.610374	0.909040
	H93	H	0.102608	0.381259	0.087332
	H94	H	0.909946	0.616153	0.085464
	H95	H	0.912571	0.380492	0.908098
	H96	H	0.412494	0.116187	0.586454
	H97	H	0.609447	0.879770	0.584170
	H98	H	0.606484	0.113941	0.407192
	H99	H	0.417615	0.883234	0.411527
	H100	H	0.608315	0.401699	0.114878
	H101	H	0.603277	0.589962	0.879334
	H102	H	0.416175	0.594372	0.113864
	H103	H	0.414068	0.406341	0.878763
	H104	H	0.124816	0.588066	0.403765
	H105	H	0.896635	0.590160	0.586590
	H106	H	0.128419	0.397554	0.593418
	H107	H	0.895804	0.412585	0.396852
	H108	H	0.920080	0.616041	0.094581
	H109	H	0.104917	0.380127	0.087380
	H110	H	0.114218	0.615848	0.910557
	H111	H	0.916506	0.378343	0.897745
	H112	H	0.106421	0.909808	0.611255
	H113	H	0.104563	0.090021	0.379980
	H114	H	0.912695	0.092958	0.614959
	H115	H	0.924260	0.907358	0.382311
	H116	H	0.627188	0.088869	0.894627
	H117	H	0.391928	0.098350	0.090511
	H118	H	0.629637	0.892391	0.091966
	H119	H	0.395916	0.904128	0.903689
	C120	C	0.389281	0.006156	0.616852
	C121	C	0.631819	0.989130	0.616746
	C122	C	0.632621	0.005794	0.374854
	C123	C	0.389541	0.989611	0.375739
	C124	C	0.632258	0.376501	0.004067
	C125	C	0.632152	0.618407	0.987773
	C126	C	0.388957	0.618666	0.004421
	C127	C	0.388731	0.376116	0.987811
	C128	C	0.018792	0.619095	0.373695
	C129	C	1.002774	0.619203	0.618374
	C130	C	0.018605	0.375346	0.618797
	C131	C	1.002282	0.375515	0.373773
	C132	C	0.888978	0.505913	0.116671
	C133	C	0.131887	0.489061	0.116864
	C134	C	0.132141	0.505878	0.875186
	C135	C	0.888482	0.488973	0.874633
	C136	C	0.132502	0.876345	0.504171
	C137	C	0.131999	0.119257	0.488187
	C138	C	0.888763	0.119550	0.504755
	C139	C	0.889594	0.876384	0.488201
	C140	C	0.518690	0.119045	0.874059
	C141	C	0.502365	0.119717	0.118399
	C142	C	0.518508	0.875519	0.118178
	C143	C	0.502057	0.875421	0.872852
	C144	C	0.392441	0.882193	0.671202
	C145	C	0.629271	0.112706	0.672356
	C146	C	0.629782	0.881986	0.319618
	C147	C	0.392210	0.113132	0.320353
	C148	C	0.687715	0.377582	0.881191
	C149	C	0.688344	0.617310	0.110370
	C150	C	0.333087	0.617372	0.881567
	C151	C	0.333063	0.376607	0.110422
	C152	C	0.896729	0.674938	0.376135
	C153	C	0.125201	0.674155	0.615675
	C154	C	0.895870	0.321218	0.614484
	C155	C	0.124859	0.321466	0.377820
	C156	C	0.896010	0.378155	0.673199
	C157	C	0.124782	0.616940	0.674223
	C158	C	0.896529	0.617096	0.318175
	C159	C	0.124235	0.377660	0.318519
	C160	C	0.392294	0.673212	0.880828
	C161	C	0.629440	0.673666	0.110793
	C162	C	0.629033	0.321451	0.880772
	C163	C	0.392609	0.321279	0.111331
	C164	C	0.688556	0.882723	0.375979
	C165	C	0.688122	0.111997	0.616512
	C166	C	0.333545	0.883147	0.615737
	C167	C	0.333341	0.112756	0.376078
	C168	C	0.892184	0.381678	0.171302
	C169	C	0.128487	0.613093	0.171615
	C170	C	0.128121	0.381751	0.821034
	C171	C	0.891692	0.612913	0.819704
	C172	C	0.187708	0.878143	0.381360
	C173	C	0.187017	0.117302	0.611346
	C174	C	0.833772	0.117456	0.381252
	C175	C	0.833721	0.877273	0.610763
	C176	C	0.396436	0.174657	0.876525
	C177	C	0.625041	0.174002	0.114733
	C178	C	0.396147	0.820624	0.114582
	C179	C	0.624873	0.820892	0.876677
	C180	C	0.396418	0.877557	0.173808
	C181	C	0.624682	0.116597	0.173298
	C182	C	0.396548	0.116929	0.818509
	C183	C	0.624590	0.878217	0.818119
	C184	C	0.893093	0.173187	0.380532
	C185	C	0.127603	0.173165	0.612087
	C186	C	0.128648	0.821713	0.380788
	C187	C	0.893146	0.821252	0.611657
	C188	C	0.187266	0.382503	0.876751
	C189	C	0.187407	0.612409	0.115520
	C190	C	0.834045	0.382007	0.114610
	C191	C	0.833035	0.612218	0.875781
	C192	C	0.411040	0.092843	0.594686
	C193	C	0.609523	0.903001	0.593751
	C194	C	0.610382	0.092018	0.397208
	C195	C	0.411521	0.903343	0.398311
	C196	C	0.610542	0.398863	0.090236
	C197	C	0.610228	0.595875	0.901709
	C198	C	0.410943	0.596348	0.090181
	C199	C	0.410442	0.399093	0.901815
	C200	C	0.103869	0.596361	0.396053
	C201	C	0.917612	0.597106	0.596063
	C202	C	0.104063	0.397322	0.597317
	C203	C	0.916865	0.397778	0.395589
	C204	C	0.911007	0.592026	0.094279
	C205	C	0.110120	0.402602	0.094566
	C206	C	0.110553	0.592422	0.897539
	C207	C	0.910736	0.402736	0.897138
	C208	C	0.110787	0.898724	0.590351
	C209	C	0.110467	0.097244	0.401979
	C210	C	0.910604	0.096917	0.590551
	C211	C	0.911341	0.898820	0.402000
	C212	C	0.603689	0.096721	0.896416
	C213	C	0.416712	0.097886	0.096828
	C214	C	0.603883	0.897900	0.096242
	C215	C	0.416801	0.897316	0.894704
	Zn216	Zn	0.510451	-0.002458	0.744327
	Zn217	Zn	0.510219	-0.002323	0.247401
	Zn218	Zn	0.760600	0.497248	-0.004179
	Zn219	Zn	0.260547	0.497268	-0.003415
	Zn220	Zn	0.010950	0.747675	0.496141
	Zn221	Zn	0.010289	0.247408	0.496006
	Zn222	Zn	0.010236	0.497330	0.747388
	Zn223	Zn	0.010241	0.497017	0.244799
	Zn224	Zn	0.510789	0.746758	-0.004205
	Zn225	Zn	0.510689	0.248642	-0.003961
	Zn226	Zn	0.760740	-0.002212	0.496216
	Zn227	Zn	0.260917	-0.001853	0.496255
	N228	N	0.426692	0.959769	0.671668
	N229	N	0.594748	0.035254	0.672389
	N230	N	0.595571	0.959574	0.318795
	N231	N	0.426654	0.035667	0.320135
	N232	N	0.689833	0.411092	0.958931
	N233	N	0.689869	0.583428	0.032820
	N234	N	0.330874	0.584126	0.959384
	N235	N	0.330844	0.410161	0.032640
	N236	N	0.973667	0.676060	0.410233
	N237	N	0.048432	0.675366	0.581320
	N238	N	0.972997	0.319537	0.581093
	N239	N	0.048008	0.320035	0.411550
	N240	N	0.973326	0.410996	0.675991
	N241	N	0.047745	0.583555	0.676080
	N242	N	0.973370	0.583150	0.316468
	N243	N	0.046992	0.410688	0.316074
	N244	N	0.426434	0.674103	0.958111
	N245	N	0.595222	0.674358	0.033604
	N246	N	0.595066	0.320814	0.958132
	N247	N	0.426524	0.320864	0.033979
	N248	N	0.690473	0.960852	0.409478
	N249	N	0.689781	0.034245	0.582440
	N250	N	0.331480	0.961229	0.582652
	N251	N	0.331522	0.034739	0.409798
	N252	N	0.925592	0.459495	0.172733
	N253	N	0.094695	0.535257	0.172676
	N254	N	0.094576	0.459590	0.819832
	N255	N	0.925663	0.535233	0.818956
	N256	N	0.190415	0.911089	0.459413
	N257	N	0.189774	0.084459	0.533401
	N258	N	0.831003	0.084762	0.459443
	N259	N	0.831637	0.910840	0.532998
	N260	N	0.473321	0.175993	0.910577
	N261	N	0.548018	0.175925	0.081163
	N262	N	0.473134	0.819145	0.081026
	N263	N	0.547827	0.819012	0.910081
	N264	N	0.473543	0.910987	0.176137
	N265	N	0.547443	0.083702	0.175666
	N266	N	0.473393	0.083090	0.816812
	N267	N	0.547392	0.911195	0.815574
	N268	N	0.926647	0.174620	0.458085
	N269	N	0.094191	0.174543	0.534389
	N270	N	0.094936	0.820794	0.458127
	N271	N	0.927118	0.820572	0.534332
	N272	N	0.189782	0.460722	0.909776
	N273	N	0.189524	0.534306	0.082393
	N274	N	0.831775	0.460147	0.081466
	N275	N	0.831258	0.534200	0.909340
	O276	O	-0.495695	0.523907	1.477538
	H277	H	-0.505286	0.522295	1.482423
	H278	H	-0.491183	0.531370	1.481720
	O279	O	0.536443	0.534386	0.461536
	H280	H	0.544160	0.539205	0.465041
	H281	H	0.537362	0.539027	0.451940
	O282	O	0.511226	0.500994	0.475881
	H283	H	0.510008	0.504977	0.483554
	H284	H	0.509897	0.503936	0.481530
	O285	O	0.527167	0.511059	0.510089
	H286	H	0.524680	0.513405	0.519606
	H287	H	0.530833	0.502774	0.517336
	O288	O	0.482730	0.540159	0.502110
	H289	H	0.472434	0.535854	0.492283
	H290	H	0.482034	0.543904	0.496396
	O291	O	-0.465939	1.554649	0.468604
	H292	H	-0.459717	1.561962	0.460991
	H293	H	-0.461781	1.553451	0.475871
	O294	O	0.527052	0.577710	0.539213
	H295	H	0.529063	0.576953	0.536956
	H296	H	0.522402	0.580233	0.544001
	O297	O	0.436595	-0.555256	0.464273
	H298	H	0.445960	-0.546985	0.462132
	H299	H	0.431695	-0.560931	0.447051
