data_Molecule from HDF5

_cell_length_a		16.439286
_cell_length_b		16.459620
_cell_length_c		16.407004
_cell_angle_alpha	89.896881
_cell_angle_beta	89.877632
_cell_angle_gamma	90.064955
_symmetry_space_group_name_H-M	'P 1'
_symmetry_Int_Tables_number		1

loop_
	_symmetry_equiv_pos_as_xyz
	x,y,z

loop_
	_atom_site_label
	_atom_site_type_symbol
	_atom_site_fract_x
	_atom_site_fract_y
	_atom_site_fract_z
	H0	H	0.388609	0.832423	0.727814
	H1	H	0.603837	0.147303	0.723207
	H2	H	0.604870	0.833572	0.279596
	H3	H	0.391522	0.148056	0.279713
	H4	H	0.718847	0.386177	0.843403
	H5	H	0.716187	0.591522	0.161461
	H6	H	0.275358	0.597640	0.845728
	H7	H	0.274387	0.380358	0.160354
	H8	H	0.842817	0.710750	0.396814
	H9	H	0.155709	0.714497	0.612738
	H10	H	0.842647	0.265879	0.610376
	H11	H	0.157108	0.264382	0.392810
	H12	H	0.841844	0.383444	0.724941
	H13	H	0.156411	0.597511	0.727503
	H14	H	0.841997	0.592415	0.282824
	H15	H	0.157357	0.382135	0.278072
	H16	H	0.389501	0.714271	0.846758
	H17	H	0.602725	0.710056	0.160245
	H18	H	0.603412	0.270504	0.843353
	H19	H	0.390623	0.265682	0.160418
	H20	H	0.722284	0.833435	0.395107
	H21	H	0.721531	0.145827	0.609738
	H22	H	0.274987	0.831118	0.609538
	H23	H	0.273881	0.146495	0.393956
	H24	H	0.895620	0.330379	0.222942
	H25	H	0.103277	0.648306	0.223000
	H26	H	0.105947	0.331918	0.781006
	H27	H	0.892519	0.647494	0.779321
	H28	H	0.220245	0.882901	0.343949
	H29	H	0.220941	0.095371	0.659618
	H30	H	0.782279	0.089125	0.343956
	H31	H	0.776653	0.881433	0.662061
	H32	H	0.340249	0.212391	0.897395
	H33	H	0.658629	0.207710	0.105183
	H34	H	0.341027	0.765050	0.111705
	H35	H	0.656964	0.769092	0.897150
	H36	H	0.339909	0.882967	0.225873
	H37	H	0.658373	0.090845	0.220696
	H38	H	0.340098	0.096308	0.780295
	H39	H	0.657209	0.886688	0.782398
	H40	H	0.896420	0.206929	0.343821
	H41	H	0.106180	0.211513	0.660226
	H42	H	0.104812	0.767909	0.344199
	H43	H	0.893224	0.766139	0.661664
	H44	H	0.224132	0.333466	0.894170
	H45	H	0.222730	0.647109	0.111148
	H46	H	0.777917	0.331237	0.107123
	H47	H	0.778274	0.648647	0.896941
	H48	H	0.413354	0.099176	0.588072
	H49	H	0.586748	0.876784	0.590731
	H50	H	0.587804	0.105182	0.406267
	H51	H	0.410561	0.878919	0.417148
	H52	H	0.589296	0.400369	0.116827
	H53	H	0.584611	0.581137	0.888795
	H54	H	0.414258	0.580564	0.115705
	H55	H	0.412417	0.402087	0.890922
	H56	H	0.113143	0.580768	0.418816
	H57	H	0.887007	0.581718	0.588542
	H58	H	0.113403	0.402185	0.596008
	H59	H	0.886280	0.401199	0.409485
	H60	H	0.113544	0.395687	0.588050
	H61	H	0.890148	0.572664	0.587276
	H62	H	0.111842	0.572968	0.414148
	H63	H	0.886189	0.394185	0.413466
	H64	H	0.406885	0.574903	0.116509
	H65	H	0.591296	0.582996	0.885341
	H66	H	0.586993	0.397422	0.115584
	H67	H	0.410511	0.402995	0.890653
	H68	H	0.582569	0.099907	0.418152
	H69	H	0.587874	0.875264	0.592417
	H70	H	0.406550	0.101246	0.587120
	H71	H	0.408144	0.876783	0.414671
	H72	H	0.903786	0.602252	0.084491
	H73	H	0.085121	0.379789	0.085504
	H74	H	0.084673	0.600286	0.917064
	H75	H	0.908080	0.376720	0.913498
	H76	H	0.085964	0.893623	0.618263
	H77	H	0.082527	0.074938	0.392031
	H78	H	0.913758	0.080664	0.616935
	H79	H	0.912898	0.898978	0.390829
	H80	H	0.607790	0.076545	0.920404
	H81	H	0.384821	0.079722	0.094001
	H82	H	0.613198	0.897273	0.096460
	H83	H	0.387066	0.905964	0.914466
	H84	H	0.608833	0.896801	0.085807
	H85	H	0.385250	0.080709	0.089349
	H86	H	0.612559	0.074243	0.905028
	H87	H	0.384287	0.899893	0.913647
	H88	H	0.905911	0.080554	0.620014
	H89	H	0.085814	0.081408	0.387694
	H90	H	0.092886	0.906792	0.615649
	H91	H	0.908051	0.896671	0.388727
	H92	H	0.088968	0.601683	0.917229
	H93	H	0.090435	0.376706	0.089558
	H94	H	0.903069	0.607494	0.101218
	H95	H	0.911258	0.377006	0.913710
	H96	H	0.409747	0.102252	0.593670
	H97	H	0.585466	0.876046	0.592571
	H98	H	0.595791	0.104495	0.417677
	H99	H	0.412199	0.878478	0.413205
	H100	H	0.590071	0.397202	0.117709
	H101	H	0.590257	0.576043	0.888253
	H102	H	0.415124	0.571986	0.113150
	H103	H	0.411545	0.404386	0.892037
	H104	H	0.115834	0.580339	0.409831
	H105	H	0.886169	0.574714	0.595741
	H106	H	0.110260	0.405230	0.586983
	H107	H	0.888512	0.401127	0.417242
	H108	H	0.917594	0.600509	0.094727
	H109	H	0.084141	0.377513	0.092936
	H110	H	0.086746	0.602367	0.913286
	H111	H	0.909297	0.377641	0.916489
	H112	H	0.078452	0.904664	0.611314
	H113	H	0.090275	0.074205	0.388861
	H114	H	0.909065	0.073386	0.616367
	H115	H	0.908055	0.902772	0.390094
	H116	H	0.614576	0.089048	0.912029
	H117	H	0.386549	0.076734	0.091345
	H118	H	0.609456	0.906779	0.091456
	H119	H	0.386845	0.901660	0.919536
	C120	C	0.376114	-0.002702	0.623862
	C121	C	0.619589	0.980120	0.624246
	C122	C	0.620427	-0.001480	0.381651
	C123	C	0.376755	0.981763	0.380807
	C124	C	0.620244	0.368109	0.011248
	C125	C	0.619992	0.611165	0.992965
	C126	C	0.377604	0.610567	0.011788
	C127	C	0.377669	0.368619	0.994867
	C128	C	0.008824	0.609574	0.382382
	C129	C	0.991038	0.610850	0.624707
	C130	C	0.008238	0.368061	0.623543
	C131	C	0.991382	0.366366	0.380104
	C132	C	0.876657	0.498276	0.125148
	C133	C	0.119835	0.481714	0.123262
	C134	C	0.120708	0.497773	0.882027
	C135	C	0.877911	0.482086	0.881892
	C136	C	0.119391	0.868212	0.510687
	C137	C	0.120042	0.110243	0.493593
	C138	C	0.878156	0.109745	0.512388
	C139	C	0.876910	0.866759	0.494868
	C140	C	0.506874	0.112272	0.880137
	C141	C	0.490522	0.110354	0.123356
	C142	C	0.506361	0.867529	0.124892
	C143	C	0.490197	0.869538	0.882407
	C144	C	0.371683	0.879478	0.686478
	C145	C	0.622093	0.099449	0.683894
	C146	C	0.623054	0.880542	0.320404
	C147	C	0.373336	0.100389	0.319705
	C148	C	0.679278	0.367373	0.891204
	C149	C	0.677817	0.611470	0.113317
	C150	C	0.315762	0.614961	0.893446
	C151	C	0.315200	0.363453	0.112891
	C152	C	0.890119	0.670322	0.379122
	C153	C	0.108724	0.673784	0.629780
	C154	C	0.889864	0.306791	0.627500
	C155	C	0.109873	0.305155	0.375911
	C156	C	0.889308	0.365174	0.684801
	C157	C	0.109243	0.615167	0.686812
	C158	C	0.889614	0.611554	0.322401
	C159	C	0.109998	0.363695	0.318393
	C160	C	0.372757	0.673141	0.893706
	C161	C	0.621344	0.670113	0.112827
	C162	C	0.621948	0.309536	0.891229
	C163	C	0.373358	0.306205	0.113106
	C164	C	0.681344	0.880411	0.377917
	C165	C	0.680925	0.098689	0.627349
	C166	C	0.314620	0.878997	0.627770
	C167	C	0.314736	0.099570	0.376615
	C168	C	0.876017	0.378581	0.183945
	C169	C	0.122265	0.600593	0.183783
	C170	C	0.124021	0.379393	0.820951
	C171	C	0.875494	0.600415	0.820488
	C172	C	0.180372	0.864942	0.391649
	C173	C	0.180988	0.113229	0.612310
	C174	C	0.820593	0.109395	0.391866
	C175	C	0.816413	0.863703	0.614190
	C176	C	0.387921	0.172486	0.878400
	C177	C	0.610560	0.168731	0.124119
	C178	C	0.388015	0.806043	0.128574
	C179	C	0.609232	0.809113	0.879309
	C180	C	0.387573	0.864846	0.185736
	C181	C	0.610464	0.110875	0.181948
	C182	C	0.387674	0.114698	0.820161
	C183	C	0.609504	0.867521	0.821960
	C184	C	0.877450	0.167897	0.391860
	C185	C	0.123796	0.171172	0.612566
	C186	C	0.122791	0.807481	0.391807
	C187	C	0.874539	0.806241	0.614103
	C188	C	0.182934	0.380363	0.877475
	C189	C	0.181663	0.599953	0.127979
	C190	C	0.817521	0.378760	0.126204
	C191	C	0.818035	0.600928	0.878901
	C192	C	0.402408	0.079397	0.597304
	C193	C	0.593905	0.897701	0.599023
	C194	C	0.595603	0.081563	0.406959
	C195	C	0.402807	0.899503	0.407368
	C196	C	0.595879	0.391507	0.094918
	C197	C	0.595623	0.587078	0.909388
	C198	C	0.404571	0.583532	0.093688
	C199	C	0.404030	0.395387	0.912621
	C200	C	0.091945	0.584939	0.407185
	C201	C	0.909376	0.583997	0.598036
	C202	C	0.090871	0.393645	0.597664
	C203	C	0.908540	0.391537	0.406244
	C204	C	0.901050	0.581617	0.100464
	C205	C	0.094138	0.399491	0.096845
	C206	C	0.094486	0.579996	0.908269
	C207	C	0.902558	0.398812	0.907256
	C208	C	0.093390	0.894277	0.593463
	C209	C	0.093766	0.084288	0.411129
	C210	C	0.902541	0.085390	0.595868
	C211	C	0.902331	0.892091	0.411727
	C212	C	0.589908	0.087133	0.905196
	C213	C	0.407367	0.085931	0.098663
	C214	C	0.589080	0.893101	0.098714
	C215	C	0.407593	0.895156	0.908356
	Zn216	Zn	0.497650	-0.010547	0.752414
	Zn217	Zn	0.498246	-0.009848	0.252834
	Zn218	Zn	0.748089	0.489910	0.002367
	Zn219	Zn	0.249309	0.489747	0.003640
	Zn220	Zn	-0.000430	0.739071	0.502837
	Zn221	Zn	-0.000367	0.238636	0.502549
	Zn222	Zn	-0.000312	0.489324	0.753100
	Zn223	Zn	0.000202	0.489300	0.252771
	Zn224	Zn	0.498286	0.739196	0.002653
	Zn225	Zn	0.498923	0.239887	0.002885
	Zn226	Zn	0.748989	-0.011131	0.503669
	Zn227	Zn	0.247518	-0.011035	0.501695
	N228	N	0.409076	0.954105	0.684187
	N229	N	0.584642	0.024799	0.682020
	N230	N	0.585838	0.955100	0.322638
	N231	N	0.411094	0.026013	0.322214
	N232	N	0.678380	0.402953	0.966975
	N233	N	0.677272	0.575834	0.037745
	N234	N	0.318570	0.576953	0.967946
	N235	N	0.317697	0.401392	0.038402
	N236	N	0.965195	0.669156	0.415883
	N237	N	0.034352	0.671061	0.591673
	N238	N	0.964816	0.308353	0.590415
	N239	N	0.035034	0.306848	0.413598
	N240	N	0.964039	0.402828	0.682514
	N241	N	0.035133	0.576849	0.683847
	N242	N	0.964546	0.574707	0.324143
	N243	N	0.035236	0.400963	0.320861
	N244	N	0.410442	0.670588	0.968405
	N245	N	0.586278	0.670173	0.036948
	N246	N	0.586106	0.309625	0.966865
	N247	N	0.411659	0.309327	0.038566
	N248	N	0.679693	0.954967	0.415372
	N249	N	0.679546	0.023607	0.590891
	N250	N	0.317163	0.953445	0.589504
	N251	N	0.316631	0.024757	0.413840
	N252	N	0.911942	0.453903	0.183383
	N253	N	0.084490	0.526196	0.180761
	N254	N	0.086077	0.453510	0.823657
	N255	N	0.912055	0.525296	0.822338
	N256	N	0.178261	0.901897	0.466629
	N257	N	0.178932	0.076283	0.537215
	N258	N	0.820489	0.074561	0.468018
	N259	N	0.817533	0.900418	0.538662
	N260	N	0.463145	0.171122	0.914815
	N261	N	0.534886	0.168913	0.088867
	N262	N	0.462985	0.807704	0.091480
	N263	N	0.533821	0.809853	0.915893
	N264	N	0.462400	0.902272	0.183571
	N265	N	0.534636	0.075487	0.181542
	N266	N	0.462874	0.078283	0.820895
	N267	N	0.534473	0.904198	0.823715
	N268	N	0.912290	0.168416	0.467970
	N269	N	0.086903	0.169518	0.537700
	N270	N	0.085816	0.809254	0.467166
	N271	N	0.911467	0.808132	0.539051
	N272	N	0.180811	0.455032	0.914892
	N273	N	0.180362	0.524938	0.091031
	N274	N	0.817785	0.454284	0.090221
	N275	N	0.819569	0.526269	0.916510
	O276	O	0.686946	0.619954	0.362665
	H277	H	0.666498	0.606638	0.378054
	H278	H	0.671095	0.599645	0.366218
	O279	O	1.090188	0.202712	0.992692
	H280	H	1.073941	0.197602	0.989676
	H281	H	1.090836	0.202073	0.990486
	O282	O	0.642746	0.278819	0.294904
	H283	H	0.644243	0.287391	0.285112
	H284	H	0.679990	0.267307	0.289374
	O285	O	0.483852	0.510495	0.712833
	H286	H	0.493349	0.502552	0.710565
	H287	H	0.493728	0.512939	0.720036
	O288	O	1.017564	0.787818	-0.196614
	H289	H	1.009683	0.779586	-0.223141
	H290	H	0.994450	0.780909	-0.157938
	O291	O	0.599286	0.348827	0.557212
	H292	H	0.579111	0.350799	0.550082
	H293	H	0.608263	0.347620	0.570835
	O294	O	0.182225	-0.192478	0.821629
	H295	H	0.128777	-0.202842	0.811574
	H296	H	0.197086	-0.192693	0.826845
	O297	O	0.700518	0.505782	1.704253
	H298	H	0.712742	0.501319	1.700638
	H299	H	0.685092	0.505330	1.699052
	O300	O	0.292670	0.691333	0.553802
	H301	H	0.271189	0.705159	0.546617
	H302	H	0.289596	0.653725	0.564661
	O303	O	0.282968	0.275566	0.521303
	H304	H	0.271721	0.268023	0.542766
	H305	H	0.273732	0.269456	0.527588
	O306	O	0.506827	0.289202	0.337465
	H307	H	0.525356	0.279560	0.328895
	H308	H	0.519060	0.276523	0.332557
	O309	O	0.675793	0.664306	0.678162
	H310	H	0.678962	0.676076	0.636051
	H311	H	0.665975	0.627961	0.682626
	O312	O	0.204788	0.978409	1.175219
	H313	H	0.230622	0.973605	1.191696
	H314	H	0.199968	1.016905	1.167810
	O315	O	0.283280	0.485229	0.669644
	H316	H	0.289851	0.491111	0.674327
	H317	H	0.276252	0.483865	0.693696
	O318	O	0.780112	-0.226007	0.032248
	H319	H	0.776858	-0.226468	0.072117
	H320	H	0.753432	-0.247193	0.042263
	O321	O	0.084852	-0.056033	0.025023
	H322	H	0.101075	-0.053940	0.013663
	H323	H	0.072166	-0.044463	0.025511
	O324	O	0.761295	0.740409	0.253309
	H325	H	0.753267	0.716146	0.275446
	H326	H	0.764473	0.733665	0.265073
	O327	O	0.705136	0.280321	0.421108
	H328	H	0.720385	0.257837	0.442675
	H329	H	0.706194	0.292385	0.401890
	O330	O	-0.041652	0.841143	-0.031237
	H331	H	-0.022055	0.839022	-0.008708
	H332	H	-0.062803	0.839876	-0.005169
	O333	O	0.418109	0.692388	0.302282
	H334	H	0.380443	0.676736	0.316343
	H335	H	0.409921	0.709228	0.294220
	O336	O	0.133790	0.119561	-0.072120
	H337	H	0.143335	0.128616	-0.083483
	H338	H	0.107022	0.123398	-0.075248
	O339	O	-0.038366	1.197879	1.077881
	H340	H	-0.054362	1.205175	1.073876
	H341	H	-0.050220	1.181802	1.081991
	O342	O	0.358036	1.580697	0.306120
	H343	H	0.363016	1.545448	0.305619
	H344	H	0.363091	1.583116	0.335998
	O345	O	1.109951	1.137344	0.057939
	H346	H	1.103890	1.136234	0.053380
	H347	H	1.118068	1.150402	0.052241
	O348	O	0.288514	0.423130	0.445884
	H349	H	0.290316	0.408411	0.453845
	H350	H	0.295355	0.425427	0.426075
	O351	O	0.339599	1.537669	1.569006
	H352	H	0.343040	1.534120	1.592399
	H353	H	0.353487	1.516082	1.555133
	O354	O	0.205640	0.969445	-0.205556
	H355	H	0.219431	0.963931	-0.202725
	H356	H	0.219903	0.942428	-0.212751
	O357	O	0.208016	-0.212395	0.990910
	H358	H	0.235971	-0.234468	0.982353
	H359	H	0.206309	-0.197027	0.978607
	O360	O	0.307561	0.299575	0.690552
	H361	H	0.338813	0.288823	0.679673
	H362	H	0.294513	0.322664	0.707923
	O363	O	-0.199346	0.009015	0.883979
	H364	H	-0.217717	-0.002673	0.887214
	H365	H	-0.199048	0.011613	0.888100
	O366	O	0.500430	0.579208	0.306404
	H367	H	0.489213	0.581474	0.309664
	H368	H	0.488739	0.574318	0.288107
	O369	O	0.710065	0.703550	-0.477860
	H370	H	0.697721	0.709860	-0.491620
	H371	H	0.721707	0.726795	-0.477266
	O372	O	1.085137	0.092031	0.815174
	H373	H	1.106257	0.073454	0.821240
	H374	H	1.065882	0.056235	0.818180
	O375	O	0.130611	1.179830	1.165292
	H376	H	0.128755	1.183129	1.144564
	H377	H	0.113862	1.198467	1.168134
	O378	O	0.825170	0.888757	1.200215
	H379	H	0.837107	0.870802	1.205712
	H380	H	0.809869	0.874250	1.218574
	O381	O	0.693640	0.336404	0.576490
	H382	H	0.704953	0.318242	0.580013
	H383	H	0.692675	0.342012	0.579093
	O384	O	-0.185866	1.027448	1.101009
	H385	H	-0.176326	1.026316	1.107735
	H386	H	-0.195146	1.013267	1.093332
	O387	O	0.176133	-0.028308	1.038041
	H388	H	0.171666	-0.033964	1.044899
	H389	H	0.177417	-0.022952	1.044959
	O390	O	-0.044198	-0.058970	-0.206871
	H391	H	-0.035949	-0.071114	-0.201509
	H392	H	-0.070525	-0.056066	-0.201773
	O393	O	0.927665	1.198419	0.797302
	H394	H	0.947901	1.206792	0.780018
	H395	H	0.943837	1.166622	0.789904
	O396	O	0.707810	0.460349	0.298085
	H397	H	0.712213	0.463471	0.309497
	H398	H	0.715269	0.470038	0.290723
	O399	O	0.704444	0.489993	0.484813
	H400	H	0.702626	0.470725	0.495335
	H401	H	0.716063	0.510840	0.501580
	O402	O	0.991319	0.843488	1.026973
	H403	H	1.008601	0.847447	1.027404
	H404	H	0.986802	0.845499	1.035473
	O405	O	0.292883	0.567825	-0.643218
	H406	H	0.280486	0.558134	-0.658508
	H407	H	0.318593	0.556478	-0.644241
	O408	O	0.799008	-0.057229	-0.122772
	H409	H	0.806272	-0.070765	-0.126565
	H410	H	0.802191	-0.074660	-0.098795
	O411	O	0.890468	1.141952	0.199140
	H412	H	0.913439	1.128152	0.186690
	H413	H	0.875885	1.118308	0.199810
	O414	O	0.487923	0.478693	0.419602
	H415	H	0.484321	0.473720	0.416894
	H416	H	0.484279	0.489814	0.415356
	O417	O	0.779423	1.211832	-0.218720
	H418	H	0.798630	1.211258	-0.220599
	H419	H	0.796452	1.183680	-0.207525
	O420	O	-0.023709	-0.184053	0.200321
	H421	H	-0.000164	-0.168951	0.207243
	H422	H	-0.009921	-0.194962	0.190607
	O423	O	0.436445	0.454496	0.708667
	H424	H	0.437998	0.449010	0.722402
	H425	H	0.445669	0.446618	0.695192
	O426	O	0.444250	0.665073	0.580678
	H427	H	0.429416	0.671395	0.580771
	H428	H	0.447392	0.666938	0.582290
	O429	O	0.547341	0.700572	0.468861
	H430	H	0.528690	0.704267	0.456051
	H431	H	0.538458	0.693943	0.464967
	O432	O	0.521727	0.706943	0.720917
	H433	H	0.540939	0.711751	0.725456
	H434	H	0.526648	0.720310	0.729904
	O435	O	0.485449	0.284669	0.671024
	H436	H	0.478535	0.278963	0.669307
	H437	H	0.498401	0.274673	0.668472
	O438	O	0.016291	0.020515	0.013320
	H439	H	0.021497	0.025999	-0.002444
	H440	H	0.016843	0.027044	0.015523
	O441	O	1.040118	-0.041752	0.182485
	H442	H	1.047852	-0.044131	0.161844
	H443	H	1.072575	-0.027269	0.197617
	O444	O	0.787595	0.203075	0.975622
	H445	H	0.774427	0.204700	0.951797
	H446	H	0.779630	0.216071	0.959296
	O447	O	0.465749	0.330650	0.446379
	H448	H	0.471553	0.319140	0.439273
	H449	H	0.454042	0.330292	0.462158
	O450	O	0.495742	0.442058	0.556298
	H451	H	0.496896	0.449972	0.557381
	H452	H	0.479373	0.430246	0.546828
	O453	O	0.441304	0.492335	0.302138
	H454	H	0.440494	0.499024	0.306724
	H455	H	0.459624	0.478086	0.299713
