data_Molecule from HDF5

_cell_length_a		16.189699
_cell_length_b		16.385402
_cell_length_c		16.233899
_cell_angle_alpha	90.066574
_cell_angle_beta	89.937576
_cell_angle_gamma	89.968361
_symmetry_space_group_name_H-M	'P 1'
_symmetry_Int_Tables_number		1

loop_
	_symmetry_equiv_pos_as_xyz
	x,y,z

loop_
	_atom_site_label
	_atom_site_type_symbol
	_atom_site_fract_x
	_atom_site_fract_y
	_atom_site_fract_z
	H0	H	0.402448	0.840474	0.718668
	H1	H	0.599767	0.166829	0.718156
	H2	H	0.603630	0.842284	0.286659
	H3	H	0.403812	0.166823	0.288860
	H4	H	0.716051	0.405923	0.838893
	H5	H	0.715883	0.599738	0.168924
	H6	H	0.290539	0.600220	0.838835
	H7	H	0.289611	0.404965	0.167409
	H8	H	0.838761	0.719821	0.402064
	H9	H	0.166606	0.720091	0.604064
	H10	H	0.839230	0.288628	0.603300
	H11	H	0.166821	0.288359	0.402942
	H12	H	0.838188	0.407266	0.715034
	H13	H	0.168255	0.602432	0.717065
	H14	H	0.838311	0.600832	0.289511
	H15	H	0.167509	0.406225	0.290006
	H16	H	0.401982	0.720210	0.841103
	H17	H	0.605060	0.720358	0.166949
	H18	H	0.603629	0.286953	0.840428
	H19	H	0.403843	0.288380	0.167524
	H20	H	0.719111	0.841679	0.403639
	H21	H	0.717869	0.167203	0.603351
	H22	H	0.286810	0.841031	0.601403
	H23	H	0.288349	0.167182	0.406135
	H24	H	0.905196	0.339933	0.218156
	H25	H	0.102205	0.665541	0.219063
	H26	H	0.102877	0.340352	0.787675
	H27	H	0.904549	0.665829	0.788168
	H28	H	0.216880	0.906233	0.338806
	H29	H	0.213584	0.099661	0.668928
	H30	H	0.790469	0.100627	0.338507
	H31	H	0.789258	0.906658	0.667867
	H32	H	0.339946	0.218529	0.904287
	H33	H	0.667662	0.216816	0.104126
	H34	H	0.339342	0.786720	0.104450
	H35	H	0.667638	0.788054	0.903812
	H36	H	0.338349	0.905113	0.218270
	H37	H	0.667419	0.099978	0.217173
	H38	H	0.337955	0.100406	0.791543
	H39	H	0.667472	0.903857	0.787648
	H40	H	0.902157	0.219391	0.339822
	H41	H	0.101773	0.218750	0.666476
	H42	H	0.103602	0.787050	0.339552
	H43	H	0.901061	0.787089	0.666454
	H44	H	0.218389	0.340080	0.904211
	H45	H	0.219663	0.665273	0.103195
	H46	H	0.788825	0.339567	0.101756
	H47	H	0.788869	0.666168	0.905783
	H48	H	0.408444	0.118278	0.596778
	H49	H	0.593826	0.889535	0.596009
	H50	H	0.604872	0.123337	0.408084
	H51	H	0.412822	0.888419	0.408372
	H52	H	0.587171	0.414504	0.116651
	H53	H	0.584638	0.597866	0.889620
	H54	H	0.413685	0.606260	0.122602
	H55	H	0.421129	0.413325	0.891635
	H56	H	0.118191	0.598231	0.418232
	H57	H	0.885035	0.590940	0.603267
	H58	H	0.120792	0.414308	0.600484
	H59	H	0.883446	0.410188	0.405102
	H60	H	0.124027	0.402084	0.596666
	H61	H	0.883859	0.605776	0.595221
	H62	H	0.118050	0.590359	0.410062
	H63	H	0.884489	0.404280	0.415041
	H64	H	0.402398	0.589454	0.121551
	H65	H	0.601735	0.604078	0.883129
	H66	H	0.595307	0.397027	0.123902
	H67	H	0.412496	0.397004	0.883548
	H68	H	0.589026	0.120376	0.403787
	H69	H	0.595275	0.889682	0.593955
	H70	H	0.407122	0.120320	0.599428
	H71	H	0.409780	0.890472	0.414355
	H72	H	0.898912	0.622680	0.101414
	H73	H	0.097912	0.386715	0.097167
	H74	H	0.095002	0.618095	0.909912
	H75	H	0.896257	0.383855	0.911050
	H76	H	0.100020	0.910176	0.621926
	H77	H	0.093600	0.088621	0.389562
	H78	H	0.920050	0.095073	0.616605
	H79	H	0.912648	0.912259	0.387197
	H80	H	0.623523	0.106036	0.911600
	H81	H	0.388898	0.093584	0.089544
	H82	H	0.618955	0.917633	0.098377
	H83	H	0.384520	0.906125	0.909616
	H84	H	0.622944	0.904306	0.099535
	H85	H	0.385126	0.092742	0.104320
	H86	H	0.615976	0.089967	0.920799
	H87	H	0.388375	0.910336	0.917909
	H88	H	0.908444	0.106094	0.623389
	H89	H	0.088734	0.103625	0.386481
	H90	H	0.091796	0.915669	0.616897
	H91	H	0.912503	0.909589	0.387055
	H92	H	0.096800	0.617833	0.912214
	H93	H	0.095978	0.387209	0.097964
	H94	H	0.918989	0.617884	0.104023
	H95	H	0.915490	0.385073	0.896685
	H96	H	0.410309	0.119612	0.599545
	H97	H	0.596452	0.887927	0.596229
	H98	H	0.594580	0.116267	0.419592
	H99	H	0.406681	0.886254	0.409867
	H100	H	0.607588	0.414375	0.123073
	H101	H	0.600024	0.585365	0.889857
	H102	H	0.421877	0.589273	0.115353
	H103	H	0.402224	0.413990	0.884711
	H104	H	0.121692	0.600605	0.407726
	H105	H	0.889774	0.592266	0.587031
	H106	H	0.118794	0.411154	0.588555
	H107	H	0.888381	0.415202	0.414418
	H108	H	0.910378	0.615755	0.084962
	H109	H	0.096127	0.387300	0.095830
	H110	H	0.097916	0.619490	0.909665
	H111	H	0.916909	0.392323	0.919970
	H112	H	0.090520	0.905093	0.619511
	H113	H	0.103790	0.099288	0.382808
	H114	H	0.904246	0.089794	0.620017
	H115	H	0.910400	0.910984	0.386882
	H116	H	0.621328	0.088583	0.901975
	H117	H	0.382859	0.105061	0.096809
	H118	H	0.618194	0.909340	0.087297
	H119	H	0.388060	0.915510	0.910091
	C120	C	0.379840	0.011848	0.626311
	C121	C	0.624217	0.996272	0.625008
	C122	C	0.625170	0.012591	0.381398
	C123	C	0.381094	0.996003	0.382225
	C124	C	0.625460	0.380635	0.012749
	C125	C	0.624794	0.624515	0.995606
	C126	C	0.382790	0.624036	0.011805
	C127	C	0.382501	0.380178	0.995048
	C128	C	0.011106	0.624927	0.382532
	C129	C	0.994775	0.625018	0.624458
	C130	C	0.011888	0.381685	0.624089
	C131	C	0.994398	0.382126	0.382582
	C132	C	0.881130	0.510958	0.125206
	C133	C	0.125203	0.494609	0.125597
	C134	C	0.125485	0.511046	0.881412
	C135	C	0.881032	0.494974	0.880896
	C136	C	0.123966	0.881642	0.511490
	C137	C	0.123654	0.125030	0.495014
	C138	C	0.881500	0.125660	0.511572
	C139	C	0.881982	0.882443	0.495146
	C140	C	0.511668	0.123923	0.882650
	C141	C	0.494329	0.124909	0.125339
	C142	C	0.511562	0.881946	0.124757
	C143	C	0.495138	0.881344	0.882317
	C144	C	0.382364	0.889035	0.680620
	C145	C	0.621143	0.118605	0.680688
	C146	C	0.623469	0.890586	0.325260
	C147	C	0.383636	0.118442	0.327098
	C148	C	0.679306	0.384495	0.888400
	C149	C	0.679185	0.621297	0.119615
	C150	C	0.327830	0.621068	0.888164
	C151	C	0.327330	0.383998	0.118434
	C152	C	0.887636	0.681045	0.382928
	C153	C	0.118058	0.681195	0.623267
	C154	C	0.888191	0.326836	0.622915
	C155	C	0.117713	0.326469	0.383519
	C156	C	0.887737	0.385713	0.678596
	C157	C	0.118664	0.622869	0.679718
	C158	C	0.887308	0.621967	0.327094
	C159	C	0.118283	0.385018	0.327525
	C160	C	0.383099	0.680837	0.889394
	C161	C	0.623973	0.681157	0.118493
	C162	C	0.623646	0.325331	0.889190
	C163	C	0.384229	0.326035	0.118508
	C164	C	0.680962	0.890265	0.383370
	C165	C	0.679726	0.118670	0.623317
	C166	C	0.324479	0.889428	0.622696
	C167	C	0.326108	0.118566	0.385155
	C168	C	0.884229	0.388482	0.180263
	C169	C	0.122769	0.617176	0.180845
	C170	C	0.123165	0.389023	0.825599
	C171	C	0.883890	0.617253	0.826160
	C172	C	0.179386	0.884959	0.387925
	C173	C	0.177096	0.121008	0.619404
	C174	C	0.827283	0.121887	0.387814
	C175	C	0.826590	0.885584	0.618691
	C176	C	0.388350	0.179640	0.884845
	C177	C	0.618345	0.179391	0.123807
	C178	C	0.388219	0.825216	0.124669
	C179	C	0.618633	0.825890	0.883402
	C180	C	0.387659	0.884540	0.180387
	C181	C	0.618558	0.121037	0.179676
	C182	C	0.387441	0.120732	0.828988
	C183	C	0.618406	0.883293	0.825902
	C184	C	0.882970	0.180865	0.388426
	C185	C	0.121559	0.180187	0.618128
	C186	C	0.123186	0.825743	0.388277
	C187	C	0.881982	0.825982	0.617968
	C188	C	0.180505	0.388616	0.883707
	C189	C	0.180804	0.617098	0.123047
	C190	C	0.826723	0.388280	0.122201
	C191	C	0.826311	0.617308	0.884641
	C192	C	0.401996	0.097209	0.604927
	C193	C	0.601872	0.911197	0.602082
	C194	C	0.602865	0.097910	0.403851
	C195	C	0.403393	0.910661	0.404183
	C196	C	0.603187	0.402175	0.098853
	C197	C	0.602167	0.602206	0.909764
	C198	C	0.405847	0.601497	0.097614
	C199	C	0.405161	0.401786	0.908746
	C200	C	0.097102	0.602877	0.405354
	C201	C	0.908573	0.602797	0.601797
	C202	C	0.098780	0.403012	0.601731
	C203	C	0.907742	0.403565	0.404993
	C204	C	0.902997	0.596503	0.103324
	C205	C	0.103192	0.409312	0.103568
	C206	C	0.103213	0.596480	0.904098
	C207	C	0.903305	0.409117	0.902584
	C208	C	0.100932	0.903720	0.597294
	C209	C	0.101760	0.103615	0.408485
	C210	C	0.904225	0.103539	0.597793
	C211	C	0.905195	0.904406	0.409256
	C212	C	0.598207	0.101479	0.904836
	C213	C	0.407948	0.103613	0.103355
	C214	C	0.597741	0.903919	0.101690
	C215	C	0.409256	0.903961	0.905676
	Zn216	Zn	0.502573	0.002854	0.754416
	Zn217	Zn	0.502787	0.003853	0.253029
	Zn218	Zn	0.752496	0.502904	0.003786
	Zn219	Zn	0.254417	0.502350	0.003301
	Zn220	Zn	0.002406	0.753092	0.503287
	Zn221	Zn	0.002705	0.253498	0.502939
	Zn222	Zn	0.004019	0.502876	0.752065
	Zn223	Zn	0.002624	0.503029	0.254515
	Zn224	Zn	0.503259	0.753060	0.003641
	Zn225	Zn	0.504156	0.252082	0.003992
	Zn226	Zn	0.753853	0.004332	0.503262
	Zn227	Zn	0.251978	0.004677	0.503348
	N228	N	0.415903	0.966070	0.682972
	N229	N	0.587352	0.041499	0.681853
	N230	N	0.589182	0.967378	0.324187
	N231	N	0.417009	0.041130	0.325052
	N232	N	0.680639	0.418150	0.966068
	N233	N	0.679888	0.586909	0.042154
	N234	N	0.327548	0.586398	0.965342
	N235	N	0.326223	0.417007	0.040669
	N236	N	0.965463	0.682844	0.416815
	N237	N	0.039952	0.682706	0.589647
	N238	N	0.966408	0.324176	0.589801
	N239	N	0.039626	0.324587	0.417106
	N240	N	0.965747	0.419130	0.679205
	N241	N	0.041090	0.588713	0.680521
	N242	N	0.965003	0.587951	0.326564
	N243	N	0.040618	0.418925	0.326970
	N244	N	0.416418	0.682782	0.967310
	N245	N	0.590807	0.683134	0.040521
	N246	N	0.590750	0.322756	0.967275
	N247	N	0.417923	0.323591	0.040678
	N248	N	0.682064	0.967103	0.417562
	N249	N	0.681646	0.041658	0.589372
	N250	N	0.322816	0.966611	0.589603
	N251	N	0.324406	0.041586	0.418690
	N252	N	0.917574	0.465764	0.181982
	N253	N	0.088780	0.540200	0.182541
	N254	N	0.089352	0.466102	0.824353
	N255	N	0.916984	0.539973	0.823729
	N256	N	0.179886	0.919309	0.465408
	N257	N	0.178564	0.087444	0.541691
	N258	N	0.826309	0.088450	0.465464
	N259	N	0.826263	0.919570	0.541303
	N260	N	0.466664	0.181439	0.917804
	N261	N	0.540095	0.181971	0.090656
	N262	N	0.466225	0.823451	0.090707
	N263	N	0.540916	0.824608	0.917758
	N264	N	0.465269	0.918631	0.180908
	N265	N	0.540632	0.087882	0.180860
	N266	N	0.465084	0.086746	0.827635
	N267	N	0.540577	0.916876	0.825035
	N268	N	0.916043	0.183136	0.466533
	N269	N	0.089207	0.182797	0.539919
	N270	N	0.089417	0.823679	0.466007
	N271	N	0.915821	0.823918	0.540088
	N272	N	0.182300	0.465637	0.917413
	N273	N	0.182656	0.539954	0.089478
	N274	N	0.824565	0.465463	0.088951
	N275	N	0.824625	0.540110	0.918059
	O276	O	0.515954	0.585630	0.527792
	H277	H	0.516763	0.588928	0.532263
	H278	H	0.521838	0.582393	0.533760
	O279	O	0.024029	-0.031452	-0.048345
	H280	H	0.027662	-0.031667	-0.048451
	H281	H	0.022088	-0.033783	-0.051265
	O282	O	0.475125	0.586210	0.465070
	H283	H	0.478026	0.577211	0.461747
	H284	H	0.470573	0.591313	0.467398
	O285	O	0.137543	0.099907	0.143006
	H286	H	0.135538	0.095636	0.143576
	H287	H	0.140175	0.110653	0.147489
	O288	O	1.056347	-0.089607	-0.000865
	H289	H	1.060512	-0.092759	-0.004627
	H290	H	1.060046	-0.090604	0.003476
	O291	O	-0.509143	0.549704	-0.489745
	H292	H	-0.503159	0.547960	-0.480208
	H293	H	-0.503445	0.548401	-0.491165
	O294	O	0.524447	0.558280	0.430527
	H295	H	0.520242	0.564984	0.419520
	H296	H	0.519054	0.560850	0.430918
	O297	O	-0.410005	1.625726	0.482233
	H298	H	-0.400423	1.632277	0.481226
	H299	H	-0.413396	1.623955	0.482824
	O300	O	1.498100	-0.412196	0.485588
	H301	H	1.500365	-0.408231	0.484303
	H302	H	1.501092	-0.407766	0.494554
	O303	O	0.538141	0.515347	0.462498
	H304	H	0.532031	0.515898	0.453468
	H305	H	0.527075	0.522211	0.455565
	O306	O	-0.013819	0.941909	0.975559
	H307	H	-0.015861	0.940380	0.981577
	H308	H	-0.007567	0.936658	0.979978
	O309	O	1.052546	0.950071	0.989476
	H310	H	1.054254	0.945846	0.978923
	H311	H	1.045801	0.960208	0.980923
