data_Molecule from HDF5

_cell_length_a		16.386637
_cell_length_b		16.226218
_cell_length_c		16.245800
_cell_angle_alpha	90.018067
_cell_angle_beta	89.876120
_cell_angle_gamma	90.069726
_symmetry_space_group_name_H-M	'P 1'
_symmetry_Int_Tables_number		1

loop_
	_symmetry_equiv_pos_as_xyz
	x,y,z

loop_
	_atom_site_label
	_atom_site_type_symbol
	_atom_site_fract_x
	_atom_site_fract_y
	_atom_site_fract_z
	H0	H	0.394844	0.830292	0.704258
	H1	H	0.588115	0.159636	0.705003
	H2	H	0.589347	0.829962	0.278477
	H3	H	0.395760	0.159357	0.279566
	H4	H	0.707338	0.394344	0.828721
	H5	H	0.705024	0.592998	0.156533
	H6	H	0.275959	0.594362	0.828988
	H7	H	0.275525	0.394873	0.155381
	H8	H	0.828917	0.709344	0.396073
	H9	H	0.154597	0.709647	0.590194
	H10	H	0.829410	0.279408	0.590487
	H11	H	0.155326	0.281578	0.394957
	H12	H	0.828811	0.396110	0.707209
	H13	H	0.154731	0.593768	0.706707
	H14	H	0.827880	0.591926	0.280279
	H15	H	0.154624	0.396729	0.276632
	H16	H	0.395714	0.706011	0.827069
	H17	H	0.587371	0.707443	0.156853
	H18	H	0.587520	0.282547	0.827235
	H19	H	0.393577	0.280886	0.155793
	H20	H	0.708121	0.831057	0.392700
	H21	H	0.705841	0.159553	0.590592
	H22	H	0.276176	0.831568	0.591798
	H23	H	0.277525	0.159089	0.393535
	H24	H	0.893936	0.330199	0.205743
	H25	H	0.087090	0.659574	0.204285
	H26	H	0.088596	0.330665	0.778129
	H27	H	0.894927	0.659757	0.780120
	H28	H	0.206902	0.896074	0.329118
	H29	H	0.207778	0.095725	0.655442
	H30	H	0.777688	0.095061	0.328032
	H31	H	0.775734	0.895414	0.656171
	H32	H	0.328732	0.209605	0.891737
	H33	H	0.653663	0.211103	0.088963
	H34	H	0.327987	0.779315	0.091064
	H35	H	0.654226	0.779867	0.893888
	H36	H	0.328686	0.895612	0.207708
	H37	H	0.654525	0.094739	0.205937
	H38	H	0.328165	0.091600	0.777835
	H39	H	0.654286	0.896337	0.776430
	H40	H	0.896292	0.207695	0.327439
	H41	H	0.088614	0.208581	0.657154
	H42	H	0.088994	0.781761	0.328802
	H43	H	0.895287	0.782807	0.657627
	H44	H	0.207005	0.331194	0.890982
	H45	H	0.207268	0.658105	0.092763
	H46	H	0.775900	0.330842	0.092108
	H47	H	0.775795	0.657922	0.892332
	H48	H	0.397927	0.112294	0.584128
	H49	H	0.584838	0.878497	0.582775
	H50	H	0.582500	0.108752	0.403177
	H51	H	0.392194	0.876489	0.399258
	H52	H	0.578327	0.399121	0.107627
	H53	H	0.587778	0.588309	0.874797
	H54	H	0.397537	0.585256	0.108591
	H55	H	0.396306	0.399280	0.873555
	H56	H	0.108848	0.591379	0.395950
	H57	H	0.874593	0.592136	0.588144
	H58	H	0.108387	0.402660	0.587022
	H59	H	0.876696	0.399676	0.403840
	H60	H	0.107098	0.400999	0.585199
	H61	H	0.876418	0.588825	0.583793
	H62	H	0.106374	0.589183	0.401164
	H63	H	0.876932	0.405524	0.396472
	H64	H	0.398976	0.587709	0.109438
	H65	H	0.586225	0.584433	0.875947
	H66	H	0.588478	0.400295	0.110797
	H67	H	0.395955	0.405207	0.875371
	H68	H	0.592498	0.112910	0.400698
	H69	H	0.587493	0.877173	0.583488
	H70	H	0.397621	0.112868	0.585599
	H71	H	0.403000	0.877240	0.394757
	H72	H	0.890674	0.613722	0.086588
	H73	H	0.082774	0.378459	0.084273
	H74	H	0.086502	0.610108	0.907908
	H75	H	0.905871	0.377681	0.892370
	H76	H	0.082948	0.903584	0.608677
	H77	H	0.091201	0.098171	0.370865
	H78	H	0.898389	0.083044	0.607631
	H79	H	0.900317	0.893404	0.373682
	H80	H	0.608679	0.095300	0.897388
	H81	H	0.373679	0.091179	0.088166
	H82	H	0.607252	0.899807	0.085136
	H83	H	0.377528	0.903535	0.900356
	H84	H	0.605912	0.900936	0.082656
	H85	H	0.376637	0.088290	0.081207
	H86	H	0.605206	0.085981	0.902171
	H87	H	0.374812	0.901674	0.892590
	H88	H	0.902132	0.091013	0.608297
	H89	H	0.092634	0.077785	0.376713
	H90	H	0.086635	0.900729	0.610613
	H91	H	0.891149	0.906994	0.374928
	H92	H	0.090577	0.613846	0.896262
	H93	H	0.084672	0.378272	0.083306
	H94	H	0.901997	0.611324	0.089982
	H95	H	0.900519	0.381753	0.909796
	H96	H	0.399190	0.111988	0.585038
	H97	H	0.585469	0.877693	0.585521
	H98	H	0.584581	0.112656	0.393070
	H99	H	0.400751	0.880533	0.406138
	H100	H	0.583083	0.408366	0.106796
	H101	H	0.583192	0.588139	0.875388
	H102	H	0.396431	0.588012	0.109543
	H103	H	0.400961	0.401661	0.876282
	H104	H	0.107993	0.585345	0.396627
	H105	H	0.875854	0.586808	0.589497
	H106	H	0.106860	0.402814	0.584533
	H107	H	0.874239	0.396877	0.395865
	H108	H	0.898341	0.609874	0.079063
	H109	H	0.084808	0.376622	0.085359
	H110	H	0.078257	0.610375	0.897467
	H111	H	0.888518	0.374631	0.897668
	H112	H	0.087828	0.905368	0.609415
	H113	H	0.074432	0.088472	0.379174
	H114	H	0.893646	0.089893	0.610719
	H115	H	0.906331	0.908262	0.380010
	H116	H	0.607996	0.085482	0.891386
	H117	H	0.376544	0.083192	0.088339
	H118	H	0.606195	0.902665	0.085365
	H119	H	0.374346	0.896250	0.899090
	C120	C	0.370132	0.003630	0.613456
	C121	C	0.613403	0.986665	0.612638
	C122	C	0.614467	0.003075	0.370277
	C123	C	0.370509	0.986480	0.371272
	C124	C	0.612125	0.373749	0.000161
	C125	C	0.613289	0.615838	0.984328
	C126	C	0.369621	0.615611	0.000754
	C127	C	0.369486	0.373326	0.983035
	C128	C	-0.000038	0.616814	0.370472
	C129	C	0.983428	0.617352	0.614881
	C130	C	0.000013	0.373518	0.614079
	C131	C	0.983628	0.372910	0.370058
	C132	C	0.869262	0.503010	0.113931
	C133	C	0.112313	0.486193	0.113226
	C134	C	0.112842	0.503385	0.871194
	C135	C	0.869718	0.486285	0.870954
	C136	C	0.113759	0.874376	0.501502
	C137	C	0.113785	0.116781	0.484080
	C138	C	0.870515	0.116665	0.500083
	C139	C	0.870236	0.874160	0.484436
	C140	C	0.499347	0.116462	0.869245
	C141	C	0.483202	0.116464	0.113447
	C142	C	0.499077	0.872709	0.113535
	C143	C	0.483098	0.872101	0.868991
	C144	C	0.373674	0.879522	0.667158
	C145	C	0.609367	0.110631	0.667338
	C146	C	0.610813	0.879166	0.315785
	C147	C	0.374311	0.110209	0.316733
	C148	C	0.668945	0.374602	0.877482
	C149	C	0.667246	0.613309	0.107692
	C150	C	0.314690	0.613604	0.877387
	C151	C	0.313860	0.374684	0.106552
	C152	C	0.877522	0.671660	0.374543
	C153	C	0.106024	0.672112	0.611323
	C154	C	0.877649	0.317760	0.611450
	C155	C	0.106630	0.318808	0.373235
	C156	C	0.877434	0.375717	0.669160
	C157	C	0.106019	0.614519	0.669203
	C158	C	0.877071	0.613384	0.316816
	C159	C	0.106049	0.376071	0.314542
	C160	C	0.373919	0.669381	0.876498
	C161	C	0.608828	0.670232	0.107730
	C162	C	0.609047	0.319496	0.876400
	C163	C	0.372593	0.318473	0.106872
	C164	C	0.669398	0.879578	0.372576
	C165	C	0.667942	0.110403	0.610903
	C166	C	0.314826	0.880326	0.611222
	C167	C	0.315534	0.110115	0.373029
	C168	C	0.872565	0.379433	0.168820
	C169	C	0.108900	0.610358	0.167456
	C170	C	0.109565	0.379634	0.815868
	C171	C	0.873140	0.610129	0.816602
	C172	C	0.168709	0.876189	0.377907
	C173	C	0.169141	0.115444	0.607169
	C174	C	0.815670	0.114627	0.377020
	C175	C	0.814632	0.875890	0.607640
	C176	C	0.376937	0.170978	0.872285
	C177	C	0.605348	0.172722	0.109943
	C178	C	0.376714	0.817302	0.111499
	C179	C	0.605581	0.817405	0.872506
	C180	C	0.377008	0.875358	0.169180
	C181	C	0.605718	0.114687	0.167855
	C182	C	0.376913	0.112658	0.814983
	C183	C	0.605639	0.875270	0.814313
	C184	C	0.874619	0.170773	0.376638
	C185	C	0.109839	0.171287	0.607973
	C186	C	0.110021	0.819714	0.377656
	C187	C	0.873688	0.819764	0.608335
	C188	C	0.168175	0.379834	0.872011
	C189	C	0.168276	0.609650	0.111777
	C190	C	0.814307	0.379424	0.112069
	C191	C	0.814221	0.609197	0.872811
	C192	C	0.391884	0.090164	0.591474
	C193	C	0.592144	0.900138	0.590549
	C194	C	0.592836	0.089232	0.392398
	C195	C	0.392153	0.900357	0.393505
	C196	C	0.589805	0.396115	0.086150
	C197	C	0.592090	0.593425	0.897591
	C198	C	0.391184	0.593524	0.086846
	C199	C	0.391375	0.395420	0.897352
	C200	C	0.085710	0.595028	0.391652
	C201	C	0.897717	0.595611	0.593515
	C202	C	0.085305	0.395524	0.592139
	C203	C	0.898154	0.394293	0.392264
	C204	C	0.890574	0.589370	0.091688
	C205	C	0.090618	0.400248	0.091082
	C206	C	0.091544	0.589307	0.893828
	C207	C	0.892030	0.400057	0.893223
	C208	C	0.092220	0.896642	0.587216
	C209	C	0.092348	0.094696	0.397841
	C210	C	0.891873	0.094559	0.586785
	C211	C	0.892600	0.896279	0.398410
	C212	C	0.585274	0.095165	0.890747
	C213	C	0.397606	0.094043	0.091965
	C214	C	0.584478	0.894652	0.090884
	C215	C	0.397633	0.893901	0.890965
	Zn216	Zn	0.491566	-0.005049	0.740602
	Zn217	Zn	0.491957	-0.005393	0.242733
	Zn218	Zn	0.741601	0.494363	-0.007142
	Zn219	Zn	0.241355	0.494573	-0.007816
	Zn220	Zn	-0.007895	0.745751	0.492874
	Zn221	Zn	-0.007713	0.244607	0.492441
	Zn222	Zn	-0.008298	0.495307	0.743327
	Zn223	Zn	-0.009049	0.495165	0.241433
	Zn224	Zn	0.490941	0.743589	-0.008104
	Zn225	Zn	0.490679	0.245111	-0.008703
	Zn226	Zn	0.742348	-0.004748	0.492464
	Zn227	Zn	0.242226	-0.004548	0.492439
	N228	N	0.407407	0.957099	0.668535
	N229	N	0.575941	0.032666	0.668509
	N230	N	0.577408	0.956950	0.314099
	N231	N	0.407684	0.032441	0.315492
	N232	N	0.670649	0.407980	0.955471
	N233	N	0.669771	0.580118	0.029733
	N234	N	0.311866	0.581158	0.955453
	N235	N	0.311812	0.408149	0.028845
	N236	N	0.954807	0.673908	0.407048
	N237	N	0.028850	0.673796	0.578062
	N238	N	0.954719	0.316348	0.577830
	N239	N	0.029697	0.316950	0.407172
	N240	N	0.954351	0.409870	0.670847
	N241	N	0.028854	0.581082	0.671377
	N242	N	0.954268	0.579970	0.314376
	N243	N	0.028668	0.409047	0.312558
	N244	N	0.407499	0.670661	0.954227
	N245	N	0.576035	0.671822	0.029841
	N246	N	0.574503	0.318816	0.953504
	N247	N	0.406397	0.317447	0.029297
	N248	N	0.671993	0.957661	0.405341
	N249	N	0.670588	0.032441	0.577871
	N250	N	0.312512	0.958622	0.578613
	N251	N	0.313138	0.032251	0.406365
	N252	N	0.906124	0.457227	0.169904
	N253	N	0.074663	0.533023	0.168308
	N254	N	0.075778	0.457236	0.815271
	N255	N	0.907226	0.532610	0.815734
	N256	N	0.171084	0.909399	0.455658
	N257	N	0.171449	0.082170	0.529344
	N258	N	0.813268	0.081629	0.455073
	N259	N	0.812680	0.909067	0.529804
	N260	N	0.454169	0.173339	0.905266
	N261	N	0.528160	0.173704	0.076685
	N262	N	0.453644	0.815695	0.077447
	N263	N	0.528411	0.815376	0.905876
	N264	N	0.454204	0.908900	0.170731
	N265	N	0.528888	0.080333	0.170229
	N266	N	0.454010	0.079408	0.813244
	N267	N	0.528660	0.908929	0.812388
	N268	N	0.907953	0.172098	0.454255
	N269	N	0.076057	0.172088	0.530462
	N270	N	0.076411	0.818338	0.455243
	N271	N	0.907744	0.818429	0.530715
	N272	N	0.170277	0.457539	0.905889
	N273	N	0.170472	0.531602	0.078561
	N274	N	0.812377	0.457120	0.078544
	N275	N	0.812190	0.531287	0.906021
	O276	O	0.945755	-0.071601	1.064410
	H277	H	0.953391	-0.068511	1.060419
	H278	H	0.938967	-0.071355	1.067997
	O279	O	0.946763	0.924241	1.082220
	H280	H	0.945013	0.923243	1.086678
	H281	H	0.948421	0.924376	1.070344
	O282	O	0.938896	0.946515	0.085278
	H283	H	0.944914	0.943928	0.099297
	H284	H	0.926764	0.942024	0.094097
	O285	O	0.954488	0.928163	1.105885
	H286	H	0.945780	0.923860	1.109264
	H287	H	0.960380	0.927186	1.097575
