data_Molecule from HDF5

_cell_length_a		16.353299
_cell_length_b		16.155120
_cell_length_c		16.348115
_cell_angle_alpha	90.328120
_cell_angle_beta	90.003085
_cell_angle_gamma	89.964348
_symmetry_space_group_name_H-M	'P 1'
_symmetry_Int_Tables_number		1

loop_
	_symmetry_equiv_pos_as_xyz
	x,y,z

loop_
	_atom_site_label
	_atom_site_type_symbol
	_atom_site_fract_x
	_atom_site_fract_y
	_atom_site_fract_z
	H0	H	0.399072	0.828479	0.709818
	H1	H	0.597911	0.157102	0.712771
	H2	H	0.601333	0.831095	0.278335
	H3	H	0.399514	0.157922	0.281836
	H4	H	0.718852	0.389045	0.836211
	H5	H	0.716070	0.597966	0.158137
	H6	H	0.279585	0.594556	0.835809
	H7	H	0.281334	0.390855	0.158373
	H8	H	0.836262	0.708472	0.398545
	H9	H	0.161788	0.709349	0.596137
	H10	H	0.836592	0.279702	0.595879
	H11	H	0.161726	0.278565	0.397791
	H12	H	0.837627	0.391327	0.714499
	H13	H	0.160315	0.596714	0.715747
	H14	H	0.837702	0.596687	0.278994
	H15	H	0.159982	0.390951	0.277809
	H16	H	0.399446	0.705936	0.833333
	H17	H	0.600134	0.712435	0.156994
	H18	H	0.597747	0.276874	0.833554
	H19	H	0.399899	0.278186	0.158998
	H20	H	0.716528	0.831313	0.394475
	H21	H	0.713459	0.158377	0.597398
	H22	H	0.282574	0.829314	0.595224
	H23	H	0.283805	0.158310	0.398412
	H24	H	0.897267	0.330534	0.212962
	H25	H	0.101670	0.656441	0.216287
	H26	H	0.099484	0.330017	0.779248
	H27	H	0.897982	0.657851	0.782870
	H28	H	0.215290	0.891526	0.334616
	H29	H	0.217024	0.096705	0.658772
	H30	H	0.779173	0.099694	0.336035
	H31	H	0.780884	0.893593	0.658284
	H32	H	0.336283	0.206303	0.898882
	H33	H	0.661545	0.209893	0.096905
	H34	H	0.336495	0.777298	0.094375
	H35	H	0.660822	0.773677	0.892882
	H36	H	0.338562	0.890531	0.214470
	H37	H	0.659735	0.098652	0.215819
	H38	H	0.337613	0.093579	0.779653
	H39	H	0.661431	0.889354	0.777019
	H40	H	0.899374	0.209812	0.334773
	H41	H	0.098008	0.210963	0.659592
	H42	H	0.099669	0.775467	0.335083
	H43	H	0.899358	0.780342	0.659602
	H44	H	0.213859	0.329085	0.895958
	H45	H	0.217451	0.656576	0.101447
	H46	H	0.781668	0.330959	0.099127
	H47	H	0.781456	0.656731	0.896963
	H48	H	0.406782	0.110162	0.591736
	H49	H	0.590378	0.875281	0.589691
	H50	H	0.587372	0.108617	0.410909
	H51	H	0.408293	0.877768	0.405064
	H52	H	0.596738	0.395628	0.115591
	H53	H	0.595487	0.586844	0.877910
	H54	H	0.409587	0.585967	0.111841
	H55	H	0.411685	0.396641	0.881731
	H56	H	0.113506	0.584010	0.405092
	H57	H	0.885163	0.585238	0.587953
	H58	H	0.114918	0.397269	0.585012
	H59	H	0.885922	0.405991	0.408177
	H60	H	0.112069	0.409956	0.587308
	H61	H	0.882851	0.585390	0.594498
	H62	H	0.113731	0.584088	0.406823
	H63	H	0.882716	0.405312	0.398914
	H64	H	0.405556	0.585366	0.112189
	H65	H	0.593168	0.574046	0.883422
	H66	H	0.594101	0.410775	0.109703
	H67	H	0.400253	0.395958	0.878196
	H68	H	0.595727	0.112814	0.405095
	H69	H	0.587382	0.878904	0.583707
	H70	H	0.409019	0.109194	0.588491
	H71	H	0.406388	0.876668	0.404880
	H72	H	0.911868	0.611059	0.095796
	H73	H	0.087722	0.376880	0.090579
	H74	H	0.087668	0.610567	0.904169
	H75	H	0.915344	0.378279	0.901996
	H76	H	0.088888	0.900391	0.611640
	H77	H	0.101383	0.083348	0.379069
	H78	H	0.906891	0.079675	0.609641
	H79	H	0.900048	0.903030	0.379547
	H80	H	0.613944	0.081517	0.905760
	H81	H	0.381760	0.090627	0.090934
	H82	H	0.611479	0.909802	0.083361
	H83	H	0.387069	0.903731	0.905598
	H84	H	0.615806	0.902409	0.092414
	H85	H	0.386632	0.083281	0.081204
	H86	H	0.615411	0.082753	0.900083
	H87	H	0.383912	0.902154	0.896581
	H88	H	0.910806	0.090475	0.611806
	H89	H	0.085823	0.078899	0.385603
	H90	H	0.095886	0.902282	0.613855
	H91	H	0.910755	0.909828	0.384964
	H92	H	0.087790	0.608420	0.910479
	H93	H	0.089542	0.378680	0.084170
	H94	H	0.912030	0.607168	0.081455
	H95	H	0.907289	0.379600	0.913338
	H96	H	0.405726	0.110861	0.587801
	H97	H	0.594954	0.876549	0.583365
	H98	H	0.586487	0.111478	0.400765
	H99	H	0.407736	0.877138	0.402290
	H100	H	0.581764	0.400024	0.109880
	H101	H	0.583323	0.582857	0.882926
	H102	H	0.408091	0.582957	0.110867
	H103	H	0.404294	0.406329	0.882567
	H104	H	0.113250	0.582815	0.406236
	H105	H	0.881070	0.590837	0.590773
	H106	H	0.116754	0.402413	0.597070
	H107	H	0.882613	0.397507	0.405431
	H108	H	0.899768	0.612195	0.087371
	H109	H	0.093498	0.376314	0.087940
	H110	H	0.093642	0.610077	0.908069
	H111	H	0.901810	0.373735	0.901753
	H112	H	0.091080	0.907617	0.611574
	H113	H	0.088165	0.094486	0.379937
	H114	H	0.899969	0.087926	0.614492
	H115	H	0.912160	0.896159	0.381784
	H116	H	0.615233	0.087506	0.904287
	H117	H	0.384646	0.077958	0.093078
	H118	H	0.612980	0.898414	0.081754
	H119	H	0.382806	0.894887	0.903112
	C120	C	0.377754	0.001547	0.617628
	C121	C	0.619942	0.985229	0.616320
	C122	C	0.621011	0.003274	0.374807
	C123	C	0.377778	0.985293	0.374965
	C124	C	0.621063	0.371173	0.005114
	C125	C	0.620403	0.613593	0.987737
	C126	C	0.377082	0.614476	0.004854
	C127	C	0.376948	0.370934	0.988191
	C128	C	0.007064	0.614908	0.375516
	C129	C	0.989989	0.616920	0.620378
	C130	C	0.007093	0.373446	0.618569
	C131	C	0.990550	0.372272	0.374343
	C132	C	0.877485	0.502300	0.118238
	C133	C	0.120873	0.485122	0.118736
	C134	C	0.119635	0.501917	0.876066
	C135	C	0.877536	0.485109	0.875743
	C136	C	0.121127	0.872087	0.505284
	C137	C	0.121192	0.116142	0.488545
	C138	C	0.876280	0.116502	0.505434
	C139	C	0.877673	0.873601	0.489031
	C140	C	0.507830	0.113882	0.874350
	C141	C	0.490947	0.115128	0.118246
	C142	C	0.506937	0.872113	0.116437
	C143	C	0.491391	0.869840	0.872198
	C144	C	0.379200	0.877642	0.672022
	C145	C	0.618328	0.108307	0.674292
	C146	C	0.620769	0.880041	0.317220
	C147	C	0.379259	0.108990	0.319696
	C148	C	0.678794	0.370324	0.883924
	C149	C	0.677235	0.615943	0.109613
	C150	C	0.319018	0.613899	0.883659
	C151	C	0.320304	0.371821	0.109883
	C152	C	0.885150	0.671130	0.377584
	C153	C	0.112749	0.672357	0.617689
	C154	C	0.885173	0.317292	0.616331
	C155	C	0.112958	0.316490	0.377159
	C156	C	0.885718	0.373034	0.675441
	C157	C	0.111977	0.616250	0.677021
	C158	C	0.885924	0.615483	0.318049
	C159	C	0.112126	0.372236	0.317384
	C160	C	0.378815	0.669199	0.882196
	C161	C	0.619782	0.673223	0.108831
	C162	C	0.618831	0.314414	0.882748
	C163	C	0.379277	0.315654	0.110444
	C164	C	0.678031	0.880144	0.374782
	C165	C	0.675642	0.108966	0.616721
	C166	C	0.321325	0.878089	0.615039
	C167	C	0.321669	0.108981	0.377571
	C168	C	0.877956	0.379633	0.174929
	C169	C	0.121099	0.607687	0.177422
	C170	C	0.119184	0.378953	0.818093
	C171	C	0.878025	0.608279	0.819980
	C172	C	0.177139	0.872178	0.383263
	C173	C	0.177967	0.116098	0.610448
	C174	C	0.818366	0.117749	0.384290
	C175	C	0.820223	0.874435	0.610177
	C176	C	0.385186	0.169026	0.877608
	C177	C	0.612726	0.171994	0.116837
	C178	C	0.385456	0.815294	0.114833
	C179	C	0.612701	0.812366	0.873290
	C180	C	0.386525	0.871355	0.174817
	C181	C	0.611891	0.116778	0.176351
	C182	C	0.385915	0.112873	0.818325
	C183	C	0.612961	0.870230	0.815714
	C184	C	0.878409	0.172529	0.383685
	C185	C	0.118691	0.172600	0.611037
	C186	C	0.119688	0.814348	0.383553
	C187	C	0.879115	0.817829	0.610880
	C188	C	0.175847	0.378479	0.876394
	C189	C	0.178639	0.607649	0.119949
	C190	C	0.820309	0.379625	0.118188
	C191	C	0.820178	0.607984	0.877045
	C192	C	0.400499	0.087602	0.595819
	C193	C	0.597492	0.899267	0.592461
	C194	C	0.597001	0.088579	0.398565
	C195	C	0.400799	0.899576	0.397382
	C196	C	0.597727	0.395276	0.089703
	C197	C	0.597416	0.588423	0.903357
	C198	C	0.400787	0.591616	0.089561
	C199	C	0.398971	0.393202	0.902870
	C200	C	0.091684	0.590812	0.399113
	C201	C	0.905189	0.593964	0.597855
	C202	C	0.092376	0.396517	0.596399
	C203	C	0.905780	0.395857	0.397371
	C204	C	0.901068	0.587969	0.094859
	C205	C	0.097127	0.399530	0.094507
	C206	C	0.096284	0.587532	0.900493
	C207	C	0.901194	0.399373	0.898944
	C208	C	0.098552	0.896377	0.590424
	C209	C	0.098541	0.092478	0.403638
	C210	C	0.899221	0.093023	0.589988
	C211	C	0.901028	0.896593	0.404048
	C212	C	0.592891	0.090659	0.896727
	C213	C	0.406377	0.090959	0.095210
	C214	C	0.591577	0.896539	0.092776
	C215	C	0.406461	0.893524	0.895169
	Zn216	Zn	0.499821	-0.007556	0.744847
	Zn217	Zn	0.499570	-0.006115	0.246824
	Zn218	Zn	0.749818	0.493469	-0.002217
	Zn219	Zn	0.248339	0.492937	-0.002937
	Zn220	Zn	-0.001156	0.743993	0.497011
	Zn221	Zn	-0.001391	0.244449	0.497125
	Zn222	Zn	-0.001350	0.493871	0.747706
	Zn223	Zn	-0.001304	0.494173	0.246135
	Zn224	Zn	0.499341	0.742291	-0.005017
	Zn225	Zn	0.498834	0.242558	-0.003344
	Zn226	Zn	0.748515	-0.005252	0.496136
	Zn227	Zn	0.249399	-0.006478	0.496456
	N228	N	0.413264	0.955600	0.674238
	N229	N	0.584537	0.030425	0.674094
	N230	N	0.586041	0.957632	0.316938
	N231	N	0.413236	0.031025	0.317659
	N232	N	0.680490	0.404715	0.961010
	N233	N	0.677751	0.579576	0.033407
	N234	N	0.317701	0.580961	0.960815
	N235	N	0.318774	0.405570	0.032948
	N236	N	0.961475	0.670690	0.412647
	N237	N	0.036047	0.672923	0.583016
	N238	N	0.961683	0.317624	0.581367
	N239	N	0.036324	0.316236	0.411831
	N240	N	0.962584	0.407295	0.676828
	N241	N	0.034809	0.582577	0.678896
	N242	N	0.962819	0.581112	0.316748
	N243	N	0.035021	0.406061	0.315594
	N244	N	0.414167	0.669797	0.958569
	N245	N	0.585192	0.671909	0.032140
	N246	N	0.583693	0.314697	0.959132
	N247	N	0.413760	0.314891	0.033678
	N248	N	0.678436	0.957733	0.409543
	N249	N	0.676727	0.031416	0.581448
	N250	N	0.320377	0.956099	0.581973
	N251	N	0.320667	0.031199	0.411156
	N252	N	0.913132	0.456962	0.175030
	N253	N	0.085812	0.530371	0.176855
	N254	N	0.084911	0.456665	0.817923
	N255	N	0.913034	0.530897	0.819237
	N256	N	0.178012	0.907521	0.460011
	N257	N	0.179552	0.081694	0.533406
	N258	N	0.817233	0.083243	0.460992
	N259	N	0.819332	0.908485	0.533205
	N260	N	0.461944	0.169713	0.911898
	N261	N	0.536388	0.171064	0.081446
	N262	N	0.461623	0.815698	0.079307
	N263	N	0.536081	0.812368	0.907996
	N264	N	0.463218	0.906031	0.175991
	N265	N	0.535322	0.081991	0.177278
	N266	N	0.463196	0.079505	0.816269
	N267	N	0.536412	0.905209	0.814914
	N268	N	0.913762	0.172003	0.459925
	N269	N	0.084248	0.172914	0.534176
	N270	N	0.085728	0.814138	0.460572
	N271	N	0.914302	0.817487	0.534607
	N272	N	0.176304	0.455857	0.911795
	N273	N	0.178576	0.530398	0.084351
	N274	N	0.820161	0.457006	0.083692
	N275	N	0.819770	0.530299	0.911153
	O276	O	0.098716	-0.168280	0.049231
	H277	H	0.095484	-0.171191	0.058611
	H278	H	0.102310	-0.160980	0.052514
	O279	O	0.523023	0.458620	0.594996
	H280	H	0.526041	0.460945	0.585123
	H281	H	0.513841	0.462700	0.590960
	O282	O	0.989673	0.072397	0.080976
	H283	H	1.009685	0.087756	0.087971
	H284	H	0.983817	0.069896	0.076091
	O285	O	0.037552	1.021249	-0.067529
	H286	H	0.026821	1.030062	-0.062858
	H287	H	0.024336	1.014995	-0.072557
	O288	O	0.932366	1.047152	-0.018135
	H289	H	0.937526	1.051052	-0.018297
	H290	H	0.926639	1.044972	-0.016625
	O291	O	0.412616	0.541817	0.606423
	H292	H	0.411605	0.538372	0.603800
	H293	H	0.409694	0.543354	0.608083
	O294	O	0.944881	1.013186	0.889395
	H295	H	0.940103	1.015881	0.893944
	H296	H	0.939042	1.008780	0.892917
	O297	O	-0.168381	-0.076416	-0.027920
	H298	H	-0.168617	-0.071187	-0.017238
	H299	H	-0.168211	-0.075331	-0.025606
	O300	O	0.543408	0.642943	0.593681
	H301	H	0.545935	0.638429	0.578480
	H302	H	0.549569	0.643841	0.603404
	O303	O	0.114731	1.019664	1.045430
	H304	H	0.119020	1.022123	1.043413
	H305	H	0.118292	1.017431	1.044779
	O306	O	0.436958	0.550884	0.412369
	H307	H	0.436173	0.560651	0.409309
	H308	H	0.447573	0.551073	0.408611
	O309	O	1.034833	-0.016768	0.176788
	H310	H	1.043007	-0.027722	0.169303
	H311	H	1.028647	-0.014281	0.184259
	O312	O	0.095054	0.002847	1.021059
	H313	H	0.091511	0.000837	1.016393
	H314	H	0.091909	-0.020535	1.023466
	O315	O	0.376890	0.322575	0.621434
	H316	H	0.369950	0.334291	0.602360
	H317	H	0.370374	0.302674	0.626542
	O318	O	0.405834	0.396182	0.557820
	H319	H	0.393729	0.400267	0.578883
	H320	H	0.408880	0.389690	0.554053
	O321	O	0.444144	0.447805	0.497672
	H322	H	0.436179	0.443102	0.485597
	H323	H	0.436064	0.438165	0.505019
	O324	O	0.538620	0.479137	0.611384
	H325	H	0.543065	0.485648	0.619008
	H326	H	0.527119	0.466837	0.611570
	O327	O	0.092144	0.847280	0.874063
	H328	H	0.084786	0.842254	0.869497
	H329	H	0.100513	0.861157	0.879209
	O330	O	0.454653	0.500989	0.593305
	H331	H	0.433090	0.496957	0.597616
	H332	H	0.465454	0.512707	0.583491
	O333	O	0.106589	0.994253	0.852700
	H334	H	0.112524	1.008714	0.860325
	H335	H	0.107066	0.990145	0.848970
	O336	O	0.961095	1.102084	1.058773
	H337	H	0.961347	1.108848	1.050772
	H338	H	0.959071	1.105993	1.060764
	O339	O	0.513071	0.559028	0.437692
	H340	H	0.529122	0.564282	0.446479
	H341	H	0.510445	0.563829	0.429395
	O342	O	0.905572	-0.137234	-0.010519
	H343	H	0.914134	-0.139254	-0.008191
	H344	H	0.903747	-0.124852	-0.006827
	O345	O	0.596353	0.421082	0.512236
	H346	H	0.587634	0.427406	0.514504
	H347	H	0.607413	0.423988	0.517636
	O348	O	0.986092	1.001638	1.069694
	H349	H	0.985942	1.003774	1.060483
	H350	H	0.983692	1.000363	1.074596
	O351	O	1.090394	0.975297	0.059541
	H352	H	1.079724	0.971498	0.062825
	H353	H	1.092049	0.970292	0.055513
	O354	O	0.485767	0.397544	0.553313
	H355	H	0.482043	0.404075	0.560000
	H356	H	0.492961	0.402584	0.561908
	O357	O	0.555754	0.433424	0.658459
	H358	H	0.551242	0.431819	0.646632
	H359	H	0.552076	0.428713	0.670908
	O360	O	0.113730	0.017174	-0.091289
	H361	H	0.114688	0.007014	-0.096058
	H362	H	0.112253	0.018797	-0.105631
	O363	O	0.493946	0.514992	0.371341
	H364	H	0.487407	0.515585	0.371404
	H365	H	0.488183	0.514643	0.374105
	O366	O	0.517991	0.460443	0.504272
	H367	H	0.521690	0.471313	0.501581
	H368	H	0.517718	0.465814	0.508644
	O369	O	0.412756	0.543194	0.411794
	H370	H	0.399076	0.536037	0.404538
	H371	H	0.418244	0.532257	0.416523
	O372	O	0.041446	1.025929	1.009694
	H373	H	0.034632	1.033842	1.020731
	H374	H	0.045751	1.026487	1.028338
	O375	O	0.601533	0.549530	0.372724
	H376	H	0.614194	0.541449	0.372366
	H377	H	0.609144	0.549582	0.367428
	O378	O	0.421693	0.576696	0.372332
	H379	H	0.423617	0.577150	0.373540
	H380	H	0.427911	0.580423	0.368828
	O381	O	0.612969	0.479373	0.474656
	H382	H	0.610942	0.478032	0.474115
	H383	H	0.621936	0.477194	0.495318
	O384	O	-0.144916	1.010731	-0.085264
	H385	H	-0.135739	1.007851	-0.089999
	H386	H	-0.139702	1.010285	-0.088343
	O387	O	0.892812	0.036018	1.018090
	H388	H	0.893003	0.041663	1.013670
	H389	H	0.900594	0.040790	1.023882
	O390	O	0.043659	0.994388	0.033637
	H391	H	0.041253	0.983632	0.038278
	H392	H	0.021822	0.979265	0.024969
	O393	O	0.860759	1.081529	0.123152
	H394	H	0.867416	1.104290	0.123388
	H395	H	0.849214	1.076335	0.130345
	O396	O	0.443969	0.507973	0.385820
	H397	H	0.436167	0.499821	0.387001
	H398	H	0.439527	0.508082	0.384360
	O399	O	0.045231	0.989892	0.935754
	H400	H	0.051539	0.977655	0.937482
	H401	H	0.049857	0.988953	0.922831
	O402	O	0.979387	0.896116	1.053436
	H403	H	0.983361	0.892666	1.041245
	H404	H	0.965915	0.898896	1.044283
	O405	O	0.560405	0.503212	0.414616
	H406	H	0.563778	0.491283	0.417117
	H407	H	0.557957	0.507158	0.415899
