data_Molecule from HDF5

_cell_length_a		16.301060
_cell_length_b		16.275356
_cell_length_c		16.186217
_cell_angle_alpha	89.987545
_cell_angle_beta	89.895046
_cell_angle_gamma	89.727981
_symmetry_space_group_name_H-M	'P 1'
_symmetry_Int_Tables_number		1

loop_
	_symmetry_equiv_pos_as_xyz
	x,y,z

loop_
	_atom_site_label
	_atom_site_type_symbol
	_atom_site_fract_x
	_atom_site_fract_y
	_atom_site_fract_z
	H0	H	0.405901	0.824252	0.714412
	H1	H	0.599248	0.152970	0.714552
	H2	H	0.602271	0.824342	0.287371
	H3	H	0.405101	0.151596	0.285727
	H4	H	0.719482	0.387365	0.835345
	H5	H	0.717033	0.585932	0.164014
	H6	H	0.290554	0.586745	0.835547
	H7	H	0.289299	0.389748	0.164315
	H8	H	0.841724	0.703946	0.399686
	H9	H	0.167546	0.702625	0.598326
	H10	H	0.840360	0.275360	0.599513
	H11	H	0.167438	0.272154	0.401111
	H12	H	0.841459	0.390722	0.715654
	H13	H	0.168507	0.585606	0.713165
	H14	H	0.841449	0.586528	0.287393
	H15	H	0.168379	0.389415	0.286309
	H16	H	0.403935	0.703645	0.836684
	H17	H	0.601957	0.699644	0.164898
	H18	H	0.604047	0.271973	0.836239
	H19	H	0.406388	0.273867	0.165023
	H20	H	0.719306	0.825301	0.400555
	H21	H	0.717785	0.152635	0.600199
	H22	H	0.289822	0.824184	0.599121
	H23	H	0.287855	0.151666	0.401042
	H24	H	0.906733	0.325045	0.215505
	H25	H	0.102164	0.652546	0.212982
	H26	H	0.104728	0.324425	0.784760
	H27	H	0.906848	0.652498	0.786150
	H28	H	0.218006	0.889236	0.335650
	H29	H	0.216203	0.086707	0.664194
	H30	H	0.789078	0.087588	0.335900
	H31	H	0.788981	0.889874	0.663797
	H32	H	0.341462	0.204487	0.900126
	H33	H	0.667998	0.201770	0.099411
	H34	H	0.341227	0.773347	0.100469
	H35	H	0.668104	0.772162	0.901411
	H36	H	0.340621	0.891033	0.213640
	H37	H	0.668377	0.084344	0.213587
	H38	H	0.339443	0.086309	0.788546
	H39	H	0.666951	0.887705	0.784341
	H40	H	0.903587	0.204074	0.336102
	H41	H	0.102066	0.201829	0.663968
	H42	H	0.101055	0.776600	0.334673
	H43	H	0.905556	0.774448	0.664434
	H44	H	0.221244	0.325332	0.899160
	H45	H	0.217406	0.651948	0.098054
	H46	H	0.789152	0.324761	0.100275
	H47	H	0.788444	0.651956	0.900113
	H48	H	0.405624	0.105684	0.593124
	H49	H	0.599704	0.874479	0.583410
	H50	H	0.587031	0.103724	0.402372
	H51	H	0.397903	0.869133	0.411918
	H52	H	0.592044	0.400319	0.114606
	H53	H	0.603507	0.586240	0.878607
	H54	H	0.414873	0.576920	0.115599
	H55	H	0.410358	0.389626	0.880290
	H56	H	0.122802	0.583150	0.406470
	H57	H	0.889631	0.583452	0.585079
	H58	H	0.122088	0.396283	0.597587
	H59	H	0.890776	0.401626	0.411272
	H60	H	0.121242	0.387371	0.589923
	H61	H	0.888994	0.575064	0.595419
	H62	H	0.121840	0.582645	0.407126
	H63	H	0.885759	0.396644	0.400383
	H64	H	0.411787	0.586996	0.119026
	H65	H	0.598550	0.570430	0.884688
	H66	H	0.594707	0.387538	0.118399
	H67	H	0.407213	0.401244	0.884119
	H68	H	0.596949	0.102433	0.417187
	H69	H	0.602749	0.869519	0.597551
	H70	H	0.408924	0.105751	0.596524
	H71	H	0.413034	0.867991	0.394294
	H72	H	0.907544	0.603535	0.084547
	H73	H	0.098177	0.371528	0.092510
	H74	H	0.101890	0.605795	0.909617
	H75	H	0.918392	0.375269	0.911874
	H76	H	0.107530	0.900891	0.619468
	H77	H	0.095478	0.084195	0.380756
	H78	H	0.912275	0.076745	0.615323
	H79	H	0.910756	0.900184	0.383761
	H80	H	0.619254	0.074954	0.908418
	H81	H	0.387421	0.085268	0.090233
	H82	H	0.623330	0.890180	0.097255
	H83	H	0.387113	0.889814	0.911134
	H84	H	0.620556	0.890463	0.089100
	H85	H	0.390014	0.077954	0.090647
	H86	H	0.622046	0.081818	0.903959
	H87	H	0.389914	0.898530	0.911257
	H88	H	0.913369	0.084587	0.617980
	H89	H	0.100250	0.077952	0.381772
	H90	H	0.086289	0.900351	0.612765
	H91	H	0.914158	0.893303	0.382607
	H92	H	0.097730	0.606982	0.901636
	H93	H	0.097507	0.371603	0.093059
	H94	H	0.901297	0.609157	0.098263
	H95	H	0.906037	0.371391	0.912353
	H96	H	0.409881	0.103794	0.591986
	H97	H	0.588571	0.874879	0.594413
	H98	H	0.603727	0.109228	0.402392
	H99	H	0.419904	0.876447	0.415096
	H100	H	0.604378	0.396341	0.118403
	H101	H	0.587332	0.582848	0.884019
	H102	H	0.404480	0.578775	0.118987
	H103	H	0.419242	0.396866	0.885829
	H104	H	0.122366	0.581427	0.406858
	H105	H	0.885309	0.587484	0.596672
	H106	H	0.118785	0.397901	0.586882
	H107	H	0.887536	0.389301	0.410991
	H108	H	0.916940	0.603555	0.097873
	H109	H	0.097423	0.371817	0.091543
	H110	H	0.092980	0.603106	0.908351
	H111	H	0.912203	0.370569	0.900492
	H112	H	0.096063	0.882169	0.621011
	H113	H	0.092452	0.077702	0.384938
	H114	H	0.906395	0.080728	0.617601
	H115	H	0.907532	0.894337	0.380859
	H116	H	0.619978	0.082681	0.911883
	H117	H	0.387770	0.081070	0.096677
	H118	H	0.620551	0.897587	0.093442
	H119	H	0.386193	0.895011	0.903407
	C120	C	0.380678	-0.003279	0.622339
	C121	C	0.624983	0.980592	0.621794
	C122	C	0.625389	-0.002849	0.378360
	C123	C	0.381696	0.979456	0.378419
	C124	C	0.626360	0.365759	0.008388
	C125	C	0.624594	0.608018	0.991299
	C126	C	0.382414	0.609780	0.009037
	C127	C	0.383062	0.366962	0.991720
	C128	C	0.013839	0.610600	0.378321
	C129	C	0.996010	0.609853	0.620996
	C130	C	0.013022	0.366267	0.621558
	C131	C	0.995986	0.366321	0.378357
	C132	C	0.881491	0.496990	0.122174
	C133	C	0.125638	0.479835	0.120701
	C134	C	0.126434	0.496973	0.877780
	C135	C	0.883023	0.480241	0.878863
	C136	C	0.125170	0.866441	0.508717
	C137	C	0.124391	0.108808	0.490974
	C138	C	0.881566	0.110428	0.508748
	C139	C	0.882021	0.867169	0.491166
	C140	C	0.512187	0.109352	0.879389
	C141	C	0.496223	0.109558	0.121646
	C142	C	0.513215	0.865329	0.122050
	C143	C	0.495668	0.865291	0.878993
	C144	C	0.384852	0.873264	0.676813
	C145	C	0.620800	0.104065	0.676761
	C146	C	0.623343	0.873671	0.323729
	C147	C	0.384592	0.102825	0.323621
	C148	C	0.681937	0.367567	0.884733
	C149	C	0.679321	0.605897	0.115124
	C150	C	0.327763	0.607279	0.884926
	C151	C	0.327850	0.369333	0.115502
	C152	C	0.890754	0.666046	0.379973
	C153	C	0.118994	0.664832	0.618776
	C154	C	0.889557	0.312340	0.620157
	C155	C	0.118823	0.310572	0.380889
	C156	C	0.890071	0.370120	0.677381
	C157	C	0.119403	0.606489	0.675639
	C158	C	0.890396	0.607152	0.324440
	C159	C	0.119351	0.368950	0.323887
	C160	C	0.384221	0.665400	0.885559
	C161	C	0.622033	0.662609	0.115533
	C162	C	0.624450	0.310369	0.884831
	C163	C	0.385713	0.311718	0.115762
	C164	C	0.681486	0.874189	0.380229
	C165	C	0.679637	0.103807	0.620042
	C166	C	0.326615	0.873363	0.619829
	C167	C	0.326298	0.102825	0.381030
	C168	C	0.885447	0.373707	0.177381
	C169	C	0.122621	0.603339	0.175681
	C170	C	0.124750	0.373561	0.822600
	C171	C	0.885838	0.603647	0.823853
	C172	C	0.180272	0.869386	0.384882
	C173	C	0.178839	0.106851	0.614986
	C174	C	0.826182	0.108552	0.385001
	C175	C	0.826888	0.869397	0.614740
	C176	C	0.389876	0.165791	0.880995
	C177	C	0.619218	0.163897	0.119400
	C178	C	0.390090	0.811028	0.120278
	C179	C	0.619031	0.810072	0.880945
	C180	C	0.389801	0.869476	0.176682
	C181	C	0.619417	0.105524	0.176018
	C182	C	0.388797	0.106801	0.825383
	C183	C	0.618449	0.867705	0.822858
	C184	C	0.883377	0.166135	0.385179
	C185	C	0.122400	0.164504	0.614620
	C186	C	0.122182	0.813222	0.384226
	C187	C	0.884717	0.811868	0.614868
	C188	C	0.182540	0.373877	0.879634
	C189	C	0.180201	0.603083	0.118703
	C190	C	0.827185	0.373680	0.120147
	C191	C	0.826954	0.603260	0.880341
	C192	C	0.401863	0.082883	0.600333
	C193	C	0.603405	0.895024	0.598718
	C194	C	0.602675	0.082953	0.400853
	C195	C	0.403766	0.893401	0.400708
	C196	C	0.603737	0.388184	0.094749
	C197	C	0.602716	0.586264	0.904769
	C198	C	0.404115	0.587475	0.095590
	C199	C	0.405599	0.389337	0.905585
	C200	C	0.100126	0.588697	0.400339
	C201	C	0.910262	0.588173	0.598912
	C202	C	0.098652	0.387591	0.598319
	C203	C	0.909990	0.389020	0.400906
	C204	C	0.902514	0.583101	0.100184
	C205	C	0.104090	0.393803	0.098745
	C206	C	0.104010	0.583083	0.900053
	C207	C	0.905405	0.394482	0.901555
	C208	C	0.103193	0.888134	0.595518
	C209	C	0.102577	0.086540	0.404782
	C210	C	0.904088	0.087441	0.594701
	C211	C	0.904285	0.889391	0.404633
	C212	C	0.598289	0.086635	0.901599
	C213	C	0.410467	0.087843	0.099121
	C214	C	0.599294	0.886465	0.099838
	C215	C	0.409934	0.887719	0.901774
	Zn216	Zn	0.503136	-0.011314	0.750883
	Zn217	Zn	0.504319	-0.012442	0.249919
	Zn218	Zn	0.753456	0.487947	-0.000438
	Zn219	Zn	0.254187	0.488794	-0.000149
	Zn220	Zn	0.004285	0.738477	0.499537
	Zn221	Zn	0.003508	0.237412	0.499971
	Zn222	Zn	0.004964	0.488206	0.750172
	Zn223	Zn	0.004880	0.488715	0.250050
	Zn224	Zn	0.504441	0.736562	0.000552
	Zn225	Zn	0.504613	0.238229	-0.000060
	Zn226	Zn	0.753747	-0.010903	0.499560
	Zn227	Zn	0.252356	-0.011701	0.500284
	N228	N	0.417721	0.950955	0.678634
	N229	N	0.587710	0.026528	0.678268
	N230	N	0.589014	0.951015	0.322629
	N231	N	0.418350	0.025193	0.322069
	N232	N	0.683167	0.401196	0.962713
	N233	N	0.681070	0.572588	0.037109
	N234	N	0.326477	0.573418	0.962807
	N235	N	0.326050	0.402889	0.037687
	N236	N	0.968501	0.668176	0.412880
	N237	N	0.041531	0.666851	0.585399
	N238	N	0.966847	0.309842	0.586137
	N239	N	0.041098	0.308843	0.413963
	N240	N	0.967833	0.402818	0.678527
	N241	N	0.042006	0.572959	0.677128
	N242	N	0.967944	0.573447	0.323203
	N243	N	0.041874	0.402940	0.322227
	N244	N	0.417655	0.666815	0.963479
	N245	N	0.588541	0.663999	0.037414
	N246	N	0.590750	0.309094	0.962767
	N247	N	0.419603	0.310369	0.037798
	N248	N	0.682870	0.951978	0.413391
	N249	N	0.682385	0.026104	0.586525
	N250	N	0.323985	0.951128	0.586514
	N251	N	0.324281	0.025067	0.414326
	N252	N	0.918583	0.451233	0.178796
	N253	N	0.089531	0.525635	0.177242
	N254	N	0.090338	0.450883	0.821515
	N255	N	0.919992	0.526245	0.822740
	N256	N	0.182344	0.901684	0.463390
	N257	N	0.180074	0.072719	0.537229
	N258	N	0.825036	0.074670	0.462799
	N259	N	0.825048	0.902832	0.536785
	N260	N	0.467644	0.167250	0.913883
	N261	N	0.541560	0.166582	0.086222
	N262	N	0.467661	0.808385	0.086856
	N263	N	0.541655	0.808432	0.914946
	N264	N	0.467433	0.902518	0.178014
	N265	N	0.541773	0.072657	0.177699
	N266	N	0.465989	0.072346	0.824397
	N267	N	0.540808	0.901318	0.821480
	N268	N	0.916957	0.167464	0.463134
	N269	N	0.088798	0.165473	0.536676
	N270	N	0.088529	0.811243	0.462294
	N271	N	0.918412	0.810461	0.536879
	N272	N	0.183943	0.451711	0.913132
	N273	N	0.182305	0.525379	0.085186
	N274	N	0.824714	0.451321	0.086425
	N275	N	0.825223	0.525683	0.913981
	O276	O	1.037017	1.069479	0.005203
	H277	H	1.032732	1.068851	0.015351
	H278	H	1.026021	1.064178	0.006901
	O279	O	0.052719	0.070022	0.058067
	H280	H	0.061040	0.078515	0.046267
	H281	H	0.052065	0.071328	0.067883
	O282	O	0.057635	0.066687	0.937090
	H283	H	0.051177	0.065480	0.931497
	H284	H	0.050517	0.070671	0.935684
	O285	O	0.039517	1.016661	0.035499
	H286	H	0.038775	1.023369	0.028229
	H287	H	0.036147	1.008682	0.036975
	O288	O	0.553699	0.508623	0.487852
	H289	H	0.549703	0.501810	0.489335
	H290	H	0.550201	0.509643	0.485431
	O291	O	0.537918	0.512022	0.503765
	H292	H	0.538019	0.506289	0.494550
	H293	H	0.552768	0.515150	0.506762
	O294	O	-0.453637	0.515713	0.456343
	H295	H	-0.448290	0.510615	0.450582
	H296	H	-0.459454	0.522930	0.464160
	O297	O	0.509413	0.529762	0.488545
	H298	H	0.509456	0.537383	0.494336
	H299	H	0.505638	0.533736	0.493799
	O300	O	-0.016414	1.033774	0.963100
	H301	H	-0.022681	1.028210	0.961796
	H302	H	-0.022932	1.032090	0.961034
	O303	O	0.576544	0.514708	0.490504
	H304	H	0.574672	0.523629	0.480116
	H305	H	0.572826	0.513371	0.488858
	O306	O	0.553584	-0.500104	1.497856
	H307	H	0.555890	-0.505882	1.498501
	H308	H	0.559855	-0.507995	1.495170
	O309	O	1.034518	0.991777	1.029282
	H310	H	1.036793	0.985927	1.019027
	H311	H	1.039069	0.998254	1.038385
	O312	O	0.006690	1.028012	0.006373
	H313	H	0.006877	1.035017	0.005390
	H314	H	0.016027	1.026632	0.014192
	O315	O	0.555661	0.526150	0.525861
	H316	H	0.564074	0.517314	0.519534
	H317	H	0.560755	0.531195	0.535942
	O318	O	-0.003557	1.038897	-0.036507
	H319	H	-0.007247	1.042764	-0.029837
	H320	H	0.002205	1.035643	-0.031376
	O321	O	1.014524	1.022221	-0.009426
	H322	H	1.023836	1.017394	-0.011998
	H323	H	1.018456	1.019922	-0.020030
