data_Molecule from HDF5

_cell_length_a		16.113378
_cell_length_b		16.196133
_cell_length_c		16.433485
_cell_angle_alpha	89.601864
_cell_angle_beta	90.175056
_cell_angle_gamma	89.359276
_symmetry_space_group_name_H-M	'P 1'
_symmetry_Int_Tables_number		1

loop_
	_symmetry_equiv_pos_as_xyz
	x,y,z

loop_
	_atom_site_label
	_atom_site_type_symbol
	_atom_site_fract_x
	_atom_site_fract_y
	_atom_site_fract_z
	H0	H	0.389143	0.841358	0.718780
	H1	H	0.591746	0.167147	0.715003
	H2	H	0.595475	0.841557	0.280888
	H3	H	0.383022	0.166833	0.280497
	H4	H	0.707233	0.403686	0.838484
	H5	H	0.705693	0.603325	0.162171
	H6	H	0.270003	0.607834	0.838406
	H7	H	0.277832	0.408633	0.163357
	H8	H	0.826210	0.719123	0.401072
	H9	H	0.157799	0.710033	0.596511
	H10	H	0.825052	0.290101	0.599092
	H11	H	0.155425	0.287280	0.404350
	H12	H	0.827388	0.398879	0.718488
	H13	H	0.154404	0.599692	0.716645
	H14	H	0.826674	0.608114	0.282323
	H15	H	0.154673	0.399199	0.284989
	H16	H	0.386706	0.724268	0.837872
	H17	H	0.589012	0.719949	0.161177
	H18	H	0.590696	0.287703	0.838252
	H19	H	0.388556	0.287532	0.160978
	H20	H	0.706955	0.839229	0.402087
	H21	H	0.701638	0.167869	0.595390
	H22	H	0.285512	0.836074	0.593926
	H23	H	0.272744	0.166883	0.401157
	H24	H	0.889380	0.340316	0.217608
	H25	H	0.091540	0.665596	0.217645
	H26	H	0.095636	0.339306	0.786515
	H27	H	0.884647	0.664737	0.779174
	H28	H	0.207153	0.901001	0.337515
	H29	H	0.203822	0.095539	0.662718
	H30	H	0.771968	0.104245	0.338348
	H31	H	0.776332	0.904055	0.663017
	H32	H	0.323345	0.220653	0.901226
	H33	H	0.654167	0.215025	0.097042
	H34	H	0.323882	0.793155	0.097327
	H35	H	0.653102	0.787926	0.899790
	H36	H	0.326185	0.904459	0.215215
	H37	H	0.651806	0.106611	0.216375
	H38	H	0.325474	0.110015	0.781230
	H39	H	0.653680	0.903202	0.785519
	H40	H	0.885846	0.223000	0.338958
	H41	H	0.090105	0.215811	0.662208
	H42	H	0.091397	0.784883	0.337714
	H43	H	0.891326	0.783942	0.661614
	H44	H	0.205642	0.339564	0.906257
	H45	H	0.199140	0.669509	0.096978
	H46	H	0.779646	0.338494	0.097321
	H47	H	0.773899	0.668007	0.899822
	H48	H	0.398646	0.121358	0.595765
	H49	H	0.576511	0.887035	0.600620
	H50	H	0.573504	0.117103	0.409420
	H51	H	0.400977	0.886489	0.403838
	H52	H	0.574925	0.411021	0.112616
	H53	H	0.588510	0.599902	0.882094
	H54	H	0.401802	0.602971	0.114272
	H55	H	0.390552	0.414922	0.883194
	H56	H	0.113847	0.601332	0.398335
	H57	H	0.875468	0.592444	0.585877
	H58	H	0.108512	0.408665	0.596203
	H59	H	0.871457	0.411942	0.401448
	H60	H	0.108935	0.406012	0.594863
	H61	H	0.874007	0.588496	0.593800
	H62	H	0.105365	0.594610	0.419102
	H63	H	0.873735	0.409570	0.412333
	H64	H	0.388596	0.603222	0.118277
	H65	H	0.577987	0.586500	0.889228
	H66	H	0.585883	0.400940	0.118245
	H67	H	0.400170	0.419395	0.887594
	H68	H	0.582593	0.120980	0.408834
	H69	H	0.577979	0.889957	0.587400
	H70	H	0.399170	0.119437	0.587351
	H71	H	0.401799	0.886926	0.405660
	H72	H	0.899892	0.618452	0.088100
	H73	H	0.096702	0.381639	0.096975
	H74	H	0.081989	0.624055	0.898423
	H75	H	0.894456	0.386078	0.911617
	H76	H	0.086827	0.902749	0.615925
	H77	H	0.088315	0.093739	0.383719
	H78	H	0.891411	0.091132	0.615476
	H79	H	0.888114	0.914971	0.383741
	H80	H	0.608528	0.091381	0.896716
	H81	H	0.371578	0.093716	0.092514
	H82	H	0.607037	0.919308	0.099146
	H83	H	0.375566	0.929813	0.907747
	H84	H	0.609966	0.903799	0.091708
	H85	H	0.370106	0.098947	0.091402
	H86	H	0.608236	0.105336	0.907256
	H87	H	0.367058	0.913191	0.896647
	H88	H	0.903756	0.092838	0.611895
	H89	H	0.076823	0.089892	0.387744
	H90	H	0.088827	0.905518	0.615108
	H91	H	0.907334	0.919639	0.390656
	H92	H	0.067046	0.617182	0.904478
	H93	H	0.074928	0.386569	0.104860
	H94	H	0.892976	0.622279	0.092164
	H95	H	0.900933	0.384336	0.902001
	H96	H	0.391509	0.121752	0.590304
	H97	H	0.589123	0.884720	0.594950
	H98	H	0.577041	0.120731	0.401096
	H99	H	0.400097	0.885729	0.405488
	H100	H	0.589990	0.415385	0.114380
	H101	H	0.570959	0.603090	0.886080
	H102	H	0.393980	0.592208	0.113006
	H103	H	0.399871	0.409015	0.884245
	H104	H	0.106218	0.579574	0.401279
	H105	H	0.871330	0.598255	0.592724
	H106	H	0.107613	0.408297	0.593415
	H107	H	0.874617	0.420594	0.408470
	H108	H	0.900300	0.621166	0.096265
	H109	H	0.080431	0.390703	0.082954
	H110	H	0.081001	0.618653	0.915004
	H111	H	0.905043	0.388953	0.912327
	H112	H	0.084558	0.905901	0.614999
	H113	H	0.077795	0.101950	0.383201
	H114	H	0.897139	0.102367	0.617333
	H115	H	0.902670	0.900105	0.383561
	H116	H	0.602992	0.089527	0.913287
	H117	H	0.372030	0.095672	0.087598
	H118	H	0.603348	0.916850	0.082823
	H119	H	0.372743	0.909480	0.915842
	C120	C	0.369334	0.012012	0.620538
	C121	C	0.610534	0.995200	0.621712
	C122	C	0.610269	0.011823	0.377724
	C123	C	0.368616	0.994716	0.376423
	C124	C	0.612848	0.380508	0.008278
	C125	C	0.609876	0.625661	0.992123
	C126	C	0.364607	0.629703	0.008380
	C127	C	0.368359	0.384796	0.992170
	C128	C	-0.000437	0.623666	0.377362
	C129	C	0.982458	0.621227	0.619970
	C130	C	-0.000881	0.379425	0.623223
	C131	C	0.981951	0.382408	0.379392
	C132	C	0.869173	0.512187	0.121317
	C133	C	0.110831	0.494949	0.122242
	C134	C	0.109557	0.511902	0.879086
	C135	C	0.868149	0.494330	0.877846
	C136	C	0.114790	0.877143	0.507954
	C137	C	0.110879	0.122884	0.491838
	C138	C	0.866686	0.125977	0.508314
	C139	C	0.869714	0.881106	0.492323
	C140	C	0.497676	0.127053	0.876670
	C141	C	0.479784	0.125499	0.120054
	C142	C	0.498288	0.884178	0.120318
	C143	C	0.480187	0.885281	0.877962
	C144	C	0.370775	0.889308	0.678767
	C145	C	0.610314	0.118328	0.676679
	C146	C	0.613002	0.889669	0.320596
	C147	C	0.365782	0.117640	0.319784
	C148	C	0.668857	0.383284	0.886799
	C149	C	0.667078	0.623407	0.113519
	C150	C	0.308192	0.627939	0.886919
	C151	C	0.314509	0.387349	0.114408
	C152	C	0.875744	0.681472	0.379948
	C153	C	0.107489	0.674180	0.617571
	C154	C	0.874721	0.326200	0.619866
	C155	C	0.105974	0.325159	0.382818
	C156	C	0.875877	0.380520	0.679301
	C157	C	0.105846	0.619530	0.677471
	C158	C	0.876025	0.626077	0.320794
	C159	C	0.105490	0.381156	0.323745
	C160	C	0.366092	0.686079	0.886763
	C161	C	0.608777	0.681472	0.113348
	C162	C	0.610834	0.325445	0.886687
	C163	C	0.369511	0.326902	0.113144
	C164	C	0.668512	0.888646	0.380683
	C165	C	0.665291	0.118686	0.617134
	C166	C	0.318974	0.886602	0.616730
	C167	C	0.310504	0.117644	0.379572
	C168	C	0.870003	0.389089	0.178544
	C169	C	0.110022	0.617573	0.178823
	C170	C	0.112607	0.388368	0.824824
	C171	C	0.866309	0.616408	0.818848
	C172	C	0.169621	0.880323	0.385991
	C173	C	0.166604	0.117819	0.613905
	C174	C	0.809983	0.124989	0.386720
	C175	C	0.813894	0.883089	0.614332
	C176	C	0.373403	0.183395	0.879903
	C177	C	0.604384	0.179032	0.117958
	C178	C	0.373624	0.830061	0.117823
	C179	C	0.603852	0.826825	0.879899
	C180	C	0.374935	0.884841	0.176864
	C181	C	0.603017	0.125188	0.177532
	C182	C	0.374407	0.128404	0.820082
	C183	C	0.604179	0.883887	0.822767
	C184	C	0.866825	0.183857	0.387066
	C185	C	0.110052	0.177570	0.613497
	C186	C	0.111730	0.822718	0.386031
	C187	C	0.871338	0.823560	0.613660
	C188	C	0.167752	0.388670	0.884256
	C189	C	0.163522	0.619675	0.118638
	C190	C	0.815594	0.387961	0.118460
	C191	C	0.810889	0.617988	0.878672
	C192	C	0.390345	0.098438	0.597930
	C193	C	0.587772	0.909436	0.600538
	C194	C	0.585119	0.097464	0.400011
	C195	C	0.393747	0.908526	0.398635
	C196	C	0.590261	0.402739	0.093032
	C197	C	0.586083	0.603250	0.907637
	C198	C	0.388026	0.606470	0.093376
	C199	C	0.390337	0.407781	0.907082
	C200	C	0.086128	0.598891	0.399757
	C201	C	0.896086	0.599616	0.597414
	C202	C	0.085827	0.401195	0.601310
	C203	C	0.895585	0.406807	0.401047
	C204	C	0.891180	0.598060	0.098769
	C205	C	0.090044	0.408772	0.101037
	C206	C	0.084089	0.597791	0.899718
	C207	C	0.892931	0.408606	0.901750
	C208	C	0.093096	0.898369	0.593295
	C209	C	0.087766	0.101590	0.406802
	C210	C	0.890428	0.102370	0.592897
	C211	C	0.892612	0.904549	0.407932
	C212	C	0.584254	0.102575	0.899235
	C213	C	0.393634	0.102861	0.097279
	C214	C	0.584210	0.906578	0.097776
	C215	C	0.394198	0.910189	0.900148
	Zn216	Zn	0.489154	0.005132	0.749386
	Zn217	Zn	0.489630	0.004717	0.247637
	Zn218	Zn	0.740823	0.503963	0.000280
	Zn219	Zn	0.237500	0.505650	0.000997
	Zn220	Zn	-0.007894	0.749615	0.499971
	Zn221	Zn	-0.010531	0.253907	0.500630
	Zn222	Zn	-0.009855	0.501098	0.749629
	Zn223	Zn	-0.009662	0.502791	0.249809
	Zn224	Zn	0.488611	0.757320	-0.000724
	Zn225	Zn	0.488942	0.253121	-0.000136
	Zn226	Zn	0.738600	0.003186	0.500408
	Zn227	Zn	0.241789	0.001016	0.499386
	N228	N	0.401144	0.968368	0.681344
	N229	N	0.577058	0.040558	0.679706
	N230	N	0.577426	0.967355	0.318663
	N231	N	0.401080	0.039980	0.317645
	N232	N	0.670214	0.416804	0.963420
	N233	N	0.667739	0.589357	0.037183
	N234	N	0.307062	0.593822	0.963809
	N235	N	0.313647	0.422629	0.038127
	N236	N	0.953779	0.680119	0.414254
	N237	N	0.029792	0.675310	0.582592
	N238	N	0.952538	0.325329	0.585709
	N239	N	0.028196	0.325760	0.416739
	N240	N	0.954383	0.412711	0.681635
	N241	N	0.027079	0.587409	0.679180
	N242	N	0.954122	0.590752	0.319275
	N243	N	0.027208	0.416039	0.321317
	N244	N	0.400322	0.687257	0.963379
	N245	N	0.574024	0.683167	0.036707
	N246	N	0.576454	0.323623	0.963207
	N247	N	0.402453	0.325392	0.035949
	N248	N	0.666838	0.965560	0.415373
	N249	N	0.665389	0.041234	0.583460
	N250	N	0.317896	0.963845	0.581163
	N251	N	0.312003	0.039940	0.413889
	N252	N	0.902680	0.467136	0.180409
	N253	N	0.077936	0.539144	0.181263
	N254	N	0.077223	0.466157	0.821391
	N255	N	0.900868	0.538204	0.817896
	N256	N	0.171538	0.913601	0.462908
	N257	N	0.167092	0.084324	0.537217
	N258	N	0.809864	0.089727	0.462944
	N259	N	0.812614	0.918193	0.537813
	N260	N	0.451377	0.182709	0.914209
	N261	N	0.526863	0.179380	0.082860
	N262	N	0.451436	0.829280	0.083484
	N263	N	0.525844	0.827544	0.913487
	N264	N	0.453181	0.917762	0.178591
	N265	N	0.524551	0.092446	0.178836
	N266	N	0.452997	0.094393	0.817843
	N267	N	0.526192	0.919472	0.821294
	N268	N	0.901371	0.184751	0.463774
	N269	N	0.076197	0.180813	0.536612
	N270	N	0.078427	0.820737	0.462873
	N271	N	0.905243	0.822141	0.536969
	N272	N	0.165944	0.466387	0.917309
	N273	N	0.164218	0.542708	0.084072
	N274	N	0.814641	0.465588	0.083927
	N275	N	0.812008	0.541064	0.914528
	O276	O	0.964170	-0.075702	1.161585
	H277	H	0.963019	-0.089230	1.163913
	H278	H	0.972094	-0.069880	1.164622
	O279	O	0.499013	0.602552	0.601647
	H280	H	0.501827	0.612947	0.592999
	H281	H	0.503357	0.602426	0.610382
	O282	O	0.343302	0.516163	0.483879
	H283	H	0.339453	0.512809	0.492486
	H284	H	0.343950	0.517806	0.480185
	O285	O	0.455001	0.537890	0.367687
	H286	H	0.463615	0.535139	0.370904
	H287	H	0.460797	0.539963	0.366194
	O288	O	0.463465	0.601100	0.406268
	H289	H	0.465096	0.616652	0.400912
	H290	H	0.466576	0.590665	0.391185
	O291	O	-0.145054	-0.006436	0.899508
	H292	H	-0.152300	-0.003590	0.909415
	H293	H	-0.152984	-0.017463	0.899340
	O294	O	0.891840	0.990621	-0.062723
	H295	H	0.896189	0.985185	-0.055603
	H296	H	0.898614	0.992956	-0.058737
	O297	O	1.058713	0.979961	0.081942
	H298	H	1.060159	0.993270	0.085654
	H299	H	1.048788	0.987203	0.079393
	O300	O	0.554742	0.334359	0.475640
	H301	H	0.553535	0.317752	0.474159
	H302	H	0.547595	0.348900	0.471242
	O303	O	1.033418	-0.004473	1.097380
	H304	H	1.049564	-0.003757	1.085305
	H305	H	1.027854	0.006612	1.104073
	O306	O	0.562063	0.492816	0.485953
	H307	H	0.565909	0.484433	0.476782
	H308	H	0.560464	0.489939	0.477734
	O309	O	0.623525	0.576202	0.531429
	H310	H	0.630220	0.581163	0.546720
	H311	H	0.623627	0.583098	0.527186
	O312	O	0.557779	1.462634	0.427888
	H313	H	0.558305	1.467567	0.438527
	H314	H	0.554343	1.473599	0.416773
	O315	O	1.449014	0.508349	0.550309
	H316	H	1.441432	0.507136	0.550881
	H317	H	1.445615	0.503328	0.547438
	O318	O	0.375932	0.525705	0.360835
	H319	H	0.370926	0.534459	0.358572
	H320	H	0.366660	0.519582	0.361875
	O321	O	0.556114	0.461392	0.498741
	H322	H	0.561267	0.458423	0.492812
	H323	H	0.551073	0.448722	0.490394
	O324	O	0.095087	0.943450	0.980882
	H325	H	0.098974	0.937007	0.980104
	H326	H	0.079791	0.949035	0.967258
	O327	O	-0.084454	1.122442	1.044746
	H328	H	-0.081855	1.126934	1.050878
	H329	H	-0.086434	1.124716	1.042340
	O330	O	-0.055125	-0.151032	0.056715
	H331	H	-0.042872	-0.144975	0.057972
	H332	H	-0.056475	-0.161268	0.055511
	O333	O	0.585424	0.596671	0.471623
	H334	H	0.577671	0.595695	0.473818
	H335	H	0.587612	0.589049	0.468528
	O336	O	-0.014525	0.065696	-0.060709
	H337	H	-0.015009	0.072093	-0.065953
	H338	H	-0.012803	0.066992	-0.069895
	O339	O	0.145310	-0.094778	-0.021938
	H340	H	0.153948	-0.088348	-0.031712
	H341	H	0.149819	-0.089576	-0.027340
	O342	O	0.376853	0.362240	0.644169
	H343	H	0.383669	0.374305	0.653239
	H344	H	0.381627	0.363541	0.646760
	O345	O	-0.097906	1.030219	0.940032
	H346	H	-0.105550	1.023644	0.948344
	H347	H	-0.102582	1.034664	0.940380
	O348	O	0.469663	0.388845	0.386391
	H349	H	0.458267	0.380809	0.398181
	H350	H	0.464480	0.387391	0.380761
	O351	O	0.620506	0.433886	0.431300
	H352	H	0.625018	0.434874	0.432598
	H353	H	0.618735	0.439106	0.437209
	O354	O	0.012981	0.959468	-0.055769
	H355	H	0.007791	0.970157	-0.061945
	H356	H	0.010019	0.958411	-0.057205
	O357	O	0.479855	0.390894	0.658238
	H358	H	0.498507	0.391479	0.649201
	H359	H	0.480512	0.379509	0.682031
	O360	O	1.049967	0.128064	1.110375
	H361	H	1.054881	0.129176	1.114581
	H362	H	1.053755	0.128967	1.101693
	O363	O	0.517905	0.499584	0.579041
	H364	H	0.520259	0.498621	0.574789
	H365	H	0.529539	0.497151	0.570150
	O366	O	1.080513	1.005247	-0.083695
	H367	H	1.081569	1.013648	-0.084217
	H368	H	1.071795	1.003513	-0.092308
	O369	O	1.002039	-0.092311	-0.003162
	H370	H	1.001713	-0.104878	-0.001464
	H371	H	1.001929	-0.095948	-0.001663
	O372	O	0.549539	0.558813	0.663132
	H373	H	0.548456	0.556466	0.665538
	H374	H	0.562288	0.556476	0.664565
	O375	O	0.858173	-0.038635	1.051790
	H376	H	0.861410	-0.041660	1.067178
	H377	H	0.847924	-0.031601	1.058217
	O378	O	-0.046918	1.091103	0.023545
	H379	H	-0.033738	1.089645	0.029337
	H380	H	-0.048586	1.091499	0.022156
	O381	O	0.479297	0.528040	0.484503
	H382	H	0.483537	0.523850	0.475931
	H383	H	0.491243	0.543309	0.488082
	O384	O	0.976604	1.038551	-0.013349
	H385	H	0.971833	1.030041	-0.023362
	H386	H	0.976507	1.022131	-0.009454
	O387	O	1.087340	0.018272	0.905164
	H388	H	1.091270	0.014246	0.897178
	H389	H	1.081248	0.026742	0.904749
	O390	O	0.936735	1.014029	-0.041377
	H391	H	0.951906	1.002537	-0.047164
	H392	H	0.931981	1.004424	-0.035102
	O393	O	0.441905	0.569584	0.565773
	H394	H	0.436450	0.566342	0.566950
	H395	H	0.438257	0.561004	0.559664
