data_Molecule from HDF5

_cell_length_a		16.134318
_cell_length_b		16.270665
_cell_length_c		16.385504
_cell_angle_alpha	89.927903
_cell_angle_beta	90.172767
_cell_angle_gamma	90.111313
_symmetry_space_group_name_H-M	'P 1'
_symmetry_Int_Tables_number		1

loop_
	_symmetry_equiv_pos_as_xyz
	x,y,z

loop_
	_atom_site_label
	_atom_site_type_symbol
	_atom_site_fract_x
	_atom_site_fract_y
	_atom_site_fract_z
	H0	H	0.390723	0.838893	0.717056
	H1	H	0.598476	0.162474	0.717595
	H2	H	0.598704	0.838526	0.280760
	H3	H	0.392340	0.162414	0.278194
	H4	H	0.709116	0.402737	0.837407
	H5	H	0.711046	0.599384	0.162448
	H6	H	0.278538	0.599834	0.837653
	H7	H	0.279698	0.399852	0.162550
	H8	H	0.829854	0.715342	0.402014
	H9	H	0.159390	0.718070	0.601005
	H10	H	0.830985	0.288223	0.597986
	H11	H	0.158487	0.286271	0.398842
	H12	H	0.832467	0.401642	0.715449
	H13	H	0.158864	0.605471	0.718271
	H14	H	0.831768	0.604969	0.282031
	H15	H	0.159093	0.401458	0.284203
	H16	H	0.390787	0.718449	0.839440
	H17	H	0.597274	0.717775	0.161945
	H18	H	0.596439	0.284024	0.837999
	H19	H	0.395055	0.282569	0.161982
	H20	H	0.708009	0.836816	0.403148
	H21	H	0.708513	0.164944	0.596366
	H22	H	0.279817	0.838159	0.596501
	H23	H	0.281340	0.165468	0.398308
	H24	H	0.893344	0.339512	0.218600
	H25	H	0.098481	0.664384	0.217274
	H26	H	0.098560	0.340574	0.780719
	H27	H	0.892864	0.664309	0.781686
	H28	H	0.209861	0.903891	0.336482
	H29	H	0.214700	0.104653	0.660400
	H30	H	0.780702	0.099237	0.337080
	H31	H	0.780414	0.901947	0.662553
	H32	H	0.330951	0.215378	0.898723
	H33	H	0.660756	0.214923	0.098858
	H34	H	0.331051	0.785162	0.098493
	H35	H	0.659879	0.785997	0.901485
	H36	H	0.332083	0.897564	0.215896
	H37	H	0.659094	0.101989	0.215876
	H38	H	0.331071	0.100967	0.782877
	H39	H	0.659094	0.899276	0.784142
	H40	H	0.892751	0.219988	0.338306
	H41	H	0.096876	0.219528	0.660720
	H42	H	0.096902	0.784351	0.338254
	H43	H	0.893922	0.784500	0.661357
	H44	H	0.207252	0.337167	0.902849
	H45	H	0.211928	0.664856	0.098595
	H46	H	0.782042	0.336517	0.097728
	H47	H	0.780007	0.665110	0.901602
	H48	H	0.399649	0.118543	0.589335
	H49	H	0.586198	0.883755	0.594643
	H50	H	0.581439	0.115536	0.404691
	H51	H	0.399768	0.884673	0.409183
	H52	H	0.587325	0.398744	0.117638
	H53	H	0.591854	0.596199	0.882612
	H54	H	0.396910	0.595148	0.118425
	H55	H	0.401474	0.392779	0.880640
	H56	H	0.116441	0.597219	0.395842
	H57	H	0.877523	0.596602	0.591016
	H58	H	0.111009	0.411818	0.586386
	H59	H	0.877431	0.408954	0.408601
	H60	H	0.113140	0.415565	0.595032
	H61	H	0.879744	0.589983	0.588464
	H62	H	0.112165	0.603570	0.418097
	H63	H	0.878774	0.412814	0.409982
	H64	H	0.405266	0.585126	0.112198
	H65	H	0.586476	0.587412	0.886463
	H66	H	0.594482	0.409617	0.117377
	H67	H	0.388990	0.415701	0.883601
	H68	H	0.588795	0.115756	0.409726
	H69	H	0.585077	0.885597	0.591590
	H70	H	0.408265	0.118514	0.597950
	H71	H	0.404088	0.883985	0.401736
	H72	H	0.903534	0.616410	0.087966
	H73	H	0.085677	0.386752	0.089918
	H74	H	0.080879	0.614861	0.912298
	H75	H	0.905490	0.386122	0.904852
	H76	H	0.084426	0.904452	0.615412
	H77	H	0.087283	0.092966	0.385239
	H78	H	0.899376	0.094904	0.616244
	H79	H	0.901145	0.911641	0.385004
	H80	H	0.612736	0.098093	0.912245
	H81	H	0.382322	0.085822	0.084982
	H82	H	0.611013	0.914803	0.091074
	H83	H	0.376435	0.902808	0.907921
	H84	H	0.614841	0.906861	0.094695
	H85	H	0.376965	0.089048	0.097551
	H86	H	0.609755	0.084989	0.909267
	H87	H	0.381438	0.912410	0.913205
	H88	H	0.905274	0.092794	0.613787
	H89	H	0.084261	0.096376	0.384343
	H90	H	0.094268	0.912599	0.615575
	H91	H	0.905902	0.906973	0.384920
	H92	H	0.093258	0.618119	0.911167
	H93	H	0.090677	0.384221	0.095084
	H94	H	0.902083	0.618760	0.093791
	H95	H	0.904372	0.386116	0.907920
	H96	H	0.411174	0.114282	0.587147
	H97	H	0.589093	0.883046	0.592572
	H98	H	0.589257	0.119826	0.401656
	H99	H	0.407874	0.886858	0.408300
	H100	H	0.581642	0.409631	0.113118
	H101	H	0.581163	0.596478	0.884885
	H102	H	0.411092	0.598069	0.115344
	H103	H	0.414783	0.413209	0.890250
	H104	H	0.107565	0.580963	0.410772
	H105	H	0.877680	0.591242	0.595130
	H106	H	0.114845	0.406404	0.593051
	H107	H	0.878237	0.412574	0.405876
	H108	H	0.907936	0.615938	0.091756
	H109	H	0.083702	0.385721	0.096905
	H110	H	0.085448	0.619380	0.901862
	H111	H	0.902031	0.384804	0.905564
	H112	H	0.082463	0.915476	0.610921
	H113	H	0.089014	0.096194	0.382923
	H114	H	0.904788	0.098756	0.616184
	H115	H	0.900813	0.905436	0.383005
	H116	H	0.614888	0.092980	0.899036
	H117	H	0.377199	0.098563	0.086749
	H118	H	0.611198	0.907294	0.085822
	H119	H	0.376652	0.912548	0.902128
	C120	C	0.374419	0.009846	0.620801
	C121	C	0.616860	0.992025	0.621543
	C122	C	0.616458	0.009299	0.377168
	C123	C	0.374331	0.993160	0.376672
	C124	C	0.616848	0.378146	0.008397
	C125	C	0.616571	0.622452	0.991826
	C126	C	0.373527	0.622111	0.008665
	C127	C	0.372756	0.377432	0.991900
	C128	C	0.003755	0.623631	0.378592
	C129	C	0.986857	0.623416	0.621527
	C130	C	0.004425	0.381751	0.620665
	C131	C	0.986571	0.381441	0.378289
	C132	C	0.874345	0.509289	0.121266
	C133	C	0.117273	0.493193	0.122536
	C134	C	0.116602	0.510328	0.878901
	C135	C	0.873612	0.493188	0.877253
	C136	C	0.116991	0.880744	0.507537
	C137	C	0.117893	0.125334	0.490667
	C138	C	0.873429	0.124432	0.508054
	C139	C	0.873339	0.878930	0.491316
	C140	C	0.504010	0.121518	0.877676
	C141	C	0.487413	0.120812	0.119309
	C142	C	0.503920	0.879267	0.120288
	C143	C	0.486556	0.879064	0.878447
	C144	C	0.372721	0.887498	0.677652
	C145	C	0.617274	0.114084	0.678557
	C146	C	0.616465	0.886818	0.320605
	C147	C	0.373949	0.114592	0.318265
	C148	C	0.671986	0.381359	0.886009
	C149	C	0.673189	0.620273	0.113838
	C150	C	0.316395	0.620336	0.886386
	C151	C	0.317666	0.379341	0.114119
	C152	C	0.879565	0.678630	0.380822
	C153	C	0.110147	0.680499	0.621116
	C154	C	0.880655	0.325798	0.618505
	C155	C	0.109650	0.324673	0.379239
	C156	C	0.881287	0.382180	0.676954
	C157	C	0.109959	0.624337	0.679214
	C158	C	0.880575	0.623731	0.321151
	C159	C	0.109772	0.381840	0.322173
	C160	C	0.372461	0.679206	0.887189
	C161	C	0.616621	0.679221	0.113411
	C162	C	0.615595	0.322482	0.886461
	C163	C	0.374919	0.320848	0.113446
	C164	C	0.671334	0.885876	0.381219
	C165	C	0.671851	0.115457	0.617854
	C166	C	0.317505	0.887163	0.617717
	C167	C	0.318669	0.116014	0.378023
	C168	C	0.874256	0.387673	0.179120
	C169	C	0.117494	0.615854	0.178728
	C170	C	0.116746	0.388416	0.820958
	C171	C	0.873907	0.615756	0.820829
	C172	C	0.172166	0.882964	0.385298
	C173	C	0.175598	0.123887	0.612051
	C174	C	0.817815	0.120960	0.385813
	C175	C	0.818014	0.881439	0.613828
	C176	C	0.380210	0.177296	0.879076
	C177	C	0.611222	0.177216	0.118615
	C178	C	0.380405	0.822706	0.118843
	C179	C	0.610479	0.823394	0.881047
	C180	C	0.380928	0.878712	0.177187
	C181	C	0.610611	0.121108	0.176697
	C182	C	0.380218	0.120527	0.821268
	C183	C	0.610002	0.879672	0.822513
	C184	C	0.873885	0.180599	0.386384
	C185	C	0.117189	0.181262	0.612303
	C186	C	0.115943	0.823373	0.386344
	C187	C	0.874673	0.823131	0.613315
	C188	C	0.170738	0.386634	0.881849
	C189	C	0.174068	0.616012	0.120039
	C190	C	0.818974	0.385996	0.118840
	C191	C	0.817389	0.616046	0.880097
	C192	C	0.399235	0.095082	0.598171
	C193	C	0.593578	0.906248	0.599394
	C194	C	0.593229	0.094714	0.398929
	C195	C	0.397300	0.907494	0.399740
	C196	C	0.594474	0.399820	0.093752
	C197	C	0.593313	0.599947	0.906747
	C198	C	0.397287	0.599220	0.093271
	C199	C	0.394970	0.400595	0.907039
	C200	C	0.089837	0.600552	0.401544
	C201	C	0.900876	0.599527	0.598271
	C202	C	0.090709	0.404678	0.598074
	C203	C	0.900437	0.404759	0.401379
	C204	C	0.897719	0.594790	0.097936
	C205	C	0.093574	0.407920	0.100365
	C206	C	0.093368	0.595445	0.901793
	C207	C	0.897218	0.407930	0.899547
	C208	C	0.093899	0.904110	0.592056
	C209	C	0.093867	0.101946	0.406154
	C210	C	0.896620	0.102116	0.593328
	C211	C	0.895815	0.901419	0.406337
	C212	C	0.590178	0.098609	0.900149
	C213	C	0.401232	0.097816	0.096426
	C214	C	0.590048	0.902948	0.097242
	C215	C	0.400569	0.902517	0.901019
	Zn216	Zn	0.495087	0.000141	0.749914
	Zn217	Zn	0.495216	0.000618	0.247693
	Zn218	Zn	0.745519	0.500587	-0.000110
	Zn219	Zn	0.244902	0.500662	0.000408
	Zn220	Zn	-0.004919	0.751031	0.500473
	Zn221	Zn	-0.004795	0.253824	0.499197
	Zn222	Zn	-0.003732	0.502581	0.749155
	Zn223	Zn	-0.004643	0.502431	0.250688
	Zn224	Zn	0.494786	0.751248	-0.000162
	Zn225	Zn	0.495493	0.249084	-0.000372
	Zn226	Zn	0.745057	0.001202	0.499655
	Zn227	Zn	0.246443	0.002560	0.498506
	N228	N	0.407453	0.964825	0.679580
	N229	N	0.583629	0.036339	0.680799
	N230	N	0.583008	0.964524	0.318010
	N231	N	0.407714	0.037116	0.317253
	N232	N	0.673151	0.414997	0.963011
	N233	N	0.673393	0.585749	0.037279
	N234	N	0.317034	0.585345	0.962855
	N235	N	0.315949	0.413663	0.037403
	N236	N	0.957120	0.678871	0.415762
	N237	N	0.032524	0.680098	0.586116
	N238	N	0.958445	0.325252	0.584311
	N239	N	0.031930	0.324217	0.413378
	N240	N	0.959220	0.416242	0.678425
	N241	N	0.032191	0.589813	0.679764
	N242	N	0.958837	0.590248	0.319658
	N243	N	0.032060	0.416347	0.321497
	N244	N	0.407150	0.680562	0.963859
	N245	N	0.582144	0.680646	0.036483
	N246	N	0.582365	0.320181	0.963622
	N247	N	0.408261	0.319413	0.036319
	N248	N	0.671595	0.962902	0.415618
	N249	N	0.671700	0.038539	0.583211
	N250	N	0.318389	0.964226	0.583118
	N251	N	0.318948	0.039482	0.413799
	N252	N	0.907893	0.465417	0.180603
	N253	N	0.082858	0.538480	0.180444
	N254	N	0.083695	0.466225	0.819131
	N255	N	0.908178	0.538361	0.818920
	N256	N	0.172765	0.918272	0.461414
	N257	N	0.176206	0.089984	0.535333
	N258	N	0.817451	0.086725	0.462511
	N259	N	0.816842	0.915514	0.536928
	N260	N	0.458165	0.178296	0.913156
	N261	N	0.533643	0.177028	0.083611
	N262	N	0.458009	0.823001	0.084160
	N263	N	0.532415	0.822535	0.914739
	N264	N	0.458759	0.913219	0.178057
	N265	N	0.532756	0.086607	0.177066
	N266	N	0.458227	0.086659	0.820046
	N267	N	0.532045	0.913433	0.820782
	N268	N	0.907616	0.182861	0.463495
	N269	N	0.081913	0.182263	0.535857
	N270	N	0.082424	0.821957	0.463448
	N271	N	0.908376	0.821646	0.536385
	N272	N	0.170986	0.463326	0.917183
	N273	N	0.173863	0.539003	0.085804
	N274	N	0.819028	0.462697	0.083655
	N275	N	0.817160	0.538928	0.914569
	O276	O	1.052292	0.083697	1.132983
	H277	H	1.053249	0.081854	1.132781
	H278	H	1.054204	0.085870	1.136766
	O279	O	0.551355	0.442594	0.502001
	H280	H	0.550107	0.436706	0.504111
	H281	H	0.547307	0.450404	0.494163
	O282	O	0.362680	0.508662	0.460804
	H283	H	0.354659	0.515409	0.459424
	H284	H	0.364644	0.516912	0.460238
	O285	O	0.368757	0.597761	0.521898
	H286	H	0.373494	0.588382	0.525879
	H287	H	0.364739	0.601571	0.528006
	O288	O	0.493103	0.371262	0.689309
	H289	H	0.499261	0.369955	0.692387
	H290	H	0.476508	0.383230	0.693455
	O291	O	-0.061822	-0.000858	1.010897
	H292	H	-0.062083	0.001518	1.001281
	H293	H	-0.060397	-0.005703	1.002803
	O294	O	1.056328	1.109752	0.102756
	H295	H	1.049496	1.114729	0.114009
	H296	H	1.055591	1.112545	0.109582
	O297	O	0.989331	0.998695	0.004121
	H298	H	0.976368	0.993448	0.005334
	H299	H	0.979435	0.989622	0.006695
	O300	O	0.465415	0.519413	0.381238
	H301	H	0.451818	0.529826	0.382145
	H302	H	0.444646	0.519417	0.376370
	O303	O	1.065910	0.004884	0.973665
	H304	H	1.059355	0.009391	0.973824
	H305	H	1.056504	0.010545	0.965535
	O306	O	0.537228	0.420901	0.551802
	H307	H	0.544758	0.429479	0.554315
	H308	H	0.527170	0.420655	0.553798
	O309	O	0.421322	0.559152	0.442947
	H310	H	0.421922	0.560819	0.443127
	H311	H	0.416678	0.567782	0.451748
	O312	O	0.538475	1.613942	0.545409
	H313	H	0.537968	1.623502	0.541158
	H314	H	0.547941	1.614841	0.544187
	O315	O	0.937466	1.079363	-0.098331
	H316	H	0.937607	1.094075	-0.097536
	H317	H	0.944868	1.093075	-0.108381
	O318	O	0.580773	0.673183	0.527867
	H319	H	0.584137	0.676916	0.519630
	H320	H	0.582850	0.670218	0.515528
	O321	O	0.614633	0.431676	0.497167
	H322	H	0.609984	0.429836	0.485984
	H323	H	0.614934	0.428716	0.500233
	O324	O	0.079162	0.926422	1.026924
	H325	H	0.075081	0.920600	1.020260
	H326	H	0.080534	0.942211	1.014595
	O327	O	0.109719	0.923288	0.993587
	H328	H	0.115130	0.921457	0.977349
	H329	H	0.111124	0.927913	0.992611
	O330	O	-0.037350	0.054695	-0.011790
	H331	H	-0.044431	0.057115	-0.020300
	H332	H	-0.021781	0.046538	-0.006336
	O333	O	0.355976	0.565571	0.505609
	H334	H	0.360527	0.567425	0.517760
	H335	H	0.346003	0.577500	0.502831
	O336	O	-0.075847	-0.060425	0.056984
	H337	H	-0.065491	-0.054215	0.064651
	H338	H	-0.081677	-0.074685	0.042432
	O339	O	0.051924	-0.016132	-0.058266
	H340	H	0.072643	-0.017556	-0.072798
	H341	H	0.032630	-0.023791	-0.060513
	O342	O	0.512650	0.534475	0.441231
	H343	H	0.526226	0.519818	0.429304
	H344	H	0.506791	0.528305	0.437284
	O345	O	-0.047691	1.024336	0.933466
	H346	H	-0.042875	1.024183	0.920124
	H347	H	-0.057555	1.031451	0.934949
	O348	O	0.559111	0.472120	0.336549
	H349	H	0.566134	0.470925	0.325968
	H350	H	0.558724	0.462081	0.349444
	O351	O	0.470136	0.313251	0.545773
	H352	H	0.477487	0.311663	0.542915
	H353	H	0.464278	0.302372	0.550632
	O354	O	-0.015148	1.167953	0.026944
	H355	H	-0.021979	1.169384	0.018092
	H356	H	0.003414	1.172150	0.042709
	O357	O	0.573902	0.369052	0.486793
	H358	H	0.571731	0.360570	0.498376
	H359	H	0.568245	0.364033	0.479247
	O360	O	0.940742	-0.105919	1.026375
	H361	H	0.941767	-0.104143	1.031179
	H362	H	0.939738	-0.121995	1.029981
	O363	O	0.486980	0.486194	0.557858
	H364	H	0.482420	0.486054	0.555946
	H365	H	0.483431	0.491076	0.562217
	O366	O	0.714768	0.617171	0.488109
	H367	H	0.724690	0.619057	0.490061
	H368	H	0.710539	0.606241	0.479236
	O369	O	1.007967	-0.041609	-0.024700
	H370	H	1.006532	-0.037801	-0.039513
	H371	H	0.999588	-0.044954	-0.030856
	O372	O	0.350137	0.455767	0.453499
	H373	H	0.357274	0.458315	0.447354
	H374	H	0.327666	0.449201	0.445840
	O375	O	0.970681	0.010563	0.991953
	H376	H	0.963666	0.001925	0.989595
	H377	H	0.980622	0.012607	0.994238
	O378	O	-0.026506	0.945804	0.018519
	H379	H	-0.023145	0.947934	0.026677
	H380	H	-0.037490	0.946470	0.018844
	O381	O	0.513861	0.632450	0.610900
	H382	H	0.535818	0.631785	0.602831
	H383	H	0.517065	0.639604	0.627431
	O384	O	0.892822	1.000232	-0.112683
	H385	H	0.902025	0.998794	-0.100382
	H386	H	0.880797	1.008010	-0.106538
	O387	O	1.099731	0.027395	1.001453
	H388	H	1.092946	0.025355	1.021104
	H389	H	1.102502	0.044961	1.003204
	O390	O	0.906936	1.003468	0.040713
	H391	H	0.898802	1.001067	0.036270
	H392	H	0.907981	0.994407	0.039983
	O393	O	0.505679	0.474020	0.532363
	H394	H	0.512035	0.460907	0.515934
	H395	H	0.498839	0.488495	0.534391
