data_Molecule from HDF5

_cell_length_a		16.457110
_cell_length_b		16.051626
_cell_length_c		16.333360
_cell_angle_alpha	89.842840
_cell_angle_beta	89.896264
_cell_angle_gamma	89.627939
_symmetry_space_group_name_H-M	'P 1'
_symmetry_Int_Tables_number		1

loop_
	_symmetry_equiv_pos_as_xyz
	x,y,z

loop_
	_atom_site_label
	_atom_site_type_symbol
	_atom_site_fract_x
	_atom_site_fract_y
	_atom_site_fract_z
	H0	H	0.405189	0.832131	0.711273
	H1	H	0.598926	0.163325	0.710575
	H2	H	0.603234	0.834933	0.280527
	H3	H	0.398719	0.163045	0.282095
	H4	H	0.722708	0.392639	0.835460
	H5	H	0.722220	0.606471	0.154577
	H6	H	0.281666	0.606275	0.834231
	H7	H	0.283558	0.396770	0.155815
	H8	H	0.840471	0.714981	0.396754
	H9	H	0.164259	0.711347	0.592858
	H10	H	0.839143	0.283706	0.594040
	H11	H	0.164357	0.283226	0.398506
	H12	H	0.841900	0.394410	0.716238
	H13	H	0.162611	0.598657	0.712843
	H14	H	0.842576	0.605812	0.274756
	H15	H	0.162564	0.396260	0.277200
	H16	H	0.404990	0.714216	0.831666
	H17	H	0.596988	0.710881	0.158766
	H18	H	0.600921	0.284172	0.832398
	H19	H	0.403948	0.285898	0.158250
	H20	H	0.718561	0.834971	0.395219
	H21	H	0.716660	0.162604	0.598469
	H22	H	0.286230	0.832580	0.601243
	H23	H	0.283649	0.161849	0.396462
	H24	H	0.903330	0.334002	0.210273
	H25	H	0.100980	0.664018	0.210073
	H26	H	0.103273	0.333317	0.781247
	H27	H	0.900673	0.662749	0.778698
	H28	H	0.222534	0.893120	0.336502
	H29	H	0.217752	0.099090	0.658444
	H30	H	0.780098	0.105445	0.335829
	H31	H	0.782776	0.893050	0.656709
	H32	H	0.338736	0.214842	0.899009
	H33	H	0.662643	0.215292	0.096096
	H34	H	0.338121	0.784318	0.095080
	H35	H	0.663902	0.784213	0.898653
	H36	H	0.340216	0.896073	0.216406
	H37	H	0.660616	0.102389	0.217239
	H38	H	0.339679	0.101335	0.778293
	H39	H	0.661784	0.893478	0.778135
	H40	H	0.904335	0.212770	0.331737
	H41	H	0.098125	0.211976	0.659599
	H42	H	0.099344	0.786515	0.331817
	H43	H	0.905264	0.784336	0.658472
	H44	H	0.218739	0.334535	0.894372
	H45	H	0.216072	0.663993	0.094985
	H46	H	0.784471	0.335847	0.099593
	H47	H	0.784049	0.662695	0.891587
	H48	H	0.414438	0.113303	0.590068
	H49	H	0.601032	0.878717	0.586324
	H50	H	0.585608	0.112989	0.410774
	H51	H	0.414492	0.882311	0.411284
	H52	H	0.599798	0.412578	0.111297
	H53	H	0.601789	0.585842	0.877726
	H54	H	0.409262	0.593988	0.110850
	H55	H	0.406237	0.408430	0.877562
	H56	H	0.116036	0.583681	0.396945
	H57	H	0.887373	0.588938	0.588230
	H58	H	0.118200	0.404185	0.593124
	H59	H	0.885623	0.404770	0.400187
	H60	H	0.115810	0.402766	0.583085
	H61	H	0.887516	0.590670	0.588531
	H62	H	0.120641	0.595799	0.396698
	H63	H	0.889045	0.408198	0.405511
	H64	H	0.401100	0.590142	0.112102
	H65	H	0.588365	0.585625	0.883423
	H66	H	0.588597	0.412389	0.107811
	H67	H	0.408600	0.412876	0.880346
	H68	H	0.596963	0.116972	0.410232
	H69	H	0.591190	0.879365	0.593497
	H70	H	0.406644	0.112582	0.580159
	H71	H	0.406849	0.879893	0.409053
	H72	H	0.909723	0.615128	0.079091
	H73	H	0.090425	0.385624	0.076827
	H74	H	0.093631	0.617286	0.901666
	H75	H	0.915773	0.380625	0.900538
	H76	H	0.101452	0.908646	0.613198
	H77	H	0.093057	0.080593	0.384479
	H78	H	0.906856	0.084718	0.609878
	H79	H	0.908828	0.906260	0.378994
	H80	H	0.615781	0.090803	0.903460
	H81	H	0.386874	0.090563	0.090595
	H82	H	0.612498	0.912730	0.088673
	H83	H	0.387634	0.909888	0.905164
	H84	H	0.616451	0.905316	0.095720
	H85	H	0.386136	0.091878	0.089802
	H86	H	0.614338	0.087433	0.903311
	H87	H	0.385187	0.908430	0.899942
	H88	H	0.911717	0.090388	0.610173
	H89	H	0.088553	0.093455	0.380641
	H90	H	0.089454	0.910565	0.609326
	H91	H	0.905196	0.911515	0.379304
	H92	H	0.090428	0.616707	0.901732
	H93	H	0.103680	0.379158	0.086642
	H94	H	0.906126	0.618229	0.085758
	H95	H	0.915404	0.384936	0.912112
	H96	H	0.402508	0.118359	0.591226
	H97	H	0.590915	0.883478	0.581645
	H98	H	0.589761	0.117726	0.400201
	H99	H	0.413548	0.880249	0.403681
	H100	H	0.593146	0.402082	0.112745
	H101	H	0.593587	0.597984	0.876716
	H102	H	0.407799	0.584862	0.108737
	H103	H	0.411745	0.407609	0.879276
	H104	H	0.115503	0.591787	0.407140
	H105	H	0.888354	0.590023	0.587070
	H106	H	0.113478	0.411976	0.588070
	H107	H	0.887071	0.411381	0.399339
	H108	H	0.914357	0.615929	0.086842
	H109	H	0.087684	0.381118	0.093735
	H110	H	0.092620	0.616333	0.904062
	H111	H	0.905173	0.379493	0.906978
	H112	H	0.093749	0.898906	0.613712
	H113	H	0.102044	0.089323	0.378285
	H114	H	0.904842	0.091732	0.612428
	H115	H	0.911156	0.911513	0.381618
	H116	H	0.615817	0.088964	0.900435
	H117	H	0.387280	0.090786	0.088674
	H118	H	0.614707	0.902196	0.084541
	H119	H	0.385703	0.904353	0.903843
	C120	C	0.379647	0.005845	0.617893
	C121	C	0.622816	0.989488	0.617378
	C122	C	0.621476	0.007543	0.376221
	C123	C	0.380656	0.989404	0.377500
	C124	C	0.624130	0.377351	0.003956
	C125	C	0.622755	0.619793	0.986776
	C126	C	0.377989	0.621216	0.003690
	C127	C	0.379418	0.378618	0.985929
	C128	C	0.010503	0.621327	0.371640
	C129	C	0.993939	0.619579	0.617151
	C130	C	0.009629	0.376220	0.617595
	C131	C	0.993398	0.377020	0.372781
	C132	C	0.880335	0.508026	0.115659
	C133	C	0.122623	0.490888	0.115268
	C134	C	0.122706	0.507469	0.873888
	C135	C	0.880984	0.489917	0.874839
	C136	C	0.124691	0.875612	0.504949
	C137	C	0.123041	0.118147	0.488065
	C138	C	0.878650	0.120371	0.504157
	C139	C	0.879776	0.877891	0.487026
	C140	C	0.508958	0.120317	0.873661
	C141	C	0.493034	0.121235	0.119124
	C142	C	0.508505	0.876498	0.119182
	C143	C	0.493087	0.876983	0.874274
	C144	C	0.383185	0.881608	0.674106
	C145	C	0.619859	0.113694	0.673074
	C146	C	0.622386	0.884020	0.318894
	C147	C	0.379873	0.113327	0.320304
	C148	C	0.682657	0.375078	0.883321
	C149	C	0.681022	0.622452	0.107404
	C150	C	0.321397	0.623666	0.882087
	C151	C	0.322592	0.378141	0.107704
	C152	C	0.889138	0.677587	0.375135
	C153	C	0.115678	0.674139	0.613907
	C154	C	0.887956	0.320616	0.615433
	C155	C	0.115280	0.320516	0.376455
	C156	C	0.889241	0.375701	0.675971
	C157	C	0.114623	0.618156	0.674010
	C158	C	0.890113	0.623100	0.314464
	C159	C	0.114580	0.376741	0.316212
	C160	C	0.382478	0.677545	0.880888
	C161	C	0.618976	0.674770	0.109449
	C162	C	0.621818	0.321125	0.881715
	C163	C	0.382488	0.323062	0.108995
	C164	C	0.679856	0.884139	0.375704
	C165	C	0.678561	0.113415	0.617356
	C166	C	0.324237	0.882073	0.619057
	C167	C	0.322512	0.112740	0.377247
	C168	C	0.882569	0.383688	0.172614
	C169	C	0.120863	0.614822	0.171821
	C170	C	0.122481	0.382865	0.818859
	C171	C	0.881407	0.613780	0.817300
	C172	C	0.182738	0.874827	0.384013
	C173	C	0.179089	0.118348	0.610175
	C174	C	0.820725	0.122636	0.383113
	C175	C	0.822444	0.875578	0.608486
	C176	C	0.387400	0.176886	0.877134
	C177	C	0.614220	0.177555	0.117025
	C178	C	0.386907	0.821213	0.116491
	C179	C	0.615063	0.821339	0.877728
	C180	C	0.387902	0.876946	0.176872
	C181	C	0.612990	0.121465	0.177430
	C182	C	0.387841	0.120296	0.817216
	C183	C	0.613841	0.875855	0.817340
	C184	C	0.882293	0.176148	0.381103
	C185	C	0.119521	0.174306	0.610668
	C186	C	0.121499	0.821736	0.381820
	C187	C	0.883243	0.821007	0.609264
	C188	C	0.180122	0.383740	0.874992
	C189	C	0.178288	0.614713	0.114742
	C190	C	0.823427	0.384642	0.117646
	C191	C	0.822973	0.613355	0.872985
	C192	C	0.401478	0.092222	0.594100
	C193	C	0.600760	0.903015	0.594098
	C194	C	0.597687	0.093579	0.400096
	C195	C	0.404797	0.903071	0.401085
	C196	C	0.600621	0.401808	0.088706
	C197	C	0.600982	0.596656	0.901622
	C198	C	0.399778	0.596918	0.088460
	C199	C	0.402114	0.402671	0.901008
	C200	C	0.095513	0.597325	0.393620
	C201	C	0.909510	0.596618	0.594554
	C202	C	0.093804	0.399523	0.594824
	C203	C	0.909002	0.401111	0.395099
	C204	C	0.903211	0.593921	0.091202
	C205	C	0.100464	0.404480	0.092273
	C206	C	0.099082	0.594139	0.895975
	C207	C	0.905111	0.403986	0.899340
	C208	C	0.101734	0.899012	0.590113
	C209	C	0.101154	0.094546	0.403185
	C210	C	0.901131	0.095918	0.588810
	C211	C	0.902013	0.902747	0.401902
	C212	C	0.593392	0.096224	0.895985
	C213	C	0.408596	0.097894	0.096291
	C214	C	0.592795	0.899856	0.096260
	C215	C	0.408162	0.900756	0.896393
	Zn216	Zn	0.501032	-0.002427	0.744307
	Zn217	Zn	0.500518	-0.001347	0.248945
	Zn218	Zn	0.752264	0.499619	-0.004989
	Zn219	Zn	0.250124	0.499533	-0.005858
	Zn220	Zn	0.002042	0.749295	0.494903
	Zn221	Zn	0.001185	0.247734	0.495527
	Zn222	Zn	0.001588	0.497624	0.747325
	Zn223	Zn	0.001394	0.499571	0.242968
	Zn224	Zn	0.501222	0.748058	-0.004304
	Zn225	Zn	0.501588	0.250715	-0.004195
	Zn226	Zn	0.750164	-0.001241	0.496135
	Zn227	Zn	0.252328	-0.003478	0.497420
	N228	N	0.417075	0.959541	0.673354
	N229	N	0.586054	0.035580	0.673252
	N230	N	0.587032	0.961671	0.319105
	N231	N	0.415436	0.035542	0.320501
	N232	N	0.684198	0.409398	0.960419
	N233	N	0.683293	0.588716	0.030057
	N234	N	0.318429	0.589503	0.959264
	N235	N	0.320501	0.411866	0.030178
	N236	N	0.965110	0.676854	0.409794
	N237	N	0.039616	0.675093	0.579195
	N238	N	0.963702	0.320878	0.579930
	N239	N	0.038981	0.320608	0.410961
	N240	N	0.965872	0.409361	0.677704
	N241	N	0.037877	0.584826	0.676056
	N242	N	0.966758	0.588556	0.312454
	N243	N	0.037809	0.410926	0.313621
	N244	N	0.416968	0.676351	0.957512
	N245	N	0.583579	0.673614	0.033435
	N246	N	0.586128	0.322375	0.957973
	N247	N	0.416933	0.323086	0.032292
	N248	N	0.680007	0.962304	0.410170
	N249	N	0.680644	0.034971	0.583580
	N250	N	0.322018	0.960513	0.584901
	N251	N	0.322580	0.034479	0.411833
	N252	N	0.916925	0.461656	0.171977
	N253	N	0.086856	0.536685	0.172341
	N254	N	0.087560	0.460935	0.817906
	N255	N	0.916698	0.535813	0.818178
	N256	N	0.184669	0.907608	0.461626
	N257	N	0.181520	0.084121	0.533051
	N258	N	0.818262	0.088788	0.460557
	N259	N	0.820241	0.910359	0.531407
	N260	N	0.463636	0.176974	0.911428
	N261	N	0.538533	0.177480	0.081388
	N262	N	0.462905	0.820777	0.081274
	N263	N	0.538906	0.821769	0.912383
	N264	N	0.464478	0.910711	0.178512
	N265	N	0.536549	0.087505	0.178893
	N266	N	0.464520	0.085816	0.814721
	N267	N	0.536807	0.909753	0.815153
	N268	N	0.917362	0.175102	0.457487
	N269	N	0.085404	0.174473	0.533800
	N270	N	0.086241	0.821923	0.458172
	N271	N	0.918177	0.822361	0.532709
	N272	N	0.180495	0.462355	0.908221
	N273	N	0.179346	0.536610	0.080435
	N274	N	0.821950	0.462802	0.082881
	N275	N	0.822473	0.535359	0.908077
	O276	O	0.142534	-0.000075	-0.063543
	H277	H	0.146470	-0.009950	-0.055121
	H278	H	0.143844	-0.012377	-0.078537
	O279	O	0.384299	0.372576	0.583973
	H280	H	0.382885	0.371753	0.595274
	H281	H	0.373430	0.371084	0.593660
	O282	O	0.970557	-0.151175	-0.027097
	H283	H	0.963735	-0.134724	-0.036578
	H284	H	0.971873	-0.155159	-0.012429
	O285	O	-0.025777	0.994027	0.106359
	H286	H	-0.022131	0.998578	0.098014
	H287	H	-0.030950	0.996354	0.098754
	O288	O	0.917077	0.969137	-0.098211
	H289	H	0.925717	0.985736	-0.093536
	H290	H	0.928209	0.975104	-0.096881
	O291	O	0.595122	0.578684	0.615088
	H292	H	0.619362	0.578208	0.615750
	H293	H	0.583697	0.578419	0.619603
	O294	O	0.986817	0.964276	0.867157
	H295	H	0.979352	0.982465	0.873012
	H296	H	0.990609	0.973068	0.851069
	O297	O	0.030330	0.035555	-0.169045
	H298	H	0.043250	0.023353	-0.168306
	H299	H	0.035085	0.038349	-0.181695
	O300	O	0.504509	0.379935	0.502791
	H301	H	0.484499	0.375263	0.507115
	H302	H	0.506391	0.389267	0.511909
	O303	O	0.159257	0.948907	0.943667
	H304	H	0.148204	0.944374	0.950788
	H305	H	0.178584	0.942907	0.946310
	O306	O	0.444735	0.491847	0.440691
	H307	H	0.452082	0.489798	0.427855
	H308	H	0.446462	0.491743	0.443940
	O309	O	0.972165	0.042561	0.154482
	H310	H	0.982106	0.036383	0.144462
	H311	H	0.971062	0.055218	0.177009
	O312	O	0.042219	0.048353	1.048862
	H313	H	0.029105	0.037952	1.039819
	H314	H	0.039977	0.049841	1.066301
	O315	O	0.518153	0.427963	0.530531
	H316	H	0.513301	0.431894	0.539472
	H317	H	0.530734	0.436064	0.534447
	O318	O	0.603876	0.447722	0.348084
	H319	H	0.622336	0.438900	0.352862
	H320	H	0.599643	0.458501	0.348278
	O321	O	0.463559	0.525311	0.632694
	H322	H	0.476801	0.535199	0.638470
	H323	H	0.469539	0.519672	0.635772
	O324	O	0.495024	0.474696	0.664456
	H325	H	0.481492	0.472624	0.663005
	H326	H	0.507931	0.478541	0.660307
	O327	O	0.013192	0.930949	1.155121
	H328	H	0.012607	0.945822	1.160075
	H329	H	0.012504	0.935172	1.149569
	O330	O	0.579571	0.509445	0.411310
	H331	H	0.587918	0.522005	0.405661
	H332	H	0.565762	0.502492	0.414800
	O333	O	0.004164	0.970138	1.004196
	H334	H	0.010565	0.967239	0.988842
	H335	H	-0.000224	0.969327	1.005858
	O336	O	1.047452	1.029531	1.057277
	H337	H	1.044765	1.031973	1.071458
	H338	H	1.058560	1.025106	1.064922
	O339	O	0.518296	0.572217	0.390259
	H340	H	0.536176	0.573791	0.384445
	H341	H	0.511237	0.570475	0.393549
	O342	O	0.981716	-0.029159	-0.027455
	H343	H	0.976629	-0.037547	-0.021154
	H344	H	0.962025	-0.018363	-0.029633
	O345	O	0.438138	0.436266	0.590743
	H346	H	0.428706	0.435927	0.596009
	H347	H	0.431906	0.446436	0.588008
	O348	O	0.896782	1.154202	0.901288
	H349	H	0.889245	1.158099	0.892884
	H350	H	0.899948	1.156585	0.893830
	O351	O	0.549066	0.336236	0.540932
	H352	H	0.541255	0.324312	0.552368
	H353	H	0.544300	0.339220	0.537851
	O354	O	0.423687	0.494477	0.456328
	H355	H	0.405671	0.496203	0.465839
	H356	H	0.416566	0.475481	0.438601
	O357	O	0.513946	0.562506	0.448642
	H358	H	0.511987	0.556146	0.451200
	H359	H	0.521774	0.561876	0.450797
	O360	O	-0.151949	0.153774	-0.103775
	H361	H	-0.135958	0.139043	-0.092486
	H362	H	-0.157132	0.146319	-0.110417
	O363	O	0.531391	0.491054	0.504515
	H364	H	0.532871	0.511313	0.515215
	H365	H	0.518068	0.490490	0.514283
	O366	O	0.904702	0.203978	0.820762
	H367	H	0.907154	0.204127	0.828165
	H368	H	0.900013	0.204804	0.811887
	O369	O	0.532983	0.375159	0.359975
	H370	H	0.542961	0.380536	0.356835
	H371	H	0.530636	0.376468	0.354789
	O372	O	0.064925	1.106686	1.057386
	H373	H	0.067118	1.109912	1.074055
	H374	H	0.061332	1.114255	1.060475
	O375	O	0.446141	0.565524	0.414690
	H376	H	0.452016	0.561988	0.423071
	H377	H	0.439009	0.574225	0.398321
	O378	O	0.478886	0.437464	0.427125
	H379	H	0.478975	0.437918	0.432197
	H380	H	0.482126	0.431304	0.428061
	O381	O	0.551204	0.585776	0.408670
	H382	H	0.564754	0.576457	0.402019
	H383	H	0.569413	0.588864	0.399303
	O384	O	-0.073643	1.020740	-0.118774
	H385	H	-0.069483	1.027303	-0.118286
	H386	H	-0.077981	1.019509	-0.119031
	O387	O	0.901369	-0.130448	0.991100
	H388	H	0.896005	-0.128716	0.999219
	H389	H	0.900257	-0.115191	0.978214
	O390	O	0.144615	1.036829	0.024748
	H391	H	0.132547	1.036230	0.031741
	H392	H	0.147668	1.036034	0.025027
	O393	O	0.828412	0.741449	-0.277683
	H394	H	0.839792	0.742502	-0.260204
	H395	H	0.818103	0.747159	-0.268225
	O396	O	0.411173	0.557841	0.485909
	H397	H	0.413958	0.549130	0.486100
	H398	H	0.414623	0.563025	0.477485
	O399	O	-0.158897	0.915077	1.173903
	H400	H	-0.158963	0.914380	1.184137
	H401	H	-0.153726	0.918537	1.155814
	O402	O	1.030480	1.154938	1.081582
	H403	H	1.025699	1.148032	1.073380
	H404	H	1.032291	1.159480	1.071815
	O405	O	0.431601	0.534452	0.473817
	H406	H	0.414478	0.537712	0.459863
	H407	H	0.437460	0.547794	0.458227
