data_Molecule from HDF5

_cell_length_a		16.236771
_cell_length_b		16.343045
_cell_length_c		16.276904
_cell_angle_alpha	90.075748
_cell_angle_beta	89.951821
_cell_angle_gamma	89.874246
_symmetry_space_group_name_H-M	'P 1'
_symmetry_Int_Tables_number		1

loop_
	_symmetry_equiv_pos_as_xyz
	x,y,z

loop_
	_atom_site_label
	_atom_site_type_symbol
	_atom_site_fract_x
	_atom_site_fract_y
	_atom_site_fract_z
	H0	H	0.390250	0.832647	0.711755
	H1	H	0.585216	0.159314	0.712125
	H2	H	0.585892	0.832356	0.283353
	H3	H	0.389709	0.159679	0.283922
	H4	H	0.701064	0.399508	0.833945
	H5	H	0.701014	0.593857	0.161932
	H6	H	0.274528	0.592382	0.832819
	H7	H	0.273989	0.398733	0.161637
	H8	H	0.823689	0.711595	0.397628
	H9	H	0.151906	0.710826	0.595324
	H10	H	0.823510	0.282588	0.596582
	H11	H	0.150523	0.280279	0.397171
	H12	H	0.823367	0.399770	0.710890
	H13	H	0.152730	0.595025	0.711962
	H14	H	0.822982	0.594211	0.283150
	H15	H	0.151716	0.398406	0.283321
	H16	H	0.389022	0.710787	0.833399
	H17	H	0.586318	0.710850	0.161050
	H18	H	0.587221	0.281451	0.834407
	H19	H	0.389446	0.282235	0.161493
	H20	H	0.702124	0.833203	0.400003
	H21	H	0.700477	0.160025	0.594972
	H22	H	0.274232	0.832412	0.594646
	H23	H	0.275211	0.160263	0.401988
	H24	H	0.889338	0.332335	0.211809
	H25	H	0.085053	0.658770	0.212132
	H26	H	0.087073	0.332491	0.782437
	H27	H	0.889455	0.658825	0.783757
	H28	H	0.201581	0.898761	0.332875
	H29	H	0.200969	0.094565	0.661612
	H30	H	0.774602	0.093077	0.333441
	H31	H	0.774626	0.900329	0.661530
	H32	H	0.325213	0.211586	0.899049
	H33	H	0.652135	0.208879	0.095860
	H34	H	0.324293	0.782043	0.095663
	H35	H	0.653026	0.780560	0.898760
	H36	H	0.323053	0.899848	0.209981
	H37	H	0.651979	0.092333	0.211152
	H38	H	0.323185	0.092909	0.785738
	H39	H	0.652851	0.895979	0.781892
	H40	H	0.889396	0.210127	0.333364
	H41	H	0.085399	0.211376	0.660940
	H42	H	0.087337	0.780482	0.333409
	H43	H	0.887352	0.781207	0.660447
	H44	H	0.202995	0.331867	0.899382
	H45	H	0.201297	0.659279	0.095493
	H46	H	0.773394	0.332207	0.095476
	H47	H	0.773341	0.659122	0.900684
	H48	H	0.395524	0.110004	0.585064
	H49	H	0.580183	0.882028	0.585160
	H50	H	0.586603	0.113564	0.405398
	H51	H	0.391042	0.878587	0.402765
	H52	H	0.591257	0.401289	0.117585
	H53	H	0.585871	0.578699	0.882550
	H54	H	0.395173	0.593968	0.114598
	H55	H	0.383601	0.402882	0.877823
	H56	H	0.105690	0.593406	0.404707
	H57	H	0.869436	0.591874	0.595660
	H58	H	0.100260	0.413835	0.586376
	H59	H	0.871124	0.409289	0.400337
	H60	H	0.108734	0.400581	0.600932
	H61	H	0.870847	0.593185	0.587253
	H62	H	0.101550	0.585892	0.409112
	H63	H	0.867423	0.396759	0.401070
	H64	H	0.390580	0.589717	0.114819
	H65	H	0.568701	0.589132	0.884895
	H66	H	0.577126	0.410356	0.111704
	H67	H	0.401822	0.413518	0.886163
	H68	H	0.580766	0.114063	0.397691
	H69	H	0.585144	0.879482	0.591326
	H70	H	0.385730	0.115525	0.594283
	H71	H	0.397169	0.880118	0.400876
	H72	H	0.899287	0.608708	0.086721
	H73	H	0.079368	0.380281	0.090658
	H74	H	0.079095	0.611781	0.902015
	H75	H	0.888913	0.376762	0.900617
	H76	H	0.087207	0.909114	0.613297
	H77	H	0.082551	0.081969	0.382541
	H78	H	0.900513	0.088401	0.611694
	H79	H	0.897645	0.892123	0.378189
	H80	H	0.605008	0.088837	0.905118
	H81	H	0.370170	0.084170	0.097404
	H82	H	0.605953	0.895719	0.088219
	H83	H	0.371977	0.900206	0.908281
	H84	H	0.603645	0.906681	0.087082
	H85	H	0.367825	0.098533	0.092616
	H86	H	0.604815	0.088237	0.903570
	H87	H	0.374016	0.906952	0.905941
	H88	H	0.894030	0.097163	0.616416
	H89	H	0.073487	0.092328	0.382608
	H90	H	0.071479	0.906300	0.609625
	H91	H	0.885024	0.906976	0.378143
	H92	H	0.079290	0.609672	0.907741
	H93	H	0.083250	0.379472	0.088934
	H94	H	0.888535	0.612759	0.088554
	H95	H	0.900555	0.380375	0.900387
	H96	H	0.399019	0.112582	0.599020
	H97	H	0.577133	0.880348	0.593315
	H98	H	0.576851	0.110289	0.406443
	H99	H	0.395427	0.881222	0.407149
	H100	H	0.575084	0.393373	0.115476
	H101	H	0.585302	0.598372	0.877228
	H102	H	0.396263	0.588011	0.112583
	H103	H	0.402911	0.391755	0.880320
	H104	H	0.104769	0.585638	0.399591
	H105	H	0.872927	0.585175	0.590546
	H106	H	0.104346	0.393580	0.581173
	H107	H	0.872735	0.402732	0.411823
	H108	H	0.896126	0.613076	0.096923
	H109	H	0.082484	0.378340	0.092919
	H110	H	0.083875	0.611405	0.904860
	H111	H	0.894661	0.380575	0.909805
	H112	H	0.081070	0.894425	0.616120
	H113	H	0.086851	0.094679	0.377499
	H114	H	0.888940	0.086843	0.614377
	H115	H	0.903300	0.909306	0.385409
	H116	H	0.605803	0.089295	0.903897
	H117	H	0.373177	0.087828	0.082676
	H118	H	0.606958	0.902430	0.097421
	H119	H	0.371070	0.901735	0.901300
	C120	C	0.365803	0.004455	0.620322
	C121	C	0.609172	0.988242	0.618711
	C122	C	0.609743	0.004771	0.375464
	C123	C	0.366029	0.988011	0.375825
	C124	C	0.609763	0.374247	0.006592
	C125	C	0.608840	0.617208	0.989637
	C126	C	0.365792	0.618307	0.005417
	C127	C	0.367109	0.374371	0.989441
	C128	C	-0.004352	0.617289	0.375886
	C129	C	0.979682	0.618560	0.619266
	C130	C	-0.003967	0.374869	0.618552
	C131	C	0.978726	0.374578	0.375781
	C132	C	0.866032	0.503812	0.119071
	C133	C	0.109298	0.487425	0.119088
	C134	C	0.109847	0.503525	0.875704
	C135	C	0.866129	0.487198	0.876107
	C136	C	0.109339	0.874620	0.504998
	C137	C	0.108901	0.118297	0.489061
	C138	C	0.865929	0.118648	0.505819
	C139	C	0.866751	0.875037	0.488861
	C140	C	0.496731	0.117273	0.876392
	C141	C	0.479204	0.117538	0.119168
	C142	C	0.496519	0.874528	0.119072
	C143	C	0.480806	0.873937	0.876147
	C144	C	0.369111	0.881425	0.674186
	C145	C	0.606155	0.110833	0.674134
	C146	C	0.606673	0.881421	0.321290
	C147	C	0.369149	0.110996	0.321699
	C148	C	0.663703	0.378002	0.882811
	C149	C	0.663653	0.614222	0.112886
	C150	C	0.311743	0.614278	0.881921
	C151	C	0.311911	0.378051	0.112940
	C152	C	0.872300	0.672757	0.378267
	C153	C	0.103107	0.673174	0.616523
	C154	C	0.872532	0.320538	0.616563
	C155	C	0.102086	0.319126	0.377525
	C156	C	0.872397	0.378633	0.673496
	C157	C	0.103366	0.615296	0.674174
	C158	C	0.872071	0.614887	0.320849
	C159	C	0.102533	0.377522	0.320931
	C160	C	0.368773	0.672977	0.882301
	C161	C	0.606622	0.672378	0.112636
	C162	C	0.607550	0.319160	0.883224
	C163	C	0.369347	0.320179	0.112776
	C164	C	0.664848	0.881844	0.378696
	C165	C	0.663337	0.111100	0.615901
	C166	C	0.311596	0.881431	0.616014
	C167	C	0.312411	0.111375	0.380225
	C168	C	0.868583	0.380828	0.173999
	C169	C	0.106019	0.610239	0.174327
	C170	C	0.108255	0.381153	0.820041
	C171	C	0.868338	0.610100	0.821318
	C172	C	0.164523	0.877302	0.381893
	C173	C	0.163130	0.114990	0.612624
	C174	C	0.811454	0.114958	0.382604
	C175	C	0.811660	0.878664	0.612252
	C176	C	0.373527	0.172614	0.878913
	C177	C	0.603285	0.171159	0.116234
	C178	C	0.373117	0.819780	0.116273
	C179	C	0.603943	0.818179	0.877945
	C180	C	0.372434	0.878507	0.172785
	C181	C	0.603171	0.113513	0.173607
	C182	C	0.372596	0.113857	0.822748
	C183	C	0.603997	0.875739	0.820200
	C184	C	0.868671	0.172660	0.382279
	C185	C	0.106189	0.173491	0.612168
	C186	C	0.107860	0.818355	0.382237
	C187	C	0.867875	0.819531	0.611708
	C188	C	0.165430	0.380833	0.878164
	C189	C	0.163959	0.610268	0.116640
	C190	C	0.811175	0.380918	0.116010
	C191	C	0.811016	0.610265	0.879548
	C192	C	0.387288	0.090568	0.599347
	C193	C	0.587311	0.902733	0.596484
	C194	C	0.587931	0.090586	0.396828
	C195	C	0.388045	0.902039	0.397310
	C196	C	0.587834	0.395406	0.092625
	C197	C	0.586552	0.595025	0.903642
	C198	C	0.387533	0.596957	0.091835
	C199	C	0.389537	0.396301	0.903682
	C200	C	0.081781	0.594933	0.398027
	C201	C	0.893376	0.596855	0.597593
	C202	C	0.082204	0.396244	0.596145
	C203	C	0.892550	0.396437	0.397957
	C204	C	0.888254	0.589430	0.097184
	C205	C	0.088007	0.401521	0.097271
	C206	C	0.087319	0.588958	0.898138
	C207	C	0.888071	0.401543	0.897471
	C208	C	0.086598	0.896856	0.590795
	C209	C	0.087238	0.096289	0.403050
	C210	C	0.888092	0.097165	0.592061
	C211	C	0.888852	0.896505	0.402663
	C212	C	0.583112	0.095218	0.897861
	C213	C	0.392768	0.096393	0.097396
	C214	C	0.583157	0.895749	0.097541
	C215	C	0.394812	0.896452	0.898560
	Zn216	Zn	0.488627	-0.004266	0.748327
	Zn217	Zn	0.487564	-0.004112	0.247170
	Zn218	Zn	0.737522	0.495906	-0.001958
	Zn219	Zn	0.238308	0.495790	-0.002662
	Zn220	Zn	-0.012302	0.745933	0.497008
	Zn221	Zn	-0.013098	0.246491	0.496909
	Zn222	Zn	-0.011958	0.495719	0.747304
	Zn223	Zn	-0.012891	0.495608	0.247738
	Zn224	Zn	0.488841	0.746304	-0.002467
	Zn225	Zn	0.488290	0.245479	-0.002092
	Zn226	Zn	0.738562	-0.003381	0.497487
	Zn227	Zn	0.237666	-0.003605	0.497688
	N228	N	0.401774	0.958928	0.677072
	N229	N	0.572876	0.033493	0.675777
	N230	N	0.573256	0.958737	0.319038
	N231	N	0.401846	0.033188	0.318884
	N232	N	0.665384	0.411424	0.960238
	N233	N	0.665162	0.580596	0.035099
	N234	N	0.309714	0.581257	0.959613
	N235	N	0.310612	0.411261	0.035355
	N236	N	0.950262	0.674281	0.411629
	N237	N	0.025382	0.675109	0.583194
	N238	N	0.950359	0.318197	0.582967
	N239	N	0.024363	0.317399	0.411118
	N240	N	0.950030	0.412106	0.674380
	N241	N	0.025498	0.582026	0.676091
	N242	N	0.949608	0.580893	0.319479
	N243	N	0.024772	0.411157	0.319640
	N244	N	0.401561	0.675497	0.960305
	N245	N	0.573116	0.673932	0.035293
	N246	N	0.574450	0.316840	0.961158
	N247	N	0.402973	0.317726	0.035161
	N248	N	0.666596	0.959316	0.411901
	N249	N	0.665265	0.033935	0.582060
	N250	N	0.309392	0.959074	0.583339
	N251	N	0.310408	0.033888	0.413298
	N252	N	0.901992	0.458252	0.175842
	N253	N	0.072631	0.532929	0.175900
	N254	N	0.074301	0.458339	0.818409
	N255	N	0.902103	0.532901	0.819049
	N256	N	0.165569	0.911497	0.459149
	N257	N	0.164911	0.081354	0.535206
	N258	N	0.809623	0.082127	0.460340
	N259	N	0.810836	0.912482	0.534924
	N260	N	0.451575	0.174803	0.911584
	N261	N	0.525338	0.173999	0.083308
	N262	N	0.451383	0.817356	0.083471
	N263	N	0.526369	0.817055	0.912018
	N264	N	0.450239	0.911544	0.174758
	N265	N	0.525008	0.081095	0.175654
	N266	N	0.450381	0.080210	0.820951
	N267	N	0.526292	0.909699	0.818885
	N268	N	0.901706	0.174935	0.460097
	N269	N	0.073115	0.175664	0.534307
	N270	N	0.074246	0.816665	0.459992
	N271	N	0.901389	0.817274	0.533919
	N272	N	0.166279	0.457887	0.912315
	N273	N	0.165901	0.533091	0.082812
	N274	N	0.809463	0.458321	0.082812
	N275	N	0.809575	0.532829	0.912790
	O276	O	1.118747	-0.103489	0.885910
	H277	H	1.107701	-0.098055	0.870280
	H278	H	1.116153	-0.102079	0.883010
	O279	O	1.057219	0.871769	0.873654
	H280	H	1.067296	0.864181	0.874186
	H281	H	1.066780	0.866215	0.876973
	O282	O	1.123608	0.874921	-0.093606
	H283	H	1.126514	0.881618	-0.092252
	H284	H	1.136187	0.871661	-0.094257
	O285	O	1.051423	0.906149	0.858053
	H286	H	1.048332	0.909365	0.858518
	H287	H	1.046220	0.891012	0.854921
