data_Molecule from HDF5

_cell_length_a		16.305384
_cell_length_b		16.110645
_cell_length_c		16.277329
_cell_angle_alpha	89.503640
_cell_angle_beta	90.403377
_cell_angle_gamma	89.739559
_symmetry_space_group_name_H-M	'P 1'
_symmetry_Int_Tables_number		1

loop_
	_symmetry_equiv_pos_as_xyz
	x,y,z

loop_
	_atom_site_label
	_atom_site_type_symbol
	_atom_site_fract_x
	_atom_site_fract_y
	_atom_site_fract_z
	H0	H	0.411221	0.839329	0.704872
	H1	H	0.605057	0.170538	0.702672
	H2	H	0.606555	0.839052	0.280221
	H3	H	0.407288	0.169341	0.275951
	H4	H	0.722428	0.406684	0.827554
	H5	H	0.723620	0.603762	0.154898
	H6	H	0.289774	0.607886	0.828451
	H7	H	0.293313	0.401666	0.154377
	H8	H	0.844444	0.720723	0.390746
	H9	H	0.172397	0.714534	0.588067
	H10	H	0.843634	0.289510	0.590316
	H11	H	0.171468	0.290342	0.396643
	H12	H	0.844009	0.403727	0.708755
	H13	H	0.169933	0.603526	0.709125
	H14	H	0.845974	0.608830	0.271183
	H15	H	0.170754	0.402979	0.277715
	H16	H	0.409129	0.719459	0.826875
	H17	H	0.605581	0.717038	0.155473
	H18	H	0.604283	0.293596	0.825633
	H19	H	0.412469	0.289310	0.155061
	H20	H	0.722743	0.840130	0.393793
	H21	H	0.722965	0.168658	0.590842
	H22	H	0.296730	0.838530	0.590609
	H23	H	0.290736	0.168752	0.389982
	H24	H	0.909822	0.339999	0.206577
	H25	H	0.107532	0.669573	0.204721
	H26	H	0.105368	0.338881	0.780879
	H27	H	0.907071	0.669718	0.775501
	H28	H	0.221803	0.904661	0.327540
	H29	H	0.223417	0.100527	0.655426
	H30	H	0.787800	0.108835	0.329763
	H31	H	0.794137	0.901200	0.655954
	H32	H	0.343085	0.220558	0.891386
	H33	H	0.672198	0.215554	0.086929
	H34	H	0.342601	0.791105	0.088441
	H35	H	0.670530	0.791462	0.896037
	H36	H	0.343059	0.905025	0.206451
	H37	H	0.669661	0.105447	0.209358
	H38	H	0.343518	0.107143	0.773384
	H39	H	0.670437	0.905749	0.778905
	H40	H	0.907722	0.220600	0.328198
	H41	H	0.105645	0.214522	0.656804
	H42	H	0.103476	0.792849	0.326535
	H43	H	0.913345	0.788972	0.655247
	H44	H	0.222309	0.339844	0.893929
	H45	H	0.222284	0.669155	0.090126
	H46	H	0.793586	0.340218	0.092278
	H47	H	0.792479	0.669923	0.890332
	H48	H	0.417011	0.125933	0.594443
	H49	H	0.602232	0.886048	0.585540
	H50	H	0.600927	0.122403	0.399590
	H51	H	0.406244	0.884146	0.399975
	H52	H	0.600610	0.410591	0.106676
	H53	H	0.598966	0.598530	0.874517
	H54	H	0.413032	0.597564	0.109229
	H55	H	0.414323	0.411251	0.873509
	H56	H	0.125077	0.598112	0.394915
	H57	H	0.891417	0.601241	0.578752
	H58	H	0.124025	0.409058	0.586907
	H59	H	0.893003	0.415900	0.399138
	H60	H	0.122918	0.411559	0.587245
	H61	H	0.893492	0.590640	0.581456
	H62	H	0.124146	0.599267	0.399340
	H63	H	0.891238	0.414958	0.397899
	H64	H	0.414055	0.594882	0.107748
	H65	H	0.599722	0.599159	0.874044
	H66	H	0.602595	0.407303	0.107598
	H67	H	0.409985	0.416010	0.874029
	H68	H	0.595528	0.122386	0.396624
	H69	H	0.602364	0.885306	0.588029
	H70	H	0.422157	0.117810	0.573128
	H71	H	0.418824	0.884596	0.392493
	H72	H	0.918151	0.620972	0.080474
	H73	H	0.106367	0.385202	0.086949
	H74	H	0.097106	0.622564	0.898135
	H75	H	0.901620	0.385122	0.908645
	H76	H	0.102278	0.904793	0.609005
	H77	H	0.101893	0.096484	0.375088
	H78	H	0.916568	0.096051	0.608207
	H79	H	0.916761	0.914717	0.376005
	H80	H	0.623465	0.101670	0.899131
	H81	H	0.392569	0.093872	0.079998
	H82	H	0.621164	0.917520	0.087376
	H83	H	0.389126	0.911888	0.895564
	H84	H	0.624951	0.908018	0.090634
	H85	H	0.390236	0.096042	0.088025
	H86	H	0.623161	0.094585	0.895962
	H87	H	0.389969	0.913342	0.898829
	H88	H	0.912590	0.095620	0.609271
	H89	H	0.097827	0.096268	0.375717
	H90	H	0.107791	0.908365	0.610472
	H91	H	0.912683	0.910650	0.373796
	H92	H	0.098937	0.622037	0.900842
	H93	H	0.098048	0.386617	0.090323
	H94	H	0.912322	0.622866	0.079481
	H95	H	0.914828	0.382333	0.885922
	H96	H	0.400455	0.125454	0.577830
	H97	H	0.600986	0.886703	0.587111
	H98	H	0.596179	0.120301	0.403128
	H99	H	0.418213	0.889147	0.405818
	H100	H	0.604483	0.411397	0.108102
	H101	H	0.600247	0.597659	0.874418
	H102	H	0.416412	0.597414	0.107813
	H103	H	0.416291	0.416242	0.875900
	H104	H	0.123309	0.594763	0.397940
	H105	H	0.889053	0.597069	0.589449
	H106	H	0.123405	0.410508	0.589624
	H107	H	0.891601	0.414151	0.399776
	H108	H	0.915051	0.624054	0.085434
	H109	H	0.099820	0.387162	0.081400
	H110	H	0.100456	0.622934	0.898235
	H111	H	0.927125	0.392105	0.906886
	H112	H	0.102577	0.911395	0.607193
	H113	H	0.099293	0.099935	0.374483
	H114	H	0.914696	0.092983	0.607884
	H115	H	0.911061	0.917314	0.376113
	H116	H	0.625831	0.100850	0.890688
	H117	H	0.389636	0.101761	0.081555
	H118	H	0.622242	0.909481	0.081199
	H119	H	0.389977	0.915621	0.895174
	C120	C	0.386504	0.013324	0.611097
	C121	C	0.629475	0.995557	0.613991
	C122	C	0.627404	0.013011	0.371440
	C123	C	0.385105	0.995118	0.369690
	C124	C	0.630308	0.382836	-0.001011
	C125	C	0.628793	0.626092	0.983180
	C126	C	0.384926	0.626808	0.000120
	C127	C	0.386018	0.383599	0.982539
	C128	C	0.016303	0.627160	0.367709
	C129	C	0.999342	0.624632	0.612364
	C130	C	0.015575	0.381467	0.615603
	C131	C	0.999391	0.384292	0.370751
	C132	C	0.886857	0.513593	0.112047
	C133	C	0.129682	0.495633	0.113843
	C134	C	0.127865	0.513144	0.871139
	C135	C	0.885656	0.495899	0.870291
	C136	C	0.131218	0.881032	0.500105
	C137	C	0.128905	0.124978	0.483601
	C138	C	0.884882	0.126365	0.500633
	C139	C	0.886340	0.883460	0.483506
	C140	C	0.515692	0.128448	0.866776
	C141	C	0.498928	0.125896	0.112312
	C142	C	0.514855	0.882780	0.114133
	C143	C	0.498266	0.884456	0.869789
	C144	C	0.390659	0.888745	0.667032
	C145	C	0.626117	0.120586	0.666513
	C146	C	0.626257	0.888633	0.317213
	C147	C	0.386687	0.119716	0.313624
	C148	C	0.684627	0.386315	0.876139
	C149	C	0.684975	0.623382	0.105998
	C150	C	0.328633	0.626522	0.877101
	C151	C	0.331354	0.383030	0.105669
	C152	C	0.893510	0.683141	0.369665
	C153	C	0.122886	0.678215	0.609449
	C154	C	0.892459	0.326905	0.611533
	C155	C	0.122396	0.328083	0.374834
	C156	C	0.892834	0.383545	0.670568
	C157	C	0.121756	0.622758	0.669460
	C158	C	0.894259	0.627272	0.310385
	C159	C	0.122004	0.384127	0.315638
	C160	C	0.387662	0.682505	0.876381
	C161	C	0.626318	0.679994	0.106416
	C162	C	0.625455	0.330180	0.874937
	C163	C	0.390584	0.327042	0.105996
	C164	C	0.684177	0.889135	0.373802
	C165	C	0.684497	0.119811	0.610841
	C166	C	0.333693	0.888166	0.610252
	C167	C	0.328901	0.119397	0.370434
	C168	C	0.889147	0.389168	0.168673
	C169	C	0.127130	0.620016	0.167302
	C170	C	0.125811	0.388459	0.817606
	C171	C	0.886751	0.620251	0.813389
	C172	C	0.184799	0.884152	0.376712
	C173	C	0.184930	0.121066	0.606796
	C174	C	0.827576	0.127176	0.378177
	C175	C	0.832066	0.883118	0.606534
	C176	C	0.392418	0.183847	0.869995
	C177	C	0.622864	0.179010	0.108663
	C178	C	0.391560	0.828003	0.109897
	C179	C	0.621585	0.829212	0.874949
	C180	C	0.391925	0.884321	0.168758
	C181	C	0.621437	0.124088	0.169432
	C182	C	0.392535	0.127330	0.811460
	C183	C	0.621491	0.886179	0.816535
	C184	C	0.886699	0.183194	0.377503
	C185	C	0.126217	0.177893	0.607564
	C186	C	0.125971	0.828508	0.376056
	C187	C	0.891323	0.826946	0.606476
	C188	C	0.183868	0.389015	0.874016
	C189	C	0.184687	0.619781	0.110880
	C190	C	0.831920	0.389279	0.111515
	C191	C	0.829869	0.620230	0.870379
	C192	C	0.407208	0.100442	0.588336
	C193	C	0.608093	0.908681	0.593106
	C194	C	0.604396	0.099377	0.393247
	C195	C	0.407880	0.908386	0.392629
	C196	C	0.609131	0.403592	0.085106
	C197	C	0.606250	0.604718	0.896698
	C198	C	0.407760	0.603242	0.086077
	C199	C	0.407247	0.407424	0.896868
	C200	C	0.102102	0.604128	0.390723
	C201	C	0.913607	0.602759	0.589774
	C202	C	0.101281	0.403721	0.594336
	C203	C	0.914077	0.408032	0.392519
	C204	C	0.908769	0.600153	0.088711
	C205	C	0.107925	0.408710	0.092434
	C206	C	0.105367	0.600134	0.892672
	C207	C	0.908026	0.409127	0.893691
	C208	C	0.110354	0.901935	0.586594
	C209	C	0.106344	0.103815	0.397562
	C210	C	0.908032	0.102142	0.586382
	C211	C	0.907448	0.907058	0.397333
	C212	C	0.601841	0.105612	0.888714
	C213	C	0.412952	0.103699	0.089745
	C214	C	0.600514	0.905247	0.092847
	C215	C	0.412007	0.906993	0.890310
	Zn216	Zn	0.506447	0.005659	0.739727
	Zn217	Zn	0.506770	0.004137	0.242440
	Zn218	Zn	0.758232	0.505370	-0.008672
	Zn219	Zn	0.256676	0.504695	-0.008534
	Zn220	Zn	0.008420	0.754272	0.490671
	Zn221	Zn	0.007328	0.254163	0.492230
	Zn222	Zn	0.007016	0.504426	0.743561
	Zn223	Zn	0.007729	0.504780	0.240296
	Zn224	Zn	0.506504	0.754840	-0.008315
	Zn225	Zn	0.507686	0.254917	-0.009784
	Zn226	Zn	0.756377	0.004280	0.492278
	Zn227	Zn	0.258074	0.003031	0.491354
	N228	N	0.422756	0.967590	0.667785
	N229	N	0.592601	0.042343	0.668713
	N230	N	0.591573	0.966715	0.315560
	N231	N	0.420690	0.041347	0.312815
	N232	N	0.687557	0.418221	0.954103
	N233	N	0.686437	0.590792	0.028102
	N234	N	0.326939	0.592351	0.954944
	N235	N	0.328570	0.417723	0.028033
	N236	N	0.970595	0.683211	0.404612
	N237	N	0.045811	0.679304	0.574344
	N238	N	0.969789	0.325381	0.578180
	N239	N	0.045236	0.327883	0.408456
	N240	N	0.970292	0.416872	0.673079
	N241	N	0.044010	0.590233	0.671373
	N242	N	0.971705	0.593323	0.309252
	N243	N	0.044624	0.418630	0.313244
	N244	N	0.421842	0.682688	0.953939
	N245	N	0.592099	0.681822	0.028892
	N246	N	0.592298	0.327809	0.952443
	N247	N	0.423766	0.327260	0.028599
	N248	N	0.684951	0.967337	0.406982
	N249	N	0.686562	0.041217	0.578741
	N250	N	0.330942	0.966715	0.576338
	N251	N	0.327803	0.040894	0.404491
	N252	N	0.922425	0.467477	0.169219
	N253	N	0.093795	0.541669	0.169322
	N254	N	0.091509	0.466572	0.816134
	N255	N	0.920711	0.541972	0.813237
	N256	N	0.188069	0.915962	0.454898
	N257	N	0.186826	0.089058	0.528661
	N258	N	0.826231	0.092648	0.455835
	N259	N	0.829025	0.917708	0.528861
	N260	N	0.470085	0.184647	0.903547
	N261	N	0.545733	0.180142	0.073812
	N262	N	0.469159	0.826635	0.076864
	N263	N	0.544059	0.828214	0.907316
	N264	N	0.469444	0.917441	0.171636
	N265	N	0.543274	0.092033	0.171784
	N266	N	0.470311	0.093743	0.809166
	N267	N	0.543782	0.920170	0.813301
	N268	N	0.921627	0.182704	0.454772
	N269	N	0.092161	0.180537	0.529990
	N270	N	0.093379	0.826435	0.453727
	N271	N	0.924209	0.827001	0.528850
	N272	N	0.185176	0.467600	0.906433
	N273	N	0.186459	0.541364	0.078042
	N274	N	0.830018	0.467689	0.077289
	N275	N	0.829105	0.542004	0.905200
	O276	O	-0.011472	0.026339	-0.035751
	H277	H	-0.005389	0.031662	-0.034762
	H278	H	-0.018272	0.020018	-0.037512
	O279	O	0.484108	0.552188	0.462234
	H280	H	0.483854	0.562862	0.451309
	H281	H	0.481188	0.548334	0.473358
	O282	O	0.493998	0.470813	0.506900
	H283	H	0.491305	0.465136	0.509154
	H284	H	0.487934	0.472593	0.510138
	O285	O	1.031930	0.005033	0.983063
	H286	H	1.021793	0.005761	0.985614
	H287	H	1.037916	0.012783	0.982621
	O288	O	0.940474	-0.017507	-0.015719
	H289	H	0.949380	-0.016421	-0.014687
	H290	H	0.936844	-0.015658	-0.017864
	O291	O	0.540147	0.547573	0.474664
	H292	H	0.527503	0.542189	0.478961
	H293	H	0.545817	0.549656	0.468516
	O294	O	1.018636	0.036130	1.019395
	H295	H	1.023696	0.025353	1.020006
	H296	H	1.013274	0.041203	1.024478
	O297	O	-0.066186	-0.011702	-0.006252
	H298	H	-0.080242	-0.011612	-0.006206
	H299	H	-0.063229	-0.012828	-0.002725
	O300	O	0.533822	0.412890	0.439640
	H301	H	0.539685	0.412761	0.440989
	H302	H	0.528844	0.415061	0.440910
	O303	O	0.485659	0.509603	0.500039
	H304	H	0.481632	0.504949	0.486567
	H305	H	0.485826	0.516962	0.503987
	O306	O	0.984607	0.078101	-0.014127
	H307	H	0.980866	0.078329	-0.025559
	H308	H	0.985327	0.074519	-0.014785
	O309	O	-0.020709	0.009002	0.988226
	H310	H	-0.027090	0.011779	0.982494
	H311	H	-0.028053	0.009884	0.978870
	O312	O	1.539776	0.515086	1.425853
	H313	H	1.539923	0.515518	1.424287
	H314	H	1.537452	0.519721	1.427134
	O315	O	0.500065	0.502495	0.439919
	H316	H	0.502466	0.499646	0.437344
	H317	H	0.501617	0.499261	0.437730
	O318	O	0.543158	0.524825	0.484980
	H319	H	0.528869	0.528983	0.486448
	H320	H	0.552315	0.534548	0.492495
	O321	O	0.017007	1.016130	1.057696
	H322	H	0.012865	1.014418	1.058966
	H323	H	0.009637	1.015938	1.058172
	O324	O	0.514932	0.518141	0.573418
	H325	H	0.505624	0.512751	0.581810
	H326	H	0.520982	0.524812	0.581143
	O327	O	0.387033	0.479058	0.472260
	H328	H	0.379120	0.480145	0.462481
	H329	H	0.389072	0.479714	0.474645
	O330	O	0.519416	0.468107	0.424902
	H331	H	0.505407	0.471085	0.415451
	H332	H	0.524512	0.458678	0.434414
	O333	O	0.502788	0.484938	0.502651
	H334	H	0.505095	0.486353	0.509974
	H335	H	0.508173	0.480746	0.495091
	O336	O	0.483629	0.500052	0.490751
	H337	H	0.483452	0.495594	0.500800
	H338	H	0.470714	0.486934	0.483086
	O339	O	0.880997	1.013907	0.014040
	H340	H	0.869808	1.017325	0.016959
	H341	H	0.891526	1.018209	0.021372
	O342	O	0.607435	0.502868	0.582497
	H343	H	0.607538	0.503541	0.588045
	H344	H	0.615457	0.504852	0.578731
	O345	O	0.478773	0.473501	0.459039
	H346	H	0.482361	0.474842	0.452206
	H347	H	0.492318	0.477665	0.457668
	O348	O	-0.549834	0.494292	0.509667
	H349	H	-0.550579	0.492463	0.515765
	H350	H	-0.547701	0.493007	0.502114
	O351	O	-0.088851	0.918570	1.025253
	H352	H	-0.092616	0.922793	1.022974
	H353	H	-0.088395	0.919336	1.034383
	O354	O	0.486609	0.549698	0.488300
	H355	H	0.475900	0.557207	0.479440
	H356	H	0.492766	0.542737	0.487198
	O357	O	0.002211	1.049543	0.994039
	H358	H	0.000926	1.044843	1.003913
	H359	H	0.013156	1.055536	0.993760
