data_Molecule from HDF5

_cell_length_a		16.542147
_cell_length_b		16.663127
_cell_length_c		16.569610
_cell_angle_alpha	89.929474
_cell_angle_beta	90.103627
_cell_angle_gamma	90.145380
_symmetry_space_group_name_H-M	'P 1'
_symmetry_Int_Tables_number		1

loop_
	_symmetry_equiv_pos_as_xyz
	x,y,z

loop_
	_atom_site_label
	_atom_site_type_symbol
	_atom_site_fract_x
	_atom_site_fract_y
	_atom_site_fract_z
	H0	H	0.392188	0.838011	0.715589
	H1	H	0.605991	0.148323	0.717052
	H2	H	0.602359	0.838169	0.271942
	H3	H	0.393029	0.148602	0.271872
	H4	H	0.719692	0.389164	0.837607
	H5	H	0.716821	0.596158	0.150626
	H6	H	0.276778	0.596910	0.836964
	H7	H	0.277444	0.388660	0.149553
	H8	H	0.841159	0.712525	0.390011
	H9	H	0.155565	0.713137	0.597890
	H10	H	0.842722	0.270854	0.599682
	H11	H	0.156238	0.274812	0.390366
	H12	H	0.840964	0.389422	0.712853
	H13	H	0.154907	0.597762	0.714333
	H14	H	0.840173	0.594897	0.275025
	H15	H	0.156855	0.391621	0.275676
	H16	H	0.393826	0.713554	0.836008
	H17	H	0.603165	0.714822	0.148257
	H18	H	0.606536	0.270022	0.839316
	H19	H	0.390325	0.270093	0.147687
	H20	H	0.717375	0.836904	0.389652
	H21	H	0.722533	0.147403	0.601087
	H22	H	0.276726	0.837256	0.598062
	H23	H	0.276738	0.148757	0.388165
	H24	H	0.895292	0.336391	0.212602
	H25	H	0.099685	0.651199	0.210914
	H26	H	0.100581	0.337441	0.773913
	H27	H	0.894233	0.649281	0.771899
	H28	H	0.215003	0.892834	0.335854
	H29	H	0.218982	0.096691	0.650723
	H30	H	0.777959	0.096484	0.337275
	H31	H	0.780167	0.891054	0.651461
	H32	H	0.342476	0.215735	0.885655
	H33	H	0.654590	0.212983	0.096479
	H34	H	0.340748	0.772386	0.096089
	H35	H	0.656048	0.775127	0.890684
	H36	H	0.340280	0.888750	0.211476
	H37	H	0.654198	0.097665	0.212880
	H38	H	0.340673	0.095809	0.773731
	H39	H	0.656034	0.892468	0.774988
	H40	H	0.894500	0.212594	0.336616
	H41	H	0.104648	0.214694	0.650065
	H42	H	0.099399	0.776049	0.335750
	H43	H	0.895578	0.774081	0.650737
	H44	H	0.218590	0.338689	0.889337
	H45	H	0.216527	0.651288	0.093823
	H46	H	0.777418	0.337499	0.097057
	H47	H	0.781309	0.651567	0.892204
	H48	H	0.402377	0.108989	0.589194
	H49	H	0.586842	0.882920	0.581923
	H50	H	0.588767	0.104727	0.405634
	H51	H	0.406488	0.881570	0.403812
	H52	H	0.582427	0.405209	0.103754
	H53	H	0.586635	0.588994	0.878778
	H54	H	0.410415	0.574858	0.102147
	H55	H	0.409041	0.401926	0.880562
	H56	H	0.111602	0.583939	0.403153
	H57	H	0.885091	0.580406	0.586568
	H58	H	0.110568	0.400551	0.580472
	H59	H	0.889330	0.408895	0.406765
	H60	H	0.109012	0.407870	0.581654
	H61	H	0.884977	0.588359	0.581511
	H62	H	0.111466	0.585657	0.402038
	H63	H	0.884118	0.402524	0.396681
	H64	H	0.416746	0.588709	0.104536
	H65	H	0.593403	0.584414	0.879026
	H66	H	0.586602	0.400821	0.106335
	H67	H	0.407236	0.406336	0.880875
	H68	H	0.587366	0.105531	0.402222
	H69	H	0.587780	0.881835	0.584007
	H70	H	0.418576	0.102290	0.586630
	H71	H	0.406527	0.880832	0.402674
	H72	H	0.903026	0.606600	0.082584
	H73	H	0.090583	0.379398	0.089466
	H74	H	0.080920	0.600601	0.911687
	H75	H	0.913775	0.385194	0.908945
	H76	H	0.087903	0.904946	0.606189
	H77	H	0.082451	0.085176	0.383119
	H78	H	0.912695	0.084223	0.605950
	H79	H	0.904295	0.901143	0.379805
	H80	H	0.609543	0.080251	0.905238
	H81	H	0.384328	0.083578	0.080403
	H82	H	0.612944	0.899523	0.086182
	H83	H	0.387596	0.906860	0.905500
	H84	H	0.607463	0.903085	0.075664
	H85	H	0.385938	0.081745	0.079798
	H86	H	0.611666	0.084375	0.903431
	H87	H	0.384303	0.903552	0.899869
	H88	H	0.907648	0.082864	0.607167
	H89	H	0.090635	0.089967	0.378827
	H90	H	0.085798	0.901544	0.606034
	H91	H	0.907583	0.905733	0.381536
	H92	H	0.096564	0.608707	0.905619
	H93	H	0.082651	0.383721	0.084352
	H94	H	0.908490	0.607076	0.089543
	H95	H	0.901344	0.381778	0.907456
	H96	H	0.406333	0.102433	0.573557
	H97	H	0.585361	0.882511	0.584049
	H98	H	0.585353	0.103409	0.405114
	H99	H	0.407897	0.881636	0.403066
	H100	H	0.589170	0.407417	0.104260
	H101	H	0.586876	0.581271	0.882120
	H102	H	0.402582	0.586476	0.108217
	H103	H	0.412104	0.405238	0.883017
	H104	H	0.110836	0.585331	0.403586
	H105	H	0.887742	0.580290	0.577644
	H106	H	0.112197	0.403738	0.587496
	H107	H	0.885515	0.396726	0.408042
	H108	H	0.911621	0.603691	0.081869
	H109	H	0.092169	0.381989	0.079064
	H110	H	0.081734	0.607080	0.894181
	H111	H	0.909426	0.380323	0.897752
	H112	H	0.089617	0.901965	0.607714
	H113	H	0.090958	0.079884	0.380735
	H114	H	0.910230	0.079387	0.604077
	H115	H	0.909944	0.900624	0.380304
	H116	H	0.610039	0.084390	0.907942
	H117	H	0.384596	0.082145	0.082716
	H118	H	0.608710	0.911269	0.085389
	H119	H	0.385155	0.899461	0.906648
	C120	C	0.376433	0.001799	0.615287
	C121	C	0.619273	0.985365	0.615192
	C122	C	0.619017	0.001834	0.372253
	C123	C	0.375858	0.984684	0.371500
	C124	C	0.619192	0.372501	0.002031
	C125	C	0.620093	0.615830	0.983988
	C126	C	0.377886	0.614519	0.001064
	C127	C	0.376387	0.371757	0.984219
	C128	C	0.007002	0.615223	0.371887
	C129	C	0.989868	0.614607	0.614454
	C130	C	0.007026	0.372212	0.614640
	C131	C	0.990437	0.372510	0.372577
	C132	C	0.876377	0.502003	0.115448
	C133	C	0.119376	0.485739	0.114533
	C134	C	0.118247	0.501985	0.872461
	C135	C	0.876595	0.485424	0.872363
	C136	C	0.118407	0.872632	0.502169
	C137	C	0.119973	0.115578	0.484986
	C138	C	0.877706	0.113905	0.502178
	C139	C	0.876720	0.871732	0.484832
	C140	C	0.506987	0.114986	0.872173
	C141	C	0.488780	0.114306	0.113219
	C142	C	0.506215	0.872098	0.114185
	C143	C	0.489780	0.872488	0.872353
	C144	C	0.373805	0.884828	0.675743
	C145	C	0.623383	0.101968	0.676276
	C146	C	0.620629	0.884710	0.312512
	C147	C	0.374479	0.101924	0.311912
	C148	C	0.679412	0.370795	0.884501
	C149	C	0.678146	0.615996	0.102830
	C150	C	0.317845	0.615534	0.883263
	C151	C	0.316622	0.369402	0.101947
	C152	C	0.888072	0.672735	0.371304
	C153	C	0.107999	0.673935	0.616555
	C154	C	0.889339	0.311574	0.617441
	C155	C	0.108957	0.314469	0.371949
	C156	C	0.888460	0.370435	0.673704
	C157	C	0.107943	0.616315	0.674320
	C158	C	0.887708	0.614653	0.313996
	C159	C	0.109224	0.372589	0.314670
	C160	C	0.375565	0.673555	0.883041
	C161	C	0.621872	0.674962	0.101883
	C162	C	0.623079	0.311698	0.885131
	C163	C	0.373222	0.310873	0.101203
	C164	C	0.677967	0.884152	0.370766
	C165	C	0.681552	0.101326	0.618725
	C166	C	0.316524	0.884334	0.617162
	C167	C	0.316729	0.102033	0.369797
	C168	C	0.875983	0.383664	0.173456
	C169	C	0.119222	0.604284	0.171691
	C170	C	0.119587	0.384445	0.813592
	C171	C	0.875510	0.602893	0.812416
	C172	C	0.176016	0.873154	0.383263
	C173	C	0.179436	0.115952	0.603452
	C174	C	0.817986	0.115075	0.384179
	C175	C	0.819246	0.871628	0.603967
	C176	C	0.389187	0.174901	0.868505
	C177	C	0.607147	0.173400	0.115195
	C178	C	0.388057	0.812352	0.115089
	C179	C	0.608731	0.814583	0.871796
	C180	C	0.387764	0.870273	0.172495
	C181	C	0.607015	0.115697	0.172778
	C182	C	0.388280	0.115512	0.812725
	C183	C	0.608803	0.872548	0.814166
	C184	C	0.875864	0.172782	0.383975
	C185	C	0.122586	0.174589	0.603194
	C186	C	0.118601	0.815207	0.383198
	C187	C	0.876369	0.813418	0.603620
	C188	C	0.178297	0.385141	0.870753
	C189	C	0.177015	0.604389	0.113497
	C190	C	0.817588	0.384113	0.115889
	C191	C	0.819117	0.603793	0.871770
	C192	C	0.401840	0.083377	0.590299
	C193	C	0.593676	0.903758	0.590473
	C194	C	0.594303	0.083333	0.397254
	C195	C	0.400101	0.902569	0.396151
	C196	C	0.593336	0.397305	0.083539
	C197	C	0.595516	0.591815	0.901459
	C198	C	0.402879	0.590198	0.083438
	C199	C	0.402068	0.397370	0.902537
	C200	C	0.089662	0.591857	0.396011
	C201	C	0.907232	0.589828	0.589334
	C202	C	0.089170	0.397084	0.590279
	C203	C	0.907684	0.396111	0.396750
	C204	C	0.900709	0.584416	0.091363
	C205	C	0.095381	0.403061	0.090997
	C206	C	0.093298	0.583941	0.896741
	C207	C	0.901224	0.403619	0.897299
	C208	C	0.094648	0.896075	0.585050
	C209	C	0.095246	0.091765	0.402503
	C210	C	0.902888	0.089312	0.584464
	C211	C	0.900538	0.895650	0.402196
	C212	C	0.588981	0.090215	0.898011
	C213	C	0.406494	0.089734	0.088089
	C214	C	0.588505	0.897370	0.089404
	C215	C	0.407169	0.896306	0.896944
	Zn216	Zn	0.498531	-0.006507	0.744188
	Zn217	Zn	0.497298	-0.006821	0.242493
	Zn218	Zn	0.747817	0.494079	-0.006498
	Zn219	Zn	0.248418	0.493944	-0.006579
	Zn220	Zn	-0.001704	0.743458	0.493544
	Zn221	Zn	-0.001701	0.243576	0.493464
	Zn222	Zn	-0.002198	0.493571	0.743076
	Zn223	Zn	-0.001357	0.493610	0.243954
	Zn224	Zn	0.498419	0.743727	-0.007331
	Zn225	Zn	0.497612	0.243519	-0.007108
	Zn226	Zn	0.748296	-0.007348	0.494031
	Zn227	Zn	0.247427	-0.006756	0.493623
	N228	N	0.410160	0.959010	0.675007
	N229	N	0.585331	0.028800	0.674228
	N230	N	0.584749	0.958878	0.313164
	N231	N	0.410437	0.027888	0.312855
	N232	N	0.677018	0.408094	0.958111
	N233	N	0.677279	0.580131	0.028345
	N234	N	0.319235	0.579599	0.957739
	N235	N	0.318223	0.406582	0.028080
	N236	N	0.963273	0.673548	0.406357
	N237	N	0.033420	0.673044	0.580008
	N238	N	0.964054	0.312280	0.581443
	N239	N	0.033909	0.314010	0.407147
	N240	N	0.962580	0.407389	0.672247
	N241	N	0.033288	0.580089	0.673059
	N242	N	0.962741	0.579474	0.314105
	N243	N	0.034386	0.407962	0.314888
	N244	N	0.412289	0.673084	0.957382
	N245	N	0.586511	0.675202	0.026867
	N246	N	0.585945	0.312778	0.959112
	N247	N	0.409672	0.312050	0.026864
	N248	N	0.677395	0.958053	0.407258
	N249	N	0.679049	0.027918	0.581339
	N250	N	0.317965	0.958097	0.580297
	N251	N	0.317387	0.027908	0.406330
	N252	N	0.911602	0.458273	0.173636
	N253	N	0.084493	0.529298	0.172720
	N254	N	0.083007	0.458313	0.814464
	N255	N	0.910093	0.528146	0.812306
	N256	N	0.176281	0.907853	0.458376
	N257	N	0.178071	0.080154	0.528929
	N258	N	0.818783	0.079388	0.458827
	N259	N	0.818868	0.906866	0.529018
	N260	N	0.464077	0.175064	0.904302
	N261	N	0.532459	0.172874	0.078982
	N262	N	0.462919	0.813151	0.079495
	N263	N	0.533449	0.813924	0.906593
	N264	N	0.462290	0.906629	0.172114
	N265	N	0.532286	0.079771	0.171949
	N266	N	0.462633	0.079021	0.814603
	N267	N	0.533798	0.907586	0.814382
	N268	N	0.912182	0.172525	0.458539
	N269	N	0.086326	0.174587	0.528533
	N270	N	0.083631	0.814642	0.458272
	N271	N	0.911117	0.813122	0.528468
	N272	N	0.177520	0.459254	0.906763
	N273	N	0.177474	0.529399	0.079150
	N274	N	0.817383	0.458912	0.081063
	N275	N	0.819535	0.529666	0.908248
	O276	O	0.142095	0.789870	-0.209929
	H277	H	0.147732	0.792952	-0.203274
	H278	H	0.166810	0.796996	-0.213215
	O279	O	0.367467	0.353278	0.507397
	H280	H	0.348851	0.340343	0.505609
	H281	H	0.362725	0.369404	0.519797
	O282	O	1.171798	0.007811	1.136017
	H283	H	1.178835	0.021464	1.152113
	H284	H	1.173866	0.021138	1.137964
	O285	O	0.597538	0.342884	0.684556
	H286	H	0.601441	0.360399	0.675723
	H287	H	0.579957	0.354811	0.662720
	O288	O	0.467797	0.269231	0.712126
	H289	H	0.478347	0.287148	0.721338
	H290	H	0.469173	0.260271	0.740757
	O291	O	0.311936	0.672409	0.668152
	H292	H	0.331927	0.669619	0.649868
	H293	H	0.313874	0.656084	0.661345
	O294	O	0.930752	0.041230	0.985901
	H295	H	0.921012	0.069895	0.978437
	H296	H	0.936073	0.033984	0.984280
	O297	O	0.494047	0.708964	0.331424
	H298	H	0.478689	0.707247	0.325676
	H299	H	0.494677	0.726459	0.318101
	O300	O	-0.040699	0.208607	0.774584
	H301	H	-0.041731	0.202277	0.765602
	H302	H	-0.039109	0.223289	0.758105
	O303	O	0.711079	0.531140	0.711409
	H304	H	0.738201	0.530648	0.720004
	H305	H	0.714047	0.529457	0.693470
	O306	O	0.645664	0.529616	0.443232
	H307	H	0.643053	0.538257	0.442831
	H308	H	0.648572	0.520485	0.429711
	O309	O	0.532128	0.716747	0.711388
	H310	H	0.553857	0.717413	0.711066
	H311	H	0.542434	0.734959	0.728751
	O312	O	0.702274	0.402697	0.589948
	H313	H	0.702332	0.409198	0.558705
	H314	H	0.687294	0.401979	0.579448
	O315	O	0.990655	0.776819	0.846110
	H316	H	1.006665	0.786622	0.833893
	H317	H	1.004627	0.777088	0.831989
	O318	O	0.310301	0.307788	0.311905
	H319	H	0.328861	0.314054	0.328130
	H320	H	0.321800	0.328559	0.332851
	O321	O	0.211419	0.958635	0.778706
	H322	H	0.222112	0.953017	0.784888
	H323	H	0.225285	0.966118	0.767820
	O324	O	0.900785	0.920910	-0.024904
	H325	H	0.895911	0.921838	-0.014969
	H326	H	0.919816	0.933462	-0.033646
	O327	O	-0.006572	0.152369	1.137050
	H328	H	-0.001242	0.164387	1.143990
	H329	H	0.002075	0.150963	1.128298
	O330	O	0.706966	0.277253	0.469133
	H331	H	0.717791	0.260025	0.453236
	H332	H	0.703901	0.270742	0.452633
	O333	O	0.524260	0.467194	0.571817
	H334	H	0.536532	0.469934	0.571583
	H335	H	0.512549	0.460692	0.562207
	O336	O	0.710551	0.281276	0.282678
	H337	H	0.687467	0.289022	0.293122
	H338	H	0.739913	0.253599	0.251655
	O339	O	1.262061	0.258354	0.719101
	H340	H	1.289473	0.274673	0.715031
	H341	H	1.271332	0.269088	0.726987
	O342	O	-0.013964	-0.200424	0.158574
	H343	H	-0.030046	-0.208992	0.145857
	H344	H	-0.018469	-0.200469	0.172630
	O345	O	0.018538	0.896847	1.154962
	H346	H	0.011765	0.902153	1.154122
	H347	H	0.007487	0.895630	1.151589
	O348	O	0.369191	0.266898	0.474829
	H349	H	0.383468	0.260323	0.506692
	H350	H	0.336644	0.252083	0.488362
	O351	O	0.687826	0.684811	0.301645
	H352	H	0.671080	0.668371	0.326779
	H353	H	0.662989	0.666486	0.310319
	O354	O	-0.162714	0.023070	1.022537
	H355	H	-0.165807	0.015699	1.018008
	H356	H	-0.157124	0.011161	1.048898
	O357	O	0.714465	0.448070	0.282801
	H358	H	0.729732	0.445992	0.260603
	H359	H	0.707476	0.435211	0.279287
	O360	O	0.296472	0.417138	0.680128
	H361	H	0.299761	0.437125	0.678798
	H362	H	0.304687	0.426988	0.685503
	O363	O	-0.036782	0.211176	-0.005377
	H364	H	-0.044015	0.207593	-0.015898
	H365	H	-0.020746	0.214159	-0.006815
	O366	O	0.720352	0.717463	0.531281
	H367	H	0.741544	0.735314	0.542802
	H368	H	0.725445	0.722506	0.560040
	O369	O	0.795070	0.174830	-0.015376
	H370	H	0.791703	0.163852	-0.017274
	H371	H	0.785782	0.183962	-0.030031
	O372	O	0.783482	0.777765	0.031955
	H373	H	0.784742	0.775040	0.028513
	H374	H	0.770516	0.757245	0.037047
	O375	O	0.780374	-0.031671	0.210713
	H376	H	0.756091	-0.046011	0.229534
	H377	H	0.787118	-0.068982	0.207730
	O378	O	0.326611	0.488058	0.473239
	H379	H	0.330943	0.478292	0.465848
	H380	H	0.329368	0.493241	0.455216
	O381	O	0.034176	0.993364	0.800311
	H382	H	0.024813	1.002428	0.802375
	H383	H	0.049761	0.992679	0.795963
	O384	O	1.027789	-0.034050	0.828602
	H385	H	1.034563	-0.031882	0.830350
	H386	H	1.027263	-0.021571	0.839816
	O387	O	0.925281	0.960341	0.022597
	H388	H	0.917518	0.954376	0.027419
	H389	H	0.926595	0.959181	0.014902
	O390	O	0.532573	0.272702	0.270324
	H391	H	0.537817	0.249637	0.253207
	H392	H	0.537270	0.269634	0.275043
	O393	O	0.520394	0.675414	0.503077
	H394	H	0.527426	0.671660	0.513659
	H395	H	0.533639	0.679409	0.511699
	O396	O	-0.007746	0.968724	1.028074
	H397	H	-0.018507	0.962190	1.028142
	H398	H	0.004853	0.967692	1.024240
	O399	O	0.209024	-0.218014	0.963153
	H400	H	0.214523	-0.224256	0.970070
	H401	H	0.209636	-0.215673	0.963178
	O402	O	0.561287	0.562067	0.280506
	H403	H	0.542075	0.577754	0.281044
	H404	H	0.560244	0.544718	0.274770
	O405	O	0.996181	-0.010368	1.051762
	H406	H	0.993760	-0.017085	1.054513
	H407	H	1.001055	-0.001537	1.036559
	O408	O	0.211345	0.157226	0.061191
	H409	H	0.215241	0.158817	0.083936
	H410	H	0.214174	0.172065	0.069341
	O411	O	0.703333	0.703029	0.702274
	H412	H	0.697271	0.671890	0.702526
	H413	H	0.737008	0.731989	0.735344
	O414	O	0.516697	0.512222	0.688775
	H415	H	0.521761	0.523353	0.683988
	H416	H	0.531891	0.520155	0.690838
	O417	O	0.573604	0.621283	0.526959
	H418	H	0.586598	0.628364	0.532103
	H419	H	0.571652	0.621478	0.503805
	O420	O	0.214216	0.972553	0.898605
	H421	H	0.211466	0.965658	0.892723
	H422	H	0.217783	0.986080	0.898327
	O423	O	0.110680	0.133771	0.887282
	H424	H	0.112443	0.144478	0.871986
	H425	H	0.124198	0.132050	0.896046
	O426	O	0.286643	0.701291	0.395340
	H427	H	0.278900	0.717493	0.397333
	H428	H	0.281833	0.708825	0.421918
	O429	O	0.809153	1.179484	1.180030
	H430	H	0.824167	1.165420	1.161262
	H431	H	0.816728	1.156977	1.160737
	O432	O	0.586607	0.440783	0.456695
	H433	H	0.580394	0.422204	0.451694
	H434	H	0.580873	0.447479	0.456733
	O435	O	-0.020879	0.969924	0.096189
	H436	H	-0.025403	0.957472	0.088351
	H437	H	-0.016585	0.976301	0.099311
	O438	O	0.112636	0.157420	0.179119
	H439	H	0.109109	0.155425	0.168252
	H440	H	0.117459	0.174791	0.190072
	O441	O	0.103291	0.136335	0.192457
	H442	H	0.081559	0.148875	0.190168
	H443	H	0.095212	0.154747	0.213966
	O444	O	0.524458	0.265282	0.490935
	H445	H	0.529628	0.265379	0.495770
	H446	H	0.537412	0.259429	0.510561
	O447	O	0.214744	0.959844	1.042346
	H448	H	0.199211	0.958536	1.030790
	H449	H	0.219977	0.985044	1.067660
	O450	O	0.189956	0.798735	1.189649
	H451	H	0.180926	0.815056	1.166393
	H452	H	0.159129	0.816850	1.179297
	O453	O	0.414373	0.517619	0.709977
	H454	H	0.422122	0.535890	0.699038
	H455	H	0.423794	0.535710	0.716193
	O456	O	0.135444	0.132026	0.814708
	H457	H	0.150118	0.151576	0.803445
	H458	H	0.134790	0.124620	0.821539
	O459	O	0.790698	0.787971	0.204072
	H460	H	0.802389	0.771992	0.202701
	H461	H	0.768281	0.762535	0.211300
	O462	O	0.386801	0.500209	0.387929
	H463	H	0.383423	0.486978	0.395451
	H464	H	0.376696	0.508517	0.375249
	O465	O	0.792423	0.013019	-0.214216
	H466	H	0.802012	0.031775	-0.204826
	H467	H	0.771929	0.028557	-0.229203
	O468	O	0.280099	0.522399	0.269789
	H469	H	0.268122	0.544120	0.254238
	H470	H	0.271762	0.545584	0.263690
	O471	O	0.390128	0.528436	0.498186
	H472	H	0.395091	0.525306	0.492885
	H473	H	0.399969	0.529490	0.496738
	O474	O	0.349455	0.708590	0.277907
	H475	H	0.317510	0.726848	0.266587
	H476	H	0.341121	0.723581	0.292239
	O477	O	0.344226	0.614327	1.539190
	H478	H	0.345591	0.621156	1.540884
	H479	H	0.364731	0.614137	1.524169
	O480	O	0.491347	0.452280	0.340097
	H481	H	0.497174	0.440846	0.347434
	H482	H	0.480099	0.455581	0.325327
	O483	O	0.530450	0.390053	0.470160
	H484	H	0.523140	0.394360	0.465126
	H485	H	0.523341	0.371952	0.478603
	O486	O	0.774334	0.208966	0.784412
	H487	H	0.749832	0.233827	0.768488
	H488	H	0.785237	0.216790	0.785835
	O489	O	0.809573	0.802863	-0.195848
	H490	H	0.830446	0.824368	-0.181777
	H491	H	0.828382	0.820036	-0.175206
