data_Molecule from HDF5

_cell_length_a		16.238781
_cell_length_b		16.366360
_cell_length_c		16.208860
_cell_angle_alpha	89.923633
_cell_angle_beta	90.271965
_cell_angle_gamma	90.028703
_symmetry_space_group_name_H-M	'P 1'
_symmetry_Int_Tables_number		1

loop_
	_symmetry_equiv_pos_as_xyz
	x,y,z

loop_
	_atom_site_label
	_atom_site_type_symbol
	_atom_site_fract_x
	_atom_site_fract_y
	_atom_site_fract_z
	H0	H	0.403842	0.846136	0.721833
	H1	H	0.600357	0.171853	0.722191
	H2	H	0.599025	0.845724	0.293293
	H3	H	0.400391	0.171427	0.290822
	H4	H	0.713975	0.412720	0.842104
	H5	H	0.715322	0.605912	0.171792
	H6	H	0.287377	0.609447	0.842908
	H7	H	0.288249	0.412318	0.170951
	H8	H	0.837840	0.724935	0.406518
	H9	H	0.164705	0.726321	0.607799
	H10	H	0.838462	0.293012	0.606919
	H11	H	0.165270	0.292731	0.406532
	H12	H	0.836842	0.412523	0.719283
	H13	H	0.166598	0.606356	0.720128
	H14	H	0.837520	0.607249	0.292800
	H15	H	0.166586	0.411928	0.293602
	H16	H	0.402960	0.724542	0.842610
	H17	H	0.601617	0.724205	0.170897
	H18	H	0.600697	0.294522	0.843390
	H19	H	0.400923	0.294431	0.170320
	H20	H	0.715854	0.845820	0.409881
	H21	H	0.717976	0.171128	0.607347
	H22	H	0.287029	0.846457	0.605317
	H23	H	0.286089	0.172585	0.407530
	H24	H	0.903395	0.347150	0.221512
	H25	H	0.101077	0.673408	0.222176
	H26	H	0.098252	0.346366	0.793192
	H27	H	0.902303	0.672145	0.790972
	H28	H	0.213578	0.911930	0.342417
	H29	H	0.215949	0.107740	0.671295
	H30	H	0.785429	0.107746	0.342931
	H31	H	0.791035	0.912676	0.671665
	H32	H	0.337630	0.225640	0.906444
	H33	H	0.664952	0.226549	0.108645
	H34	H	0.338103	0.794103	0.105709
	H35	H	0.665781	0.795539	0.909524
	H36	H	0.336615	0.912609	0.218939
	H37	H	0.665512	0.107793	0.222536
	H38	H	0.337554	0.108010	0.791439
	H39	H	0.666695	0.912302	0.795117
	H40	H	0.899800	0.225032	0.342705
	H41	H	0.103121	0.226174	0.670362
	H42	H	0.100551	0.794417	0.343807
	H43	H	0.901721	0.793691	0.669828
	H44	H	0.216171	0.347262	0.908215
	H45	H	0.216895	0.673133	0.104761
	H46	H	0.786792	0.347457	0.105966
	H47	H	0.786484	0.672787	0.906838
	H48	H	0.412430	0.123119	0.599039
	H49	H	0.598527	0.892048	0.598878
	H50	H	0.591533	0.124616	0.413333
	H51	H	0.407679	0.894190	0.416824
	H52	H	0.591869	0.422063	0.121793
	H53	H	0.596181	0.606441	0.888800
	H54	H	0.409278	0.603405	0.124883
	H55	H	0.400987	0.417395	0.887899
	H56	H	0.119260	0.607520	0.418212
	H57	H	0.883481	0.602711	0.602364
	H58	H	0.115262	0.415789	0.591371
	H59	H	0.887670	0.418968	0.419120
	H60	H	0.116257	0.424602	0.601047
	H61	H	0.884239	0.606094	0.597228
	H62	H	0.116346	0.599130	0.418756
	H63	H	0.885188	0.418947	0.409484
	H64	H	0.410122	0.603230	0.123756
	H65	H	0.595499	0.601387	0.889772
	H66	H	0.591868	0.412809	0.123844
	H67	H	0.411534	0.424700	0.892590
	H68	H	0.594071	0.123145	0.418012
	H69	H	0.596732	0.891027	0.605591
	H70	H	0.405697	0.125373	0.597513
	H71	H	0.404632	0.891797	0.413673
	H72	H	0.909606	0.626778	0.102594
	H73	H	0.095319	0.393235	0.103967
	H74	H	0.093205	0.625157	0.913423
	H75	H	0.895728	0.390094	0.913222
	H76	H	0.082854	0.910912	0.622633
	H77	H	0.100227	0.095530	0.390563
	H78	H	0.906131	0.099697	0.624135
	H79	H	0.914793	0.914767	0.390845
	H80	H	0.617525	0.098728	0.912506
	H81	H	0.383305	0.113689	0.093379
	H82	H	0.619677	0.916808	0.102640
	H83	H	0.381382	0.913216	0.905642
	H84	H	0.618777	0.914554	0.100713
	H85	H	0.390153	0.093467	0.090943
	H86	H	0.620482	0.109222	0.912835
	H87	H	0.385520	0.910551	0.921327
	H88	H	0.914854	0.100391	0.621052
	H89	H	0.083706	0.100348	0.393473
	H90	H	0.104060	0.909727	0.629198
	H91	H	0.903067	0.911801	0.385738
	H92	H	0.096685	0.625946	0.913907
	H93	H	0.091265	0.396339	0.098400
	H94	H	0.908985	0.625441	0.098205
	H95	H	0.914991	0.392804	0.903255
	H96	H	0.407901	0.126520	0.603332
	H97	H	0.592184	0.893687	0.601365
	H98	H	0.596469	0.125835	0.414005
	H99	H	0.409538	0.892744	0.412539
	H100	H	0.599449	0.417967	0.125345
	H101	H	0.591582	0.604307	0.890450
	H102	H	0.409622	0.603892	0.124185
	H103	H	0.413798	0.411016	0.889526
	H104	H	0.119525	0.602677	0.410961
	H105	H	0.886331	0.600410	0.596533
	H106	H	0.120765	0.412889	0.603097
	H107	H	0.883950	0.411321	0.414976
	H108	H	0.905722	0.627498	0.100618
	H109	H	0.098460	0.394258	0.097281
	H110	H	0.095063	0.626279	0.911214
	H111	H	0.912605	0.398472	0.924892
	H112	H	0.096292	0.928411	0.621467
	H113	H	0.095762	0.111803	0.386506
	H114	H	0.910480	0.107735	0.625614
	H115	H	0.905892	0.923536	0.390499
	H116	H	0.616078	0.104255	0.922330
	H117	H	0.382266	0.100173	0.110041
	H118	H	0.617725	0.917352	0.099855
	H119	H	0.387897	0.925238	0.914674
	C120	C	0.379903	0.017594	0.629001
	C121	C	0.624372	1.000083	0.630064
	C122	C	0.622372	0.016807	0.386618
	C123	C	0.378409	1.000836	0.384937
	C124	C	0.622688	0.388771	0.015347
	C125	C	0.623585	0.631724	0.998338
	C126	C	0.381054	0.631782	0.015334
	C127	C	0.380048	0.388957	0.998225
	C128	C	0.009961	0.631622	0.386011
	C129	C	0.993205	0.631399	0.628014
	C130	C	0.009722	0.388230	0.627884
	C131	C	0.993811	0.387965	0.385618
	C132	C	0.880068	0.518638	0.128955
	C133	C	0.123939	0.502082	0.128779
	C134	C	0.123519	0.518338	0.884623
	C135	C	0.879274	0.501486	0.884763
	C136	C	0.122522	0.888186	0.515763
	C137	C	0.122888	0.131255	0.498412
	C138	C	0.880082	0.131178	0.515106
	C139	C	0.880226	0.888366	0.497829
	C140	C	0.509663	0.132046	0.886115
	C141	C	0.493198	0.131649	0.128524
	C142	C	0.510074	0.887932	0.128746
	C143	C	0.493614	0.888584	0.886149
	C144	C	0.382892	0.894879	0.683967
	C145	C	0.621103	0.123112	0.684455
	C146	C	0.619326	0.894215	0.331499
	C147	C	0.380574	0.122933	0.329006
	C148	C	0.676796	0.391826	0.891501
	C149	C	0.678039	0.627484	0.122456
	C150	C	0.325535	0.629205	0.891641
	C151	C	0.325585	0.391466	0.122060
	C152	C	0.886793	0.686670	0.387001
	C153	C	0.116138	0.687231	0.627164
	C154	C	0.886812	0.331852	0.626407
	C155	C	0.116867	0.331577	0.386803
	C156	C	0.886146	0.390998	0.682515
	C157	C	0.116968	0.628076	0.683268
	C158	C	0.886571	0.627935	0.330631
	C159	C	0.117444	0.390941	0.330891
	C160	C	0.382734	0.686736	0.891734
	C161	C	0.621667	0.686134	0.122028
	C162	C	0.620473	0.333182	0.892029
	C163	C	0.381649	0.332988	0.121531
	C164	C	0.677507	0.894295	0.389101
	C165	C	0.679689	0.122652	0.627764
	C166	C	0.324904	0.894952	0.626173
	C167	C	0.323537	0.123380	0.387096
	C168	C	0.883155	0.395844	0.183773
	C169	C	0.121321	0.624688	0.184024
	C170	C	0.119910	0.395250	0.830124
	C171	C	0.881804	0.623786	0.829117
	C172	C	0.176947	0.890973	0.391863
	C173	C	0.178582	0.128842	0.622110
	C174	C	0.823338	0.128605	0.391993
	C175	C	0.827047	0.891053	0.622117
	C176	C	0.386499	0.187422	0.886620
	C177	C	0.616062	0.187757	0.127929
	C178	C	0.386571	0.832868	0.125663
	C179	C	0.617081	0.833424	0.889013
	C180	C	0.386022	0.891431	0.182153
	C181	C	0.616510	0.128622	0.184322
	C182	C	0.386375	0.128609	0.830010
	C183	C	0.617666	0.891635	0.832339
	C184	C	0.880537	0.186653	0.391684
	C185	C	0.122273	0.187475	0.621564
	C186	C	0.120732	0.832605	0.392374
	C187	C	0.882273	0.832237	0.621250
	C188	C	0.178365	0.395756	0.887241
	C189	C	0.179264	0.624569	0.126098
	C190	C	0.825241	0.395935	0.126258
	C191	C	0.824410	0.623909	0.886867
	C192	C	0.402156	0.102912	0.606630
	C193	C	0.602612	0.914446	0.608248
	C194	C	0.600572	0.102468	0.408624
	C195	C	0.400712	0.915071	0.407585
	C196	C	0.600759	0.411013	0.101377
	C197	C	0.601118	0.610331	0.911939
	C198	C	0.403025	0.609982	0.101957
	C199	C	0.402045	0.411197	0.912216
	C200	C	0.096262	0.609608	0.409206
	C201	C	0.906845	0.609541	0.605507
	C202	C	0.095357	0.411025	0.605173
	C203	C	0.907979	0.409964	0.407956
	C204	C	0.901721	0.604314	0.107140
	C205	C	0.101768	0.416713	0.106450
	C206	C	0.101549	0.603615	0.906416
	C207	C	0.901413	0.415827	0.907248
	C208	C	0.100787	0.909884	0.602236
	C209	C	0.099813	0.109198	0.412233
	C210	C	0.903499	0.108937	0.601285
	C211	C	0.901554	0.910280	0.411264
	C212	C	0.595722	0.110430	0.909061
	C213	C	0.407417	0.109191	0.104912
	C214	C	0.596553	0.909620	0.107404
	C215	C	0.407374	0.909997	0.907636
	Zn216	Zn	0.501976	0.009461	0.757885
	Zn217	Zn	0.501053	0.009250	0.256987
	Zn218	Zn	0.751327	0.510028	0.006532
	Zn219	Zn	0.252555	0.510177	0.006482
	Zn220	Zn	0.001149	0.760373	0.506719
	Zn221	Zn	0.001979	0.259439	0.506990
	Zn222	Zn	0.001640	0.509634	0.756456
	Zn223	Zn	0.002124	0.509958	0.257700
	Zn224	Zn	0.501689	0.759914	0.007072
	Zn225	Zn	0.501072	0.260706	0.007198
	Zn226	Zn	0.752271	0.008451	0.507652
	Zn227	Zn	0.250373	0.009418	0.506938
	N228	N	0.416176	0.972188	0.685897
	N229	N	0.587509	0.045985	0.686145
	N230	N	0.585765	0.971525	0.329893
	N231	N	0.414206	0.045772	0.327797
	N232	N	0.678300	0.425712	0.969149
	N233	N	0.679215	0.594392	0.044604
	N234	N	0.324536	0.595429	0.969517
	N235	N	0.324546	0.425701	0.044534
	N236	N	0.964763	0.689020	0.420521
	N237	N	0.038196	0.689281	0.593599
	N238	N	0.964612	0.330105	0.593135
	N239	N	0.039051	0.329449	0.419913
	N240	N	0.963465	0.425439	0.683402
	N241	N	0.039454	0.593831	0.683781
	N242	N	0.964198	0.594271	0.330071
	N243	N	0.040177	0.425229	0.330013
	N244	N	0.416434	0.688357	0.969605
	N245	N	0.588326	0.688786	0.043895
	N246	N	0.587552	0.331174	0.970008
	N247	N	0.414771	0.331427	0.043702
	N248	N	0.679405	0.971416	0.422627
	N249	N	0.681620	0.045278	0.594513
	N250	N	0.322920	0.972211	0.592608
	N251	N	0.322236	0.046326	0.421287
	N252	N	0.916548	0.473269	0.185672
	N253	N	0.087596	0.547729	0.185620
	N254	N	0.086500	0.472385	0.828473
	N255	N	0.915491	0.546662	0.827873
	N256	N	0.177972	0.924955	0.469468
	N257	N	0.179110	0.094636	0.544609
	N258	N	0.823088	0.094844	0.469816
	N259	N	0.825813	0.925375	0.544650
	N260	N	0.464347	0.189842	0.920431
	N261	N	0.538273	0.189601	0.093994
	N262	N	0.464869	0.830402	0.093423
	N263	N	0.539099	0.831440	0.921825
	N264	N	0.463642	0.925054	0.183994
	N265	N	0.538970	0.094519	0.185048
	N266	N	0.463937	0.094973	0.829418
	N267	N	0.540045	0.925418	0.830520
	N268	N	0.915024	0.188515	0.469347
	N269	N	0.088479	0.188963	0.543644
	N270	N	0.087540	0.830894	0.470282
	N271	N	0.914821	0.830598	0.543059
	N272	N	0.180761	0.473129	0.920326
	N273	N	0.180992	0.547456	0.092456
	N274	N	0.823113	0.473198	0.092914
	N275	N	0.822707	0.546711	0.920640
	O276	O	0.508937	0.452472	0.484753
	H277	H	0.506972	0.440867	0.491683
	H278	H	0.500504	0.452172	0.489903
	O279	O	0.043313	0.103601	0.006457
	H280	H	0.031174	0.095220	0.006865
	H281	H	0.047637	0.103227	0.008147
	O282	O	0.494225	0.459717	0.497810
	H283	H	0.494905	0.460846	0.502044
	H284	H	0.491873	0.462944	0.503417
	O285	O	0.457543	0.478564	0.528268
	H286	H	0.454256	0.484862	0.526034
	H287	H	0.456400	0.482159	0.536155
	O288	O	1.011428	0.085499	0.008428
	H289	H	1.014373	0.085750	0.006087
	H290	H	1.004559	0.088963	0.008435
	O291	O	-0.494258	0.411995	-0.547177
	H292	H	-0.497612	0.410400	-0.545822
	H293	H	-0.506371	0.413651	-0.545722
	O294	O	0.510271	0.444689	0.489353
	H295	H	0.511198	0.434120	0.475349
	H296	H	0.513647	0.446834	0.478115
	O297	O	0.046221	1.105228	0.006632
	H298	H	0.051994	1.108366	0.003948
	H299	H	0.051411	1.102306	0.004657
	O300	O	1.455887	-0.531938	0.470950
	H301	H	1.460837	-0.535410	0.459119
	H302	H	1.458046	-0.532785	0.465967
	O303	O	0.543227	0.394091	0.419851
	H304	H	0.554127	0.390971	0.418470
	H305	H	0.548036	0.392469	0.411416
	O306	O	0.038502	1.122578	0.991078
	H307	H	0.034185	1.135064	0.990680
	H308	H	0.046164	1.128314	0.990620
	O309	O	0.506764	0.368036	0.534402
	H310	H	0.501097	0.367433	0.536958
	H311	H	0.504194	0.368554	0.539977
