data_Molecule from HDF5

_cell_length_a		16.294930
_cell_length_b		16.258619
_cell_length_c		16.235638
_cell_angle_alpha	89.719800
_cell_angle_beta	89.665697
_cell_angle_gamma	89.920986
_symmetry_space_group_name_H-M	'P 1'
_symmetry_Int_Tables_number		1

loop_
	_symmetry_equiv_pos_as_xyz
	x,y,z

loop_
	_atom_site_label
	_atom_site_type_symbol
	_atom_site_fract_x
	_atom_site_fract_y
	_atom_site_fract_z
	H0	H	0.402257	0.846553	0.698880
	H1	H	0.601936	0.172952	0.692376
	H2	H	0.602160	0.844271	0.265528
	H3	H	0.403402	0.171445	0.265402
	H4	H	0.719741	0.409042	0.819129
	H5	H	0.716630	0.607934	0.146421
	H6	H	0.286809	0.609918	0.818594
	H7	H	0.285113	0.406612	0.145041
	H8	H	0.839254	0.725348	0.379990
	H9	H	0.163628	0.722505	0.581692
	H10	H	0.838734	0.290226	0.583359
	H11	H	0.164558	0.291652	0.382396
	H12	H	0.839263	0.404889	0.700555
	H13	H	0.164738	0.604898	0.695229
	H14	H	0.837424	0.607466	0.266698
	H15	H	0.164034	0.406354	0.264400
	H16	H	0.403268	0.725413	0.818523
	H17	H	0.599495	0.723170	0.146588
	H18	H	0.603884	0.293925	0.818719
	H19	H	0.402665	0.292934	0.145440
	H20	H	0.718300	0.844320	0.380205
	H21	H	0.717485	0.171239	0.577476
	H22	H	0.285291	0.845922	0.584764
	H23	H	0.285595	0.170718	0.378828
	H24	H	0.902101	0.343039	0.196726
	H25	H	0.098691	0.670421	0.195417
	H26	H	0.100883	0.342177	0.768741
	H27	H	0.902105	0.669899	0.764662
	H28	H	0.219689	0.907235	0.317421
	H29	H	0.216522	0.107481	0.643974
	H30	H	0.788995	0.107116	0.316330
	H31	H	0.785404	0.906948	0.644522
	H32	H	0.339609	0.226271	0.881536
	H33	H	0.665595	0.222366	0.078670
	H34	H	0.339229	0.794027	0.082670
	H35	H	0.664944	0.793592	0.881515
	H36	H	0.339271	0.909014	0.197005
	H37	H	0.665590	0.106295	0.193943
	H38	H	0.339697	0.111710	0.765102
	H39	H	0.665978	0.911592	0.766421
	H40	H	0.904660	0.222992	0.316899
	H41	H	0.099029	0.219545	0.645052
	H42	H	0.101921	0.791791	0.316964
	H43	H	0.901562	0.791319	0.644548
	H44	H	0.219105	0.344157	0.882804
	H45	H	0.214316	0.671844	0.080106
	H46	H	0.785053	0.344791	0.083344
	H47	H	0.786781	0.670656	0.880931
	H48	H	0.406398	0.126177	0.570655
	H49	H	0.596969	0.890046	0.576239
	H50	H	0.603256	0.126791	0.385440
	H51	H	0.411653	0.894245	0.396456
	H52	H	0.590291	0.411481	0.098735
	H53	H	0.601150	0.609737	0.862757
	H54	H	0.406846	0.601346	0.098921
	H55	H	0.417761	0.422080	0.869769
	H56	H	0.116489	0.594011	0.383572
	H57	H	0.886710	0.598335	0.569948
	H58	H	0.113582	0.423020	0.571115
	H59	H	0.881034	0.408155	0.383558
	H60	H	0.120650	0.411292	0.583995
	H61	H	0.886096	0.594746	0.575043
	H62	H	0.119177	0.603885	0.386313
	H63	H	0.887128	0.411302	0.398739
	H64	H	0.407826	0.601951	0.098515
	H65	H	0.599730	0.591840	0.867772
	H66	H	0.598255	0.415342	0.099907
	H67	H	0.411394	0.409840	0.862617
	H68	H	0.590721	0.123981	0.380407
	H69	H	0.589677	0.892617	0.574683
	H70	H	0.409352	0.125945	0.574320
	H71	H	0.405306	0.889977	0.388460
	H72	H	0.912995	0.622325	0.073782
	H73	H	0.097841	0.389701	0.071373
	H74	H	0.094927	0.624208	0.885470
	H75	H	0.910938	0.390637	0.887727
	H76	H	0.091996	0.915728	0.595887
	H77	H	0.093300	0.098211	0.365127
	H78	H	0.908307	0.090103	0.594910
	H79	H	0.910137	0.914906	0.363770
	H80	H	0.615701	0.103371	0.897093
	H81	H	0.388150	0.097244	0.071460
	H82	H	0.620545	0.917454	0.080538
	H83	H	0.384073	0.903191	0.897865
	H84	H	0.620660	0.907749	0.071043
	H85	H	0.384055	0.100440	0.078819
	H86	H	0.618356	0.093060	0.880206
	H87	H	0.392781	0.931172	0.898291
	H88	H	0.915089	0.103234	0.596457
	H89	H	0.093366	0.102454	0.363835
	H90	H	0.092956	0.911579	0.597867
	H91	H	0.910537	0.915770	0.364225
	H92	H	0.092107	0.622548	0.887023
	H93	H	0.094554	0.389836	0.076821
	H94	H	0.904948	0.624661	0.071409
	H95	H	0.911224	0.391572	0.894138
	H96	H	0.409995	0.123420	0.570461
	H97	H	0.595017	0.892676	0.569123
	H98	H	0.593750	0.121176	0.393724
	H99	H	0.415560	0.891925	0.386034
	H100	H	0.592028	0.420712	0.097346
	H101	H	0.584361	0.603157	0.869559
	H102	H	0.406609	0.602098	0.098516
	H103	H	0.403699	0.422855	0.864712
	H104	H	0.114630	0.597473	0.393215
	H105	H	0.884208	0.600688	0.575228
	H106	H	0.117982	0.405320	0.566044
	H107	H	0.887162	0.423498	0.387289
	H108	H	0.907249	0.625574	0.079153
	H109	H	0.092349	0.391951	0.071550
	H110	H	0.095848	0.622952	0.889006
	H111	H	0.905637	0.389804	0.891838
	H112	H	0.096348	0.914998	0.597939
	H113	H	0.097273	0.099953	0.362672
	H114	H	0.900454	0.101383	0.600619
	H115	H	0.911003	0.915312	0.364870
	H116	H	0.623329	0.111826	0.881093
	H117	H	0.385556	0.105878	0.071954
	H118	H	0.616244	0.920396	0.067947
	H119	H	0.381236	0.919796	0.873656
	C120	C	0.379463	0.017555	0.602739
	C121	C	0.623179	0.999805	0.601392
	C122	C	0.625061	0.016257	0.357814
	C123	C	0.381176	0.999776	0.359856
	C124	C	0.623528	0.387354	-0.009350
	C125	C	0.623611	0.630510	0.974191
	C126	C	0.379419	0.631079	-0.009629
	C127	C	0.381184	0.387836	0.973486
	C128	C	0.009309	0.628359	0.359090
	C129	C	0.992893	0.627590	0.602900
	C130	C	0.010019	0.383790	0.604150
	C131	C	0.992951	0.385399	0.360313
	C132	C	0.879351	0.515869	0.103804
	C133	C	0.122830	0.498716	0.102341
	C134	C	0.123988	0.515237	0.859060
	C135	C	0.880492	0.498828	0.860909
	C136	C	0.123539	0.885218	0.489206
	C137	C	0.123007	0.128652	0.472231
	C138	C	0.879993	0.128392	0.488957
	C139	C	0.880248	0.885509	0.472304
	C140	C	0.511336	0.132389	0.858060
	C141	C	0.493809	0.129799	0.102460
	C142	C	0.510965	0.886660	0.103125
	C143	C	0.493607	0.888320	0.859945
	C144	C	0.381832	0.895095	0.660299
	C145	C	0.621737	0.123562	0.655527
	C146	C	0.622324	0.893122	0.303271
	C147	C	0.382660	0.122379	0.303205
	C148	C	0.680761	0.389086	0.867749
	C149	C	0.678540	0.628366	0.097492
	C150	C	0.324467	0.629880	0.867435
	C151	C	0.324203	0.387938	0.096502
	C152	C	0.887428	0.685938	0.360665
	C153	C	0.115172	0.683925	0.601515
	C154	C	0.887463	0.328102	0.603322
	C155	C	0.115706	0.329660	0.361739
	C156	C	0.887757	0.385287	0.661420
	C157	C	0.115687	0.625390	0.657984
	C158	C	0.886625	0.627517	0.303789
	C159	C	0.115424	0.386682	0.303216
	C160	C	0.382519	0.687114	0.867402
	C161	C	0.620448	0.685754	0.097420
	C162	C	0.623327	0.331810	0.867598
	C163	C	0.382278	0.330839	0.096399
	C164	C	0.680456	0.893240	0.360028
	C165	C	0.679207	0.122587	0.598356
	C166	C	0.323904	0.894743	0.603075
	C167	C	0.324336	0.122082	0.359890
	C168	C	0.881957	0.392210	0.158870
	C169	C	0.119484	0.622026	0.157708
	C170	C	0.122040	0.391798	0.805231
	C171	C	0.881958	0.621125	0.803218
	C172	C	0.180675	0.886944	0.366280
	C173	C	0.178039	0.126513	0.595181
	C174	C	0.826571	0.126881	0.365349
	C175	C	0.823543	0.886921	0.595425
	C176	C	0.388499	0.187988	0.861525
	C177	C	0.616790	0.184758	0.099534
	C178	C	0.388087	0.831908	0.101804
	C179	C	0.616339	0.832030	0.861480
	C180	C	0.388211	0.888894	0.159138
	C181	C	0.616708	0.126788	0.156597
	C182	C	0.388353	0.131042	0.803320
	C183	C	0.616901	0.890656	0.804322
	C184	C	0.883692	0.184941	0.365892
	C185	C	0.120008	0.182709	0.595772
	C186	C	0.122202	0.829714	0.366119
	C187	C	0.881370	0.829555	0.595659
	C188	C	0.180804	0.392780	0.861882
	C189	C	0.177123	0.622566	0.100608
	C190	C	0.823439	0.393154	0.103015
	C191	C	0.824665	0.621647	0.861205
	C192	C	0.402020	0.102992	0.578759
	C193	C	0.600415	0.914284	0.579893
	C194	C	0.602512	0.101917	0.380079
	C195	C	0.404067	0.914270	0.383565
	C196	C	0.600339	0.409433	0.076222
	C197	C	0.601711	0.608081	0.888712
	C198	C	0.400866	0.608350	0.076614
	C199	C	0.404207	0.411477	0.887778
	C200	C	0.094675	0.605267	0.381262
	C201	C	0.907726	0.604657	0.580097
	C202	C	0.095360	0.406520	0.580714
	C203	C	0.907286	0.407754	0.383233
	C204	C	0.901673	0.601963	0.081170
	C205	C	0.101382	0.412924	0.079849
	C206	C	0.101133	0.601020	0.880863
	C207	C	0.902660	0.412904	0.884422
	C208	C	0.100423	0.907557	0.575039
	C209	C	0.101179	0.106678	0.386097
	C210	C	0.901562	0.105090	0.575162
	C211	C	0.903622	0.908504	0.386556
	C212	C	0.597021	0.109417	0.879572
	C213	C	0.407970	0.107786	0.080575
	C214	C	0.596914	0.908686	0.079959
	C215	C	0.408344	0.911184	0.882984
	Zn216	Zn	0.502489	0.010242	0.730155
	Zn217	Zn	0.502316	0.007564	0.230858
	Zn218	Zn	0.752061	0.508150	-0.017276
	Zn219	Zn	0.252074	0.508425	-0.018152
	Zn220	Zn	0.001650	0.756329	0.481246
	Zn221	Zn	0.001791	0.256384	0.481891
	Zn222	Zn	0.001359	0.506099	0.731630
	Zn223	Zn	0.000808	0.507026	0.230641
	Zn224	Zn	0.501268	0.758950	-0.017916
	Zn225	Zn	0.502551	0.258858	-0.018648
	Zn226	Zn	0.752065	0.007060	0.480313
	Zn227	Zn	0.251646	0.008293	0.480422
	N228	N	0.415619	0.972422	0.660370
	N229	N	0.587418	0.046202	0.657638
	N230	N	0.588691	0.970777	0.301558
	N231	N	0.417455	0.045251	0.303155
	N232	N	0.681126	0.422946	0.945235
	N233	N	0.680764	0.594598	0.019895
	N234	N	0.322735	0.595488	0.944964
	N235	N	0.323516	0.422812	0.019107
	N236	N	0.964561	0.686450	0.394413
	N237	N	0.037895	0.685294	0.567985
	N238	N	0.964496	0.327117	0.568235
	N239	N	0.038497	0.328649	0.396305
	N240	N	0.964992	0.419159	0.661901
	N241	N	0.038632	0.590733	0.658894
	N242	N	0.963346	0.592181	0.302901
	N243	N	0.038076	0.420607	0.302252
	N244	N	0.415818	0.687856	0.944939
	N245	N	0.587021	0.687288	0.019797
	N246	N	0.588271	0.330747	0.944799
	N247	N	0.416969	0.330675	0.018920
	N248	N	0.682215	0.970761	0.393225
	N249	N	0.680413	0.044960	0.565541
	N250	N	0.322175	0.972065	0.568128
	N251	N	0.323355	0.044758	0.394571
	N252	N	0.915815	0.469711	0.159663
	N253	N	0.086544	0.544126	0.159340
	N254	N	0.087405	0.468970	0.803182
	N255	N	0.915930	0.543682	0.803093
	N256	N	0.181743	0.920682	0.443804
	N257	N	0.179915	0.093605	0.517364
	N258	N	0.824052	0.092668	0.443003
	N259	N	0.822976	0.921208	0.517769
	N260	N	0.465977	0.188858	0.894601
	N261	N	0.539405	0.186561	0.066318
	N262	N	0.465547	0.830190	0.067825
	N263	N	0.538631	0.830305	0.895336
	N264	N	0.465680	0.922265	0.159849
	N265	N	0.539237	0.093356	0.158536
	N266	N	0.465679	0.096970	0.801067
	N267	N	0.539767	0.925080	0.803198
	N268	N	0.916251	0.185680	0.443926
	N269	N	0.086323	0.184019	0.518266
	N270	N	0.087691	0.828340	0.443736
	N271	N	0.915866	0.828517	0.518259
	N272	N	0.182325	0.470660	0.894405
	N273	N	0.179215	0.545200	0.066852
	N274	N	0.821805	0.470954	0.069559
	N275	N	0.823525	0.544436	0.896244
	O276	O	-0.509105	-0.498311	0.626732
	H277	H	-0.514085	-0.503884	0.632490
	H278	H	-0.509816	-0.480781	0.628081
	O279	O	0.532367	0.397316	0.399046
	H280	H	0.535469	0.395292	0.393435
	H281	H	0.529452	0.397192	0.410894
	O282	O	0.505749	0.475788	0.357628
	H283	H	0.512199	0.470654	0.362754
	H284	H	0.508924	0.463857	0.352607
	O285	O	0.057510	0.967308	0.990704
	H286	H	0.059307	0.958249	0.986015
	H287	H	0.053681	0.960677	0.990301
	O288	O	0.521731	0.547991	0.562970
	H289	H	0.529308	0.557818	0.566225
	H290	H	0.536816	0.554593	0.562021
	O291	O	0.380541	1.664296	1.446775
	H292	H	0.360032	1.684677	1.446076
	H293	H	0.394434	1.648665	1.425591
	O294	O	1.026395	0.981227	0.891726
	H295	H	1.024105	0.976911	0.892877
	H296	H	1.022908	0.986807	0.889781
	O297	O	0.932533	-0.027513	1.070554
	H298	H	0.922258	-0.022896	1.075244
	H299	H	0.931904	-0.024305	1.070013
	O300	O	0.411773	0.468693	0.536776
	H301	H	0.407081	0.474118	0.538925
	H302	H	0.420327	0.462868	0.532092
	O303	O	1.017973	-0.076486	-0.061012
	H304	H	1.023379	-0.086752	-0.068193
	H305	H	1.011734	-0.078478	-0.065036
	O306	O	0.026213	1.041087	1.033706
	H307	H	0.031336	1.043258	1.038278
	H308	H	0.028895	1.035127	1.021744
	O309	O	0.371120	0.596189	0.500032
	H310	H	0.360235	0.598552	0.491893
	H311	H	0.366146	0.601827	0.489045
	O312	O	1.081802	-0.015726	0.930070
	H313	H	1.087317	-0.015876	0.925618
	H314	H	1.082534	-0.023633	0.928925
	O315	O	0.589896	0.495163	0.369752
	H316	H	0.594943	0.488980	0.377215
	H317	H	0.579277	0.485810	0.361534
	O318	O	0.008340	0.043043	0.891331
	H319	H	0.013664	0.033530	0.887877
	H320	H	0.006675	0.050238	0.893964
	O321	O	1.965687	0.036864	1.960569
	H322	H	1.963087	0.037886	1.958308
	H323	H	1.979324	0.039609	1.956211
	O324	O	0.498194	0.469541	0.547415
	H325	H	0.501883	0.461022	0.541616
	H326	H	0.496075	0.479994	0.560286
	O327	O	0.489177	0.587372	0.476893
	H328	H	0.491127	0.587361	0.470605
	H329	H	0.486583	0.578664	0.485629
	O330	O	0.460752	-0.585548	0.544485
	H331	H	0.460584	-0.588400	0.561861
	H332	H	0.438931	-0.586876	0.537676
	O333	O	1.031100	1.004328	-0.082447
	H334	H	1.029856	1.002792	-0.077390
	H335	H	1.028610	0.998776	-0.064934
	O336	O	0.557077	0.622155	0.581852
	H337	H	0.560152	0.611904	0.588156
	H338	H	0.548666	0.624301	0.573769
	O339	O	0.557990	0.423606	0.500351
	H340	H	0.557262	0.422271	0.503130
	H341	H	0.556883	0.423653	0.495621
	O342	O	0.491548	1.524012	0.367291
	H343	H	0.501358	1.524269	0.356738
	H344	H	0.489018	1.510481	0.371844
	O345	O	0.453879	0.511210	0.463470
	H346	H	0.450112	0.500640	0.474975
	H347	H	0.463568	0.518990	0.467256
	O348	O	0.637630	0.605912	0.515224
	H349	H	0.643377	0.610593	0.512757
	H350	H	0.635796	0.614101	0.516658
	O351	O	-0.574780	0.520188	0.312090
	H352	H	-0.558290	0.513732	0.315513
	H353	H	-0.577509	0.507694	0.319777
	O354	O	0.578083	0.422327	0.425424
	H355	H	0.562540	0.426953	0.444216
	H356	H	0.569680	0.419339	0.432342
	O357	O	0.517242	0.479462	0.469399
	H358	H	0.533586	0.477424	0.470381
	H359	H	0.526169	0.471681	0.477139
	O360	O	0.041026	-0.024861	-0.005288
	H361	H	0.046597	-0.027023	-0.009755
	H362	H	0.034428	-0.023019	0.001981
	O363	O	0.457072	0.480112	0.590878
	H364	H	0.444091	0.484751	0.580143
	H365	H	0.455381	0.476641	0.597494
	O366	O	0.035696	-0.006489	0.937285
	H367	H	0.044135	-0.008435	0.931368
	H368	H	0.029991	-0.012628	0.939085
	O369	O	0.538356	0.521756	0.562579
	H370	H	0.538942	0.520942	0.555254
	H371	H	0.543527	0.522722	0.566853
