data_Molecule from HDF5

_cell_length_a		16.147750
_cell_length_b		16.455999
_cell_length_c		16.369481
_cell_angle_alpha	90.297110
_cell_angle_beta	90.045575
_cell_angle_gamma	89.834458
_symmetry_space_group_name_H-M	'P 1'
_symmetry_Int_Tables_number		1

loop_
	_symmetry_equiv_pos_as_xyz
	x,y,z

loop_
	_atom_site_label
	_atom_site_type_symbol
	_atom_site_fract_x
	_atom_site_fract_y
	_atom_site_fract_z
	H0	H	0.387910	0.826268	0.725174
	H1	H	0.600162	0.143059	0.725487
	H2	H	0.597801	0.825547	0.282218
	H3	H	0.390133	0.145372	0.285278
	H4	H	0.713172	0.384388	0.842784
	H5	H	0.708727	0.586524	0.165978
	H6	H	0.274961	0.584843	0.843432
	H7	H	0.277971	0.386220	0.165997
	H8	H	0.828945	0.698676	0.405153
	H9	H	0.154474	0.704270	0.611098
	H10	H	0.830692	0.265474	0.608420
	H11	H	0.155091	0.263015	0.400343
	H12	H	0.829834	0.383601	0.721238
	H13	H	0.155939	0.586198	0.722405
	H14	H	0.829455	0.583588	0.290822
	H15	H	0.155506	0.380447	0.287274
	H16	H	0.388035	0.702949	0.843279
	H17	H	0.599323	0.707533	0.161449
	H18	H	0.602644	0.263252	0.843611
	H19	H	0.390130	0.265145	0.163596
	H20	H	0.707573	0.822544	0.403783
	H21	H	0.712141	0.144143	0.605511
	H22	H	0.279273	0.821479	0.602222
	H23	H	0.273439	0.143893	0.402452
	H24	H	0.887638	0.325225	0.224998
	H25	H	0.095695	0.644379	0.226699
	H26	H	0.101149	0.326256	0.781562
	H27	H	0.886912	0.643794	0.784040
	H28	H	0.210492	0.879376	0.341590
	H29	H	0.212878	0.084577	0.665172
	H30	H	0.777611	0.081500	0.341386
	H31	H	0.774428	0.883774	0.664004
	H32	H	0.331936	0.205453	0.898185
	H33	H	0.657790	0.201663	0.105580
	H34	H	0.331908	0.767303	0.104975
	H35	H	0.656117	0.764135	0.897027
	H36	H	0.330920	0.884175	0.218927
	H37	H	0.657614	0.085970	0.219539
	H38	H	0.331810	0.088642	0.784511
	H39	H	0.657072	0.882383	0.784668
	H40	H	0.884602	0.205841	0.345649
	H41	H	0.101458	0.205330	0.663266
	H42	H	0.096189	0.761013	0.343838
	H43	H	0.887060	0.765398	0.664370
	H44	H	0.213775	0.325230	0.902336
	H45	H	0.208595	0.646699	0.106662
	H46	H	0.775649	0.324564	0.104753
	H47	H	0.777568	0.647043	0.905454
	H48	H	0.407349	0.098159	0.597939
	H49	H	0.577692	0.871738	0.597173
	H50	H	0.587226	0.100335	0.410191
	H51	H	0.402151	0.870976	0.412524
	H52	H	0.577639	0.389114	0.116872
	H53	H	0.578006	0.570835	0.892208
	H54	H	0.406011	0.572793	0.117217
	H55	H	0.404687	0.398068	0.891442
	H56	H	0.110646	0.579151	0.418631
	H57	H	0.879337	0.575274	0.588869
	H58	H	0.110849	0.389521	0.595276
	H59	H	0.880707	0.397454	0.421088
	H60	H	0.107570	0.393109	0.588889
	H61	H	0.877721	0.569626	0.599137
	H62	H	0.106153	0.568662	0.421529
	H63	H	0.875244	0.395700	0.408688
	H64	H	0.409363	0.583230	0.118126
	H65	H	0.583393	0.582796	0.886219
	H66	H	0.590998	0.389727	0.121160
	H67	H	0.408423	0.392808	0.890189
	H68	H	0.582982	0.099396	0.408627
	H69	H	0.581818	0.872675	0.587611
	H70	H	0.406667	0.094170	0.588452
	H71	H	0.400249	0.867380	0.404744
	H72	H	0.896919	0.601778	0.099746
	H73	H	0.074477	0.374929	0.092687
	H74	H	0.080286	0.596699	0.918616
	H75	H	0.899570	0.370124	0.914049
	H76	H	0.087914	0.896444	0.617747
	H77	H	0.082841	0.072340	0.389925
	H78	H	0.900902	0.072316	0.618308
	H79	H	0.909904	0.890252	0.391632
	H80	H	0.607903	0.073552	0.918766
	H81	H	0.377948	0.081305	0.088582
	H82	H	0.609338	0.894938	0.089011
	H83	H	0.376662	0.897211	0.907417
	H84	H	0.609534	0.896780	0.092326
	H85	H	0.380561	0.071350	0.090654
	H86	H	0.609100	0.069670	0.911338
	H87	H	0.377800	0.888825	0.916020
	H88	H	0.907547	0.072981	0.616215
	H89	H	0.080075	0.071627	0.391766
	H90	H	0.079481	0.892795	0.615570
	H91	H	0.900407	0.881742	0.385713
	H92	H	0.086264	0.599449	0.913879
	H93	H	0.093852	0.370757	0.089110
	H94	H	0.909103	0.598644	0.103536
	H95	H	0.905888	0.370870	0.908237
	H96	H	0.398200	0.098732	0.593260
	H97	H	0.587431	0.868453	0.595421
	H98	H	0.584190	0.098509	0.413315
	H99	H	0.408595	0.870857	0.406725
	H100	H	0.584146	0.401096	0.116320
	H101	H	0.592059	0.571476	0.887463
	H102	H	0.399079	0.580374	0.121509
	H103	H	0.402324	0.392259	0.888150
	H104	H	0.110496	0.570829	0.410543
	H105	H	0.872943	0.580608	0.597350
	H106	H	0.108132	0.397922	0.595753
	H107	H	0.875002	0.385776	0.417433
	H108	H	0.905150	0.595786	0.091815
	H109	H	0.086068	0.367068	0.107278
	H110	H	0.078605	0.598484	0.910730
	H111	H	0.907211	0.373247	0.916209
	H112	H	0.085571	0.887897	0.620237
	H113	H	0.080476	0.074300	0.390072
	H114	H	0.904355	0.078147	0.619224
	H115	H	0.896745	0.894414	0.388046
	H116	H	0.611500	0.078256	0.912473
	H117	H	0.376409	0.077638	0.097994
	H118	H	0.610638	0.893106	0.092103
	H119	H	0.381970	0.899209	0.917941
	C120	C	0.372769	-0.008420	0.624217
	C121	C	0.614942	0.976212	0.624587
	C122	C	0.615293	-0.006645	0.380343
	C123	C	0.371917	0.975787	0.379545
	C124	C	0.616587	0.362756	0.012088
	C125	C	0.615506	0.606647	0.994672
	C126	C	0.372422	0.607654	0.012420
	C127	C	0.373394	0.363974	0.995872
	C128	C	0.001409	0.603438	0.386185
	C129	C	0.984003	0.605931	0.626294
	C130	C	0.001759	0.362718	0.625302
	C131	C	0.984215	0.361548	0.384062
	C132	C	0.872049	0.493124	0.127468
	C133	C	0.115405	0.476560	0.128053
	C134	C	0.115263	0.493295	0.882509
	C135	C	0.872224	0.477049	0.882806
	C136	C	0.115009	0.860557	0.511813
	C137	C	0.114353	0.103557	0.496469
	C138	C	0.871949	0.105050	0.512276
	C139	C	0.871102	0.860758	0.495063
	C140	C	0.502715	0.105933	0.882026
	C141	C	0.485908	0.106998	0.123935
	C142	C	0.502549	0.864313	0.122447
	C143	C	0.485806	0.863317	0.881284
	C144	C	0.370773	0.872816	0.684083
	C145	C	0.617645	0.095606	0.684618
	C146	C	0.616070	0.872883	0.321984
	C147	C	0.371132	0.096920	0.323857
	C148	C	0.674724	0.363882	0.890919
	C149	C	0.671614	0.606460	0.116666
	C150	C	0.313756	0.605264	0.891547
	C151	C	0.316025	0.365215	0.117327
	C152	C	0.878299	0.660412	0.385940
	C153	C	0.106164	0.664382	0.628456
	C154	C	0.879440	0.304500	0.626976
	C155	C	0.106483	0.302440	0.382072
	C156	C	0.878998	0.363472	0.683007
	C157	C	0.107042	0.605443	0.683936
	C158	C	0.878169	0.602901	0.329317
	C159	C	0.106746	0.360958	0.326119
	C160	C	0.370467	0.663808	0.891245
	C161	C	0.617370	0.666825	0.114315
	C162	C	0.619510	0.303650	0.891625
	C163	C	0.372062	0.305388	0.116203
	C164	C	0.670794	0.871496	0.382377
	C165	C	0.673637	0.096090	0.625005
	C166	C	0.316645	0.870420	0.622968
	C167	C	0.313064	0.096322	0.382170
	C168	C	0.870139	0.372815	0.184938
	C169	C	0.115051	0.596652	0.186939
	C170	C	0.118593	0.373774	0.822229
	C171	C	0.869853	0.596718	0.824397
	C172	C	0.172311	0.859918	0.390359
	C173	C	0.174141	0.103900	0.616785
	C174	C	0.815165	0.102740	0.390459
	C175	C	0.813062	0.863122	0.616006
	C176	C	0.380776	0.165824	0.879825
	C177	C	0.609007	0.163113	0.124203
	C178	C	0.380408	0.806421	0.123737
	C179	C	0.607627	0.804174	0.879218
	C180	C	0.380011	0.864663	0.180373
	C181	C	0.608864	0.105657	0.181081
	C182	C	0.380409	0.107670	0.823369
	C183	C	0.608047	0.862868	0.823055
	C184	C	0.868497	0.164564	0.392558
	C185	C	0.118544	0.164044	0.615859
	C186	C	0.115400	0.801081	0.391598
	C187	C	0.869158	0.804353	0.616116
	C188	C	0.174997	0.373209	0.882172
	C189	C	0.171428	0.597878	0.127243
	C190	C	0.814126	0.372760	0.125211
	C191	C	0.814915	0.598168	0.884680
	C192	C	0.397073	0.075224	0.600070
	C193	C	0.589619	0.892551	0.600385
	C194	C	0.591793	0.077475	0.403755
	C195	C	0.396421	0.891764	0.401545
	C196	C	0.591490	0.386403	0.096044
	C197	C	0.591488	0.582168	0.910344
	C198	C	0.397357	0.585216	0.096909
	C199	C	0.397879	0.387466	0.912006
	C200	C	0.086940	0.579756	0.410036
	C201	C	0.898823	0.582032	0.602139
	C202	C	0.086667	0.386628	0.600525
	C203	C	0.899222	0.385678	0.408636
	C204	C	0.896705	0.576877	0.104999
	C205	C	0.091784	0.392642	0.103650
	C206	C	0.089452	0.576487	0.907363
	C207	C	0.897020	0.393244	0.906071
	C208	C	0.091288	0.885279	0.595955
	C209	C	0.088706	0.079569	0.412213
	C210	C	0.897086	0.081516	0.596201
	C211	C	0.895508	0.882623	0.410517
	C212	C	0.587415	0.081060	0.907007
	C213	C	0.400434	0.083700	0.099378
	C214	C	0.587764	0.888127	0.098090
	C215	C	0.401057	0.888124	0.906414
	Zn216	Zn	0.493591	-0.014843	0.754056
	Zn217	Zn	0.494248	-0.014415	0.250348
	Zn218	Zn	0.743873	0.485822	0.004440
	Zn219	Zn	0.243957	0.485967	0.005287
	Zn220	Zn	-0.007375	0.732300	0.505023
	Zn221	Zn	-0.006945	0.233940	0.504612
	Zn222	Zn	-0.007045	0.484778	0.753315
	Zn223	Zn	-0.006871	0.484085	0.257498
	Zn224	Zn	0.494206	0.735556	0.002099
	Zn225	Zn	0.494889	0.234056	0.002835
	Zn226	Zn	0.743668	-0.016452	0.502763
	Zn227	Zn	0.243714	-0.017707	0.503004
	N228	N	0.404936	0.949211	0.684959
	N229	N	0.581738	0.019968	0.684355
	N230	N	0.582228	0.949648	0.320434
	N231	N	0.406619	0.020805	0.321855
	N232	N	0.673128	0.399959	0.966794
	N233	N	0.670527	0.569537	0.041121
	N234	N	0.314916	0.571105	0.967949
	N235	N	0.316627	0.400918	0.041559
	N236	N	0.955883	0.660628	0.420722
	N237	N	0.028616	0.665034	0.593717
	N238	N	0.957019	0.303556	0.592223
	N239	N	0.029044	0.302363	0.417134
	N240	N	0.956052	0.398783	0.682241
	N241	N	0.030116	0.570081	0.682993
	N242	N	0.955633	0.567937	0.329425
	N243	N	0.029890	0.396760	0.326980
	N244	N	0.406079	0.665574	0.967508
	N245	N	0.583019	0.666942	0.037495
	N246	N	0.584000	0.302838	0.967915
	N247	N	0.406976	0.304455	0.039607
	N248	N	0.670473	0.947299	0.418102
	N249	N	0.672038	0.020753	0.588382
	N250	N	0.317911	0.945406	0.586323
	N251	N	0.313277	0.020084	0.415831
	N252	N	0.905278	0.448643	0.186695
	N253	N	0.081116	0.520000	0.187680
	N254	N	0.082334	0.449473	0.822261
	N255	N	0.904864	0.520495	0.823238
	N256	N	0.172244	0.896106	0.466236
	N257	N	0.171443	0.066855	0.541260
	N258	N	0.817209	0.066436	0.465845
	N259	N	0.814093	0.897664	0.539734
	N260	N	0.457850	0.164906	0.915693
	N261	N	0.531343	0.164353	0.089650
	N262	N	0.457618	0.806261	0.088261
	N263	N	0.530530	0.804375	0.914582
	N264	N	0.457100	0.900008	0.179535
	N265	N	0.531205	0.071593	0.180966
	N266	N	0.457161	0.071178	0.824655
	N267	N	0.531130	0.899208	0.824351
	N268	N	0.903356	0.165925	0.469339
	N269	N	0.082037	0.164013	0.539938
	N270	N	0.080563	0.801336	0.468196
	N271	N	0.904638	0.802725	0.539883
	N272	N	0.172972	0.448416	0.919035
	N273	N	0.171902	0.522122	0.091486
	N274	N	0.815015	0.448539	0.090294
	N275	N	0.816563	0.522746	0.920549
	O276	O	0.589940	0.413439	0.368498
	H277	H	0.582389	0.433834	0.377845
	H278	H	0.606967	0.402629	0.374762
	O279	O	0.580448	0.577890	0.633223
	H280	H	0.578836	0.582602	0.622457
	H281	H	0.596611	0.565194	0.632124
	O282	O	0.841549	0.062241	0.785135
	H283	H	0.831043	0.055683	0.808178
	H284	H	0.832664	0.060975	0.786275
	O285	O	0.321258	0.441823	0.576082
	H286	H	0.301909	0.434838	0.564554
	H287	H	0.321733	0.436936	0.571006
	O288	O	0.950050	0.914295	1.068130
	H289	H	0.933945	0.909081	1.056594
	H290	H	0.944893	0.924909	1.063232
	O291	O	0.156152	0.988170	-0.151552
	H292	H	0.153108	0.990093	-0.154345
	H293	H	0.161552	1.006960	-0.137675
	O294	O	0.428462	0.540190	0.426978
	H295	H	0.433341	0.545599	0.406207
	H296	H	0.424634	0.547733	0.421566
	O297	O	0.503890	0.364857	0.594864
	H298	H	0.497611	0.355767	0.606020
	H299	H	0.494420	0.372140	0.600576
	O300	O	0.593377	0.455499	0.374094
	H301	H	0.592171	0.460241	0.373575
	H302	H	0.592924	0.452671	0.378051
	O303	O	0.403939	0.324543	0.612616
	H304	H	0.410730	0.317104	0.596793
	H305	H	0.399578	0.300881	0.612772
	O306	O	0.558473	0.460414	0.575895
	H307	H	0.551048	0.466256	0.578699
	H308	H	0.564906	0.452030	0.570295
	O309	O	0.459146	0.542314	0.512479
	H310	H	0.474266	0.552433	0.502151
	H311	H	0.461731	0.537473	0.510000
	O312	O	-0.060347	-0.071841	-0.131527
	H313	H	-0.049708	-0.087166	-0.150929
	H314	H	-0.037384	-0.069125	-0.134706
	O315	O	0.502932	0.586905	0.452632
	H316	H	0.513788	0.594243	0.461165
	H317	H	0.507398	0.591864	0.454993
	O318	O	0.344372	1.540413	1.586009
	H319	H	0.351063	1.557502	1.576747
	H320	H	0.343345	1.546259	1.592899
	O321	O	0.529586	0.338873	0.384369
	H322	H	0.532128	0.330262	0.385716
	H323	H	0.544708	0.347728	0.379382
	O324	O	-0.138007	1.053274	0.042174
	H325	H	-0.137315	1.061904	0.058612
	H326	H	-0.125560	1.042755	0.041345
	O327	O	0.388966	0.642890	0.527786
	H328	H	0.377451	0.640315	0.545169
	H329	H	0.391699	0.655330	0.529703
	O330	O	-0.031950	0.111179	1.010012
	H331	H	-0.030121	0.117939	0.988594
	H332	H	-0.038140	0.109349	1.016317
	O333	O	-0.196919	-0.138798	1.137950
	H334	H	-0.194030	-0.130421	1.129659
	H335	H	-0.202375	-0.137070	1.133402
	O336	O	0.471525	0.423829	0.672703
	H337	H	0.484245	0.416114	0.681285
	H338	H	0.461010	0.440761	0.680520
	O339	O	1.085954	0.026712	0.136469
	H340	H	1.091409	0.045554	0.147044
	H341	H	1.079915	0.024536	0.131709
	O342	O	0.027258	0.013143	-0.077148
	H343	H	0.033339	0.020863	-0.088148
	H344	H	0.032517	0.007607	-0.058087
	O345	O	1.193707	-0.006270	0.978279
	H346	H	1.187889	0.011772	0.952066
	H347	H	1.208425	-0.012183	0.973511
	O348	O	0.858500	0.869880	0.108743
	H349	H	0.861853	0.884796	0.107876
	H350	H	0.852938	0.860288	0.104609
	O351	O	0.436985	0.434896	0.374438
	H352	H	0.441268	0.433109	0.370614
	H353	H	0.427110	0.431002	0.394802
	O354	O	0.879593	0.148624	0.876284
	H355	H	0.870198	0.159647	0.887409
	H356	H	0.865499	0.160836	0.864392
	O357	O	0.578305	0.659539	0.472659
	H358	H	0.591370	0.657930	0.460430
	H359	H	0.572965	0.655710	0.463960
	O360	O	0.478523	0.396689	0.441158
	H361	H	0.475436	0.397622	0.434046
	H362	H	0.478321	0.392598	0.444691
	O363	O	-0.058144	0.917593	1.038824
	H364	H	-0.052906	0.914808	1.031410
	H365	H	-0.043898	0.927012	1.025496
	O366	O	1.023224	1.172069	-0.116866
	H367	H	1.008952	1.166936	-0.131985
	H368	H	1.011219	1.173043	-0.131398
	O369	O	0.099012	0.823493	-0.145994
	H370	H	0.108167	0.825091	-0.136411
	H371	H	0.095292	0.840400	-0.138406
	O372	O	0.598500	0.517990	0.616397
	H373	H	0.605665	0.508894	0.615040
	H374	H	0.585882	0.517499	0.602108
	O375	O	0.515085	0.410961	0.482809
	H376	H	0.515579	0.409317	0.491103
	H377	H	0.506953	0.417857	0.497203
	O378	O	1.118507	0.927467	0.033999
	H379	H	1.105979	0.934293	0.044954
	H380	H	1.106277	0.918873	0.038550
	O381	O	0.979902	0.061251	0.154431
	H382	H	0.990618	0.045880	0.139642
	H383	H	0.995869	0.061904	0.172103
	O384	O	1.102579	1.047115	0.078662
	H385	H	1.104247	1.036588	0.085542
	H386	H	1.113846	1.046358	0.067322
	O387	O	-0.126877	0.172668	-0.034518
	H388	H	-0.135106	0.153393	-0.030031
	H389	H	-0.116554	0.180227	-0.010101
	O390	O	0.117802	0.902711	0.114404
	H391	H	0.127238	0.912777	0.123658
	H392	H	0.118637	0.926674	0.114511
	O393	O	0.852613	0.843831	0.976656
	H394	H	0.860829	0.846805	0.973678
	H395	H	0.850593	0.834176	0.969560
	O396	O	0.515164	0.526569	0.545234
	H397	H	0.502481	0.537978	0.540175
	H398	H	0.503400	0.525687	0.543532
	O399	O	0.036908	1.032354	1.107954
	H400	H	0.050610	1.024647	1.084008
	H401	H	0.020624	1.043715	1.124813
	O402	O	0.343849	0.518291	0.307706
	H403	H	0.325422	0.520683	0.298807
	H404	H	0.345623	0.539482	0.309902
	O405	O	1.134912	1.052056	0.028378
	H406	H	1.139503	1.055765	0.029502
	H407	H	1.137622	1.069897	0.026292
	O408	O	1.130438	0.798742	-0.131060
	H409	H	1.128158	0.790526	-0.145127
	H410	H	1.140709	0.818543	-0.130390
	O411	O	0.959455	0.114503	1.131290
	H412	H	0.960747	0.127003	1.153235
	H413	H	0.958997	0.100901	1.125413
	O414	O	0.512691	0.327542	0.467371
	H415	H	0.517688	0.329375	0.454547
	H416	H	0.518846	0.332612	0.465068
	O417	O	0.527575	0.636909	0.529651
	H418	H	0.538554	0.634872	0.518481
	H419	H	0.525328	0.643577	0.545444
