data_Molecule from HDF5

_cell_length_a		16.309316
_cell_length_b		16.266636
_cell_length_c		16.165118
_cell_angle_alpha	90.024074
_cell_angle_beta	89.741528
_cell_angle_gamma	89.925992
_symmetry_space_group_name_H-M	'P 1'
_symmetry_Int_Tables_number		1

loop_
	_symmetry_equiv_pos_as_xyz
	x,y,z

loop_
	_atom_site_label
	_atom_site_type_symbol
	_atom_site_fract_x
	_atom_site_fract_y
	_atom_site_fract_z
	H0	H	0.405587	0.847557	0.719540
	H1	H	0.598591	0.176076	0.719496
	H2	H	0.599902	0.847117	0.292443
	H3	H	0.406332	0.176430	0.294572
	H4	H	0.716413	0.412779	0.842183
	H5	H	0.714068	0.610824	0.170521
	H6	H	0.288128	0.608715	0.840864
	H7	H	0.287169	0.414198	0.170777
	H8	H	0.838086	0.727303	0.407112
	H9	H	0.164825	0.726116	0.603426
	H10	H	0.838977	0.296438	0.605719
	H11	H	0.164306	0.296060	0.405208
	H12	H	0.837782	0.413874	0.720128
	H13	H	0.165690	0.609240	0.718690
	H14	H	0.837331	0.610013	0.292621
	H15	H	0.165563	0.414630	0.291494
	H16	H	0.402507	0.725920	0.840783
	H17	H	0.597238	0.724824	0.170754
	H18	H	0.599834	0.299147	0.840331
	H19	H	0.402329	0.298748	0.170598
	H20	H	0.718638	0.848299	0.406476
	H21	H	0.716125	0.175779	0.605156
	H22	H	0.286047	0.848517	0.607043
	H23	H	0.287911	0.175437	0.407429
	H24	H	0.904372	0.346634	0.218918
	H25	H	0.096983	0.676173	0.217051
	H26	H	0.097460	0.346949	0.792925
	H27	H	0.904265	0.675891	0.792954
	H28	H	0.217037	0.912859	0.340858
	H29	H	0.214483	0.110183	0.670420
	H30	H	0.788589	0.110686	0.340895
	H31	H	0.787226	0.912918	0.670928
	H32	H	0.338075	0.225634	0.908991
	H33	H	0.664510	0.228654	0.104471
	H34	H	0.336868	0.798288	0.105767
	H35	H	0.664338	0.796341	0.905529
	H36	H	0.338157	0.914835	0.221473
	H37	H	0.666650	0.108992	0.217746
	H38	H	0.338015	0.109839	0.793806
	H39	H	0.665644	0.915468	0.792595
	H40	H	0.905870	0.224670	0.340390
	H41	H	0.099084	0.225326	0.670059
	H42	H	0.099862	0.798909	0.340539
	H43	H	0.903277	0.798289	0.670619
	H44	H	0.216726	0.347962	0.905534
	H45	H	0.214598	0.674565	0.104140
	H46	H	0.785180	0.347811	0.105128
	H47	H	0.786725	0.675164	0.907839
	H48	H	0.408101	0.128075	0.598950
	H49	H	0.593879	0.896559	0.595573
	H50	H	0.598290	0.129364	0.410734
	H51	H	0.409586	0.895731	0.416165
	H52	H	0.589616	0.424984	0.121172
	H53	H	0.588597	0.601521	0.890583
	H54	H	0.405901	0.592856	0.120125
	H55	H	0.416734	0.416081	0.889073
	H56	H	0.119402	0.614065	0.414119
	H57	H	0.885641	0.609325	0.594837
	H58	H	0.118649	0.417415	0.599221
	H59	H	0.887721	0.420743	0.421374
	H60	H	0.117845	0.418448	0.598211
	H61	H	0.886288	0.600834	0.598683
	H62	H	0.114543	0.598831	0.416208
	H63	H	0.885312	0.424674	0.407210
	H64	H	0.417399	0.611942	0.121846
	H65	H	0.594510	0.611867	0.886374
	H66	H	0.588454	0.416318	0.123200
	H67	H	0.401174	0.411935	0.884062
	H68	H	0.592877	0.128555	0.411657
	H69	H	0.598795	0.894587	0.598628
	H70	H	0.405039	0.129516	0.599216
	H71	H	0.406369	0.893855	0.413487
	H72	H	0.910577	0.626439	0.097906
	H73	H	0.095805	0.393097	0.101366
	H74	H	0.091546	0.626267	0.914225
	H75	H	0.914175	0.396259	0.912747
	H76	H	0.091845	0.916642	0.623126
	H77	H	0.101496	0.099489	0.386866
	H78	H	0.903926	0.107695	0.625393
	H79	H	0.904490	0.922089	0.387852
	H80	H	0.618608	0.109954	0.915924
	H81	H	0.385287	0.105710	0.099767
	H82	H	0.615397	0.923411	0.095419
	H83	H	0.381676	0.915826	0.907725
	H84	H	0.619943	0.917110	0.103891
	H85	H	0.385220	0.105997	0.102136
	H86	H	0.616800	0.101180	0.914164
	H87	H	0.385795	0.914384	0.919530
	H88	H	0.907247	0.100173	0.622781
	H89	H	0.089619	0.102274	0.390289
	H90	H	0.097914	0.917519	0.624400
	H91	H	0.914872	0.924553	0.392119
	H92	H	0.097826	0.628891	0.915465
	H93	H	0.091782	0.394606	0.098555
	H94	H	0.901951	0.628155	0.095744
	H95	H	0.903484	0.395207	0.919542
	H96	H	0.407510	0.129333	0.601354
	H97	H	0.593267	0.895007	0.601396
	H98	H	0.597165	0.128516	0.414880
	H99	H	0.410599	0.894580	0.412150
	H100	H	0.596340	0.419742	0.124774
	H101	H	0.600171	0.601242	0.887360
	H102	H	0.395479	0.611875	0.128285
	H103	H	0.404984	0.427179	0.890020
	H104	H	0.119937	0.603833	0.402094
	H105	H	0.883140	0.607735	0.603731
	H106	H	0.118237	0.419677	0.599295
	H107	H	0.882113	0.410251	0.411741
	H108	H	0.905210	0.630523	0.104202
	H109	H	0.096172	0.394205	0.096301
	H110	H	0.095042	0.629873	0.909204
	H111	H	0.903824	0.391652	0.907155
	H112	H	0.094667	0.921907	0.621870
	H113	H	0.097048	0.111184	0.385518
	H114	H	0.911685	0.108300	0.622988
	H115	H	0.912126	0.914715	0.387917
	H116	H	0.619942	0.106681	0.907550
	H117	H	0.384810	0.107330	0.100194
	H118	H	0.617890	0.912143	0.093897
	H119	H	0.386758	0.924979	0.914069
	C120	C	0.379212	0.020485	0.628713
	C121	C	0.622788	1.003550	0.626777
	C122	C	0.624617	0.020714	0.383917
	C123	C	0.381062	1.003139	0.385267
	C124	C	0.621386	0.391204	0.014376
	C125	C	0.621871	0.633174	0.997378
	C126	C	0.378712	0.633419	0.014282
	C127	C	0.379286	0.390568	0.997141
	C128	C	0.009745	0.633965	0.383326
	C129	C	0.993191	0.633857	0.627515
	C130	C	0.010030	0.390344	0.627614
	C131	C	0.993029	0.390402	0.384236
	C132	C	0.878195	0.519811	0.127936
	C133	C	0.122544	0.502452	0.127049
	C134	C	0.123129	0.520038	0.884140
	C135	C	0.879297	0.502830	0.884704
	C136	C	0.123926	0.890056	0.514372
	C137	C	0.123490	0.132934	0.496760
	C138	C	0.880167	0.133793	0.514270
	C139	C	0.881021	0.891386	0.497827
	C140	C	0.510341	0.134059	0.884630
	C141	C	0.493502	0.134518	0.128308
	C142	C	0.509495	0.889939	0.127344
	C143	C	0.493030	0.890125	0.884225
	C144	C	0.383676	0.896815	0.682723
	C145	C	0.619174	0.127459	0.681496
	C146	C	0.621295	0.896345	0.329610
	C147	C	0.384818	0.126960	0.331222
	C148	C	0.677925	0.392613	0.890877
	C149	C	0.676374	0.630957	0.121294
	C150	C	0.324983	0.630059	0.890171
	C151	C	0.324179	0.393261	0.121232
	C152	C	0.886841	0.689541	0.386742
	C153	C	0.116296	0.687982	0.623885
	C154	C	0.887236	0.335074	0.625537
	C155	C	0.116074	0.334909	0.385674
	C156	C	0.886617	0.393335	0.682371
	C157	C	0.116539	0.630194	0.681573
	C158	C	0.886200	0.630910	0.330154
	C159	C	0.116435	0.393605	0.328935
	C160	C	0.382085	0.687967	0.890064
	C161	C	0.618184	0.687577	0.121485
	C162	C	0.619970	0.336335	0.890069
	C163	C	0.382038	0.336267	0.121301
	C164	C	0.680171	0.897030	0.385875
	C165	C	0.677570	0.127071	0.624746
	C166	C	0.324475	0.897256	0.626638
	C167	C	0.326140	0.126614	0.387533
	C168	C	0.882039	0.396123	0.182420
	C169	C	0.118175	0.626841	0.180302
	C170	C	0.119312	0.396143	0.829851
	C171	C	0.882915	0.626809	0.830528
	C172	C	0.179124	0.892551	0.390116
	C173	C	0.177273	0.130367	0.620961
	C174	C	0.825887	0.131218	0.390238
	C175	C	0.825253	0.893004	0.621734
	C176	C	0.387052	0.188358	0.887754
	C177	C	0.616117	0.189912	0.125007
	C178	C	0.386148	0.835861	0.125877
	C179	C	0.615718	0.834607	0.885745
	C180	C	0.386723	0.893755	0.183536
	C181	C	0.617106	0.130663	0.181477
	C182	C	0.386977	0.130631	0.830668
	C183	C	0.616443	0.893596	0.829468
	C184	C	0.884030	0.188017	0.390092
	C185	C	0.119974	0.187713	0.620981
	C186	C	0.121233	0.835585	0.390171
	C187	C	0.882949	0.836053	0.621662
	C188	C	0.178062	0.396545	0.886140
	C189	C	0.176872	0.626031	0.124269
	C190	C	0.823183	0.396439	0.125630
	C191	C	0.824243	0.626268	0.887089
	C192	C	0.400435	0.106770	0.606316
	C193	C	0.601596	0.917702	0.604881
	C194	C	0.602742	0.106433	0.405887
	C195	C	0.402586	0.916910	0.407296
	C196	C	0.598270	0.413729	0.100580
	C197	C	0.600663	0.611306	0.910624
	C198	C	0.399877	0.611932	0.101023
	C199	C	0.401249	0.412162	0.910267
	C200	C	0.095721	0.612063	0.404642
	C201	C	0.907188	0.612160	0.605817
	C202	C	0.096082	0.411862	0.605328
	C203	C	0.907214	0.412214	0.406893
	C204	C	0.899640	0.606109	0.105924
	C205	C	0.100836	0.416250	0.105292
	C206	C	0.101176	0.606087	0.906427
	C207	C	0.900725	0.416685	0.906601
	C208	C	0.101498	0.912291	0.600877
	C209	C	0.102380	0.110927	0.409906
	C210	C	0.901319	0.111865	0.601305
	C211	C	0.903828	0.914026	0.411447
	C212	C	0.596342	0.112253	0.906224
	C213	C	0.407262	0.112743	0.107069
	C214	C	0.595550	0.911262	0.104398
	C215	C	0.407067	0.912094	0.906979
	Zn216	Zn	0.501786	0.012338	0.756336
	Zn217	Zn	0.502667	0.011584	0.256630
	Zn218	Zn	0.749972	0.511663	0.005973
	Zn219	Zn	0.250807	0.511135	0.005528
	Zn220	Zn	0.001361	0.762630	0.505476
	Zn221	Zn	0.002066	0.261478	0.505597
	Zn222	Zn	0.001367	0.511695	0.756362
	Zn223	Zn	0.000879	0.511560	0.255346
	Zn224	Zn	0.500756	0.761364	0.005884
	Zn225	Zn	0.501516	0.262732	0.005506
	Zn226	Zn	0.752295	0.012004	0.506058
	Zn227	Zn	0.251532	0.011549	0.505675
	N228	N	0.416798	0.974432	0.684095
	N229	N	0.585649	0.049812	0.682786
	N230	N	0.587320	0.973970	0.328276
	N231	N	0.418450	0.049352	0.329945
	N232	N	0.678750	0.426196	0.968973
	N233	N	0.678559	0.597675	0.043057
	N234	N	0.322639	0.596830	0.968365
	N235	N	0.322752	0.426588	0.043021
	N236	N	0.964850	0.691641	0.418936
	N237	N	0.038610	0.690415	0.591159
	N238	N	0.964805	0.333233	0.591953
	N239	N	0.038545	0.332791	0.419187
	N240	N	0.964003	0.427039	0.683614
	N241	N	0.038956	0.597123	0.683922
	N242	N	0.963370	0.597016	0.327907
	N243	N	0.038851	0.427270	0.327916
	N244	N	0.414756	0.690197	0.968284
	N245	N	0.585089	0.689010	0.043430
	N246	N	0.585422	0.335365	0.967918
	N247	N	0.415401	0.334291	0.043015
	N248	N	0.682349	0.974828	0.418876
	N249	N	0.679826	0.049350	0.591156
	N250	N	0.321698	0.975278	0.593680
	N251	N	0.323814	0.048672	0.420474
	N252	N	0.915567	0.473750	0.183760
	N253	N	0.085058	0.549002	0.182113
	N254	N	0.085681	0.473721	0.828625
	N255	N	0.916207	0.549089	0.828851
	N256	N	0.181033	0.925497	0.468399
	N257	N	0.179760	0.097200	0.542668
	N258	N	0.823526	0.098234	0.468557
	N259	N	0.824069	0.926704	0.543578
	N260	N	0.464694	0.190571	0.920468
	N261	N	0.538082	0.192513	0.092861
	N262	N	0.463637	0.833491	0.091709
	N263	N	0.538003	0.832371	0.919054
	N264	N	0.464411	0.926760	0.184323
	N265	N	0.539761	0.097077	0.183727
	N266	N	0.464758	0.097472	0.828577
	N267	N	0.538979	0.927356	0.828489
	N268	N	0.917071	0.189547	0.468286
	N269	N	0.086923	0.189233	0.542753
	N270	N	0.087395	0.834100	0.468317
	N271	N	0.916969	0.834914	0.543597
	N272	N	0.180578	0.474700	0.918841
	N273	N	0.179615	0.547921	0.091756
	N274	N	0.820803	0.474311	0.092549
	N275	N	0.821915	0.548318	0.920244
	O276	O	0.511021	0.433907	0.461827
	H277	H	0.506393	0.430952	0.464432
	H278	H	0.500576	0.432358	0.460605
	O279	O	-0.026732	-0.100556	0.045032
	H280	H	-0.027367	-0.103643	0.045508
	H281	H	-0.023236	-0.104095	0.051993
	O282	O	0.541202	0.530331	0.453244
	H283	H	0.555560	0.527227	0.451827
	H284	H	0.540645	0.529895	0.458564
	O285	O	0.489038	0.504610	0.512341
	H286	H	0.492512	0.497927	0.506642
	H287	H	0.491287	0.505139	0.521366
	O288	O	1.548182	-0.525874	-0.439319
	H289	H	1.547813	-0.532070	-0.437762
	H290	H	1.547872	-0.514884	-0.441916
	O291	O	-0.494071	0.521650	-0.572656
	H292	H	-0.494067	0.524590	-0.565782
	H293	H	-0.502179	0.523751	-0.572584
	O294	O	0.531238	0.464563	0.491317
	H295	H	0.547273	0.456478	0.487260
	H296	H	0.530193	0.465980	0.498559
	O297	O	-0.011138	0.895080	0.061530
	H298	H	-0.018995	0.893568	0.068459
	H299	H	-0.009709	0.884078	0.045774
	O300	O	0.991723	-0.090980	1.042736
	H301	H	0.993462	-0.098784	1.046060
	H302	H	0.992119	-0.084905	1.041757
	O303	O	0.538575	0.523615	0.483688
	H304	H	0.542794	0.523369	0.474011
	H305	H	0.530020	0.523267	0.476290
	O306	O	-0.015835	0.896143	1.023102
	H307	H	-0.023318	0.899730	1.022313
	H308	H	-0.012412	0.889767	1.021743
	O309	O	0.547508	0.520070	0.501473
	H310	H	0.548852	0.520876	0.495669
	H311	H	0.545821	0.517828	0.495744
