data_Molecule from HDF5

_cell_length_a		16.478677
_cell_length_b		16.516733
_cell_length_c		16.584736
_cell_angle_alpha	90.208198
_cell_angle_beta	89.971061
_cell_angle_gamma	90.051905
_symmetry_space_group_name_H-M	'P 1'
_symmetry_Int_Tables_number		1

loop_
	_symmetry_equiv_pos_as_xyz
	x,y,z

loop_
	_atom_site_label
	_atom_site_type_symbol
	_atom_site_fract_x
	_atom_site_fract_y
	_atom_site_fract_z
	H0	H	0.395311	0.844402	0.733825
	H1	H	0.609359	0.157989	0.732687
	H2	H	0.613461	0.845886	0.286652
	H3	H	0.401110	0.159098	0.289171
	H4	H	0.725902	0.397805	0.853649
	H5	H	0.722243	0.602878	0.169263
	H6	H	0.281524	0.609222	0.853135
	H7	H	0.284739	0.397325	0.166936
	H8	H	0.847565	0.720324	0.409277
	H9	H	0.163474	0.727252	0.618601
	H10	H	0.849279	0.282385	0.615938
	H11	H	0.164095	0.280663	0.403990
	H12	H	0.848352	0.401821	0.729271
	H13	H	0.163412	0.611582	0.734561
	H14	H	0.848783	0.606558	0.290091
	H15	H	0.162502	0.393470	0.286075
	H16	H	0.396809	0.726740	0.853665
	H17	H	0.607664	0.721494	0.167552
	H18	H	0.608749	0.281086	0.852986
	H19	H	0.400767	0.280846	0.167155
	H20	H	0.727460	0.845906	0.404549
	H21	H	0.724682	0.159803	0.613800
	H22	H	0.281547	0.844094	0.615733
	H23	H	0.284288	0.159477	0.405168
	H24	H	0.903752	0.343505	0.229856
	H25	H	0.113178	0.658797	0.233676
	H26	H	0.114305	0.347836	0.784553
	H27	H	0.901884	0.660639	0.792946
	H28	H	0.228353	0.894788	0.354944
	H29	H	0.229723	0.108605	0.666326
	H30	H	0.783885	0.108614	0.354332
	H31	H	0.780991	0.895635	0.664675
	H32	H	0.347919	0.223307	0.903539
	H33	H	0.663484	0.220257	0.112434
	H34	H	0.347955	0.779897	0.114722
	H35	H	0.662882	0.780833	0.905726
	H36	H	0.348112	0.896334	0.231584
	H37	H	0.662051	0.106539	0.230785
	H38	H	0.349148	0.108420	0.786102
	H39	H	0.662523	0.895075	0.788264
	H40	H	0.903182	0.222948	0.354060
	H41	H	0.113238	0.225564	0.666913
	H42	H	0.112442	0.777861	0.356167
	H43	H	0.895064	0.777599	0.664748
	H44	H	0.228737	0.346258	0.902076
	H45	H	0.229085	0.658175	0.116301
	H46	H	0.789576	0.342080	0.110947
	H47	H	0.786884	0.660408	0.910876
	H48	H	0.420982	0.108548	0.591923
	H49	H	0.598177	0.887405	0.600257
	H50	H	0.599272	0.114127	0.427741
	H51	H	0.417290	0.888984	0.419488
	H52	H	0.600580	0.401108	0.127226
	H53	H	0.598856	0.593256	0.896171
	H54	H	0.411484	0.587598	0.120832
	H55	H	0.419776	0.415614	0.900716
	H56	H	0.119800	0.590260	0.420873
	H57	H	0.893289	0.587887	0.606946
	H58	H	0.118487	0.417521	0.597803
	H59	H	0.899194	0.422266	0.424905
	H60	H	0.119380	0.415255	0.601301
	H61	H	0.891831	0.599198	0.601829
	H62	H	0.119099	0.591266	0.423606
	H63	H	0.890822	0.413900	0.411239
	H64	H	0.422759	0.584931	0.116170
	H65	H	0.597614	0.587615	0.898099
	H66	H	0.602646	0.416989	0.124002
	H67	H	0.421063	0.409028	0.898288
	H68	H	0.598732	0.118397	0.413249
	H69	H	0.588337	0.890225	0.601391
	H70	H	0.412334	0.115240	0.599474
	H71	H	0.418756	0.890134	0.420636
	H72	H	0.918382	0.614804	0.102792
	H73	H	0.088216	0.391610	0.100983
	H74	H	0.092561	0.610748	0.929333
	H75	H	0.919601	0.390370	0.921225
	H76	H	0.091944	0.924595	0.618515
	H77	H	0.095491	0.093085	0.398009
	H78	H	0.912962	0.091278	0.623297
	H79	H	0.916390	0.910572	0.398575
	H80	H	0.615836	0.091838	0.927964
	H81	H	0.393587	0.087609	0.096576
	H82	H	0.616940	0.913766	0.096466
	H83	H	0.391937	0.911769	0.920738
	H84	H	0.618102	0.914718	0.101357
	H85	H	0.392027	0.088892	0.102360
	H86	H	0.615321	0.083244	0.919307
	H87	H	0.394441	0.913695	0.924969
	H88	H	0.919128	0.090462	0.621412
	H89	H	0.095981	0.090142	0.399406
	H90	H	0.086016	0.911267	0.621023
	H91	H	0.916124	0.915516	0.398506
	H92	H	0.096643	0.614893	0.923241
	H93	H	0.094686	0.391633	0.092474
	H94	H	0.912601	0.614765	0.100193
	H95	H	0.913491	0.388772	0.920491
	H96	H	0.423904	0.111637	0.604542
	H97	H	0.593164	0.891130	0.592407
	H98	H	0.585777	0.112314	0.419716
	H99	H	0.416452	0.890806	0.421739
	H100	H	0.588068	0.409570	0.120477
	H101	H	0.592656	0.592001	0.897979
	H102	H	0.420429	0.596350	0.120923
	H103	H	0.414610	0.412266	0.897696
	H104	H	0.117727	0.588644	0.423239
	H105	H	0.897223	0.589573	0.595154
	H106	H	0.119045	0.413028	0.597467
	H107	H	0.893223	0.405485	0.426929
	H108	H	0.913612	0.616958	0.106109
	H109	H	0.098323	0.388153	0.102085
	H110	H	0.088152	0.613249	0.922520
	H111	H	0.917586	0.388897	0.915332
	H112	H	0.099903	0.914189	0.624714
	H113	H	0.093387	0.091288	0.399874
	H114	H	0.916903	0.096321	0.623591
	H115	H	0.919765	0.913356	0.399730
	H116	H	0.621302	0.094440	0.916645
	H117	H	0.391630	0.093371	0.098115
	H118	H	0.619055	0.910012	0.099288
	H119	H	0.393985	0.916264	0.920708
	C120	C	0.384337	0.008754	0.631658
	C121	C	0.625998	0.993211	0.630746
	C122	C	0.627302	0.011024	0.387987
	C123	C	0.384693	0.993698	0.388674
	C124	C	0.628222	0.378607	0.019528
	C125	C	0.626781	0.622169	1.001978
	C126	C	0.384444	0.622996	0.016770
	C127	C	0.385173	0.380158	1.001853
	C128	C	0.014757	0.622427	0.390400
	C129	C	0.997910	0.625954	0.633873
	C130	C	0.014985	0.383216	0.630950
	C131	C	0.998339	0.380455	0.388339
	C132	C	0.885026	0.510112	0.132340
	C133	C	0.127458	0.493631	0.131916
	C134	C	0.126687	0.510802	0.889639
	C135	C	0.884976	0.493876	0.889354
	C136	C	0.125835	0.882461	0.518684
	C137	C	0.127978	0.124190	0.502264
	C138	C	0.884826	0.124317	0.518877
	C139	C	0.883873	0.880799	0.501657
	C140	C	0.513428	0.122309	0.888610
	C141	C	0.496662	0.122007	0.130293
	C142	C	0.514193	0.880214	0.131515
	C143	C	0.496931	0.880811	0.889235
	C144	C	0.379079	0.891383	0.692985
	C145	C	0.627807	0.111448	0.691527
	C146	C	0.630857	0.893126	0.327179
	C147	C	0.382337	0.111876	0.328899
	C148	C	0.686527	0.378214	0.900744
	C149	C	0.683572	0.622333	0.121415
	C150	C	0.322240	0.626829	0.899949
	C151	C	0.324620	0.378600	0.119695
	C152	C	0.895408	0.681245	0.389629
	C153	C	0.116011	0.687213	0.636883
	C154	C	0.896453	0.322943	0.633582
	C155	C	0.116260	0.319996	0.385714
	C156	C	0.896178	0.381963	0.690274
	C157	C	0.116080	0.629561	0.694584
	C158	C	0.896165	0.624820	0.330341
	C159	C	0.115682	0.376321	0.326842
	C160	C	0.379830	0.685209	0.900155
	C161	C	0.626713	0.681527	0.120397
	C162	C	0.628370	0.320200	0.900658
	C163	C	0.382301	0.320498	0.119925
	C164	C	0.687764	0.893092	0.385768
	C165	C	0.684982	0.112377	0.632658
	C166	C	0.322049	0.891303	0.634370
	C167	C	0.324380	0.112022	0.386725
	C168	C	0.885036	0.390823	0.190099
	C169	C	0.131071	0.611564	0.193071
	C170	C	0.131639	0.394253	0.825928
	C171	C	0.883354	0.613093	0.832077
	C172	C	0.187685	0.877699	0.401685
	C173	C	0.188930	0.126873	0.619697
	C174	C	0.824671	0.126377	0.401268
	C175	C	0.821813	0.877603	0.618258
	C176	C	0.395541	0.183349	0.885274
	C177	C	0.615730	0.181142	0.131615
	C178	C	0.395175	0.820159	0.133018
	C179	C	0.615652	0.820654	0.886982
	C180	C	0.395655	0.877564	0.191593
	C181	C	0.615203	0.124444	0.190232
	C182	C	0.395854	0.125669	0.827256
	C183	C	0.615491	0.877713	0.828928
	C184	C	0.883513	0.183682	0.400986
	C185	C	0.131206	0.185194	0.619875
	C186	C	0.129862	0.819655	0.402220
	C187	C	0.878834	0.818925	0.618064
	C188	C	0.188488	0.393445	0.884559
	C189	C	0.188705	0.611419	0.134808
	C190	C	0.828126	0.390107	0.131246
	C191	C	0.826204	0.612915	0.890658
	C192	C	0.411300	0.090303	0.605957
	C193	C	0.600568	0.911024	0.605250
	C194	C	0.601804	0.093403	0.413180
	C195	C	0.410180	0.911456	0.413613
	C196	C	0.604287	0.402574	0.102220
	C197	C	0.603262	0.597811	0.919165
	C198	C	0.410711	0.597042	0.097934
	C199	C	0.410976	0.405289	0.920160
	C200	C	0.097313	0.597324	0.415444
	C201	C	0.915655	0.599855	0.608574
	C202	C	0.097564	0.408034	0.605814
	C203	C	0.915830	0.406517	0.413824
	C204	C	0.908098	0.593615	0.109596
	C205	C	0.101201	0.411759	0.106087
	C206	C	0.099929	0.591867	0.917053
	C207	C	0.909618	0.410859	0.912493
	C208	C	0.100005	0.909125	0.600209
	C209	C	0.102268	0.098686	0.420392
	C210	C	0.909408	0.099828	0.601140
	C211	C	0.909822	0.906279	0.420112
	C212	C	0.595921	0.097016	0.914024
	C213	C	0.413946	0.097188	0.105777
	C214	C	0.596477	0.905502	0.106302
	C215	C	0.414787	0.906418	0.914887
	Zn216	Zn	0.505101	0.000111	0.760236
	Zn217	Zn	0.505399	0.001860	0.259889
	Zn218	Zn	0.756495	0.501255	0.010960
	Zn219	Zn	0.256057	0.501743	0.009829
	Zn220	Zn	0.005963	0.752289	0.511376
	Zn221	Zn	0.006920	0.253267	0.510723
	Zn222	Zn	0.006337	0.503922	0.760684
	Zn223	Zn	0.006588	0.501847	0.260930
	Zn224	Zn	0.505799	0.751969	0.008835
	Zn225	Zn	0.505218	0.250943	0.010314
	Zn226	Zn	0.755553	0.002726	0.510007
	Zn227	Zn	0.256330	0.001903	0.510243
	N228	N	0.417068	0.965552	0.691567
	N229	N	0.592150	0.036335	0.690701
	N230	N	0.593813	0.967589	0.328485
	N231	N	0.419025	0.037237	0.330078
	N232	N	0.686860	0.413504	0.975818
	N233	N	0.683940	0.586314	0.046631
	N234	N	0.324969	0.589020	0.973507
	N235	N	0.325982	0.414827	0.045118
	N236	N	0.970379	0.680080	0.426203
	N237	N	0.041280	0.685291	0.600117
	N238	N	0.971612	0.323350	0.597673
	N239	N	0.041952	0.322379	0.423304
	N240	N	0.970954	0.418558	0.688964
	N241	N	0.041580	0.592280	0.692925
	N242	N	0.971415	0.589225	0.330494
	N243	N	0.041190	0.413444	0.328570
	N244	N	0.417883	0.683047	0.973748
	N245	N	0.592073	0.681557	0.045212
	N246	N	0.593037	0.320171	0.975601
	N247	N	0.419013	0.321339	0.045701
	N248	N	0.685814	0.967588	0.422709
	N249	N	0.684130	0.037793	0.595811
	N250	N	0.325269	0.965238	0.596936
	N251	N	0.325660	0.037457	0.423274
	N252	N	0.919352	0.466608	0.191292
	N253	N	0.093756	0.537149	0.191401
	N254	N	0.094011	0.468293	0.828973
	N255	N	0.919273	0.538008	0.831124
	N256	N	0.185144	0.916281	0.475098
	N257	N	0.187117	0.089998	0.545511
	N258	N	0.825184	0.090431	0.475760
	N259	N	0.825100	0.915735	0.545038
	N260	N	0.469834	0.181345	0.922973
	N261	N	0.540929	0.179939	0.095237
	N262	N	0.469970	0.821548	0.096391
	N263	N	0.541030	0.822523	0.923809
	N264	N	0.470661	0.913824	0.191106
	N265	N	0.540241	0.088178	0.189372
	N266	N	0.470316	0.088507	0.829096
	N267	N	0.540474	0.914128	0.829996
	N268	N	0.920037	0.182684	0.475243
	N269	N	0.094108	0.183818	0.545648
	N270	N	0.092368	0.822246	0.476002
	N271	N	0.917060	0.820901	0.544513
	N272	N	0.185482	0.466702	0.923643
	N273	N	0.186727	0.537087	0.097592
	N274	N	0.827871	0.465404	0.096296
	N275	N	0.827144	0.537713	0.925576
	O276	O	0.960734	0.931630	-0.208854
	H277	H	0.960818	0.961615	-0.201653
	H278	H	0.946224	0.958218	-0.212791
	O279	O	-0.020947	-0.008891	0.869497
	H280	H	-0.004688	-0.017002	0.880976
	H281	H	-0.026269	0.008375	0.870451
	O282	O	0.513451	0.647379	0.707003
	H283	H	0.531108	0.653809	0.695927
	H284	H	0.538385	0.669027	0.720414
	O285	O	0.431866	0.609095	0.648463
	H286	H	0.432126	0.635273	0.643135
	H287	H	0.408476	0.597065	0.650259
	O288	O	1.083037	-0.208745	1.106526
	H289	H	1.100925	-0.202420	1.087169
	H290	H	1.070892	-0.212467	1.083247
	O291	O	0.550417	0.524547	0.509274
	H292	H	0.548008	0.525147	0.536074
	H293	H	0.544655	0.519674	0.511850
	O294	O	-0.022634	-0.036403	0.013671
	H295	H	-0.033653	-0.046543	-0.007146
	H296	H	-0.003208	-0.029467	0.020755
	O297	O	1.218831	-0.212586	-0.014946
	H298	H	1.239655	-0.217793	-0.025627
	H299	H	1.228135	-0.206271	-0.024435
	O300	O	0.203202	0.145390	0.209171
	H301	H	0.225449	0.133007	0.224024
	H302	H	0.184902	0.144407	0.215640
	O303	O	-0.212068	-0.143650	-0.135992
	H304	H	-0.216897	-0.138367	-0.121318
	H305	H	-0.218673	-0.145822	-0.146595
	O306	O	0.828744	0.187408	0.176595
	H307	H	0.854139	0.171801	0.160578
	H308	H	0.843308	0.163534	0.164060
	O309	O	0.719468	0.287847	0.485769
	H310	H	0.740881	0.266950	0.461008
	H311	H	0.716828	0.284067	0.457060
	O312	O	0.301511	0.494286	0.530164
	H313	H	0.306306	0.487360	0.529845
	H314	H	0.300963	0.488305	0.523221
	O315	O	0.418021	0.303550	0.431871
	H316	H	0.402333	0.304334	0.435230
	H317	H	0.405901	0.307361	0.448982
	O318	O	0.792152	1.033089	-0.212485
	H319	H	0.785268	1.066162	-0.212120
	H320	H	0.770510	1.050784	-0.226396
	O321	O	0.288259	0.281542	0.540479
	H322	H	0.282614	0.282926	0.575779
	H323	H	0.266783	0.256207	0.559359
	O324	O	0.546195	0.307754	1.301237
	H325	H	0.527905	0.318784	1.300078
	H326	H	0.516869	0.306159	1.304775
	O327	O	0.431567	0.488191	0.481430
	H328	H	0.433927	0.498941	0.476973
	H329	H	0.422660	0.499761	0.489628
	O330	O	-0.025767	0.788408	0.229875
	H331	H	-0.003609	0.782645	0.198452
	H332	H	-0.015060	0.765959	0.249560
	O333	O	0.645454	0.710267	0.510050
	H334	H	0.639805	0.711214	0.510485
	H335	H	0.653480	0.709579	0.508894
	O336	O	0.420925	0.434369	0.471377
	H337	H	0.416344	0.435428	0.458959
	H338	H	0.416358	0.428049	0.465915
	O339	O	0.300674	0.704963	0.421712
	H340	H	0.295943	0.713486	0.414655
	H341	H	0.318775	0.727575	0.419141
	O342	O	0.229177	1.061254	-0.027554
	H343	H	0.232254	1.088910	-0.027272
	H344	H	0.232182	1.061181	-0.025851
	O345	O	0.454928	0.370905	0.711377
	H346	H	0.468642	0.365475	0.714972
	H347	H	0.466283	0.369875	0.689943
	O348	O	0.693627	0.500487	0.412368
	H349	H	0.692210	0.489225	0.416655
	H350	H	0.696786	0.482921	0.391729
	O351	O	0.153462	0.156957	0.875663
	H352	H	0.140496	0.139066	0.890406
	H353	H	0.171252	0.166304	0.871395
	O354	O	1.014151	0.142860	0.938298
	H355	H	1.017257	0.139106	0.947750
	H356	H	1.013345	0.154896	0.946521
	O357	O	0.460543	0.712010	0.485556
	H358	H	0.473641	0.719580	0.492689
	H359	H	0.439967	0.710198	0.491857
	O360	O	0.566950	0.490832	0.563050
	H361	H	0.555029	0.493182	0.568705
	H362	H	0.554090	0.467532	0.554178
	O363	O	0.880423	0.116536	-0.090588
	H364	H	0.876024	0.125048	-0.089474
	H365	H	0.862312	0.119542	-0.095532
	O366	O	1.025340	0.152927	0.975998
	H367	H	1.027310	0.152084	0.950244
	H368	H	1.025109	0.145524	0.972864
	O369	O	-0.020051	-0.208397	0.953819
	H370	H	-0.033816	-0.194278	0.943732
	H371	H	-0.012257	-0.216908	0.921823
	O372	O	0.019518	1.145596	0.791336
	H373	H	0.011421	1.182899	0.769628
	H374	H	0.035828	1.134268	0.791102
	O375	O	1.074456	-0.052508	0.234124
	H376	H	1.062972	-0.044130	0.239643
	H377	H	1.057100	-0.059031	0.218710
	O378	O	0.727627	0.464084	0.292493
	H379	H	0.740918	0.441685	0.272729
	H380	H	0.734466	0.438802	0.283076
	O381	O	0.220271	1.217875	0.036894
	H382	H	0.223808	1.229689	0.039493
	H383	H	0.230161	1.234816	0.061330
	O384	O	0.512006	0.505304	0.334046
	H385	H	0.502042	0.526561	0.337073
	H386	H	0.528921	0.515262	0.326459
	O387	O	0.031833	0.786859	0.790218
	H388	H	0.033436	0.758849	0.751748
	H389	H	0.011682	0.826070	0.778308
	O390	O	0.225111	1.010824	1.164266
	H391	H	0.205297	0.991289	1.179763
	H392	H	0.234727	0.991140	1.172706
	O393	O	1.030162	0.088650	0.221743
	H394	H	1.016487	0.092040	0.211964
	H395	H	1.008351	0.091123	0.215947
	O396	O	0.340231	0.298150	0.713715
	H397	H	0.346114	0.312285	0.731473
	H398	H	0.363104	0.311782	0.718630
	O399	O	0.492405	0.692816	0.626416
	H400	H	0.513091	0.693881	0.632846
	H401	H	0.516947	0.693901	0.643634
	O402	O	0.807887	0.204568	0.801538
	H403	H	0.787318	0.236666	0.776261
	H404	H	0.802738	0.212544	0.850971
	O405	O	0.802519	0.801056	0.216313
	H406	H	0.855556	0.792407	0.224534
	H407	H	0.776847	0.770319	0.236451
	O408	O	0.794437	1.210908	0.968538
	H409	H	0.784874	1.212535	0.984633
	H410	H	0.788517	1.216143	0.988354
	O411	O	1.158759	0.945320	0.060780
	H412	H	1.160892	0.963268	0.056713
	H413	H	1.162084	0.938435	0.062666
	O414	O	0.029466	0.207133	0.218103
	H415	H	0.020903	0.198237	0.225199
	H416	H	0.031637	0.220652	0.211704
	O417	O	0.655828	0.431904	0.498035
	H418	H	0.653642	0.404164	0.487690
	H419	H	0.646572	0.428324	0.496754
	O420	O	0.783456	-0.270336	0.785299
	H421	H	0.798313	-0.243665	0.806703
	H422	H	0.807820	-0.273539	0.789131
	O423	O	0.847753	1.046335	0.078480
	H424	H	0.847668	1.030741	0.078314
	H425	H	0.856844	1.038092	0.076217
	O426	O	0.126635	0.820902	0.157450
	H427	H	0.119371	0.836821	0.153453
	H428	H	0.117384	0.824840	0.124217
	O429	O	0.512021	0.284731	0.595886
	H430	H	0.525311	0.278922	0.584654
	H431	H	0.521346	0.298451	0.583977
	O432	O	0.686080	0.316126	0.697383
	H433	H	0.678936	0.335184	0.674340
	H434	H	0.661842	0.336683	0.687083
	O435	O	0.317927	0.458841	0.634315
	H436	H	0.299436	0.450635	0.643859
	H437	H	0.319588	0.479257	0.623265
	O438	O	0.320113	0.444440	0.310506
	H439	H	0.322000	0.446391	0.312345
	H440	H	0.320235	0.439119	0.317179
	O441	O	0.702629	0.702853	0.640589
	H442	H	0.708039	0.689574	0.621545
	H443	H	0.730862	0.718245	0.658381
	O444	O	0.370522	0.717692	0.298842
	H445	H	0.354500	0.740245	0.268257
	H446	H	0.380658	0.699057	0.297863
	O447	O	0.516237	0.495083	0.721249
	H448	H	0.512239	0.518241	0.729148
	H449	H	0.513650	0.513675	0.712070
	O450	O	0.961265	0.211651	0.065837
	H451	H	0.954453	0.211324	0.068815
	H452	H	0.988893	0.203961	0.048964
	O453	O	0.298187	0.522549	0.453902
	H454	H	0.319997	0.549737	0.459466
	H455	H	0.272625	0.533046	0.444008
	O456	O	0.195547	0.819805	0.827452
	H457	H	0.172727	0.838313	0.813332
	H458	H	0.181247	0.812568	0.841186
	O459	O	0.727736	0.280894	0.298143
	H460	H	0.687209	0.266988	0.294574
	H461	H	0.749888	0.256447	0.262187
	O462	O	0.509763	0.661276	0.290853
	H463	H	0.502355	0.672071	0.279546
	H464	H	0.500555	0.660671	0.289443
	O465	O	0.636310	0.682342	0.350977
	H466	H	0.634321	0.661430	0.374358
	H467	H	0.615397	0.679936	0.370861
	O468	O	-0.211548	0.793328	0.050765
	H469	H	-0.217879	0.780843	0.070430
	H470	H	-0.215153	0.780599	0.059733
	O471	O	0.710387	0.525667	0.670092
	H472	H	0.710932	0.528409	0.665209
	H473	H	0.710619	0.517163	0.673326
	O474	O	0.795892	0.979076	0.217645
	H475	H	0.789232	0.951453	0.223666
	H476	H	0.785595	0.957151	0.224152
	O477	O	0.217667	-0.019906	0.796942
	H478	H	0.228913	-0.009809	0.794325
	H479	H	0.227141	-0.034884	0.795261
