data_Molecule from HDF5

_cell_length_a		16.194324
_cell_length_b		16.044601
_cell_length_c		16.416335
_cell_angle_alpha	90.305282
_cell_angle_beta	90.025088
_cell_angle_gamma	89.582684
_symmetry_space_group_name_H-M	'P 1'
_symmetry_Int_Tables_number		1

loop_
	_symmetry_equiv_pos_as_xyz
	x,y,z

loop_
	_atom_site_label
	_atom_site_type_symbol
	_atom_site_fract_x
	_atom_site_fract_y
	_atom_site_fract_z
	H0	H	0.414248	0.845425	0.703180
	H1	H	0.612964	0.174649	0.704367
	H2	H	0.615837	0.844577	0.273278
	H3	H	0.412809	0.175096	0.277052
	H4	H	0.727943	0.408155	0.825853
	H5	H	0.727319	0.610542	0.149960
	H6	H	0.295494	0.610163	0.825868
	H7	H	0.296584	0.412460	0.150627
	H8	H	0.847710	0.721519	0.394626
	H9	H	0.179442	0.715645	0.583371
	H10	H	0.846584	0.299286	0.583099
	H11	H	0.178290	0.294535	0.391667
	H12	H	0.849921	0.406520	0.706011
	H13	H	0.174706	0.610137	0.706232
	H14	H	0.849309	0.611771	0.272922
	H15	H	0.175866	0.404321	0.270182
	H16	H	0.413636	0.724295	0.825016
	H17	H	0.609651	0.725490	0.151111
	H18	H	0.610641	0.292451	0.826231
	H19	H	0.414226	0.296834	0.151648
	H20	H	0.726041	0.843051	0.392135
	H21	H	0.724806	0.175532	0.586990
	H22	H	0.305384	0.842623	0.584482
	H23	H	0.297696	0.174813	0.393187
	H24	H	0.910565	0.344457	0.203233
	H25	H	0.111107	0.673686	0.205199
	H26	H	0.114011	0.345027	0.772901
	H27	H	0.910061	0.674596	0.774505
	H28	H	0.229077	0.908047	0.327681
	H29	H	0.227300	0.107611	0.652601
	H30	H	0.795593	0.108680	0.327625
	H31	H	0.797298	0.908949	0.651439
	H32	H	0.347234	0.221616	0.894978
	H33	H	0.678294	0.221136	0.085842
	H34	H	0.346795	0.802532	0.082152
	H35	H	0.677077	0.795895	0.891950
	H36	H	0.350574	0.909221	0.204949
	H37	H	0.675868	0.111913	0.206619
	H38	H	0.349283	0.113081	0.772419
	H39	H	0.676460	0.907086	0.772476
	H40	H	0.913996	0.222512	0.326343
	H41	H	0.111061	0.224799	0.652127
	H42	H	0.110526	0.793474	0.326191
	H43	H	0.918260	0.797158	0.652783
	H44	H	0.226565	0.344702	0.889590
	H45	H	0.220788	0.676385	0.085052
	H46	H	0.800103	0.343624	0.083948
	H47	H	0.797248	0.675296	0.890928
	H48	H	0.424161	0.126023	0.576729
	H49	H	0.602072	0.893155	0.576676
	H50	H	0.596412	0.124801	0.398586
	H51	H	0.428424	0.892199	0.392374
	H52	H	0.605789	0.423232	0.101879
	H53	H	0.602926	0.607766	0.871291
	H54	H	0.411822	0.614648	0.108197
	H55	H	0.421593	0.416470	0.873593
	H56	H	0.130990	0.595671	0.389739
	H57	H	0.892726	0.604380	0.587344
	H58	H	0.128140	0.420240	0.577635
	H59	H	0.897468	0.420207	0.394823
	H60	H	0.130189	0.420751	0.586486
	H61	H	0.893986	0.605225	0.580536
	H62	H	0.132401	0.603635	0.393230
	H63	H	0.894993	0.418447	0.391164
	H64	H	0.410623	0.598061	0.103287
	H65	H	0.610679	0.601360	0.870670
	H66	H	0.601665	0.412276	0.104300
	H67	H	0.417449	0.415290	0.872244
	H68	H	0.610766	0.128591	0.402007
	H69	H	0.611935	0.888779	0.581109
	H70	H	0.413208	0.130631	0.581812
	H71	H	0.420748	0.891426	0.400949
	H72	H	0.926932	0.627934	0.091128
	H73	H	0.100408	0.390156	0.083037
	H74	H	0.102581	0.630883	0.888980
	H75	H	0.921623	0.391144	0.896352
	H76	H	0.110946	0.909909	0.607720
	H77	H	0.099026	0.097222	0.377292
	H78	H	0.915693	0.104986	0.606798
	H79	H	0.928505	0.919606	0.377194
	H80	H	0.629438	0.100461	0.899592
	H81	H	0.392468	0.100353	0.095411
	H82	H	0.628625	0.918047	0.075522
	H83	H	0.397692	0.927849	0.893939
	H84	H	0.629817	0.923068	0.084039
	H85	H	0.393408	0.113300	0.080341
	H86	H	0.629632	0.095371	0.893397
	H87	H	0.391400	0.917024	0.884438
	H88	H	0.918361	0.100247	0.604157
	H89	H	0.107985	0.107349	0.371812
	H90	H	0.112754	0.915186	0.606670
	H91	H	0.918696	0.905124	0.370489
	H92	H	0.096523	0.626317	0.897861
	H93	H	0.103935	0.392552	0.075191
	H94	H	0.923862	0.623767	0.071213
	H95	H	0.919910	0.390555	0.894852
	H96	H	0.424145	0.129343	0.589394
	H97	H	0.602801	0.889932	0.587927
	H98	H	0.605475	0.130707	0.389308
	H99	H	0.418453	0.887440	0.390933
	H100	H	0.612833	0.415467	0.106654
	H101	H	0.602101	0.598209	0.874633
	H102	H	0.425986	0.605633	0.101722
	H103	H	0.418109	0.418141	0.873028
	H104	H	0.128567	0.597339	0.398430
	H105	H	0.895137	0.598896	0.582809
	H106	H	0.130929	0.412512	0.581882
	H107	H	0.895512	0.416549	0.395062
	H108	H	0.909340	0.631270	0.082630
	H109	H	0.109708	0.389238	0.081140
	H110	H	0.107623	0.629337	0.900159
	H111	H	0.922056	0.390934	0.894350
	H112	H	0.107343	0.913459	0.606294
	H113	H	0.112123	0.094970	0.373288
	H114	H	0.921523	0.104978	0.605018
	H115	H	0.910766	0.921808	0.372772
	H116	H	0.631576	0.103007	0.892933
	H117	H	0.398956	0.093838	0.079043
	H118	H	0.632324	0.913682	0.084797
	H119	H	0.394749	0.913208	0.899922
	C120	C	0.393404	0.018695	0.609804
	C121	C	0.633970	1.000626	0.610052
	C122	C	0.634462	0.018482	0.367869
	C123	C	0.392291	1.000143	0.367553
	C124	C	0.634927	0.387045	-0.003199
	C125	C	0.633765	0.631758	0.979706
	C126	C	0.388130	0.633848	-0.003378
	C127	C	0.390151	0.388392	0.980055
	C128	C	0.021568	0.629322	0.366791
	C129	C	1.003327	0.630116	0.610958
	C130	C	0.021103	0.388685	0.609822
	C131	C	1.004358	0.386904	0.365322
	C132	C	0.890946	0.518370	0.109693
	C133	C	0.132668	0.500293	0.109234
	C134	C	0.132776	0.519319	0.866801
	C135	C	0.890862	0.500358	0.866748
	C136	C	0.137388	0.884426	0.498690
	C137	C	0.134627	0.129746	0.481572
	C138	C	0.889933	0.131685	0.497960
	C139	C	0.891574	0.887134	0.481094
	C140	C	0.521379	0.130126	0.867453
	C141	C	0.504057	0.131623	0.112158
	C142	C	0.521551	0.889961	0.109223
	C143	C	0.503540	0.888862	0.865420
	C144	C	0.395369	0.894254	0.664779
	C145	C	0.632686	0.125225	0.666224
	C146	C	0.634581	0.893940	0.311532
	C147	C	0.393172	0.125482	0.314214
	C148	C	0.690007	0.388269	0.874410
	C149	C	0.689257	0.630585	0.101524
	C150	C	0.333551	0.630531	0.874338
	C151	C	0.334508	0.391565	0.102154
	C152	C	0.897275	0.684372	0.372347
	C153	C	0.128833	0.681143	0.605861
	C154	C	0.896570	0.335420	0.604983
	C155	C	0.128491	0.330905	0.369387
	C156	C	0.898149	0.388421	0.666356
	C157	C	0.126655	0.628609	0.666788
	C158	C	0.897910	0.629707	0.311981
	C159	C	0.127422	0.385773	0.309240
	C160	C	0.392404	0.687219	0.873901
	C161	C	0.630566	0.687503	0.102177
	C162	C	0.631504	0.330998	0.874454
	C163	C	0.392878	0.334073	0.102754
	C164	C	0.689198	0.893126	0.370727
	C165	C	0.687987	0.125811	0.607581
	C166	C	0.340997	0.892868	0.605768
	C167	C	0.336109	0.125279	0.371904
	C168	C	0.891920	0.393763	0.164755
	C169	C	0.130551	0.624818	0.165860
	C170	C	0.132797	0.394515	0.811007
	C171	C	0.890924	0.625046	0.811999
	C172	C	0.191183	0.887408	0.375829
	C173	C	0.189280	0.127833	0.604029
	C174	C	0.834136	0.129110	0.375923
	C175	C	0.836519	0.889697	0.603364
	C176	C	0.396764	0.185114	0.872357
	C177	C	0.628474	0.185160	0.107429
	C178	C	0.396730	0.837907	0.104644
	C179	C	0.627629	0.833023	0.870108
	C180	C	0.398777	0.890955	0.165679
	C181	C	0.627287	0.130784	0.167641
	C182	C	0.397928	0.130983	0.811578
	C183	C	0.627376	0.888333	0.810709
	C184	C	0.892893	0.185697	0.375264
	C185	C	0.131452	0.186030	0.603836
	C186	C	0.132293	0.830610	0.375166
	C187	C	0.896255	0.833822	0.603994
	C188	C	0.188716	0.394398	0.869223
	C189	C	0.185253	0.625994	0.106704
	C190	C	0.836796	0.393114	0.105567
	C191	C	0.834857	0.625432	0.869845
	C192	C	0.414149	0.106185	0.588677
	C193	C	0.612236	0.913159	0.588127
	C194	C	0.611122	0.105550	0.390208
	C195	C	0.415564	0.912881	0.388482
	C196	C	0.613073	0.410120	0.082171
	C197	C	0.611798	0.609111	0.894152
	C198	C	0.409767	0.612388	0.082310
	C199	C	0.412385	0.410165	0.894861
	C200	C	0.108276	0.605708	0.387677
	C201	C	0.916430	0.608917	0.589881
	C202	C	0.107460	0.411105	0.588481
	C203	C	0.918317	0.411175	0.387192
	C204	C	0.913210	0.605225	0.088070
	C205	C	0.110967	0.413086	0.086454
	C206	C	0.109057	0.606392	0.888981
	C207	C	0.914272	0.413448	0.888721
	C208	C	0.116606	0.906237	0.584539
	C209	C	0.112883	0.106523	0.396306
	C210	C	0.911921	0.109942	0.583256
	C211	C	0.913090	0.909018	0.395601
	C212	C	0.607810	0.106506	0.888986
	C213	C	0.417409	0.109300	0.091186
	C214	C	0.607995	0.911765	0.087760
	C215	C	0.416895	0.912440	0.886538
	Zn216	Zn	0.512900	0.010344	0.737786
	Zn217	Zn	0.513643	0.009477	0.240056
	Zn218	Zn	0.763635	0.509673	-0.012092
	Zn219	Zn	0.259979	0.510406	-0.011801
	Zn220	Zn	0.013677	0.757036	0.489723
	Zn221	Zn	0.012644	0.260031	0.488621
	Zn222	Zn	0.011711	0.509371	0.739046
	Zn223	Zn	0.012432	0.508545	0.237207
	Zn224	Zn	0.511615	0.761502	-0.011782
	Zn225	Zn	0.512581	0.258656	-0.010596
	Zn226	Zn	0.761259	0.009061	0.489853
	Zn227	Zn	0.265495	0.008234	0.489920
	N228	N	0.427322	0.973417	0.667117
	N229	N	0.599790	0.046415	0.667848
	N230	N	0.601130	0.973089	0.309580
	N231	N	0.427421	0.046607	0.311576
	N232	N	0.692105	0.422460	0.951455
	N233	N	0.691256	0.596489	0.024398
	N234	N	0.330698	0.597923	0.951671
	N235	N	0.332894	0.424643	0.024876
	N236	N	0.975260	0.684194	0.405684
	N237	N	0.051192	0.682250	0.571754
	N238	N	0.974032	0.335537	0.570556
	N239	N	0.050833	0.331513	0.403518
	N240	N	0.976467	0.421021	0.669548
	N241	N	0.047569	0.597437	0.670172
	N242	N	0.976299	0.596273	0.308395
	N243	N	0.049185	0.419648	0.306478
	N244	N	0.425682	0.689419	0.950938
	N245	N	0.596839	0.688296	0.025303
	N246	N	0.598305	0.329851	0.951599
	N247	N	0.426636	0.331698	0.025895
	N248	N	0.689498	0.971495	0.405036
	N249	N	0.688857	0.047333	0.573364
	N250	N	0.339605	0.971367	0.572327
	N251	N	0.335475	0.046486	0.404278
	N252	N	0.924944	0.472500	0.167364
	N253	N	0.098689	0.545625	0.167446
	N254	N	0.098842	0.473380	0.809352
	N255	N	0.925045	0.546244	0.809828
	N256	N	0.194599	0.920107	0.453430
	N257	N	0.191391	0.093474	0.526916
	N258	N	0.832110	0.096277	0.453261
	N259	N	0.833647	0.922473	0.525942
	N260	N	0.474377	0.184526	0.906484
	N261	N	0.550651	0.185707	0.073449
	N262	N	0.473875	0.837314	0.070042
	N263	N	0.549664	0.833202	0.903521
	N264	N	0.477451	0.922862	0.168676
	N265	N	0.549031	0.098236	0.170684
	N266	N	0.476509	0.097607	0.808578
	N267	N	0.549113	0.922243	0.807650
	N268	N	0.926911	0.187494	0.452046
	N269	N	0.098355	0.187441	0.526641
	N270	N	0.099546	0.828900	0.452493
	N271	N	0.929775	0.832105	0.527044
	N272	N	0.189032	0.472919	0.903038
	N273	N	0.186540	0.547574	0.072042
	N274	N	0.835867	0.471612	0.072131
	N275	N	0.834607	0.546972	0.903155
	O276	O	1.029849	1.027880	0.013206
	H277	H	1.029435	1.032147	0.018283
	H278	H	1.032797	1.028510	0.025159
	O279	O	-0.017631	-0.000820	1.035297
	H280	H	-0.007075	0.002659	1.026446
	H281	H	-0.008199	0.011792	1.036212
	O282	O	0.011483	0.061653	0.042687
	H283	H	0.015655	0.061126	0.051985
	H284	H	0.018782	0.069378	0.038381
	O285	O	0.539642	0.552067	0.545628
	H286	H	0.546578	0.563623	0.541099
	H287	H	0.532255	0.558090	0.548301
	O288	O	-0.948030	-0.985928	0.033555
	H289	H	-0.952023	-0.977549	0.032112
	H290	H	-0.942080	-0.989884	0.043617
	O291	O	-0.030526	1.061910	0.045114
	H292	H	-0.028049	1.057206	0.044521
	H293	H	-0.034695	1.052019	0.056410
	O294	O	-0.038056	1.022352	0.010854
	H295	H	-0.037416	1.021187	0.023574
	H296	H	-0.037727	1.024127	0.013222
	O297	O	0.575198	0.513636	0.519887
	H298	H	0.574350	0.510170	0.526703
	H299	H	0.575640	0.524603	0.518914
	O300	O	0.627652	0.377931	0.356330
	H301	H	0.633092	0.374892	0.363306
	H302	H	0.628006	0.387039	0.361091
	O303	O	1.018919	0.056404	1.059187
	H304	H	1.012572	0.051621	1.051514
	H305	H	1.017149	0.060720	1.058032
	O306	O	0.050914	1.003974	1.035941
	H307	H	0.041841	1.002194	1.036503
	H308	H	0.058704	1.009075	1.034909
	O309	O	-0.002664	0.924474	1.001901
	H310	H	0.004329	0.924425	0.997835
	H311	H	-0.015537	0.925490	1.001956
	O312	O	0.085195	0.020119	1.005669
	H313	H	0.085533	0.027682	1.002192
	H314	H	0.090105	0.022220	0.998761
	O315	O	0.457972	0.538229	0.447013
	H316	H	0.456530	0.537576	0.443304
	H317	H	0.461047	0.530057	0.425692
	O318	O	0.029727	0.042609	1.043443
	H319	H	0.036496	0.033511	1.041653
	H320	H	0.037167	0.051352	1.044526
	O321	O	0.534121	0.459244	0.424069
	H322	H	0.536857	0.452044	0.414088
	H323	H	0.519166	0.455345	0.428568
	O324	O	0.586621	-0.488367	1.457471
	H325	H	0.595290	-0.485261	1.460459
	H326	H	0.586158	-0.485701	1.461408
	O327	O	1.013220	0.991934	0.982973
	H328	H	1.018381	0.987485	0.983710
	H329	H	1.011853	0.991027	0.968315
	O330	O	0.002014	-0.009671	0.962903
	H331	H	-0.001460	-0.005811	0.964032
	H332	H	-0.020438	-0.022958	0.966077
	O333	O	0.526459	0.462705	0.443503
	H334	H	0.522712	0.451361	0.445822
	H335	H	0.534784	0.457727	0.450489
	O336	O	0.582614	0.532586	0.520108
	H337	H	0.577707	0.539586	0.513262
	H338	H	0.585957	0.538830	0.529231
	O339	O	0.517059	0.533852	0.420466
	H340	H	0.520354	0.525863	0.418571
	H341	H	0.512291	0.529362	0.422904
	O342	O	0.502419	0.478023	0.446184
	H343	H	0.508827	0.478416	0.454518
	H344	H	0.505025	0.479333	0.443260
	O345	O	0.459169	0.561188	0.450852
	H346	H	0.465519	0.564887	0.448859
	H347	H	0.451043	0.550396	0.448178
