data_Molecule from HDF5

_cell_length_a		16.779265
_cell_length_b		16.553242
_cell_length_c		16.556824
_cell_angle_alpha	90.050861
_cell_angle_beta	90.075999
_cell_angle_gamma	90.134641
_symmetry_space_group_name_H-M	'P 1'
_symmetry_Int_Tables_number		1

loop_
	_symmetry_equiv_pos_as_xyz
	x,y,z

loop_
	_atom_site_label
	_atom_site_type_symbol
	_atom_site_fract_x
	_atom_site_fract_y
	_atom_site_fract_z
	H0	H	0.399020	0.827321	0.714820
	H1	H	0.609446	0.139298	0.714133
	H2	H	0.607413	0.826525	0.273204
	H3	H	0.402320	0.140285	0.275551
	H4	H	0.723958	0.378595	0.837540
	H5	H	0.725380	0.588778	0.150439
	H6	H	0.283213	0.588119	0.838554
	H7	H	0.282198	0.375642	0.148670
	H8	H	0.850296	0.703646	0.386821
	H9	H	0.156705	0.706891	0.600604
	H10	H	0.850930	0.259600	0.598980
	H11	H	0.158491	0.260372	0.388793
	H12	H	0.850909	0.375420	0.716609
	H13	H	0.156496	0.589814	0.717790
	H14	H	0.849366	0.585680	0.271999
	H15	H	0.158094	0.375349	0.270359
	H16	H	0.401308	0.702601	0.837264
	H17	H	0.608175	0.702269	0.151040
	H18	H	0.606383	0.264067	0.837251
	H19	H	0.400323	0.261990	0.149889
	H20	H	0.727631	0.828312	0.384822
	H21	H	0.727251	0.138052	0.600641
	H22	H	0.278746	0.829573	0.602541
	H23	H	0.286179	0.139838	0.391009
	H24	H	0.905493	0.323910	0.208486
	H25	H	0.107018	0.638952	0.212317
	H26	H	0.109010	0.327204	0.771822
	H27	H	0.896801	0.637057	0.770677
	H28	H	0.227908	0.873332	0.339186
	H29	H	0.224966	0.087255	0.649793
	H30	H	0.782657	0.087464	0.338844
	H31	H	0.779542	0.872954	0.647319
	H32	H	0.350862	0.205788	0.886034
	H33	H	0.659749	0.203263	0.097910
	H34	H	0.349208	0.762686	0.095915
	H35	H	0.660148	0.762062	0.889375
	H36	H	0.349025	0.878702	0.213742
	H37	H	0.659704	0.086730	0.215134
	H38	H	0.352114	0.089862	0.769096
	H39	H	0.659952	0.878100	0.771939
	H40	H	0.901724	0.200966	0.336794
	H41	H	0.106882	0.201002	0.650607
	H42	H	0.110473	0.759039	0.338347
	H43	H	0.898514	0.760248	0.648885
	H44	H	0.227472	0.327487	0.885526
	H45	H	0.227234	0.636822	0.100978
	H46	H	0.783947	0.326212	0.097193
	H47	H	0.781711	0.638472	0.885831
	H48	H	0.407890	0.098126	0.585445
	H49	H	0.593367	0.871334	0.580284
	H50	H	0.592133	0.094040	0.405654
	H51	H	0.412626	0.870883	0.407551
	H52	H	0.594299	0.393978	0.106455
	H53	H	0.598141	0.576703	0.878300
	H54	H	0.412257	0.566489	0.105620
	H55	H	0.413297	0.392075	0.880729
	H56	H	0.114773	0.569957	0.401642
	H57	H	0.897627	0.564284	0.577838
	H58	H	0.113222	0.397040	0.582762
	H59	H	0.893940	0.389060	0.404918
	H60	H	0.116088	0.392884	0.585424
	H61	H	0.891989	0.568632	0.588694
	H62	H	0.113741	0.573717	0.406771
	H63	H	0.894244	0.394834	0.402110
	H64	H	0.420217	0.569965	0.103099
	H65	H	0.597476	0.566419	0.883495
	H66	H	0.594547	0.392269	0.107205
	H67	H	0.414242	0.398467	0.883116
	H68	H	0.595125	0.094089	0.408155
	H69	H	0.592370	0.871796	0.581962
	H70	H	0.424592	0.093179	0.585658
	H71	H	0.413389	0.869273	0.402589
	H72	H	0.913376	0.597484	0.087417
	H73	H	0.089827	0.372902	0.077354
	H74	H	0.094687	0.592252	0.912205
	H75	H	0.917496	0.372932	0.908343
	H76	H	0.084921	0.894100	0.601271
	H77	H	0.095669	0.069012	0.381066
	H78	H	0.913565	0.064834	0.604682
	H79	H	0.915746	0.889150	0.380166
	H80	H	0.615061	0.072225	0.906095
	H81	H	0.394653	0.066424	0.086877
	H82	H	0.617208	0.892479	0.090201
	H83	H	0.395780	0.898660	0.900742
	H84	H	0.616386	0.888858	0.080212
	H85	H	0.391016	0.076760	0.087765
	H86	H	0.613247	0.072019	0.905060
	H87	H	0.392771	0.887933	0.900642
	H88	H	0.919807	0.073260	0.605127
	H89	H	0.093418	0.072108	0.381228
	H90	H	0.095489	0.891952	0.607452
	H91	H	0.910275	0.898695	0.381611
	H92	H	0.094852	0.594709	0.904632
	H93	H	0.100632	0.368729	0.078653
	H94	H	0.915361	0.594503	0.082601
	H95	H	0.911369	0.371651	0.908993
	H96	H	0.414719	0.091301	0.571350
	H97	H	0.591966	0.871938	0.580275
	H98	H	0.595780	0.096095	0.404963
	H99	H	0.417391	0.871106	0.405777
	H100	H	0.596162	0.393928	0.107336
	H101	H	0.588289	0.572746	0.882840
	H102	H	0.414145	0.575092	0.107588
	H103	H	0.419537	0.393660	0.882989
	H104	H	0.112461	0.567042	0.406926
	H105	H	0.892244	0.576589	0.578325
	H106	H	0.114885	0.391949	0.579924
	H107	H	0.891738	0.389881	0.398510
	H108	H	0.909705	0.596652	0.082236
	H109	H	0.093027	0.367397	0.087362
	H110	H	0.088157	0.591564	0.907753
	H111	H	0.914291	0.369742	0.903970
	H112	H	0.093950	0.903502	0.602049
	H113	H	0.096813	0.072235	0.379973
	H114	H	0.910026	0.073886	0.608866
	H115	H	0.920368	0.897649	0.385051
	H116	H	0.614503	0.072545	0.904847
	H117	H	0.395272	0.073691	0.078448
	H118	H	0.612816	0.898608	0.082490
	H119	H	0.396427	0.892515	0.909993
	C120	C	0.383205	-0.008636	0.613997
	C121	C	0.625432	0.974610	0.614138
	C122	C	0.625771	-0.008444	0.373224
	C123	C	0.383107	0.974154	0.373269
	C124	C	0.625630	0.361865	0.002936
	C125	C	0.626187	0.604053	0.985356
	C126	C	0.383984	0.603008	0.002286
	C127	C	0.383631	0.361813	0.985322
	C128	C	0.012116	0.602600	0.372322
	C129	C	0.995059	0.604110	0.615428
	C130	C	0.012872	0.360856	0.615472
	C131	C	0.995614	0.359637	0.370760
	C132	C	0.882594	0.491446	0.114461
	C133	C	0.126088	0.472908	0.114133
	C134	C	0.125312	0.490617	0.873685
	C135	C	0.882301	0.474289	0.873225
	C136	C	0.124760	0.861784	0.501630
	C137	C	0.125886	0.103395	0.484621
	C138	C	0.882739	0.103096	0.502740
	C139	C	0.882491	0.861279	0.484982
	C140	C	0.512385	0.104202	0.872447
	C141	C	0.496180	0.104535	0.115863
	C142	C	0.512699	0.861396	0.115515
	C143	C	0.496983	0.860884	0.871336
	C144	C	0.380412	0.874043	0.674761
	C145	C	0.627818	0.092205	0.674525
	C146	C	0.626713	0.873578	0.312908
	C147	C	0.383269	0.092802	0.314985
	C148	C	0.684067	0.360171	0.884545
	C149	C	0.685260	0.606397	0.103358
	C150	C	0.324026	0.605693	0.884881
	C151	C	0.323390	0.358479	0.102387
	C152	C	0.896334	0.662954	0.369365
	C153	C	0.110661	0.665730	0.618599
	C154	C	0.897268	0.299788	0.617772
	C155	C	0.112000	0.300020	0.369640
	C156	C	0.897190	0.357653	0.676010
	C157	C	0.110582	0.607865	0.676841
	C158	C	0.895997	0.604201	0.312080
	C159	C	0.111768	0.357375	0.311011
	C160	C	0.382563	0.662601	0.884357
	C161	C	0.627045	0.663005	0.103630
	C162	C	0.625787	0.303212	0.884499
	C163	C	0.381717	0.301806	0.102978
	C164	C	0.686352	0.874544	0.368371
	C165	C	0.686520	0.091391	0.618269
	C166	C	0.320901	0.875144	0.619059
	C167	C	0.325111	0.092611	0.371997
	C168	C	0.884367	0.371685	0.170705
	C169	C	0.126938	0.591315	0.173304
	C170	C	0.127597	0.373850	0.811912
	C171	C	0.879388	0.590832	0.811432
	C172	C	0.186886	0.856434	0.385727
	C173	C	0.184973	0.105622	0.602706
	C174	C	0.823283	0.105449	0.385125
	C175	C	0.821051	0.856228	0.601221
	C176	C	0.397098	0.165037	0.868718
	C177	C	0.613186	0.163685	0.116932
	C178	C	0.395836	0.802209	0.115516
	C179	C	0.613614	0.801966	0.870217
	C180	C	0.395819	0.860093	0.173901
	C181	C	0.613100	0.105679	0.175022
	C182	C	0.397457	0.107314	0.810531
	C183	C	0.613386	0.859767	0.811941
	C184	C	0.881928	0.162020	0.384361
	C185	C	0.126272	0.161946	0.603247
	C186	C	0.128336	0.799677	0.385129
	C187	C	0.880119	0.800193	0.601848
	C188	C	0.186475	0.373962	0.868270
	C189	C	0.186722	0.590189	0.118063
	C190	C	0.824194	0.372927	0.115705
	C191	C	0.821921	0.591308	0.868810
	C192	C	0.408645	0.072792	0.588225
	C193	C	0.599901	0.892961	0.587988
	C194	C	0.601287	0.073357	0.399031
	C195	C	0.407394	0.891886	0.398174
	C196	C	0.602011	0.386542	0.085444
	C197	C	0.601707	0.579165	0.903030
	C198	C	0.408671	0.577713	0.084227
	C199	C	0.408624	0.387566	0.903440
	C200	C	0.092821	0.577323	0.397897
	C201	C	0.914695	0.577493	0.589221
	C202	C	0.093560	0.386597	0.590053
	C203	C	0.914452	0.384189	0.394974
	C204	C	0.905889	0.574441	0.090835
	C205	C	0.101406	0.390931	0.088578
	C206	C	0.099874	0.571800	0.900673
	C207	C	0.907455	0.392720	0.899586
	C208	C	0.098771	0.888745	0.582562
	C209	C	0.101995	0.078369	0.402170
	C210	C	0.907291	0.077931	0.584791
	C211	C	0.908022	0.887892	0.403605
	C212	C	0.593313	0.079041	0.897893
	C213	C	0.414807	0.079568	0.091281
	C214	C	0.594093	0.886135	0.091268
	C215	C	0.416053	0.885928	0.896561
	Zn216	Zn	0.504782	-0.017034	0.742505
	Zn217	Zn	0.504633	-0.016736	0.245317
	Zn218	Zn	0.753876	0.483192	-0.006092
	Zn219	Zn	0.254765	0.481853	-0.006621
	Zn220	Zn	0.003749	0.733104	0.493040
	Zn221	Zn	0.004213	0.230866	0.493624
	Zn222	Zn	0.003888	0.482474	0.745321
	Zn223	Zn	0.004846	0.482130	0.242018
	Zn224	Zn	0.505499	0.731811	-0.006567
	Zn225	Zn	0.504127	0.233601	-0.005909
	Zn226	Zn	0.754322	-0.017594	0.493766
	Zn227	Zn	0.254194	-0.017377	0.493442
	N228	N	0.418451	0.947345	0.671944
	N229	N	0.590592	0.018314	0.672304
	N230	N	0.589747	0.947404	0.315631
	N231	N	0.418430	0.018005	0.315433
	N232	N	0.684435	0.395618	0.959492
	N233	N	0.685072	0.570734	0.028593
	N234	N	0.324498	0.569411	0.959368
	N235	N	0.324293	0.394927	0.028042
	N236	N	0.969589	0.662022	0.406205
	N237	N	0.037704	0.663663	0.581256
	N238	N	0.970308	0.301434	0.580898
	N239	N	0.038606	0.301024	0.406191
	N240	N	0.970249	0.394963	0.674721
	N241	N	0.037539	0.570319	0.675212
	N242	N	0.969101	0.567435	0.313534
	N243	N	0.038352	0.393489	0.311375
	N244	N	0.419195	0.661075	0.958388
	N245	N	0.590979	0.661894	0.029111
	N246	N	0.590277	0.303897	0.959162
	N247	N	0.418532	0.303759	0.028945
	N248	N	0.685865	0.948779	0.405285
	N249	N	0.685258	0.016985	0.581582
	N250	N	0.322573	0.948964	0.581788
	N251	N	0.324493	0.017487	0.407245
	N252	N	0.919636	0.446645	0.170588
	N253	N	0.090102	0.517249	0.171237
	N254	N	0.090309	0.447408	0.815250
	N255	N	0.916354	0.516998	0.814005
	N256	N	0.184957	0.894493	0.459218
	N257	N	0.184957	0.070038	0.527747
	N258	N	0.823416	0.069839	0.459926
	N259	N	0.822151	0.893493	0.527277
	N260	N	0.469858	0.163392	0.906579
	N261	N	0.539320	0.163382	0.080952
	N262	N	0.469717	0.802631	0.080010
	N263	N	0.539944	0.802076	0.906089
	N264	N	0.469671	0.895865	0.174353
	N265	N	0.539307	0.069939	0.174690
	N266	N	0.470317	0.070226	0.812726
	N267	N	0.539523	0.895373	0.812181
	N268	N	0.918202	0.160724	0.458615
	N269	N	0.090492	0.160988	0.528644
	N270	N	0.090462	0.802749	0.458421
	N271	N	0.917671	0.803347	0.528452
	N272	N	0.185279	0.447886	0.905963
	N273	N	0.186573	0.515493	0.082062
	N274	N	0.822763	0.448585	0.081846
	N275	N	0.823570	0.517641	0.906708
	O276	O	0.025623	0.880188	0.075564
	H277	H	0.006784	0.860947	0.079966
	H278	H	0.020702	0.869959	0.069478
	O279	O	0.309752	0.667810	0.680627
	H280	H	0.310139	0.635532	0.660757
	H281	H	0.329651	0.656242	0.674845
	O282	O	1.294080	0.273713	0.704175
	H283	H	1.273511	0.261661	0.699347
	H284	H	1.275049	0.255707	0.688262
	O285	O	0.450374	0.616648	0.607742
	H286	H	0.425772	0.622344	0.609287
	H287	H	0.440647	0.599260	0.622405
	O288	O	-0.126027	0.972864	1.157332
	H289	H	-0.113500	0.986931	1.163747
	H290	H	-0.139382	0.977025	1.161320
	O291	O	0.428533	0.608970	0.422597
	H292	H	0.445475	0.600598	0.441142
	H293	H	0.440729	0.621364	0.425650
	O294	O	1.228853	0.016138	1.220754
	H295	H	1.229562	0.042126	1.225293
	H296	H	1.246397	0.022759	1.243086
	O297	O	0.196307	0.794345	0.182257
	H298	H	0.183672	0.818436	0.163934
	H299	H	0.168366	0.801716	0.164756
	O300	O	0.080278	0.031895	1.025924
	H301	H	0.084178	0.034096	1.040598
	H302	H	0.077424	0.029803	1.024891
	O303	O	0.497931	0.386648	0.467768
	H304	H	0.500179	0.395789	0.469141
	H305	H	0.501954	0.381252	0.479158
	O306	O	0.578698	0.525442	0.278712
	H307	H	0.574247	0.544486	0.281473
	H308	H	0.561641	0.513796	0.300335
	O309	O	0.034177	1.195714	1.212965
	H310	H	0.052159	1.210554	1.211997
	H311	H	0.056882	1.210787	1.217651
	O312	O	0.001776	0.757297	0.956516
	H313	H	-0.002785	0.752158	0.945642
	H314	H	-0.002056	0.763081	0.933166
	O315	O	0.532362	0.710527	1.717171
	H316	H	0.541566	0.742446	1.751668
	H317	H	0.570057	0.695343	1.711205
	O318	O	0.737988	0.413922	0.553758
	H319	H	0.728826	0.431542	0.549706
	H320	H	0.745184	0.408572	0.531041
	O321	O	-0.205526	1.192375	0.786672
	H322	H	-0.234552	1.223534	0.754449
	H323	H	-0.175538	1.190793	0.795990
	O324	O	0.780698	0.759784	0.019720
	H325	H	0.763137	0.735429	0.025391
	H326	H	0.781500	0.761926	0.042096
	O327	O	-0.018186	-0.108763	0.905701
	H328	H	-0.009510	-0.102641	0.910657
	H329	H	-0.025930	-0.108779	0.913558
	O330	O	0.562090	0.437188	0.707273
	H331	H	0.558750	0.443799	0.703113
	H332	H	0.557140	0.425443	0.708871
	O333	O	1.032760	-0.243173	0.774910
	H334	H	1.041275	-0.247511	0.758807
	H335	H	1.041884	-0.245326	0.758647
	O336	O	0.310912	0.293402	0.303406
	H337	H	0.330272	0.307755	0.324336
	H338	H	0.330488	0.315669	0.316548
	O339	O	0.484448	0.265152	0.710213
	H340	H	0.455531	0.263590	0.714531
	H341	H	0.465570	0.250542	0.723783
	O342	O	-0.214630	0.199510	0.212877
	H343	H	-0.182175	0.185729	0.189410
	H344	H	-0.211600	0.193326	0.198243
	O345	O	0.212765	1.186907	1.204064
	H346	H	0.229327	1.197523	1.199802
	H347	H	0.226629	1.204877	1.205900
	O348	O	0.024585	-0.027155	0.224107
	H349	H	0.014781	-0.041643	0.222919
	H350	H	0.047267	-0.017331	0.223578
	O351	O	0.291792	0.690966	0.281642
	H352	H	0.259421	0.723120	0.249714
	H353	H	0.291060	0.664075	0.296270
	O354	O	0.093740	0.106340	0.865040
	H355	H	0.090562	0.101561	0.867746
	H356	H	0.093860	0.094305	0.870141
	O357	O	0.525864	0.306665	0.541794
	H358	H	0.543011	0.299054	0.539331
	H359	H	0.532170	0.299626	0.560655
	O360	O	0.541296	0.674417	0.394443
	H361	H	0.517830	0.680865	0.378196
	H362	H	0.530988	0.663619	0.419715
	O363	O	-0.032939	-0.236069	0.213705
	H364	H	-0.034746	-0.260724	0.231200
	H365	H	-0.055409	-0.235978	0.206506
	O366	O	0.745881	0.531120	0.439607
	H367	H	0.751658	0.534619	0.436810
	H368	H	0.741564	0.549754	0.433993
	O369	O	1.196085	0.171652	-0.196094
	H370	H	1.180952	0.154102	-0.185610
	H371	H	1.181808	0.155457	-0.169995
	O372	O	1.026648	1.007441	0.029927
	H373	H	1.026383	1.002919	0.022515
	H374	H	1.015712	1.003462	0.042514
	O375	O	0.710962	-0.310265	-0.299911
	H376	H	0.726335	-0.299425	-0.304814
	H377	H	0.713432	-0.326480	-0.330701
	O378	O	0.314063	0.486721	0.278107
	H379	H	0.331049	0.482559	0.262618
	H380	H	0.312665	0.491165	0.274951
	O381	O	-0.175306	1.032468	0.990834
	H382	H	-0.171182	1.031219	0.982499
	H383	H	-0.173423	1.037035	0.980707
	O384	O	0.964850	0.200439	0.777621
	H385	H	0.975507	0.203798	0.769779
	H386	H	0.957663	0.205733	0.770199
	O387	O	1.581893	1.515628	-0.400292
	H388	H	1.570485	1.505652	-0.405645
	H389	H	1.585041	1.505388	-0.398375
	O390	O	0.438468	0.597101	0.589703
	H391	H	0.431988	0.615800	0.601345
	H392	H	0.421439	0.593210	0.609642
	O393	O	0.267166	0.541232	0.547719
	H394	H	0.283924	0.552583	0.538188
	H395	H	0.258183	0.533717	0.551761
	O396	O	0.216771	0.770553	0.787504
	H397	H	0.202629	0.776487	0.782400
	H398	H	0.237453	0.765024	0.761049
	O399	O	-0.199261	-0.172366	1.196832
	H400	H	-0.184288	-0.143310	1.208657
	H401	H	-0.211670	-0.180463	1.211121
	O402	O	0.285440	0.702246	0.469889
	H403	H	0.291067	0.706132	0.467692
	H404	H	0.273608	0.720907	0.448750
	O405	O	1.225783	-0.237782	0.961300
	H406	H	1.215672	-0.227293	0.925157
	H407	H	1.256142	-0.266487	0.958015
	O408	O	0.170328	-0.078697	0.121295
	H409	H	0.168307	-0.088974	0.124278
	H410	H	0.168131	-0.081952	0.128671
	O411	O	1.237570	1.022160	0.945523
	H412	H	1.237179	1.011487	0.948342
	H413	H	1.234022	1.016517	0.958973
	O414	O	0.278903	0.440447	0.630956
	H415	H	0.275047	0.444118	0.631421
	H416	H	0.283713	0.421805	0.632077
	O417	O	0.727853	0.259736	0.464133
	H418	H	0.739662	0.244763	0.440923
	H419	H	0.742600	0.253388	0.452281
	O420	O	0.438306	0.535998	0.605111
	H421	H	0.451729	0.539592	0.601460
	H422	H	0.445043	0.508061	0.619186
	O423	O	-0.037534	-0.067158	0.797338
	H424	H	-0.053289	-0.059100	0.795298
	H425	H	-0.046947	-0.062204	0.797305
	O426	O	0.479937	0.412267	0.336410
	H427	H	0.487641	0.406502	0.334815
	H428	H	0.489180	0.405691	0.333291
	O429	O	1.225163	0.956576	0.779737
	H430	H	1.232571	0.949997	0.794630
	H431	H	1.237736	0.955979	0.764847
	O432	O	0.793149	0.016788	0.775119
	H433	H	0.779112	0.035239	0.765286
	H434	H	0.787924	0.045288	0.767243
	O435	O	0.481297	1.485795	0.396314
	H436	H	0.484646	1.479210	0.386764
	H437	H	0.482880	1.480818	0.413976
	O438	O	0.697709	0.293833	-0.317287
	H439	H	0.682201	0.324239	-0.327271
	H440	H	0.682222	0.307033	-0.339354
	O441	O	-0.215824	-0.062940	-0.064818
	H442	H	-0.210081	-0.072541	-0.077222
	H443	H	-0.218965	-0.067227	-0.072487
	O444	O	0.727405	0.693441	0.526065
	H445	H	0.724631	0.716572	0.515186
	H446	H	0.714466	0.705506	0.513830
	O447	O	0.002162	1.082967	1.043825
	H448	H	0.007468	1.082007	1.040970
	H449	H	-0.010233	1.080418	1.032678
	O450	O	-0.042449	0.783795	1.098156
	H451	H	-0.036954	0.780587	1.074954
	H452	H	-0.057820	0.794749	1.086651
	O453	O	0.723972	0.508447	0.706594
	H454	H	0.744898	0.508093	0.713866
	H455	H	0.724515	0.521835	0.703928
	O456	O	-0.221709	0.204945	0.958186
	H457	H	-0.238514	0.221316	0.938599
	H458	H	-0.232908	0.201673	0.949038
	O459	O	0.908314	1.091713	0.205083
	H460	H	0.916428	1.093064	0.200811
	H461	H	0.937642	1.092791	0.199787
	O462	O	0.469425	0.705085	0.269430
	H463	H	0.440792	0.713205	0.263922
	H464	H	0.454822	0.721101	0.254487
	O465	O	0.826167	-0.198214	-0.183742
	H466	H	0.818923	-0.207947	-0.172077
	H467	H	0.845548	-0.184884	-0.175717
	O468	O	0.695595	0.661899	0.312076
	H469	H	0.683878	0.661616	0.317108
	H470	H	0.670120	0.655502	0.321858
	O471	O	0.495526	0.474610	0.548371
	H472	H	0.489005	0.483419	0.541101
	H473	H	0.482225	0.458563	0.547613
	O474	O	0.435905	0.281020	0.463060
	H475	H	0.459512	0.280457	0.479931
	H476	H	0.442464	0.279987	0.439876
	O477	O	0.279614	0.264934	1.531408
	H478	H	0.279008	0.262294	1.515400
	H479	H	0.265919	0.257432	1.516249
	O480	O	0.728734	0.441004	0.273248
	H481	H	0.750351	0.451443	0.253501
	H482	H	0.707195	0.458422	0.262576
	O483	O	0.548145	0.267385	0.282115
	H484	H	0.576791	0.256600	0.273099
	H485	H	0.570460	0.255969	0.274589
	O486	O	0.342815	0.422759	0.436057
	H487	H	0.354641	0.431352	0.449439
	H488	H	0.339974	0.432846	0.425485
	O489	O	1.224336	1.196574	0.023206
	H490	H	1.225474	1.200638	0.017730
	H491	H	1.233817	1.197058	0.024934
	O492	O	-0.141963	0.110413	0.049050
	H493	H	-0.136858	0.089520	0.050456
	H494	H	-0.154524	0.113713	0.034911
	O495	O	0.008943	1.110336	0.870837
	H496	H	0.011694	1.110625	0.871574
	H497	H	0.002794	1.114475	0.876557
	O498	O	1.038013	0.978657	0.820384
	H499	H	1.038421	0.958606	0.817766
	H500	H	1.031016	0.978329	0.825212
	O501	O	0.650440	0.332138	0.362490
	H502	H	0.673740	0.311682	0.344355
	H503	H	0.650213	0.359269	0.362486
