data_Molecule from HDF5

_cell_length_a		16.052335
_cell_length_b		16.330409
_cell_length_c		16.473287
_cell_angle_alpha	90.080038
_cell_angle_beta	90.124244
_cell_angle_gamma	89.843729
_symmetry_space_group_name_H-M	'P 1'
_symmetry_Int_Tables_number		1

loop_
	_symmetry_equiv_pos_as_xyz
	x,y,z

loop_
	_atom_site_label
	_atom_site_type_symbol
	_atom_site_fract_x
	_atom_site_fract_y
	_atom_site_fract_z
	H0	H	0.401491	0.842021	0.708850
	H1	H	0.617127	0.160189	0.713581
	H2	H	0.614096	0.841476	0.268897
	H3	H	0.398243	0.160858	0.266774
	H4	H	0.723759	0.400230	0.829045
	H5	H	0.723400	0.603730	0.150043
	H6	H	0.286149	0.602690	0.828823
	H7	H	0.288873	0.402113	0.150113
	H8	H	0.841046	0.719760	0.389772
	H9	H	0.170444	0.716838	0.590047
	H10	H	0.842756	0.284129	0.592593
	H11	H	0.169240	0.286357	0.388113
	H12	H	0.841654	0.400381	0.706649
	H13	H	0.167984	0.605230	0.709312
	H14	H	0.842069	0.609458	0.270933
	H15	H	0.167838	0.398305	0.271790
	H16	H	0.399086	0.722016	0.830026
	H17	H	0.611070	0.723748	0.148069
	H18	H	0.612559	0.279162	0.830909
	H19	H	0.399831	0.280950	0.147566
	H20	H	0.723229	0.840202	0.390075
	H21	H	0.720267	0.165383	0.587270
	H22	H	0.292337	0.839832	0.586830
	H23	H	0.290351	0.164098	0.389562
	H24	H	0.899449	0.342740	0.210622
	H25	H	0.111931	0.662144	0.211384
	H26	H	0.108809	0.341724	0.770519
	H27	H	0.897548	0.662541	0.769693
	H28	H	0.219936	0.905009	0.327480
	H29	H	0.222386	0.101257	0.651166
	H30	H	0.788793	0.103764	0.328516
	H31	H	0.792486	0.905080	0.651773
	H32	H	0.340776	0.216068	0.888384
	H33	H	0.670036	0.218128	0.089909
	H34	H	0.340473	0.789360	0.087699
	H35	H	0.669738	0.783882	0.888538
	H36	H	0.343508	0.898691	0.206221
	H37	H	0.670180	0.103603	0.206428
	H38	H	0.343391	0.103390	0.770527
	H39	H	0.670811	0.898206	0.773411
	H40	H	0.902425	0.222796	0.329684
	H41	H	0.109671	0.221937	0.649606
	H42	H	0.110422	0.782465	0.330160
	H43	H	0.903384	0.784908	0.649712
	H44	H	0.217883	0.338509	0.892297
	H45	H	0.219315	0.664807	0.088607
	H46	H	0.791213	0.339922	0.087997
	H47	H	0.789253	0.664199	0.891214
	H48	H	0.421058	0.114533	0.576491
	H49	H	0.599276	0.889599	0.570559
	H50	H	0.584820	0.109875	0.408688
	H51	H	0.425143	0.888835	0.393578
	H52	H	0.585644	0.415725	0.098128
	H53	H	0.591810	0.588312	0.877925
	H54	H	0.412772	0.599026	0.105431
	H55	H	0.417052	0.414406	0.876730
	H56	H	0.122867	0.595304	0.400825
	H57	H	0.892074	0.586859	0.575213
	H58	H	0.122290	0.414666	0.582932
	H59	H	0.885778	0.411591	0.394885
	H60	H	0.123263	0.411562	0.582203
	H61	H	0.886198	0.592551	0.589132
	H62	H	0.120039	0.589328	0.401971
	H63	H	0.888710	0.410616	0.404218
	H64	H	0.411816	0.592000	0.103089
	H65	H	0.590931	0.596729	0.876468
	H66	H	0.595157	0.398849	0.106684
	H67	H	0.416308	0.401744	0.873090
	H68	H	0.611886	0.121730	0.399464
	H69	H	0.608389	0.881081	0.587961
	H70	H	0.411822	0.118759	0.580747
	H71	H	0.412534	0.887862	0.404216
	H72	H	0.924795	0.611995	0.075476
	H73	H	0.107956	0.381577	0.087546
	H74	H	0.091779	0.616705	0.900204
	H75	H	0.924544	0.388645	0.893730
	H76	H	0.097941	0.907349	0.604647
	H77	H	0.099962	0.093574	0.374921
	H78	H	0.909429	0.090988	0.604413
	H79	H	0.920388	0.906658	0.376107
	H80	H	0.621134	0.092325	0.908319
	H81	H	0.389113	0.088349	0.080960
	H82	H	0.626346	0.905708	0.081645
	H83	H	0.391063	0.915744	0.899860
	H84	H	0.622079	0.911416	0.073616
	H85	H	0.387197	0.093809	0.080579
	H86	H	0.621496	0.082419	0.896969
	H87	H	0.387479	0.913615	0.891456
	H88	H	0.921517	0.092655	0.599919
	H89	H	0.094119	0.094595	0.376255
	H90	H	0.101190	0.909536	0.605567
	H91	H	0.911917	0.909837	0.373522
	H92	H	0.097248	0.618679	0.898990
	H93	H	0.083482	0.387606	0.091358
	H94	H	0.905493	0.619660	0.078046
	H95	H	0.913754	0.388964	0.904862
	H96	H	0.421009	0.118129	0.586724
	H97	H	0.587563	0.888350	0.588347
	H98	H	0.587966	0.118800	0.380502
	H99	H	0.410660	0.882628	0.388989
	H100	H	0.605902	0.416340	0.104275
	H101	H	0.598709	0.592809	0.874499
	H102	H	0.418187	0.595623	0.102072
	H103	H	0.405960	0.410399	0.873005
	H104	H	0.123162	0.591002	0.396908
	H105	H	0.886084	0.601608	0.576468
	H106	H	0.122166	0.413150	0.580150
	H107	H	0.890216	0.419713	0.399918
	H108	H	0.919549	0.620085	0.093486
	H109	H	0.093740	0.391608	0.069955
	H110	H	0.092127	0.618486	0.894673
	H111	H	0.909882	0.382606	0.890725
	H112	H	0.098312	0.911132	0.603818
	H113	H	0.097171	0.098955	0.374268
	H114	H	0.915581	0.102558	0.606251
	H115	H	0.917900	0.916109	0.377614
	H116	H	0.627763	0.096813	0.895235
	H117	H	0.391187	0.091032	0.075729
	H118	H	0.623488	0.916394	0.083904
	H119	H	0.387515	0.907744	0.898759
	C120	C	0.386804	0.010525	0.610318
	C121	C	0.628817	0.993332	0.611545
	C122	C	0.627281	0.010391	0.367262
	C123	C	0.384752	0.992957	0.366091
	C124	C	0.627252	0.379637	-0.002459
	C125	C	0.626088	0.623509	0.981388
	C126	C	0.382611	0.625119	-0.002152
	C127	C	0.383055	0.379478	0.980184
	C128	C	0.013815	0.623629	0.369131
	C129	C	0.996252	0.623649	0.611166
	C130	C	0.014125	0.382511	0.611040
	C131	C	0.996506	0.382669	0.369369
	C132	C	0.884899	0.511160	0.112037
	C133	C	0.126388	0.493835	0.112697
	C134	C	0.125053	0.510692	0.868445
	C135	C	0.883217	0.493151	0.867016
	C136	C	0.129199	0.879561	0.498316
	C137	C	0.128342	0.125284	0.481060
	C138	C	0.883909	0.125841	0.497994
	C139	C	0.885319	0.881545	0.481628
	C140	C	0.515497	0.121902	0.868421
	C141	C	0.497112	0.122135	0.110241
	C142	C	0.515110	0.880925	0.109565
	C143	C	0.497193	0.880728	0.867409
	C144	C	0.384612	0.889710	0.668370
	C145	C	0.632682	0.113402	0.671583
	C146	C	0.630704	0.889331	0.309170
	C147	C	0.381324	0.113311	0.307018
	C148	C	0.685779	0.380017	0.877413
	C149	C	0.684703	0.623520	0.101811
	C150	C	0.324526	0.623352	0.877178
	C151	C	0.326902	0.381527	0.101682
	C152	C	0.890545	0.681902	0.369568
	C153	C	0.120612	0.679691	0.610561
	C154	C	0.891206	0.323934	0.611075
	C155	C	0.120045	0.324909	0.369256
	C156	C	0.890689	0.381486	0.668065
	C157	C	0.119415	0.624033	0.669605
	C158	C	0.891133	0.626574	0.310687
	C159	C	0.119167	0.380585	0.311171
	C160	C	0.381004	0.682553	0.877681
	C161	C	0.628727	0.683376	0.101007
	C162	C	0.630006	0.319883	0.878140
	C163	C	0.382041	0.321252	0.100425
	C164	C	0.685301	0.888857	0.369278
	C165	C	0.684353	0.115943	0.608994
	C166	C	0.329796	0.888635	0.608210
	C167	C	0.327669	0.115091	0.368213
	C168	C	0.882107	0.390366	0.170391
	C169	C	0.128872	0.614499	0.170931
	C170	C	0.126677	0.389632	0.810276
	C171	C	0.880292	0.614396	0.809381
	C172	C	0.183848	0.882922	0.376522
	C173	C	0.185126	0.122832	0.602391
	C174	C	0.826979	0.124140	0.376766
	C175	C	0.829456	0.884391	0.602893
	C176	C	0.390810	0.178259	0.868456
	C177	C	0.621035	0.179377	0.109680
	C178	C	0.390705	0.825635	0.108116
	C179	C	0.620761	0.822684	0.868810
	C180	C	0.392193	0.880165	0.167135
	C181	C	0.620909	0.122546	0.167566
	C182	C	0.392237	0.122552	0.809666
	C183	C	0.621311	0.879793	0.811631
	C184	C	0.883453	0.183480	0.377346
	C185	C	0.128689	0.182483	0.601825
	C186	C	0.128981	0.822241	0.377859
	C187	C	0.885002	0.824462	0.602307
	C188	C	0.181107	0.388078	0.870858
	C189	C	0.182609	0.615816	0.109937
	C190	C	0.828228	0.388906	0.109320
	C191	C	0.826240	0.615334	0.869693
	C192	C	0.410794	0.095248	0.587796
	C193	C	0.605194	0.908332	0.588763
	C194	C	0.602021	0.094950	0.389729
	C195	C	0.409300	0.908343	0.389043
	C196	C	0.602522	0.403462	0.081324
	C197	C	0.601128	0.599474	0.898110
	C198	C	0.407086	0.602192	0.081687
	C199	C	0.406519	0.402171	0.896197
	C200	C	0.099789	0.598819	0.392926
	C201	C	0.910442	0.600633	0.587202
	C202	C	0.100239	0.406251	0.588320
	C203	C	0.910479	0.406982	0.392976
	C204	C	0.909390	0.595321	0.089065
	C205	C	0.102067	0.408860	0.089780
	C206	C	0.100760	0.595966	0.891253
	C207	C	0.908537	0.408581	0.889887
	C208	C	0.105965	0.902631	0.582732
	C209	C	0.104180	0.102505	0.396871
	C210	C	0.908337	0.102472	0.581633
	C211	C	0.909742	0.904147	0.397353
	C212	C	0.601043	0.097668	0.892979
	C213	C	0.411284	0.098111	0.086335
	C214	C	0.601523	0.904421	0.086532
	C215	C	0.411121	0.905066	0.890030
	Zn216	Zn	0.508077	0.001751	0.739698
	Zn217	Zn	0.506766	0.000840	0.237764
	Zn218	Zn	0.756600	0.502112	-0.010490
	Zn219	Zn	0.253935	0.501804	-0.010260
	Zn220	Zn	0.006191	0.751450	0.489764
	Zn221	Zn	0.006104	0.255048	0.489540
	Zn222	Zn	0.004258	0.502831	0.738817
	Zn223	Zn	0.004881	0.502936	0.241636
	Zn224	Zn	0.505178	0.754118	-0.010745
	Zn225	Zn	0.505214	0.250320	-0.010810
	Zn226	Zn	0.755474	0.002501	0.489262
	Zn227	Zn	0.257356	0.002305	0.489383
	N228	N	0.419459	0.966538	0.669753
	N229	N	0.598747	0.036208	0.673251
	N230	N	0.595229	0.966014	0.307594
	N231	N	0.416206	0.036420	0.305579
	N232	N	0.684026	0.416601	0.952691
	N233	N	0.683064	0.586764	0.026668
	N234	N	0.325262	0.588179	0.952906
	N235	N	0.327476	0.417251	0.026202
	N236	N	0.967982	0.680101	0.405308
	N237	N	0.043085	0.679620	0.574852
	N238	N	0.968887	0.324648	0.576164
	N239	N	0.042594	0.326140	0.404748
	N240	N	0.968137	0.417140	0.668160
	N241	N	0.041207	0.590311	0.670375
	N242	N	0.968977	0.591003	0.310233
	N243	N	0.041262	0.416021	0.311084
	N244	N	0.416516	0.683655	0.953632
	N245	N	0.592726	0.683422	0.025275
	N246	N	0.594255	0.319594	0.953897
	N247	N	0.416161	0.319817	0.023926
	N248	N	0.683182	0.965000	0.404618
	N249	N	0.681736	0.040335	0.572177
	N250	N	0.330980	0.964770	0.572675
	N251	N	0.329555	0.039433	0.404385
	N252	N	0.916522	0.467274	0.172247
	N253	N	0.094666	0.537443	0.172724
	N254	N	0.092679	0.467032	0.808699
	N255	N	0.914991	0.537358	0.807572
	N256	N	0.184090	0.917904	0.452580
	N257	N	0.185198	0.088207	0.526187
	N258	N	0.826806	0.089176	0.452645
	N259	N	0.829650	0.919118	0.526776
	N260	N	0.468434	0.178298	0.904125
	N261	N	0.542997	0.179406	0.074793
	N262	N	0.468417	0.825889	0.073222
	N263	N	0.542713	0.823218	0.902814
	N264	N	0.470501	0.913908	0.167985
	N265	N	0.542867	0.087798	0.167978
	N266	N	0.470737	0.088464	0.809391
	N267	N	0.543441	0.915154	0.810458
	N268	N	0.917897	0.184896	0.453793
	N269	N	0.094316	0.184303	0.525354
	N270	N	0.095839	0.819979	0.454751
	N271	N	0.919103	0.822630	0.525912
	N272	N	0.180357	0.464545	0.906194
	N273	N	0.181294	0.539569	0.074456
	N274	N	0.829751	0.464836	0.073497
	N275	N	0.827815	0.539049	0.904544
	O276	O	0.017652	0.022859	0.019548
	H277	H	0.021363	0.020628	0.028462
	H278	H	0.020490	0.022748	0.015783
	O279	O	1.018190	-0.095157	0.974169
	H280	H	1.005369	-0.085762	0.963434
	H281	H	1.003255	-0.097638	0.992066
	O282	O	0.995953	-0.057499	-0.145054
	H283	H	0.996287	-0.065107	-0.145400
	H284	H	1.003872	-0.048009	-0.151082
	O285	O	-0.034549	1.028145	0.035405
	H286	H	-0.038600	1.036091	0.037157
	H287	H	-0.028469	1.029641	0.035538
	O288	O	0.475940	0.657758	0.486181
	H289	H	0.465264	0.661051	0.487393
	H290	H	0.482425	0.652485	0.488019
	O291	O	0.339229	0.630602	0.440071
	H292	H	0.342494	0.629427	0.435163
	H293	H	0.341361	0.626961	0.421997
	O294	O	0.999240	0.953095	1.031964
	H295	H	0.993108	0.953236	1.040794
	H296	H	1.003069	0.947525	1.026449
	O297	O	-0.031429	0.016815	0.085538
	H298	H	-0.040192	0.011348	0.086894
	H299	H	-0.037661	0.027708	0.089308
	O300	O	0.694407	0.477792	0.304082
	H301	H	0.691211	0.496814	0.301308
	H302	H	0.693930	0.481780	0.304035
	O303	O	-0.009487	1.090253	0.926700
	H304	H	-0.007049	1.086395	0.943448
	H305	H	-0.007820	1.095673	0.925298
	O306	O	0.345311	0.502097	0.648917
	H307	H	0.333229	0.514475	0.649721
	H308	H	0.349830	0.526130	0.646968
	O309	O	0.930892	-0.039288	0.047217
	H310	H	0.929358	-0.042218	0.058128
	H311	H	0.920222	-0.025959	0.049368
	O312	O	0.113894	-0.040625	1.105766
	H313	H	0.111572	-0.050579	1.104278
	H314	H	0.114595	-0.029558	1.095648
	O315	O	0.361782	0.410967	0.320781
	H316	H	0.362572	0.424855	0.312355
	H317	H	0.381790	0.396893	0.314411
	O318	O	0.366234	0.323518	0.487445
	H319	H	0.387685	0.312772	0.473769
	H320	H	0.353188	0.320781	0.470103
	O321	O	0.636928	0.521167	0.451202
	H322	H	0.631853	0.510026	0.472402
	H323	H	0.628537	0.521901	0.460764
	O324	O	0.476905	0.575320	0.594816
	H325	H	0.467687	0.568116	0.590029
	H326	H	0.466467	0.577051	0.594180
	O327	O	-0.078043	0.895996	1.070155
	H328	H	-0.067786	0.898350	1.066398
	H329	H	-0.071589	0.899923	1.064366
	O330	O	0.668360	0.585875	0.665302
	H331	H	0.655536	0.572052	0.651256
	H332	H	0.676119	0.569052	0.686972
	O333	O	-0.383396	0.629750	1.432510
	H334	H	-0.393889	0.627520	1.423636
	H335	H	-0.390167	0.618436	1.431026
	O336	O	0.993832	0.937011	1.079554
	H337	H	1.004781	0.948893	1.073305
	H338	H	0.982368	0.926023	1.080291
	O339	O	0.580991	0.337193	0.494717
	H340	H	0.582262	0.350805	0.506214
	H341	H	0.567722	0.331225	0.506061
	O342	O	0.984955	0.008029	0.036321
	H343	H	0.990236	0.003972	0.040424
	H344	H	0.976280	0.002027	0.031476
	O345	O	0.494821	0.516026	0.360815
	H346	H	0.494554	0.520823	0.368571
	H347	H	0.489529	0.526897	0.357121
	O348	O	1.116165	1.005897	0.996752
	H349	H	1.134434	0.992362	0.993321
	H350	H	1.118005	1.010188	0.990916
	O351	O	1.097207	0.998561	-0.116927
	H352	H	1.089533	0.997373	-0.115573
	H353	H	1.097044	0.987492	-0.118331
	O354	O	0.532506	0.348458	0.462426
	H355	H	0.550805	0.338212	0.448922
	H356	H	0.530874	0.337665	0.484889
	O357	O	0.438047	0.522978	0.313586
	H358	H	0.462170	0.510555	0.312188
	H359	H	0.427989	0.515947	0.303448
	O360	O	-0.390718	0.612354	-0.351150
	H361	H	-0.372877	0.610541	-0.342237
	H362	H	-0.394720	0.604340	-0.330900
	O363	O	0.406831	0.546337	0.428173
	H364	H	0.404430	0.527074	0.417983
	H365	H	0.393650	0.554326	0.427284
	O366	O	0.450583	0.562475	0.666796
	H367	H	0.444887	0.577055	0.652363
	H368	H	0.455248	0.553926	0.668345
	O369	O	0.501044	0.666254	0.665462
	H370	H	0.527658	0.664393	0.668782
	H371	H	0.505510	0.687118	0.668781
	O372	O	0.514260	0.702982	0.399044
	H373	H	0.519163	0.720396	0.381389
	H374	H	0.517125	0.697390	0.402585
	O375	O	-0.314121	0.572421	1.593621
	H376	H	-0.320114	0.572585	1.585120
	H377	H	-0.308649	0.550674	1.609704
	O378	O	0.545416	0.302180	0.280339
	H379	H	0.561741	0.281384	0.265547
	H380	H	0.575933	0.305982	0.282405
	O381	O	0.322339	0.323380	0.639683
	H382	H	0.309966	0.321118	0.611294
	H383	H	0.317793	0.350974	0.634461
	O384	O	0.474178	0.311552	-0.303609
	H385	H	0.451184	0.308763	-0.296153
	H386	H	0.448426	0.301623	-0.295894
	O387	O	0.985731	0.034388	0.908499
	H388	H	0.984933	0.037484	0.900750
	H389	H	0.996839	0.036378	0.909464
	O390	O	-0.681603	0.643732	0.366704
	H391	H	-0.671532	0.652404	0.360319
	H392	H	-0.685884	0.626885	0.365831
	O393	O	1.013108	1.070928	-0.010014
	H394	H	1.024912	1.071105	-0.019866
	H395	H	1.020308	1.083124	0.002435
	O396	O	0.572227	0.329660	0.555838
	H397	H	0.564770	0.342622	0.555149
	H398	H	0.577912	0.325869	0.570451
	O399	O	0.027137	1.075169	0.957899
	H400	H	0.021740	1.076040	0.948625
	H401	H	0.038054	1.071364	0.960705
	O402	O	1.106815	0.880541	0.953648
	H403	H	1.116805	0.876369	0.947595
	H404	H	1.094754	0.876514	0.939908
	O405	O	0.694381	1.324477	0.331189
	H406	H	0.695665	1.338734	0.353169
	H407	H	0.706721	1.338648	0.340047
