data_Molecule from HDF5

_cell_length_a		16.507925
_cell_length_b		16.402475
_cell_length_c		16.393855
_cell_angle_alpha	90.070327
_cell_angle_beta	89.970527
_cell_angle_gamma	89.768641
_symmetry_space_group_name_H-M	'P 1'
_symmetry_Int_Tables_number		1

loop_
	_symmetry_equiv_pos_as_xyz
	x,y,z

loop_
	_atom_site_label
	_atom_site_type_symbol
	_atom_site_fract_x
	_atom_site_fract_y
	_atom_site_fract_z
	H0	H	0.399565	0.857781	0.727386
	H1	H	0.609147	0.174401	0.726779
	H2	H	0.610770	0.856773	0.284414
	H3	H	0.401244	0.174889	0.284793
	H4	H	0.729597	0.406019	0.846430
	H5	H	0.723623	0.616825	0.163900
	H6	H	0.280920	0.624097	0.847777
	H7	H	0.282673	0.407314	0.162408
	H8	H	0.849832	0.737241	0.400850
	H9	H	0.163893	0.739572	0.613290
	H10	H	0.848758	0.295320	0.609808
	H11	H	0.162278	0.289058	0.394720
	H12	H	0.848866	0.411677	0.725637
	H13	H	0.162995	0.625200	0.731820
	H14	H	0.850079	0.621080	0.284032
	H15	H	0.164257	0.407090	0.281113
	H16	H	0.396791	0.739830	0.847625
	H17	H	0.606062	0.732522	0.164580
	H18	H	0.610345	0.293490	0.845859
	H19	H	0.402835	0.295695	0.164584
	H20	H	0.728145	0.858186	0.399507
	H21	H	0.727214	0.174388	0.611889
	H22	H	0.282801	0.859081	0.613374
	H23	H	0.282533	0.173461	0.396868
	H24	H	0.906732	0.354834	0.223357
	H25	H	0.111662	0.674080	0.225910
	H26	H	0.114439	0.358029	0.780481
	H27	H	0.901730	0.674474	0.786183
	H28	H	0.229175	0.909540	0.347058
	H29	H	0.230632	0.125855	0.662612
	H30	H	0.784119	0.122811	0.347371
	H31	H	0.782136	0.907255	0.661889
	H32	H	0.350218	0.241356	0.896281
	H33	H	0.664444	0.235346	0.109814
	H34	H	0.349067	0.791265	0.113810
	H35	H	0.662690	0.793389	0.900139
	H36	H	0.348214	0.909079	0.228066
	H37	H	0.663517	0.119429	0.226380
	H38	H	0.349484	0.125822	0.780900
	H39	H	0.662536	0.909508	0.784321
	H40	H	0.901796	0.236816	0.345961
	H41	H	0.112369	0.239052	0.663311
	H42	H	0.112104	0.795200	0.346115
	H43	H	0.901067	0.794234	0.663687
	H44	H	0.232535	0.358586	0.893427
	H45	H	0.230428	0.671474	0.113079
	H46	H	0.787286	0.354897	0.110610
	H47	H	0.783356	0.672287	0.899525
	H48	H	0.417463	0.127982	0.590697
	H49	H	0.593865	0.901091	0.600453
	H50	H	0.593873	0.127823	0.419169
	H51	H	0.414960	0.902258	0.419538
	H52	H	0.599530	0.428958	0.117944
	H53	H	0.597770	0.604858	0.889414
	H54	H	0.414465	0.603175	0.118662
	H55	H	0.411064	0.433562	0.891590
	H56	H	0.120798	0.606480	0.416607
	H57	H	0.894258	0.605562	0.596485
	H58	H	0.118268	0.429101	0.593508
	H59	H	0.895875	0.423663	0.422831
	H60	H	0.118986	0.425953	0.591971
	H61	H	0.894857	0.607945	0.592466
	H62	H	0.118971	0.603353	0.417240
	H63	H	0.896802	0.435048	0.413270
	H64	H	0.418508	0.596548	0.115233
	H65	H	0.595923	0.600758	0.891121
	H66	H	0.592671	0.425729	0.117198
	H67	H	0.427051	0.433487	0.897160
	H68	H	0.598972	0.131295	0.416577
	H69	H	0.590780	0.906024	0.588728
	H70	H	0.417352	0.128846	0.594590
	H71	H	0.418398	0.902066	0.414613
	H72	H	0.914922	0.627908	0.092622
	H73	H	0.099237	0.402107	0.088184
	H74	H	0.095372	0.628328	0.918568
	H75	H	0.913999	0.398435	0.910297
	H76	H	0.096089	0.926044	0.619506
	H77	H	0.092627	0.109161	0.390773
	H78	H	0.919383	0.100840	0.615725
	H79	H	0.918911	0.933157	0.394850
	H80	H	0.615715	0.103750	0.922268
	H81	H	0.392023	0.104935	0.100532
	H82	H	0.617931	0.925947	0.094656
	H83	H	0.390960	0.921136	0.921100
	H84	H	0.619040	0.923745	0.096194
	H85	H	0.392156	0.110198	0.091035
	H86	H	0.616388	0.096981	0.915483
	H87	H	0.396005	0.932811	0.920367
	H88	H	0.919747	0.110007	0.619577
	H89	H	0.100825	0.100090	0.392191
	H90	H	0.097517	0.931814	0.618252
	H91	H	0.921415	0.923760	0.392546
	H92	H	0.090950	0.626192	0.917455
	H93	H	0.094420	0.400159	0.096961
	H94	H	0.913093	0.629111	0.094470
	H95	H	0.923437	0.402601	0.914351
	H96	H	0.420435	0.128053	0.592742
	H97	H	0.602466	0.900680	0.590680
	H98	H	0.593223	0.130422	0.412818
	H99	H	0.420185	0.904703	0.419333
	H100	H	0.598341	0.421321	0.119666
	H101	H	0.593023	0.604720	0.890884
	H102	H	0.422702	0.603959	0.115855
	H103	H	0.420155	0.419531	0.889991
	H104	H	0.121097	0.603474	0.414343
	H105	H	0.896696	0.603623	0.592955
	H106	H	0.117889	0.428655	0.589286
	H107	H	0.890588	0.423023	0.408575
	H108	H	0.915667	0.628187	0.095057
	H109	H	0.089765	0.404628	0.089607
	H110	H	0.093059	0.625803	0.921878
	H111	H	0.914793	0.401881	0.921130
	H112	H	0.091974	0.929622	0.616679
	H113	H	0.089670	0.098432	0.395964
	H114	H	0.911589	0.105316	0.620672
	H115	H	0.913008	0.926678	0.390007
	H116	H	0.619547	0.105793	0.914123
	H117	H	0.395711	0.100104	0.091257
	H118	H	0.617745	0.923183	0.093676
	H119	H	0.390317	0.927450	0.910633
	C120	C	0.384753	0.024648	0.626523
	C121	C	0.627219	1.007293	0.626493
	C122	C	0.627717	0.024672	0.383847
	C123	C	0.384982	1.007439	0.384310
	C124	C	0.628400	0.392502	0.013360
	C125	C	0.626507	0.635097	0.995773
	C126	C	0.384700	0.635978	0.012972
	C127	C	0.385969	0.394930	0.996647
	C128	C	0.016143	0.636995	0.383763
	C129	C	0.998600	0.638721	0.628031
	C130	C	0.014760	0.395155	0.624894
	C131	C	0.998348	0.393365	0.382172
	C132	C	0.884826	0.523112	0.126081
	C133	C	0.127832	0.506383	0.125378
	C134	C	0.127737	0.523342	0.883598
	C135	C	0.885203	0.506139	0.883734
	C136	C	0.128299	0.895501	0.513677
	C137	C	0.127659	0.137023	0.497078
	C138	C	0.884804	0.137541	0.513771
	C139	C	0.885278	0.894874	0.496864
	C140	C	0.514044	0.136720	0.883758
	C141	C	0.497747	0.136863	0.126676
	C142	C	0.513982	0.893040	0.127500
	C143	C	0.496410	0.893863	0.884176
	C144	C	0.381586	0.905714	0.687650
	C145	C	0.628616	0.126686	0.687187
	C146	C	0.629645	0.904917	0.323968
	C147	C	0.382585	0.126852	0.324267
	C148	C	0.688638	0.388879	0.893864
	C149	C	0.684534	0.635807	0.116023
	C150	C	0.322191	0.640924	0.894801
	C151	C	0.323618	0.390189	0.115237
	C152	C	0.897174	0.696998	0.382340
	C153	C	0.116568	0.699602	0.631748
	C154	C	0.896080	0.335289	0.627752
	C155	C	0.115849	0.330597	0.378002
	C156	C	0.896307	0.392863	0.685840
	C157	C	0.116071	0.642198	0.690423
	C158	C	0.897395	0.639286	0.324033
	C159	C	0.116711	0.389468	0.321412
	C160	C	0.380117	0.698396	0.894715
	C161	C	0.626137	0.693297	0.116320
	C162	C	0.629667	0.332537	0.893585
	C163	C	0.383550	0.334685	0.116370
	C164	C	0.687948	0.905507	0.381269
	C165	C	0.687082	0.126700	0.629976
	C166	C	0.323517	0.906121	0.630650
	C167	C	0.323620	0.126410	0.380455
	C168	C	0.886405	0.402770	0.184458
	C169	C	0.130156	0.626005	0.186211
	C170	C	0.132012	0.405366	0.820900
	C171	C	0.883347	0.626198	0.825207
	C172	C	0.188831	0.892046	0.394455
	C173	C	0.189532	0.142252	0.615411
	C174	C	0.824511	0.140375	0.394747
	C175	C	0.823742	0.890959	0.615246
	C176	C	0.396894	0.199943	0.879738
	C177	C	0.616715	0.196172	0.128764
	C178	C	0.396088	0.832016	0.131393
	C179	C	0.615133	0.833308	0.881662
	C180	C	0.395556	0.890913	0.188360
	C181	C	0.616274	0.138194	0.186699
	C182	C	0.396587	0.142241	0.821790
	C183	C	0.615159	0.891476	0.824094
	C184	C	0.883000	0.197080	0.394001
	C185	C	0.130640	0.198877	0.615767
	C186	C	0.130797	0.834837	0.394234
	C187	C	0.882825	0.834280	0.615899
	C188	C	0.190727	0.405596	0.877574
	C189	C	0.189024	0.624954	0.129708
	C190	C	0.826945	0.402891	0.128250
	C191	C	0.824209	0.625212	0.881555
	C192	C	0.410737	0.106828	0.600142
	C193	C	0.602687	0.924341	0.600899
	C194	C	0.602540	0.108055	0.409037
	C195	C	0.410448	0.924586	0.410322
	C196	C	0.604000	0.417980	0.096553
	C197	C	0.602305	0.610523	0.912175
	C198	C	0.411078	0.609097	0.095155
	C199	C	0.411859	0.421327	0.914202
	C200	C	0.098750	0.611797	0.408920
	C201	C	0.916534	0.613199	0.601664
	C202	C	0.096905	0.420664	0.599091
	C203	C	0.916084	0.419570	0.407585
	C204	C	0.907764	0.606575	0.101285
	C205	C	0.101912	0.423954	0.099086
	C206	C	0.101100	0.605459	0.911498
	C207	C	0.910244	0.422700	0.908282
	C208	C	0.102621	0.921723	0.596622
	C209	C	0.101960	0.110177	0.414494
	C210	C	0.909934	0.112600	0.596961
	C211	C	0.910570	0.920476	0.414168
	C212	C	0.595980	0.109879	0.909835
	C213	C	0.414880	0.112296	0.101378
	C214	C	0.596653	0.917463	0.102182
	C215	C	0.413879	0.919558	0.909865
	Zn216	Zn	0.505337	0.015355	0.755238
	Zn217	Zn	0.505601	0.015244	0.255822
	Zn218	Zn	0.755907	0.513471	0.004546
	Zn219	Zn	0.256318	0.515158	0.004449
	Zn220	Zn	0.007499	0.766544	0.505220
	Zn221	Zn	0.006669	0.265685	0.504570
	Zn222	Zn	0.006757	0.515446	0.754997
	Zn223	Zn	0.007515	0.515296	0.254282
	Zn224	Zn	0.505067	0.764706	0.005082
	Zn225	Zn	0.506305	0.265515	0.005184
	Zn226	Zn	0.756495	0.016618	0.505195
	Zn227	Zn	0.256705	0.016495	0.505325
	N228	N	0.418890	0.980370	0.685284
	N229	N	0.592419	0.051450	0.685325
	N230	N	0.592874	0.980173	0.325605
	N231	N	0.420221	0.051966	0.326825
	N232	N	0.688074	0.425316	0.969437
	N233	N	0.685007	0.600396	0.040089
	N234	N	0.325081	0.602647	0.969227
	N235	N	0.324753	0.426749	0.039705
	N236	N	0.972279	0.695909	0.418524
	N237	N	0.042527	0.697556	0.593604
	N238	N	0.970822	0.336481	0.590784
	N239	N	0.041324	0.332879	0.415274
	N240	N	0.971018	0.429491	0.684218
	N241	N	0.041590	0.605318	0.688225
	N242	N	0.972349	0.602694	0.324681
	N243	N	0.042799	0.428046	0.324186
	N244	N	0.418197	0.695412	0.969234
	N245	N	0.590974	0.693188	0.040481
	N246	N	0.592936	0.334756	0.968810
	N247	N	0.421376	0.337363	0.041789
	N248	N	0.686963	0.981041	0.417551
	N249	N	0.686691	0.051406	0.593199
	N250	N	0.325338	0.981044	0.593353
	N251	N	0.325012	0.051110	0.417068
	N252	N	0.921667	0.478469	0.183464
	N253	N	0.092765	0.551235	0.183655
	N254	N	0.093794	0.479747	0.824521
	N255	N	0.920364	0.551027	0.826333
	N256	N	0.187753	0.928733	0.469999
	N257	N	0.187581	0.104402	0.540651
	N258	N	0.825289	0.104288	0.470363
	N259	N	0.825269	0.928143	0.540257
	N260	N	0.470998	0.196486	0.917760
	N261	N	0.541884	0.195433	0.092239
	N262	N	0.470729	0.833096	0.094180
	N263	N	0.540266	0.834740	0.918245
	N264	N	0.470026	0.928042	0.186059
	N265	N	0.541220	0.102308	0.185540
	N266	N	0.470404	0.103351	0.824377
	N267	N	0.540174	0.928173	0.825277
	N268	N	0.919841	0.195627	0.469083
	N269	N	0.093216	0.196102	0.540976
	N270	N	0.094003	0.836701	0.469445
	N271	N	0.920718	0.836758	0.541357
	N272	N	0.188313	0.480382	0.915646
	N273	N	0.187774	0.549796	0.092785
	N274	N	0.825789	0.478728	0.092571
	N275	N	0.825049	0.549338	0.917056
	O276	O	-0.082421	0.184137	0.163501
	H277	H	-0.079017	0.191958	0.153201
	H278	H	-0.091976	0.164957	0.163507
	O279	O	1.026613	-0.091371	1.035339
	H280	H	1.019961	-0.078954	1.044881
	H281	H	1.027797	-0.089186	1.024996
	O282	O	0.476159	0.341656	0.470222
	H283	H	0.497008	0.351008	0.481337
	H284	H	0.457660	0.338903	0.470329
	O285	O	0.585010	0.673729	0.590294
	H286	H	0.594417	0.677012	0.604110
	H287	H	0.591336	0.673072	0.585048
	O288	O	0.967435	1.017440	-0.021983
	H289	H	0.970542	1.027226	-0.012828
	H290	H	0.981110	1.006562	-0.017151
	O291	O	0.581727	0.402309	0.585833
	H292	H	0.578846	0.412770	0.587630
	H293	H	0.583463	0.412706	0.605165
	O294	O	-0.011107	-0.105193	1.166384
	H295	H	0.003595	-0.117469	1.156184
	H296	H	-0.007025	-0.123307	1.163655
	O297	O	0.578863	0.659208	0.460158
	H298	H	0.579143	0.639307	0.455668
	H299	H	0.570987	0.661143	0.442154
	O300	O	0.371722	0.507896	0.723714
	H301	H	0.363857	0.527482	0.706247
	H302	H	0.345375	0.517082	0.740881
	O303	O	0.506690	0.637092	0.395302
	H304	H	0.501742	0.634860	0.392011
	H305	H	0.506911	0.640586	0.396942
	O306	O	0.624688	0.716638	0.703982
	H307	H	0.628109	0.731092	0.698870
	H308	H	0.622810	0.730740	0.687960
	O309	O	0.480264	0.514087	0.501900
	H310	H	0.481161	0.507252	0.504129
	H311	H	0.474521	0.504040	0.513775
	O312	O	0.223496	0.992739	0.790365
	H313	H	0.230233	1.003181	0.815919
	H314	H	0.256950	0.986061	0.763875
	O315	O	0.474343	0.492019	0.685466
	H316	H	0.463388	0.493370	0.676956
	H317	H	0.482282	0.511072	0.683038
	O318	O	1.113756	-0.136839	0.146913
	H319	H	1.115312	-0.138447	0.120465
	H320	H	1.101701	-0.124742	0.134448
	O321	O	-0.180005	0.199778	-0.178866
	H322	H	-0.170174	0.200791	-0.161084
	H323	H	-0.157921	0.213099	-0.196852
	O324	O	0.593588	0.439095	0.593240
	H325	H	0.565534	0.444044	0.603486
	H326	H	0.589219	0.449931	0.594994
	O327	O	0.539037	0.434619	0.625731
	H328	H	0.532034	0.445506	0.608778
	H329	H	0.529082	0.435234	0.647617
	O330	O	0.077673	0.993469	0.167708
	H331	H	0.071049	0.981276	0.159047
	H332	H	0.082836	0.977242	0.166408
	O333	O	0.683297	0.310930	0.488973
	H334	H	0.672774	0.323668	0.487883
	H335	H	0.702392	0.291414	0.487616
	O336	O	0.224752	0.235036	0.020065
	H337	H	0.246375	0.261971	0.035081
	H338	H	0.220891	0.231612	0.058876
	O339	O	0.190848	0.832628	0.829417
	H340	H	0.163505	0.832336	0.830893
	H341	H	0.176611	0.852063	0.821576
	O342	O	-0.055247	1.216975	1.008668
	H343	H	-0.037636	1.210592	1.005859
	H344	H	-0.076893	1.227199	0.993485
	O345	O	0.711617	0.578148	-0.287083
	H346	H	0.717851	0.603286	-0.284159
	H347	H	0.718398	0.597289	-0.280919
	O348	O	0.387305	0.706646	0.360146
	H349	H	0.384182	0.691350	0.348511
	H350	H	0.396078	0.707203	0.345893
	O351	O	-0.081415	0.926903	1.032362
	H352	H	-0.084423	0.925604	1.037700
	H353	H	-0.078573	0.943135	1.023684
	O354	O	0.152928	1.081129	0.007323
	H355	H	0.162410	1.066204	0.008977
	H356	H	0.146972	1.105350	0.014519
	O357	O	0.195816	0.152539	1.189708
	H358	H	0.172003	0.156395	1.209731
	H359	H	0.186291	0.122497	1.196079
	O360	O	0.292033	0.309260	0.515120
	H361	H	0.276187	0.287683	0.531166
	H362	H	0.295254	0.308471	0.553075
	O363	O	-0.142144	-0.036621	0.887880
	H364	H	-0.141582	-0.016626	0.888159
	H365	H	-0.128630	-0.016193	0.881725
	O366	O	0.071775	0.140175	0.845780
	H367	H	0.085186	0.128089	0.852500
	H368	H	0.076824	0.126769	0.862022
	O369	O	0.438190	0.664015	0.612289
	H370	H	0.445130	0.661931	0.576176
	H371	H	0.416204	0.684204	0.605521
	O372	O	1.186805	0.011287	1.011677
	H373	H	1.197159	0.006823	1.012340
	H374	H	1.184982	0.023154	1.019330
	O375	O	0.716956	0.584068	0.489133
	H376	H	0.715331	0.567036	0.478641
	H377	H	0.720079	0.568245	0.490355
	O378	O	0.402223	0.700233	0.536184
	H379	H	0.416530	0.685191	0.523213
	H380	H	0.388300	0.706290	0.528576
	O381	O	0.924700	0.214408	0.204321
	H382	H	0.919590	0.226166	0.197257
	H383	H	0.919447	0.204629	0.212357
	O384	O	0.667031	0.323375	0.309220
	H385	H	0.676878	0.307260	0.319976
	H386	H	0.655129	0.334275	0.305212
	O387	O	0.302070	-0.338399	0.362320
	H388	H	0.306989	-0.351655	0.366089
	H389	H	0.284059	-0.327120	0.346501
	O390	O	-0.060271	-0.154678	-0.045847
	H391	H	-0.077002	-0.150991	-0.045857
	H392	H	-0.066390	-0.151178	-0.040107
	O393	O	0.789269	1.040191	0.788045
	H394	H	0.788953	1.065682	0.794797
	H395	H	0.766337	1.049324	0.764589
	O396	O	1.206353	-0.183696	-0.003834
	H397	H	1.215850	-0.177437	-0.004069
	H398	H	1.205696	-0.193437	-0.033444
	O399	O	0.845734	0.177037	0.985023
	H400	H	0.823990	0.183751	0.980720
	H401	H	0.848103	0.170969	0.974672
	O402	O	1.030495	0.805958	0.796640
	H403	H	1.014266	0.791367	0.793528
	H404	H	1.013088	0.806529	0.787509
	O405	O	0.994519	1.002526	-0.205790
	H406	H	1.005936	1.000845	-0.209465
	H407	H	0.982871	1.013639	-0.210979
	O408	O	0.884889	-0.034704	0.006424
	H409	H	0.888894	-0.029500	0.015737
	H410	H	0.885226	-0.030134	0.012392
	O411	O	0.828148	1.033990	0.121363
	H412	H	0.822411	1.029336	0.132250
	H413	H	0.837322	1.038927	0.097037
	O414	O	0.478445	0.347505	0.597336
	H415	H	0.484407	0.347496	0.589808
	H416	H	0.481012	0.357166	0.608825
	O417	O	0.317455	0.550542	0.471159
	H418	H	0.324305	0.546184	0.463056
	H419	H	0.315485	0.565846	0.466250
	O420	O	0.297314	0.371852	0.356311
	H421	H	0.276361	0.371594	0.354064
	H422	H	0.307977	0.336281	0.364136
	O423	O	0.519381	0.642017	0.326010
	H424	H	0.509370	0.637905	0.336924
	H425	H	0.524344	0.631175	0.322264
	O426	O	0.709687	0.495097	0.309241
	H427	H	0.690642	0.481702	0.306964
	H428	H	0.727538	0.487877	0.301105
	O429	O	0.636907	0.643503	0.372869
	H430	H	0.646718	0.639057	0.390445
	H431	H	0.617656	0.631491	0.372853
	O432	O	0.437373	0.521587	0.658375
	H433	H	0.450362	0.532544	0.662761
	H434	H	0.432769	0.537779	0.645297
	O435	O	0.437685	0.497051	0.315145
	H436	H	0.442243	0.505033	0.305239
	H437	H	0.432640	0.486389	0.335387
	O438	O	-0.199870	-0.187484	0.190153
	H439	H	-0.188837	-0.171093	0.194263
	H440	H	-0.209316	-0.200026	0.192294
	O441	O	0.961928	-0.008335	0.223083
	H442	H	0.949822	-0.011243	0.228817
	H443	H	0.944949	-0.011965	0.220200
	O444	O	-0.142386	0.826928	1.111690
	H445	H	-0.150183	0.817979	1.127451
	H446	H	-0.151756	0.817492	1.099580
	O447	O	0.574094	0.490744	0.307773
	H448	H	0.564355	0.477727	0.303075
	H449	H	0.564570	0.478498	0.315240
	O450	O	0.328955	0.330873	0.671776
	H451	H	0.372307	0.326690	0.683751
	H452	H	0.322699	0.375354	0.687512
	O453	O	-0.018348	0.224493	0.793603
	H454	H	-0.001437	0.228441	0.784706
	H455	H	-0.003061	0.229369	0.793566
