data_Molecule from HDF5

_cell_length_a		16.316111
_cell_length_b		16.251841
_cell_length_c		16.220924
_cell_angle_alpha	90.056717
_cell_angle_beta	90.085642
_cell_angle_gamma	90.126101
_symmetry_space_group_name_H-M	'P 1'
_symmetry_Int_Tables_number		1

loop_
	_symmetry_equiv_pos_as_xyz
	x,y,z

loop_
	_atom_site_label
	_atom_site_type_symbol
	_atom_site_fract_x
	_atom_site_fract_y
	_atom_site_fract_z
	H0	H	0.403622	0.828151	0.706587
	H1	H	0.599360	0.156596	0.706106
	H2	H	0.597989	0.828099	0.280271
	H3	H	0.404337	0.156850	0.279536
	H4	H	0.716023	0.393972	0.828711
	H5	H	0.715548	0.591150	0.157987
	H6	H	0.287678	0.590899	0.829068
	H7	H	0.287892	0.394181	0.157754
	H8	H	0.837508	0.705351	0.395748
	H9	H	0.165126	0.707637	0.592040
	H10	H	0.838710	0.277008	0.592414
	H11	H	0.165774	0.278148	0.396104
	H12	H	0.838340	0.395168	0.706789
	H13	H	0.165490	0.590849	0.707693
	H14	H	0.837433	0.588428	0.279719
	H15	H	0.165743	0.394239	0.279120
	H16	H	0.404338	0.704847	0.828353
	H17	H	0.600166	0.706625	0.157663
	H18	H	0.599073	0.279509	0.828526
	H19	H	0.404656	0.279374	0.158207
	H20	H	0.715619	0.828947	0.393736
	H21	H	0.716582	0.155270	0.591707
	H22	H	0.285963	0.828544	0.591841
	H23	H	0.286560	0.156363	0.393670
	H24	H	0.904913	0.327752	0.204922
	H25	H	0.099616	0.657104	0.207772
	H26	H	0.098418	0.327811	0.779773
	H27	H	0.906239	0.657308	0.781308
	H28	H	0.215406	0.893059	0.328965
	H29	H	0.217390	0.092461	0.657079
	H30	H	0.788347	0.089886	0.328735
	H31	H	0.787270	0.894032	0.657109
	H32	H	0.337916	0.206835	0.893826
	H33	H	0.665942	0.207354	0.091885
	H34	H	0.337969	0.777540	0.090884
	H35	H	0.665484	0.778110	0.893888
	H36	H	0.337490	0.894677	0.206717
	H37	H	0.665663	0.089998	0.207157
	H38	H	0.337825	0.089464	0.778503
	H39	H	0.665693	0.894631	0.778577
	H40	H	0.904299	0.205136	0.329101
	H41	H	0.100238	0.206187	0.658112
	H42	H	0.098689	0.778151	0.328728
	H43	H	0.904319	0.779808	0.658377
	H44	H	0.216091	0.328165	0.894501
	H45	H	0.217791	0.656137	0.093821
	H46	H	0.786845	0.329082	0.092862
	H47	H	0.787759	0.656619	0.894382
	H48	H	0.410733	0.106837	0.580124
	H49	H	0.596076	0.873256	0.591657
	H50	H	0.599324	0.107173	0.410505
	H51	H	0.408919	0.873794	0.392189
	H52	H	0.594040	0.399886	0.109869
	H53	H	0.590444	0.592237	0.875613
	H54	H	0.412516	0.587872	0.110501
	H55	H	0.412344	0.404072	0.878331
	H56	H	0.118177	0.584675	0.398701
	H57	H	0.882007	0.589885	0.593352
	H58	H	0.119558	0.399219	0.590599
	H59	H	0.884085	0.392510	0.398770
	H60	H	0.118531	0.395254	0.584377
	H61	H	0.886205	0.589718	0.581152
	H62	H	0.118179	0.588257	0.400172
	H63	H	0.887587	0.399466	0.403886
	H64	H	0.406215	0.587253	0.112029
	H65	H	0.604516	0.586079	0.873381
	H66	H	0.597057	0.398235	0.111075
	H67	H	0.410409	0.393041	0.874428
	H68	H	0.602602	0.114168	0.393316
	H69	H	0.590142	0.877522	0.584209
	H70	H	0.402430	0.111513	0.586518
	H71	H	0.412825	0.878630	0.404772
	H72	H	0.915320	0.605848	0.078683
	H73	H	0.094780	0.375813	0.086557
	H74	H	0.093016	0.607558	0.902973
	H75	H	0.915315	0.377233	0.898110
	H76	H	0.094169	0.896456	0.611099
	H77	H	0.093686	0.083176	0.377134
	H78	H	0.907456	0.095285	0.613914
	H79	H	0.909326	0.908903	0.378786
	H80	H	0.617305	0.091896	0.905140
	H81	H	0.385822	0.088255	0.084331
	H82	H	0.619974	0.896382	0.090531
	H83	H	0.384306	0.899908	0.893386
	H84	H	0.616507	0.897671	0.081907
	H85	H	0.386647	0.083673	0.085248
	H86	H	0.615791	0.079843	0.900451
	H87	H	0.384265	0.891554	0.900607
	H88	H	0.899462	0.078083	0.611109
	H89	H	0.092837	0.085511	0.376413
	H90	H	0.098032	0.902520	0.610641
	H91	H	0.915637	0.890330	0.375275
	H92	H	0.098485	0.609051	0.902951
	H93	H	0.095002	0.376549	0.085673
	H94	H	0.897337	0.612353	0.085231
	H95	H	0.906666	0.377851	0.908530
	H96	H	0.413114	0.108767	0.591109
	H97	H	0.599366	0.874646	0.582151
	H98	H	0.585259	0.108609	0.398031
	H99	H	0.399324	0.873993	0.403140
	H100	H	0.597178	0.401472	0.110040
	H101	H	0.593124	0.577234	0.878690
	H102	H	0.409257	0.581884	0.109146
	H103	H	0.401564	0.401484	0.875389
	H104	H	0.117172	0.585722	0.402304
	H105	H	0.887402	0.578639	0.588293
	H106	H	0.116969	0.402553	0.584878
	H107	H	0.885124	0.400529	0.395396
	H108	H	0.913694	0.611663	0.097999
	H109	H	0.095217	0.376142	0.086048
	H110	H	0.095092	0.609358	0.897922
	H111	H	0.902486	0.372190	0.896252
	H112	H	0.091688	0.902501	0.608422
	H113	H	0.096251	0.084864	0.376031
	H114	H	0.918057	0.080842	0.607083
	H115	H	0.896903	0.895179	0.372389
	H116	H	0.620825	0.089442	0.892735
	H117	H	0.385187	0.086174	0.088886
	H118	H	0.616786	0.904730	0.088089
	H119	H	0.387679	0.901450	0.904079
	C120	C	0.380002	0.000502	0.614214
	C121	C	0.623441	0.983351	0.614504
	C122	C	0.622931	0.001183	0.371966
	C123	C	0.379185	0.984268	0.371938
	C124	C	0.623718	0.371393	0.001461
	C125	C	0.624051	0.614249	0.984960
	C126	C	0.380774	0.613878	0.001663
	C127	C	0.380241	0.371226	0.985027
	C128	C	0.009675	0.613697	0.372064
	C129	C	0.993436	0.614771	0.616046
	C130	C	0.010322	0.370674	0.615185
	C131	C	0.993582	0.369487	0.371115
	C132	C	0.880477	0.501236	0.115019
	C133	C	0.123846	0.484140	0.115350
	C134	C	0.123392	0.500345	0.872535
	C135	C	0.880126	0.484342	0.872275
	C136	C	0.122596	0.871357	0.501514
	C137	C	0.123247	0.113483	0.484834
	C138	C	0.880388	0.113037	0.501848
	C139	C	0.879603	0.870524	0.484550
	C140	C	0.509856	0.114805	0.870750
	C141	C	0.493850	0.114479	0.114657
	C142	C	0.509457	0.871144	0.114620
	C143	C	0.493731	0.870089	0.870921
	C144	C	0.382804	0.876969	0.668778
	C145	C	0.620103	0.107257	0.668870
	C146	C	0.618963	0.877214	0.317671
	C147	C	0.383159	0.107795	0.317024
	C148	C	0.678355	0.373967	0.877774
	C149	C	0.678155	0.611603	0.108788
	C150	C	0.325684	0.611129	0.878022
	C151	C	0.325880	0.373903	0.108861
	C152	C	0.886223	0.667517	0.375167
	C153	C	0.116480	0.669715	0.612658
	C154	C	0.887330	0.315450	0.612621
	C155	C	0.116844	0.315528	0.374788
	C156	C	0.887190	0.373698	0.669719
	C157	C	0.116673	0.611537	0.670029
	C158	C	0.886245	0.609723	0.317539
	C159	C	0.116945	0.373566	0.317055
	C160	C	0.384130	0.667398	0.877458
	C161	C	0.620614	0.669004	0.108481
	C162	C	0.620032	0.316987	0.877606
	C163	C	0.383849	0.316926	0.109039
	C164	C	0.677258	0.877544	0.374101
	C165	C	0.678649	0.106740	0.612352
	C166	C	0.324426	0.877290	0.611852
	C167	C	0.324816	0.107635	0.373834
	C168	C	0.883611	0.377249	0.168787
	C169	C	0.120624	0.608088	0.170076
	C170	C	0.119855	0.376781	0.817500
	C171	C	0.884522	0.608004	0.817988
	C172	C	0.177431	0.873196	0.377673
	C173	C	0.178872	0.112094	0.608405
	C174	C	0.825941	0.110463	0.377985
	C175	C	0.825060	0.873473	0.608405
	C176	C	0.386703	0.169118	0.873608
	C177	C	0.617043	0.169398	0.111964
	C178	C	0.386827	0.815547	0.111642
	C179	C	0.616740	0.815659	0.873229
	C180	C	0.386667	0.873519	0.169572
	C181	C	0.616993	0.111400	0.169527
	C182	C	0.386615	0.110671	0.816206
	C183	C	0.616760	0.873707	0.816089
	C184	C	0.883719	0.167556	0.378257
	C185	C	0.120513	0.168342	0.608929
	C186	C	0.119182	0.816467	0.377600
	C187	C	0.883259	0.816786	0.608869
	C188	C	0.178367	0.377006	0.874450
	C189	C	0.179274	0.607611	0.113581
	C190	C	0.825063	0.377953	0.112675
	C191	C	0.826224	0.608065	0.874707
	C192	C	0.402142	0.086736	0.592307
	C193	C	0.601650	0.897189	0.592365
	C194	C	0.601857	0.087616	0.393981
	C195	C	0.400612	0.897756	0.393711
	C196	C	0.602310	0.393381	0.088055
	C197	C	0.602410	0.591906	0.898070
	C198	C	0.402838	0.592087	0.088212
	C199	C	0.401633	0.393053	0.898387
	C200	C	0.095727	0.592613	0.393850
	C201	C	0.907337	0.592600	0.594155
	C202	C	0.096262	0.392734	0.593144
	C203	C	0.907637	0.391033	0.392901
	C204	C	0.902389	0.587658	0.093676
	C205	C	0.101530	0.398371	0.092780
	C206	C	0.101952	0.586457	0.894716
	C207	C	0.901786	0.398094	0.894426
	C208	C	0.101105	0.893769	0.587630
	C209	C	0.100888	0.091187	0.398963
	C210	C	0.901986	0.091102	0.588477
	C211	C	0.900964	0.891883	0.397860
	C212	C	0.595861	0.093370	0.892666
	C213	C	0.407984	0.092524	0.092718
	C214	C	0.595588	0.893100	0.093137
	C215	C	0.407646	0.891375	0.892857
	Zn216	Zn	0.501953	-0.008078	0.742540
	Zn217	Zn	0.501733	-0.007335	0.243950
	Zn218	Zn	0.752252	0.493154	-0.006341
	Zn219	Zn	0.252210	0.492807	-0.006450
	Zn220	Zn	0.001308	0.742939	0.493539
	Zn221	Zn	0.002163	0.241405	0.493828
	Zn222	Zn	0.002018	0.492488	0.743735
	Zn223	Zn	0.001741	0.492520	0.243175
	Zn224	Zn	0.501886	0.741740	-0.007328
	Zn225	Zn	0.501302	0.243436	-0.006825
	Zn226	Zn	0.751728	-0.008005	0.492789
	Zn227	Zn	0.251069	-0.007407	0.493325
	N228	N	0.416693	0.954503	0.670256
	N229	N	0.586546	0.029564	0.670343
	N230	N	0.585867	0.955021	0.316359
	N231	N	0.416433	0.030016	0.315629
	N232	N	0.680575	0.407246	0.955901
	N233	N	0.680330	0.578330	0.030723
	N234	N	0.323578	0.578475	0.956317
	N235	N	0.323740	0.406895	0.030864
	N236	N	0.963864	0.669896	0.408553
	N237	N	0.038793	0.671826	0.579816
	N238	N	0.964927	0.313360	0.579344
	N239	N	0.039188	0.312926	0.407548
	N240	N	0.964570	0.407517	0.671159
	N241	N	0.039196	0.577954	0.671864
	N242	N	0.963908	0.576807	0.315675
	N243	N	0.039184	0.406219	0.314420
	N244	N	0.417606	0.669155	0.955293
	N245	N	0.587556	0.670430	0.030375
	N246	N	0.586944	0.315271	0.955420
	N247	N	0.416641	0.314954	0.030871
	N248	N	0.679858	0.955611	0.407042
	N249	N	0.680742	0.028910	0.579246
	N250	N	0.322956	0.955086	0.578398
	N251	N	0.322224	0.029772	0.406844
	N252	N	0.917567	0.454812	0.170243
	N253	N	0.087014	0.530347	0.171548
	N254	N	0.086684	0.454445	0.816016
	N255	N	0.917383	0.530024	0.816325
	N256	N	0.179582	0.906791	0.455596
	N257	N	0.180719	0.078683	0.530353
	N258	N	0.823901	0.077242	0.455993
	N259	N	0.822638	0.906008	0.530051
	N260	N	0.464298	0.171686	0.906911
	N261	N	0.539447	0.171324	0.078481
	N262	N	0.464308	0.814015	0.078216
	N263	N	0.539364	0.813443	0.906837
	N264	N	0.463991	0.907452	0.171263
	N265	N	0.539476	0.077936	0.171418
	N266	N	0.464127	0.077497	0.814481
	N267	N	0.539237	0.906753	0.814528
	N268	N	0.916940	0.169230	0.456246
	N269	N	0.086630	0.169224	0.531291
	N270	N	0.086132	0.814810	0.455608
	N271	N	0.916292	0.814850	0.530875
	N272	N	0.180473	0.454747	0.908033
	N273	N	0.181483	0.529745	0.080296
	N274	N	0.823019	0.455974	0.079888
	N275	N	0.823541	0.530191	0.907665
	O276	O	1.058398	0.027572	1.052306
	H277	H	1.065257	0.023502	1.051345
	H278	H	1.059753	0.031730	1.059523
	O279	O	0.053100	1.026561	1.039081
	H280	H	0.055032	1.030387	1.038078
	H281	H	0.058211	1.022148	1.042955
	O282	O	1.064612	1.006127	0.044785
	H283	H	1.058507	0.996539	0.045345
	H284	H	1.067998	1.014208	0.044984
	O285	O	0.064030	1.040620	1.026184
	H286	H	0.068069	1.044265	1.024998
	H287	H	0.058893	1.045935	1.030161
