data_Molecule from HDF5

_cell_length_a		16.233786
_cell_length_b		16.230213
_cell_length_c		16.147555
_cell_angle_alpha	89.912248
_cell_angle_beta	90.058723
_cell_angle_gamma	89.522112
_symmetry_space_group_name_H-M	'P 1'
_symmetry_Int_Tables_number		1

loop_
	_symmetry_equiv_pos_as_xyz
	x,y,z

loop_
	_atom_site_label
	_atom_site_type_symbol
	_atom_site_fract_x
	_atom_site_fract_y
	_atom_site_fract_z
	H0	H	0.409585	0.845008	0.710412
	H1	H	0.601812	0.174451	0.710749
	H2	H	0.606354	0.844928	0.284341
	H3	H	0.405433	0.173302	0.281706
	H4	H	0.722297	0.407323	0.831716
	H5	H	0.720076	0.606046	0.160864
	H6	H	0.291241	0.609312	0.831803
	H7	H	0.293366	0.409416	0.160337
	H8	H	0.842579	0.727500	0.395315
	H9	H	0.171241	0.722973	0.593865
	H10	H	0.841558	0.297244	0.596125
	H11	H	0.169306	0.293275	0.396940
	H12	H	0.840942	0.414768	0.709857
	H13	H	0.171225	0.607237	0.710865
	H14	H	0.842258	0.609543	0.281323
	H15	H	0.171051	0.409701	0.283332
	H16	H	0.406167	0.724287	0.832079
	H17	H	0.604691	0.721077	0.161703
	H18	H	0.606799	0.293662	0.831815
	H19	H	0.409112	0.295957	0.160825
	H20	H	0.723479	0.847082	0.397005
	H21	H	0.718472	0.174865	0.595666
	H22	H	0.292519	0.845072	0.595514
	H23	H	0.290718	0.173684	0.396779
	H24	H	0.909935	0.345013	0.211844
	H25	H	0.102610	0.674605	0.208389
	H26	H	0.105229	0.344694	0.783407
	H27	H	0.905823	0.673552	0.783052
	H28	H	0.221795	0.910480	0.331145
	H29	H	0.219701	0.108182	0.660935
	H30	H	0.790074	0.111785	0.331651
	H31	H	0.794064	0.911859	0.660529
	H32	H	0.343494	0.226284	0.895195
	H33	H	0.670567	0.221478	0.095206
	H34	H	0.341987	0.794734	0.096384
	H35	H	0.669939	0.793535	0.898879
	H36	H	0.340803	0.912155	0.210903
	H37	H	0.670733	0.104549	0.210055
	H38	H	0.341704	0.108427	0.783882
	H39	H	0.670189	0.908702	0.782659
	H40	H	0.904806	0.227045	0.331754
	H41	H	0.103060	0.222402	0.661954
	H42	H	0.106998	0.795977	0.331262
	H43	H	0.908272	0.797091	0.660605
	H44	H	0.222819	0.345730	0.896860
	H45	H	0.221098	0.673046	0.096450
	H46	H	0.793173	0.344363	0.096844
	H47	H	0.789368	0.672524	0.896070
	H48	H	0.415725	0.124749	0.583528
	H49	H	0.598395	0.895267	0.583387
	H50	H	0.593647	0.123879	0.410294
	H51	H	0.410549	0.889496	0.398055
	H52	H	0.611935	0.419923	0.115779
	H53	H	0.603148	0.600538	0.876863
	H54	H	0.424952	0.588383	0.107513
	H55	H	0.406634	0.417355	0.875311
	H56	H	0.118171	0.599654	0.418030
	H57	H	0.890875	0.601032	0.590206
	H58	H	0.122866	0.414350	0.586881
	H59	H	0.892198	0.423451	0.409283
	H60	H	0.122066	0.417604	0.590863
	H61	H	0.887740	0.608384	0.592592
	H62	H	0.123492	0.591617	0.391014
	H63	H	0.888787	0.421792	0.397681
	H64	H	0.419532	0.619242	0.118254
	H65	H	0.595069	0.596173	0.880758
	H66	H	0.591118	0.422738	0.108933
	H67	H	0.417487	0.423685	0.881106
	H68	H	0.606455	0.130271	0.403354
	H69	H	0.607704	0.891219	0.589849
	H70	H	0.403591	0.128285	0.588180
	H71	H	0.421482	0.894355	0.404712
	H72	H	0.908443	0.629348	0.094917
	H73	H	0.101154	0.388540	0.101655
	H74	H	0.100271	0.627921	0.900341
	H75	H	0.903380	0.386303	0.894953
	H76	H	0.097527	0.916470	0.613173
	H77	H	0.096644	0.098201	0.379826
	H78	H	0.910433	0.097237	0.612503
	H79	H	0.920004	0.924655	0.382058
	H80	H	0.626196	0.108476	0.904057
	H81	H	0.391919	0.091355	0.093253
	H82	H	0.626425	0.914472	0.104171
	H83	H	0.387662	0.907983	0.908985
	H84	H	0.624632	0.902201	0.082969
	H85	H	0.383847	0.112222	0.097743
	H86	H	0.621068	0.098082	0.909294
	H87	H	0.392329	0.924344	0.907804
	H88	H	0.918415	0.106743	0.613709
	H89	H	0.094943	0.106685	0.378040
	H90	H	0.100415	0.915056	0.614758
	H91	H	0.916317	0.910920	0.375340
	H92	H	0.092268	0.624150	0.905281
	H93	H	0.092225	0.396660	0.085236
	H94	H	0.919815	0.623798	0.087353
	H95	H	0.926146	0.393810	0.897994
	H96	H	0.414550	0.127857	0.596276
	H97	H	0.596301	0.892240	0.595450
	H98	H	0.593690	0.128380	0.395442
	H99	H	0.409787	0.892735	0.410979
	H100	H	0.598588	0.402985	0.117252
	H101	H	0.595406	0.605637	0.877583
	H102	H	0.395431	0.597649	0.118817
	H103	H	0.419341	0.410765	0.876694
	H104	H	0.128705	0.618536	0.399481
	H105	H	0.889925	0.607138	0.584803
	H106	H	0.124655	0.412993	0.592266
	H107	H	0.887680	0.412778	0.405173
	H108	H	0.906708	0.624628	0.081809
	H109	H	0.111773	0.390348	0.084574
	H110	H	0.100855	0.626262	0.909337
	H111	H	0.911320	0.394614	0.916973
	H112	H	0.100718	0.918969	0.613968
	H113	H	0.103413	0.103496	0.376731
	H114	H	0.906828	0.107701	0.616478
	H115	H	0.905413	0.922673	0.376359
	H116	H	0.625186	0.098150	0.896885
	H117	H	0.391117	0.107315	0.076238
	H118	H	0.617853	0.925430	0.084444
	H119	H	0.385322	0.915552	0.894476
	C120	C	0.383628	0.018305	0.618435
	C121	C	0.627954	1.001630	0.618360
	C122	C	0.627558	0.018772	0.374868
	C123	C	0.384412	1.000863	0.375382
	C124	C	0.629389	0.386153	0.004982
	C125	C	0.626650	0.628942	0.987663
	C126	C	0.384400	0.630868	0.005608
	C127	C	0.386107	0.388355	0.986979
	C128	C	0.015159	0.632783	0.373476
	C129	C	0.998223	0.632558	0.618175
	C130	C	0.014393	0.388179	0.618473
	C131	C	0.997865	0.389048	0.375216
	C132	C	0.884594	0.517396	0.117973
	C133	C	0.128561	0.500700	0.118274
	C134	C	0.127888	0.518024	0.875415
	C135	C	0.883992	0.500285	0.874601
	C136	C	0.128866	0.887976	0.504902
	C137	C	0.126494	0.130942	0.487500
	C138	C	0.883292	0.133184	0.505268
	C139	C	0.885538	0.890228	0.486860
	C140	C	0.515210	0.130630	0.875189
	C141	C	0.497590	0.130879	0.118049
	C142	C	0.514383	0.886466	0.119303
	C143	C	0.497247	0.887084	0.875371
	C144	C	0.387989	0.894166	0.673024
	C145	C	0.623365	0.125396	0.673409
	C146	C	0.626710	0.894738	0.320665
	C147	C	0.385598	0.124255	0.319549
	C148	C	0.684611	0.387962	0.880982
	C149	C	0.682093	0.626473	0.111770
	C150	C	0.328849	0.629129	0.881390
	C151	C	0.331525	0.390114	0.111220
	C152	C	0.891643	0.689119	0.375173
	C153	C	0.122074	0.685814	0.615043
	C154	C	0.890744	0.334526	0.616078
	C155	C	0.120773	0.331889	0.376918
	C156	C	0.890492	0.393099	0.672679
	C157	C	0.121966	0.628160	0.673091
	C158	C	0.891606	0.630481	0.318530
	C159	C	0.121593	0.390108	0.320612
	C160	C	0.385820	0.686566	0.881471
	C161	C	0.625206	0.684060	0.111967
	C162	C	0.627031	0.331313	0.880923
	C163	C	0.388894	0.333260	0.111321
	C164	C	0.684588	0.895639	0.377231
	C165	C	0.681437	0.125588	0.616137
	C166	C	0.329768	0.894355	0.616367
	C167	C	0.328395	0.124357	0.376755
	C168	C	0.888708	0.394111	0.174137
	C169	C	0.123951	0.625208	0.171662
	C170	C	0.125913	0.393984	0.820638
	C171	C	0.885417	0.624117	0.819963
	C172	C	0.184257	0.890164	0.380665
	C173	C	0.181637	0.128472	0.611888
	C174	C	0.827676	0.131850	0.381130
	C175	C	0.831226	0.891844	0.611110
	C176	C	0.392063	0.187349	0.876278
	C177	C	0.621342	0.184190	0.115708
	C178	C	0.391008	0.831861	0.117116
	C179	C	0.620778	0.831069	0.877652
	C180	C	0.390379	0.890546	0.173872
	C181	C	0.621345	0.126077	0.172865
	C182	C	0.391156	0.128661	0.820808
	C183	C	0.620845	0.888594	0.820131
	C184	C	0.884764	0.189162	0.381072
	C185	C	0.123595	0.185144	0.612365
	C186	C	0.126930	0.833379	0.380632
	C187	C	0.888412	0.834976	0.611216
	C188	C	0.184385	0.394562	0.876908
	C189	C	0.182815	0.624434	0.116005
	C190	C	0.830658	0.393691	0.116803
	C191	C	0.827465	0.623520	0.876338
	C192	C	0.404928	0.104516	0.596032
	C193	C	0.607030	0.915278	0.596157
	C194	C	0.604686	0.105329	0.396589
	C195	C	0.407297	0.914481	0.397992
	C196	C	0.607080	0.408619	0.091682
	C197	C	0.604311	0.607181	0.900945
	C198	C	0.406763	0.608438	0.092539
	C199	C	0.407928	0.410776	0.900103
	C200	C	0.101411	0.610099	0.396260
	C201	C	0.911753	0.611863	0.595921
	C202	C	0.100992	0.408823	0.596372
	C203	C	0.911672	0.412522	0.397515
	C204	C	0.905511	0.603568	0.094792
	C205	C	0.107880	0.414431	0.096771
	C206	C	0.104510	0.603840	0.898062
	C207	C	0.906900	0.413743	0.896809
	C208	C	0.106264	0.910201	0.591579
	C209	C	0.104772	0.109244	0.400815
	C210	C	0.905507	0.110685	0.591707
	C211	C	0.907654	0.912724	0.400324
	C212	C	0.601609	0.108144	0.897111
	C213	C	0.411419	0.109901	0.095807
	C214	C	0.600620	0.907693	0.096999
	C215	C	0.410709	0.909371	0.897361
	Zn216	Zn	0.505815	0.009355	0.747042
	Zn217	Zn	0.505439	0.009019	0.247215
	Zn218	Zn	0.755988	0.508044	-0.004217
	Zn219	Zn	0.257354	0.509267	-0.003317
	Zn220	Zn	0.006214	0.761530	0.495505
	Zn221	Zn	0.005430	0.259943	0.496327
	Zn222	Zn	0.006057	0.510132	0.747062
	Zn223	Zn	0.007177	0.509910	0.246508
	Zn224	Zn	0.505915	0.757892	-0.003125
	Zn225	Zn	0.506851	0.259249	-0.004350
	Zn226	Zn	0.756384	0.010601	0.496175
	Zn227	Zn	0.255733	0.009404	0.496288
	N228	N	0.420544	0.972142	0.674716
	N229	N	0.590994	0.047322	0.675022
	N230	N	0.591929	0.972402	0.319003
	N231	N	0.419701	0.046383	0.318721
	N232	N	0.686031	0.421461	0.959222
	N233	N	0.683088	0.592960	0.033674
	N234	N	0.327753	0.595325	0.959681
	N235	N	0.329682	0.423578	0.032881
	N236	N	0.969631	0.690714	0.408608
	N237	N	0.044162	0.688540	0.581336
	N238	N	0.968807	0.331344	0.583087
	N239	N	0.042807	0.331244	0.410303
	N240	N	0.968423	0.425955	0.674060
	N241	N	0.043887	0.595753	0.674979
	N242	N	0.969370	0.596188	0.317450
	N243	N	0.044041	0.424952	0.319402
	N244	N	0.419594	0.687710	0.959624
	N245	N	0.591373	0.685712	0.033743
	N246	N	0.593414	0.329921	0.959056
	N247	N	0.422367	0.332230	0.032910
	N248	N	0.685232	0.973796	0.410094
	N249	N	0.684575	0.047605	0.582730
	N250	N	0.326840	0.972511	0.583090
	N251	N	0.327531	0.046517	0.410680
	N252	N	0.921450	0.472133	0.174907
	N253	N	0.091111	0.547357	0.173373
	N254	N	0.091336	0.471796	0.819587
	N255	N	0.919626	0.546344	0.818528
	N256	N	0.185301	0.923697	0.458939
	N257	N	0.183553	0.095384	0.533510
	N258	N	0.826419	0.097893	0.459267
	N259	N	0.829562	0.925567	0.533123
	N260	N	0.470235	0.188801	0.909210
	N261	N	0.543348	0.187283	0.082326
	N262	N	0.469127	0.829131	0.083930
	N263	N	0.542959	0.829996	0.911358
	N264	N	0.468166	0.923545	0.175538
	N265	N	0.543247	0.093758	0.174669
	N266	N	0.468790	0.093911	0.820010
	N267	N	0.542917	0.922700	0.818583
	N268	N	0.918677	0.190214	0.459127
	N269	N	0.089865	0.186664	0.534137
	N270	N	0.093343	0.831673	0.458865
	N271	N	0.921576	0.833754	0.532651
	N272	N	0.185833	0.472428	0.910455
	N273	N	0.186048	0.546119	0.083512
	N274	N	0.827876	0.471371	0.082588
	N275	N	0.826532	0.545397	0.909581
	O276	O	0.008125	-0.069244	0.028645
	H277	H	0.005543	-0.080072	0.027222
	H278	H	0.015700	-0.063749	0.026558
	O279	O	0.540326	0.481636	0.451356
	H280	H	0.543495	0.482866	0.456352
	H281	H	0.540168	0.469763	0.443965
	O282	O	0.497972	0.493772	0.533467
	H283	H	0.504797	0.501078	0.540560
	H284	H	0.499289	0.490817	0.545918
	O285	O	1.001916	-0.023976	1.000027
	H286	H	1.009597	-0.019523	0.993845
	H287	H	1.000179	-0.013574	1.000366
	O288	O	0.976889	0.025233	0.052137
	H289	H	0.964277	0.011673	0.049997
	H290	H	0.981120	0.039158	0.041465
	O291	O	0.433245	0.545497	0.519557
	H292	H	0.429772	0.537613	0.521232
	H293	H	0.440889	0.540616	0.515047
	O294	O	0.949109	0.002191	0.953338
	H295	H	0.939948	-0.005401	0.955223
	H296	H	0.952995	-0.004113	0.949755
	O297	O	0.057381	0.013342	0.018518
	H298	H	0.058107	0.007669	0.017772
	H299	H	0.058584	0.009559	0.028478
	O300	O	0.506568	0.502404	0.456202
	H301	H	0.506973	0.498166	0.457181
	H302	H	0.506892	0.505685	0.469835
	O303	O	0.787962	0.190767	0.227609
	H304	H	0.779608	0.192569	0.227575
	H305	H	0.789337	0.182265	0.223810
	O306	O	0.994910	-0.065738	0.024847
	H307	H	0.997183	-0.063345	0.022573
	H308	H	1.009728	-0.069084	0.034056
	O309	O	0.025151	-0.049237	0.986869
	H310	H	0.013498	-0.053974	0.983330
	H311	H	0.018838	-0.048061	0.985852
	O312	O	1.007979	1.033205	0.959537
	H313	H	0.993425	1.034897	0.960102
	H314	H	1.003409	1.046707	0.961930
	O315	O	0.554837	0.527198	0.525442
	H316	H	0.548069	0.525972	0.523439
	H317	H	0.569560	0.524918	0.527924
	O318	O	0.527985	0.497905	0.554463
	H319	H	0.531606	0.502733	0.551504
	H320	H	0.525232	0.493830	0.552209
	O321	O	-0.077899	0.976177	0.990180
	H322	H	-0.073289	0.970408	0.987678
	H323	H	-0.076244	0.962741	0.992296
	O324	O	0.477548	0.556558	0.408264
	H325	H	0.475391	0.558246	0.418588
	H326	H	0.465277	0.561745	0.412570
	O327	O	0.124692	-0.013313	0.987645
	H328	H	0.122058	-0.001452	0.988012
	H329	H	0.138825	-0.015686	0.986736
	O330	O	0.526502	0.453608	0.443197
	H331	H	0.519170	0.457951	0.445263
	H332	H	0.534902	0.445079	0.431510
	O333	O	0.523126	0.490014	0.555120
	H334	H	0.529578	0.491645	0.548550
	H335	H	0.528765	0.482821	0.560066
	O336	O	0.481089	0.511143	0.440905
	H337	H	0.486821	0.513298	0.436124
	H338	H	0.471153	0.515231	0.432456
	O339	O	1.067061	0.964104	-0.022506
	H340	H	1.074735	0.961876	-0.033501
	H341	H	1.065588	0.964704	-0.015475
	O342	O	0.488980	0.503539	0.462787
	H343	H	0.482611	0.501234	0.450264
	H344	H	0.491912	0.511531	0.459835
	O345	O	0.523932	0.574396	0.517090
	H346	H	0.532763	0.571952	0.513239
	H347	H	0.527275	0.577515	0.510877
	O348	O	0.003537	0.043128	0.044001
	H349	H	0.011663	0.040603	0.040758
	H350	H	-0.007522	0.036493	0.045308
	O351	O	0.000088	1.065594	1.001140
	H352	H	0.001169	1.071751	0.993808
	H353	H	0.007669	1.068890	0.997438
	O354	O	0.451377	0.569575	0.446582
	H355	H	0.438682	0.576025	0.447895
	H356	H	0.447096	0.568042	0.454785
	O357	O	-0.046864	1.073290	0.925212
	H358	H	-0.052979	1.069798	0.922225
	H359	H	-0.050140	1.075089	0.924136
