data_Molecule from HDF5

_cell_length_a		16.500021
_cell_length_b		16.521730
_cell_length_c		16.700108
_cell_angle_alpha	90.045549
_cell_angle_beta	90.097131
_cell_angle_gamma	89.969304
_symmetry_space_group_name_H-M	'P 1'
_symmetry_Int_Tables_number		1

loop_
	_symmetry_equiv_pos_as_xyz
	x,y,z

loop_
	_atom_site_label
	_atom_site_type_symbol
	_atom_site_fract_x
	_atom_site_fract_y
	_atom_site_fract_z
	H0	H	0.401134	0.841764	0.743354
	H1	H	0.613978	0.153774	0.742380
	H2	H	0.614702	0.842379	0.299829
	H3	H	0.403412	0.155222	0.299177
	H4	H	0.731546	0.393902	0.864413
	H5	H	0.732383	0.603820	0.174979
	H6	H	0.289457	0.600631	0.864684
	H7	H	0.290652	0.394200	0.178261
	H8	H	0.851529	0.715495	0.418372
	H9	H	0.166612	0.720835	0.626726
	H10	H	0.852998	0.279227	0.624980
	H11	H	0.167726	0.277342	0.416906
	H12	H	0.854825	0.393085	0.742953
	H13	H	0.167034	0.604629	0.742651
	H14	H	0.854077	0.603590	0.298708
	H15	H	0.165653	0.390098	0.297912
	H16	H	0.405556	0.718235	0.864607
	H17	H	0.612992	0.718093	0.176078
	H18	H	0.615996	0.274954	0.865842
	H19	H	0.407193	0.277205	0.177699
	H20	H	0.728298	0.840724	0.419544
	H21	H	0.727855	0.155793	0.623578
	H22	H	0.289478	0.839944	0.622854
	H23	H	0.288666	0.155825	0.416159
	H24	H	0.903912	0.342526	0.242761
	H25	H	0.114787	0.655679	0.241381
	H26	H	0.115380	0.340027	0.800649
	H27	H	0.905808	0.654277	0.800220
	H28	H	0.229472	0.893410	0.363630
	H29	H	0.232653	0.103699	0.675546
	H30	H	0.790172	0.100520	0.364828
	H31	H	0.788267	0.892676	0.676816
	H32	H	0.352908	0.220447	0.915135
	H33	H	0.669267	0.213155	0.120664
	H34	H	0.351414	0.778834	0.124690
	H35	H	0.667257	0.778754	0.918874
	H36	H	0.352666	0.892061	0.242876
	H37	H	0.668298	0.098792	0.238241
	H38	H	0.353388	0.106789	0.796952
	H39	H	0.665789	0.892497	0.799857
	H40	H	0.907047	0.217990	0.365127
	H41	H	0.115792	0.219885	0.676391
	H42	H	0.112732	0.776912	0.364171
	H43	H	0.903928	0.775061	0.675608
	H44	H	0.229721	0.338884	0.919224
	H45	H	0.228517	0.656772	0.123245
	H46	H	0.790309	0.341344	0.123072
	H47	H	0.791443	0.655465	0.917116
	H48	H	0.422564	0.109295	0.610090
	H49	H	0.594353	0.887648	0.606468
	H50	H	0.596884	0.110942	0.431871
	H51	H	0.424784	0.888032	0.432773
	H52	H	0.599661	0.408639	0.130782
	H53	H	0.597383	0.588448	0.909121
	H54	H	0.415797	0.585300	0.132740
	H55	H	0.420341	0.402856	0.908635
	H56	H	0.120606	0.584674	0.436358
	H57	H	0.897626	0.587120	0.609555
	H58	H	0.122457	0.415216	0.610912
	H59	H	0.899130	0.409613	0.434026
	H60	H	0.125633	0.406635	0.615569
	H61	H	0.899220	0.584444	0.610717
	H62	H	0.123112	0.582971	0.426848
	H63	H	0.898158	0.412712	0.430568
	H64	H	0.424545	0.587819	0.130136
	H65	H	0.600620	0.589327	0.907958
	H66	H	0.600697	0.407868	0.132175
	H67	H	0.415137	0.411839	0.910308
	H68	H	0.602416	0.112903	0.430359
	H69	H	0.605344	0.883435	0.609583
	H70	H	0.423999	0.108272	0.608430
	H71	H	0.416664	0.886161	0.432716
	H72	H	0.919525	0.609701	0.103750
	H73	H	0.101116	0.384301	0.112876
	H74	H	0.099592	0.610729	0.926997
	H75	H	0.916664	0.384298	0.932798
	H76	H	0.098475	0.912505	0.628631
	H77	H	0.097696	0.089875	0.409422
	H78	H	0.925679	0.095303	0.633101
	H79	H	0.915184	0.912105	0.409538
	H80	H	0.623644	0.089520	0.929130
	H81	H	0.395680	0.090157	0.109757
	H82	H	0.624187	0.907391	0.114890
	H83	H	0.398654	0.910014	0.934109
	H84	H	0.621838	0.905211	0.107997
	H85	H	0.398006	0.085520	0.109178
	H86	H	0.619649	0.085891	0.936349
	H87	H	0.396784	0.911834	0.928280
	H88	H	0.910901	0.090851	0.636598
	H89	H	0.100810	0.085050	0.409167
	H90	H	0.095274	0.908212	0.630502
	H91	H	0.924337	0.906825	0.410949
	H92	H	0.098363	0.609423	0.931932
	H93	H	0.096025	0.386128	0.112031
	H94	H	0.918423	0.614447	0.116013
	H95	H	0.925500	0.384233	0.926082
	H96	H	0.421578	0.109259	0.608065
	H97	H	0.596085	0.882938	0.617162
	H98	H	0.597855	0.112308	0.425806
	H99	H	0.421879	0.884550	0.425780
	H100	H	0.601051	0.409138	0.131207
	H101	H	0.599864	0.586076	0.909124
	H102	H	0.418888	0.593747	0.135219
	H103	H	0.425421	0.410985	0.913257
	H104	H	0.125510	0.592112	0.430994
	H105	H	0.897260	0.586192	0.612852
	H106	H	0.123017	0.406428	0.605370
	H107	H	0.897327	0.407969	0.430358
	H108	H	0.929861	0.608346	0.112068
	H109	H	0.099595	0.386578	0.107862
	H110	H	0.102947	0.611073	0.931064
	H111	H	0.926374	0.388514	0.935957
	H112	H	0.101162	0.908751	0.631795
	H113	H	0.095604	0.085186	0.411652
	H114	H	0.920963	0.081013	0.629797
	H115	H	0.916092	0.902120	0.407038
	H116	H	0.620504	0.080609	0.928766
	H117	H	0.395675	0.086781	0.113546
	H118	H	0.620195	0.912525	0.110481
	H119	H	0.395223	0.906260	0.930519
	C120	C	0.388618	0.005732	0.641425
	C121	C	0.630346	0.988818	0.642292
	C122	C	0.630588	0.007522	0.399106
	C123	C	0.388464	0.989875	0.398733
	C124	C	0.632370	0.376466	0.028594
	C125	C	0.631414	0.619952	1.011718
	C126	C	0.387896	0.619973	0.029661
	C127	C	0.388658	0.376176	1.013496
	C128	C	0.018676	0.618364	0.399843
	C129	C	1.001831	0.619157	0.642703
	C130	C	0.019684	0.377134	0.642373
	C131	C	1.001680	0.377005	0.399667
	C132	C	0.889846	0.506962	0.141870
	C133	C	0.130836	0.489870	0.142147
	C134	C	0.132040	0.505667	0.899567
	C135	C	0.890332	0.489299	0.899636
	C136	C	0.130663	0.876404	0.527955
	C137	C	0.131355	0.119441	0.512426
	C138	C	0.888329	0.119762	0.529537
	C139	C	0.887260	0.876021	0.512397
	C140	C	0.517627	0.118764	0.899236
	C141	C	0.501373	0.118151	0.141286
	C142	C	0.517873	0.876617	0.142537
	C143	C	0.500739	0.876837	0.899469
	C144	C	0.384326	0.888368	0.702343
	C145	C	0.632268	0.107191	0.701984
	C146	C	0.632416	0.888992	0.340341
	C147	C	0.385558	0.108256	0.339240
	C148	C	0.691904	0.374555	0.911354
	C149	C	0.691411	0.621908	0.128705
	C150	C	0.329020	0.620190	0.911758
	C151	C	0.329930	0.375145	0.131088
	C152	C	0.899316	0.676695	0.399077
	C153	C	0.119553	0.680461	0.645004
	C154	C	0.900643	0.318507	0.643574
	C155	C	0.119975	0.316685	0.397838
	C156	C	0.901494	0.374973	0.702298
	C157	C	0.119868	0.622555	0.702600
	C158	C	0.900812	0.621193	0.339506
	C159	C	0.119096	0.372586	0.338524
	C160	C	0.386706	0.678624	0.911582
	C161	C	0.632314	0.678854	0.129209
	C162	C	0.634615	0.315582	0.912125
	C163	C	0.388371	0.317313	0.130983
	C164	C	0.689228	0.888519	0.399308
	C165	C	0.688654	0.108200	0.643002
	C166	C	0.328712	0.887506	0.642499
	C167	C	0.328561	0.108451	0.397433
	C168	C	0.886575	0.389184	0.201746
	C169	C	0.132973	0.608456	0.201464
	C170	C	0.133658	0.387095	0.840686
	C171	C	0.887754	0.607470	0.840121
	C172	C	0.189641	0.874707	0.410685
	C173	C	0.192197	0.121802	0.629190
	C174	C	0.829775	0.119925	0.411717
	C175	C	0.828203	0.874502	0.629882
	C176	C	0.400003	0.180183	0.897001
	C177	C	0.621354	0.174783	0.140609
	C178	C	0.398899	0.817953	0.143462
	C179	C	0.619670	0.817994	0.899058
	C180	C	0.399595	0.874595	0.202066
	C181	C	0.620667	0.117940	0.199056
	C182	C	0.400324	0.123517	0.838156
	C183	C	0.619002	0.874669	0.840225
	C184	C	0.887956	0.178044	0.411803
	C185	C	0.134230	0.179740	0.629423
	C186	C	0.131629	0.816596	0.410836
	C187	C	0.885781	0.816052	0.629368
	C188	C	0.190281	0.386489	0.899809
	C189	C	0.189301	0.609091	0.142547
	C190	C	0.830234	0.388482	0.142395
	C191	C	0.830689	0.607948	0.898224
	C192	C	0.415082	0.087545	0.616088
	C193	C	0.605792	0.906221	0.617936
	C194	C	0.606162	0.090601	0.422736
	C195	C	0.413955	0.907853	0.423205
	C196	C	0.607596	0.401564	0.110112
	C197	C	0.606625	0.594958	0.929959
	C198	C	0.412548	0.595907	0.111352
	C199	C	0.413260	0.401197	0.931786
	C200	C	0.101563	0.593651	0.424395
	C201	C	0.919499	0.593370	0.617931
	C202	C	0.102188	0.402207	0.617755
	C203	C	0.919517	0.402848	0.424435
	C204	C	0.915274	0.589369	0.117441
	C205	C	0.106082	0.407089	0.117993
	C206	C	0.107417	0.588724	0.923202
	C207	C	0.915677	0.406997	0.924519
	C208	C	0.105353	0.902355	0.609328
	C209	C	0.105409	0.093825	0.431292
	C210	C	0.912519	0.095709	0.611699
	C211	C	0.911438	0.900307	0.430455
	C212	C	0.599949	0.092648	0.924226
	C213	C	0.418069	0.094523	0.117542
	C214	C	0.600492	0.901369	0.118060
	C215	C	0.418339	0.902119	0.923865
	Zn216	Zn	0.509018	-0.002623	0.770062
	Zn217	Zn	0.509129	-0.001615	0.270270
	Zn218	Zn	0.761141	0.498597	0.020062
	Zn219	Zn	0.259420	0.497945	0.021731
	Zn220	Zn	0.009336	0.746851	0.520784
	Zn221	Zn	0.010472	0.249188	0.521123
	Zn222	Zn	0.011227	0.497805	0.771035
	Zn223	Zn	0.010619	0.497969	0.271248
	Zn224	Zn	0.509252	0.748850	0.020831
	Zn225	Zn	0.510338	0.246967	0.020394
	Zn226	Zn	0.758700	-0.001815	0.521497
	Zn227	Zn	0.260532	-0.002346	0.519654
	N228	N	0.420662	0.963122	0.701955
	N229	N	0.597060	0.031921	0.701823
	N230	N	0.596990	0.964145	0.339821
	N231	N	0.421745	0.033431	0.339448
	N232	N	0.690607	0.411679	0.984858
	N233	N	0.691144	0.586150	0.054467
	N234	N	0.329537	0.584585	0.985990
	N235	N	0.329946	0.411024	0.056803
	N236	N	0.973782	0.675235	0.435902
	N237	N	0.045019	0.678445	0.608278
	N238	N	0.975180	0.319671	0.606979
	N239	N	0.045896	0.319298	0.435130
	N240	N	0.976585	0.410626	0.701643
	N241	N	0.045714	0.585125	0.701329
	N242	N	0.976177	0.585815	0.339818
	N243	N	0.044380	0.409321	0.339256
	N244	N	0.422421	0.678825	0.985912
	N245	N	0.595718	0.677674	0.055416
	N246	N	0.598148	0.316723	0.985925
	N247	N	0.423900	0.317586	0.056788
	N248	N	0.688116	0.963383	0.435139
	N249	N	0.687828	0.033539	0.606741
	N250	N	0.331181	0.961602	0.605495
	N251	N	0.330184	0.033907	0.433798
	N252	N	0.922935	0.463859	0.201449
	N253	N	0.097413	0.533181	0.201467
	N254	N	0.098365	0.462422	0.840428
	N255	N	0.923992	0.532700	0.840747
	N256	N	0.189276	0.911052	0.484628
	N257	N	0.190444	0.084838	0.555461
	N258	N	0.829675	0.084649	0.486088
	N259	N	0.828859	0.910888	0.555984
	N260	N	0.474303	0.177317	0.934191
	N261	N	0.545972	0.175280	0.105611
	N262	N	0.473595	0.818930	0.107175
	N263	N	0.545029	0.819031	0.935036
	N264	N	0.474741	0.910193	0.201807
	N265	N	0.544788	0.083871	0.199880
	N266	N	0.474430	0.085999	0.839317
	N267	N	0.543882	0.910308	0.840202
	N268	N	0.923220	0.178506	0.486305
	N269	N	0.097279	0.178738	0.555640
	N270	N	0.095894	0.817292	0.485097
	N271	N	0.921684	0.816563	0.555335
	N272	N	0.189600	0.461488	0.935374
	N273	N	0.188362	0.534355	0.106595
	N274	N	0.832063	0.462922	0.105778
	N275	N	0.832069	0.533442	0.934607
	O276	O	0.050792	0.931784	0.028162
	H277	H	0.053128	0.919837	0.045300
	H278	H	0.030032	0.931535	0.032551
	O279	O	0.715138	0.412798	0.586758
	H280	H	0.724190	0.446398	0.576845
	H281	H	0.720603	0.397748	0.559004
	O282	O	1.722117	0.371857	0.320917
	H283	H	1.734581	0.349578	0.323993
	H284	H	1.691815	0.361614	0.315329
	O285	O	0.478467	0.713703	0.305276
	H286	H	0.488419	0.729098	0.299867
	H287	H	0.484515	0.718542	0.316996
	O288	O	-0.127837	0.991739	0.044547
	H289	H	-0.136435	1.012670	0.046309
	H290	H	-0.124033	0.987950	0.051585
	O291	O	0.542635	0.718219	0.741219
	H292	H	0.569853	0.705852	0.739557
	H293	H	0.547398	0.746472	0.772658
	O294	O	1.331782	-0.320599	0.699585
	H295	H	1.327236	-0.306551	0.708883
	H296	H	1.333630	-0.343719	0.694835
	O297	O	0.491491	0.498639	0.577828
	H298	H	0.485269	0.491812	0.580055
	H299	H	0.500605	0.510282	0.588471
	O300	O	-0.190782	0.203835	0.814268
	H301	H	-0.199700	0.196588	0.822182
	H302	H	-0.201030	0.229848	0.791254
	O303	O	0.472268	0.728588	0.540999
	H304	H	0.462603	0.735156	0.564318
	H305	H	0.449159	0.720508	0.538112
	O306	O	0.713371	0.697266	0.566400
	H307	H	0.713214	0.697272	0.584550
	H308	H	0.728718	0.706958	0.564254
	O309	O	0.719352	0.530562	0.733466
	H310	H	0.718238	0.522908	0.740316
	H311	H	0.720819	0.529192	0.725827
	O312	O	0.468508	0.396621	0.334665
	H313	H	0.456708	0.414504	0.341584
	H314	H	0.454296	0.403639	0.334590
	O315	O	1.013324	1.200385	1.066126
	H316	H	1.018674	1.196064	1.067399
	H317	H	1.004554	1.204559	1.054953
	O318	O	0.297246	0.542144	0.581076
	H319	H	0.313383	0.536111	0.583762
	H320	H	0.299474	0.537392	0.587877
	O321	O	0.144020	1.149977	0.917980
	H322	H	0.127631	1.144810	0.928421
	H323	H	0.132032	1.142813	0.932591
	O324	O	1.105750	0.960184	0.060740
	H325	H	1.107258	0.962121	0.071894
	H326	H	1.103472	0.946697	0.055215
	O327	O	0.175178	-0.064178	1.068820
	H328	H	0.172956	-0.069347	1.068957
	H329	H	0.175547	-0.071667	1.070720
	O330	O	1.035773	0.102675	-0.007432
	H331	H	1.026440	0.109207	-0.002611
	H332	H	1.041054	0.103698	-0.002900
	O333	O	0.726062	0.535333	0.498902
	H334	H	0.736737	0.547615	0.491285
	H335	H	0.715011	0.553338	0.489433
	O336	O	0.556803	0.279195	0.297249
	H337	H	0.538588	0.275209	0.298612
	H338	H	0.536457	0.273058	0.287255
	O339	O	1.225925	-0.030046	0.800135
	H340	H	1.230963	-0.008034	0.832321
	H341	H	1.255118	-0.031382	0.775146
	O342	O	-0.306851	-0.313401	0.334613
	H343	H	-0.329550	-0.323459	0.358754
	H344	H	-0.324050	-0.340058	0.343605
	O345	O	0.307993	1.294743	0.724607
	H346	H	0.300034	1.313699	0.701856
	H347	H	0.284505	1.285016	0.731569
	O348	O	0.004680	0.004783	0.248712
	H349	H	0.041269	0.017945	0.254599
	H350	H	0.015576	-0.023062	0.237958
	O351	O	0.553317	0.661708	0.495802
	H352	H	0.564045	0.664759	0.506411
	H353	H	0.539098	0.661916	0.521256
	O354	O	0.113010	-0.081979	1.146211
	H355	H	0.112925	-0.076416	1.133575
	H356	H	0.120150	-0.095219	1.124807
	O357	O	0.512403	0.517458	0.708618
	H358	H	0.528206	0.508817	0.720333
	H359	H	0.513519	0.497028	0.707268
	O360	O	-0.006989	-0.192081	1.242829
	H361	H	-0.040249	-0.184238	1.233492
	H362	H	-0.011938	-0.221838	1.263079
	O363	O	-0.208388	0.033885	-0.200528
	H364	H	-0.225358	0.043944	-0.214500
	H365	H	-0.220745	0.043806	-0.196384
	O366	O	0.287640	0.526419	0.301439
	H367	H	0.298707	0.550521	0.300020
	H368	H	0.267701	0.542188	0.277983
	O369	O	0.797097	-0.215846	0.236584
	H370	H	0.779466	-0.205287	0.250579
	H371	H	0.775103	-0.228889	0.240156
	O372	O	1.196791	0.802334	-0.177382
	H373	H	1.206921	0.847928	-0.184703
	H374	H	1.149962	0.803717	-0.174213
	O375	O	0.982197	0.208201	-0.191767
	H376	H	0.969146	0.205286	-0.199230
	H377	H	0.973418	0.220923	-0.197206
	O378	O	0.384463	0.278500	0.646960
	H379	H	0.369722	0.261878	0.657735
	H380	H	0.362867	0.284844	0.641900
	O381	O	0.392444	0.325860	0.511314
	H382	H	0.373803	0.324338	0.511871
	H383	H	0.394568	0.333029	0.507410
	O384	O	0.554702	0.587721	0.564271
	H385	H	0.557198	0.590107	0.583482
	H386	H	0.556002	0.581953	0.573100
	O387	O	0.805640	0.941543	-0.043427
	H388	H	0.794095	0.940739	-0.036115
	H389	H	0.819464	0.933531	-0.038229
	O390	O	0.397319	0.512340	0.544218
	H391	H	0.388314	0.511619	0.542882
	H392	H	0.403733	0.508106	0.549087
	O393	O	0.517024	0.545887	0.299663
	H394	H	0.512846	0.571104	0.299766
	H395	H	0.531673	0.524853	0.292244
	O396	O	0.212168	1.100150	0.943978
	H397	H	0.200982	1.114252	0.959718
	H398	H	0.214521	1.074930	0.956914
	O399	O	0.237903	0.224805	1.249721
	H400	H	0.229505	0.189808	1.248005
	H401	H	0.205601	0.240161	1.248755
	O402	O	0.290361	0.453236	0.647795
	H403	H	0.285031	0.466997	0.663737
	H404	H	0.294439	0.476565	0.646887
	O405	O	0.798924	-0.036594	1.235340
	H406	H	0.799352	-0.051624	1.226338
	H407	H	0.797827	-0.027544	1.259226
	O408	O	-0.168771	-0.188915	-0.165768
	H409	H	-0.164042	-0.166119	-0.146794
	H410	H	-0.146611	-0.179035	-0.155737
	O411	O	0.220816	1.028612	0.228582
	H412	H	0.214538	1.034435	0.222879
	H413	H	0.232668	1.021464	0.238604
	O414	O	0.051849	0.214427	0.171396
	H415	H	0.048575	0.213685	0.148502
	H416	H	0.029897	0.218011	0.169166
	O417	O	0.390746	0.516794	0.751919
	H418	H	0.404331	0.490212	0.748181
	H419	H	0.389816	0.532683	0.765778
	O420	O	0.532102	0.276497	0.545636
	H421	H	0.527682	0.271922	0.548352
	H422	H	0.528221	0.272569	0.529462
	O423	O	-0.200949	-0.213758	1.059460
	H424	H	-0.189853	-0.225523	1.073553
	H425	H	-0.214023	-0.232097	1.063792
	O426	O	0.882486	0.121638	0.221559
	H427	H	0.900256	0.094362	0.212503
	H428	H	0.882087	0.098924	0.221826
	O429	O	1.236055	0.776406	0.984579
	H430	H	1.219966	0.781454	0.945971
	H431	H	1.268873	0.742815	0.973383
	O432	O	0.774675	0.232846	0.256551
	H433	H	0.785939	0.221169	0.244829
	H434	H	0.759473	0.214450	0.255338
	O435	O	0.112963	0.803560	0.149399
	H436	H	0.093888	0.792086	0.152395
	H437	H	0.121272	0.792630	0.148161
	O438	O	-0.036380	-0.225820	-0.017904
	H439	H	-0.037701	-0.214953	-0.013742
	H440	H	-0.029722	-0.237330	-0.034070
	O441	O	0.228709	0.216932	0.056228
	H442	H	0.244245	0.223615	0.067786
	H443	H	0.238581	0.225364	0.068515
	O444	O	0.430709	0.490338	0.499486
	H445	H	0.436381	0.490445	0.492679
	H446	H	0.433831	0.488382	0.490449
	O447	O	-0.036846	0.949215	0.835397
	H448	H	-0.043402	0.963932	0.853121
	H449	H	-0.048224	0.971158	0.821859
	O450	O	0.064570	1.040543	0.790652
	H451	H	0.055404	1.046312	0.792908
	H452	H	0.082282	1.038807	0.790137
	O453	O	0.732427	0.281776	0.481826
	H454	H	0.758961	0.258406	0.486880
	H455	H	0.725267	0.283807	0.454506
	O456	O	-0.472420	0.339918	0.723414
	H457	H	-0.493803	0.318963	0.721974
	H458	H	-0.498547	0.333663	0.713412
	O459	O	0.674656	0.492902	0.306296
	H460	H	0.683679	0.478975	0.300354
	H461	H	0.679600	0.457805	0.304755
	O462	O	0.573249	0.476874	0.454555
	H463	H	0.572745	0.458968	0.456358
	H464	H	0.572043	0.476787	0.466946
	O465	O	0.856237	0.082754	0.064022
	H466	H	0.853669	0.067989	0.067401
	H467	H	0.847139	0.067585	0.071176
	O468	O	0.304947	0.702911	0.311432
	H469	H	0.336658	0.710381	0.300835
	H470	H	0.295397	0.704594	0.348497
	O471	O	0.700100	0.308333	0.712478
	H472	H	0.689775	0.327450	0.690338
	H473	H	0.674764	0.322826	0.693641
	O474	O	0.298965	0.711262	0.475969
	H475	H	0.279353	0.720111	0.489153
	H476	H	0.297362	0.700283	0.477157
	O477	O	0.380477	0.321056	1.382623
	H478	H	0.371896	0.324118	1.370617
	H479	H	0.372457	0.337094	1.391041
	O480	O	0.024251	1.052057	0.067139
	H481	H	0.020790	1.053882	0.053094
	H482	H	0.023938	1.064835	0.073504
	O483	O	0.719440	0.703215	0.731934
	H484	H	0.735546	0.728000	0.759374
	H485	H	0.726944	0.670431	0.716580
	O486	O	0.018738	0.807729	-0.193384
	H487	H	0.025470	0.795348	-0.207845
	H488	H	0.001428	0.841425	-0.201644
	O489	O	0.797477	1.209364	-0.018274
	H490	H	0.796968	1.215599	-0.030854
	H491	H	0.781509	1.216576	-0.023631
