data_Molecule from HDF5

_cell_length_a		16.254331
_cell_length_b		16.280799
_cell_length_c		16.267299
_cell_angle_alpha	89.989699
_cell_angle_beta	90.004661
_cell_angle_gamma	90.062168
_symmetry_space_group_name_H-M	'P 1'
_symmetry_Int_Tables_number		1

loop_
	_symmetry_equiv_pos_as_xyz
	x,y,z

loop_
	_atom_site_label
	_atom_site_type_symbol
	_atom_site_fract_x
	_atom_site_fract_y
	_atom_site_fract_z
	H0	H	0.400575	0.835710	0.714174
	H1	H	0.597518	0.164135	0.713191
	H2	H	0.597880	0.835947	0.285733
	H3	H	0.402534	0.163175	0.285842
	H4	H	0.714430	0.402653	0.836158
	H5	H	0.713732	0.597295	0.164159
	H6	H	0.286189	0.597604	0.836018
	H7	H	0.287041	0.403258	0.164663
	H8	H	0.834886	0.713080	0.403659
	H9	H	0.163375	0.714580	0.597943
	H10	H	0.835940	0.285141	0.598076
	H11	H	0.163722	0.286510	0.401587
	H12	H	0.835424	0.402251	0.713645
	H13	H	0.163931	0.599417	0.714554
	H14	H	0.835521	0.597378	0.286428
	H15	H	0.164357	0.403386	0.286700
	H16	H	0.401663	0.714311	0.836079
	H17	H	0.599099	0.714725	0.163874
	H18	H	0.597533	0.287307	0.835462
	H19	H	0.402548	0.286154	0.164538
	H20	H	0.712813	0.835807	0.402308
	H21	H	0.713684	0.164005	0.597113
	H22	H	0.285569	0.836181	0.596642
	H23	H	0.287540	0.164034	0.402701
	H24	H	0.902372	0.335583	0.213610
	H25	H	0.098689	0.664179	0.214005
	H26	H	0.098163	0.336904	0.784964
	H27	H	0.901165	0.663963	0.784628
	H28	H	0.213254	0.903073	0.335676
	H29	H	0.212741	0.096956	0.664157
	H30	H	0.785914	0.097714	0.336006
	H31	H	0.786148	0.901645	0.664033
	H32	H	0.336707	0.214205	0.902545
	H33	H	0.664639	0.213345	0.097490
	H34	H	0.336634	0.784163	0.099118
	H35	H	0.665037	0.786957	0.902726
	H36	H	0.335970	0.902091	0.213560
	H37	H	0.664203	0.098111	0.214598
	H38	H	0.335292	0.096631	0.788056
	H39	H	0.663881	0.903290	0.786125
	H40	H	0.901292	0.213873	0.335813
	H41	H	0.098624	0.214699	0.663468
	H42	H	0.096901	0.786654	0.336067
	H43	H	0.902685	0.786888	0.664462
	H44	H	0.213477	0.336679	0.901595
	H45	H	0.213978	0.663732	0.097692
	H46	H	0.787722	0.335668	0.096036
	H47	H	0.786666	0.664695	0.901945
	H48	H	0.399146	0.119757	0.597378
	H49	H	0.590697	0.883866	0.592183
	H50	H	0.599186	0.119532	0.403765
	H51	H	0.413393	0.881759	0.396688
	H52	H	0.591711	0.393030	0.120212
	H53	H	0.601278	0.601634	0.878230
	H54	H	0.395586	0.598339	0.122297
	H55	H	0.402846	0.410131	0.882859
	H56	H	0.120290	0.600966	0.403163
	H57	H	0.882075	0.589170	0.598344
	H58	H	0.111604	0.409431	0.581664
	H59	H	0.878665	0.394454	0.404856
	H60	H	0.116572	0.416211	0.601159
	H61	H	0.880806	0.599008	0.594818
	H62	H	0.114212	0.593410	0.414289
	H63	H	0.886379	0.410007	0.416704
	H64	H	0.407235	0.579041	0.112711
	H65	H	0.597832	0.582716	0.884902
	H66	H	0.606336	0.411502	0.118987
	H67	H	0.411606	0.407215	0.885736
	H68	H	0.586600	0.116244	0.402555
	H69	H	0.595532	0.883086	0.591749
	H70	H	0.410746	0.116835	0.600195
	H71	H	0.410456	0.887143	0.416598
	H72	H	0.910812	0.615702	0.094664
	H73	H	0.092611	0.385846	0.084217
	H74	H	0.095572	0.618700	0.904094
	H75	H	0.896858	0.378964	0.899335
	H76	H	0.089648	0.909065	0.615447
	H77	H	0.101646	0.101870	0.377577
	H78	H	0.911887	0.090034	0.614088
	H79	H	0.894469	0.906138	0.380067
	H80	H	0.618013	0.092439	0.901103
	H81	H	0.384500	0.090755	0.091384
	H82	H	0.620204	0.903526	0.099899
	H83	H	0.386232	0.914707	0.908745
	H84	H	0.615914	0.902504	0.085448
	H85	H	0.382235	0.093173	0.097789
	H86	H	0.619219	0.098875	0.907359
	H87	H	0.379985	0.903786	0.899301
	H88	H	0.906965	0.097976	0.618093
	H89	H	0.097675	0.082093	0.384816
	H90	H	0.093319	0.901101	0.618471
	H91	H	0.910587	0.915789	0.386840
	H92	H	0.088710	0.616510	0.906042
	H93	H	0.102574	0.379530	0.097863
	H94	H	0.904270	0.616828	0.090734
	H95	H	0.919385	0.386045	0.900812
	H96	H	0.406540	0.115415	0.589000
	H97	H	0.593310	0.882527	0.596297
	H98	H	0.592169	0.114028	0.413747
	H99	H	0.395357	0.879576	0.405692
	H100	H	0.583761	0.413374	0.112167
	H101	H	0.583244	0.596752	0.885291
	H102	H	0.419143	0.600608	0.115679
	H103	H	0.405476	0.400904	0.881318
	H104	H	0.116107	0.586958	0.401951
	H105	H	0.884232	0.592015	0.588346
	H106	H	0.121000	0.396004	0.595970
	H107	H	0.882054	0.413842	0.396619
	H108	H	0.905213	0.618791	0.097554
	H109	H	0.085588	0.384337	0.100064
	H110	H	0.094761	0.616090	0.911242
	H111	H	0.905338	0.387361	0.919491
	H112	H	0.098693	0.908683	0.617356
	H113	H	0.082297	0.097114	0.385570
	H114	H	0.902159	0.089536	0.616719
	H115	H	0.912036	0.896152	0.380794
	H116	H	0.615691	0.090672	0.908807
	H117	H	0.382693	0.097801	0.091581
	H118	H	0.614270	0.914829	0.093176
	H119	H	0.383344	0.900334	0.914215
	C120	C	0.377614	0.008531	0.622568
	C121	C	0.621384	0.991547	0.621449
	C122	C	0.620929	0.008290	0.378465
	C123	C	0.378616	0.991225	0.378684
	C124	C	0.621693	0.378444	0.008456
	C125	C	0.621802	0.621366	0.991640
	C126	C	0.378975	0.621242	0.008226
	C127	C	0.378522	0.378150	0.991997
	C128	C	0.008038	0.621734	0.378474
	C129	C	0.991088	0.621722	0.621521
	C130	C	0.008166	0.378616	0.621454
	C131	C	0.991394	0.378277	0.378315
	C132	C	0.878851	0.508247	0.121804
	C133	C	0.121771	0.491851	0.121823
	C134	C	0.121288	0.508712	0.878386
	C135	C	0.878651	0.492217	0.878124
	C136	C	0.121698	0.878210	0.508496
	C137	C	0.121555	0.121663	0.491159
	C138	C	0.878351	0.121226	0.508015
	C139	C	0.878025	0.878109	0.491480
	C140	C	0.508826	0.121608	0.878455
	C141	C	0.491543	0.121901	0.121784
	C142	C	0.508598	0.878311	0.121406
	C143	C	0.491727	0.878508	0.878789
	C144	C	0.380597	0.884618	0.676398
	C145	C	0.618211	0.115137	0.675664
	C146	C	0.618357	0.884778	0.323447
	C147	C	0.381819	0.114598	0.324083
	C148	C	0.676812	0.381322	0.884961
	C149	C	0.676071	0.618159	0.115453
	C150	C	0.324416	0.617950	0.884718
	C151	C	0.324286	0.382095	0.115576
	C152	C	0.884110	0.675741	0.382166
	C153	C	0.114829	0.676411	0.618633
	C154	C	0.884779	0.323379	0.618669
	C155	C	0.115016	0.324292	0.381302
	C156	C	0.884511	0.381558	0.675970
	C157	C	0.115026	0.618813	0.676017
	C158	C	0.884425	0.618198	0.324136
	C159	C	0.115335	0.382328	0.324334
	C160	C	0.381478	0.676181	0.884912
	C161	C	0.619334	0.676504	0.115014
	C162	C	0.618911	0.324108	0.884696
	C163	C	0.381667	0.324068	0.115543
	C164	C	0.675385	0.884792	0.381405
	C165	C	0.675912	0.115191	0.618053
	C166	C	0.323383	0.884932	0.618352
	C167	C	0.324632	0.115024	0.381905
	C168	C	0.881858	0.384728	0.176003
	C169	C	0.119019	0.615213	0.176291
	C170	C	0.118386	0.385642	0.823265
	C171	C	0.881158	0.615357	0.822952
	C172	C	0.175981	0.881591	0.384838
	C173	C	0.175340	0.118059	0.615249
	C174	C	0.823789	0.118066	0.384741
	C175	C	0.823832	0.881229	0.615103
	C176	C	0.385023	0.175738	0.882352
	C177	C	0.615542	0.176008	0.118393
	C178	C	0.385347	0.822807	0.119190
	C179	C	0.615717	0.824447	0.881775
	C180	C	0.384881	0.881076	0.176121
	C181	C	0.615523	0.118122	0.175949
	C182	C	0.384503	0.117733	0.825197
	C183	C	0.615294	0.882071	0.824027
	C184	C	0.881408	0.175718	0.384644
	C185	C	0.118644	0.176348	0.614728
	C186	C	0.118113	0.823960	0.384975
	C187	C	0.881620	0.824163	0.615242
	C188	C	0.175465	0.385266	0.881408
	C189	C	0.176366	0.614967	0.118425
	C190	C	0.824698	0.384633	0.117909
	C191	C	0.824161	0.615638	0.881131
	C192	C	0.399149	0.095058	0.601608
	C193	C	0.599857	0.905312	0.599811
	C194	C	0.599079	0.094213	0.400261
	C195	C	0.400077	0.905087	0.400121
	C196	C	0.600315	0.399753	0.094627
	C197	C	0.600350	0.599989	0.905219
	C198	C	0.400881	0.599198	0.094445
	C199	C	0.400126	0.399661	0.905554
	C200	C	0.094488	0.600249	0.400169
	C201	C	0.904672	0.599999	0.600045
	C202	C	0.094275	0.400705	0.599521
	C203	C	0.904849	0.399645	0.399818
	C204	C	0.900291	0.594708	0.100574
	C205	C	0.100007	0.405307	0.100430
	C206	C	0.099691	0.594878	0.900605
	C207	C	0.900688	0.406257	0.900136
	C208	C	0.100259	0.899798	0.594792
	C209	C	0.100296	0.100084	0.405049
	C210	C	0.900533	0.098954	0.594137
	C211	C	0.899415	0.899643	0.404908
	C212	C	0.595366	0.100300	0.899530
	C213	C	0.405417	0.100298	0.100316
	C214	C	0.594620	0.900401	0.099454
	C215	C	0.405399	0.900037	0.900899
	Zn216	Zn	0.499681	-0.000291	0.750198
	Zn217	Zn	0.499876	-0.000313	0.249745
	Zn218	Zn	0.750128	0.500382	-0.000039
	Zn219	Zn	0.250005	0.499956	-0.000497
	Zn220	Zn	-0.000543	0.750069	0.500257
	Zn221	Zn	0.000107	0.249883	0.499723
	Zn222	Zn	0.000130	0.500731	0.749854
	Zn223	Zn	0.000084	0.499951	0.250167
	Zn224	Zn	0.500514	0.749801	-0.000192
	Zn225	Zn	0.500496	0.249899	-0.000120
	Zn226	Zn	0.749630	-0.000211	0.499723
	Zn227	Zn	0.249963	0.000417	0.500080
	N228	N	0.413482	0.962604	0.679122
	N229	N	0.585028	0.037448	0.677892
	N230	N	0.585572	0.962653	0.321190
	N231	N	0.414815	0.036956	0.322068
	N232	N	0.678767	0.414429	0.962725
	N233	N	0.677751	0.584585	0.037783
	N234	N	0.322791	0.584536	0.962415
	N235	N	0.322280	0.414950	0.037605
	N236	N	0.961985	0.678119	0.415001
	N237	N	0.036979	0.678211	0.585272
	N238	N	0.962629	0.321325	0.585462
	N239	N	0.037128	0.321997	0.414246
	N240	N	0.962240	0.415231	0.677809
	N241	N	0.037016	0.585833	0.678159
	N242	N	0.962454	0.585199	0.322019
	N243	N	0.037438	0.415235	0.322258
	N244	N	0.414638	0.678297	0.962698
	N245	N	0.586150	0.678545	0.037257
	N246	N	0.585313	0.322224	0.962349
	N247	N	0.414720	0.321527	0.037704
	N248	N	0.677241	0.962345	0.414931
	N249	N	0.677746	0.037443	0.584800
	N250	N	0.321533	0.962738	0.585583
	N251	N	0.322368	0.037209	0.415117
	N252	N	0.914858	0.462477	0.178283
	N253	N	0.085498	0.537543	0.178269
	N254	N	0.085592	0.463416	0.821452
	N255	N	0.914330	0.537783	0.821223
	N256	N	0.178138	0.914822	0.462586
	N257	N	0.177376	0.084732	0.537551
	N258	N	0.821713	0.085116	0.462533
	N259	N	0.821328	0.914079	0.537052
	N260	N	0.463247	0.178242	0.914618
	N261	N	0.537730	0.178129	0.085102
	N262	N	0.463159	0.821067	0.085905
	N263	N	0.537903	0.822233	0.915075
	N264	N	0.462474	0.914854	0.177575
	N265	N	0.537576	0.085234	0.178346
	N266	N	0.462505	0.084793	0.822593
	N267	N	0.537366	0.914876	0.822100
	N268	N	0.914404	0.177870	0.462391
	N269	N	0.085946	0.178697	0.536699
	N270	N	0.085325	0.821734	0.462916
	N271	N	0.914586	0.822067	0.537383
	N272	N	0.177296	0.462970	0.915095
	N273	N	0.178103	0.537225	0.085376
	N274	N	0.822799	0.462459	0.084803
	N275	N	0.822325	0.537932	0.914719
