data_Molecule from HDF5

_cell_length_a		16.225955
_cell_length_b		16.252771
_cell_length_c		16.336446
_cell_angle_alpha	89.932508
_cell_angle_beta	89.931429
_cell_angle_gamma	89.978148
_symmetry_space_group_name_H-M	'P 1'
_symmetry_Int_Tables_number		1

loop_
	_symmetry_equiv_pos_as_xyz
	x,y,z

loop_
	_atom_site_label
	_atom_site_type_symbol
	_atom_site_fract_x
	_atom_site_fract_y
	_atom_site_fract_z
	H0	H	0.397445	0.841301	0.716746
	H1	H	0.595665	0.168603	0.716475
	H2	H	0.596962	0.841624	0.287066
	H3	H	0.397769	0.168655	0.286412
	H4	H	0.712540	0.406850	0.838092
	H5	H	0.711157	0.601807	0.165592
	H6	H	0.283799	0.601514	0.837094
	H7	H	0.283831	0.406384	0.164385
	H8	H	0.832403	0.717139	0.404425
	H9	H	0.162202	0.718100	0.598922
	H10	H	0.833494	0.290492	0.599430
	H11	H	0.161975	0.290877	0.404050
	H12	H	0.833674	0.404873	0.716081
	H13	H	0.161634	0.603020	0.715213
	H14	H	0.833985	0.604489	0.285757
	H15	H	0.161480	0.404172	0.285283
	H16	H	0.398608	0.719799	0.837567
	H17	H	0.595128	0.719065	0.165368
	H18	H	0.596843	0.289862	0.837522
	H19	H	0.400217	0.290298	0.164284
	H20	H	0.710545	0.840623	0.405097
	H21	H	0.710055	0.169579	0.599655
	H22	H	0.284671	0.840376	0.598779
	H23	H	0.283210	0.169557	0.403864
	H24	H	0.898274	0.340767	0.216303
	H25	H	0.096080	0.668215	0.215016
	H26	H	0.097081	0.340764	0.786503
	H27	H	0.898470	0.667649	0.786644
	H28	H	0.212067	0.906544	0.337724
	H29	H	0.210521	0.101522	0.665638
	H30	H	0.783222	0.103003	0.338523
	H31	H	0.783554	0.906774	0.666212
	H32	H	0.332768	0.216393	0.906120
	H33	H	0.662266	0.216762	0.098193
	H34	H	0.332135	0.791189	0.099996
	H35	H	0.661731	0.790809	0.903664
	H36	H	0.333736	0.905367	0.217763
	H37	H	0.661582	0.103424	0.215925
	H38	H	0.333002	0.103304	0.788076
	H39	H	0.661409	0.905962	0.786939
	H40	H	0.898474	0.219777	0.338591
	H41	H	0.095304	0.219168	0.664525
	H42	H	0.095166	0.790761	0.337748
	H43	H	0.898990	0.788731	0.665134
	H44	H	0.210354	0.339575	0.904804
	H45	H	0.210471	0.668670	0.097920
	H46	H	0.784943	0.339803	0.098140
	H47	H	0.783067	0.668163	0.903338
	H48	H	0.414470	0.116428	0.586551
	H49	H	0.595266	0.885713	0.600916
	H50	H	0.600945	0.124215	0.412540
	H51	H	0.407626	0.887382	0.403963
	H52	H	0.594481	0.417044	0.116372
	H53	H	0.589914	0.602679	0.885331
	H54	H	0.414666	0.597734	0.113947
	H55	H	0.412198	0.405734	0.886033
	H56	H	0.115296	0.603117	0.410510
	H57	H	0.878475	0.601903	0.598559
	H58	H	0.115562	0.411856	0.597838
	H59	H	0.879837	0.407641	0.411971
	H60	H	0.114697	0.409216	0.591753
	H61	H	0.882011	0.598056	0.589626
	H62	H	0.111676	0.591703	0.411079
	H63	H	0.882461	0.417899	0.410101
	H64	H	0.398859	0.607050	0.120906
	H65	H	0.595194	0.594429	0.885226
	H66	H	0.582889	0.410165	0.115436
	H67	H	0.396555	0.404038	0.879758
	H68	H	0.588160	0.124496	0.396448
	H69	H	0.581901	0.889453	0.597791
	H70	H	0.389099	0.124837	0.590673
	H71	H	0.408745	0.891690	0.413589
	H72	H	0.908169	0.620805	0.096347
	H73	H	0.082187	0.390711	0.092053
	H74	H	0.085681	0.622077	0.900631
	H75	H	0.904803	0.388877	0.913193
	H76	H	0.089840	0.910580	0.617244
	H77	H	0.080672	0.096009	0.388726
	H78	H	0.909247	0.103572	0.617313
	H79	H	0.908506	0.918713	0.390090
	H80	H	0.617522	0.102770	0.901347
	H81	H	0.380533	0.096927	0.095480
	H82	H	0.612988	0.914258	0.094210
	H83	H	0.384653	0.924297	0.907948
	H84	H	0.615040	0.911096	0.098463
	H85	H	0.381052	0.096292	0.093270
	H86	H	0.613351	0.099019	0.915473
	H87	H	0.375864	0.906024	0.897161
	H88	H	0.896220	0.100196	0.620844
	H89	H	0.093386	0.107253	0.381967
	H90	H	0.091147	0.908889	0.617904
	H91	H	0.907897	0.903812	0.385666
	H92	H	0.086731	0.618340	0.914752
	H93	H	0.096834	0.386882	0.089756
	H94	H	0.903203	0.620221	0.091542
	H95	H	0.901142	0.385252	0.905109
	H96	H	0.406946	0.125089	0.610854
	H97	H	0.592283	0.889301	0.587739
	H98	H	0.581562	0.117467	0.414807
	H99	H	0.399777	0.887657	0.410554
	H100	H	0.593836	0.403773	0.119562
	H101	H	0.585426	0.594723	0.888203
	H102	H	0.397579	0.588059	0.116241
	H103	H	0.402224	0.418931	0.886232
	H104	H	0.116114	0.596656	0.401062
	H105	H	0.880949	0.591885	0.597928
	H106	H	0.113056	0.415800	0.592839
	H107	H	0.879319	0.411594	0.401991
	H108	H	0.902038	0.622998	0.097123
	H109	H	0.090976	0.384427	0.103717
	H110	H	0.098885	0.623201	0.907509
	H111	H	0.910737	0.387812	0.905269
	H112	H	0.092250	0.910442	0.618109
	H113	H	0.097928	0.090123	0.386150
	H114	H	0.905010	0.090715	0.616228
	H115	H	0.895054	0.912996	0.383999
	H116	H	0.613500	0.088942	0.904821
	H117	H	0.380943	0.095173	0.095306
	H118	H	0.614343	0.908825	0.093065
	H119	H	0.380801	0.904822	0.919548
	C120	C	0.375325	0.013397	0.623556
	C121	C	0.618240	0.996690	0.623474
	C122	C	0.618869	0.013529	0.380182
	C123	C	0.376468	0.997067	0.380572
	C124	C	0.619344	0.382457	0.009134
	C125	C	0.619061	0.626424	0.993859
	C126	C	0.375642	0.626025	0.009107
	C127	C	0.375619	0.381941	0.992235
	C128	C	0.005975	0.625696	0.379799
	C129	C	0.989189	0.625641	0.623051
	C130	C	0.005825	0.383296	0.622800
	C131	C	0.989349	0.383445	0.379886
	C132	C	0.875960	0.512850	0.123122
	C133	C	0.119142	0.495963	0.123089
	C134	C	0.118839	0.512705	0.879591
	C135	C	0.876237	0.495641	0.879568
	C136	C	0.119577	0.882218	0.509807
	C137	C	0.119140	0.126342	0.493359
	C138	C	0.875301	0.126755	0.509913
	C139	C	0.875280	0.882920	0.494183
	C140	C	0.506007	0.125444	0.879908
	C141	C	0.489246	0.125362	0.122868
	C142	C	0.505727	0.882743	0.123889
	C143	C	0.488847	0.883227	0.880121
	C144	C	0.377717	0.890000	0.678534
	C145	C	0.615709	0.120006	0.678300
	C146	C	0.616713	0.890208	0.325554
	C147	C	0.377747	0.120056	0.324662
	C148	C	0.674730	0.385734	0.886714
	C149	C	0.673890	0.623140	0.116641
	C150	C	0.321062	0.623080	0.885964
	C151	C	0.321506	0.385694	0.115623
	C152	C	0.881790	0.680230	0.383213
	C153	C	0.113084	0.680271	0.619492
	C154	C	0.882288	0.328173	0.620091
	C155	C	0.112830	0.327919	0.382499
	C156	C	0.882693	0.384935	0.678195
	C157	C	0.112657	0.623570	0.677727
	C158	C	0.882472	0.624143	0.324430
	C159	C	0.112817	0.385043	0.324192
	C160	C	0.378441	0.681338	0.886149
	C161	C	0.615827	0.681012	0.116750
	C162	C	0.617052	0.327771	0.886495
	C163	C	0.379112	0.327778	0.115627
	C164	C	0.673742	0.890022	0.383687
	C165	C	0.672361	0.120305	0.620137
	C166	C	0.321320	0.889687	0.620186
	C167	C	0.321013	0.120536	0.383121
	C168	C	0.878087	0.389580	0.178250
	C169	C	0.116701	0.619041	0.177707
	C170	C	0.117136	0.389366	0.824495
	C171	C	0.878054	0.619007	0.824680
	C172	C	0.174158	0.885875	0.386514
	C173	C	0.173161	0.122781	0.616703
	C174	C	0.820340	0.123940	0.387532
	C175	C	0.820890	0.885766	0.617199
	C176	C	0.381983	0.179338	0.884713
	C177	C	0.612971	0.180084	0.119637
	C178	C	0.381524	0.828546	0.120639
	C179	C	0.612687	0.828566	0.883059
	C180	C	0.382286	0.885074	0.179426
	C181	C	0.612771	0.123419	0.177868
	C182	C	0.382020	0.123220	0.826180
	C183	C	0.612514	0.885562	0.824921
	C184	C	0.877954	0.181716	0.387179
	C185	C	0.115947	0.181045	0.616376
	C186	C	0.116189	0.828186	0.386401
	C187	C	0.878372	0.827364	0.616771
	C188	C	0.173578	0.388807	0.883105
	C189	C	0.173452	0.619357	0.119221
	C190	C	0.821926	0.389134	0.119452
	C191	C	0.820854	0.619189	0.882651
	C192	C	0.397082	0.099842	0.602313
	C193	C	0.596204	0.910399	0.601785
	C194	C	0.596695	0.099818	0.401674
	C195	C	0.398846	0.911154	0.402772
	C196	C	0.597020	0.404112	0.094958
	C197	C	0.596741	0.604080	0.908317
	C198	C	0.397271	0.604090	0.094753
	C199	C	0.397186	0.403526	0.906308
	C200	C	0.092075	0.603546	0.401194
	C201	C	0.902845	0.603758	0.601571
	C202	C	0.092154	0.405704	0.600463
	C203	C	0.902927	0.405741	0.401765
	C204	C	0.898075	0.599323	0.101340
	C205	C	0.096673	0.409644	0.101496
	C206	C	0.096820	0.598745	0.901297
	C207	C	0.898738	0.409605	0.901472
	C208	C	0.097584	0.903581	0.595483
	C209	C	0.097126	0.104363	0.407678
	C210	C	0.897135	0.104770	0.596016
	C211	C	0.897359	0.905153	0.408606
	C212	C	0.592583	0.103444	0.900913
	C213	C	0.403015	0.102835	0.101065
	C214	C	0.591765	0.904767	0.101779
	C215	C	0.402656	0.905192	0.901771
	Zn216	Zn	0.497092	0.004881	0.751720
	Zn217	Zn	0.497751	0.004968	0.251819
	Zn218	Zn	0.748156	0.504358	0.001525
	Zn219	Zn	0.247214	0.503925	0.000529
	Zn220	Zn	-0.002634	0.753777	0.501266
	Zn221	Zn	-0.002504	0.255210	0.501418
	Zn222	Zn	-0.002100	0.504298	0.751129
	Zn223	Zn	-0.002563	0.504533	0.251429
	Zn224	Zn	0.496967	0.755193	0.001783
	Zn225	Zn	0.497696	0.253454	0.001163
	Zn226	Zn	0.746248	0.005161	0.502204
	Zn227	Zn	0.247753	0.004617	0.501438
	N228	N	0.410673	0.968009	0.680919
	N229	N	0.582639	0.042002	0.680424
	N230	N	0.583552	0.968144	0.323246
	N231	N	0.411332	0.042310	0.322884
	N232	N	0.676021	0.418966	0.963995
	N233	N	0.675906	0.589823	0.039264
	N234	N	0.319333	0.589363	0.963196
	N235	N	0.319021	0.418276	0.037724
	N236	N	0.959517	0.681331	0.417076
	N237	N	0.035248	0.681674	0.586144
	N238	N	0.959995	0.327044	0.586374
	N239	N	0.035172	0.327031	0.416355
	N240	N	0.960467	0.418564	0.679778
	N241	N	0.034690	0.590438	0.679972
	N242	N	0.960443	0.591074	0.322108
	N243	N	0.034867	0.418715	0.322396
	N244	N	0.411669	0.683298	0.963632
	N245	N	0.582647	0.683347	0.039244
	N246	N	0.583350	0.325536	0.963818
	N247	N	0.411934	0.325268	0.038035
	N248	N	0.675051	0.967685	0.416992
	N249	N	0.674006	0.042602	0.586807
	N250	N	0.319755	0.967316	0.586735
	N251	N	0.319736	0.043034	0.416960
	N252	N	0.910932	0.467769	0.180868
	N253	N	0.083463	0.541212	0.179992
	N254	N	0.083869	0.467254	0.822174
	N255	N	0.911434	0.541328	0.822376
	N256	N	0.176321	0.918711	0.464153
	N257	N	0.175011	0.089310	0.539376
	N258	N	0.818701	0.090410	0.464955
	N259	N	0.818733	0.919325	0.539876
	N260	N	0.460235	0.180889	0.917149
	N261	N	0.535202	0.181412	0.086160
	N262	N	0.459408	0.826654	0.087195
	N263	N	0.535023	0.827129	0.916686
	N264	N	0.460285	0.918138	0.181462
	N265	N	0.534796	0.090184	0.179986
	N266	N	0.460126	0.090310	0.823084
	N267	N	0.534392	0.918879	0.822765
	N268	N	0.911395	0.183526	0.464496
	N269	N	0.083128	0.183506	0.538628
	N270	N	0.083056	0.825562	0.463872
	N271	N	0.911721	0.825586	0.539284
	N272	N	0.174694	0.466342	0.916745
	N273	N	0.175060	0.541716	0.086142
	N274	N	0.820687	0.466820	0.086103
	N275	N	0.819717	0.541477	0.916179
	O276	O	0.021037	-0.057372	1.069983
	H277	H	0.019447	-0.058487	1.073764
	H278	H	0.030175	-0.053702	1.064829
	O279	O	0.497448	0.617739	0.439422
	H280	H	0.491196	0.623047	0.435371
	H281	H	0.508432	0.614089	0.433707
	O282	O	0.992805	-0.031972	0.042969
	H283	H	0.982857	-0.026703	0.042078
	H284	H	0.993180	-0.035048	0.044736
	O285	O	0.526539	0.593816	0.441569
	H286	H	0.536010	0.591727	0.450249
	H287	H	0.524493	0.592132	0.439941
	O288	O	0.489012	0.588920	0.468405
	H289	H	0.485306	0.602456	0.468021
	H290	H	0.489073	0.595413	0.459288
	O291	O	0.034235	0.918472	1.071473
	H292	H	0.035467	0.917250	1.067972
	H293	H	0.030357	0.916647	1.070953
	O294	O	0.514855	0.548271	0.468856
	H295	H	0.511991	0.547611	0.474999
	H296	H	0.509288	0.543014	0.468205
	O297	O	0.983108	-0.046317	0.063239
	H298	H	0.985260	-0.044741	0.072553
	H299	H	0.987629	-0.061267	0.067015
