data_Molecule from HDF5

_cell_length_a		16.458181
_cell_length_b		16.610798
_cell_length_c		16.524804
_cell_angle_alpha	89.949853
_cell_angle_beta	89.944970
_cell_angle_gamma	90.019661
_symmetry_space_group_name_H-M	'P 1'
_symmetry_Int_Tables_number		1

loop_
	_symmetry_equiv_pos_as_xyz
	x,y,z

loop_
	_atom_site_label
	_atom_site_type_symbol
	_atom_site_fract_x
	_atom_site_fract_y
	_atom_site_fract_z
	H0	H	0.395671	0.860547	0.731447
	H1	H	0.609777	0.171855	0.730048
	H2	H	0.609678	0.860595	0.286286
	H3	H	0.399909	0.173398	0.286428
	H4	H	0.723552	0.415462	0.850865
	H5	H	0.725904	0.623320	0.165377
	H6	H	0.282650	0.622283	0.850453
	H7	H	0.285644	0.414519	0.165471
	H8	H	0.848295	0.740491	0.401799
	H9	H	0.160884	0.741791	0.617853
	H10	H	0.847710	0.295687	0.614873
	H11	H	0.162181	0.298260	0.404484
	H12	H	0.846902	0.414218	0.728174
	H13	H	0.161869	0.624242	0.731388
	H14	H	0.847883	0.624385	0.286133
	H15	H	0.162426	0.414525	0.288343
	H16	H	0.395423	0.741689	0.852101
	H17	H	0.610696	0.740230	0.164891
	H18	H	0.610548	0.296616	0.851803
	H19	H	0.399022	0.295222	0.163658
	H20	H	0.727984	0.861523	0.400986
	H21	H	0.726545	0.172447	0.613704
	H22	H	0.280675	0.860523	0.613965
	H23	H	0.284628	0.174420	0.404155
	H24	H	0.898730	0.360796	0.230272
	H25	H	0.109584	0.673298	0.229860
	H26	H	0.109460	0.360106	0.787724
	H27	H	0.898360	0.672428	0.785361
	H28	H	0.222394	0.916158	0.349430
	H29	H	0.226318	0.122217	0.664561
	H30	H	0.785879	0.119160	0.349530
	H31	H	0.783225	0.912792	0.664994
	H32	H	0.347060	0.238102	0.902242
	H33	H	0.661282	0.239139	0.113620
	H34	H	0.346685	0.795824	0.114456
	H35	H	0.661110	0.795463	0.903035
	H36	H	0.346147	0.913351	0.228863
	H37	H	0.661719	0.121678	0.228609
	H38	H	0.346541	0.122362	0.785836
	H39	H	0.660750	0.910888	0.786348
	H40	H	0.899578	0.238126	0.350292
	H41	H	0.111439	0.238864	0.664811
	H42	H	0.110731	0.795884	0.351674
	H43	H	0.897105	0.794249	0.664080
	H44	H	0.224816	0.359611	0.904253
	H45	H	0.225661	0.673867	0.112800
	H46	H	0.783878	0.360514	0.111587
	H47	H	0.783648	0.673943	0.904346
	H48	H	0.412411	0.129400	0.600247
	H49	H	0.592517	0.905365	0.597494
	H50	H	0.595541	0.130870	0.412215
	H51	H	0.416767	0.904808	0.416483
	H52	H	0.593016	0.426324	0.121970
	H53	H	0.590521	0.604905	0.897749
	H54	H	0.406512	0.602941	0.121976
	H55	H	0.417772	0.426760	0.895059
	H56	H	0.117311	0.606498	0.420252
	H57	H	0.894684	0.607316	0.591054
	H58	H	0.120915	0.425964	0.602857
	H59	H	0.891098	0.429445	0.419247
	H60	H	0.118613	0.423389	0.592572
	H61	H	0.895154	0.600020	0.595138
	H62	H	0.116521	0.605221	0.420794
	H63	H	0.889957	0.427256	0.417989
	H64	H	0.422798	0.598752	0.114211
	H65	H	0.592014	0.609882	0.894811
	H66	H	0.592664	0.428148	0.120813
	H67	H	0.414046	0.425262	0.893879
	H68	H	0.588698	0.127161	0.418131
	H69	H	0.591113	0.905915	0.594283
	H70	H	0.421294	0.126707	0.598920
	H71	H	0.413755	0.905667	0.420633
	H72	H	0.917104	0.628361	0.096602
	H73	H	0.093043	0.404963	0.097848
	H74	H	0.089758	0.627108	0.918835
	H75	H	0.910923	0.405358	0.922101
	H76	H	0.092437	0.926982	0.621040
	H77	H	0.091561	0.101622	0.398353
	H78	H	0.911206	0.101608	0.619947
	H79	H	0.919152	0.924709	0.395667
	H80	H	0.618592	0.108025	0.916913
	H81	H	0.391589	0.104585	0.097937
	H82	H	0.616036	0.931791	0.095934
	H83	H	0.393582	0.933050	0.922957
	H84	H	0.618132	0.925709	0.099425
	H85	H	0.389926	0.108445	0.096873
	H86	H	0.616285	0.106841	0.920973
	H87	H	0.389311	0.928736	0.914692
	H88	H	0.922426	0.105581	0.617557
	H89	H	0.088574	0.113295	0.394993
	H90	H	0.093034	0.929618	0.620654
	H91	H	0.914072	0.928977	0.394968
	H92	H	0.094487	0.627817	0.922112
	H93	H	0.095484	0.404441	0.098095
	H94	H	0.914554	0.628666	0.097528
	H95	H	0.914888	0.403463	0.914078
	H96	H	0.415019	0.126454	0.591755
	H97	H	0.594272	0.904784	0.594785
	H98	H	0.598071	0.128595	0.422223
	H99	H	0.412050	0.903558	0.416673
	H100	H	0.591103	0.425943	0.121213
	H101	H	0.595955	0.605556	0.895720
	H102	H	0.419637	0.615684	0.121140
	H103	H	0.414507	0.429648	0.894717
	H104	H	0.117176	0.604980	0.419894
	H105	H	0.891747	0.606315	0.599231
	H106	H	0.115549	0.432972	0.596580
	H107	H	0.890949	0.427281	0.420961
	H108	H	0.916629	0.629064	0.099423
	H109	H	0.094110	0.404822	0.100006
	H110	H	0.094388	0.629624	0.917251
	H111	H	0.919256	0.407337	0.920227
	H112	H	0.090480	0.928603	0.619731
	H113	H	0.099912	0.109334	0.392604
	H114	H	0.914586	0.113044	0.622882
	H115	H	0.919219	0.930720	0.397448
	H116	H	0.615930	0.104306	0.917253
	H117	H	0.392308	0.105694	0.094147
	H118	H	0.616046	0.925228	0.091738
	H119	H	0.390755	0.923163	0.923059
	C120	C	0.382521	0.024564	0.629572
	C121	C	0.625395	1.008028	0.628631
	C122	C	0.626870	0.025756	0.385241
	C123	C	0.383084	1.008396	0.386420
	C124	C	0.624879	0.395765	0.017354
	C125	C	0.625371	0.639116	0.999901
	C126	C	0.382768	0.638780	0.016120
	C127	C	0.383444	0.395806	0.998915
	C128	C	0.013102	0.638236	0.387248
	C129	C	0.996808	0.638194	0.629465
	C130	C	0.013494	0.396109	0.628946
	C131	C	0.995303	0.396300	0.387440
	C132	C	0.882863	0.525677	0.129967
	C133	C	0.126120	0.508484	0.130187
	C134	C	0.125828	0.525089	0.887087
	C135	C	0.883186	0.508830	0.887153
	C136	C	0.124904	0.896383	0.516704
	C137	C	0.126363	0.139572	0.499211
	C138	C	0.883831	0.138413	0.516181
	C139	C	0.883697	0.895645	0.499429
	C140	C	0.512457	0.138124	0.886052
	C141	C	0.495872	0.137862	0.128127
	C142	C	0.512652	0.895822	0.128956
	C143	C	0.495318	0.895904	0.887354
	C144	C	0.378133	0.907628	0.690941
	C145	C	0.628209	0.125131	0.689720
	C146	C	0.628687	0.907789	0.325842
	C147	C	0.381677	0.126671	0.326968
	C148	C	0.684186	0.395849	0.898517
	C149	C	0.685848	0.641693	0.118140
	C150	C	0.322248	0.641038	0.897883
	C151	C	0.324750	0.395053	0.117921
	C152	C	0.895381	0.699711	0.383909
	C153	C	0.114017	0.700545	0.634436
	C154	C	0.894864	0.336007	0.632185
	C155	C	0.114766	0.337669	0.385623
	C156	C	0.894615	0.394372	0.689076
	C157	C	0.114568	0.641782	0.690985
	C158	C	0.895072	0.641929	0.326321
	C159	C	0.114961	0.395326	0.328049
	C160	C	0.378325	0.700430	0.898718
	C161	C	0.628466	0.699912	0.117819
	C162	C	0.627699	0.337014	0.898765
	C163	C	0.381111	0.335894	0.116982
	C164	C	0.687739	0.908447	0.382861
	C165	C	0.686272	0.125415	0.631702
	C166	C	0.320686	0.907593	0.632496
	C167	C	0.324425	0.127064	0.385541
	C168	C	0.880271	0.407740	0.189844
	C169	C	0.128231	0.626267	0.189844
	C170	C	0.127389	0.407027	0.827890
	C171	C	0.880824	0.626063	0.826246
	C172	C	0.183312	0.896323	0.397306
	C173	C	0.186611	0.141011	0.617339
	C174	C	0.824924	0.138866	0.397086
	C175	C	0.822966	0.893688	0.617650
	C176	C	0.394207	0.198413	0.883275
	C177	C	0.614253	0.198440	0.131282
	C178	C	0.393739	0.836175	0.132001
	C179	C	0.613689	0.835191	0.884304
	C180	C	0.393764	0.894395	0.189173
	C181	C	0.614558	0.139791	0.188110
	C182	C	0.394071	0.140570	0.825756
	C183	C	0.613684	0.892942	0.826628
	C184	C	0.881515	0.198030	0.397632
	C185	C	0.129073	0.198869	0.617499
	C186	C	0.127862	0.836355	0.398552
	C187	C	0.880048	0.835210	0.617453
	C188	C	0.185383	0.407011	0.885600
	C189	C	0.186059	0.626381	0.131591
	C190	C	0.823306	0.407536	0.130858
	C191	C	0.823798	0.626841	0.885462
	C192	C	0.408658	0.106156	0.604027
	C193	C	0.599835	0.926410	0.602816
	C194	C	0.601218	0.107586	0.410285
	C195	C	0.407353	0.926023	0.410814
	C196	C	0.599543	0.419930	0.099864
	C197	C	0.600098	0.614067	0.917593
	C198	C	0.408911	0.613286	0.097798
	C199	C	0.408283	0.420246	0.916000
	C200	C	0.095545	0.612736	0.412939
	C201	C	0.915049	0.612107	0.602760
	C202	C	0.096701	0.420428	0.604404
	C203	C	0.912335	0.420891	0.412122
	C204	C	0.908482	0.607304	0.104983
	C205	C	0.101330	0.426204	0.105764
	C206	C	0.100471	0.607003	0.912239
	C207	C	0.907789	0.426844	0.911822
	C208	C	0.099506	0.921320	0.599001
	C209	C	0.100659	0.115115	0.416932
	C210	C	0.908865	0.113788	0.598564
	C211	C	0.909850	0.921021	0.417415
	C212	C	0.595366	0.113491	0.911249
	C213	C	0.413016	0.113312	0.103364
	C214	C	0.595309	0.920413	0.103284
	C215	C	0.412828	0.921068	0.912773
	Zn216	Zn	0.504053	0.016299	0.758317
	Zn217	Zn	0.504214	0.017056	0.257090
	Zn218	Zn	0.753363	0.517632	0.008608
	Zn219	Zn	0.254887	0.516949	0.007743
	Zn220	Zn	0.004882	0.766982	0.508642
	Zn221	Zn	0.004747	0.267750	0.508030
	Zn222	Zn	0.005137	0.516692	0.757696
	Zn223	Zn	0.004230	0.517120	0.258987
	Zn224	Zn	0.503726	0.767335	0.008125
	Zn225	Zn	0.504304	0.266875	0.007355
	Zn226	Zn	0.754955	0.016900	0.507772
	Zn227	Zn	0.253965	0.017036	0.507565
	N228	N	0.415601	0.981525	0.689472
	N229	N	0.590952	0.051220	0.687892
	N230	N	0.591679	0.981853	0.327094
	N231	N	0.417052	0.051775	0.327056
	N232	N	0.682612	0.431751	0.973253
	N233	N	0.684007	0.604618	0.043960
	N234	N	0.324602	0.603576	0.972054
	N235	N	0.326110	0.431559	0.043465
	N236	N	0.969926	0.697774	0.421187
	N237	N	0.039960	0.698172	0.596490
	N238	N	0.970012	0.336640	0.595929
	N239	N	0.039326	0.337838	0.421404
	N240	N	0.969537	0.430816	0.687459
	N241	N	0.040528	0.603662	0.688015
	N242	N	0.969288	0.604245	0.328449
	N243	N	0.039579	0.430910	0.328895
	N244	N	0.415210	0.699285	0.973231
	N245	N	0.591647	0.698503	0.043131
	N246	N	0.591699	0.336671	0.973693
	N247	N	0.416838	0.336273	0.041865
	N248	N	0.686763	0.982860	0.419049
	N249	N	0.684532	0.051665	0.594346
	N250	N	0.323127	0.981458	0.595140
	N251	N	0.324885	0.052449	0.421680
	N252	N	0.916494	0.482086	0.189589
	N253	N	0.092043	0.551801	0.189410
	N254	N	0.091112	0.481499	0.828485
	N255	N	0.917291	0.551775	0.827245
	N256	N	0.181746	0.932821	0.471803
	N257	N	0.185094	0.104830	0.542776
	N258	N	0.825793	0.102720	0.471927
	N259	N	0.825095	0.930547	0.543253
	N260	N	0.469032	0.197002	0.920149
	N261	N	0.539397	0.197304	0.094661
	N262	N	0.468681	0.836837	0.095398
	N263	N	0.538918	0.836949	0.921266
	N264	N	0.468805	0.930583	0.187502
	N265	N	0.539924	0.102863	0.186402
	N266	N	0.468620	0.103644	0.827542
	N267	N	0.539072	0.929867	0.828325
	N268	N	0.917133	0.198004	0.472728
	N269	N	0.092346	0.198298	0.542862
	N270	N	0.092671	0.836062	0.474023
	N271	N	0.916855	0.836142	0.542910
	N272	N	0.184537	0.481447	0.921671
	N273	N	0.184907	0.552086	0.095060
	N274	N	0.824785	0.481877	0.094402
	N275	N	0.825049	0.552957	0.922653
	O276	O	0.794797	1.024791	-0.157172
	H277	H	0.791991	1.043476	-0.157843
	H278	H	0.784466	1.039120	-0.168174
	O279	O	-0.235599	-0.228129	0.784403
	H280	H	-0.238316	-0.243521	0.777183
	H281	H	-0.215456	-0.215350	0.796716
	O282	O	0.636049	0.522449	0.379374
	H283	H	0.634998	0.541398	0.371679
	H284	H	0.627434	0.538141	0.373735
	O285	O	0.798029	0.221083	0.801514
	H286	H	0.785707	0.241419	0.816516
	H287	H	0.793114	0.244332	0.795469
	O288	O	0.836568	0.232904	0.997540
	H289	H	0.833676	0.227757	1.005904
	H290	H	0.828075	0.234202	1.008557
	O291	O	0.623180	0.348248	0.576505
	H292	H	0.617417	0.351640	0.553553
	H293	H	0.636859	0.353775	0.553877
	O294	O	-0.071951	-0.116163	0.163320
	H295	H	-0.079302	-0.119668	0.167193
	H296	H	-0.079425	-0.118207	0.169639
	O297	O	0.893065	0.155520	0.113453
	H298	H	0.889398	0.141520	0.098199
	H299	H	0.895719	0.138722	0.116598
	O300	O	0.225404	0.050914	0.225853
	H301	H	0.241502	0.079621	0.241863
	H302	H	0.236561	0.059622	0.227758
	O303	O	0.024575	-0.100766	-0.198388
	H304	H	0.025887	-0.085614	-0.199849
	H305	H	0.027031	-0.111598	-0.203587
	O306	O	1.200842	-0.066525	-0.188909
	H307	H	1.216250	-0.043103	-0.206962
	H308	H	1.195592	-0.052379	-0.168429
	O309	O	0.318710	0.437684	0.445350
	H310	H	0.322054	0.445290	0.452179
	H311	H	0.305486	0.430480	0.465467
	O312	O	0.527919	0.622399	0.504681
	H313	H	0.520477	0.621640	0.504716
	H314	H	0.531122	0.636082	0.511049
	O315	O	0.720362	0.735219	0.536133
	H316	H	0.738832	0.756380	0.540922
	H317	H	0.707500	0.733578	0.538740
	O318	O	1.015934	0.968700	0.038088
	H319	H	1.036780	0.980698	0.038983
	H320	H	1.012614	0.961694	0.045482
	O321	O	0.306873	0.319479	0.704006
	H322	H	0.353993	0.317939	0.712661
	H323	H	0.287363	0.335181	0.726127
	O324	O	0.504345	0.527330	1.647801
	H325	H	0.499165	0.534046	1.649699
	H326	H	0.500326	0.535276	1.656874
	O327	O	0.290317	0.487415	0.717052
	H328	H	0.285089	0.499970	0.723595
	H329	H	0.283235	0.488504	0.721929
	O330	O	-0.147532	0.915552	0.035881
	H331	H	-0.154580	0.917222	0.031614
	H332	H	-0.150112	0.919915	0.049495
	O333	O	0.429716	0.443770	0.287120
	H334	H	0.437049	0.451615	0.284785
	H335	H	0.429208	0.450780	0.280629
	O336	O	0.565404	0.404671	0.712190
	H337	H	0.573459	0.407697	0.696285
	H338	H	0.563649	0.397255	0.716318
	O339	O	0.480656	0.733368	0.336271
	H340	H	0.485105	0.752301	0.308419
	H341	H	0.483236	0.714405	0.336625
	O342	O	0.038332	1.010654	0.195905
	H343	H	0.029918	1.013121	0.183436
	H344	H	0.062244	1.027998	0.210379
	O345	O	0.484255	0.382918	0.519354
	H346	H	0.483306	0.378773	0.530027
	H347	H	0.479978	0.387722	0.532003
	O348	O	0.904446	-0.025358	0.153576
	H349	H	0.910068	-0.033092	0.157233
	H350	H	0.900039	-0.012629	0.153397
	O351	O	0.096460	0.220165	0.928826
	H352	H	0.078010	0.222535	0.936973
	H353	H	0.085533	0.209214	0.930465
	O354	O	1.299203	-0.281693	1.307633
	H355	H	1.325596	-0.279129	1.313245
	H356	H	1.278361	-0.277398	1.282270
	O357	O	0.686583	0.331103	0.698983
	H358	H	0.661034	0.342050	0.683357
	H359	H	0.677707	0.352270	0.673879
	O360	O	0.709501	0.607025	0.715077
	H361	H	0.723651	0.607205	0.698672
	H362	H	0.704439	0.590235	0.710684
	O363	O	1.106178	0.141386	-0.110690
	H364	H	1.096134	0.161169	-0.121806
	H365	H	1.119924	0.140073	-0.121274
	O366	O	0.995229	0.135949	0.960864
	H367	H	0.982756	0.118278	0.959890
	H368	H	0.990612	0.138696	0.945490
	O369	O	-0.129526	-0.183135	0.869884
	H370	H	-0.112562	-0.176658	0.874429
	H371	H	-0.128467	-0.176057	0.871561
	O372	O	0.152023	0.872277	0.963212
	H373	H	0.166799	0.870610	0.977975
	H374	H	0.149535	0.865325	0.976146
	O375	O	1.131213	0.003407	-0.058695
	H376	H	1.118188	0.014743	-0.074725
	H377	H	1.142996	0.010968	-0.073912
	O378	O	0.660195	0.494147	0.537220
	H379	H	0.641955	0.483514	0.534696
	H380	H	0.655425	0.481622	0.528035
	O381	O	0.000523	0.804055	-0.066564
	H382	H	0.017794	0.811231	-0.067691
	H383	H	0.007481	0.800320	-0.081864
	O384	O	0.623231	0.307844	0.337861
	H385	H	0.627251	0.328437	0.323280
	H386	H	0.597291	0.298097	0.334830
	O387	O	0.087069	1.177589	0.819702
	H388	H	0.068321	1.180394	0.805037
	H389	H	0.073014	1.190497	0.831095
	O390	O	0.217205	1.221137	1.035725
	H391	H	0.214240	1.228691	1.052884
	H392	H	0.224478	1.237255	1.043570
	O393	O	1.009708	0.224812	0.216669
	H394	H	1.004140	0.234474	0.222295
	H395	H	0.989850	0.224781	0.203102
	O396	O	0.472101	0.487263	0.537221
	H397	H	0.457124	0.484156	0.534196
	H398	H	0.469944	0.484112	0.546637
	O399	O	0.876486	0.820902	0.144647
	H400	H	0.882932	0.821196	0.120644
	H401	H	0.873144	0.819238	0.151236
	O402	O	0.904397	-0.157641	1.096145
	H403	H	0.901531	-0.173547	1.098383
	H404	H	0.915632	-0.169529	1.082284
	O405	O	0.363497	0.321821	0.336004
	H406	H	0.375184	0.339492	0.341532
	H407	H	0.370785	0.328498	0.356259
	O408	O	1.188515	0.861001	1.147383
	H409	H	1.172958	0.873385	1.145641
	H410	H	1.177674	0.878593	1.139271
	O411	O	0.932121	1.036981	-0.200872
	H412	H	0.939732	1.033648	-0.197550
	H413	H	0.907130	1.043123	-0.204644
	O414	O	-0.060563	0.187432	-0.022527
	H415	H	-0.065886	0.191992	-0.030215
	H416	H	-0.068336	0.186257	-0.029282
	O417	O	0.529856	0.737677	0.727944
	H418	H	0.562464	0.741348	0.721199
	H419	H	0.525374	0.764889	0.745351
	O420	O	0.621632	-0.327972	0.381063
	H421	H	0.610089	-0.333301	0.380156
	H422	H	0.638402	-0.326622	0.397642
	O423	O	0.862867	1.030531	0.036954
	H424	H	0.858860	1.004791	0.040334
	H425	H	0.845640	1.014533	0.047463
	O426	O	-0.143712	0.960494	0.209974
	H427	H	-0.165930	0.950303	0.200829
	H428	H	-0.115559	0.959010	0.206050
	O429	O	0.486617	0.402603	0.691281
	H430	H	0.507186	0.409250	0.680945
	H431	H	0.486939	0.391784	0.695049
	O432	O	0.378490	0.672581	0.671499
	H433	H	0.373746	0.672616	0.677892
	H434	H	0.393067	0.670756	0.664544
	O435	O	0.720084	0.419471	0.294700
	H436	H	0.733339	0.438547	0.275426
	H437	H	0.735843	0.420732	0.294426
	O438	O	0.290149	0.299646	0.535349
	H439	H	0.278699	0.288919	0.561134
	H440	H	0.279212	0.294568	0.563827
	O441	O	0.278996	0.555809	0.560620
	H442	H	0.279848	0.566010	0.557939
	H443	H	0.274876	0.574426	0.559236
	O444	O	0.328578	0.584412	0.296690
	H445	H	0.300207	0.578605	0.288290
	H446	H	0.325082	0.594274	0.307597
	O447	O	0.722030	0.296366	0.473012
	H448	H	0.749981	0.267706	0.457373
	H449	H	0.719896	0.301602	0.437100
	O450	O	1.209561	0.220486	0.208457
	H451	H	1.229862	0.247885	0.218788
	H452	H	1.168618	0.218214	0.217947
	O453	O	0.280192	0.736211	0.476384
	H454	H	0.248419	0.764909	0.477113
	H455	H	0.294715	0.730972	0.445857
	O456	O	0.158080	0.996487	1.029788
	H457	H	0.164967	1.001031	1.039685
	H458	H	0.155467	1.014695	1.004854
	O459	O	0.506624	-0.691913	0.402448
	H460	H	0.480612	-0.685355	0.397615
	H461	H	0.503066	-0.694026	0.413829
	O462	O	0.531241	0.605165	0.345765
	H463	H	0.536507	0.606338	0.332242
	H464	H	0.513468	0.603224	0.354610
	O465	O	0.527959	0.621264	0.457032
	H466	H	0.516364	0.619475	0.464323
	H467	H	0.520817	0.602859	0.461753
	O468	O	-0.134727	1.054189	-0.009504
	H469	H	-0.139924	1.051205	-0.010480
	H470	H	-0.139790	1.039316	0.002477
	O471	O	0.698340	0.635818	0.385066
	H472	H	0.693086	0.629018	0.402687
	H473	H	0.678600	0.629221	0.393196
	O474	O	0.466298	0.617824	0.545346
	H475	H	0.452702	0.619113	0.553848
	H476	H	0.451055	0.629116	0.553980
	O477	O	0.204242	-0.187083	0.874911
	H478	H	0.203385	-0.153184	0.865989
	H479	H	0.222072	-0.197248	0.904918
