data_Molecule from HDF5

_cell_length_a		16.189574
_cell_length_b		16.340598
_cell_length_c		16.274602
_cell_angle_alpha	89.983836
_cell_angle_beta	90.000582
_cell_angle_gamma	90.085843
_symmetry_space_group_name_H-M	'P 1'
_symmetry_Int_Tables_number		1

loop_
	_symmetry_equiv_pos_as_xyz
	x,y,z

loop_
	_atom_site_label
	_atom_site_type_symbol
	_atom_site_fract_x
	_atom_site_fract_y
	_atom_site_fract_z
	H0	H	0.401291	0.835684	0.714746
	H1	H	0.599495	0.162122	0.715845
	H2	H	0.597455	0.836490	0.285936
	H3	H	0.400332	0.162519	0.284856
	H4	H	0.713620	0.403239	0.835231
	H5	H	0.712009	0.595368	0.164841
	H6	H	0.288335	0.595718	0.834525
	H7	H	0.287068	0.403116	0.164424
	H8	H	0.835317	0.713864	0.401186
	H9	H	0.164581	0.714793	0.598235
	H10	H	0.834985	0.286988	0.597502
	H11	H	0.164082	0.285912	0.400431
	H12	H	0.835158	0.402317	0.712694
	H13	H	0.165113	0.596972	0.712716
	H14	H	0.835611	0.598107	0.285740
	H15	H	0.164992	0.404672	0.288260
	H16	H	0.401455	0.715078	0.836143
	H17	H	0.599437	0.715388	0.163401
	H18	H	0.600295	0.283979	0.836878
	H19	H	0.400906	0.285112	0.163480
	H20	H	0.713551	0.836225	0.403063
	H21	H	0.714706	0.163145	0.598476
	H22	H	0.285545	0.835843	0.597594
	H23	H	0.285505	0.162919	0.403170
	H24	H	0.901684	0.337063	0.214442
	H25	H	0.099180	0.663681	0.214514
	H26	H	0.098236	0.336254	0.785384
	H27	H	0.902095	0.663639	0.784901
	H28	H	0.212684	0.903943	0.335848
	H29	H	0.212156	0.096053	0.664625
	H30	H	0.787764	0.095146	0.335397
	H31	H	0.787674	0.904256	0.664569
	H32	H	0.336016	0.213247	0.902075
	H33	H	0.663725	0.215589	0.099703
	H34	H	0.335444	0.786112	0.098140
	H35	H	0.665089	0.787379	0.902950
	H36	H	0.335095	0.901622	0.213462
	H37	H	0.664808	0.097584	0.213300
	H38	H	0.335308	0.096220	0.787114
	H39	H	0.664056	0.901810	0.786214
	H40	H	0.900810	0.215080	0.336588
	H41	H	0.099958	0.216120	0.663574
	H42	H	0.100353	0.785076	0.336529
	H43	H	0.899834	0.784286	0.662142
	H44	H	0.213646	0.335790	0.903090
	H45	H	0.214204	0.664225	0.096888
	H46	H	0.786955	0.336258	0.096265
	H47	H	0.787394	0.663961	0.902604
	H48	H	0.409690	0.115632	0.596716
	H49	H	0.593557	0.880888	0.600167
	H50	H	0.592151	0.115122	0.408718
	H51	H	0.403294	0.883224	0.409318
	H52	H	0.587282	0.417787	0.111597
	H53	H	0.593085	0.598018	0.882334
	H54	H	0.409497	0.600805	0.117703
	H55	H	0.413737	0.408048	0.885039
	H56	H	0.117076	0.591016	0.405080
	H57	H	0.887505	0.583836	0.586262
	H58	H	0.117789	0.407557	0.594981
	H59	H	0.880410	0.402926	0.403600
	H60	H	0.118058	0.405129	0.593576
	H61	H	0.879655	0.591248	0.604647
	H62	H	0.117904	0.596420	0.406868
	H63	H	0.883835	0.406250	0.412972
	H64	H	0.400974	0.591330	0.117607
	H65	H	0.595647	0.593120	0.882501
	H66	H	0.586246	0.395692	0.118401
	H67	H	0.406311	0.399104	0.881005
	H68	H	0.595595	0.116543	0.406646
	H69	H	0.587158	0.886339	0.591907
	H70	H	0.407895	0.114277	0.590182
	H71	H	0.404045	0.881512	0.402526
	H72	H	0.916760	0.616353	0.102862
	H73	H	0.093933	0.385751	0.089932
	H74	H	0.103253	0.617474	0.910722
	H75	H	0.903218	0.382574	0.901299
	H76	H	0.090380	0.903530	0.616796
	H77	H	0.098598	0.090140	0.383339
	H78	H	0.902606	0.094440	0.618271
	H79	H	0.902346	0.908562	0.381957
	H80	H	0.618012	0.090057	0.904170
	H81	H	0.382243	0.093298	0.092540
	H82	H	0.625175	0.897669	0.111031
	H83	H	0.380802	0.903878	0.903458
	H84	H	0.615715	0.895489	0.075975
	H85	H	0.383406	0.092629	0.091697
	H86	H	0.618466	0.097129	0.908474
	H87	H	0.382589	0.904115	0.910735
	H88	H	0.909163	0.090569	0.615316
	H89	H	0.085206	0.090970	0.386448
	H90	H	0.094690	0.906363	0.617601
	H91	H	0.911252	0.908871	0.384718
	H92	H	0.092804	0.618730	0.894904
	H93	H	0.096405	0.382317	0.096205
	H94	H	0.909718	0.612496	0.081192
	H95	H	0.912826	0.385019	0.904813
	H96	H	0.403012	0.116895	0.594498
	H97	H	0.597814	0.883505	0.589548
	H98	H	0.592566	0.116540	0.404363
	H99	H	0.409858	0.884793	0.405913
	H100	H	0.606296	0.406670	0.120171
	H101	H	0.590249	0.593378	0.884478
	H102	H	0.412878	0.588939	0.113680
	H103	H	0.401844	0.410072	0.883317
	H104	H	0.115278	0.592519	0.410851
	H105	H	0.880924	0.603979	0.587634
	H106	H	0.117026	0.407372	0.592000
	H107	H	0.883406	0.412290	0.404633
	H108	H	0.894276	0.620865	0.096484
	H109	H	0.089291	0.384603	0.095849
	H110	H	0.085592	0.611680	0.910940
	H111	H	0.904870	0.384724	0.910744
	H112	H	0.090286	0.908815	0.615662
	H113	H	0.092188	0.101573	0.381023
	H114	H	0.910022	0.098601	0.617438
	H115	H	0.908181	0.901370	0.381596
	H116	H	0.615544	0.090788	0.912074
	H117	H	0.382605	0.092497	0.093199
	H118	H	0.611746	0.926956	0.093632
	H119	H	0.383382	0.910320	0.906661
	C120	C	0.378118	0.007551	0.622252
	C121	C	0.621896	0.991511	0.622206
	C122	C	0.621370	0.007810	0.378639
	C123	C	0.377754	0.991353	0.378197
	C124	C	0.621625	0.378638	0.008008
	C125	C	0.621901	0.622551	0.991476
	C126	C	0.379299	0.621665	0.007885
	C127	C	0.378900	0.378024	0.991750
	C128	C	0.008209	0.621909	0.378523
	C129	C	0.991535	0.621201	0.621108
	C130	C	0.008522	0.378683	0.621428
	C131	C	0.991421	0.378955	0.378706
	C132	C	0.878762	0.508467	0.121696
	C133	C	0.121988	0.492256	0.122126
	C134	C	0.122006	0.508015	0.877755
	C135	C	0.878415	0.491913	0.877511
	C136	C	0.120574	0.878275	0.508427
	C137	C	0.120770	0.122206	0.491995
	C138	C	0.878496	0.122108	0.508532
	C139	C	0.878403	0.878282	0.491040
	C140	C	0.508687	0.121044	0.879221
	C141	C	0.491348	0.121411	0.121474
	C142	C	0.508661	0.878560	0.121579
	C143	C	0.491058	0.878528	0.879065
	C144	C	0.380805	0.884482	0.676905
	C145	C	0.619694	0.113846	0.677499
	C146	C	0.618206	0.884999	0.324039
	C147	C	0.380144	0.114059	0.322959
	C148	C	0.676252	0.381682	0.884571
	C149	C	0.675479	0.617680	0.115444
	C150	C	0.325265	0.617557	0.884135
	C151	C	0.324354	0.381646	0.115271
	C152	C	0.884462	0.676617	0.380613
	C153	C	0.115527	0.676527	0.618686
	C154	C	0.884407	0.324306	0.618471
	C155	C	0.114986	0.324268	0.381043
	C156	C	0.884162	0.381825	0.675422
	C157	C	0.116026	0.618305	0.675548
	C158	C	0.884391	0.618902	0.323632
	C159	C	0.115525	0.382734	0.324725
	C160	C	0.381266	0.677087	0.884759
	C161	C	0.619304	0.676982	0.114797
	C162	C	0.619690	0.322728	0.885272
	C163	C	0.380832	0.323030	0.114846
	C164	C	0.675899	0.884975	0.381987
	C165	C	0.676887	0.114275	0.619312
	C166	C	0.323105	0.884556	0.618873
	C167	C	0.323180	0.114210	0.381482
	C168	C	0.881419	0.385559	0.176387
	C169	C	0.119734	0.614977	0.176823
	C170	C	0.118935	0.384735	0.823359
	C171	C	0.881173	0.614723	0.822647
	C172	C	0.175557	0.882293	0.384788
	C173	C	0.175067	0.118040	0.615439
	C174	C	0.824285	0.117690	0.384737
	C175	C	0.824414	0.882334	0.615143
	C176	C	0.384946	0.175917	0.881321
	C177	C	0.615208	0.176818	0.119555
	C178	C	0.384458	0.823735	0.118679
	C179	C	0.615733	0.824569	0.882104
	C180	C	0.384464	0.881183	0.175937
	C181	C	0.615437	0.118525	0.176244
	C182	C	0.384743	0.117774	0.824416
	C183	C	0.615335	0.881330	0.824353
	C184	C	0.880897	0.176736	0.385164
	C185	C	0.119205	0.177436	0.614982
	C186	C	0.119538	0.823535	0.385187
	C187	C	0.880375	0.823144	0.613969
	C188	C	0.176360	0.384774	0.881591
	C189	C	0.176640	0.615271	0.118275
	C190	C	0.824317	0.385232	0.117874
	C191	C	0.824373	0.615264	0.881382
	C192	C	0.400288	0.093397	0.600202
	C193	C	0.599465	0.905675	0.600187
	C194	C	0.599703	0.093939	0.400105
	C195	C	0.399304	0.905455	0.399748
	C196	C	0.599743	0.400237	0.094474
	C197	C	0.599694	0.601192	0.905295
	C198	C	0.401294	0.600118	0.094256
	C199	C	0.400887	0.399306	0.905441
	C200	C	0.094517	0.599840	0.401052
	C201	C	0.905136	0.599407	0.599427
	C202	C	0.095359	0.400272	0.600043
	C203	C	0.904641	0.400818	0.400720
	C204	C	0.900566	0.594508	0.099900
	C205	C	0.099637	0.406293	0.100393
	C206	C	0.100302	0.593934	0.899021
	C207	C	0.900420	0.406234	0.899294
	C208	C	0.098364	0.899764	0.594463
	C209	C	0.098526	0.100514	0.405819
	C210	C	0.900635	0.100658	0.594704
	C211	C	0.900674	0.900026	0.404979
	C212	C	0.594947	0.099014	0.901633
	C213	C	0.405143	0.099404	0.098942
	C214	C	0.595084	0.900153	0.099977
	C215	C	0.404549	0.899818	0.900652
	Zn216	Zn	0.499996	-0.000744	0.751205
	Zn217	Zn	0.499709	-0.000248	0.249542
	Zn218	Zn	0.750032	0.500462	-0.000554
	Zn219	Zn	0.250804	0.499797	0.000052
	Zn220	Zn	-0.000377	0.749629	0.499411
	Zn221	Zn	-0.000281	0.251047	0.500192
	Zn222	Zn	0.000063	0.499587	0.748950
	Zn223	Zn	0.000143	0.500664	0.250378
	Zn224	Zn	0.499988	0.750809	0.000145
	Zn225	Zn	0.500245	0.249542	0.000334
	Zn226	Zn	0.750398	-0.000319	0.499723
	Zn227	Zn	0.248990	-0.000224	0.500151
	N228	N	0.414342	0.962024	0.679065
	N229	N	0.586144	0.036458	0.679454
	N230	N	0.585280	0.962622	0.321752
	N231	N	0.413071	0.036424	0.320619
	N232	N	0.677438	0.415813	0.961902
	N233	N	0.677054	0.584483	0.037707
	N234	N	0.324002	0.583984	0.961730
	N235	N	0.322921	0.415148	0.037609
	N236	N	0.962491	0.678432	0.414078
	N237	N	0.037215	0.678560	0.585343
	N238	N	0.962612	0.322475	0.585433
	N239	N	0.036593	0.321882	0.413761
	N240	N	0.962389	0.414830	0.677436
	N241	N	0.038223	0.584403	0.676985
	N242	N	0.962429	0.585641	0.322258
	N243	N	0.037597	0.416448	0.323382
	N244	N	0.414207	0.679706	0.962898
	N245	N	0.586615	0.680032	0.036786
	N246	N	0.586504	0.320824	0.963238
	N247	N	0.413995	0.320921	0.037004
	N248	N	0.677866	0.962435	0.415241
	N249	N	0.678172	0.037166	0.585413
	N250	N	0.321533	0.961921	0.585396
	N251	N	0.321682	0.037069	0.415311
	N252	N	0.914584	0.463296	0.178621
	N253	N	0.086530	0.537423	0.179221
	N254	N	0.085621	0.462168	0.821097
	N255	N	0.913906	0.537150	0.820217
	N256	N	0.176405	0.915778	0.462425
	N257	N	0.175899	0.084110	0.538066
	N258	N	0.822717	0.084469	0.462421
	N259	N	0.823006	0.915793	0.537656
	N260	N	0.462960	0.177888	0.914769
	N261	N	0.537072	0.178781	0.086285
	N262	N	0.462634	0.822056	0.085444
	N263	N	0.537465	0.822477	0.915263
	N264	N	0.462543	0.914562	0.177843
	N265	N	0.537567	0.084655	0.177542
	N266	N	0.462738	0.084217	0.823039
	N267	N	0.537110	0.914065	0.822389
	N268	N	0.913676	0.179572	0.463160
	N269	N	0.086298	0.180125	0.536966
	N270	N	0.086201	0.820822	0.462893
	N271	N	0.913236	0.820591	0.535984
	N272	N	0.178425	0.462233	0.914707
	N273	N	0.178242	0.537856	0.084960
	N274	N	0.822489	0.462738	0.084749
	N275	N	0.822575	0.537932	0.914909
