data_Molecule from HDF5

_cell_length_a		16.127136
_cell_length_b		16.324590
_cell_length_c		16.211855
_cell_angle_alpha	89.963861
_cell_angle_beta	90.224037
_cell_angle_gamma	89.865514
_symmetry_space_group_name_H-M	'P 1'
_symmetry_Int_Tables_number		1

loop_
	_symmetry_equiv_pos_as_xyz
	x,y,z

loop_
	_atom_site_label
	_atom_site_type_symbol
	_atom_site_fract_x
	_atom_site_fract_y
	_atom_site_fract_z
	H0	H	0.392769	0.835367	0.713148
	H1	H	0.589233	0.162400	0.713676
	H2	H	0.590881	0.835448	0.283408
	H3	H	0.390677	0.161977	0.283177
	H4	H	0.702445	0.403850	0.833678
	H5	H	0.704207	0.594931	0.164132
	H6	H	0.275206	0.597456	0.835413
	H7	H	0.281707	0.402405	0.164297
	H8	H	0.826197	0.713593	0.399716
	H9	H	0.156599	0.713868	0.599372
	H10	H	0.826698	0.285026	0.599533
	H11	H	0.155751	0.284805	0.401492
	H12	H	0.825157	0.402994	0.711139
	H13	H	0.156518	0.597374	0.714703
	H14	H	0.826632	0.596230	0.286315
	H15	H	0.156895	0.400276	0.288261
	H16	H	0.389348	0.713517	0.834062
	H17	H	0.591778	0.714181	0.162897
	H18	H	0.592166	0.284402	0.834997
	H19	H	0.391862	0.283094	0.161730
	H20	H	0.704218	0.834633	0.402596
	H21	H	0.704325	0.162861	0.597316
	H22	H	0.278882	0.834379	0.594360
	H23	H	0.276667	0.162590	0.400958
	H24	H	0.893909	0.335135	0.214356
	H25	H	0.091228	0.661713	0.215805
	H26	H	0.090182	0.335740	0.785568
	H27	H	0.890083	0.661761	0.783506
	H28	H	0.202009	0.903244	0.333542
	H29	H	0.203547	0.095288	0.664508
	H30	H	0.776091	0.096694	0.334443
	H31	H	0.781307	0.903987	0.664415
	H32	H	0.327258	0.215169	0.896677
	H33	H	0.656455	0.211468	0.097129
	H34	H	0.326100	0.784379	0.097893
	H35	H	0.655035	0.784218	0.899516
	H36	H	0.325089	0.901751	0.210583
	H37	H	0.655778	0.096119	0.212386
	H38	H	0.326677	0.097670	0.784424
	H39	H	0.656870	0.901169	0.787387
	H40	H	0.889082	0.216418	0.335293
	H41	H	0.090361	0.213491	0.663893
	H42	H	0.090493	0.784520	0.335215
	H43	H	0.891227	0.784805	0.662966
	H44	H	0.205348	0.335094	0.902979
	H45	H	0.205574	0.662960	0.099119
	H46	H	0.778352	0.335021	0.096770
	H47	H	0.776624	0.662596	0.900650
	H48	H	0.401888	0.113293	0.591684
	H49	H	0.585874	0.882920	0.590742
	H50	H	0.585968	0.115848	0.404576
	H51	H	0.397180	0.880554	0.399086
	H52	H	0.591209	0.405048	0.118519
	H53	H	0.584507	0.589951	0.882743
	H54	H	0.391938	0.588095	0.117435
	H55	H	0.396259	0.412524	0.882139
	H56	H	0.113628	0.599128	0.404066
	H57	H	0.869356	0.596917	0.598664
	H58	H	0.105310	0.414739	0.588588
	H59	H	0.874982	0.413974	0.406314
	H60	H	0.111663	0.406193	0.601634
	H61	H	0.874606	0.597740	0.584022
	H62	H	0.108572	0.594047	0.415247
	H63	H	0.871105	0.403977	0.401947
	H64	H	0.407362	0.588897	0.112210
	H65	H	0.579159	0.594633	0.881778
	H66	H	0.581591	0.409087	0.114073
	H67	H	0.405347	0.404937	0.882491
	H68	H	0.579615	0.115009	0.403545
	H69	H	0.586917	0.880614	0.595020
	H70	H	0.394571	0.115152	0.588402
	H71	H	0.402097	0.884680	0.405874
	H72	H	0.899736	0.612141	0.084568
	H73	H	0.077732	0.386089	0.090070
	H74	H	0.083347	0.615083	0.905957
	H75	H	0.909045	0.385671	0.907697
	H76	H	0.079176	0.907600	0.614768
	H77	H	0.080544	0.099412	0.380290
	H78	H	0.899171	0.098305	0.617461
	H79	H	0.906244	0.904809	0.383588
	H80	H	0.606407	0.090198	0.916577
	H81	H	0.373418	0.084284	0.095579
	H82	H	0.607388	0.910539	0.094402
	H83	H	0.372288	0.906897	0.902506
	H84	H	0.610778	0.900461	0.092938
	H85	H	0.368714	0.102222	0.093716
	H86	H	0.610032	0.084984	0.897813
	H87	H	0.371735	0.903905	0.905183
	H88	H	0.894095	0.093197	0.617667
	H89	H	0.088755	0.093521	0.380653
	H90	H	0.084983	0.899740	0.618486
	H91	H	0.893938	0.898879	0.378293
	H92	H	0.080734	0.614501	0.907829
	H93	H	0.094758	0.381430	0.091080
	H94	H	0.888185	0.618633	0.095284
	H95	H	0.889171	0.382344	0.914264
	H96	H	0.396386	0.116750	0.596638
	H97	H	0.582554	0.883108	0.594224
	H98	H	0.581631	0.113404	0.409469
	H99	H	0.393297	0.881873	0.407683
	H100	H	0.581310	0.398150	0.117179
	H101	H	0.586485	0.596210	0.880026
	H102	H	0.400490	0.601976	0.118560
	H103	H	0.394895	0.402017	0.878569
	H104	H	0.108579	0.587243	0.404590
	H105	H	0.876985	0.584533	0.592156
	H106	H	0.109051	0.398427	0.586599
	H107	H	0.874082	0.405533	0.412897
	H108	H	0.904695	0.614915	0.100951
	H109	H	0.085027	0.379977	0.103687
	H110	H	0.083672	0.615023	0.909757
	H111	H	0.894167	0.377821	0.893776
	H112	H	0.089088	0.908957	0.617300
	H113	H	0.079717	0.089046	0.383790
	H114	H	0.900529	0.091595	0.614990
	H115	H	0.894632	0.913304	0.381913
	H116	H	0.613689	0.103104	0.903920
	H117	H	0.375989	0.092463	0.079184
	H118	H	0.606651	0.906630	0.084882
	H119	H	0.373088	0.907111	0.906302
	C120	C	0.369145	0.007078	0.620910
	C121	C	0.613340	0.990621	0.621650
	C122	C	0.611855	0.006841	0.377368
	C123	C	0.368313	0.990325	0.376164
	C124	C	0.613332	0.376783	0.007593
	C125	C	0.612360	0.621073	0.990435
	C126	C	0.369625	0.621201	0.007597
	C127	C	0.371022	0.377949	0.990060
	C128	C	0.000685	0.621156	0.378764
	C129	C	0.982895	0.621212	0.621280
	C130	C	-0.000439	0.378401	0.620580
	C131	C	0.982546	0.378614	0.379189
	C132	C	0.869947	0.507046	0.121641
	C133	C	0.114381	0.490485	0.123038
	C134	C	0.112087	0.507237	0.879057
	C135	C	0.868849	0.490019	0.876956
	C136	C	0.112630	0.877598	0.507790
	C137	C	0.111945	0.121311	0.490774
	C138	C	0.868894	0.122302	0.507906
	C139	C	0.870064	0.877872	0.490118
	C140	C	0.500776	0.121042	0.876826
	C141	C	0.481990	0.120853	0.119235
	C142	C	0.499274	0.877574	0.119498
	C143	C	0.481891	0.877689	0.876951
	C144	C	0.372331	0.884135	0.675154
	C145	C	0.610067	0.113673	0.676122
	C146	C	0.610566	0.884183	0.321916
	C147	C	0.370502	0.113353	0.321368
	C148	C	0.666444	0.381608	0.883263
	C149	C	0.666918	0.616664	0.114754
	C150	C	0.313103	0.618394	0.884108
	C151	C	0.317834	0.381366	0.114521
	C152	C	0.875612	0.675426	0.380133
	C153	C	0.107120	0.675904	0.619471
	C154	C	0.875558	0.323248	0.619029
	C155	C	0.106660	0.322818	0.381314
	C156	C	0.874899	0.381892	0.674642
	C157	C	0.107154	0.618166	0.676964
	C158	C	0.875900	0.617389	0.323633
	C159	C	0.107383	0.380360	0.325254
	C160	C	0.369943	0.676059	0.883805
	C161	C	0.611107	0.676002	0.114031
	C162	C	0.611326	0.322495	0.883853
	C163	C	0.372590	0.321973	0.113109
	C164	C	0.666958	0.883688	0.381124
	C165	C	0.667251	0.113749	0.618181
	C166	C	0.315687	0.883510	0.616214
	C167	C	0.313672	0.113529	0.379644
	C168	C	0.873097	0.383946	0.176416
	C169	C	0.111237	0.613433	0.177676
	C170	C	0.110665	0.384409	0.823117
	C171	C	0.870605	0.613209	0.822104
	C172	C	0.166023	0.881441	0.383187
	C173	C	0.166605	0.116713	0.615015
	C174	C	0.813533	0.118565	0.383658
	C175	C	0.816811	0.881994	0.614740
	C176	C	0.376248	0.176507	0.877634
	C177	C	0.606808	0.174535	0.117537
	C178	C	0.375137	0.822878	0.117484
	C179	C	0.606129	0.822341	0.879625
	C180	C	0.374676	0.881047	0.173647
	C181	C	0.606577	0.117042	0.174648
	C182	C	0.375950	0.118089	0.821823
	C183	C	0.607090	0.880542	0.823783
	C184	C	0.869978	0.177482	0.384146
	C185	C	0.110106	0.175517	0.614774
	C186	C	0.110580	0.822380	0.384100
	C187	C	0.871613	0.822720	0.614038
	C188	C	0.167716	0.384005	0.881679
	C189	C	0.168559	0.613755	0.119870
	C190	C	0.815675	0.383775	0.118084
	C191	C	0.814054	0.613534	0.880175
	C192	C	0.390994	0.093076	0.598755
	C193	C	0.591514	0.904416	0.599976
	C194	C	0.589156	0.092700	0.399331
	C195	C	0.390798	0.904440	0.397782
	C196	C	0.591470	0.398007	0.094218
	C197	C	0.589932	0.599893	0.903908
	C198	C	0.393239	0.599396	0.093730
	C199	C	0.392530	0.399981	0.903358
	C200	C	0.087576	0.599728	0.401342
	C201	C	0.896062	0.599452	0.598447
	C202	C	0.086348	0.400131	0.598630
	C203	C	0.895862	0.401053	0.400648
	C204	C	0.891278	0.592917	0.100088
	C205	C	0.092432	0.404636	0.101238
	C206	C	0.089352	0.592697	0.901372
	C207	C	0.890888	0.404078	0.898865
	C208	C	0.090824	0.899102	0.594267
	C209	C	0.089447	0.100287	0.404013
	C210	C	0.891309	0.100650	0.594284
	C211	C	0.891694	0.899357	0.403745
	C212	C	0.587487	0.099292	0.899492
	C213	C	0.395194	0.099402	0.096384
	C214	C	0.585903	0.899250	0.097319
	C215	C	0.394853	0.899517	0.898452
	Zn216	Zn	0.491509	-0.001083	0.749871
	Zn217	Zn	0.490512	-0.000904	0.247234
	Zn218	Zn	0.740796	0.498687	-0.001093
	Zn219	Zn	0.242314	0.499174	0.000111
	Zn220	Zn	-0.008910	0.749530	0.499198
	Zn221	Zn	-0.009336	0.250748	0.499416
	Zn222	Zn	-0.009352	0.498917	0.749126
	Zn223	Zn	-0.007765	0.498758	0.251546
	Zn224	Zn	0.490710	0.749588	-0.001680
	Zn225	Zn	0.491623	0.249256	-0.002019
	Zn226	Zn	0.741660	-0.001145	0.499015
	Zn227	Zn	0.240220	-0.001387	0.498857
	N228	N	0.404693	0.962111	0.678170
	N229	N	0.577216	0.035987	0.678321
	N230	N	0.576924	0.961726	0.319606
	N231	N	0.403883	0.035782	0.319139
	N232	N	0.667848	0.414618	0.961383
	N233	N	0.667908	0.583263	0.036906
	N234	N	0.312394	0.585439	0.962169
	N235	N	0.316759	0.415797	0.036912
	N236	N	0.954079	0.677792	0.413529
	N237	N	0.028848	0.677962	0.585667
	N238	N	0.954060	0.321032	0.586181
	N239	N	0.028191	0.321729	0.414215
	N240	N	0.953063	0.415438	0.675661
	N241	N	0.028896	0.584782	0.677988
	N242	N	0.954529	0.584379	0.322533
	N243	N	0.029238	0.414547	0.323799
	N244	N	0.404295	0.678058	0.961755
	N245	N	0.578154	0.678905	0.035695
	N246	N	0.578988	0.319513	0.962219
	N247	N	0.404892	0.319955	0.034709
	N248	N	0.667918	0.961117	0.414769
	N249	N	0.669391	0.036083	0.585064
	N250	N	0.313821	0.961046	0.583124
	N251	N	0.312085	0.035962	0.413074
	N252	N	0.906070	0.461664	0.178880
	N253	N	0.078352	0.535756	0.179985
	N254	N	0.076657	0.461897	0.821417
	N255	N	0.903708	0.535596	0.819852
	N256	N	0.167465	0.914914	0.461042
	N257	N	0.168063	0.083689	0.536824
	N258	N	0.812646	0.084880	0.461503
	N259	N	0.815529	0.915553	0.536858
	N260	N	0.454887	0.178693	0.911060
	N261	N	0.528295	0.177233	0.083885
	N262	N	0.453482	0.820674	0.084544
	N263	N	0.527523	0.820421	0.911913
	N264	N	0.453006	0.914347	0.175145
	N265	N	0.528127	0.084205	0.175630
	N266	N	0.454224	0.084499	0.821134
	N267	N	0.528760	0.914493	0.822204
	N268	N	0.903075	0.180340	0.462386
	N269	N	0.076956	0.178343	0.536584
	N270	N	0.078078	0.819925	0.462500
	N271	N	0.903938	0.819934	0.535661
	N272	N	0.168730	0.461208	0.915692
	N273	N	0.170644	0.536265	0.086588
	N274	N	0.813450	0.461343	0.084696
	N275	N	0.812922	0.536018	0.913945
	O276	O	0.549991	0.492082	0.446799
	H277	H	0.548293	0.492304	0.435704
	H278	H	0.544553	0.485916	0.440184
	O279	O	0.492487	0.484667	0.523571
	H280	H	0.493514	0.482991	0.527288
	H281	H	0.498651	0.485316	0.529730
	O282	O	0.497179	0.490641	0.444746
	H283	H	0.491190	0.496913	0.437356
	H284	H	0.492420	0.492597	0.445510
	O285	O	-0.022443	0.940603	1.015841
	H286	H	-0.023146	0.944896	1.010355
	H287	H	-0.022822	0.932042	1.005467
	O288	O	0.455208	0.484491	0.524605
	H289	H	0.457595	0.478215	0.532784
	H290	H	0.459932	0.483943	0.517645
	O291	O	0.032724	-0.101444	0.984292
	H292	H	0.030937	-0.097184	0.984949
	H293	H	0.030946	-0.105028	0.984027
	O294	O	0.989916	1.007883	1.036547
	H295	H	0.992580	1.014796	1.053698
	H296	H	0.981521	1.006392	1.042892
	O297	O	0.476001	0.511162	0.490463
	H298	H	0.493797	0.515407	0.487534
	H299	H	0.477703	0.504006	0.491135
	O300	O	0.443976	0.494280	0.491041
	H301	H	0.435556	0.486270	0.496451
	H302	H	0.440278	0.490123	0.487975
	O303	O	0.499908	0.466005	0.469440
	H304	H	0.508580	0.466786	0.470084
	H305	H	0.490921	0.471661	0.471401
	O306	O	1.516369	0.479279	0.488710
	H307	H	1.514070	0.473136	0.495502
	H308	H	1.513571	0.474739	0.479633
	O309	O	0.535535	0.416635	0.481338
	H310	H	0.540398	0.418089	0.477041
	H311	H	0.532192	0.409257	0.472303
	O312	O	0.475015	0.563676	0.491507
	H313	H	0.475313	0.559817	0.491489
	H314	H	0.476410	0.556894	0.485505
	O315	O	0.965436	-0.086372	0.949140
	H316	H	0.965822	-0.091434	0.942098
	H317	H	0.975452	-0.084610	0.941469
	O318	O	0.047775	-0.038209	-0.034975
	H319	H	0.058527	-0.037070	-0.046492
	H320	H	0.065648	-0.032044	-0.030578
	O321	O	0.521438	0.506796	0.468168
	H322	H	0.528291	0.504928	0.462243
	H323	H	0.523761	0.504414	0.471051
	O324	O	1.018580	-0.052607	0.059057
	H325	H	1.011534	-0.055399	0.055447
	H326	H	1.012514	-0.063632	0.064904
	O327	O	0.936017	0.943020	0.038932
	H328	H	0.934475	0.939506	0.036099
	H329	H	0.923622	0.947582	0.034917
	O330	O	0.495395	0.449957	0.467329
	H331	H	0.489991	0.458420	0.472378
	H332	H	0.492388	0.461456	0.473380
	O333	O	0.480608	0.539999	0.544821
	H334	H	0.477345	0.552537	0.555015
	H335	H	0.491183	0.540762	0.529850
