data_Molecule from HDF5

_cell_length_a		16.291458
_cell_length_b		16.248028
_cell_length_c		16.285331
_cell_angle_alpha	90.385921
_cell_angle_beta	90.552853
_cell_angle_gamma	90.148744
_symmetry_space_group_name_H-M	'P 1'
_symmetry_Int_Tables_number		1

loop_
	_symmetry_equiv_pos_as_xyz
	x,y,z

loop_
	_atom_site_label
	_atom_site_type_symbol
	_atom_site_fract_x
	_atom_site_fract_y
	_atom_site_fract_z
	H0	H	0.406871	0.840820	0.704801
	H1	H	0.616658	0.163016	0.710283
	H2	H	0.610354	0.839037	0.269547
	H3	H	0.405956	0.163444	0.270204
	H4	H	0.727333	0.396686	0.826615
	H5	H	0.731783	0.605789	0.149729
	H6	H	0.290622	0.604178	0.827999
	H7	H	0.293062	0.397848	0.148325
	H8	H	0.847884	0.718429	0.382666
	H9	H	0.172604	0.721562	0.590534
	H10	H	0.847810	0.285621	0.583541
	H11	H	0.171573	0.283227	0.382236
	H12	H	0.849143	0.397526	0.703230
	H13	H	0.170904	0.608768	0.709918
	H14	H	0.848749	0.602727	0.266623
	H15	H	0.173341	0.399467	0.269700
	H16	H	0.406195	0.718173	0.827124
	H17	H	0.615833	0.721175	0.150113
	H18	H	0.613379	0.280265	0.828324
	H19	H	0.409021	0.285272	0.149966
	H20	H	0.727491	0.840022	0.383733
	H21	H	0.731186	0.163122	0.593717
	H22	H	0.291716	0.840795	0.589403
	H23	H	0.291675	0.163120	0.383487
	H24	H	0.912642	0.338545	0.198501
	H25	H	0.115243	0.663694	0.206023
	H26	H	0.112815	0.340439	0.767952
	H27	H	0.908947	0.664463	0.770791
	H28	H	0.225282	0.899838	0.323617
	H29	H	0.229358	0.105172	0.648480
	H30	H	0.788099	0.104314	0.326441
	H31	H	0.795036	0.900523	0.649260
	H32	H	0.348338	0.217934	0.886949
	H33	H	0.672066	0.220527	0.094228
	H34	H	0.348073	0.784465	0.086677
	H35	H	0.671657	0.782753	0.886703
	H36	H	0.346855	0.901036	0.201143
	H37	H	0.671361	0.104961	0.210049
	H38	H	0.348747	0.104853	0.769642
	H39	H	0.671566	0.898056	0.770072
	H40	H	0.907225	0.216007	0.322255
	H41	H	0.113710	0.222183	0.647302
	H42	H	0.109670	0.784113	0.323626
	H43	H	0.909822	0.785718	0.648687
	H44	H	0.227102	0.339906	0.884829
	H45	H	0.229729	0.664110	0.090535
	H46	H	0.794565	0.340386	0.088223
	H47	H	0.790814	0.662824	0.883407
	H48	H	0.421165	0.115877	0.571970
	H49	H	0.597134	0.888243	0.576929
	H50	H	0.601248	0.118386	0.394832
	H51	H	0.422008	0.888032	0.399230
	H52	H	0.596125	0.409881	0.102514
	H53	H	0.597953	0.586689	0.876218
	H54	H	0.423658	0.595342	0.104837
	H55	H	0.421050	0.406250	0.871440
	H56	H	0.124265	0.592762	0.401748
	H57	H	0.897431	0.590159	0.575328
	H58	H	0.124201	0.417392	0.577658
	H59	H	0.894565	0.409925	0.389682
	H60	H	0.126681	0.411119	0.580956
	H61	H	0.894855	0.593216	0.578804
	H62	H	0.125442	0.588794	0.393857
	H63	H	0.894041	0.408520	0.391550
	H64	H	0.418915	0.593808	0.105150
	H65	H	0.597112	0.595653	0.872677
	H66	H	0.608706	0.406850	0.106963
	H67	H	0.415643	0.411016	0.871886
	H68	H	0.594910	0.115667	0.399956
	H69	H	0.604212	0.886325	0.575528
	H70	H	0.416290	0.120208	0.580629
	H71	H	0.410626	0.883111	0.396170
	H72	H	0.922327	0.619468	0.081593
	H73	H	0.097135	0.388742	0.077060
	H74	H	0.106656	0.620544	0.896358
	H75	H	0.912763	0.383365	0.892187
	H76	H	0.100389	0.912165	0.601499
	H77	H	0.104348	0.090391	0.369805
	H78	H	0.924953	0.106161	0.604677
	H79	H	0.920445	0.918564	0.374542
	H80	H	0.626346	0.089080	0.894471
	H81	H	0.395267	0.091514	0.078230
	H82	H	0.625842	0.902834	0.069194
	H83	H	0.396836	0.910157	0.900710
	H84	H	0.621203	0.926490	0.078950
	H85	H	0.393357	0.093912	0.082015
	H86	H	0.627423	0.096673	0.902119
	H87	H	0.394495	0.914519	0.892290
	H88	H	0.910506	0.087532	0.602911
	H89	H	0.097430	0.090176	0.371962
	H90	H	0.103926	0.910896	0.603012
	H91	H	0.922691	0.903955	0.370552
	H92	H	0.095062	0.616240	0.894953
	H93	H	0.108109	0.385827	0.072393
	H94	H	0.925780	0.616311	0.074165
	H95	H	0.925141	0.385988	0.889782
	H96	H	0.426393	0.117213	0.582092
	H97	H	0.601771	0.885307	0.582151
	H98	H	0.603077	0.116618	0.403396
	H99	H	0.419245	0.883999	0.387806
	H100	H	0.606284	0.419763	0.102391
	H101	H	0.605807	0.591084	0.871454
	H102	H	0.422547	0.590133	0.102869
	H103	H	0.422628	0.412362	0.874156
	H104	H	0.127196	0.597618	0.395205
	H105	H	0.895355	0.594515	0.573971
	H106	H	0.125409	0.410947	0.573312
	H107	H	0.894994	0.410439	0.391583
	H108	H	0.917415	0.618814	0.074954
	H109	H	0.105122	0.381632	0.084085
	H110	H	0.100912	0.615299	0.905709
	H111	H	0.920244	0.387692	0.901355
	H112	H	0.103841	0.914900	0.600952
	H113	H	0.101308	0.096609	0.369330
	H114	H	0.933079	0.086506	0.595002
	H115	H	0.909505	0.910921	0.368007
	H116	H	0.622758	0.087233	0.905249
	H117	H	0.393934	0.096062	0.077099
	H118	H	0.630911	0.908204	0.094016
	H119	H	0.392957	0.906233	0.893106
	C120	C	0.389969	0.010950	0.608243
	C121	C	0.632853	0.993235	0.610494
	C122	C	0.629951	0.009828	0.367499
	C123	C	0.387116	0.992322	0.364682
	C124	C	0.633328	0.379740	-0.002638
	C125	C	0.632758	0.623210	0.979882
	C126	C	0.389901	0.622515	-0.002738
	C127	C	0.389956	0.380163	0.979541
	C128	C	0.018756	0.623024	0.365022
	C129	C	1.002194	0.624696	0.608826
	C130	C	0.018563	0.381800	0.606472
	C131	C	1.001783	0.379844	0.362287
	C132	C	0.891798	0.510682	0.106557
	C133	C	0.134184	0.492704	0.109282
	C134	C	0.131623	0.510582	0.866926
	C135	C	0.888437	0.492919	0.864701
	C136	C	0.131903	0.881025	0.494622
	C137	C	0.132665	0.124345	0.477115
	C138	C	0.889715	0.123446	0.494498
	C139	C	0.888621	0.880854	0.478270
	C140	C	0.518687	0.122244	0.868502
	C141	C	0.501170	0.124385	0.111545
	C142	C	0.518727	0.881292	0.109304
	C143	C	0.501635	0.879476	0.865539
	C144	C	0.388165	0.889302	0.665956
	C145	C	0.635072	0.114656	0.670482
	C146	C	0.629538	0.887753	0.308607
	C147	C	0.387012	0.114856	0.308310
	C148	C	0.689350	0.377916	0.875388
	C149	C	0.692665	0.624992	0.101130
	C150	C	0.330302	0.622899	0.876020
	C151	C	0.332003	0.379592	0.100447
	C152	C	0.896620	0.680035	0.363625
	C153	C	0.123827	0.683053	0.610170
	C154	C	0.896616	0.323877	0.604377
	C155	C	0.123581	0.322104	0.363280
	C156	C	0.897413	0.379923	0.663823
	C157	C	0.122867	0.626775	0.669515
	C158	C	0.897204	0.622562	0.305531
	C159	C	0.124188	0.380127	0.307072
	C160	C	0.387967	0.679525	0.875519
	C161	C	0.634775	0.682361	0.101386
	C162	C	0.632584	0.319722	0.876319
	C163	C	0.390180	0.323657	0.101414
	C164	C	0.687753	0.888054	0.365858
	C165	C	0.691905	0.114698	0.612457
	C166	C	0.330683	0.889347	0.608471
	C167	C	0.330109	0.114677	0.364705
	C168	C	0.892834	0.387702	0.161402
	C169	C	0.134441	0.614868	0.167525
	C170	C	0.131715	0.388921	0.807584
	C171	C	0.888783	0.615380	0.808446
	C172	C	0.187190	0.880697	0.372342
	C173	C	0.190379	0.124464	0.599522
	C174	C	0.828535	0.123398	0.373948
	C175	C	0.832828	0.880970	0.600653
	C176	C	0.396998	0.179563	0.867734
	C177	C	0.623184	0.182068	0.113053
	C178	C	0.396675	0.823260	0.107218
	C179	C	0.623164	0.821570	0.866707
	C180	C	0.395861	0.881531	0.163809
	C181	C	0.623005	0.124289	0.170605
	C182	C	0.397248	0.122861	0.809396
	C183	C	0.623151	0.878920	0.808530
	C184	C	0.888158	0.178875	0.371735
	C185	C	0.132877	0.182772	0.599045
	C186	C	0.129920	0.822882	0.372477
	C187	C	0.890179	0.824073	0.600297
	C188	C	0.188975	0.388527	0.865545
	C189	C	0.191488	0.615207	0.109929
	C190	C	0.834216	0.388468	0.106286
	C191	C	0.830181	0.614569	0.864641
	C192	C	0.414319	0.095585	0.584966
	C193	C	0.608195	0.908819	0.585474
	C194	C	0.606606	0.094831	0.392240
	C195	C	0.410584	0.907353	0.387504
	C196	C	0.610479	0.404839	0.082032
	C197	C	0.607547	0.598369	0.895407
	C198	C	0.414625	0.599733	0.082153
	C199	C	0.413260	0.403190	0.894638
	C200	C	0.103499	0.599845	0.389805
	C201	C	0.917646	0.599959	0.583344
	C202	C	0.103419	0.406190	0.583960
	C203	C	0.916690	0.403001	0.384405
	C204	C	0.915164	0.595929	0.083635
	C205	C	0.110607	0.407562	0.084759
	C206	C	0.108102	0.595337	0.891907
	C207	C	0.912420	0.407941	0.887755
	C208	C	0.109456	0.905462	0.579739
	C209	C	0.108242	0.099741	0.392392
	C210	C	0.915562	0.100168	0.578782
	C211	C	0.911036	0.904219	0.393207
	C212	C	0.603484	0.098101	0.893311
	C213	C	0.416171	0.100926	0.086422
	C214	C	0.603786	0.905412	0.087104
	C215	C	0.416723	0.903289	0.888576
	Zn216	Zn	0.510307	0.002561	0.737775
	Zn217	Zn	0.508490	0.001704	0.238560
	Zn218	Zn	0.761795	0.501580	-0.012382
	Zn219	Zn	0.261858	0.501426	-0.012133
	Zn220	Zn	0.009918	0.752567	0.486731
	Zn221	Zn	0.010248	0.252981	0.484289
	Zn222	Zn	0.010278	0.502188	0.737072
	Zn223	Zn	0.011233	0.501454	0.235629
	Zn224	Zn	0.510356	0.751673	-0.011450
	Zn225	Zn	0.510605	0.251982	-0.010960
	Zn226	Zn	0.760164	0.001431	0.488062
	Zn227	Zn	0.261286	0.001870	0.485996
	N228	N	0.424504	0.965726	0.665792
	N229	N	0.599061	0.038144	0.669499
	N230	N	0.594287	0.964484	0.309762
	N231	N	0.421944	0.037876	0.307991
	N232	N	0.690057	0.414447	0.951643
	N233	N	0.691479	0.588674	0.024668
	N234	N	0.331453	0.588106	0.952684
	N235	N	0.331882	0.414236	0.023669
	N236	N	0.973113	0.680491	0.400016
	N237	N	0.047589	0.681822	0.573201
	N238	N	0.973200	0.324797	0.569521
	N239	N	0.046485	0.321608	0.396869
	N240	N	0.974354	0.415189	0.665331
	N241	N	0.046173	0.591056	0.668637
	N242	N	0.974263	0.587919	0.306171
	N243	N	0.047493	0.415199	0.306286
	N244	N	0.424627	0.679349	0.951823
	N245	N	0.598261	0.681685	0.024908
	N246	N	0.598505	0.320658	0.953226
	N247	N	0.425521	0.323825	0.025091
	N248	N	0.688063	0.964903	0.401920
	N249	N	0.690798	0.038205	0.575857
	N250	N	0.331624	0.965953	0.573197
	N251	N	0.329954	0.037613	0.398983
	N252	N	0.927987	0.464635	0.161598
	N253	N	0.099849	0.537562	0.167552
	N254	N	0.097113	0.465861	0.808039
	N255	N	0.924111	0.538620	0.808220
	N256	N	0.188614	0.916158	0.449430
	N257	N	0.190431	0.088877	0.522644
	N258	N	0.829428	0.089503	0.451069
	N259	N	0.831566	0.915535	0.523777
	N260	N	0.473743	0.179573	0.903768
	N261	N	0.546553	0.182036	0.076866
	N262	N	0.474080	0.822968	0.073961
	N263	N	0.546596	0.821614	0.901253
	N264	N	0.472718	0.916881	0.165322
	N265	N	0.546032	0.089369	0.169910
	N266	N	0.474200	0.088194	0.809666
	N267	N	0.546428	0.914006	0.807425
	N268	N	0.925598	0.179053	0.447854
	N269	N	0.097936	0.182881	0.521900
	N270	N	0.096258	0.823076	0.449525
	N271	N	0.923875	0.823720	0.523167
	N272	N	0.189028	0.465267	0.901769
	N273	N	0.191532	0.538287	0.074346
	N274	N	0.833383	0.466053	0.072733
	N275	N	0.829362	0.537222	0.898393
	O276	O	0.072578	-0.048473	-0.093509
	H277	H	0.069260	-0.044786	-0.090346
	H278	H	0.082582	-0.036165	-0.099415
	O279	O	0.971997	-0.002510	1.077216
	H280	H	0.976586	0.002354	1.093528
	H281	H	0.975503	-0.002337	1.074248
	O282	O	1.110284	-0.034562	0.007583
	H283	H	1.120563	-0.035319	0.003948
	H284	H	1.116450	-0.041031	0.014436
	O285	O	-0.075337	1.012310	-0.055987
	H286	H	-0.078856	1.013084	-0.051530
	H287	H	-0.074981	1.017804	-0.065083
	O288	O	0.631874	0.532686	0.509532
	H289	H	0.631557	0.526574	0.519468
	H290	H	0.627880	0.530575	0.511252
	O291	O	0.709702	0.566572	0.695799
	H292	H	0.715172	0.573183	0.697657
	H293	H	0.712755	0.557537	0.710823
	O294	O	0.921014	0.945247	0.971983
	H295	H	0.918957	0.953079	0.976788
	H296	H	0.931489	0.952113	0.979948
	O297	O	-0.030067	0.022291	-0.159229
	H298	H	-0.036173	0.016525	-0.148288
	H299	H	-0.034784	0.018554	-0.154365
	O300	O	0.700406	0.686516	0.610107
	H301	H	0.698186	0.677327	0.625375
	H302	H	0.689766	0.688838	0.610502
	O303	O	-0.079626	1.052551	0.952347
	H304	H	-0.071852	1.048415	0.959117
	H305	H	-0.092218	1.035709	0.954667
	O306	O	0.552762	0.537580	0.403014
	H307	H	0.560514	0.529433	0.406176
	H308	H	0.559711	0.544686	0.422864
	O309	O	1.043958	0.053630	-0.090270
	H310	H	1.042069	0.043577	-0.085999
	H311	H	1.042275	0.058203	-0.092753
	O312	O	0.044649	-0.025661	1.022342
	H313	H	0.044790	-0.016543	1.016857
	H314	H	0.045605	-0.027056	1.027435
	O315	O	0.466624	0.386444	0.341566
	H316	H	0.468061	0.395890	0.330536
	H317	H	0.461600	0.388206	0.331582
	O318	O	0.394745	0.373346	0.474154
	H319	H	0.386045	0.383245	0.477301
	H320	H	0.390049	0.364549	0.473852
	O321	O	0.534719	0.410783	0.657308
	H322	H	0.538328	0.410241	0.653293
	H323	H	0.533435	0.404263	0.642392
	O324	O	0.473319	0.390851	0.632057
	H325	H	0.475708	0.391521	0.628879
	H326	H	0.467086	0.402705	0.634791
	O327	O	0.045719	0.974760	1.060674
	H328	H	0.050420	0.973625	1.061508
	H329	H	0.044683	0.978537	1.066657
	O330	O	0.585038	0.342605	0.325559
	H331	H	0.592837	0.351168	0.310575
	H332	H	0.607589	0.342296	0.338733
	O333	O	-0.514315	0.698311	1.471489
	H334	H	-0.510647	0.698878	1.457687
	H335	H	-0.511890	0.704419	1.476913
	O336	O	0.946134	1.112675	0.978467
	H337	H	0.954944	1.121015	0.983796
	H338	H	0.943797	1.115873	0.971414
	O339	O	0.476642	0.612152	0.666545
	H340	H	0.486074	0.630128	0.676327
	H341	H	0.473500	0.597655	0.661502
	O342	O	1.004935	0.023528	-0.020033
	H343	H	1.002696	0.020127	-0.035484
	H344	H	1.011696	0.024050	-0.016775
	O345	O	0.501202	0.381843	0.571023
	H346	H	0.503197	0.372819	0.565883
	H347	H	0.484475	0.377363	0.562024
	O348	O	1.000408	1.029815	1.007229
	H349	H	0.998401	1.018869	1.010229
	H350	H	0.989722	1.029501	0.999516
	O351	O	0.966081	1.091265	-0.020642
	H352	H	0.953106	1.100525	-0.021242
	H353	H	0.969293	1.085154	-0.022862
	O354	O	0.479060	0.600462	0.381668
	H355	H	0.474385	0.611565	0.379275
	H356	H	0.475113	0.611583	0.410447
	O357	O	0.625944	0.415856	0.509141
	H358	H	0.627597	0.410353	0.505440
	H359	H	0.623603	0.417452	0.509818
	O360	O	-0.516682	0.423965	-0.632915
	H361	H	-0.513651	0.407742	-0.652017
	H362	H	-0.504721	0.427363	-0.623204
	O363	O	0.395593	0.678972	0.299122
	H364	H	0.407154	0.668615	0.297968
	H365	H	0.413063	0.679217	0.286079
	O366	O	0.373286	0.652741	0.508021
	H367	H	0.372734	0.662599	0.518280
	H368	H	0.386985	0.653212	0.505586
	O369	O	0.347081	0.383841	0.467589
	H370	H	0.337725	0.396205	0.468661
	H371	H	0.337069	0.373113	0.464116
	O372	O	0.608256	0.501143	0.363532
	H373	H	0.596003	0.494537	0.362248
	H374	H	0.607425	0.502605	0.351419
	O375	O	-0.495458	0.685014	1.662412
	H376	H	-0.494982	0.674072	1.669687
	H377	H	-0.495075	0.702539	1.656114
	O378	O	0.474029	0.563788	0.318366
	H379	H	0.465213	0.555933	0.316040
	H380	H	0.469999	0.560640	0.342959
	O381	O	0.306021	0.545893	0.547847
	H382	H	0.305832	0.553629	0.541017
	H383	H	0.300991	0.547074	0.558161
	O384	O	0.614719	0.364475	-0.582694
	H385	H	0.608126	0.370739	-0.593371
	H386	H	0.612933	0.366035	-0.565058
	O387	O	1.019264	0.023876	0.964187
	H388	H	1.017223	0.025884	0.970102
	H389	H	1.023089	0.017807	0.968673
	O390	O	-1.049589	0.104162	0.995181
	H391	H	-1.057623	0.106333	0.989805
	H392	H	-1.056836	0.116524	0.975853
	O393	O	1.008822	0.980589	0.102404
	H394	H	1.007008	0.990864	0.102015
	H395	H	1.014485	0.989574	0.088647
	O396	O	0.693127	0.503058	0.486992
	H397	H	0.688273	0.485345	0.499082
	H398	H	0.699364	0.519802	0.487689
	O399	O	0.078318	0.931662	0.915814
	H400	H	0.069267	0.922964	0.922402
	H401	H	0.079271	0.940007	0.907291
	O402	O	0.889801	0.877137	1.062757
	H403	H	0.884037	0.871377	1.078991
	H404	H	0.884772	0.873101	1.071036
	O405	O	0.340791	1.415011	0.658521
	H406	H	0.341020	1.418739	0.662285
	H407	H	0.337294	1.415269	0.666128
