data_Molecule from HDF5

_cell_length_a		16.292213
_cell_length_b		16.132175
_cell_length_c		16.196175
_cell_angle_alpha	90.092335
_cell_angle_beta	89.823008
_cell_angle_gamma	90.393648
_symmetry_space_group_name_H-M	'P 1'
_symmetry_Int_Tables_number		1

loop_
	_symmetry_equiv_pos_as_xyz
	x,y,z

loop_
	_atom_site_label
	_atom_site_type_symbol
	_atom_site_fract_x
	_atom_site_fract_y
	_atom_site_fract_z
	H0	H	0.406538	0.844211	0.714185
	H1	H	0.604525	0.174441	0.714306
	H2	H	0.603271	0.844808	0.287549
	H3	H	0.408014	0.174370	0.288621
	H4	H	0.721892	0.409695	0.838555
	H5	H	0.720799	0.612123	0.166526
	H6	H	0.291502	0.608615	0.838688
	H7	H	0.290009	0.408933	0.166495
	H8	H	0.840743	0.720897	0.406451
	H9	H	0.167888	0.727726	0.602821
	H10	H	0.840826	0.294567	0.601328
	H11	H	0.169988	0.297273	0.404761
	H12	H	0.842191	0.409408	0.719400
	H13	H	0.169565	0.609552	0.716028
	H14	H	0.842146	0.607137	0.288580
	H15	H	0.168491	0.410459	0.287029
	H16	H	0.411365	0.719654	0.836421
	H17	H	0.604498	0.724091	0.166576
	H18	H	0.603266	0.296071	0.837203
	H19	H	0.406730	0.295860	0.166610
	H20	H	0.719199	0.845264	0.401168
	H21	H	0.720240	0.174149	0.600510
	H22	H	0.289406	0.845733	0.601646
	H23	H	0.291361	0.174305	0.402743
	H24	H	0.903981	0.344782	0.217222
	H25	H	0.106267	0.674295	0.217593
	H26	H	0.104686	0.344363	0.789131
	H27	H	0.910032	0.675655	0.791106
	H28	H	0.219702	0.910101	0.338744
	H29	H	0.220008	0.110824	0.666463
	H30	H	0.793091	0.108296	0.337971
	H31	H	0.788648	0.908952	0.665731
	H32	H	0.341759	0.223388	0.901837
	H33	H	0.668308	0.226553	0.100394
	H34	H	0.341902	0.793213	0.100148
	H35	H	0.670350	0.796617	0.902540
	H36	H	0.342540	0.907587	0.218446
	H37	H	0.669509	0.110760	0.215515
	H38	H	0.342251	0.108117	0.786182
	H39	H	0.669453	0.910859	0.785357
	H40	H	0.908902	0.221938	0.337764
	H41	H	0.104735	0.225063	0.666611
	H42	H	0.102464	0.796699	0.338167
	H43	H	0.906868	0.797386	0.667708
	H44	H	0.220419	0.345814	0.902192
	H45	H	0.221285	0.674690	0.102236
	H46	H	0.787554	0.346505	0.103761
	H47	H	0.792879	0.674996	0.903193
	H48	H	0.404580	0.132061	0.598037
	H49	H	0.600048	0.892398	0.583618
	H50	H	0.596481	0.125059	0.415595
	H51	H	0.406986	0.891116	0.414715
	H52	H	0.603167	0.405654	0.124645
	H53	H	0.607395	0.598751	0.883687
	H54	H	0.410280	0.610846	0.122740
	H55	H	0.404758	0.409083	0.880040
	H56	H	0.115067	0.591788	0.422450
	H57	H	0.885317	0.606225	0.602291
	H58	H	0.122432	0.406652	0.585668
	H59	H	0.890191	0.411453	0.418285
	H60	H	0.117027	0.430920	0.594110
	H61	H	0.890072	0.604400	0.592670
	H62	H	0.125227	0.597882	0.393457
	H63	H	0.890889	0.424063	0.408419
	H64	H	0.405715	0.595422	0.121139
	H65	H	0.594888	0.597699	0.887874
	H66	H	0.604808	0.431567	0.117806
	H67	H	0.408403	0.426055	0.885902
	H68	H	0.609971	0.130748	0.409169
	H69	H	0.605100	0.886696	0.600166
	H70	H	0.420074	0.127847	0.600797
	H71	H	0.412009	0.890139	0.403568
	H72	H	0.913718	0.629537	0.102728
	H73	H	0.092444	0.395614	0.091072
	H74	H	0.112912	0.631654	0.911182
	H75	H	0.910245	0.390196	0.909041
	H76	H	0.100505	0.922546	0.619650
	H77	H	0.108034	0.106487	0.381223
	H78	H	0.915755	0.100806	0.618996
	H79	H	0.910365	0.915504	0.384418
	H80	H	0.626124	0.109827	0.899087
	H81	H	0.392598	0.092351	0.092239
	H82	H	0.620665	0.917001	0.090213
	H83	H	0.389689	0.916677	0.907482
	H84	H	0.622001	0.921931	0.098665
	H85	H	0.385452	0.101926	0.105346
	H86	H	0.620467	0.107425	0.919422
	H87	H	0.388114	0.912104	0.905584
	H88	H	0.910128	0.104402	0.621933
	H89	H	0.099055	0.092494	0.387824
	H90	H	0.093974	0.918499	0.619680
	H91	H	0.912902	0.917560	0.385175
	H92	H	0.094716	0.629813	0.898344
	H93	H	0.104085	0.390554	0.091343
	H94	H	0.918693	0.625794	0.093857
	H95	H	0.917890	0.393641	0.910642
	H96	H	0.412548	0.125171	0.587027
	H97	H	0.587680	0.892516	0.597804
	H98	H	0.596270	0.129088	0.400279
	H99	H	0.418595	0.894536	0.413950
	H100	H	0.582782	0.418592	0.114602
	H101	H	0.599141	0.608422	0.883448
	H102	H	0.420936	0.599834	0.116976
	H103	H	0.421723	0.414904	0.886626
	H104	H	0.125761	0.620594	0.414612
	H105	H	0.889444	0.596684	0.599729
	H106	H	0.127064	0.414016	0.611234
	H107	H	0.884635	0.409921	0.402900
	H108	H	0.908336	0.628708	0.092979
	H109	H	0.096702	0.389708	0.101994
	H110	H	0.093723	0.623219	0.919794
	H111	H	0.911335	0.393601	0.915973
	H112	H	0.099596	0.914458	0.621897
	H113	H	0.091504	0.109120	0.385372
	H114	H	0.909631	0.096871	0.619124
	H115	H	0.913409	0.914494	0.384470
	H116	H	0.618721	0.091358	0.905793
	H117	H	0.388210	0.109287	0.089540
	H118	H	0.624188	0.912450	0.097954
	H119	H	0.389496	0.913259	0.910247
	C120	C	0.383343	0.019184	0.623954
	C121	C	0.626540	1.000348	0.622303
	C122	C	0.627819	0.018912	0.379985
	C123	C	0.384329	1.000767	0.381551
	C124	C	0.626903	0.388804	0.010745
	C125	C	0.628412	0.631666	0.993752
	C126	C	0.384790	0.630429	0.011197
	C127	C	0.382879	0.387560	0.993015
	C128	C	0.013746	0.630808	0.381701
	C129	C	0.996318	0.632182	0.626218
	C130	C	0.013938	0.387366	0.625808
	C131	C	0.996805	0.387407	0.381272
	C132	C	0.883829	0.518973	0.124852
	C133	C	0.127065	0.501169	0.123777
	C134	C	0.128020	0.518612	0.881114
	C135	C	0.885167	0.501606	0.882987
	C136	C	0.126585	0.889004	0.511733
	C137	C	0.127816	0.131734	0.493552
	C138	C	0.884334	0.129985	0.511197
	C139	C	0.882895	0.887398	0.493394
	C140	C	0.513724	0.131014	0.879860
	C141	C	0.496729	0.131414	0.123942
	C142	C	0.514156	0.887576	0.123848
	C143	C	0.497449	0.886332	0.878910
	C144	C	0.385882	0.894245	0.677805
	C145	C	0.624654	0.124952	0.677129
	C146	C	0.623966	0.894227	0.325271
	C147	C	0.387483	0.125072	0.326469
	C148	C	0.683597	0.389979	0.887547
	C149	C	0.682770	0.630654	0.117650
	C150	C	0.329649	0.628744	0.887412
	C151	C	0.327337	0.388735	0.117012
	C152	C	0.889983	0.684175	0.385360
	C153	C	0.119372	0.688850	0.623027
	C154	C	0.890395	0.331871	0.622673
	C155	C	0.120504	0.333929	0.383877
	C156	C	0.890740	0.389136	0.681121
	C157	C	0.120143	0.630138	0.679415
	C158	C	0.890908	0.627953	0.326372
	C159	C	0.119729	0.390347	0.325237
	C160	C	0.389189	0.683777	0.886345
	C161	C	0.624990	0.687063	0.117420
	C162	C	0.624421	0.333720	0.886570
	C163	C	0.385457	0.332534	0.117153
	C164	C	0.681984	0.894575	0.381298
	C165	C	0.682151	0.124812	0.620522
	C166	C	0.327664	0.894898	0.622077
	C167	C	0.329254	0.125047	0.382955
	C168	C	0.884379	0.394349	0.179788
	C169	C	0.125761	0.625246	0.179247
	C170	C	0.124414	0.394196	0.826867
	C171	C	0.888773	0.626039	0.828109
	C172	C	0.181878	0.890378	0.387913
	C173	C	0.182667	0.130478	0.617317
	C174	C	0.830279	0.128083	0.387232
	C175	C	0.826664	0.889247	0.616780
	C176	C	0.390552	0.185289	0.882564
	C177	C	0.619803	0.188107	0.120895
	C178	C	0.390984	0.831312	0.120904
	C179	C	0.620874	0.833164	0.882069
	C180	C	0.391128	0.888090	0.179663
	C181	C	0.620268	0.130334	0.178352
	C182	C	0.390798	0.128386	0.824483
	C183	C	0.620411	0.890169	0.823588
	C184	C	0.888065	0.184664	0.387230
	C185	C	0.124924	0.186946	0.617739
	C186	C	0.123364	0.833921	0.387620
	C187	C	0.885612	0.833773	0.617824
	C188	C	0.182524	0.394881	0.882833
	C189	C	0.183013	0.625448	0.121991
	C190	C	0.826271	0.395209	0.123449
	C191	C	0.830674	0.625795	0.884211
	C192	C	0.405839	0.106001	0.601812
	C193	C	0.604199	0.913215	0.600401
	C194	C	0.607142	0.105755	0.401915
	C195	C	0.406027	0.914353	0.404161
	C196	C	0.603562	0.411847	0.096809
	C197	C	0.606873	0.608443	0.907295
	C198	C	0.406039	0.608397	0.097818
	C199	C	0.405026	0.410115	0.906869
	C200	C	0.099787	0.609751	0.403893
	C201	C	0.910381	0.609040	0.604651
	C202	C	0.099970	0.410311	0.603485
	C203	C	0.910774	0.408883	0.403396
	C204	C	0.906929	0.605544	0.102956
	C205	C	0.104409	0.414434	0.101353
	C206	C	0.106743	0.605797	0.903405
	C207	C	0.906736	0.414696	0.905367
	C208	C	0.104712	0.911760	0.598170
	C209	C	0.105961	0.109354	0.407261
	C210	C	0.905708	0.107416	0.597766
	C211	C	0.905546	0.909534	0.407038
	C212	C	0.599693	0.109182	0.901619
	C213	C	0.410976	0.108134	0.102023
	C214	C	0.600062	0.910402	0.101976
	C215	C	0.411114	0.907789	0.901171
	Zn216	Zn	0.505398	0.009748	0.750382
	Zn217	Zn	0.506036	0.009748	0.252934
	Zn218	Zn	0.755897	0.510651	0.002810
	Zn219	Zn	0.255686	0.509781	0.002982
	Zn220	Zn	0.004983	0.760183	0.502852
	Zn221	Zn	0.005609	0.258442	0.502653
	Zn222	Zn	0.006120	0.510075	0.754152
	Zn223	Zn	0.005649	0.509147	0.252232
	Zn224	Zn	0.506325	0.758178	0.002048
	Zn225	Zn	0.504722	0.260203	0.001887
	Zn226	Zn	0.755065	0.009215	0.501830
	Zn227	Zn	0.255837	0.010512	0.502476
	N228	N	0.419943	0.972674	0.679187
	N229	N	0.590587	0.046507	0.678366
	N230	N	0.590999	0.972421	0.324176
	N231	N	0.420921	0.046967	0.325501
	N232	N	0.685176	0.423437	0.965765
	N233	N	0.685024	0.596994	0.039573
	N234	N	0.326629	0.596642	0.966139
	N235	N	0.325374	0.422236	0.038895
	N236	N	0.967512	0.686073	0.419247
	N237	N	0.041421	0.690149	0.590357
	N238	N	0.968216	0.330482	0.589084
	N239	N	0.043185	0.331947	0.418052
	N240	N	0.968505	0.422930	0.683135
	N241	N	0.042687	0.595604	0.681349
	N242	N	0.968680	0.595439	0.324144
	N243	N	0.041770	0.422786	0.323461
	N244	N	0.422570	0.685025	0.964228
	N245	N	0.591782	0.687699	0.039433
	N246	N	0.589977	0.332870	0.964225
	N247	N	0.419298	0.331683	0.039222
	N248	N	0.684625	0.972956	0.414569
	N249	N	0.683298	0.046420	0.587210
	N250	N	0.325809	0.973464	0.589616
	N251	N	0.327268	0.046704	0.416711
	N252	N	0.919608	0.472272	0.180793
	N253	N	0.091588	0.547017	0.180368
	N254	N	0.091394	0.472576	0.825518
	N255	N	0.922040	0.547842	0.827243
	N256	N	0.184176	0.923767	0.466241
	N257	N	0.184502	0.096734	0.539099
	N258	N	0.827822	0.094787	0.465391
	N259	N	0.824631	0.921659	0.538228
	N260	N	0.468237	0.187380	0.915954
	N261	N	0.542161	0.188907	0.087787
	N262	N	0.468520	0.830752	0.086870
	N263	N	0.543234	0.830846	0.915854
	N264	N	0.468667	0.922235	0.181744
	N265	N	0.542734	0.095627	0.180414
	N266	N	0.468361	0.095159	0.822561
	N267	N	0.542544	0.922494	0.821293
	N268	N	0.920977	0.185956	0.465431
	N269	N	0.091662	0.187958	0.539832
	N270	N	0.089742	0.832951	0.465593
	N271	N	0.919929	0.832311	0.540040
	N272	N	0.184868	0.473396	0.915928
	N273	N	0.184026	0.547070	0.088191
	N274	N	0.825855	0.473475	0.090075
	N275	N	0.828481	0.547338	0.917651
	O276	O	0.014404	-0.072703	-0.098375
	H277	H	0.008910	-0.078946	-0.098548
	H278	H	0.013202	-0.067482	-0.096774
	O279	O	0.415818	0.483592	0.471749
	H280	H	0.407128	0.494258	0.471639
	H281	H	0.416818	0.492489	0.468063
	O282	O	0.532633	0.525229	0.524847
	H283	H	0.533050	0.530353	0.521635
	H284	H	0.539621	0.517656	0.529575
	O285	O	1.041616	-0.071886	0.897104
	H286	H	1.050513	-0.076088	0.897540
	H287	H	1.039132	-0.064897	0.884272
	O288	O	1.032165	-0.032221	0.109831
	H289	H	1.021292	-0.037371	0.112828
	H290	H	1.041471	-0.034544	0.107308
	O291	O	0.515962	0.539059	0.548177
	H292	H	0.528814	0.529757	0.551097
	H293	H	0.513666	0.529821	0.553659
	O294	O	1.018132	-0.010709	1.117778
	H295	H	1.030575	-0.010032	1.111654
	H296	H	1.013051	-0.009046	1.135513
	O297	O	0.054236	-0.066368	-0.039508
	H298	H	0.062837	-0.061641	-0.046221
	H299	H	0.052045	-0.067634	-0.041285
	O300	O	0.537685	0.542901	0.496364
	H301	H	0.546740	0.537231	0.492461
	H302	H	0.537617	0.543584	0.492847
	O303	O	1.005174	0.043525	-0.103074
	H304	H	1.000168	0.034823	-0.104517
	H305	H	1.010921	0.044881	-0.098785
	O306	O	0.872634	0.079213	-0.038977
	H307	H	0.869506	0.078953	-0.038135
	H308	H	0.875478	0.082543	-0.031668
	O309	O	0.029101	-0.023729	1.095456
	H310	H	0.037731	-0.026055	1.082086
	H311	H	0.036099	-0.023778	1.084941
	O312	O	1.054352	1.151515	1.019030
	H313	H	1.053898	1.155082	1.028039
	H314	H	1.046560	1.151649	1.008577
	O315	O	0.466865	0.470718	0.523664
	H316	H	0.460128	0.479589	0.522112
	H317	H	0.468459	0.480589	0.528616
	O318	O	0.502332	0.553249	0.440408
	H319	H	0.496050	0.562542	0.440334
	H320	H	0.509179	0.542470	0.443057
	O321	O	0.016575	1.079732	0.949768
	H322	H	0.016119	1.081751	0.937744
	H323	H	0.002345	1.068867	0.947192
	O324	O	0.110080	-0.035392	0.000418
	H325	H	0.119020	-0.031140	0.012753
	H326	H	0.107909	-0.033282	0.005690
	O327	O	-0.094488	-0.038797	1.047189
	H328	H	-0.093122	-0.037848	1.048487
	H329	H	-0.087722	-0.036911	1.054417
	O330	O	0.973994	1.068960	0.065832
	H331	H	0.982940	1.075226	0.055721
	H332	H	0.979215	1.065636	0.076810
	O333	O	0.505251	0.548166	0.548517
	H334	H	0.517690	0.548984	0.554522
	H335	H	0.512150	0.553723	0.548197
	O336	O	0.461781	0.461941	0.542722
	H337	H	0.459598	0.457939	0.539858
	H338	H	0.466359	0.459370	0.538988
	O339	O	1.005702	1.000968	0.009954
	H340	H	1.002227	0.993464	0.016790
	H341	H	1.008659	1.002865	-0.000550
	O342	O	0.466576	0.482609	0.442532
	H343	H	0.459515	0.478564	0.430810
	H344	H	0.457559	0.486116	0.450385
	O345	O	0.518051	0.519364	0.496460
	H346	H	0.518199	0.527141	0.504175
	H347	H	0.514049	0.512895	0.492093
	O348	O	-0.067074	0.071800	-0.006940
	H349	H	-0.071961	0.079530	-0.000983
	H350	H	-0.069929	0.070212	-0.007163
	O351	O	0.073823	1.024602	0.947777
	H352	H	0.074623	1.018056	0.939294
	H353	H	0.066566	1.024001	0.943393
	O354	O	0.461174	0.490584	0.473601
	H355	H	0.459641	0.496259	0.466449
	H356	H	0.448313	0.479604	0.472788
	O357	O	-0.015660	1.074970	1.096982
	H358	H	-0.020093	1.077469	1.099980
	H359	H	-0.002615	1.079481	1.098817
