data_Molecule from HDF5

_cell_length_a		16.164337
_cell_length_b		16.310466
_cell_length_c		16.118861
_cell_angle_alpha	88.945149
_cell_angle_beta	90.455928
_cell_angle_gamma	90.186835
_symmetry_space_group_name_H-M	'P 1'
_symmetry_Int_Tables_number		1

loop_
	_symmetry_equiv_pos_as_xyz
	x,y,z

loop_
	_atom_site_label
	_atom_site_type_symbol
	_atom_site_fract_x
	_atom_site_fract_y
	_atom_site_fract_z
	H0	H	0.406040	0.847145	0.715790
	H1	H	0.604597	0.174490	0.706012
	H2	H	0.602499	0.844261	0.287006
	H3	H	0.406011	0.171325	0.275567
	H4	H	0.717792	0.413823	0.830264
	H5	H	0.721790	0.603539	0.161115
	H6	H	0.293729	0.608370	0.830380
	H7	H	0.294901	0.406637	0.160960
	H8	H	0.842367	0.727009	0.390233
	H9	H	0.171467	0.721736	0.594686
	H10	H	0.841830	0.289724	0.597521
	H11	H	0.170335	0.294953	0.398997
	H12	H	0.841141	0.407666	0.709702
	H13	H	0.172284	0.602845	0.706021
	H14	H	0.841273	0.607789	0.278595
	H15	H	0.172006	0.415563	0.286767
	H16	H	0.405335	0.726183	0.832829
	H17	H	0.609481	0.719158	0.161291
	H18	H	0.604450	0.297306	0.830074
	H19	H	0.406492	0.288857	0.159077
	H20	H	0.718671	0.844834	0.402635
	H21	H	0.723599	0.171794	0.594016
	H22	H	0.293325	0.844842	0.597409
	H23	H	0.288916	0.171431	0.390986
	H24	H	0.907219	0.346221	0.212817
	H25	H	0.107442	0.673202	0.207190
	H26	H	0.103435	0.343914	0.786591
	H27	H	0.907281	0.671524	0.775492
	H28	H	0.218451	0.912242	0.331474
	H29	H	0.220938	0.103145	0.661220
	H30	H	0.791087	0.109457	0.331073
	H31	H	0.795051	0.906317	0.662336
	H32	H	0.341701	0.225107	0.891320
	H33	H	0.670028	0.222652	0.096287
	H34	H	0.342034	0.789275	0.098429
	H35	H	0.671868	0.797349	0.901273
	H36	H	0.340214	0.907525	0.210955
	H37	H	0.671247	0.103012	0.207315
	H38	H	0.341284	0.108983	0.779178
	H39	H	0.672665	0.915797	0.787788
	H40	H	0.904444	0.225468	0.331825
	H41	H	0.109232	0.219896	0.660924
	H42	H	0.104128	0.798677	0.330456
	H43	H	0.906495	0.788012	0.659878
	H44	H	0.219761	0.344607	0.900981
	H45	H	0.223343	0.672434	0.092585
	H46	H	0.791813	0.345860	0.098313
	H47	H	0.791036	0.672494	0.891979
	H48	H	0.414015	0.125363	0.583470
	H49	H	0.598989	0.894927	0.586910
	H50	H	0.599683	0.127887	0.391589
	H51	H	0.415510	0.892881	0.404279
	H52	H	0.608820	0.410745	0.117387
	H53	H	0.592051	0.606257	0.879129
	H54	H	0.412636	0.593698	0.114359
	H55	H	0.415052	0.414622	0.877846
	H56	H	0.120879	0.606606	0.411959
	H57	H	0.885555	0.604687	0.588521
	H58	H	0.123309	0.418721	0.592624
	H59	H	0.892354	0.424441	0.408478
	H60	H	0.126376	0.409133	0.596305
	H61	H	0.890623	0.600244	0.577128
	H62	H	0.121972	0.595785	0.399280
	H63	H	0.885104	0.416508	0.394056
	H64	H	0.420037	0.597347	0.114046
	H65	H	0.600360	0.608265	0.874989
	H66	H	0.596403	0.424015	0.109506
	H67	H	0.408171	0.414383	0.874484
	H68	H	0.592303	0.122407	0.404297
	H69	H	0.606584	0.889692	0.595376
	H70	H	0.410544	0.126384	0.585880
	H71	H	0.410346	0.892558	0.409841
	H72	H	0.912042	0.626967	0.088146
	H73	H	0.099022	0.392829	0.091645
	H74	H	0.097661	0.627661	0.889480
	H75	H	0.906926	0.392615	0.911520
	H76	H	0.102062	0.909210	0.617012
	H77	H	0.088597	0.101489	0.381234
	H78	H	0.909550	0.099965	0.617169
	H79	H	0.917237	0.908328	0.377274
	H80	H	0.621954	0.098832	0.902982
	H81	H	0.391952	0.093507	0.079110
	H82	H	0.625013	0.906462	0.090622
	H83	H	0.388449	0.918088	0.902280
	H84	H	0.620689	0.917434	0.088543
	H85	H	0.386503	0.095583	0.093680
	H86	H	0.626762	0.107601	0.896382
	H87	H	0.387989	0.913123	0.905977
	H88	H	0.916582	0.092854	0.612611
	H89	H	0.098268	0.112483	0.374089
	H90	H	0.101098	0.916588	0.613360
	H91	H	0.901100	0.918058	0.375397
	H92	H	0.091860	0.620603	0.906639
	H93	H	0.101728	0.391810	0.091898
	H94	H	0.916381	0.625227	0.085479
	H95	H	0.908143	0.389950	0.897972
	H96	H	0.414548	0.125899	0.587162
	H97	H	0.594307	0.892629	0.597634
	H98	H	0.607014	0.126904	0.405160
	H99	H	0.408267	0.890292	0.402317
	H100	H	0.590540	0.405868	0.113192
	H101	H	0.597904	0.599737	0.879304
	H102	H	0.413473	0.601203	0.116427
	H103	H	0.411590	0.421387	0.877331
	H104	H	0.128193	0.611954	0.397367
	H105	H	0.888578	0.593034	0.586738
	H106	H	0.123391	0.409893	0.585575
	H107	H	0.887577	0.406715	0.409491
	H108	H	0.911757	0.626171	0.083402
	H109	H	0.100043	0.392565	0.094509
	H110	H	0.109935	0.627199	0.903363
	H111	H	0.919681	0.393765	0.904443
	H112	H	0.094265	0.911145	0.613543
	H113	H	0.103546	0.097152	0.378109
	H114	H	0.920012	0.102949	0.614803
	H115	H	0.917082	0.926861	0.382061
	H116	H	0.624445	0.109380	0.908048
	H117	H	0.385430	0.107942	0.082520
	H118	H	0.626484	0.914595	0.099275
	H119	H	0.390010	0.917964	0.907946
	C120	C	0.384740	0.017731	0.616924
	C121	C	0.628697	1.000821	0.619447
	C122	C	0.627214	0.017186	0.375227
	C123	C	0.382491	0.999665	0.373458
	C124	C	0.627052	0.386909	0.004000
	C125	C	0.627590	0.630677	0.987038
	C126	C	0.385649	0.628784	0.005886
	C127	C	0.384394	0.386429	0.986002
	C128	C	0.015124	0.632985	0.372209
	C129	C	0.997822	0.627715	0.613876
	C130	C	0.014963	0.384014	0.619402
	C131	C	0.997405	0.388402	0.376171
	C132	C	0.884891	0.517965	0.116484
	C133	C	0.129290	0.500555	0.118910
	C134	C	0.127945	0.516640	0.874085
	C135	C	0.883106	0.500265	0.873245
	C136	C	0.127158	0.886542	0.505159
	C137	C	0.127341	0.129834	0.487182
	C138	C	0.885315	0.129079	0.505273
	C139	C	0.884090	0.886614	0.487580
	C140	C	0.515246	0.133379	0.872222
	C141	C	0.496949	0.127653	0.115031
	C142	C	0.514819	0.883616	0.121019
	C143	C	0.498022	0.889333	0.877503
	C144	C	0.386905	0.895291	0.675847
	C145	C	0.625551	0.124719	0.670548
	C146	C	0.623020	0.893225	0.323866
	C147	C	0.385394	0.122713	0.314944
	C148	C	0.681082	0.392231	0.879801
	C149	C	0.684113	0.625182	0.111701
	C150	C	0.330414	0.628590	0.880577
	C151	C	0.331146	0.386798	0.111083
	C152	C	0.891308	0.688460	0.371580
	C153	C	0.121855	0.683610	0.613965
	C154	C	0.891147	0.328175	0.616937
	C155	C	0.121579	0.333671	0.378996
	C156	C	0.890634	0.386826	0.672971
	C157	C	0.122534	0.624367	0.669275
	C158	C	0.890815	0.629461	0.315981
	C159	C	0.122381	0.393544	0.323280
	C160	C	0.385729	0.687423	0.881774
	C161	C	0.628351	0.682875	0.111893
	C162	C	0.624211	0.334508	0.879699
	C163	C	0.386351	0.328005	0.110142
	C164	C	0.681219	0.893682	0.380829
	C165	C	0.684825	0.123407	0.614904
	C166	C	0.330252	0.894220	0.617335
	C167	C	0.327022	0.122798	0.372082
	C168	C	0.886810	0.395068	0.174460
	C169	C	0.127485	0.623910	0.170806
	C170	C	0.124288	0.392968	0.822797
	C171	C	0.886302	0.623008	0.814695
	C172	C	0.181598	0.891166	0.380756
	C173	C	0.183567	0.124790	0.611644
	C174	C	0.828592	0.129259	0.380870
	C175	C	0.830995	0.886596	0.612398
	C176	C	0.391053	0.187696	0.872203
	C177	C	0.621011	0.183632	0.114783
	C178	C	0.391057	0.827777	0.118407
	C179	C	0.622359	0.834936	0.880724
	C180	C	0.390166	0.886695	0.174324
	C181	C	0.621693	0.124363	0.170258
	C182	C	0.390896	0.129842	0.816266
	C183	C	0.623049	0.894420	0.824461
	C184	C	0.885005	0.187097	0.381259
	C185	C	0.127922	0.182939	0.611430
	C186	C	0.124228	0.834782	0.380299
	C187	C	0.886212	0.827539	0.611126
	C188	C	0.182127	0.393567	0.879891
	C189	C	0.185376	0.623345	0.113874
	C190	C	0.829614	0.394848	0.116904
	C191	C	0.828428	0.623382	0.872487
	C192	C	0.406470	0.103720	0.592475
	C193	C	0.606434	0.914630	0.599238
	C194	C	0.605938	0.103560	0.394644
	C195	C	0.404536	0.914311	0.398447
	C196	C	0.605216	0.407433	0.091083
	C197	C	0.603758	0.610732	0.900363
	C198	C	0.408692	0.604572	0.092395
	C199	C	0.405428	0.409841	0.899073
	C200	C	0.101375	0.611260	0.395866
	C201	C	0.910717	0.605685	0.591008
	C202	C	0.102069	0.406031	0.597935
	C203	C	0.910812	0.409518	0.397546
	C204	C	0.907099	0.604053	0.092594
	C205	C	0.106705	0.414573	0.098704
	C206	C	0.106240	0.603009	0.893847
	C207	C	0.904966	0.414364	0.897504
	C208	C	0.105758	0.906637	0.592158
	C209	C	0.103793	0.109621	0.400423
	C210	C	0.908588	0.105408	0.592156
	C211	C	0.905541	0.910839	0.400794
	C212	C	0.602078	0.111880	0.895657
	C213	C	0.410542	0.105631	0.091867
	C214	C	0.601616	0.906222	0.099236
	C215	C	0.411102	0.910352	0.898977
	Zn216	Zn	0.506301	0.010575	0.746993
	Zn217	Zn	0.505352	0.007854	0.245724
	Zn218	Zn	0.754775	0.509265	-0.004220
	Zn219	Zn	0.257308	0.507860	-0.004010
	Zn220	Zn	0.006243	0.758859	0.495200
	Zn221	Zn	0.006064	0.257528	0.496912
	Zn222	Zn	0.005951	0.507742	0.744751
	Zn223	Zn	0.006168	0.509982	0.246271
	Zn224	Zn	0.506399	0.757350	-0.002238
	Zn225	Zn	0.505312	0.258255	-0.004851
	Zn226	Zn	0.756699	0.008360	0.496945
	Zn227	Zn	0.254725	0.008461	0.496294
	N228	N	0.419773	0.973096	0.675681
	N229	N	0.591367	0.047234	0.673634
	N230	N	0.590392	0.971161	0.319981
	N231	N	0.418947	0.045350	0.315518
	N232	N	0.683012	0.424135	0.958342
	N233	N	0.683753	0.593342	0.033182
	N234	N	0.329949	0.592850	0.958542
	N235	N	0.329542	0.422375	0.032903
	N236	N	0.969514	0.690747	0.405966
	N237	N	0.043166	0.685642	0.580274
	N238	N	0.969723	0.326364	0.584442
	N239	N	0.043087	0.330696	0.411272
	N240	N	0.968645	0.420845	0.674593
	N241	N	0.044467	0.590141	0.669318
	N242	N	0.968622	0.595811	0.316245
	N243	N	0.044197	0.426962	0.321334
	N244	N	0.419512	0.687537	0.960510
	N245	N	0.593819	0.686580	0.033530
	N246	N	0.591445	0.330974	0.958122
	N247	N	0.418726	0.327870	0.031652
	N248	N	0.683957	0.971744	0.411954
	N249	N	0.686936	0.045444	0.583968
	N250	N	0.329060	0.971353	0.581131
	N251	N	0.324948	0.045254	0.407614
	N252	N	0.920544	0.472605	0.174266
	N253	N	0.093106	0.546604	0.174154
	N254	N	0.091164	0.470679	0.819119
	N255	N	0.919701	0.545398	0.814988
	N256	N	0.183613	0.922746	0.459435
	N257	N	0.183463	0.092452	0.533364
	N258	N	0.828539	0.093926	0.459080
	N259	N	0.829316	0.922553	0.534397
	N260	N	0.469458	0.190049	0.906295
	N261	N	0.542425	0.185782	0.081145
	N262	N	0.469702	0.825656	0.086153
	N263	N	0.543621	0.831856	0.913236
	N264	N	0.468391	0.920384	0.176413
	N265	N	0.543720	0.089958	0.170365
	N266	N	0.469105	0.096692	0.816325
	N267	N	0.544787	0.927304	0.822247
	N268	N	0.919572	0.187260	0.459644
	N269	N	0.093408	0.186131	0.533108
	N270	N	0.091175	0.831682	0.458672
	N271	N	0.918620	0.827435	0.532450
	N272	N	0.184303	0.471500	0.911068
	N273	N	0.186758	0.545544	0.082369
	N274	N	0.828398	0.472254	0.081501
	N275	N	0.826408	0.546122	0.908021
	O276	O	0.011629	0.096822	-0.026992
	H277	H	0.007286	0.088108	-0.011658
	H278	H	0.018698	0.099520	-0.022538
	O279	O	0.552897	0.479597	0.590337
	H280	H	0.547337	0.471531	0.583405
	H281	H	0.556087	0.487408	0.593899
	O282	O	0.544267	0.448928	0.486003
	H283	H	0.533398	0.446958	0.476254
	H284	H	0.533536	0.453120	0.487101
	O285	O	0.993617	-0.019027	1.049283
	H286	H	1.001993	-0.025997	1.050092
	H287	H	0.990402	-0.014649	1.041204
	O288	O	0.953317	0.126169	-0.033123
	H289	H	0.945864	0.135910	-0.036210
	H290	H	0.954142	0.133447	-0.029367
	O291	O	0.431581	0.491014	0.483340
	H292	H	0.433528	0.493257	0.474229
	H293	H	0.424477	0.502441	0.485556
	O294	O	1.013004	0.097689	1.037963
	H295	H	1.011849	0.096370	1.044009
	H296	H	1.013836	0.094203	1.031906
	O297	O	-0.070505	-0.045355	0.013719
	H298	H	-0.077809	-0.045315	0.012182
	H299	H	-0.068689	-0.053171	0.015872
	O300	O	0.511894	0.573930	0.464419
	H301	H	0.510510	0.580509	0.470877
	H302	H	0.512990	0.583254	0.462209
	O303	O	1.047252	0.032290	0.035403
	H304	H	1.047395	0.021747	0.033617
	H305	H	1.040143	0.035722	0.044872
	O306	O	0.930505	0.029019	-0.029568
	H307	H	0.919501	0.027611	-0.033418
	H308	H	0.937541	0.031317	-0.024054
	O309	O	-0.007559	-0.022740	0.998585
	H310	H	-0.012634	-0.035684	1.006114
	H311	H	-0.001086	-0.013546	0.999495
	O312	O	0.936429	0.878703	1.054811
	H313	H	0.933726	0.875628	1.052261
	H314	H	0.939037	0.886895	1.044014
	O315	O	0.500509	0.417154	0.522496
	H316	H	0.494239	0.406229	0.525254
	H317	H	0.495778	0.415209	0.518971
	O318	O	0.515015	0.528643	0.539440
	H319	H	0.507900	0.523282	0.537686
	H320	H	0.509957	0.529923	0.540650
	O321	O	0.085422	0.974742	0.985263
	H322	H	0.092361	0.976379	0.978640
	H323	H	0.088050	0.967775	0.982322
	O324	O	0.423994	0.583769	0.464888
	H325	H	0.434006	0.583494	0.471485
	H326	H	0.425038	0.585742	0.471647
	O327	O	0.058139	-0.076480	0.984418
	H328	H	0.049801	-0.082321	0.986334
	H329	H	0.059588	-0.077347	0.981956
	O330	O	0.576255	0.549881	0.517790
	H331	H	0.581226	0.543491	0.516098
	H332	H	0.573633	0.538880	0.525260
	O333	O	0.503224	0.547731	0.439736
	H334	H	0.496559	0.550012	0.442209
	H335	H	0.507726	0.547073	0.446176
	O336	O	0.509771	0.526043	0.588670
	H337	H	0.517908	0.514554	0.580262
	H338	H	0.515076	0.521456	0.588252
	O339	O	1.008846	1.006125	-0.001718
	H340	H	1.001902	1.010006	-0.014018
	H341	H	1.014909	1.001607	0.002093
	O342	O	0.505140	0.572126	0.484171
	H343	H	0.507344	0.568559	0.485690
	H344	H	0.515923	0.588421	0.483599
	O345	O	0.436008	0.582684	0.479423
	H346	H	0.431284	0.588542	0.475899
	H347	H	0.424519	0.573507	0.482348
	O348	O	0.011519	0.052439	0.011857
	H349	H	0.017651	0.065303	0.007679
	H350	H	0.002658	0.059259	0.015043
	O351	O	0.060113	1.061450	1.004568
	H352	H	0.058843	1.055832	1.012420
	H353	H	0.065197	1.071634	1.009255
	O354	O	0.436555	0.480493	0.432119
	H355	H	0.431352	0.495297	0.437288
	H356	H	0.439313	0.483792	0.425252
	O357	O	-0.042329	1.059483	0.977813
	H358	H	-0.054098	1.054417	0.980477
	H359	H	-0.052823	1.073711	0.965969
