data_Molecule from HDF5

_cell_length_a		16.146697
_cell_length_b		16.176125
_cell_length_c		16.326680
_cell_angle_alpha	90.384356
_cell_angle_beta	89.873972
_cell_angle_gamma	90.804108
_symmetry_space_group_name_H-M	'P 1'
_symmetry_Int_Tables_number		1

loop_
	_symmetry_equiv_pos_as_xyz
	x,y,z

loop_
	_atom_site_label
	_atom_site_type_symbol
	_atom_site_fract_x
	_atom_site_fract_y
	_atom_site_fract_z
	H0	H	0.402412	0.837407	0.697657
	H1	H	0.608213	0.164932	0.700739
	H2	H	0.610007	0.839233	0.264293
	H3	H	0.408588	0.164289	0.270466
	H4	H	0.717808	0.402520	0.820389
	H5	H	0.720613	0.604801	0.146915
	H6	H	0.293244	0.594293	0.819758
	H7	H	0.285569	0.400043	0.146514
	H8	H	0.840574	0.710685	0.388701
	H9	H	0.170414	0.718419	0.584363
	H10	H	0.842165	0.283112	0.582314
	H11	H	0.171395	0.290943	0.384594
	H12	H	0.841333	0.397692	0.699643
	H13	H	0.168923	0.605721	0.701236
	H14	H	0.841892	0.600476	0.269425
	H15	H	0.167942	0.399973	0.264123
	H16	H	0.406886	0.712151	0.819862
	H17	H	0.605533	0.721070	0.146061
	H18	H	0.599631	0.285902	0.821052
	H19	H	0.399178	0.283670	0.147244
	H20	H	0.717457	0.835806	0.384845
	H21	H	0.722876	0.165806	0.583783
	H22	H	0.289112	0.837761	0.582748
	H23	H	0.294659	0.165487	0.385127
	H24	H	0.899023	0.338265	0.199637
	H25	H	0.107315	0.664793	0.199313
	H26	H	0.103743	0.337985	0.766592
	H27	H	0.907308	0.665876	0.770231
	H28	H	0.220115	0.902658	0.321187
	H29	H	0.222310	0.102722	0.647638
	H30	H	0.792912	0.096890	0.320690
	H31	H	0.789724	0.901646	0.647737
	H32	H	0.337431	0.206651	0.889048
	H33	H	0.667422	0.220876	0.084563
	H34	H	0.339904	0.786523	0.081198
	H35	H	0.669802	0.789492	0.885141
	H36	H	0.342933	0.897131	0.203320
	H37	H	0.670008	0.105710	0.198576
	H38	H	0.341380	0.098458	0.768127
	H39	H	0.669716	0.902564	0.768263
	H40	H	0.908176	0.213501	0.320352
	H41	H	0.107511	0.220469	0.646671
	H42	H	0.106196	0.785233	0.321745
	H43	H	0.905831	0.785934	0.648484
	H44	H	0.212740	0.334948	0.886712
	H45	H	0.220204	0.664458	0.082879
	H46	H	0.787475	0.336962	0.080922
	H47	H	0.795073	0.667095	0.887776
	H48	H	0.419869	0.119720	0.585350
	H49	H	0.594811	0.884375	0.576084
	H50	H	0.591819	0.114911	0.396498
	H51	H	0.414534	0.885871	0.397355
	H52	H	0.598018	0.410353	0.101537
	H53	H	0.600203	0.590778	0.868752
	H54	H	0.402592	0.597724	0.103541
	H55	H	0.402235	0.407124	0.867102
	H56	H	0.123836	0.589712	0.384204
	H57	H	0.889591	0.586862	0.577464
	H58	H	0.122440	0.409300	0.569000
	H59	H	0.886305	0.402629	0.388978
	H60	H	0.120660	0.421756	0.576788
	H61	H	0.885331	0.593301	0.583189
	H62	H	0.125661	0.600583	0.390786
	H63	H	0.889613	0.406122	0.397595
	H64	H	0.413316	0.584790	0.097730
	H65	H	0.595909	0.596256	0.867561
	H66	H	0.594321	0.414627	0.098562
	H67	H	0.415374	0.406706	0.869924
	H68	H	0.609146	0.118773	0.398943
	H69	H	0.599151	0.882959	0.576036
	H70	H	0.420613	0.116253	0.573022
	H71	H	0.409457	0.881349	0.389537
	H72	H	0.910169	0.620411	0.077836
	H73	H	0.091195	0.383744	0.075756
	H74	H	0.097695	0.621897	0.879720
	H75	H	0.911783	0.382195	0.883867
	H76	H	0.101121	0.902926	0.604089
	H77	H	0.095339	0.091390	0.371070
	H78	H	0.911262	0.085228	0.597723
	H79	H	0.909563	0.909945	0.368451
	H80	H	0.621498	0.090288	0.891995
	H81	H	0.384966	0.083054	0.094072
	H82	H	0.622935	0.913184	0.078877
	H83	H	0.388749	0.905689	0.896831
	H84	H	0.623361	0.908268	0.072861
	H85	H	0.383521	0.104760	0.077644
	H86	H	0.624367	0.097323	0.888018
	H87	H	0.387250	0.912171	0.885620
	H88	H	0.924679	0.094233	0.597979
	H89	H	0.101160	0.101925	0.365439
	H90	H	0.102363	0.917972	0.599070
	H91	H	0.918476	0.904031	0.369556
	H92	H	0.090292	0.614413	0.898474
	H93	H	0.093419	0.383159	0.074544
	H94	H	0.916429	0.620492	0.083963
	H95	H	0.915799	0.386772	0.894212
	H96	H	0.410230	0.121061	0.577519
	H97	H	0.597242	0.882037	0.581151
	H98	H	0.601175	0.121767	0.382540
	H99	H	0.418721	0.883770	0.389290
	H100	H	0.591491	0.409040	0.099819
	H101	H	0.602458	0.596774	0.865770
	H102	H	0.419950	0.601205	0.099958
	H103	H	0.409633	0.395635	0.865179
	H104	H	0.121462	0.590689	0.396981
	H105	H	0.888327	0.595912	0.574855
	H106	H	0.126061	0.409704	0.582655
	H107	H	0.888575	0.412357	0.390207
	H108	H	0.918421	0.616614	0.074481
	H109	H	0.093693	0.382420	0.076257
	H110	H	0.110786	0.621019	0.896785
	H111	H	0.902855	0.382819	0.892185
	H112	H	0.088687	0.910290	0.598064
	H113	H	0.108651	0.090749	0.366572
	H114	H	0.911181	0.099990	0.603736
	H115	H	0.908897	0.899047	0.366538
	H116	H	0.622333	0.097895	0.896216
	H117	H	0.393091	0.081269	0.067935
	H118	H	0.620472	0.915925	0.071969
	H119	H	0.384346	0.900352	0.885981
	C120	C	0.385329	0.010411	0.606071
	C121	C	0.628140	0.992009	0.606753
	C122	C	0.628783	0.009832	0.362664
	C123	C	0.386203	0.992309	0.363313
	C124	C	0.623671	0.380654	-0.007735
	C125	C	0.628430	0.625206	0.975066
	C126	C	0.383662	0.621403	-0.007870
	C127	C	0.379442	0.375544	0.975215
	C128	C	0.014569	0.621640	0.362958
	C129	C	0.996767	0.622991	0.607059
	C130	C	0.014776	0.381018	0.605302
	C131	C	0.996828	0.379473	0.361976
	C132	C	0.882794	0.510752	0.106316
	C133	C	0.125120	0.491439	0.105352
	C134	C	0.126347	0.509936	0.862567
	C135	C	0.883309	0.492840	0.862656
	C136	C	0.126914	0.880552	0.492851
	C137	C	0.130915	0.125199	0.475342
	C138	C	0.886297	0.121392	0.492110
	C139	C	0.882856	0.876497	0.476228
	C140	C	0.513340	0.120967	0.863864
	C141	C	0.495742	0.122365	0.107818
	C142	C	0.514170	0.880796	0.104930
	C143	C	0.495807	0.878752	0.860997
	C144	C	0.384005	0.886660	0.660280
	C145	C	0.627982	0.116104	0.662217
	C146	C	0.628215	0.887591	0.303936
	C147	C	0.388294	0.115579	0.308128
	C148	C	0.679562	0.382248	0.869477
	C149	C	0.683338	0.624556	0.097745
	C150	C	0.329656	0.616443	0.868990
	C151	C	0.323183	0.379045	0.097732
	C152	C	0.890318	0.674639	0.367067
	C153	C	0.120934	0.680230	0.604647
	C154	C	0.891185	0.321984	0.603223
	C155	C	0.121472	0.326695	0.363544
	C156	C	0.890757	0.379091	0.661324
	C157	C	0.120152	0.623989	0.662751
	C158	C	0.890893	0.619718	0.308031
	C159	C	0.119582	0.381061	0.303702
	C160	C	0.386613	0.674863	0.868938
	C161	C	0.625852	0.682401	0.097402
	C162	C	0.620902	0.324171	0.869654
	C163	C	0.380158	0.321443	0.098201
	C164	C	0.681639	0.885689	0.364051
	C165	C	0.685092	0.116170	0.604246
	C166	C	0.327584	0.886865	0.603188
	C167	C	0.331792	0.116005	0.365438
	C168	C	0.880726	0.387031	0.161185
	C169	C	0.126122	0.615337	0.161359
	C170	C	0.123249	0.386646	0.805775
	C171	C	0.886710	0.616743	0.807990
	C172	C	0.182492	0.882304	0.370117
	C173	C	0.186042	0.124121	0.598188
	C174	C	0.830978	0.117677	0.369305
	C175	C	0.827197	0.880549	0.598906
	C176	C	0.387721	0.171706	0.867490
	C177	C	0.618762	0.181623	0.104707
	C178	C	0.389731	0.824022	0.102652
	C179	C	0.620574	0.826078	0.864091
	C180	C	0.391153	0.879384	0.162947
	C181	C	0.620080	0.124096	0.161482
	C182	C	0.389741	0.117538	0.807612
	C183	C	0.620290	0.882211	0.806064
	C184	C	0.888199	0.175838	0.369095
	C185	C	0.128616	0.182417	0.597879
	C186	C	0.125361	0.824042	0.370277
	C187	C	0.885059	0.822834	0.599219
	C188	C	0.177336	0.384813	0.865596
	C189	C	0.182449	0.615124	0.103391
	C190	C	0.824947	0.386674	0.102552
	C191	C	0.831121	0.617535	0.866507
	C192	C	0.409866	0.096628	0.585045
	C193	C	0.604277	0.905529	0.584432
	C194	C	0.607105	0.096036	0.385832
	C195	C	0.407835	0.906056	0.385620
	C196	C	0.601012	0.404183	0.077750
	C197	C	0.606113	0.601666	0.889419
	C198	C	0.405352	0.600602	0.078150
	C199	C	0.402432	0.396810	0.889632
	C200	C	0.101237	0.600119	0.384361
	C201	C	0.910195	0.598974	0.584998
	C202	C	0.100735	0.406222	0.582670
	C203	C	0.910618	0.400638	0.385392
	C204	C	0.907619	0.596623	0.084971
	C205	C	0.099989	0.405478	0.082566
	C206	C	0.105805	0.596552	0.885056
	C207	C	0.903862	0.406421	0.883856
	C208	C	0.104084	0.903683	0.578317
	C209	C	0.108338	0.101718	0.389855
	C210	C	0.909118	0.099740	0.577389
	C211	C	0.905585	0.897983	0.390277
	C212	C	0.600098	0.101007	0.885734
	C213	C	0.409409	0.097182	0.086309
	C214	C	0.600020	0.905269	0.081496
	C215	C	0.409248	0.899661	0.882864
	Zn216	Zn	0.505746	0.001075	0.734109
	Zn217	Zn	0.506847	0.001382	0.235507
	Zn218	Zn	0.755406	0.502400	-0.015599
	Zn219	Zn	0.253595	0.499397	-0.016019
	Zn220	Zn	0.006090	0.749697	0.484746
	Zn221	Zn	0.007085	0.252215	0.483196
	Zn222	Zn	0.005018	0.501927	0.734871
	Zn223	Zn	0.004788	0.500964	0.234184
	Zn224	Zn	0.504803	0.751917	-0.017277
	Zn225	Zn	0.502098	0.248933	-0.015051
	Zn226	Zn	0.755678	0.000055	0.483801
	Zn227	Zn	0.258064	0.001322	0.484246
	N228	N	0.419346	0.964650	0.662342
	N229	N	0.593321	0.037957	0.663956
	N230	N	0.595917	0.965913	0.302948
	N231	N	0.421304	0.037593	0.306511
	N232	N	0.681337	0.416686	0.946782
	N233	N	0.685023	0.589810	0.020602
	N234	N	0.327643	0.583766	0.946751
	N235	N	0.322583	0.412103	0.020187
	N236	N	0.968316	0.675920	0.400618
	N237	N	0.043058	0.679837	0.570999
	N238	N	0.969148	0.322987	0.569099
	N239	N	0.044221	0.325435	0.399062
	N240	N	0.968560	0.415107	0.662829
	N241	N	0.041850	0.589136	0.664457
	N242	N	0.969323	0.587431	0.305182
	N243	N	0.041073	0.413276	0.302686
	N244	N	0.419176	0.678281	0.946677
	N245	N	0.592431	0.682912	0.019909
	N246	N	0.587036	0.322967	0.947154
	N247	N	0.414274	0.319040	0.021010
	N248	N	0.682098	0.962654	0.400004
	N249	N	0.685218	0.037923	0.570391
	N250	N	0.328015	0.964815	0.570269
	N251	N	0.330203	0.038136	0.399036
	N252	N	0.915763	0.464846	0.163986
	N253	N	0.091106	0.537342	0.162637
	N254	N	0.092472	0.465429	0.803660
	N255	N	0.918432	0.538274	0.805403
	N256	N	0.183349	0.917042	0.447361
	N257	N	0.187670	0.089465	0.521003
	N258	N	0.829446	0.084684	0.446693
	N259	N	0.825712	0.913090	0.521196
	N260	N	0.465412	0.173896	0.902040
	N261	N	0.540421	0.180550	0.072055
	N262	N	0.467172	0.824861	0.067048
	N263	N	0.542186	0.823550	0.897341
	N264	N	0.469467	0.913813	0.164570
	N265	N	0.542272	0.088191	0.163785
	N266	N	0.468871	0.086954	0.804999
	N267	N	0.541738	0.914073	0.803861
	N268	N	0.921998	0.178353	0.446463
	N269	N	0.095227	0.183432	0.520346
	N270	N	0.091440	0.822936	0.447596
	N271	N	0.918668	0.820100	0.521764
	N272	N	0.179517	0.462619	0.900159
	N273	N	0.182151	0.537116	0.069348
	N274	N	0.826253	0.464592	0.068883
	N275	N	0.828578	0.539609	0.899734
	O276	O	0.569334	0.412242	0.387670
	H277	H	0.587141	0.417245	0.381298
	H278	H	0.560665	0.415070	0.392862
	O279	O	0.558946	0.549105	0.463166
	H280	H	0.547256	0.541432	0.453351
	H281	H	0.555654	0.546721	0.466253
	O282	O	1.479901	0.448849	-0.464221
	H283	H	1.474537	0.449828	-0.472263
	H284	H	1.480174	0.449616	-0.466106
	O285	O	0.967444	0.035279	1.063027
	H286	H	0.975028	0.039306	1.072955
	H287	H	0.953877	0.034631	1.069283
	O288	O	0.000711	1.084090	0.970400
	H289	H	0.001418	1.091466	0.967241
	H290	H	0.001525	1.081442	0.965272
	O291	O	0.619878	0.487949	0.420128
	H292	H	0.618823	0.492996	0.406062
	H293	H	0.634173	0.482858	0.411821
	O294	O	-0.074804	0.001021	0.903817
	H295	H	-0.069664	0.000953	0.895897
	H296	H	-0.076138	0.006429	0.904723
	O297	O	0.007101	-0.061019	1.002109
	H298	H	0.010418	-0.052348	1.003316
	H299	H	0.010862	-0.060667	1.008930
	O300	O	0.479685	0.550504	0.379530
	H301	H	0.480273	0.535879	0.383045
	H302	H	0.466464	0.562567	0.380793
	O303	O	0.053636	1.004369	-0.058930
	H304	H	0.052093	1.012596	-0.055386
	H305	H	0.060826	1.004362	-0.055993
	O306	O	0.075083	1.080879	0.974661
	H307	H	0.075858	1.080445	0.977458
	H308	H	0.067133	1.085842	0.986649
	O309	O	0.556579	0.544349	0.504868
	H310	H	0.546718	0.542856	0.494503
	H311	H	0.565483	0.546333	0.508615
	O312	O	0.012922	-0.065001	0.016621
	H313	H	0.014485	-0.064808	0.013267
	H314	H	0.016677	-0.053481	0.022134
	O315	O	0.937900	-0.020480	-0.044160
	H316	H	0.933477	-0.017500	-0.049750
	H317	H	0.930590	-0.032005	-0.043689
	O318	O	0.967441	1.014685	0.999630
	H319	H	0.958861	0.998035	0.991023
	H320	H	0.957863	1.015884	1.008177
	O321	O	0.426160	0.460895	1.506366
	H322	H	0.424304	0.459382	1.502829
	H323	H	0.430629	0.463573	1.503233
	O324	O	0.599149	0.342925	0.370383
	H325	H	0.604528	0.326978	0.367686
	H326	H	0.608890	0.354143	0.370250
	O327	O	0.481267	-0.640170	0.537085
	H328	H	0.475247	-0.648306	0.537727
	H329	H	0.479079	-0.637619	0.526812
	O330	O	0.560622	0.471518	0.564236
	H331	H	0.571537	0.479878	0.572305
	H332	H	0.551773	0.470966	0.564085
	O333	O	0.037130	0.914336	0.872401
	H334	H	0.054085	0.917615	0.875343
	H335	H	0.037428	0.903977	0.860108
	O336	O	0.015134	0.010025	-0.034045
	H337	H	0.012271	0.001210	-0.029597
	H338	H	0.013837	0.011560	-0.048191
	O339	O	0.607094	0.616522	0.484883
	H340	H	0.602278	0.605476	0.493402
	H341	H	0.619133	0.614819	0.485542
	O342	O	1.001828	1.055598	1.065735
	H343	H	1.003855	1.050678	1.075250
	H344	H	0.983051	1.060852	1.063534
	O345	O	1.027613	1.006687	0.023055
	H346	H	1.029993	1.007133	0.014516
	H347	H	1.027844	1.005440	0.022732
	O348	O	0.489730	0.529840	0.422357
	H349	H	0.500641	0.514999	0.423258
	H350	H	0.486213	0.522461	0.424375
	O351	O	0.428601	0.421183	0.515933
	H352	H	0.418394	0.420616	0.525390
	H353	H	0.418051	0.415459	0.527025
	O354	O	0.582866	0.609399	0.658393
	H355	H	0.588769	0.618198	0.673110
	H356	H	0.595853	0.620058	0.652315
	O357	O	0.583228	0.494246	1.542029
	H358	H	0.576893	0.500351	1.538835
	H359	H	0.577030	0.487760	1.535920
	O360	O	0.447106	0.607662	0.489363
	H361	H	0.450207	0.609192	0.490491
	H362	H	0.452329	0.612547	0.490261
	O363	O	1.012635	1.063397	1.012575
	H364	H	1.010361	1.055257	1.031132
	H365	H	1.022492	1.063115	1.018690
	O366	O	1.109393	0.940662	0.956383
	H367	H	1.111946	0.949352	0.967680
	H368	H	1.119244	0.936225	0.950160
	O369	O	0.913618	-0.015137	0.997667
	H370	H	0.921759	-0.016070	0.988753
	H371	H	0.905678	-0.020138	0.999889
	O372	O	-0.079947	-0.001990	-0.048657
	H373	H	-0.081581	0.005612	-0.060398
	H374	H	-0.080933	-0.005244	-0.049355
	O375	O	0.381552	-0.542641	0.387398
	H376	H	0.375634	-0.542895	0.391035
	H377	H	0.387990	-0.531604	0.391131
	O378	O	0.538599	0.547071	0.510549
	H379	H	0.532349	0.552350	0.519794
	H380	H	0.533692	0.544356	0.506915
	O381	O	0.413235	0.512844	0.457749
	H382	H	0.423643	0.517152	0.467210
	H383	H	0.417773	0.518463	0.464834
