data_Molecule from HDF5

_cell_length_a		16.435156
_cell_length_b		15.995097
_cell_length_c		16.235510
_cell_angle_alpha	89.953852
_cell_angle_beta	89.863247
_cell_angle_gamma	89.997869
_symmetry_space_group_name_H-M	'P 1'
_symmetry_Int_Tables_number		1

loop_
	_symmetry_equiv_pos_as_xyz
	x,y,z

loop_
	_atom_site_label
	_atom_site_type_symbol
	_atom_site_fract_x
	_atom_site_fract_y
	_atom_site_fract_z
	H0	H	0.398160	0.828745	0.708892
	H1	H	0.592878	0.162044	0.709097
	H2	H	0.592201	0.828642	0.285997
	H3	H	0.400689	0.162718	0.287914
	H4	H	0.712325	0.392765	0.834942
	H5	H	0.711176	0.597340	0.160914
	H6	H	0.277987	0.598676	0.835591
	H7	H	0.276912	0.392184	0.160384
	H8	H	0.831405	0.710450	0.401920
	H9	H	0.158569	0.707447	0.593478
	H10	H	0.830908	0.282129	0.595196
	H11	H	0.158152	0.283052	0.401811
	H12	H	0.831895	0.396510	0.714835
	H13	H	0.156736	0.596653	0.714388
	H14	H	0.832541	0.597010	0.281237
	H15	H	0.156561	0.394816	0.281397
	H16	H	0.400609	0.705263	0.832500
	H17	H	0.589387	0.707526	0.163207
	H18	H	0.589395	0.285004	0.832095
	H19	H	0.400652	0.286234	0.163464
	H20	H	0.712067	0.830128	0.396003
	H21	H	0.709416	0.160730	0.596797
	H22	H	0.279778	0.831039	0.600581
	H23	H	0.281142	0.160791	0.397207
	H24	H	0.897129	0.328929	0.210275
	H25	H	0.091197	0.661941	0.209311
	H26	H	0.090077	0.329124	0.786516
	H27	H	0.898913	0.662864	0.788462
	H28	H	0.213309	0.893739	0.335866
	H29	H	0.211345	0.097084	0.662003
	H30	H	0.780388	0.097624	0.335325
	H31	H	0.777150	0.891922	0.660557
	H32	H	0.330861	0.208868	0.902127
	H33	H	0.658012	0.208093	0.092969
	H34	H	0.329840	0.784193	0.093459
	H35	H	0.657662	0.782700	0.902595
	H36	H	0.332744	0.894618	0.216378
	H37	H	0.656833	0.096378	0.213228
	H38	H	0.332452	0.095327	0.780980
	H39	H	0.656938	0.895756	0.782389
	H40	H	0.901742	0.206182	0.332937
	H41	H	0.088832	0.206022	0.664429
	H42	H	0.090013	0.785466	0.332731
	H43	H	0.899985	0.785748	0.664471
	H44	H	0.209265	0.329826	0.897131
	H45	H	0.208051	0.661080	0.097089
	H46	H	0.778179	0.330684	0.100985
	H47	H	0.779720	0.660429	0.897682
	H48	H	0.402260	0.114477	0.587481
	H49	H	0.583909	0.876821	0.591957
	H50	H	0.586983	0.113977	0.405465
	H51	H	0.406618	0.879796	0.413979
	H52	H	0.584580	0.407420	0.111978
	H53	H	0.589134	0.581131	0.882279
	H54	H	0.391090	0.588394	0.118499
	H55	H	0.403423	0.401194	0.880589
	H56	H	0.109503	0.590966	0.406255
	H57	H	0.881762	0.584614	0.589920
	H58	H	0.112800	0.397185	0.596065
	H59	H	0.877510	0.393533	0.407329
	H60	H	0.107945	0.401516	0.586052
	H61	H	0.877592	0.587933	0.600149
	H62	H	0.109194	0.584375	0.402467
	H63	H	0.882719	0.409043	0.408268
	H64	H	0.401025	0.578443	0.112575
	H65	H	0.584788	0.590403	0.881168
	H66	H	0.587294	0.397757	0.116760
	H67	H	0.397340	0.401794	0.879293
	H68	H	0.592003	0.114327	0.408604
	H69	H	0.587757	0.877596	0.583923
	H70	H	0.401188	0.116509	0.591018
	H71	H	0.396108	0.874043	0.407550
	H72	H	0.909601	0.612186	0.090750
	H73	H	0.089926	0.377310	0.084188
	H74	H	0.090083	0.615574	0.905556
	H75	H	0.916818	0.381773	0.911552
	H76	H	0.097835	0.894432	0.621346
	H77	H	0.084252	0.091022	0.381892
	H78	H	0.902854	0.091219	0.616556
	H79	H	0.905240	0.907965	0.383383
	H80	H	0.611390	0.093850	0.902537
	H81	H	0.377517	0.088029	0.100785
	H82	H	0.612022	0.892333	0.090350
	H83	H	0.379894	0.905286	0.904625
	H84	H	0.605784	0.908658	0.084573
	H85	H	0.376951	0.094686	0.090977
	H86	H	0.607918	0.086123	0.906436
	H87	H	0.377513	0.902744	0.897622
	H88	H	0.895899	0.087160	0.617715
	H89	H	0.097043	0.092030	0.378469
	H90	H	0.094159	0.916089	0.613012
	H91	H	0.904190	0.899950	0.380818
	H92	H	0.086371	0.614230	0.905579
	H93	H	0.090692	0.373744	0.094255
	H94	H	0.896565	0.613049	0.082158
	H95	H	0.889675	0.376573	0.918572
	H96	H	0.404146	0.115073	0.590757
	H97	H	0.592874	0.874354	0.590875
	H98	H	0.592137	0.115939	0.402391
	H99	H	0.407232	0.875888	0.400773
	H100	H	0.594230	0.405910	0.116373
	H101	H	0.594574	0.589472	0.879583
	H102	H	0.405168	0.592785	0.115577
	H103	H	0.400098	0.407435	0.880467
	H104	H	0.111751	0.591036	0.398399
	H105	H	0.877728	0.596397	0.591193
	H106	H	0.108751	0.409304	0.596493
	H107	H	0.876098	0.403092	0.394312
	H108	H	0.896516	0.618222	0.096460
	H109	H	0.082412	0.377530	0.091261
	H110	H	0.088190	0.614446	0.909297
	H111	H	0.898344	0.370490	0.891077
	H112	H	0.077384	0.899913	0.613946
	H113	H	0.092003	0.080236	0.383565
	H114	H	0.901508	0.082724	0.613846
	H115	H	0.897314	0.905658	0.379848
	H116	H	0.610355	0.086418	0.897912
	H117	H	0.381734	0.083484	0.091021
	H118	H	0.611091	0.906591	0.101081
	H119	H	0.377310	0.897568	0.903734
	C120	C	0.374601	0.005000	0.618518
	C121	C	0.616452	0.986418	0.617854
	C122	C	0.618041	0.004544	0.376596
	C123	C	0.375246	0.986564	0.378192
	C124	C	0.617199	0.373806	0.006665
	C125	C	0.616905	0.616397	0.989408
	C126	C	0.372181	0.616249	0.006903
	C127	C	0.372456	0.374313	0.988958
	C128	C	0.002873	0.618132	0.374994
	C129	C	0.986718	0.617944	0.620962
	C130	C	0.002513	0.373559	0.621602
	C131	C	0.986242	0.372982	0.375294
	C132	C	0.872718	0.504335	0.119251
	C133	C	0.115543	0.486297	0.118170
	C134	C	0.115843	0.504626	0.877824
	C135	C	0.873770	0.486556	0.878147
	C136	C	0.118003	0.874229	0.507439
	C137	C	0.117877	0.116943	0.489879
	C138	C	0.873301	0.116338	0.507024
	C139	C	0.873917	0.874813	0.489843
	C140	C	0.502556	0.117344	0.874668
	C141	C	0.486136	0.117712	0.120773
	C142	C	0.502378	0.873319	0.121073
	C143	C	0.485977	0.873136	0.874596
	C144	C	0.377348	0.878900	0.672736
	C145	C	0.613469	0.112036	0.672412
	C146	C	0.613839	0.878762	0.322289
	C147	C	0.379094	0.112492	0.324244
	C148	C	0.672996	0.374263	0.883490
	C149	C	0.672000	0.615856	0.112485
	C150	C	0.317217	0.616106	0.883670
	C151	C	0.316390	0.374289	0.111895
	C152	C	0.880298	0.673206	0.379822
	C153	C	0.109532	0.671138	0.615472
	C154	C	0.879885	0.319312	0.617025
	C155	C	0.109140	0.319579	0.380326
	C156	C	0.880444	0.376022	0.676643
	C157	C	0.108555	0.615996	0.675640
	C158	C	0.880633	0.616217	0.320275
	C159	C	0.108301	0.375274	0.320179
	C160	C	0.378096	0.669436	0.882253
	C161	C	0.611646	0.670724	0.113653
	C162	C	0.611744	0.320914	0.882023
	C163	C	0.377964	0.321582	0.113791
	C164	C	0.673159	0.879380	0.377264
	C165	C	0.671634	0.111399	0.616633
	C166	C	0.318318	0.880101	0.618873
	C167	C	0.319731	0.111428	0.378513
	C168	C	0.876236	0.378833	0.173543
	C169	C	0.111801	0.612031	0.172117
	C170	C	0.111684	0.378740	0.823641
	C171	C	0.877545	0.612750	0.824655
	C172	C	0.173927	0.874972	0.384218
	C173	C	0.172617	0.115991	0.613429
	C174	C	0.818831	0.116083	0.383928
	C175	C	0.817200	0.874473	0.612515
	C176	C	0.379683	0.171615	0.879842
	C177	C	0.609191	0.171435	0.115250
	C178	C	0.379326	0.819684	0.116627
	C179	C	0.608762	0.819023	0.879896
	C180	C	0.380775	0.874926	0.177518
	C181	C	0.608508	0.116060	0.175167
	C182	C	0.380523	0.115350	0.819336
	C183	C	0.608553	0.875473	0.820428
	C184	C	0.879221	0.169960	0.382641
	C185	C	0.111549	0.169977	0.614696
	C186	C	0.112839	0.820823	0.382721
	C187	C	0.878106	0.821400	0.614457
	C188	C	0.171105	0.379508	0.878379
	C189	C	0.170198	0.611464	0.116854
	C190	C	0.817319	0.379677	0.118955
	C191	C	0.818627	0.611476	0.879068
	C192	C	0.396131	0.092669	0.596233
	C193	C	0.594591	0.899004	0.595551
	C194	C	0.596641	0.092123	0.399004
	C195	C	0.396815	0.899154	0.400806
	C196	C	0.595303	0.396698	0.092758
	C197	C	0.595907	0.593649	0.903458
	C198	C	0.393036	0.593473	0.093273
	C199	C	0.393836	0.396748	0.902441
	C200	C	0.088075	0.595621	0.396030
	C201	C	0.901144	0.596130	0.600117
	C202	C	0.087770	0.396099	0.599594
	C203	C	0.900824	0.395271	0.396836
	C204	C	0.894497	0.591998	0.096506
	C205	C	0.094193	0.398706	0.096103
	C206	C	0.094387	0.592078	0.900187
	C207	C	0.895354	0.399022	0.900444
	C208	C	0.096276	0.896747	0.593680
	C209	C	0.097223	0.094474	0.403593
	C210	C	0.894070	0.093537	0.593843
	C211	C	0.895882	0.897746	0.403582
	C212	C	0.587842	0.095363	0.895860
	C213	C	0.400862	0.095282	0.100183
	C214	C	0.587639	0.895983	0.098627
	C215	C	0.400343	0.895155	0.895808
	Zn216	Zn	0.494940	-0.004804	0.744617
	Zn217	Zn	0.495229	-0.004489	0.250417
	Zn218	Zn	0.745928	0.495046	-0.002151
	Zn219	Zn	0.243873	0.495442	-0.002252
	Zn220	Zn	-0.005047	0.746950	0.498846
	Zn221	Zn	-0.005297	0.244131	0.498771
	Zn222	Zn	-0.005715	0.496395	0.750900
	Zn223	Zn	-0.005715	0.495087	0.245362
	Zn224	Zn	0.493431	0.744166	-0.002021
	Zn225	Zn	0.494348	0.246782	-0.001942
	Zn226	Zn	0.745248	-0.005034	0.498078
	Zn227	Zn	0.247260	-0.004084	0.498772
	N228	N	0.411578	0.957386	0.672610
	N229	N	0.579932	0.033404	0.673225
	N230	N	0.580376	0.957657	0.321607
	N231	N	0.413035	0.033873	0.324085
	N232	N	0.676508	0.406417	0.962131
	N233	N	0.675349	0.582925	0.034307
	N234	N	0.313445	0.583842	0.962228
	N235	N	0.312947	0.406402	0.033288
	N236	N	0.957217	0.674536	0.413354
	N237	N	0.032720	0.672292	0.581875
	N238	N	0.956812	0.317851	0.583304
	N239	N	0.032212	0.317970	0.413867
	N240	N	0.957707	0.408967	0.679572
	N241	N	0.031149	0.583663	0.679137
	N242	N	0.957888	0.583009	0.316979
	N243	N	0.030924	0.407926	0.317147
	N244	N	0.411655	0.669529	0.959877
	N245	N	0.578029	0.671447	0.036142
	N246	N	0.577858	0.320328	0.959638
	N247	N	0.412136	0.321362	0.036289
	N248	N	0.675964	0.958592	0.410173
	N249	N	0.673493	0.032295	0.583248
	N250	N	0.316537	0.959366	0.585727
	N251	N	0.317301	0.032141	0.411422
	N252	N	0.910088	0.457518	0.173705
	N253	N	0.078524	0.533231	0.173268
	N254	N	0.078098	0.457532	0.823029
	N255	N	0.911162	0.533896	0.823789
	N256	N	0.177007	0.907558	0.462670
	N257	N	0.176718	0.083688	0.534896
	N258	N	0.815249	0.083270	0.462287
	N259	N	0.814358	0.906633	0.533912
	N260	N	0.456414	0.173093	0.913437
	N261	N	0.532216	0.172718	0.082220
	N262	N	0.455890	0.818514	0.082301
	N263	N	0.531564	0.817494	0.912828
	N264	N	0.458469	0.907381	0.180397
	N265	N	0.531137	0.083163	0.178771
	N266	N	0.457932	0.082456	0.816187
	N267	N	0.531311	0.908539	0.817215
	N268	N	0.912320	0.170296	0.460348
	N269	N	0.078418	0.170713	0.536999
	N270	N	0.078928	0.820123	0.460290
	N271	N	0.912829	0.821346	0.536987
	N272	N	0.173796	0.458823	0.911118
	N273	N	0.172804	0.532190	0.084184
	N274	N	0.815027	0.458904	0.085966
	N275	N	0.816398	0.532154	0.911766
	O276	O	0.548408	0.512233	0.529633
	H277	H	0.548393	0.526500	0.518999
	H278	H	0.549393	0.505146	0.529774
	O279	O	0.483206	0.493964	0.431487
	H280	H	0.485001	0.494908	0.432029
	H281	H	0.479211	0.491364	0.441151
	O282	O	0.515556	0.497252	0.485335
	H283	H	0.503667	0.494110	0.502656
	H284	H	0.520325	0.506495	0.485356
	O285	O	-0.069243	1.054428	1.049596
	H286	H	-0.072395	1.059284	1.057557
	H287	H	-0.081430	1.066768	1.055743
	O288	O	0.403482	0.443244	0.503145
	H289	H	0.406074	0.442030	0.507795
	H290	H	0.408671	0.448225	0.495645
	O291	O	-0.096782	-0.011630	1.046262
	H292	H	-0.100091	-0.011115	1.036012
	H293	H	-0.101795	-0.009528	1.053559
	O294	O	0.943326	0.999898	1.084221
	H295	H	0.944311	0.997784	1.086662
	H296	H	0.947143	0.992303	1.087453
	O297	O	0.601423	0.478540	0.474694
	H298	H	0.607409	0.479586	0.468716
	H299	H	0.603083	0.479015	0.474458
	O300	O	0.512918	0.517195	0.458272
	H301	H	0.519526	0.509707	0.453558
	H302	H	0.490042	0.518771	0.456315
	O303	O	0.510905	0.486341	0.531279
	H304	H	0.517655	0.493722	0.533368
	H305	H	0.504201	0.493851	0.515950
	O306	O	1.434573	0.553896	0.445973
	H307	H	1.437074	0.560279	0.451940
	H308	H	1.436469	0.546986	0.440091
	O309	O	0.447504	0.531549	0.475593
	H310	H	0.440862	0.524663	0.479160
	H311	H	0.451161	0.544650	0.472741
	O312	O	0.437341	0.456586	0.482800
	H313	H	0.436182	0.455610	0.488801
	H314	H	0.440463	0.443823	0.486839
	O315	O	0.929943	0.005604	1.043198
	H316	H	0.927776	0.002804	1.042669
	H317	H	0.926553	0.013092	1.041001
	O318	O	-0.070781	-0.011594	0.072614
	H319	H	-0.073905	-0.009894	0.078477
	H320	H	-0.072342	-0.014880	0.069131
	O321	O	0.436691	0.532148	0.453818
	H322	H	0.435165	0.522429	0.455186
	H323	H	0.433496	0.525541	0.454723
	O324	O	0.943580	0.019992	0.003197
	H325	H	0.947538	0.030828	0.000482
	H326	H	0.942613	0.013022	-0.008648
	O327	O	0.952027	0.987779	0.031542
	H328	H	0.960275	0.990559	0.030979
	H329	H	0.946258	0.976058	0.044951
	O330	O	0.472972	0.512804	0.441370
	H331	H	0.472978	0.512395	0.442798
	H332	H	0.479597	0.506446	0.433793
	O333	O	0.494936	0.493938	0.494109
	H334	H	0.487493	0.494224	0.492044
	H335	H	0.495034	0.498165	0.485777
