data_Molecule from HDF5

_cell_length_a		16.228208
_cell_length_b		16.329810
_cell_length_c		16.134884
_cell_angle_alpha	89.869827
_cell_angle_beta	90.043752
_cell_angle_gamma	89.821320
_symmetry_space_group_name_H-M	'P 1'
_symmetry_Int_Tables_number		1

loop_
	_symmetry_equiv_pos_as_xyz
	x,y,z

loop_
	_atom_site_label
	_atom_site_type_symbol
	_atom_site_fract_x
	_atom_site_fract_y
	_atom_site_fract_z
	H0	H	0.402069	0.836092	0.713476
	H1	H	0.595893	0.163416	0.714473
	H2	H	0.595663	0.835669	0.288083
	H3	H	0.400227	0.163250	0.284929
	H4	H	0.711011	0.402703	0.833323
	H5	H	0.710876	0.596896	0.164501
	H6	H	0.284253	0.600434	0.833581
	H7	H	0.286171	0.403616	0.163471
	H8	H	0.834836	0.717438	0.397074
	H9	H	0.162196	0.715731	0.597684
	H10	H	0.834123	0.285051	0.598693
	H11	H	0.160922	0.282875	0.396427
	H12	H	0.832993	0.402646	0.712462
	H13	H	0.162502	0.598387	0.711924
	H14	H	0.833149	0.597659	0.286282
	H15	H	0.163650	0.404725	0.287223
	H16	H	0.397823	0.716535	0.834862
	H17	H	0.596314	0.712845	0.164274
	H18	H	0.598995	0.284820	0.834556
	H19	H	0.399280	0.286576	0.163299
	H20	H	0.713694	0.836648	0.402369
	H21	H	0.712548	0.164162	0.599391
	H22	H	0.283177	0.837186	0.600850
	H23	H	0.282021	0.162773	0.399295
	H24	H	0.901379	0.337189	0.212930
	H25	H	0.095036	0.665140	0.210430
	H26	H	0.097812	0.337195	0.783364
	H27	H	0.899074	0.664391	0.783513
	H28	H	0.211845	0.902508	0.334598
	H29	H	0.211353	0.098368	0.664200
	H30	H	0.782953	0.099638	0.334581
	H31	H	0.788292	0.903970	0.665307
	H32	H	0.334355	0.216375	0.899080
	H33	H	0.661965	0.214525	0.099641
	H34	H	0.334394	0.785299	0.099339
	H35	H	0.661553	0.783974	0.899752
	H36	H	0.333686	0.903340	0.212333
	H37	H	0.662637	0.096256	0.212770
	H38	H	0.333185	0.097376	0.785974
	H39	H	0.662900	0.902520	0.787312
	H40	H	0.897724	0.215395	0.333900
	H41	H	0.098187	0.216171	0.662864
	H42	H	0.096903	0.788343	0.333455
	H43	H	0.898113	0.783902	0.661798
	H44	H	0.215301	0.338212	0.898509
	H45	H	0.211786	0.664732	0.095981
	H46	H	0.784137	0.337282	0.097950
	H47	H	0.781836	0.663575	0.898567
	H48	H	0.402379	0.116726	0.593550
	H49	H	0.600356	0.881958	0.593387
	H50	H	0.585833	0.115877	0.401779
	H51	H	0.411222	0.887818	0.413408
	H52	H	0.596357	0.414908	0.115320
	H53	H	0.585915	0.591590	0.883344
	H54	H	0.416595	0.584341	0.110889
	H55	H	0.405166	0.408222	0.880475
	H56	H	0.118477	0.599092	0.402930
	H57	H	0.880273	0.597246	0.590456
	H58	H	0.111726	0.417581	0.591566
	H59	H	0.880599	0.409125	0.403311
	H60	H	0.118145	0.401018	0.596006
	H61	H	0.881945	0.593752	0.586433
	H62	H	0.114931	0.596780	0.408597
	H63	H	0.880361	0.404251	0.406781
	H64	H	0.408036	0.608224	0.120237
	H65	H	0.590115	0.595891	0.879368
	H66	H	0.581469	0.406296	0.113899
	H67	H	0.407794	0.408470	0.881190
	H68	H	0.589578	0.115036	0.413588
	H69	H	0.591603	0.882739	0.598987
	H70	H	0.407238	0.115765	0.592580
	H71	H	0.395428	0.881091	0.410496
	H72	H	0.908231	0.614795	0.086414
	H73	H	0.089391	0.386064	0.090814
	H74	H	0.093844	0.618979	0.900610
	H75	H	0.907597	0.386846	0.910922
	H76	H	0.090370	0.908779	0.615872
	H77	H	0.085490	0.089186	0.384260
	H78	H	0.903382	0.105299	0.621094
	H79	H	0.903599	0.915214	0.382445
	H80	H	0.613568	0.088409	0.905824
	H81	H	0.377666	0.097593	0.098896
	H82	H	0.616261	0.910060	0.098827
	H83	H	0.381979	0.914052	0.905308
	H84	H	0.619152	0.896847	0.095042
	H85	H	0.382004	0.099293	0.085700
	H86	H	0.617232	0.097287	0.904322
	H87	H	0.377851	0.902911	0.902652
	H88	H	0.896617	0.087017	0.617435
	H89	H	0.088252	0.097980	0.380355
	H90	H	0.088446	0.904670	0.616829
	H91	H	0.911640	0.905480	0.381149
	H92	H	0.086873	0.616092	0.904279
	H93	H	0.096742	0.383787	0.090077
	H94	H	0.895257	0.619220	0.089850
	H95	H	0.898955	0.382472	0.904780
	H96	H	0.404729	0.116008	0.588904
	H97	H	0.591794	0.885446	0.588927
	H98	H	0.597587	0.118374	0.404794
	H99	H	0.406752	0.881789	0.398359
	H100	H	0.595752	0.398913	0.120943
	H101	H	0.591924	0.590096	0.881324
	H102	H	0.391076	0.587029	0.119125
	H103	H	0.406101	0.405876	0.879345
	H104	H	0.115151	0.592766	0.402407
	H105	H	0.881394	0.592132	0.591370
	H106	H	0.111498	0.404034	0.579567
	H107	H	0.882470	0.409230	0.408536
	H108	H	0.905815	0.618795	0.099498
	H109	H	0.092680	0.383414	0.097057
	H110	H	0.094639	0.616742	0.909072
	H111	H	0.908767	0.383698	0.900805
	H112	H	0.093279	0.905825	0.618608
	H113	H	0.094940	0.090566	0.380292
	H114	H	0.915470	0.091601	0.612644
	H115	H	0.899291	0.904701	0.377463
	H116	H	0.613228	0.094947	0.912641
	H117	H	0.382742	0.087085	0.091963
	H118	H	0.612907	0.906671	0.085908
	H119	H	0.382453	0.905078	0.914822
	C120	C	0.376809	0.008445	0.621191
	C121	C	0.621354	0.991798	0.622307
	C122	C	0.619743	0.008060	0.378533
	C123	C	0.375628	0.991349	0.377840
	C124	C	0.619976	0.378221	0.007396
	C125	C	0.618608	0.621141	0.990354
	C126	C	0.376584	0.622223	0.007773
	C127	C	0.377376	0.379299	0.989631
	C128	C	0.006993	0.623558	0.376375
	C129	C	0.990055	0.622581	0.618717
	C130	C	0.005658	0.379166	0.619158
	C131	C	0.989673	0.379107	0.376872
	C132	C	0.876152	0.509293	0.120383
	C133	C	0.120508	0.492657	0.120402
	C134	C	0.120399	0.509225	0.876004
	C135	C	0.876162	0.492147	0.876693
	C136	C	0.119185	0.879015	0.507704
	C137	C	0.119282	0.121999	0.490187
	C138	C	0.876164	0.122774	0.508037
	C139	C	0.877158	0.879626	0.489815
	C140	C	0.506357	0.122220	0.878130
	C141	C	0.489556	0.122035	0.121109
	C142	C	0.507017	0.877273	0.121626
	C143	C	0.489463	0.878647	0.878816
	C144	C	0.380435	0.885315	0.676507
	C145	C	0.617140	0.114751	0.676929
	C146	C	0.616704	0.884769	0.324752
	C147	C	0.379189	0.114321	0.322712
	C148	C	0.674053	0.381634	0.882859
	C149	C	0.673722	0.618180	0.114833
	C150	C	0.321724	0.620268	0.883171
	C151	C	0.322746	0.382299	0.113989
	C152	C	0.883384	0.678564	0.378004
	C153	C	0.113367	0.677508	0.617122
	C154	C	0.882623	0.323687	0.617987
	C155	C	0.112588	0.322448	0.377744
	C156	C	0.882130	0.382341	0.674417
	C157	C	0.113616	0.619142	0.673896
	C158	C	0.882450	0.618825	0.323072
	C159	C	0.113879	0.382991	0.323240
	C160	C	0.378114	0.678032	0.883815
	C161	C	0.616676	0.675522	0.114701
	C162	C	0.618286	0.322971	0.883508
	C163	C	0.379105	0.324392	0.114026
	C164	C	0.675252	0.885242	0.381798
	C165	C	0.675284	0.114951	0.619912
	C166	C	0.321549	0.885800	0.620140
	C167	C	0.320204	0.114158	0.379363
	C168	C	0.880181	0.386057	0.175384
	C169	C	0.116527	0.615970	0.173858
	C170	C	0.117891	0.386075	0.821227
	C171	C	0.878602	0.615542	0.821700
	C172	C	0.174745	0.881878	0.383803
	C173	C	0.174408	0.119353	0.614703
	C174	C	0.820878	0.120129	0.383506
	C175	C	0.824443	0.882969	0.615099
	C176	C	0.383206	0.178281	0.878953
	C177	C	0.613207	0.176426	0.119371
	C178	C	0.383331	0.823124	0.118921
	C179	C	0.612924	0.822910	0.880449
	C180	C	0.382932	0.881724	0.175288
	C181	C	0.613565	0.117552	0.175492
	C182	C	0.382663	0.119163	0.822712
	C183	C	0.613640	0.881901	0.824702
	C184	C	0.877706	0.177443	0.383167
	C185	C	0.117873	0.177751	0.614157
	C186	C	0.117142	0.825605	0.382960
	C187	C	0.878894	0.823224	0.613510
	C188	C	0.176373	0.386594	0.878194
	C189	C	0.174593	0.615801	0.116697
	C190	C	0.822034	0.385979	0.118098
	C191	C	0.820035	0.614928	0.878513
	C192	C	0.398531	0.094004	0.598476
	C193	C	0.600533	0.905581	0.600503
	C194	C	0.597603	0.094194	0.400162
	C195	C	0.397964	0.905623	0.400700
	C196	C	0.597668	0.400131	0.094240
	C197	C	0.596046	0.599007	0.903671
	C198	C	0.398761	0.599655	0.094318
	C199	C	0.399850	0.401100	0.902928
	C200	C	0.093798	0.602512	0.398359
	C201	C	0.903533	0.600881	0.596038
	C202	C	0.091540	0.401225	0.595914
	C203	C	0.903455	0.401054	0.399598
	C204	C	0.896905	0.595219	0.098372
	C205	C	0.099299	0.406737	0.098935
	C206	C	0.098250	0.595046	0.898086
	C207	C	0.898579	0.406566	0.898868
	C208	C	0.097121	0.900052	0.594658
	C209	C	0.096449	0.099346	0.403968
	C210	C	0.898499	0.101146	0.594491
	C211	C	0.898652	0.901808	0.402865
	C212	C	0.592585	0.100160	0.900996
	C213	C	0.403240	0.101014	0.098667
	C214	C	0.593691	0.898290	0.099719
	C215	C	0.403086	0.900892	0.900970
	Zn216	Zn	0.498276	-0.000213	0.750162
	Zn217	Zn	0.498325	-0.000428	0.249117
	Zn218	Zn	0.746987	0.500339	-0.000975
	Zn219	Zn	0.249354	0.500679	-0.001788
	Zn220	Zn	-0.001946	0.751613	0.497680
	Zn221	Zn	-0.002586	0.249903	0.498584
	Zn222	Zn	-0.002228	0.500764	0.747615
	Zn223	Zn	-0.001512	0.501280	0.249098
	Zn224	Zn	0.497767	0.749532	-0.000828
	Zn225	Zn	0.498129	0.251038	-0.000609
	Zn226	Zn	0.749468	0.000675	0.499566
	Zn227	Zn	0.246887	-0.000241	0.499817
	N228	N	0.414293	0.962422	0.676891
	N229	N	0.584368	0.037180	0.678589
	N230	N	0.583138	0.962190	0.322564
	N231	N	0.412803	0.036986	0.321615
	N232	N	0.675269	0.415178	0.960975
	N233	N	0.674971	0.584852	0.036453
	N234	N	0.320752	0.585968	0.961148
	N235	N	0.321613	0.415747	0.035655
	N236	N	0.961900	0.681668	0.410246
	N237	N	0.035277	0.679783	0.583625
	N238	N	0.960401	0.321722	0.584274
	N239	N	0.034308	0.319800	0.410472
	N240	N	0.959705	0.416115	0.675178
	N241	N	0.035952	0.585703	0.674965
	N242	N	0.960354	0.585354	0.321894
	N243	N	0.036421	0.417465	0.322829
	N244	N	0.411424	0.679376	0.962176
	N245	N	0.583378	0.677667	0.036329
	N246	N	0.585462	0.320461	0.962112
	N247	N	0.412418	0.322300	0.035746
	N248	N	0.677217	0.962941	0.414544
	N249	N	0.678052	0.037425	0.586547
	N250	N	0.318850	0.963407	0.586561
	N251	N	0.318130	0.036695	0.413159
	N252	N	0.912873	0.463714	0.177185
	N253	N	0.083729	0.538469	0.176354
	N254	N	0.083981	0.463502	0.819603
	N255	N	0.912818	0.538351	0.820387
	N256	N	0.176064	0.914400	0.462446
	N257	N	0.175387	0.085496	0.536684
	N258	N	0.819541	0.086937	0.461947
	N259	N	0.823320	0.917360	0.537071
	N260	N	0.461195	0.180249	0.912512
	N261	N	0.535243	0.179057	0.085891
	N262	N	0.461679	0.820124	0.086436
	N263	N	0.534743	0.820779	0.913275
	N264	N	0.460902	0.914583	0.177152
	N265	N	0.535648	0.084550	0.176766
	N266	N	0.460289	0.085119	0.822066
	N267	N	0.535971	0.916033	0.823663
	N268	N	0.911425	0.179266	0.461359
	N269	N	0.084529	0.179667	0.535775
	N270	N	0.083510	0.823552	0.461083
	N271	N	0.911070	0.821262	0.534750
	N272	N	0.178229	0.464050	0.911470
	N273	N	0.177304	0.538032	0.084111
	N274	N	0.819417	0.463445	0.084620
	N275	N	0.818359	0.537339	0.912155
	O276	O	0.460866	0.453852	0.451884
	H277	H	0.458007	0.454612	0.460913
	H278	H	0.456662	0.453093	0.461494
	O279	O	0.520513	0.495334	0.436036
	H280	H	0.513370	0.497652	0.430281
	H281	H	0.515960	0.493917	0.425832
	O282	O	0.435366	0.500141	0.566535
	H283	H	0.433722	0.490065	0.564857
	H284	H	0.431194	0.491630	0.564919
	O285	O	-0.044151	0.994359	1.014475
	H286	H	-0.041277	0.998443	1.007403
	H287	H	-0.044878	0.991533	1.016704
	O288	O	0.445675	0.490586	0.549948
	H289	H	0.441358	0.497866	0.559017
	H290	H	0.458587	0.489116	0.549678
	O291	O	-0.010038	0.024382	1.033314
	H292	H	-0.007136	0.019873	1.034791
	H293	H	-0.008090	0.025986	1.034490
	O294	O	0.488383	0.493744	0.522881
	H295	H	0.488442	0.479515	0.533520
	H296	H	0.487376	0.500277	0.530697
	O297	O	0.486848	0.482778	0.463351
	H298	H	0.483954	0.488260	0.468187
	H299	H	0.483271	0.486215	0.463066
	O300	O	0.455570	0.423552	0.497102
	H301	H	0.455468	0.424626	0.502725
	H302	H	0.454425	0.428952	0.495169
	O303	O	0.492990	0.494513	0.563160
	H304	H	0.488547	0.490809	0.555747
	H305	H	0.507669	0.491789	0.565950
	O306	O	1.244266	0.289949	0.741985
	H307	H	1.243406	0.281443	0.737494
	H308	H	1.242771	0.284578	0.749175
	O309	O	0.501983	0.537839	0.549405
	H310	H	0.497912	0.535916	0.553319
	H311	H	0.498984	0.547492	0.549591
	O312	O	0.489070	0.540210	0.529223
	H313	H	0.487623	0.531594	0.527927
	H314	H	0.492373	0.554613	0.531131
	O315	O	0.998887	0.054277	0.981925
	H316	H	0.989008	0.051154	0.979252
	H317	H	0.989865	0.064755	0.978036
	O318	O	-0.022696	0.036302	0.025519
	H319	H	-0.024900	0.040645	0.020170
	H320	H	-0.021835	0.035784	0.024555
	O321	O	0.484602	0.434070	0.493169
	H322	H	0.486418	0.432082	0.486852
	H323	H	0.482873	0.449823	0.484992
	O324	O	0.946296	0.069569	0.019674
	H325	H	0.936845	0.083245	0.021764
	H326	H	0.954129	0.062762	0.023102
	O327	O	0.967054	1.045443	0.006872
	H328	H	0.968695	1.047066	0.018767
	H329	H	0.973356	1.046091	-0.000302
	O330	O	0.489370	0.503993	0.439532
	H331	H	0.486178	0.494468	0.441416
	H332	H	0.482998	0.503794	0.444360
	O333	O	0.512857	0.436741	0.525473
	H334	H	0.524130	0.430519	0.521906
	H335	H	0.512770	0.440422	0.522998
