data_Molecule from HDF5

_cell_length_a		16.197692
_cell_length_b		16.352160
_cell_length_c		16.076014
_cell_angle_alpha	90.023687
_cell_angle_beta	90.845666
_cell_angle_gamma	90.617910
_symmetry_space_group_name_H-M	'P 1'
_symmetry_Int_Tables_number		1

loop_
	_symmetry_equiv_pos_as_xyz
	x,y,z

loop_
	_atom_site_label
	_atom_site_type_symbol
	_atom_site_fract_x
	_atom_site_fract_y
	_atom_site_fract_z
	H0	H	0.399977	0.837139	0.710995
	H1	H	0.603041	0.163121	0.714917
	H2	H	0.590641	0.835208	0.287070
	H3	H	0.398123	0.162452	0.279686
	H4	H	0.705828	0.403819	0.831729
	H5	H	0.718747	0.600171	0.162753
	H6	H	0.284729	0.595943	0.832999
	H7	H	0.287899	0.400234	0.164507
	H8	H	0.836605	0.716500	0.391621
	H9	H	0.163107	0.719663	0.602995
	H10	H	0.837440	0.280248	0.599043
	H11	H	0.164165	0.285576	0.398587
	H12	H	0.833637	0.402466	0.704851
	H13	H	0.163851	0.600530	0.714840
	H14	H	0.835452	0.596095	0.280097
	H15	H	0.166198	0.406325	0.288416
	H16	H	0.397582	0.712702	0.833188
	H17	H	0.604645	0.715856	0.163361
	H18	H	0.597906	0.284807	0.834416
	H19	H	0.400608	0.283892	0.163530
	H20	H	0.711669	0.837399	0.397758
	H21	H	0.719461	0.162117	0.600071
	H22	H	0.282706	0.838446	0.596295
	H23	H	0.283117	0.163130	0.395325
	H24	H	0.899966	0.337430	0.211370
	H25	H	0.102947	0.663047	0.213757
	H26	H	0.092837	0.335897	0.785156
	H27	H	0.900695	0.663358	0.781447
	H28	H	0.207619	0.904416	0.332680
	H29	H	0.219204	0.102320	0.662701
	H30	H	0.784508	0.095646	0.332691
	H31	H	0.787355	0.900039	0.663927
	H32	H	0.335835	0.215099	0.893382
	H33	H	0.662147	0.217679	0.103768
	H34	H	0.336699	0.779078	0.097922
	H35	H	0.663692	0.784344	0.899742
	H36	H	0.333134	0.900174	0.206108
	H37	H	0.663219	0.096537	0.212639
	H38	H	0.335210	0.095117	0.782322
	H39	H	0.665191	0.903699	0.787870
	H40	H	0.896690	0.214359	0.333261
	H41	H	0.105145	0.217378	0.663257
	H42	H	0.099107	0.786207	0.334537
	H43	H	0.898854	0.782230	0.662204
	H44	H	0.211571	0.336238	0.898941
	H45	H	0.220271	0.661457	0.100938
	H46	H	0.784074	0.337395	0.095194
	H47	H	0.782656	0.661636	0.893821
	H48	H	0.414631	0.114343	0.589433
	H49	H	0.590411	0.883989	0.595212
	H50	H	0.591369	0.114242	0.412718
	H51	H	0.404622	0.881348	0.391927
	H52	H	0.589602	0.407675	0.116994
	H53	H	0.594649	0.595279	0.877815
	H54	H	0.408452	0.594790	0.119707
	H55	H	0.399650	0.400550	0.876876
	H56	H	0.112394	0.591781	0.419582
	H57	H	0.886310	0.586620	0.580982
	H58	H	0.118341	0.408132	0.596512
	H59	H	0.884449	0.407135	0.408962
	H60	H	0.117892	0.403803	0.589478
	H61	H	0.879961	0.590702	0.595946
	H62	H	0.118152	0.587974	0.398823
	H63	H	0.883382	0.408819	0.400227
	H64	H	0.409563	0.585899	0.116554
	H65	H	0.588526	0.587242	0.882007
	H66	H	0.594722	0.405432	0.118125
	H67	H	0.401776	0.414573	0.881932
	H68	H	0.598706	0.118063	0.405425
	H69	H	0.592653	0.884402	0.589392
	H70	H	0.407866	0.115007	0.584661
	H71	H	0.407775	0.888220	0.411842
	H72	H	0.905399	0.617583	0.088395
	H73	H	0.088103	0.382710	0.100519
	H74	H	0.097549	0.614100	0.917019
	H75	H	0.907165	0.386741	0.910022
	H76	H	0.091361	0.906454	0.617955
	H77	H	0.087956	0.095963	0.380998
	H78	H	0.906684	0.091082	0.617167
	H79	H	0.902915	0.905618	0.379038
	H80	H	0.614618	0.093251	0.914267
	H81	H	0.377510	0.093012	0.096869
	H82	H	0.612676	0.916065	0.085982
	H83	H	0.384387	0.906273	0.907499
	H84	H	0.620087	0.908824	0.104183
	H85	H	0.379642	0.101229	0.081927
	H86	H	0.617097	0.091148	0.905394
	H87	H	0.382143	0.907156	0.902216
	H88	H	0.913742	0.089232	0.614614
	H89	H	0.091900	0.095036	0.379149
	H90	H	0.095551	0.911026	0.617554
	H91	H	0.904239	0.909070	0.380497
	H92	H	0.099007	0.618900	0.899327
	H93	H	0.090331	0.386443	0.085077
	H94	H	0.912434	0.615665	0.091217
	H95	H	0.892218	0.381531	0.902892
	H96	H	0.407668	0.119179	0.592548
	H97	H	0.596014	0.881939	0.594008
	H98	H	0.588500	0.115561	0.401654
	H99	H	0.389586	0.881992	0.405500
	H100	H	0.594599	0.410829	0.116672
	H101	H	0.584177	0.596664	0.880813
	H102	H	0.417095	0.591353	0.114912
	H103	H	0.412909	0.404366	0.882161
	H104	H	0.121086	0.608703	0.407554
	H105	H	0.881168	0.601673	0.584245
	H106	H	0.116422	0.411063	0.589104
	H107	H	0.881800	0.401170	0.403677
	H108	H	0.910053	0.614578	0.083239
	H109	H	0.101822	0.380419	0.093627
	H110	H	0.082849	0.613033	0.906482
	H111	H	0.905992	0.382406	0.893484
	H112	H	0.089683	0.912033	0.615675
	H113	H	0.089553	0.092401	0.380576
	H114	H	0.912926	0.096504	0.616830
	H115	H	0.907149	0.905991	0.379582
	H116	H	0.618492	0.099481	0.908873
	H117	H	0.384643	0.084180	0.084262
	H118	H	0.618610	0.897716	0.087728
	H119	H	0.382225	0.901795	0.905227
	C120	C	0.379287	0.009007	0.618257
	C121	C	0.623205	0.991302	0.621739
	C122	C	0.619269	0.007858	0.377574
	C123	C	0.373558	0.991533	0.373872
	C124	C	0.619535	0.379794	0.007255
	C125	C	0.621852	0.622554	0.989217
	C126	C	0.379939	0.619763	0.007565
	C127	C	0.377219	0.377256	0.989703
	C128	C	0.008832	0.623311	0.376195
	C129	C	0.990937	0.622634	0.619096
	C130	C	0.008915	0.378232	0.619204
	C131	C	0.992045	0.378524	0.376922
	C132	C	0.879035	0.508689	0.117258
	C133	C	0.123401	0.490854	0.121645
	C134	C	0.120004	0.507524	0.877738
	C135	C	0.874771	0.491331	0.873214
	C136	C	0.119711	0.881162	0.507601
	C137	C	0.121647	0.123544	0.489335
	C138	C	0.879483	0.120803	0.507074
	C139	C	0.877108	0.877885	0.489007
	C140	C	0.508564	0.122380	0.877276
	C141	C	0.489421	0.121626	0.119454
	C142	C	0.507966	0.877332	0.119938
	C143	C	0.491103	0.876884	0.876455
	C144	C	0.380148	0.886136	0.673375
	C145	C	0.623041	0.114082	0.677260
	C146	C	0.613182	0.884613	0.323453
	C147	C	0.377507	0.113994	0.318164
	C148	C	0.671057	0.382556	0.882049
	C149	C	0.680438	0.620876	0.113190
	C150	C	0.322831	0.616668	0.882822
	C151	C	0.324291	0.379515	0.114572
	C152	C	0.885472	0.677963	0.374038
	C153	C	0.114322	0.680146	0.620925
	C154	C	0.885591	0.320369	0.617637
	C155	C	0.115512	0.324217	0.379694
	C156	C	0.883968	0.380955	0.670677
	C157	C	0.114663	0.620907	0.676852
	C158	C	0.884905	0.618172	0.318344
	C159	C	0.116606	0.384205	0.324598
	C160	C	0.378827	0.675055	0.882774
	C161	C	0.623737	0.678373	0.113454
	C162	C	0.616765	0.323513	0.883332
	C163	C	0.380262	0.321642	0.114106
	C164	C	0.673118	0.885440	0.378986
	C165	C	0.680947	0.113513	0.620045
	C166	C	0.321856	0.886786	0.616257
	C167	C	0.320165	0.114259	0.375614
	C168	C	0.880247	0.385945	0.172990
	C169	C	0.122861	0.613905	0.176764
	C170	C	0.114825	0.384694	0.822585
	C171	C	0.878944	0.614042	0.818147
	C172	C	0.171925	0.883964	0.382672
	C173	C	0.180434	0.122231	0.613349
	C174	C	0.822537	0.117071	0.382254
	C175	C	0.824110	0.879974	0.614249
	C176	C	0.384843	0.176660	0.875348
	C177	C	0.612919	0.178770	0.121483
	C178	C	0.384987	0.818953	0.117379
	C179	C	0.614737	0.822248	0.879371
	C180	C	0.383067	0.879502	0.170944
	C181	C	0.613538	0.118573	0.175963
	C182	C	0.384551	0.117348	0.819824
	C183	C	0.615428	0.881642	0.823627
	C184	C	0.878187	0.176176	0.382698
	C185	C	0.123494	0.179351	0.613537
	C186	C	0.117708	0.825123	0.383525
	C187	C	0.879550	0.821362	0.613345
	C188	C	0.173785	0.384845	0.879367
	C189	C	0.181131	0.613141	0.120430
	C190	C	0.822419	0.386024	0.115481
	C191	C	0.820506	0.613357	0.874545
	C192	C	0.403227	0.094214	0.595651
	C193	C	0.599799	0.905721	0.599431
	C194	C	0.598870	0.093740	0.399961
	C195	C	0.394555	0.905919	0.396393
	C196	C	0.599028	0.401604	0.094695
	C197	C	0.596431	0.599750	0.902678
	C198	C	0.404634	0.597400	0.094380
	C199	C	0.398383	0.399733	0.902784
	C200	C	0.094848	0.602316	0.401344
	C201	C	0.904894	0.599780	0.594161
	C202	C	0.095224	0.400872	0.597985
	C203	C	0.905707	0.399606	0.398070
	C204	C	0.902414	0.593831	0.094362
	C205	C	0.100123	0.405408	0.099325
	C206	C	0.099329	0.593199	0.900705
	C207	C	0.895754	0.405573	0.895501
	C208	C	0.098387	0.903321	0.594650
	C209	C	0.097006	0.101132	0.402522
	C210	C	0.904019	0.098741	0.593873
	C211	C	0.898412	0.900261	0.402347
	C212	C	0.594328	0.101010	0.902231
	C213	C	0.402944	0.099361	0.094893
	C214	C	0.594578	0.900634	0.098890
	C215	C	0.405156	0.898536	0.898472
	Zn216	Zn	0.500345	0.000452	0.749318
	Zn217	Zn	0.497325	-0.000695	0.247054
	Zn218	Zn	0.747659	0.499736	-0.003285
	Zn219	Zn	0.250429	0.498551	-0.001026
	Zn220	Zn	-0.000066	0.752278	0.498322
	Zn221	Zn	0.000206	0.250143	0.498413
	Zn222	Zn	-0.001282	0.499949	0.746690
	Zn223	Zn	0.000195	0.500539	0.247769
	Zn224	Zn	0.500043	0.749111	-0.001103
	Zn225	Zn	0.499050	0.250867	-0.001427
	Zn226	Zn	0.750547	-0.000645	0.498506
	Zn227	Zn	0.247567	0.001046	0.497643
	N228	N	0.415113	0.963283	0.674764
	N229	N	0.587876	0.037105	0.678526
	N230	N	0.580247	0.961840	0.322520
	N231	N	0.409930	0.036596	0.316739
	N232	N	0.672790	0.416956	0.960167
	N233	N	0.679281	0.586810	0.034785
	N234	N	0.323382	0.582903	0.961442
	N235	N	0.322298	0.413453	0.036216
	N236	N	0.963469	0.681416	0.409375
	N237	N	0.036339	0.681426	0.585746
	N238	N	0.964200	0.318463	0.586329
	N239	N	0.037012	0.320474	0.411335
	N240	N	0.961564	0.416318	0.671969
	N241	N	0.037041	0.585926	0.675807
	N242	N	0.962774	0.585232	0.319272
	N243	N	0.038809	0.417228	0.322554
	N244	N	0.413723	0.676975	0.961395
	N245	N	0.587880	0.679471	0.035347
	N246	N	0.585431	0.321741	0.962431
	N247	N	0.412490	0.320094	0.035383
	N248	N	0.676986	0.963076	0.412077
	N249	N	0.681425	0.036035	0.586554
	N250	N	0.321190	0.964120	0.582684
	N251	N	0.317527	0.036985	0.409392
	N252	N	0.914879	0.463088	0.174249
	N253	N	0.087695	0.536951	0.177669
	N254	N	0.082150	0.462010	0.821493
	N255	N	0.911960	0.537010	0.817280
	N256	N	0.173129	0.918314	0.460930
	N257	N	0.179190	0.087951	0.535108
	N258	N	0.823289	0.083264	0.460635
	N259	N	0.822335	0.914403	0.536081
	N260	N	0.462841	0.179863	0.910523
	N261	N	0.534707	0.180670	0.086975
	N262	N	0.463660	0.817532	0.086495
	N263	N	0.536485	0.819139	0.911418
	N264	N	0.460677	0.915169	0.172773
	N265	N	0.535675	0.083752	0.174965
	N266	N	0.462353	0.084126	0.821002
	N267	N	0.537613	0.914913	0.821680
	N268	N	0.912896	0.178481	0.461272
	N269	N	0.087905	0.180321	0.535305
	N270	N	0.085932	0.823307	0.462398
	N271	N	0.911728	0.819841	0.534626
	N272	N	0.177102	0.462380	0.912952
	N273	N	0.181763	0.535656	0.086958
	N274	N	0.821511	0.463372	0.081619
	N275	N	0.817423	0.535962	0.907892
	O276	O	0.601144	0.466981	0.467549
	H277	H	0.607707	0.468624	0.471734
	H278	H	0.599948	0.478774	0.466267
	O279	O	0.448672	0.478733	0.563472
	H280	H	0.442170	0.481226	0.557872
	H281	H	0.452543	0.477839	0.565264
	O282	O	1.093196	0.950952	-0.082739
	H283	H	1.100570	0.945018	-0.084704
	H284	H	1.085991	0.953429	-0.088684
	O285	O	1.024894	0.084047	0.853426
	H286	H	1.015371	0.078899	0.859121
	H287	H	1.021866	0.093380	0.854929
	O288	O	0.566640	0.563489	0.539023
	H289	H	0.564303	0.550534	0.544253
	H290	H	0.577940	0.571367	0.539239
	O291	O	0.416335	0.526742	0.501409
	H292	H	0.408334	0.527386	0.495115
	H293	H	0.411929	0.531276	0.500660
	O294	O	0.538236	0.562509	0.476959
	H295	H	0.547327	0.557380	0.488630
	H296	H	0.543718	0.556619	0.476276
	O297	O	-0.114542	0.087167	1.004367
	H298	H	-0.106027	0.090021	0.992012
	H299	H	-0.110603	0.088845	0.997410
	O300	O	0.505572	0.570665	0.482549
	H301	H	0.507809	0.579639	0.477860
	H302	H	0.508665	0.580745	0.496657
	O303	O	0.949380	0.979618	-0.083952
	H304	H	0.955466	0.978432	-0.079948
	H305	H	0.947984	0.989914	-0.083725
	O306	O	-0.082166	1.000863	0.912054
	H307	H	-0.078652	1.011427	0.903275
	H308	H	-0.079995	1.003626	0.903830
	O309	O	0.517816	0.548563	0.534944
	H310	H	0.520372	0.551621	0.542733
	H311	H	0.509683	0.550702	0.544300
	O312	O	-0.071067	0.030751	-0.016962
	H313	H	-0.068972	0.034826	-0.015402
	H314	H	-0.069042	0.024552	-0.025875
	O315	O	1.118771	0.056558	0.038652
	H316	H	1.123818	0.051735	0.041683
	H317	H	1.120250	0.057222	0.040156
	O318	O	1.081482	0.907570	1.061437
	H319	H	1.073391	0.916455	1.053654
	H320	H	1.083270	0.900961	1.074624
	O321	O	-0.029313	-0.039772	1.107768
	H322	H	-0.032188	-0.044371	1.105271
	H323	H	-0.033944	-0.033163	1.100341
	O324	O	0.524347	0.450710	0.505556
	H325	H	0.517380	0.448181	0.503324
	H326	H	0.527090	0.443146	0.499113
	O327	O	0.107047	-0.007803	0.029201
	H328	H	0.103948	-0.005321	0.033072
	H329	H	0.100186	-0.013477	0.051226
	O330	O	0.531282	0.606786	0.558817
	H331	H	0.525479	0.602394	0.557674
	H332	H	0.530239	0.606971	0.557013
	O333	O	0.000940	1.064115	0.982211
	H334	H	0.000507	1.060018	0.983373
	H335	H	0.000003	1.068828	0.976708
	O336	O	0.046217	-0.112758	0.081547
	H337	H	0.039923	-0.123351	0.072740
	H338	H	0.037640	-0.114305	0.084320
	O339	O	0.514181	0.533819	0.528065
	H340	H	0.527479	0.535622	0.533093
	H341	H	0.502272	0.543765	0.522812
	O342	O	0.908523	0.974317	1.097590
	H343	H	0.901874	0.967842	1.098422
	H344	H	0.914082	0.994091	1.090044
	O345	O	1.025674	1.007206	-0.024752
	H346	H	1.041519	1.021724	-0.015875
	H347	H	1.021743	0.996636	-0.024869
	O348	O	0.502640	0.465195	0.493220
	H349	H	0.500155	0.462589	0.483412
	H350	H	0.502441	0.458222	0.495400
	O351	O	0.540953	0.558378	0.458185
	H352	H	0.546493	0.564347	0.455933
	H353	H	0.540062	0.562023	0.458351
	O354	O	0.528991	0.430715	0.448887
	H355	H	0.523761	0.420719	0.449062
	H356	H	0.542324	0.422722	0.451025
	O357	O	1.120796	0.039699	1.103478
	H358	H	1.119893	0.034427	1.106270
	H359	H	1.127218	0.026008	1.113020
	O360	O	0.450344	0.442153	0.511858
	H361	H	0.438917	0.437552	0.519753
	H362	H	0.454207	0.443039	0.505373
	O363	O	0.464192	0.522896	0.565675
	H364	H	0.456210	0.519280	0.559456
	H365	H	0.455580	0.516785	0.561000
	O366	O	0.981183	0.911047	0.967501
	H367	H	0.982587	0.912689	0.968532
	H368	H	0.981427	0.900382	0.966794
	O369	O	0.908902	0.161182	0.945980
	H370	H	0.910698	0.160385	0.944096
	H371	H	0.900708	0.159860	0.946524
	O372	O	0.019042	0.058268	-0.056449
	H373	H	0.022090	0.062474	-0.067602
	H374	H	0.031610	0.056729	-0.052787
	O375	O	0.912931	-0.051987	0.139929
	H376	H	0.903894	-0.054980	0.142663
	H377	H	0.917859	-0.054544	0.141732
	O378	O	0.451535	0.375950	0.586229
	H379	H	0.443973	0.379535	0.590295
	H380	H	0.444133	0.384724	0.593778
	O381	O	0.585602	0.410407	0.431055
	H382	H	0.583789	0.415891	0.428971
	H383	H	0.578332	0.413954	0.433747
