data_Molecule from HDF5

_cell_length_a		16.140313
_cell_length_b		16.142633
_cell_length_c		16.335588
_cell_angle_alpha	89.302269
_cell_angle_beta	90.205844
_cell_angle_gamma	89.825472
_symmetry_space_group_name_H-M	'P 1'
_symmetry_Int_Tables_number		1

loop_
	_symmetry_equiv_pos_as_xyz
	x,y,z

loop_
	_atom_site_label
	_atom_site_type_symbol
	_atom_site_fract_x
	_atom_site_fract_y
	_atom_site_fract_z
	H0	H	0.406401	0.840780	0.714667
	H1	H	0.605140	0.171093	0.708984
	H2	H	0.607158	0.840475	0.286188
	H3	H	0.405420	0.168733	0.279898
	H4	H	0.720827	0.408350	0.833713
	H5	H	0.723318	0.601178	0.160364
	H6	H	0.292653	0.605429	0.834192
	H7	H	0.294036	0.404636	0.161256
	H8	H	0.840665	0.720149	0.398716
	H9	H	0.171981	0.715529	0.593987
	H10	H	0.840418	0.291878	0.595819
	H11	H	0.170768	0.293829	0.402797
	H12	H	0.841792	0.403271	0.715049
	H13	H	0.170268	0.605904	0.712074
	H14	H	0.843094	0.610836	0.277230
	H15	H	0.170830	0.406814	0.286500
	H16	H	0.405691	0.722805	0.835449
	H17	H	0.604210	0.713998	0.163098
	H18	H	0.604465	0.293031	0.833501
	H19	H	0.408633	0.288376	0.161026
	H20	H	0.719150	0.840047	0.403609
	H21	H	0.718334	0.171651	0.591976
	H22	H	0.294761	0.839212	0.595760
	H23	H	0.292971	0.170568	0.397366
	H24	H	0.907346	0.340484	0.214065
	H25	H	0.106219	0.669711	0.210053
	H26	H	0.106103	0.340654	0.785655
	H27	H	0.905187	0.669876	0.779358
	H28	H	0.220959	0.907770	0.335027
	H29	H	0.221721	0.102567	0.661050
	H30	H	0.790118	0.107319	0.334540
	H31	H	0.793703	0.906161	0.661624
	H32	H	0.340223	0.218193	0.899475
	H33	H	0.672100	0.214809	0.093639
	H34	H	0.340697	0.791874	0.095920
	H35	H	0.672026	0.794251	0.904443
	H36	H	0.342430	0.902469	0.214596
	H37	H	0.670746	0.102840	0.212267
	H38	H	0.342162	0.107534	0.780869
	H39	H	0.671331	0.906622	0.786550
	H40	H	0.905791	0.222825	0.334301
	H41	H	0.103417	0.216857	0.661521
	H42	H	0.104162	0.793270	0.334345
	H43	H	0.907077	0.788456	0.660898
	H44	H	0.217818	0.339163	0.903935
	H45	H	0.218205	0.670297	0.090859
	H46	H	0.794958	0.339316	0.095982
	H47	H	0.791280	0.670582	0.895703
	H48	H	0.403497	0.123841	0.579576
	H49	H	0.602436	0.885912	0.594798
	H50	H	0.604487	0.125695	0.403282
	H51	H	0.413672	0.887980	0.411930
	H52	H	0.604329	0.409788	0.115139
	H53	H	0.594938	0.610082	0.879487
	H54	H	0.416508	0.596033	0.113625
	H55	H	0.407940	0.410618	0.879195
	H56	H	0.126546	0.602131	0.397336
	H57	H	0.891489	0.590322	0.587458
	H58	H	0.123775	0.408803	0.590465
	H59	H	0.886339	0.424683	0.390904
	H60	H	0.122725	0.414723	0.591204
	H61	H	0.886197	0.597069	0.596556
	H62	H	0.122982	0.602272	0.409462
	H63	H	0.881626	0.399395	0.402168
	H64	H	0.411281	0.601949	0.116765
	H65	H	0.608043	0.597467	0.879138
	H66	H	0.599578	0.411701	0.113219
	H67	H	0.411924	0.416885	0.881580
	H68	H	0.594869	0.124433	0.395665
	H69	H	0.599206	0.887282	0.597588
	H70	H	0.409745	0.127860	0.602399
	H71	H	0.409953	0.884921	0.404096
	H72	H	0.907390	0.621278	0.077499
	H73	H	0.100274	0.386960	0.088891
	H74	H	0.106907	0.625988	0.905741
	H75	H	0.916799	0.385576	0.895751
	H76	H	0.096368	0.910374	0.614051
	H77	H	0.094031	0.105728	0.380569
	H78	H	0.911589	0.094947	0.613906
	H79	H	0.916113	0.921719	0.384339
	H80	H	0.623692	0.095512	0.903516
	H81	H	0.390108	0.090025	0.089850
	H82	H	0.621173	0.920785	0.093158
	H83	H	0.387147	0.920353	0.897434
	H84	H	0.629036	0.906525	0.103382
	H85	H	0.385554	0.098337	0.095545
	H86	H	0.626580	0.099730	0.899198
	H87	H	0.385643	0.904615	0.903536
	H88	H	0.915472	0.100760	0.614294
	H89	H	0.106110	0.103051	0.378488
	H90	H	0.101078	0.904801	0.615673
	H91	H	0.917699	0.905605	0.380282
	H92	H	0.097575	0.626220	0.893528
	H93	H	0.104780	0.383507	0.097694
	H94	H	0.910623	0.626823	0.098342
	H95	H	0.920868	0.391212	0.910903
	H96	H	0.426295	0.119288	0.586808
	H97	H	0.598639	0.887888	0.592021
	H98	H	0.593217	0.120330	0.407586
	H99	H	0.418069	0.887880	0.404500
	H100	H	0.599830	0.406581	0.114157
	H101	H	0.592421	0.593654	0.884989
	H102	H	0.408198	0.593449	0.115789
	H103	H	0.415198	0.410242	0.880840
	H104	H	0.122069	0.592401	0.403028
	H105	H	0.886995	0.602156	0.585160
	H106	H	0.124409	0.410656	0.594864
	H107	H	0.892393	0.419946	0.417962
	H108	H	0.927689	0.618677	0.086576
	H109	H	0.095352	0.387109	0.097960
	H110	H	0.091920	0.619875	0.906863
	H111	H	0.904568	0.385389	0.907525
	H112	H	0.103631	0.912589	0.615313
	H113	H	0.097842	0.093903	0.382858
	H114	H	0.908808	0.100962	0.616254
	H115	H	0.902753	0.914480	0.378092
	H116	H	0.624923	0.102208	0.904663
	H117	H	0.388466	0.100309	0.084963
	H118	H	0.623868	0.903827	0.085232
	H119	H	0.390862	0.916490	0.912855
	C120	C	0.384628	0.014202	0.619258
	C121	C	0.628211	0.996746	0.620657
	C122	C	0.626961	0.014183	0.376024
	C123	C	0.384650	0.995954	0.376283
	C124	C	0.629063	0.382471	0.005579
	C125	C	0.627912	0.626818	0.989589
	C126	C	0.383630	0.627194	0.007250
	C127	C	0.384310	0.382650	0.988783
	C128	C	0.014932	0.628203	0.374108
	C129	C	0.997496	0.625698	0.618194
	C130	C	0.014354	0.383014	0.620419
	C131	C	0.996145	0.385624	0.376974
	C132	C	0.886216	0.513447	0.117918
	C133	C	0.128040	0.495470	0.120296
	C134	C	0.127091	0.514067	0.876216
	C135	C	0.884932	0.496606	0.875077
	C136	C	0.128368	0.882684	0.506550
	C137	C	0.127866	0.127595	0.489016
	C138	C	0.883202	0.128519	0.506601
	C139	C	0.884236	0.884010	0.489052
	C140	C	0.515320	0.127908	0.874711
	C141	C	0.497335	0.124789	0.118743
	C142	C	0.515448	0.882114	0.121257
	C143	C	0.497368	0.884655	0.877417
	C144	C	0.386661	0.890045	0.675890
	C145	C	0.625259	0.121553	0.672099
	C146	C	0.626111	0.889662	0.323668
	C147	C	0.385745	0.119580	0.318623
	C148	C	0.683206	0.387029	0.882516
	C149	C	0.684732	0.622339	0.112018
	C150	C	0.329220	0.625797	0.883546
	C151	C	0.331066	0.384430	0.112292
	C152	C	0.890427	0.683591	0.376876
	C153	C	0.122091	0.679317	0.614745
	C154	C	0.889791	0.328888	0.617164
	C155	C	0.121338	0.330910	0.381512
	C156	C	0.890681	0.384333	0.676328
	C157	C	0.121249	0.624746	0.673768
	C158	C	0.891558	0.628783	0.316822
	C159	C	0.121496	0.387346	0.324012
	C160	C	0.385781	0.684069	0.884122
	C161	C	0.625301	0.678303	0.113329
	C162	C	0.625402	0.329640	0.882658
	C163	C	0.387883	0.326472	0.112009
	C164	C	0.682098	0.889661	0.381790
	C165	C	0.681918	0.121714	0.614295
	C166	C	0.330999	0.889183	0.616933
	C167	C	0.330221	0.120803	0.377496
	C168	C	0.887398	0.389560	0.175665
	C169	C	0.126091	0.620340	0.172738
	C170	C	0.125666	0.389632	0.823238
	C171	C	0.885653	0.620738	0.817905
	C172	C	0.182987	0.886941	0.383566
	C173	C	0.183165	0.123360	0.612264
	C174	C	0.827895	0.127486	0.383292
	C175	C	0.830378	0.885746	0.612450
	C176	C	0.390272	0.181853	0.878156
	C177	C	0.622240	0.178428	0.115011
	C178	C	0.390520	0.827986	0.117517
	C179	C	0.622255	0.830607	0.882483
	C180	C	0.391324	0.883109	0.176289
	C181	C	0.621635	0.122614	0.173967
	C182	C	0.391140	0.126694	0.819344
	C183	C	0.621909	0.886705	0.823741
	C184	C	0.885418	0.184739	0.383266
	C185	C	0.124464	0.180211	0.612514
	C186	C	0.125177	0.829709	0.383399
	C187	C	0.886884	0.827058	0.612011
	C188	C	0.181232	0.389155	0.881857
	C189	C	0.181519	0.620793	0.113563
	C190	C	0.832097	0.388765	0.116429
	C191	C	0.829004	0.620974	0.875678
	C192	C	0.406562	0.101073	0.596206
	C193	C	0.606470	0.909581	0.600870
	C194	C	0.604279	0.101140	0.395992
	C195	C	0.407295	0.909249	0.399774
	C196	C	0.607795	0.403221	0.091889
	C197	C	0.605254	0.606319	0.903503
	C198	C	0.405498	0.603895	0.093090
	C199	C	0.405467	0.405755	0.902881
	C200	C	0.101585	0.605477	0.396748
	C201	C	0.910708	0.603163	0.596172
	C202	C	0.101158	0.405161	0.598762
	C203	C	0.909406	0.408029	0.397599
	C204	C	0.908605	0.600030	0.094393
	C205	C	0.106482	0.408460	0.100749
	C206	C	0.105080	0.601292	0.895952
	C207	C	0.907412	0.409797	0.897959
	C208	C	0.106655	0.903032	0.592648
	C209	C	0.105918	0.107056	0.402908
	C210	C	0.905420	0.105732	0.592590
	C211	C	0.905771	0.907174	0.403209
	C212	C	0.602345	0.105667	0.896163
	C213	C	0.410455	0.102689	0.096704
	C214	C	0.602265	0.903835	0.100274
	C215	C	0.410405	0.907287	0.898267
	Zn216	Zn	0.506209	0.006137	0.747938
	Zn217	Zn	0.506054	0.003949	0.248245
	Zn218	Zn	0.757468	0.504719	-0.003047
	Zn219	Zn	0.255456	0.504657	-0.002294
	Zn220	Zn	0.005832	0.754460	0.497912
	Zn221	Zn	0.005112	0.256687	0.497537
	Zn222	Zn	0.006706	0.505656	0.747064
	Zn223	Zn	0.006378	0.505265	0.247846
	Zn224	Zn	0.505960	0.755588	-0.000883
	Zn225	Zn	0.506249	0.254203	-0.002768
	Zn226	Zn	0.755138	0.006044	0.497614
	Zn227	Zn	0.256880	0.005093	0.497418
	N228	N	0.419107	0.968898	0.677758
	N229	N	0.592780	0.042868	0.676296
	N230	N	0.592543	0.968092	0.320012
	N231	N	0.419164	0.040936	0.318009
	N232	N	0.685410	0.419138	0.960010
	N233	N	0.686621	0.591254	0.033982
	N234	N	0.327568	0.590868	0.961092
	N235	N	0.328525	0.418747	0.034624
	N236	N	0.968076	0.683519	0.411760
	N237	N	0.043963	0.679807	0.580699
	N238	N	0.967597	0.328002	0.583096
	N239	N	0.042670	0.329752	0.413726
	N240	N	0.969359	0.417427	0.678433
	N241	N	0.042720	0.591914	0.675938
	N242	N	0.970103	0.595065	0.314882
	N243	N	0.042785	0.420577	0.320853
	N244	N	0.418609	0.685262	0.961887
	N245	N	0.590957	0.681513	0.035954
	N246	N	0.592474	0.326635	0.960425
	N247	N	0.420445	0.325424	0.034279
	N248	N	0.682963	0.968176	0.413644
	N249	N	0.683941	0.042911	0.582896
	N250	N	0.329611	0.967416	0.582489
	N251	N	0.329315	0.042823	0.412626
	N252	N	0.920312	0.468193	0.176675
	N253	N	0.093625	0.541629	0.176983
	N254	N	0.092862	0.468470	0.819415
	N255	N	0.919620	0.542433	0.817248
	N256	N	0.185226	0.919115	0.461238
	N257	N	0.185359	0.091298	0.534494
	N258	N	0.826284	0.093103	0.460877
	N259	N	0.828488	0.920399	0.534933
	N260	N	0.468594	0.182880	0.911997
	N261	N	0.543955	0.180023	0.081422
	N262	N	0.468652	0.827137	0.084106
	N263	N	0.543867	0.829459	0.915466
	N264	N	0.469837	0.916226	0.178883
	N265	N	0.542911	0.089979	0.176501
	N266	N	0.469903	0.093911	0.816983
	N267	N	0.543102	0.919458	0.820269
	N268	N	0.919003	0.185513	0.460866
	N269	N	0.090806	0.183079	0.534998
	N270	N	0.091992	0.827058	0.460857
	N271	N	0.919594	0.825883	0.534312
	N272	N	0.182345	0.467453	0.914102
	N273	N	0.182941	0.542279	0.081635
	N274	N	0.831173	0.466849	0.081239
	N275	N	0.828252	0.542745	0.910568
	O276	O	0.003802	-0.061631	-0.016022
	H277	H	0.013412	-0.049691	-0.016647
	H278	H	0.000443	-0.062184	-0.002680
	O279	O	0.537109	0.497675	0.492921
	H280	H	0.536295	0.505652	0.505153
	H281	H	0.528973	0.508160	0.489912
	O282	O	0.532345	0.507928	0.506608
	H283	H	0.521236	0.512534	0.505930
	H284	H	0.528798	0.499874	0.510855
	O285	O	0.980520	0.028575	0.913098
	H286	H	0.983328	0.023631	0.902418
	H287	H	0.976764	0.021741	0.908120
	O288	O	1.000939	0.017822	-0.020958
	H289	H	1.012315	0.009728	-0.024263
	H290	H	0.992659	0.013677	-0.009592
	O291	O	0.434745	0.483040	0.508327
	H292	H	0.438100	0.486029	0.512876
	H293	H	0.434274	0.473276	0.508905
	O294	O	1.002675	0.033782	0.935605
	H295	H	1.005265	0.030272	0.935943
	H296	H	0.998409	0.038269	0.930580
	O297	O	-0.020922	0.018659	0.024582
	H298	H	-0.019594	0.025176	0.025927
	H299	H	-0.029829	0.018199	0.019099
	O300	O	0.536584	0.477049	0.447078
	H301	H	0.546410	0.483945	0.438861
	H302	H	0.536428	0.478178	0.445613
	O303	O	0.510804	0.508746	0.541292
	H304	H	0.508478	0.506564	0.552409
	H305	H	0.520044	0.498635	0.530601
	O306	O	0.961604	-0.026346	-0.076865
	H307	H	0.944500	-0.028788	-0.082155
	H308	H	0.973833	-0.036567	-0.071364
	O309	O	-0.021672	0.021695	0.981478
	H310	H	-0.018308	0.017224	0.983322
	H311	H	-0.026188	0.035059	0.978713
	O312	O	0.949924	1.017328	1.041202
	H313	H	0.948222	1.017028	1.053938
	H314	H	0.957792	1.019580	1.035959
	O315	O	0.500082	0.529765	0.481952
	H316	H	0.500753	0.537346	0.481486
	H317	H	0.503607	0.529445	0.483699
	O318	O	0.462663	0.479993	0.471496
	H319	H	0.448982	0.466328	0.479935
	H320	H	0.474344	0.490151	0.459608
	O321	O	-0.051671	0.954386	1.034337
	H322	H	-0.056119	0.954525	1.040073
	H323	H	-0.055380	0.954221	1.038957
	O324	O	0.503081	0.510413	0.426053
	H325	H	0.505890	0.509141	0.412340
	H326	H	0.507175	0.499889	0.430638
	O327	O	0.586340	0.464350	0.574127
	H328	H	0.596283	0.467393	0.568420
	H329	H	0.588048	0.466950	0.578078
	O330	O	0.450052	0.576983	0.478608
	H331	H	0.445774	0.578081	0.483122
	H332	H	0.448955	0.570913	0.490065
	O333	O	0.416069	0.449348	0.636669
	H334	H	0.398697	0.441286	0.645786
	H335	H	0.426449	0.436234	0.640168
	O336	O	0.457014	0.501895	0.469745
	H337	H	0.472502	0.509225	0.464416
	H338	H	0.456747	0.502709	0.458118
	O339	O	1.097980	0.972889	-0.016363
	H340	H	1.093904	0.970778	-0.019217
	H341	H	1.097966	0.969848	-0.013900
	O342	O	0.588870	0.519774	0.556949
	H343	H	0.580721	0.525867	0.563236
	H344	H	0.588227	0.522247	0.554191
	O345	O	0.546710	0.601749	0.479638
	H346	H	0.532778	0.597096	0.478736
	H347	H	0.544810	0.615576	0.483657
	O348	O	0.077628	-0.028107	0.071311
	H349	H	0.068209	-0.011208	0.066562
	H350	H	0.078009	-0.019139	0.067186
	O351	O	-0.006068	0.955647	0.993396
	H352	H	-0.005349	0.947790	0.981434
	H353	H	-0.005459	0.946917	0.993970
	O354	O	0.386282	0.544571	0.374733
	H355	H	0.378453	0.551746	0.364678
	H356	H	0.374407	0.547541	0.387096
	O357	O	0.002506	0.971183	0.986873
	H358	H	0.000820	0.971165	0.983224
	H359	H	-0.003960	0.971632	0.990514
