data_Molecule from HDF5

_cell_length_a		16.480305
_cell_length_b		16.432432
_cell_length_c		16.538302
_cell_angle_alpha	89.827895
_cell_angle_beta	89.975306
_cell_angle_gamma	89.782212
_symmetry_space_group_name_H-M	'P 1'
_symmetry_Int_Tables_number		1

loop_
	_symmetry_equiv_pos_as_xyz
	x,y,z

loop_
	_atom_site_label
	_atom_site_type_symbol
	_atom_site_fract_x
	_atom_site_fract_y
	_atom_site_fract_z
	H0	H	0.399421	0.841104	0.754199
	H1	H	0.614445	0.154544	0.755256
	H2	H	0.605902	0.837846	0.314507
	H3	H	0.398150	0.155654	0.308485
	H4	H	0.727626	0.392030	0.874391
	H5	H	0.722872	0.601813	0.188046
	H6	H	0.283117	0.602709	0.871529
	H7	H	0.281525	0.391256	0.187293
	H8	H	0.846590	0.717197	0.431693
	H9	H	0.163574	0.717493	0.636511
	H10	H	0.843908	0.282136	0.631911
	H11	H	0.161846	0.274343	0.424816
	H12	H	0.844900	0.395345	0.751095
	H13	H	0.161550	0.604514	0.754703
	H14	H	0.846439	0.602750	0.313638
	H15	H	0.161680	0.389465	0.307201
	H16	H	0.398530	0.720161	0.872657
	H17	H	0.603583	0.715989	0.188662
	H18	H	0.611798	0.275266	0.874307
	H19	H	0.399841	0.277190	0.188567
	H20	H	0.722389	0.838506	0.431572
	H21	H	0.722791	0.157842	0.633512
	H22	H	0.282524	0.841616	0.639138
	H23	H	0.282606	0.156213	0.425192
	H24	H	0.897867	0.342044	0.253867
	H25	H	0.109011	0.656141	0.251682
	H26	H	0.111943	0.340927	0.807405
	H27	H	0.897417	0.656218	0.809481
	H28	H	0.228841	0.890693	0.375487
	H29	H	0.230667	0.108602	0.685855
	H30	H	0.784736	0.103105	0.373492
	H31	H	0.780063	0.890814	0.687424
	H32	H	0.348552	0.223416	0.922051
	H33	H	0.661383	0.216884	0.134023
	H34	H	0.344296	0.778097	0.135467
	H35	H	0.660435	0.774024	0.924860
	H36	H	0.345893	0.890506	0.254065
	H37	H	0.661205	0.100774	0.251227
	H38	H	0.350521	0.110430	0.803221
	H39	H	0.660922	0.887735	0.806748
	H40	H	0.899495	0.221111	0.374722
	H41	H	0.110782	0.221643	0.688548
	H42	H	0.113221	0.775371	0.376177
	H43	H	0.899502	0.777024	0.689518
	H44	H	0.226876	0.340269	0.923710
	H45	H	0.223220	0.656970	0.134344
	H46	H	0.784127	0.341109	0.135274
	H47	H	0.781760	0.656565	0.925695
	H48	H	0.418208	0.111293	0.619141
	H49	H	0.591657	0.887262	0.616908
	H50	H	0.590080	0.109799	0.442727
	H51	H	0.412165	0.886933	0.451912
	H52	H	0.593946	0.408310	0.142866
	H53	H	0.591671	0.577459	0.921738
	H54	H	0.406468	0.589358	0.145447
	H55	H	0.413786	0.407074	0.916868
	H56	H	0.121051	0.591116	0.439359
	H57	H	0.890404	0.593964	0.618588
	H58	H	0.115432	0.413575	0.619747
	H59	H	0.893038	0.409548	0.443866
	H60	H	0.116634	0.409740	0.621292
	H61	H	0.894275	0.584028	0.619026
	H62	H	0.117691	0.586048	0.446418
	H63	H	0.893617	0.413283	0.441526
	H64	H	0.412429	0.582597	0.140514
	H65	H	0.584448	0.593022	0.917802
	H66	H	0.592980	0.408744	0.142816
	H67	H	0.413028	0.415100	0.919884
	H68	H	0.600482	0.114598	0.440621
	H69	H	0.595491	0.884041	0.618567
	H70	H	0.421242	0.109613	0.616222
	H71	H	0.410933	0.880567	0.436661
	H72	H	0.912531	0.614101	0.123420
	H73	H	0.091034	0.387625	0.116398
	H74	H	0.091856	0.608646	0.946594
	H75	H	0.917454	0.387061	0.946207
	H76	H	0.094985	0.910166	0.643749
	H77	H	0.095692	0.089020	0.418194
	H78	H	0.911068	0.081691	0.643356
	H79	H	0.914786	0.910278	0.419323
	H80	H	0.619547	0.087694	0.937056
	H81	H	0.391014	0.086444	0.119294
	H82	H	0.615130	0.910228	0.122604
	H83	H	0.391527	0.910890	0.941075
	H84	H	0.618213	0.904314	0.126146
	H85	H	0.389876	0.087116	0.120217
	H86	H	0.616048	0.089210	0.949916
	H87	H	0.393679	0.912376	0.945431
	H88	H	0.920038	0.090962	0.643278
	H89	H	0.092692	0.080147	0.422309
	H90	H	0.093094	0.910683	0.643666
	H91	H	0.916354	0.907726	0.419576
	H92	H	0.093437	0.612240	0.940857
	H93	H	0.094722	0.384077	0.120631
	H94	H	0.915103	0.613241	0.121409
	H95	H	0.911967	0.383853	0.943285
	H96	H	0.416548	0.109442	0.614798
	H97	H	0.591916	0.886090	0.621645
	H98	H	0.592628	0.113980	0.432342
	H99	H	0.425719	0.887838	0.441836
	H100	H	0.593413	0.407847	0.143174
	H101	H	0.601274	0.589772	0.913994
	H102	H	0.416292	0.591527	0.142656
	H103	H	0.420641	0.411013	0.919911
	H104	H	0.117741	0.582709	0.438314
	H105	H	0.889287	0.588670	0.627522
	H106	H	0.115206	0.409773	0.617600
	H107	H	0.891349	0.410216	0.439600
	H108	H	0.911650	0.612880	0.120588
	H109	H	0.088662	0.385782	0.122256
	H110	H	0.087310	0.609333	0.940661
	H111	H	0.917664	0.385299	0.939957
	H112	H	0.093052	0.909380	0.644631
	H113	H	0.086075	0.088399	0.422267
	H114	H	0.907877	0.093622	0.647530
	H115	H	0.914321	0.908051	0.418568
	H116	H	0.613833	0.077219	0.943595
	H117	H	0.390146	0.087531	0.119338
	H118	H	0.616462	0.904299	0.118443
	H119	H	0.393943	0.915572	0.941909
	C120	C	0.384810	0.006802	0.651208
	C121	C	0.625838	0.990044	0.651860
	C122	C	0.625627	0.007239	0.408912
	C123	C	0.383251	0.989372	0.410259
	C124	C	0.626308	0.376071	0.039108
	C125	C	0.623758	0.618691	1.021880
	C126	C	0.380578	0.619856	0.038407
	C127	C	0.382679	0.377176	1.022401
	C128	C	0.014342	0.619469	0.410746
	C129	C	0.995970	0.620449	0.653643
	C130	C	0.011606	0.378280	0.651961
	C131	C	0.996412	0.377263	0.409202
	C132	C	0.881949	0.508191	0.153231
	C133	C	0.124056	0.490160	0.151334
	C134	C	0.124581	0.506185	0.909501
	C135	C	0.882764	0.489819	0.910438
	C136	C	0.126747	0.876931	0.540591
	C137	C	0.125707	0.119970	0.523504
	C138	C	0.881965	0.120437	0.540327
	C139	C	0.883200	0.876818	0.523561
	C140	C	0.513728	0.119766	0.909100
	C141	C	0.495034	0.117878	0.151324
	C142	C	0.511660	0.875352	0.153416
	C143	C	0.496129	0.877789	0.909763
	C144	C	0.381182	0.888356	0.713612
	C145	C	0.630378	0.107938	0.713624
	C146	C	0.625598	0.886071	0.352934
	C147	C	0.379981	0.108328	0.349118
	C148	C	0.687091	0.373803	0.921366
	C149	C	0.683134	0.620537	0.140843
	C150	C	0.322334	0.621386	0.919336
	C151	C	0.321980	0.373727	0.140394
	C152	C	0.894518	0.678499	0.411201
	C153	C	0.115436	0.678697	0.655264
	C154	C	0.891922	0.320286	0.652216
	C155	C	0.114610	0.315242	0.406788
	C156	C	0.892529	0.376702	0.711356
	C157	C	0.114429	0.622182	0.714129
	C158	C	0.894340	0.621369	0.352800
	C159	C	0.114676	0.372580	0.348096
	C160	C	0.379709	0.679939	0.919745
	C161	C	0.623821	0.677084	0.141273
	C162	C	0.629560	0.315647	0.921395
	C163	C	0.380927	0.316779	0.140888
	C164	C	0.683689	0.886425	0.410724
	C165	C	0.684933	0.109444	0.653511
	C166	C	0.323258	0.888756	0.656091
	C167	C	0.322515	0.108504	0.407146
	C168	C	0.880128	0.389235	0.213022
	C169	C	0.127011	0.608876	0.211487
	C170	C	0.129275	0.387947	0.847949
	C171	C	0.879686	0.608941	0.849791
	C172	C	0.188273	0.873105	0.422885
	C173	C	0.188603	0.124965	0.639993
	C174	C	0.823495	0.122128	0.421211
	C175	C	0.821659	0.873722	0.641102
	C176	C	0.395932	0.182695	0.904320
	C177	C	0.614138	0.176928	0.152805
	C178	C	0.392221	0.816818	0.154479
	C179	C	0.613437	0.814666	0.906614
	C180	C	0.393048	0.873086	0.213484
	C181	C	0.613993	0.118967	0.210814
	C182	C	0.396977	0.126380	0.845256
	C183	C	0.613760	0.871702	0.847954
	C184	C	0.880646	0.180830	0.421903
	C185	C	0.128984	0.181443	0.641036
	C186	C	0.130759	0.815377	0.423116
	C187	C	0.880885	0.816762	0.641967
	C188	C	0.186416	0.387780	0.906083
	C189	C	0.183972	0.609045	0.153109
	C190	C	0.823321	0.388740	0.154369
	C191	C	0.821968	0.609006	0.907504
	C192	C	0.411226	0.088523	0.624424
	C193	C	0.600225	0.907484	0.626520
	C194	C	0.601488	0.090778	0.431861
	C195	C	0.408975	0.906743	0.436048
	C196	C	0.600805	0.401001	0.121777
	C197	C	0.599540	0.594006	0.939393
	C198	C	0.404815	0.594955	0.121305
	C199	C	0.408439	0.403480	0.940195
	C200	C	0.097232	0.594044	0.434514
	C201	C	0.913011	0.595987	0.628750
	C202	C	0.094344	0.403692	0.626845
	C203	C	0.914202	0.403486	0.434422
	C204	C	0.906221	0.591674	0.128779
	C205	C	0.098708	0.407121	0.126579
	C206	C	0.098298	0.588515	0.935234
	C207	C	0.908330	0.407077	0.935754
	C208	C	0.101229	0.902705	0.622496
	C209	C	0.099031	0.093309	0.442035
	C210	C	0.905971	0.095791	0.623089
	C211	C	0.908258	0.901628	0.440851
	C212	C	0.595047	0.092470	0.935826
	C213	C	0.412102	0.093822	0.126782
	C214	C	0.595034	0.899323	0.129137
	C215	C	0.414311	0.905199	0.935566
	Zn216	Zn	0.505629	-0.001518	0.780241
	Zn217	Zn	0.503175	-0.002867	0.281118
	Zn218	Zn	0.753889	0.498785	0.030708
	Zn219	Zn	0.252510	0.497776	0.030304
	Zn220	Zn	0.005667	0.748309	0.531978
	Zn221	Zn	0.004183	0.248902	0.531751
	Zn222	Zn	0.003363	0.498330	0.781625
	Zn223	Zn	0.004795	0.498958	0.281234
	Zn224	Zn	0.502361	0.748506	0.030595
	Zn225	Zn	0.504170	0.248038	0.030446
	Zn226	Zn	0.753736	-0.001766	0.531231
	Zn227	Zn	0.254609	-0.001337	0.531830
	N228	N	0.418736	0.962784	0.710988
	N229	N	0.594671	0.032433	0.712893
	N230	N	0.590508	0.962118	0.351307
	N231	N	0.416725	0.033231	0.350790
	N232	N	0.685302	0.410532	0.995869
	N233	N	0.683212	0.585176	0.065672
	N234	N	0.322541	0.585207	0.994310
	N235	N	0.322894	0.410399	0.065596
	N236	N	0.970134	0.677696	0.446130
	N237	N	0.040663	0.677822	0.618570
	N238	N	0.967123	0.320939	0.616326
	N239	N	0.040247	0.318103	0.444082
	N240	N	0.968273	0.411655	0.711546
	N241	N	0.038901	0.586872	0.713516
	N242	N	0.969897	0.585666	0.351884
	N243	N	0.040108	0.410372	0.349459
	N244	N	0.415129	0.679213	0.994991
	N245	N	0.587699	0.676343	0.066433
	N246	N	0.592495	0.316944	0.995801
	N247	N	0.417617	0.318521	0.066236
	N248	N	0.683995	0.962683	0.444620
	N249	N	0.682331	0.035018	0.615869
	N250	N	0.325347	0.963348	0.618245
	N251	N	0.324247	0.033494	0.444289
	N252	N	0.915605	0.464725	0.212627
	N253	N	0.090561	0.533927	0.210468
	N254	N	0.091326	0.462581	0.849979
	N255	N	0.916894	0.533938	0.851595
	N256	N	0.186112	0.910652	0.496945
	N257	N	0.186593	0.087611	0.565770
	N258	N	0.823904	0.085494	0.496066
	N259	N	0.823014	0.910547	0.566449
	N260	N	0.469478	0.178848	0.943177
	N261	N	0.539258	0.176367	0.116312
	N262	N	0.467200	0.817860	0.117817
	N263	N	0.539211	0.818375	0.944288
	N264	N	0.468386	0.908537	0.213014
	N265	N	0.538840	0.083197	0.210047
	N266	N	0.471119	0.087806	0.847861
	N267	N	0.539801	0.910439	0.849856
	N268	N	0.915999	0.180270	0.496985
	N269	N	0.090631	0.178558	0.567422
	N270	N	0.093209	0.817488	0.497297
	N271	N	0.918804	0.818860	0.567837
	N272	N	0.183651	0.462323	0.943396
	N273	N	0.182231	0.534009	0.116399
	N274	N	0.824342	0.463884	0.117705
	N275	N	0.823759	0.534051	0.944453
	O276	O	-0.203043	0.193455	0.020195
	H277	H	-0.199057	0.194876	0.033853
	H278	H	-0.213911	0.193122	0.020590
	O279	O	1.195584	1.117828	0.234101
	H280	H	1.196813	1.103493	0.233072
	H281	H	1.215504	1.126099	0.215323
	O282	O	0.089169	0.196612	0.231296
	H283	H	0.104787	0.192448	0.218002
	H284	H	0.083004	0.213224	0.229736
	O285	O	0.376100	0.585776	0.604942
	H286	H	0.389269	0.586723	0.616710
	H287	H	0.381973	0.586615	0.607649
	O288	O	0.024594	-0.217448	-0.148488
	H289	H	0.003796	-0.205436	-0.143380
	H290	H	0.018437	-0.238221	-0.167799
	O291	O	0.925495	0.784337	0.251758
	H292	H	0.926186	0.761144	0.264448
	H293	H	0.888125	0.777161	0.251325
	O294	O	0.173466	0.796417	-0.171342
	H295	H	0.165655	0.818702	-0.178826
	H296	H	0.163465	0.777902	-0.197764
	O297	O	0.575554	0.524357	0.674536
	H298	H	0.584201	0.509519	0.675615
	H299	H	0.568430	0.510103	0.678261
	O300	O	0.316528	0.678034	0.350887
	H301	H	0.308958	0.674308	0.351137
	H302	H	0.365081	0.685312	0.340242
	O303	O	0.349057	0.528622	0.356919
	H304	H	0.329290	0.530741	0.336041
	H305	H	0.368141	0.540273	0.366440
	O306	O	-0.441234	1.292701	1.536537
	H307	H	-0.432995	1.296892	1.538878
	H308	H	-0.438360	1.291743	1.539243
	O309	O	0.827496	0.771590	0.234722
	H310	H	0.813046	0.765370	0.234168
	H311	H	0.806066	0.744911	0.242287
	O312	O	0.140214	0.932236	-0.027281
	H313	H	0.141094	0.916559	-0.020787
	H314	H	0.152219	0.937475	-0.035381
	O315	O	-0.144407	0.189615	0.862790
	H316	H	-0.142064	0.198922	0.893316
	H317	H	-0.143717	0.165979	0.858889
	O318	O	0.640319	0.551201	0.613108
	H319	H	0.642235	0.522059	0.617226
	H320	H	0.650622	0.545377	0.621379
	O321	O	0.516077	0.464851	0.386172
	H322	H	0.516568	0.462390	0.378009
	H323	H	0.524125	0.453284	0.389754
	O324	O	0.795029	1.032197	0.090591
	H325	H	0.794918	1.023342	0.083649
	H326	H	0.800427	1.012563	0.112126
	O327	O	1.058099	-0.123357	1.142630
	H328	H	1.071382	-0.123089	1.149244
	H329	H	1.052342	-0.125170	1.156467
	O330	O	0.336042	0.418194	-0.624805
	H331	H	0.325900	0.444236	-0.613831
	H332	H	0.321435	0.419161	-0.635098
	O333	O	1.112404	1.035690	1.093891
	H334	H	1.120935	1.035833	1.094884
	H335	H	1.102306	1.023987	1.077138
	O336	O	0.321401	-0.402068	0.632204
	H337	H	0.309980	-0.393440	0.617206
	H338	H	0.324630	-0.383850	0.633685
	O339	O	0.451626	0.560643	0.730549
	H340	H	0.466284	0.535027	0.731903
	H341	H	0.450055	0.572646	0.729605
	O342	O	1.008298	-0.006220	-0.164065
	H343	H	0.998378	-0.002993	-0.161934
	H344	H	0.993399	-0.001137	-0.157485
	O345	O	0.636466	0.690408	0.537872
	H346	H	0.623041	0.699322	0.532319
	H347	H	0.639936	0.670107	0.534158
	O348	O	1.656899	-0.529236	1.312670
	H349	H	1.663501	-0.548098	1.302965
	H350	H	1.662677	-0.548509	1.301409
	O351	O	1.057122	1.004877	0.019493
	H352	H	1.065503	0.999975	0.006637
	H353	H	1.053060	0.995337	0.034874
	O354	O	0.441592	0.633764	0.579665
	H355	H	0.423273	0.638799	0.568111
	H356	H	0.449874	0.634422	0.596734
	O357	O	1.050964	1.107291	1.075249
	H358	H	1.044135	1.094428	1.080403
	H359	H	1.050642	1.110947	1.076224
	O360	O	0.478938	0.695608	0.330545
	H361	H	0.492881	0.704144	0.322392
	H362	H	0.501362	0.675613	0.329421
	O363	O	0.946650	0.049909	0.082588
	H364	H	0.948648	0.031443	0.089826
	H365	H	0.964337	0.049601	0.087106
	O366	O	1.085577	0.021858	1.239171
	H367	H	1.076940	0.013519	1.228702
	H368	H	1.073434	0.036250	1.251296
	O369	O	0.291676	0.653235	-0.460853
	H370	H	0.302979	0.652265	-0.489066
	H371	H	0.275721	0.671841	-0.469959
	O372	O	0.303008	0.396585	0.731296
	H373	H	0.307111	0.398166	0.738245
	H374	H	0.283440	0.424256	0.739619
	O375	O	-0.286133	0.322638	1.476936
	H376	H	-0.300716	0.320793	1.471558
	H377	H	-0.271675	0.308565	1.454745
	O378	O	0.508637	0.303360	0.358536
	H379	H	0.495229	0.303403	0.357302
	H380	H	0.497582	0.305689	0.371507
	O381	O	1.223396	-0.217204	-0.006021
	H382	H	1.221403	-0.225399	-0.027598
	H383	H	1.243193	-0.239892	-0.022702
	O384	O	0.112641	0.034869	1.252211
	H385	H	0.115817	0.023616	1.241155
	H386	H	0.113272	0.023089	1.259804
	O387	O	-0.128304	0.860142	0.911589
	H388	H	-0.131358	0.870743	0.923789
	H389	H	-0.138468	0.868352	0.911912
	O390	O	-0.165834	-0.126622	1.133778
	H391	H	-0.145395	-0.128825	1.133138
	H392	H	-0.170711	-0.131733	1.125662
	O393	O	0.316472	0.302219	-0.365718
	H394	H	0.305966	0.326493	-0.354046
	H395	H	0.307071	0.294570	-0.373813
	O396	O	0.591118	0.577080	0.538062
	H397	H	0.587014	0.575608	0.552960
	H398	H	0.577076	0.568601	0.540802
	O399	O	1.045883	0.033274	0.965190
	H400	H	1.045779	0.014659	0.964599
	H401	H	1.036353	0.041154	0.958570
	O402	O	0.137657	-0.008081	0.808059
	H403	H	0.132273	-0.007099	0.792783
	H404	H	0.148931	0.012141	0.810026
	O405	O	0.214997	0.216154	0.057617
	H406	H	0.216666	0.216408	0.033910
	H407	H	0.234918	0.225312	0.048098
	O408	O	1.015573	1.139923	-0.184685
	H409	H	0.999021	1.138514	-0.171939
	H410	H	1.019984	1.171612	-0.197970
	O411	O	-0.218255	0.938170	-0.037695
	H412	H	-0.225047	0.946836	-0.028685
	H413	H	-0.202122	0.940258	-0.039302
	O414	O	0.050938	0.974384	0.099830
	H415	H	0.064197	0.982089	0.108116
	H416	H	0.047877	0.956917	0.106381
	O417	O	-0.215604	0.019316	0.815506
	H418	H	-0.234013	0.018961	0.799989
	H419	H	-0.216965	0.019339	0.819327
	O420	O	0.529450	0.705874	0.738540
	H421	H	0.535309	0.698200	0.739429
	H422	H	0.550966	0.715123	0.758897
	O423	O	-0.182644	1.186919	0.210069
	H424	H	-0.157728	1.167304	0.204491
	H425	H	-0.166744	1.171039	0.185206
	O426	O	0.308724	1.346418	0.514805
	H427	H	0.291688	1.322833	0.520209
	H428	H	0.305882	1.368092	0.495428
	O429	O	0.618803	0.465888	0.612835
	H430	H	0.614403	0.456553	0.610188
	H431	H	0.607793	0.448176	0.604202
	O432	O	0.657499	0.298454	0.326229
	H433	H	0.663654	0.278504	0.304534
	H434	H	0.615743	0.290937	0.330106
	O435	O	-0.511006	0.289427	-0.257954
	H436	H	-0.540249	0.284997	-0.251708
	H437	H	-0.518656	0.265725	-0.256505
	O438	O	1.150907	0.085055	-0.080976
	H439	H	1.145618	0.092223	-0.074054
	H440	H	1.149662	0.081952	-0.075700
	O441	O	0.792995	0.922502	0.240883
	H442	H	0.778597	0.899041	0.237116
	H443	H	0.785679	0.921223	0.257619
	O444	O	0.594186	0.335023	0.516376
	H445	H	0.614152	0.317276	0.495936
	H446	H	0.575501	0.342007	0.515977
	O447	O	0.691799	0.687775	0.718040
	H448	H	0.695747	0.669891	0.720058
	H449	H	0.695558	0.691193	0.687456
	O450	O	0.652370	0.372976	0.549704
	H451	H	0.649192	0.365543	0.543098
	H452	H	0.669614	0.346124	0.551827
	O453	O	1.014093	0.883798	-0.010906
	H454	H	1.008822	0.871344	-0.006239
	H455	H	1.013763	0.874105	-0.017388
	O456	O	0.967851	-0.124996	-0.040267
	H457	H	0.988328	-0.138698	-0.052335
	H458	H	0.981758	-0.107135	-0.029412
	O459	O	0.645369	0.618045	0.359947
	H460	H	0.641514	0.604969	0.370394
	H461	H	0.648737	0.594133	0.371426
	O462	O	0.558542	0.509448	0.510173
	H463	H	0.563575	0.519688	0.497077
	H464	H	0.561192	0.502205	0.522442
	O465	O	1.014156	0.180418	0.037367
	H466	H	1.022817	0.164525	0.042485
	H467	H	0.999994	0.184375	0.041883
