data_Molecule from HDF5

_cell_length_a		16.258101
_cell_length_b		16.350199
_cell_length_c		16.193913
_cell_angle_alpha	90.033690
_cell_angle_beta	90.034127
_cell_angle_gamma	89.952334
_symmetry_space_group_name_H-M	'P 1'
_symmetry_Int_Tables_number		1

loop_
	_symmetry_equiv_pos_as_xyz
	x,y,z

loop_
	_atom_site_label
	_atom_site_type_symbol
	_atom_site_fract_x
	_atom_site_fract_y
	_atom_site_fract_z
	H0	H	0.403257	0.836596	0.713279
	H1	H	0.596981	0.163396	0.713063
	H2	H	0.597615	0.835859	0.285890
	H3	H	0.402396	0.163348	0.285457
	H4	H	0.713168	0.402454	0.835684
	H5	H	0.712896	0.597416	0.165230
	H6	H	0.286383	0.597244	0.835562
	H7	H	0.288016	0.404621	0.165291
	H8	H	0.836467	0.714187	0.401166
	H9	H	0.163797	0.714678	0.599192
	H10	H	0.836628	0.285896	0.598716
	H11	H	0.163824	0.284677	0.400618
	H12	H	0.836028	0.403575	0.712100
	H13	H	0.163968	0.596604	0.712906
	H14	H	0.835229	0.595620	0.288596
	H15	H	0.164709	0.403749	0.287517
	H16	H	0.400859	0.714131	0.835665
	H17	H	0.598820	0.715491	0.164651
	H18	H	0.598743	0.286332	0.835781
	H19	H	0.401305	0.286053	0.164198
	H20	H	0.715335	0.836752	0.402183
	H21	H	0.713058	0.163189	0.596809
	H22	H	0.285610	0.836941	0.598735
	H23	H	0.285482	0.163225	0.401175
	H24	H	0.903622	0.336100	0.213476
	H25	H	0.095268	0.664430	0.212092
	H26	H	0.096717	0.336631	0.786305
	H27	H	0.901036	0.663045	0.784543
	H28	H	0.214260	0.902417	0.335131
	H29	H	0.212275	0.096096	0.665331
	H30	H	0.787262	0.096017	0.335292
	H31	H	0.788332	0.903890	0.664934
	H32	H	0.335933	0.214944	0.901594
	H33	H	0.663732	0.214895	0.099589
	H34	H	0.336247	0.785298	0.098595
	H35	H	0.663414	0.784477	0.901625
	H36	H	0.335313	0.903441	0.212807
	H37	H	0.664864	0.095211	0.212025
	H38	H	0.335152	0.096495	0.787802
	H39	H	0.664651	0.902976	0.787929
	H40	H	0.901855	0.213776	0.335440
	H41	H	0.098773	0.213911	0.663580
	H42	H	0.098425	0.786671	0.334346
	H43	H	0.900943	0.785145	0.663320
	H44	H	0.214207	0.336858	0.902523
	H45	H	0.214082	0.663426	0.098728
	H46	H	0.785105	0.337172	0.099674
	H47	H	0.784150	0.663284	0.901165
	H48	H	0.405328	0.116331	0.592771
	H49	H	0.596048	0.883978	0.588368
	H50	H	0.593383	0.115582	0.405272
	H51	H	0.407411	0.883600	0.403885
	H52	H	0.594122	0.411108	0.116899
	H53	H	0.587211	0.599763	0.882476
	H54	H	0.397924	0.589964	0.119115
	H55	H	0.407261	0.403200	0.881309
	H56	H	0.121448	0.597105	0.396834
	H57	H	0.881082	0.593264	0.598323
	H58	H	0.122406	0.398891	0.603737
	H59	H	0.884711	0.406661	0.410173
	H60	H	0.115996	0.399249	0.581419
	H61	H	0.882039	0.599609	0.589549
	H62	H	0.116962	0.600428	0.414908
	H63	H	0.882932	0.407875	0.404332
	H64	H	0.414883	0.587790	0.113675
	H65	H	0.600846	0.594479	0.880802
	H66	H	0.587845	0.404417	0.116735
	H67	H	0.403316	0.408214	0.882009
	H68	H	0.593130	0.115187	0.407915
	H69	H	0.599321	0.880871	0.598016
	H70	H	0.405312	0.116894	0.594586
	H71	H	0.409493	0.885136	0.408720
	H72	H	0.904760	0.617911	0.097460
	H73	H	0.097267	0.382643	0.095380
	H74	H	0.094934	0.617490	0.904345
	H75	H	0.898586	0.381578	0.905176
	H76	H	0.096521	0.905068	0.618194
	H77	H	0.085297	0.102168	0.382347
	H78	H	0.903799	0.099045	0.620210
	H79	H	0.904934	0.899367	0.379531
	H80	H	0.618388	0.087532	0.896529
	H81	H	0.384355	0.092732	0.088711
	H82	H	0.613602	0.910049	0.085763
	H83	H	0.384264	0.909208	0.908787
	H84	H	0.617630	0.910480	0.099268
	H85	H	0.382639	0.091350	0.095940
	H86	H	0.620795	0.106810	0.907842
	H87	H	0.382746	0.906435	0.902977
	H88	H	0.903693	0.090323	0.618514
	H89	H	0.104175	0.094916	0.378643
	H90	H	0.092384	0.910336	0.615065
	H91	H	0.902105	0.911755	0.381701
	H92	H	0.089818	0.615181	0.906011
	H93	H	0.092929	0.383681	0.096139
	H94	H	0.909309	0.614863	0.092891
	H95	H	0.912005	0.384836	0.901408
	H96	H	0.406882	0.116464	0.594433
	H97	H	0.589402	0.883958	0.596372
	H98	H	0.595017	0.116769	0.406355
	H99	H	0.403965	0.883977	0.408036
	H100	H	0.596508	0.402887	0.120173
	H101	H	0.590156	0.585832	0.885977
	H102	H	0.409077	0.604063	0.120280
	H103	H	0.409328	0.408195	0.883943
	H104	H	0.113843	0.583731	0.407055
	H105	H	0.885844	0.589154	0.588848
	H106	H	0.114148	0.418177	0.594274
	H107	H	0.881750	0.402341	0.406763
	H108	H	0.902731	0.616087	0.090929
	H109	H	0.094895	0.384419	0.092217
	H110	H	0.093853	0.615744	0.909215
	H111	H	0.908007	0.387177	0.914611
	H112	H	0.089557	0.903451	0.616951
	H113	H	0.089705	0.082290	0.385949
	H114	H	0.911284	0.095090	0.615973
	H115	H	0.914249	0.907105	0.384244
	H116	H	0.612080	0.088532	0.918048
	H117	H	0.381766	0.098532	0.092898
	H118	H	0.618539	0.898541	0.091901
	H119	H	0.382223	0.903234	0.908400
	C120	C	0.378158	0.008532	0.622154
	C121	C	0.622651	0.991143	0.622051
	C122	C	0.622201	0.007969	0.378031
	C123	C	0.378573	0.992004	0.378569
	C124	C	0.621001	0.378530	0.008862
	C125	C	0.620891	0.621503	0.992094
	C126	C	0.379013	0.621460	0.008714
	C127	C	0.378655	0.378929	0.991327
	C128	C	0.008868	0.621539	0.378206
	C129	C	0.991533	0.621340	0.620941
	C130	C	0.008955	0.378026	0.621221
	C131	C	0.991903	0.378311	0.378685
	C132	C	0.878107	0.508217	0.122134
	C133	C	0.122308	0.491888	0.122387
	C134	C	0.121190	0.508352	0.878482
	C135	C	0.877498	0.491936	0.877994
	C136	C	0.121530	0.878292	0.507779
	C137	C	0.121070	0.120848	0.491249
	C138	C	0.878686	0.121944	0.508829
	C139	C	0.878892	0.878254	0.490883
	C140	C	0.508267	0.121807	0.879172
	C141	C	0.491776	0.121962	0.121316
	C142	C	0.508089	0.878286	0.121130
	C143	C	0.491346	0.878100	0.878634
	C144	C	0.382239	0.885253	0.675740
	C145	C	0.618444	0.114529	0.675907
	C146	C	0.618785	0.884677	0.323501
	C147	C	0.381648	0.114786	0.323567
	C148	C	0.675627	0.381942	0.884911
	C149	C	0.675296	0.618554	0.116020
	C150	C	0.323868	0.618352	0.884726
	C151	C	0.325097	0.382977	0.116008
	C152	C	0.885167	0.676187	0.380873
	C153	C	0.114753	0.676160	0.618920
	C154	C	0.885607	0.323564	0.618989
	C155	C	0.115116	0.323427	0.380851
	C156	C	0.885192	0.381951	0.675184
	C157	C	0.115296	0.617348	0.675350
	C158	C	0.884484	0.617451	0.324792
	C159	C	0.115392	0.382207	0.324316
	C160	C	0.380681	0.676180	0.884751
	C161	C	0.618472	0.676852	0.115782
	C162	C	0.618912	0.324094	0.884861
	C163	C	0.381415	0.324332	0.115357
	C164	C	0.677064	0.885112	0.381116
	C165	C	0.676210	0.114374	0.618296
	C166	C	0.323431	0.885757	0.619121
	C167	C	0.323562	0.114664	0.381235
	C168	C	0.882249	0.385126	0.176313
	C169	C	0.117638	0.615214	0.175967
	C170	C	0.117752	0.385283	0.824031
	C171	C	0.880170	0.614474	0.822523
	C172	C	0.176619	0.881678	0.384193
	C173	C	0.175262	0.117216	0.615704
	C174	C	0.824423	0.118043	0.384482
	C175	C	0.825315	0.882372	0.615284
	C176	C	0.384645	0.176773	0.881399
	C177	C	0.615064	0.176759	0.119534
	C178	C	0.384780	0.823345	0.119028
	C179	C	0.614828	0.822948	0.881209
	C180	C	0.384223	0.882205	0.175371
	C181	C	0.615518	0.117413	0.175467
	C182	C	0.384505	0.118143	0.824728
	C183	C	0.615534	0.881851	0.824958
	C184	C	0.881482	0.176075	0.384431
	C185	C	0.119009	0.175938	0.615038
	C186	C	0.119284	0.823752	0.384006
	C187	C	0.881147	0.823454	0.614700
	C188	C	0.176170	0.385520	0.881613
	C189	C	0.176024	0.615082	0.118973
	C190	C	0.823433	0.385518	0.119629
	C191	C	0.822690	0.614849	0.880909
	C192	C	0.399820	0.094512	0.600448
	C193	C	0.601245	0.905082	0.600653
	C194	C	0.600344	0.093626	0.399982
	C195	C	0.400602	0.906218	0.400510
	C196	C	0.598997	0.399821	0.095545
	C197	C	0.599018	0.599785	0.905414
	C198	C	0.400870	0.600196	0.095353
	C199	C	0.400108	0.400263	0.904827
	C200	C	0.095147	0.600017	0.399759
	C201	C	0.905114	0.600199	0.598808
	C202	C	0.095324	0.399071	0.599682
	C203	C	0.905506	0.399446	0.400643
	C204	C	0.899260	0.594157	0.100238
	C205	C	0.101359	0.405814	0.100758
	C206	C	0.099460	0.594179	0.900049
	C207	C	0.899654	0.406386	0.900447
	C208	C	0.099260	0.899870	0.594592
	C209	C	0.099524	0.099543	0.404715
	C210	C	0.899996	0.101026	0.595549
	C211	C	0.900755	0.899771	0.404216
	C212	C	0.594641	0.100539	0.900977
	C213	C	0.405317	0.100560	0.099122
	C214	C	0.594347	0.899886	0.098862
	C215	C	0.405321	0.899893	0.900158
	Zn216	Zn	0.500223	-0.000146	0.750497
	Zn217	Zn	0.500235	-0.000174	0.249141
	Zn218	Zn	0.748956	0.499905	0.000236
	Zn219	Zn	0.250814	0.500459	0.000383
	Zn220	Zn	0.000004	0.749757	0.499192
	Zn221	Zn	0.000129	0.249969	0.499990
	Zn222	Zn	-0.000267	0.499895	0.749202
	Zn223	Zn	-0.000113	0.500181	0.250504
	Zn224	Zn	0.499473	0.749692	-0.000101
	Zn225	Zn	0.500058	0.250838	-0.000053
	Zn226	Zn	0.750919	-0.000282	0.500119
	Zn227	Zn	0.249446	0.000292	0.500282
	N228	N	0.415299	0.962688	0.677959
	N229	N	0.585660	0.036849	0.678361
	N230	N	0.585331	0.962047	0.321564
	N231	N	0.415009	0.037415	0.321591
	N232	N	0.676984	0.415188	0.963027
	N233	N	0.676654	0.584658	0.038287
	N234	N	0.322761	0.584883	0.962692
	N235	N	0.323262	0.416306	0.038014
	N236	N	0.963453	0.678988	0.413113
	N237	N	0.036937	0.678509	0.585507
	N238	N	0.963596	0.320978	0.586218
	N239	N	0.037082	0.320732	0.413663
	N240	N	0.962783	0.415665	0.676287
	N241	N	0.037605	0.584150	0.676844
	N242	N	0.962254	0.583891	0.323288
	N243	N	0.037853	0.416095	0.323338
	N244	N	0.414246	0.678202	0.962770
	N245	N	0.585156	0.678618	0.037563
	N246	N	0.585535	0.321966	0.962741
	N247	N	0.414024	0.321813	0.036943
	N248	N	0.679239	0.962575	0.414225
	N249	N	0.678820	0.036750	0.585542
	N250	N	0.320886	0.963497	0.586504
	N251	N	0.321615	0.037262	0.414591
	N252	N	0.915171	0.462582	0.178264
	N253	N	0.084823	0.537756	0.178179
	N254	N	0.084215	0.462521	0.822183
	N255	N	0.913700	0.537148	0.820882
	N256	N	0.178129	0.914717	0.462293
	N257	N	0.176489	0.083670	0.537806
	N258	N	0.822523	0.085084	0.462670
	N259	N	0.823684	0.915690	0.537222
	N260	N	0.462645	0.179079	0.914570
	N261	N	0.536928	0.179666	0.086740
	N262	N	0.462641	0.821019	0.085938
	N263	N	0.536754	0.820556	0.913791
	N264	N	0.462024	0.915461	0.176971
	N265	N	0.537870	0.084103	0.176684
	N266	N	0.462246	0.084695	0.823089
	N267	N	0.537818	0.915474	0.823279
	N268	N	0.914598	0.178518	0.462548
	N269	N	0.085964	0.178320	0.536826
	N270	N	0.085707	0.821548	0.462041
	N271	N	0.914029	0.821063	0.536414
	N272	N	0.178355	0.462984	0.914836
	N273	N	0.178989	0.537301	0.086454
	N274	N	0.821107	0.462912	0.086344
	N275	N	0.820794	0.537641	0.914484
