data_Molecule from HDF5

_cell_length_a		16.552172
_cell_length_b		16.459293
_cell_length_c		16.423860
_cell_angle_alpha	90.056954
_cell_angle_beta	90.158468
_cell_angle_gamma	89.976129
_symmetry_space_group_name_H-M	'P 1'
_symmetry_Int_Tables_number		1

loop_
	_symmetry_equiv_pos_as_xyz
	x,y,z

loop_
	_atom_site_label
	_atom_site_type_symbol
	_atom_site_fract_x
	_atom_site_fract_y
	_atom_site_fract_z
	H0	H	0.396085	0.848097	0.716292
	H1	H	0.601458	0.165551	0.722071
	H2	H	0.595944	0.847779	0.283220
	H3	H	0.392996	0.167637	0.281171
	H4	H	0.717042	0.397507	0.841944
	H5	H	0.715916	0.612969	0.156250
	H6	H	0.274109	0.608038	0.839964
	H7	H	0.275530	0.402541	0.159349
	H8	H	0.837052	0.729372	0.396626
	H9	H	0.152148	0.725215	0.602440
	H10	H	0.836353	0.285618	0.605025
	H11	H	0.150849	0.287791	0.396427
	H12	H	0.835997	0.401177	0.721953
	H13	H	0.151176	0.607654	0.719979
	H14	H	0.835431	0.611919	0.279891
	H15	H	0.151984	0.406033	0.281706
	H16	H	0.390609	0.725334	0.839723
	H17	H	0.598262	0.726897	0.157171
	H18	H	0.599059	0.284090	0.841318
	H19	H	0.392243	0.287637	0.159812
	H20	H	0.716094	0.850502	0.396121
	H21	H	0.717433	0.165824	0.606678
	H22	H	0.276987	0.849170	0.601179
	H23	H	0.274298	0.166041	0.393929
	H24	H	0.890151	0.348103	0.219486
	H25	H	0.093480	0.667595	0.215387
	H26	H	0.096236	0.347905	0.779809
	H27	H	0.890669	0.666336	0.781499
	H28	H	0.214269	0.903658	0.341848
	H29	H	0.215208	0.111917	0.659467
	H30	H	0.771959	0.114055	0.342882
	H31	H	0.773414	0.903028	0.658024
	H32	H	0.335836	0.224279	0.896925
	H33	H	0.652768	0.228122	0.104491
	H34	H	0.335492	0.789965	0.099076
	H35	H	0.651850	0.784113	0.894701
	H36	H	0.335928	0.905969	0.217094
	H37	H	0.653725	0.110501	0.220670
	H38	H	0.337504	0.109683	0.778523
	H39	H	0.653387	0.902426	0.779467
	H40	H	0.889765	0.227673	0.341314
	H41	H	0.096898	0.226636	0.659714
	H42	H	0.098741	0.787165	0.342306
	H43	H	0.891984	0.788931	0.659600
	H44	H	0.214518	0.348436	0.894778
	H45	H	0.212313	0.666136	0.101775
	H46	H	0.772174	0.348806	0.104226
	H47	H	0.771549	0.664217	0.894058
	H48	H	0.404847	0.121760	0.589032
	H49	H	0.583988	0.895080	0.590123
	H50	H	0.581856	0.120736	0.409295
	H51	H	0.400494	0.894631	0.412352
	H52	H	0.583046	0.413791	0.113089
	H53	H	0.577536	0.603797	0.884154
	H54	H	0.401392	0.599974	0.115118
	H55	H	0.404838	0.420159	0.887443
	H56	H	0.107804	0.606220	0.412530
	H57	H	0.881592	0.601751	0.584460
	H58	H	0.106140	0.412702	0.588076
	H59	H	0.882042	0.417090	0.412436
	H60	H	0.102332	0.421684	0.584900
	H61	H	0.882317	0.593351	0.590500
	H62	H	0.102982	0.591705	0.412743
	H63	H	0.880854	0.421113	0.407897
	H64	H	0.401205	0.594403	0.112231
	H65	H	0.592469	0.590542	0.883665
	H66	H	0.586988	0.421832	0.111745
	H67	H	0.406128	0.413150	0.886954
	H68	H	0.582971	0.120530	0.413170
	H69	H	0.583337	0.895738	0.586056
	H70	H	0.404885	0.121091	0.589046
	H71	H	0.401603	0.891825	0.405037
	H72	H	0.903718	0.620002	0.088706
	H73	H	0.087454	0.391761	0.092650
	H74	H	0.082216	0.619069	0.910602
	H75	H	0.905383	0.394554	0.913652
	H76	H	0.085089	0.919241	0.613013
	H77	H	0.082864	0.103558	0.385507
	H78	H	0.899970	0.099857	0.616557
	H79	H	0.906207	0.921713	0.388699
	H80	H	0.602946	0.094266	0.921544
	H81	H	0.380174	0.099675	0.096548
	H82	H	0.608793	0.911175	0.090791
	H83	H	0.384903	0.918701	0.912965
	H84	H	0.606443	0.917804	0.087454
	H85	H	0.384163	0.100671	0.082592
	H86	H	0.607016	0.087769	0.903799
	H87	H	0.383277	0.920377	0.904212
	H88	H	0.905389	0.088287	0.610585
	H89	H	0.091078	0.097186	0.384751
	H90	H	0.085683	0.917140	0.614908
	H91	H	0.907522	0.918431	0.388134
	H92	H	0.084556	0.619814	0.912078
	H93	H	0.083895	0.392863	0.091484
	H94	H	0.903999	0.619358	0.087158
	H95	H	0.902485	0.393234	0.911022
	H96	H	0.404950	0.121700	0.588819
	H97	H	0.586991	0.894892	0.587417
	H98	H	0.585433	0.121687	0.410355
	H99	H	0.407201	0.896102	0.408832
	H100	H	0.578189	0.420585	0.109037
	H101	H	0.574440	0.585377	0.890996
	H102	H	0.405894	0.598377	0.111805
	H103	H	0.399569	0.415455	0.885455
	H104	H	0.109414	0.597758	0.400103
	H105	H	0.877840	0.601734	0.593868
	H106	H	0.105804	0.420451	0.594334
	H107	H	0.879361	0.415036	0.407508
	H108	H	0.901936	0.619382	0.087999
	H109	H	0.086480	0.392815	0.089362
	H110	H	0.084598	0.620378	0.909265
	H111	H	0.906538	0.393232	0.909284
	H112	H	0.087201	0.919405	0.614503
	H113	H	0.082610	0.093881	0.389439
	H114	H	0.913509	0.099787	0.611831
	H115	H	0.904415	0.919809	0.386374
	H116	H	0.611637	0.105866	0.908694
	H117	H	0.386005	0.088499	0.089503
	H118	H	0.608842	0.917506	0.094546
	H119	H	0.380434	0.912524	0.907177
	C120	C	0.374911	0.016255	0.619859
	C121	C	0.616897	0.999327	0.621027
	C122	C	0.615398	0.016187	0.379698
	C123	C	0.372586	0.999346	0.377584
	C124	C	0.614971	0.385353	0.007337
	C125	C	0.614023	0.626598	0.990238
	C126	C	0.371912	0.628172	0.007458
	C127	C	0.372439	0.384589	0.991421
	C128	C	0.002239	0.629778	0.377789
	C129	C	0.985163	0.629065	0.621278
	C130	C	0.001208	0.386023	0.621287
	C131	C	0.985133	0.386431	0.378372
	C132	C	0.871636	0.515154	0.120487
	C133	C	0.115328	0.498303	0.120951
	C134	C	0.115212	0.514977	0.878761
	C135	C	0.872114	0.498364	0.878632
	C136	C	0.116813	0.886920	0.509127
	C137	C	0.116143	0.129413	0.492053
	C138	C	0.873430	0.129057	0.508868
	C139	C	0.873618	0.887381	0.492194
	C140	C	0.503123	0.128072	0.878523
	C141	C	0.487526	0.128125	0.121288
	C142	C	0.503239	0.885050	0.121276
	C143	C	0.486917	0.885115	0.877017
	C144	C	0.375848	0.895862	0.677356
	C145	C	0.619138	0.118400	0.681746
	C146	C	0.615888	0.895894	0.321804
	C147	C	0.373323	0.119311	0.319772
	C148	C	0.675837	0.380956	0.888954
	C149	C	0.675161	0.630246	0.109196
	C150	C	0.313704	0.627738	0.887481
	C151	C	0.314539	0.383642	0.111366
	C152	C	0.883888	0.689455	0.377169
	C153	C	0.104630	0.686597	0.622403
	C154	C	0.883334	0.325565	0.623629
	C155	C	0.103835	0.327808	0.378087
	C156	C	0.882884	0.383593	0.681435
	C157	C	0.104205	0.628405	0.680450
	C158	C	0.883216	0.630838	0.319484
	C159	C	0.104234	0.386417	0.320838
	C160	C	0.371488	0.685961	0.887474
	C161	C	0.616506	0.687000	0.109570
	C162	C	0.617333	0.324132	0.888624
	C163	C	0.372662	0.326352	0.111563
	C164	C	0.675659	0.897427	0.377683
	C165	C	0.676806	0.118467	0.624116
	C166	C	0.316855	0.896511	0.620239
	C167	C	0.314318	0.118703	0.376296
	C168	C	0.870764	0.395762	0.179970
	C169	C	0.113848	0.619194	0.177369
	C170	C	0.115884	0.395553	0.819119
	C171	C	0.871035	0.618157	0.820001
	C172	C	0.175233	0.885060	0.389561
	C173	C	0.175536	0.130873	0.611695
	C174	C	0.812170	0.132208	0.389993
	C175	C	0.813744	0.884908	0.610857
	C176	C	0.383821	0.185927	0.877198
	C177	C	0.605843	0.187819	0.123123
	C178	C	0.383438	0.828208	0.119861
	C179	C	0.604961	0.824597	0.875650
	C180	C	0.383647	0.885975	0.178373
	C181	C	0.606404	0.129638	0.180806
	C182	C	0.384527	0.128752	0.818558
	C183	C	0.605991	0.883515	0.818687
	C184	C	0.871072	0.188361	0.389211
	C185	C	0.116655	0.187811	0.611774
	C186	C	0.117756	0.827174	0.389717
	C187	C	0.872597	0.828048	0.611523
	C188	C	0.174730	0.395964	0.876266
	C189	C	0.172843	0.618599	0.120831
	C190	C	0.812118	0.395986	0.122721
	C191	C	0.811567	0.616890	0.875902
	C192	C	0.398233	0.099679	0.596088
	C193	C	0.591971	0.916724	0.595247
	C194	C	0.590561	0.099224	0.404043
	C195	C	0.396201	0.915825	0.401738
	C196	C	0.589903	0.411404	0.089930
	C197	C	0.588628	0.600721	0.907859
	C198	C	0.395922	0.604421	0.091299
	C199	C	0.396373	0.409280	0.908209
	C200	C	0.085148	0.605592	0.401667
	C201	C	0.902140	0.605552	0.596847
	C202	C	0.083214	0.411333	0.596192
	C203	C	0.902145	0.410629	0.402377
	C204	C	0.896171	0.598067	0.095254
	C205	C	0.092420	0.414205	0.097825
	C206	C	0.090795	0.598186	0.903543
	C207	C	0.897391	0.415473	0.903838
	C208	C	0.092897	0.911477	0.592430
	C209	C	0.092341	0.105269	0.408518
	C210	C	0.898902	0.103287	0.591520
	C211	C	0.898746	0.912881	0.409223
	C212	C	0.585828	0.103265	0.904066
	C213	C	0.404917	0.103450	0.096669
	C214	C	0.586435	0.908504	0.097617
	C215	C	0.404397	0.910160	0.901266
	Zn216	Zn	0.496293	0.007560	0.749073
	Zn217	Zn	0.495341	0.007323	0.250191
	Zn218	Zn	0.743162	0.506007	-0.001200
	Zn219	Zn	0.243872	0.506176	0.000140
	Zn220	Zn	-0.005181	0.758902	0.500227
	Zn221	Zn	-0.006444	0.256990	0.500160
	Zn222	Zn	-0.007099	0.506929	0.750430
	Zn223	Zn	-0.006715	0.507630	0.248979
	Zn224	Zn	0.494421	0.756144	-0.001619
	Zn225	Zn	0.494541	0.256799	-0.000326
	Zn226	Zn	0.745049	0.008523	0.500421
	Zn227	Zn	0.244595	0.008506	0.499935
	N228	N	0.411119	0.971410	0.677330
	N229	N	0.582585	0.043341	0.679935
	N230	N	0.579113	0.970796	0.322793
	N231	N	0.408779	0.043809	0.320300
	N232	N	0.674504	0.418433	0.963713
	N233	N	0.673816	0.593265	0.034179
	N234	N	0.313710	0.592822	0.963360
	N235	N	0.314195	0.419124	0.035661
	N236	N	0.958901	0.688815	0.412760
	N237	N	0.029542	0.687336	0.586796
	N238	N	0.957622	0.327067	0.586828
	N239	N	0.028585	0.327703	0.413150
	N240	N	0.957177	0.420527	0.680237
	N241	N	0.028662	0.593823	0.680257
	N242	N	0.957951	0.594733	0.319497
	N243	N	0.029255	0.422014	0.320791
	N244	N	0.406713	0.686486	0.963253
	N245	N	0.579204	0.684865	0.034757
	N246	N	0.580036	0.327002	0.963226
	N247	N	0.407978	0.326643	0.035942
	N248	N	0.675533	0.973162	0.412726
	N249	N	0.675602	0.043547	0.587294
	N250	N	0.315994	0.972330	0.585502
	N251	N	0.313649	0.043095	0.411492
	N252	N	0.907043	0.470886	0.178715
	N253	N	0.079022	0.543397	0.177851
	N254	N	0.079463	0.470581	0.820453
	N255	N	0.907800	0.543361	0.821418
	N256	N	0.174750	0.921333	0.464714
	N257	N	0.175772	0.095636	0.535812
	N258	N	0.813362	0.096240	0.465529
	N259	N	0.814253	0.921009	0.535642
	N260	N	0.458694	0.185629	0.913550
	N261	N	0.531002	0.186851	0.086826
	N262	N	0.458927	0.827382	0.085282
	N263	N	0.529783	0.825208	0.910963
	N264	N	0.459246	0.920282	0.179738
	N265	N	0.531764	0.093143	0.179749
	N266	N	0.460012	0.093998	0.818982
	N267	N	0.531544	0.920250	0.819226
	N268	N	0.908132	0.186788	0.464065
	N269	N	0.080839	0.187194	0.536367
	N270	N	0.081979	0.828013	0.465149
	N271	N	0.909214	0.829464	0.536564
	N272	N	0.174499	0.471338	0.912355
	N273	N	0.174167	0.542258	0.086835
	N274	N	0.812456	0.471298	0.086740
	N275	N	0.812161	0.541215	0.911389
	O276	O	0.199840	0.210272	0.204934
	H277	H	0.190582	0.202822	0.185058
	H278	H	0.226758	0.229292	0.226434
	O279	O	0.487943	0.440164	0.358342
	H280	H	0.484007	0.444382	0.363446
	H281	H	0.491431	0.432767	0.357521
	O282	O	0.327353	0.549803	0.550562
	H283	H	0.342463	0.537865	0.560855
	H284	H	0.322277	0.537458	0.536351
	O285	O	0.331070	0.340758	0.317501
	H286	H	0.343788	0.347756	0.336802
	H287	H	0.360313	0.358612	0.324262
	O288	O	-0.210423	-0.054344	-0.104573
	H289	H	-0.213175	-0.060175	-0.103091
	H290	H	-0.215341	-0.035038	-0.115425
	O291	O	1.212500	0.841798	-0.004830
	H292	H	1.226867	0.821071	-0.016404
	H293	H	1.223480	0.832353	-0.033095
	O294	O	-0.034317	0.805806	0.212111
	H295	H	-0.043936	0.789222	0.229147
	H296	H	-0.044206	0.807978	0.205544
	O297	O	0.289379	0.469948	0.449215
	H298	H	0.291068	0.450386	0.455549
	H299	H	0.286526	0.470634	0.429346
	O300	O	0.279741	0.542068	0.283044
	H301	H	0.260111	0.546531	0.256933
	H302	H	0.286353	0.554987	0.282859
	O303	O	0.624884	0.662630	0.586853
	H304	H	0.631355	0.666900	0.567272
	H305	H	0.621999	0.680819	0.600172
	O306	O	0.092780	1.218953	1.142672
	H307	H	0.091251	1.212292	1.150871
	H308	H	0.107680	1.223645	1.141296
	O309	O	0.571274	0.705369	0.704037
	H310	H	0.566783	0.711331	0.720903
	H311	H	0.581623	0.708742	0.697891
	O312	O	0.058372	0.985016	0.197762
	H313	H	0.060460	0.962756	0.195558
	H314	H	0.076094	0.983674	0.201260
	O315	O	0.180420	0.030114	1.158221
	H316	H	0.192388	0.036555	1.170994
	H317	H	0.180268	0.034710	1.145602
	O318	O	0.291596	0.710370	0.416595
	H319	H	0.294344	0.700911	0.424112
	H320	H	0.288900	0.709909	0.424976
	O321	O	0.301052	0.661984	0.647437
	H322	H	0.307734	0.638140	0.632768
	H323	H	0.323624	0.664470	0.633900
	O324	O	0.806864	0.180454	1.006990
	H325	H	0.793171	0.182244	0.993383
	H326	H	0.818114	0.173279	1.010265
	O327	O	1.032421	0.140332	0.943983
	H328	H	1.026063	0.137139	0.947674
	H329	H	1.043549	0.140446	0.956130
	O330	O	0.792690	-0.195528	0.199176
	H331	H	0.773870	-0.220579	0.226265
	H332	H	0.796578	-0.165447	0.198031
	O333	O	1.036672	0.871439	0.947110
	H334	H	1.018085	0.890762	0.942681
	H335	H	1.039273	0.864507	0.937070
	O336	O	1.083650	-0.206920	0.782365
	H337	H	1.051393	-0.208987	0.779216
	H338	H	1.083059	-0.229356	0.761779
	O339	O	0.283707	0.382438	0.713521
	H340	H	0.300263	0.393710	0.718836
	H341	H	0.263943	0.378611	0.735852
	O342	O	0.678925	0.315229	0.307253
	H343	H	0.692546	0.301026	0.332471
	H344	H	0.690311	0.327561	0.305396
	O345	O	0.512491	0.720228	0.461795
	H346	H	0.502101	0.728412	0.435015
	H347	H	0.507115	0.707386	0.467143
	O348	O	1.206365	-0.142685	0.789491
	H349	H	1.230507	-0.171729	0.762324
	H350	H	1.172685	-0.159432	0.785808
	O351	O	0.947505	1.068245	-0.083106
	H352	H	0.961645	1.061488	-0.080567
	H353	H	0.953967	1.078448	-0.073897
	O354	O	0.455999	0.452159	0.438223
	H355	H	0.454946	0.450335	0.423566
	H356	H	0.455357	0.450755	0.436168
	O357	O	0.983068	1.224558	1.113618
	H358	H	0.988719	1.237323	1.123477
	H359	H	0.990319	1.223751	1.126275
	O360	O	0.442756	0.443814	0.709367
	H361	H	0.449156	0.434767	0.696889
	H362	H	0.446644	0.444688	0.724384
	O363	O	0.865855	0.123151	0.189135
	H364	H	0.882866	0.106932	0.186840
	H365	H	0.875493	0.120548	0.179259
	O366	O	1.205852	0.177949	0.982954
	H367	H	1.227988	0.190171	0.985951
	H368	H	1.197813	0.164978	0.981672
	O369	O	0.683140	0.677358	0.329865
	H370	H	0.667607	0.661295	0.354876
	H371	H	0.669056	0.662567	0.343966
	O372	O	0.612869	0.442501	0.526956
	H373	H	0.615965	0.434213	0.521166
	H374	H	0.606628	0.454795	0.531582
	O375	O	-0.104376	1.202384	0.817035
	H376	H	-0.091022	1.196735	0.829218
	H377	H	-0.077448	1.212357	0.822991
	O378	O	0.479632	0.697510	0.297696
	H379	H	0.460524	0.704615	0.294602
	H380	H	0.464431	0.718063	0.283356
	O381	O	1.156247	-0.042879	-0.159882
	H382	H	1.158520	-0.059375	-0.154834
	H383	H	1.169212	-0.064709	-0.171049
	O384	O	0.180140	-0.117813	1.100356
	H385	H	0.184555	-0.137018	1.073389
	H386	H	0.161882	-0.096771	1.080600
	O387	O	0.107568	1.108190	0.820384
	H388	H	0.101019	1.084476	0.828304
	H389	H	0.099471	1.100211	0.832275
	O390	O	-0.072146	-0.082587	1.095000
	H391	H	-0.079973	-0.074278	1.111406
	H392	H	-0.054903	-0.078106	1.097341
	O393	O	0.798578	0.808400	0.016875
	H394	H	0.800816	0.830592	0.033842
	H395	H	0.782085	0.787711	0.032190
	O396	O	0.700510	0.478810	0.289024
	H397	H	0.703997	0.477019	0.273006
	H398	H	0.702032	0.473736	0.277333
	O399	O	0.513087	0.535979	0.300235
	H400	H	0.502770	0.548746	0.299252
	H401	H	0.513490	0.530862	0.293114
	O402	O	0.150782	0.015867	1.046353
	H403	H	0.146340	0.016155	1.050826
	H404	H	0.157001	0.019416	1.036276
	O405	O	-0.093659	-0.179512	-0.085075
	H406	H	-0.099973	-0.157792	-0.080856
	H407	H	-0.089570	-0.177146	-0.075850
	O408	O	0.697446	0.678396	0.501683
	H409	H	0.685133	0.670173	0.493958
	H410	H	0.707738	0.675308	0.496661
	O411	O	0.298584	0.714716	0.336407
	H412	H	0.269517	0.740455	0.312433
	H413	H	0.291081	0.717786	0.360593
	O414	O	0.463092	0.329721	0.666055
	H415	H	0.464443	0.313541	0.680567
	H416	H	0.471405	0.329518	0.662692
	O417	O	0.693641	0.525458	0.717932
	H418	H	0.704504	0.536419	0.734612
	H419	H	0.695087	0.560726	0.722756
	O420	O	0.525787	0.307485	0.440347
	H421	H	0.529766	0.296410	0.438129
	H422	H	0.529607	0.316276	0.432913
	O423	O	-0.178945	1.125775	-0.040163
	H424	H	-0.155374	1.121494	-0.031409
	H425	H	-0.184356	1.120358	-0.041618
	O426	O	0.802067	1.074777	0.808135
	H427	H	0.825239	1.089085	0.809158
	H428	H	0.789987	1.095715	0.789504
	O429	O	0.477500	0.714053	0.612649
	H430	H	0.476678	0.719798	0.621004
	H431	H	0.490058	0.695432	0.594296
	O432	O	0.273031	0.287455	0.529641
	H433	H	0.269581	0.275193	0.551583
	H434	H	0.257833	0.273259	0.542920
	O435	O	-0.013965	0.177395	-0.097409
	H436	H	-0.000379	0.181603	-0.084496
	H437	H	-0.003285	0.184747	-0.084038
	O438	O	1.123692	-0.149407	0.143913
	H439	H	1.113875	-0.158572	0.128600
	H440	H	1.118749	-0.130484	0.134894
	O441	O	0.684127	0.500642	0.496555
	H442	H	0.690264	0.491090	0.473624
	H443	H	0.683991	0.487871	0.500749
	O444	O	0.435292	0.439129	0.468177
	H445	H	0.437911	0.437966	0.461814
	H446	H	0.438442	0.430892	0.463678
	O447	O	0.704986	0.295667	0.470869
	H448	H	0.696860	0.291647	0.491319
	H449	H	0.723682	0.290932	0.481333
	O450	O	0.518570	0.504782	0.659871
	H451	H	0.524252	0.505364	0.649822
	H452	H	0.531319	0.498028	0.663895
	O453	O	0.880683	0.867115	0.779001
	H454	H	0.880153	0.886986	0.786574
	H455	H	0.879823	0.878258	0.777207
	O456	O	0.789553	-0.022222	0.158537
	H457	H	0.798318	-0.012030	0.163646
	H458	H	0.781464	-0.021749	0.166138
	O459	O	0.446448	0.342906	0.617542
	H460	H	0.451841	0.350581	0.619206
	H461	H	0.460474	0.344869	0.630326
	O462	O	0.533649	0.442062	0.659785
	H463	H	0.536599	0.436469	0.667858
	H464	H	0.534187	0.454103	0.663838
	O465	O	0.961238	0.011462	-0.077306
	H466	H	0.971798	0.025393	-0.072327
	H467	H	0.953607	0.005942	-0.073436
