data_Molecule from HDF5

_cell_length_a		16.213454
_cell_length_b		16.235632
_cell_length_c		16.263195
_cell_angle_alpha	90.059726
_cell_angle_beta	90.102859
_cell_angle_gamma	89.900449
_symmetry_space_group_name_H-M	'P 1'
_symmetry_Int_Tables_number		1

loop_
	_symmetry_equiv_pos_as_xyz
	x,y,z

loop_
	_atom_site_label
	_atom_site_type_symbol
	_atom_site_fract_x
	_atom_site_fract_y
	_atom_site_fract_z
	H0	H	0.397940	0.818389	0.721152
	H1	H	0.597078	0.146024	0.722119
	H2	H	0.596296	0.817131	0.292140
	H3	H	0.397271	0.145836	0.290162
	H4	H	0.711957	0.384283	0.841106
	H5	H	0.711227	0.580627	0.170396
	H6	H	0.282321	0.580084	0.842013
	H7	H	0.284038	0.384737	0.170180
	H8	H	0.833277	0.695647	0.407140
	H9	H	0.161472	0.696322	0.604479
	H10	H	0.834057	0.267895	0.605597
	H11	H	0.162871	0.269526	0.408505
	H12	H	0.833370	0.385772	0.718884
	H13	H	0.161844	0.582265	0.721712
	H14	H	0.833297	0.580106	0.292595
	H15	H	0.161666	0.384410	0.292656
	H16	H	0.397758	0.696931	0.841471
	H17	H	0.595799	0.696451	0.170218
	H18	H	0.596505	0.267112	0.841059
	H19	H	0.399419	0.268009	0.169582
	H20	H	0.711365	0.817636	0.407607
	H21	H	0.712235	0.146634	0.605451
	H22	H	0.282760	0.817731	0.603209
	H23	H	0.282865	0.146117	0.406940
	H24	H	0.898594	0.318146	0.220287
	H25	H	0.094694	0.646262	0.219842
	H26	H	0.096893	0.318907	0.791545
	H27	H	0.896076	0.646478	0.790444
	H28	H	0.211729	0.883060	0.341170
	H29	H	0.211606	0.080240	0.669350
	H30	H	0.783000	0.080642	0.341060
	H31	H	0.783008	0.883586	0.669228
	H32	H	0.332930	0.196138	0.906937
	H33	H	0.662059	0.196351	0.106698
	H34	H	0.333306	0.768190	0.104440
	H35	H	0.661692	0.766896	0.907494
	H36	H	0.332553	0.884795	0.218848
	H37	H	0.661758	0.079697	0.220638
	H38	H	0.333130	0.080303	0.792878
	H39	H	0.661217	0.880831	0.790821
	H40	H	0.898261	0.196985	0.341365
	H41	H	0.096946	0.196678	0.668672
	H42	H	0.096133	0.766906	0.341526
	H43	H	0.898257	0.766903	0.669433
	H44	H	0.211200	0.318340	0.907973
	H45	H	0.210961	0.646618	0.104397
	H46	H	0.784259	0.318471	0.103130
	H47	H	0.783179	0.647521	0.908933
	H48	H	0.399200	0.100693	0.599478
	H49	H	0.596129	0.866724	0.590730
	H50	H	0.584204	0.096180	0.414784
	H51	H	0.406279	0.866340	0.415697
	H52	H	0.587099	0.385568	0.121917
	H53	H	0.589036	0.573207	0.890072
	H54	H	0.404006	0.575303	0.122454
	H55	H	0.406462	0.383733	0.887513
	H56	H	0.114223	0.568766	0.410374
	H57	H	0.881046	0.570108	0.601044
	H58	H	0.114150	0.389086	0.595314
	H59	H	0.878275	0.387478	0.409844
	H60	H	0.114884	0.391663	0.602833
	H61	H	0.877566	0.579104	0.602080
	H62	H	0.118299	0.580240	0.409022
	H63	H	0.880439	0.387109	0.416116
	H64	H	0.405837	0.575259	0.121854
	H65	H	0.588530	0.576221	0.889672
	H66	H	0.595329	0.386090	0.123575
	H67	H	0.399130	0.390028	0.888293
	H68	H	0.594960	0.099710	0.416266
	H69	H	0.592863	0.862954	0.606529
	H70	H	0.407283	0.099887	0.604345
	H71	H	0.399443	0.862741	0.411737
	H72	H	0.909947	0.598895	0.103960
	H73	H	0.088350	0.363635	0.106304
	H74	H	0.092586	0.602388	0.907897
	H75	H	0.910229	0.365693	0.905781
	H76	H	0.094837	0.885289	0.624636
	H77	H	0.087253	0.077252	0.387754
	H78	H	0.906419	0.067276	0.619220
	H79	H	0.900179	0.885347	0.386517
	H80	H	0.616715	0.076738	0.911223
	H81	H	0.380272	0.073099	0.101387
	H82	H	0.612067	0.896287	0.095336
	H83	H	0.378003	0.883996	0.911022
	H84	H	0.617068	0.889109	0.107008
	H85	H	0.378667	0.078310	0.099698
	H86	H	0.613629	0.075132	0.918889
	H87	H	0.382472	0.889769	0.918890
	H88	H	0.910860	0.079835	0.621182
	H89	H	0.093144	0.076712	0.386542
	H90	H	0.091577	0.895885	0.619723
	H91	H	0.902901	0.893506	0.389549
	H92	H	0.081867	0.597301	0.913863
	H93	H	0.087159	0.366860	0.095560
	H94	H	0.903763	0.597827	0.093007
	H95	H	0.907566	0.369232	0.920438
	H96	H	0.407297	0.096894	0.595377
	H97	H	0.580214	0.869075	0.596941
	H98	H	0.590351	0.100778	0.406386
	H99	H	0.406787	0.864575	0.407282
	H100	H	0.590530	0.392896	0.120622
	H101	H	0.591293	0.574917	0.888853
	H102	H	0.405343	0.576794	0.123056
	H103	H	0.407532	0.393026	0.891228
	H104	H	0.113630	0.575801	0.419055
	H105	H	0.882003	0.576298	0.593501
	H106	H	0.116613	0.384929	0.600966
	H107	H	0.882310	0.393173	0.413231
	H108	H	0.897983	0.602267	0.103712
	H109	H	0.096933	0.363271	0.098319
	H110	H	0.093677	0.598929	0.919531
	H111	H	0.896443	0.362949	0.912268
	H112	H	0.083139	0.886818	0.619752
	H113	H	0.090510	0.072457	0.389659
	H114	H	0.898410	0.077440	0.624201
	H115	H	0.908296	0.886605	0.389823
	H116	H	0.613423	0.070168	0.912928
	H117	H	0.381596	0.073643	0.096512
	H118	H	0.614876	0.882736	0.094734
	H119	H	0.380616	0.893779	0.909319
	C120	C	0.375614	-0.009208	0.627652
	C121	C	0.619170	0.974034	0.627774
	C122	C	0.619022	-0.009884	0.383893
	C123	C	0.375517	0.973269	0.383460
	C124	C	0.619921	0.359620	0.013578
	C125	C	0.618315	0.603537	0.997906
	C126	C	0.375841	0.604214	0.014166
	C127	C	0.375969	0.360804	0.997419
	C128	C	0.006454	0.603355	0.384623
	C129	C	0.988897	0.603814	0.627866
	C130	C	0.006301	0.360781	0.627829
	C131	C	0.989158	0.361016	0.384930
	C132	C	0.875516	0.491199	0.128355
	C133	C	0.119211	0.473234	0.128058
	C134	C	0.118016	0.490930	0.885316
	C135	C	0.876127	0.474744	0.884711
	C136	C	0.118981	0.860584	0.513250
	C137	C	0.119111	0.103945	0.496440
	C138	C	0.875875	0.103885	0.513402
	C139	C	0.875459	0.860002	0.497076
	C140	C	0.505985	0.103166	0.885036
	C141	C	0.488839	0.103603	0.128082
	C142	C	0.505873	0.860802	0.127261
	C143	C	0.488862	0.860309	0.884540
	C144	C	0.377681	0.867276	0.682742
	C145	C	0.617549	0.097200	0.683895
	C146	C	0.616725	0.866499	0.329231
	C147	C	0.377857	0.096901	0.328704
	C148	C	0.674452	0.363173	0.890021
	C149	C	0.673712	0.601140	0.121327
	C150	C	0.319961	0.601518	0.890843
	C151	C	0.321479	0.363768	0.121004
	C152	C	0.882417	0.657859	0.386935
	C153	C	0.112429	0.659207	0.625276
	C154	C	0.882938	0.305995	0.625400
	C155	C	0.113185	0.306508	0.387743
	C156	C	0.882708	0.364167	0.682224
	C157	C	0.112556	0.602305	0.683476
	C158	C	0.882356	0.600624	0.330032
	C159	C	0.112778	0.363492	0.330149
	C160	C	0.377881	0.659002	0.890582
	C161	C	0.616167	0.658631	0.121232
	C162	C	0.617121	0.304950	0.890031
	C163	C	0.378719	0.305985	0.120667
	C164	C	0.673901	0.866579	0.386910
	C165	C	0.674792	0.097467	0.625833
	C166	C	0.320384	0.866990	0.624401
	C167	C	0.321077	0.097143	0.386668
	C168	C	0.878601	0.367186	0.182359
	C169	C	0.115680	0.597311	0.182014
	C170	C	0.116857	0.367773	0.829508
	C171	C	0.877209	0.597772	0.829151
	C172	C	0.173989	0.862957	0.390033
	C173	C	0.174078	0.100797	0.620223
	C174	C	0.820645	0.101312	0.390024
	C175	C	0.820742	0.863051	0.620385
	C176	C	0.382274	0.158769	0.886554
	C177	C	0.612613	0.158730	0.126159
	C178	C	0.382183	0.806068	0.124562
	C179	C	0.612708	0.804880	0.886915
	C180	C	0.381907	0.863649	0.181616
	C181	C	0.612645	0.101046	0.183282
	C182	C	0.382284	0.100959	0.830010
	C183	C	0.612357	0.861392	0.828845
	C184	C	0.877634	0.159436	0.390366
	C185	C	0.116936	0.158708	0.619994
	C186	C	0.117009	0.804823	0.390152
	C187	C	0.878424	0.805221	0.620579
	C188	C	0.173488	0.367370	0.887415
	C189	C	0.173694	0.597273	0.125044
	C190	C	0.821507	0.367392	0.124506
	C191	C	0.820538	0.598156	0.887609
	C192	C	0.397886	0.076862	0.605911
	C193	C	0.596428	0.888402	0.604777
	C194	C	0.596489	0.076562	0.406067
	C195	C	0.397663	0.886836	0.405113
	C196	C	0.597712	0.381602	0.099690
	C197	C	0.596051	0.581292	0.911649
	C198	C	0.398396	0.582198	0.100268
	C199	C	0.397732	0.382532	0.911303
	C200	C	0.092923	0.581490	0.406497
	C201	C	0.902567	0.581657	0.605465
	C202	C	0.092913	0.382339	0.606137
	C203	C	0.902603	0.382775	0.406601
	C204	C	0.897437	0.577403	0.106628
	C205	C	0.097424	0.386825	0.106454
	C206	C	0.095847	0.577230	0.907451
	C207	C	0.898361	0.388233	0.906532
	C208	C	0.096526	0.882792	0.599085
	C209	C	0.096763	0.081927	0.410421
	C210	C	0.898617	0.081495	0.599312
	C211	C	0.897337	0.881961	0.410872
	C212	C	0.592167	0.080593	0.907750
	C213	C	0.402514	0.081625	0.105742
	C214	C	0.592375	0.882799	0.105399
	C215	C	0.402802	0.882643	0.906411
	Zn216	Zn	0.497631	-0.017788	0.756662
	Zn217	Zn	0.497396	-0.018356	0.255689
	Zn218	Zn	0.747393	0.482336	0.005949
	Zn219	Zn	0.247116	0.481986	0.005918
	Zn220	Zn	-0.002378	0.731585	0.505380
	Zn221	Zn	-0.002227	0.232494	0.505582
	Zn222	Zn	-0.002122	0.482626	0.755905
	Zn223	Zn	-0.002565	0.482392	0.256660
	Zn224	Zn	0.497343	0.732930	0.005827
	Zn225	Zn	0.497558	0.231206	0.006011
	Zn226	Zn	0.747205	-0.017444	0.505277
	Zn227	Zn	0.247820	-0.017536	0.505088
	N228	N	0.411241	0.945053	0.684972
	N229	N	0.583768	0.019483	0.685253
	N230	N	0.583120	0.944462	0.327389
	N231	N	0.411391	0.018797	0.326744
	N232	N	0.676442	0.396299	0.968004
	N233	N	0.675110	0.567242	0.043596
	N234	N	0.318633	0.568079	0.968480
	N235	N	0.319868	0.397410	0.043391
	N236	N	0.960423	0.659534	0.420400
	N237	N	0.034423	0.660402	0.591495
	N238	N	0.960900	0.303647	0.592331
	N239	N	0.035321	0.305009	0.421161
	N240	N	0.960605	0.397331	0.683906
	N241	N	0.034783	0.568729	0.684959
	N242	N	0.960582	0.567469	0.328382
	N243	N	0.034675	0.396826	0.328370
	N244	N	0.411963	0.660669	0.968271
	N245	N	0.582698	0.660300	0.043472
	N246	N	0.584088	0.302552	0.967915
	N247	N	0.412130	0.304184	0.042992
	N248	N	0.675412	0.944489	0.420061
	N249	N	0.675741	0.019848	0.591515
	N250	N	0.319243	0.944789	0.590723
	N251	N	0.319585	0.019411	0.419966
	N252	N	0.911386	0.445316	0.185079
	N253	N	0.082582	0.519277	0.184313
	N254	N	0.083275	0.445605	0.827951
	N255	N	0.910747	0.519867	0.826967
	N256	N	0.175223	0.897017	0.467598
	N257	N	0.175653	0.067473	0.542346
	N258	N	0.819313	0.067648	0.467662
	N259	N	0.818746	0.896326	0.542704
	N260	N	0.460144	0.160004	0.920400
	N261	N	0.534516	0.160426	0.092515
	N262	N	0.460221	0.804199	0.091766
	N263	N	0.535084	0.804176	0.920821
	N264	N	0.459883	0.897181	0.183288
	N265	N	0.534918	0.067465	0.184490
	N266	N	0.460071	0.067036	0.829004
	N267	N	0.534517	0.895349	0.827159
	N268	N	0.911424	0.161019	0.468092
	N269	N	0.083414	0.160474	0.542338
	N270	N	0.083399	0.803225	0.467670
	N271	N	0.911481	0.803129	0.542753
	N272	N	0.174547	0.445054	0.921329
	N273	N	0.175847	0.519143	0.092104
	N274	N	0.819458	0.445226	0.091709
	N275	N	0.819903	0.520626	0.921654
	O276	O	0.989257	0.962595	-0.084847
	H277	H	0.991492	0.952810	-0.090505
	H278	H	0.997554	0.954377	-0.094701
	O279	O	-0.001106	0.006647	-0.065689
	H280	H	-0.008289	0.007936	-0.062579
	H281	H	-0.009957	0.007652	-0.068472
	O282	O	-0.029867	-0.040535	0.964421
	H283	H	-0.035102	-0.037904	0.963097
	H284	H	-0.028803	-0.040697	0.962381
	O285	O	1.537003	1.496216	0.552896
	H286	H	1.521453	1.501171	0.555256
	H287	H	1.535448	1.504688	0.555163
	O288	O	-0.025713	0.916337	-0.066180
	H289	H	-0.014039	0.925312	-0.060879
	H290	H	-0.024926	0.914156	-0.076174
	O291	O	0.540387	0.535372	0.537426
	H292	H	0.547163	0.532085	0.525092
	H293	H	0.537454	0.534058	0.537977
	O294	O	-0.067629	-0.013178	-0.062479
	H295	H	-0.064569	-0.009851	-0.063165
	H296	H	-0.071456	-0.004567	-0.070161
	O297	O	-0.008767	1.024514	0.971441
	H298	H	-0.009871	1.029155	0.971725
	H299	H	-0.007139	1.033742	0.977820
	O300	O	-0.065845	1.037379	0.955128
	H301	H	-0.060872	1.031606	0.956973
	H302	H	-0.070847	1.036252	0.950164
	O303	O	0.590959	0.469995	0.506997
	H304	H	0.597542	0.467206	0.508391
	H305	H	0.587452	0.479682	0.517346
	O306	O	-0.011012	-0.014087	0.996534
	H307	H	-0.024126	-0.011428	0.997965
	H308	H	-0.016738	-0.016717	0.994005
	O309	O	1.061242	0.937500	0.896765
	H310	H	1.068205	0.936042	0.897176
	H311	H	1.058287	0.939361	0.897447
	O312	O	0.545726	0.481810	0.463272
	H313	H	0.556927	0.480487	0.464364
	H314	H	0.540813	0.476453	0.455874
	O315	O	0.536945	0.504260	0.539136
	H316	H	0.543422	0.503885	0.547243
	H317	H	0.543898	0.508195	0.536367
	O318	O	0.482178	1.523310	-0.505761
	H319	H	0.483041	1.523312	-0.507165
	H320	H	0.479735	1.523876	-0.505634
	O321	O	0.974198	1.016703	-0.040390
	H322	H	0.967465	1.017948	-0.044803
	H323	H	0.981422	1.019934	-0.038433
