data_Molecule from HDF5

_cell_length_a		16.597181
_cell_length_b		16.645168
_cell_length_c		16.653590
_cell_angle_alpha	89.874643
_cell_angle_beta	89.959156
_cell_angle_gamma	90.148415
_symmetry_space_group_name_H-M	'P 1'
_symmetry_Int_Tables_number		1

loop_
	_symmetry_equiv_pos_as_xyz
	x,y,z

loop_
	_atom_site_label
	_atom_site_type_symbol
	_atom_site_fract_x
	_atom_site_fract_y
	_atom_site_fract_z
	H0	H	0.403692	0.834173	0.720121
	H1	H	0.615692	0.144851	0.721302
	H2	H	0.614546	0.835325	0.277651
	H3	H	0.404900	0.145447	0.277946
	H4	H	0.733682	0.381999	0.845514
	H5	H	0.733596	0.597892	0.151366
	H6	H	0.279551	0.604174	0.848228
	H7	H	0.286832	0.384919	0.154176
	H8	H	0.850890	0.706189	0.397570
	H9	H	0.165226	0.709007	0.599775
	H10	H	0.857191	0.263677	0.607807
	H11	H	0.163056	0.265611	0.390195
	H12	H	0.856837	0.379281	0.723230
	H13	H	0.164965	0.593508	0.716915
	H14	H	0.850790	0.590433	0.281953
	H15	H	0.163994	0.384202	0.276728
	H16	H	0.392690	0.721809	0.849663
	H17	H	0.618062	0.713537	0.151582
	H18	H	0.615178	0.267751	0.844256
	H19	H	0.402095	0.268529	0.153288
	H20	H	0.728817	0.834027	0.394997
	H21	H	0.732547	0.143846	0.606104
	H22	H	0.291449	0.831873	0.600068
	H23	H	0.285803	0.143354	0.391551
	H24	H	0.902951	0.334883	0.221683
	H25	H	0.113300	0.645966	0.220099
	H26	H	0.121040	0.339870	0.771779
	H27	H	0.903153	0.644827	0.776360
	H28	H	0.228170	0.886571	0.341845
	H29	H	0.234032	0.097652	0.651920
	H30	H	0.786479	0.096065	0.345223
	H31	H	0.790899	0.887571	0.656868
	H32	H	0.351402	0.210319	0.894104
	H33	H	0.663507	0.212973	0.103435
	H34	H	0.355831	0.765644	0.107985
	H35	H	0.661509	0.765512	0.890317
	H36	H	0.353465	0.885268	0.219723
	H37	H	0.664117	0.096036	0.219042
	H38	H	0.351727	0.095120	0.777441
	H39	H	0.661986	0.881429	0.773844
	H40	H	0.903383	0.211996	0.344767
	H41	H	0.120536	0.215730	0.650428
	H42	H	0.110170	0.772049	0.340711
	H43	H	0.905994	0.770789	0.655622
	H44	H	0.232640	0.337515	0.892191
	H45	H	0.231246	0.644756	0.105398
	H46	H	0.788619	0.333470	0.103673
	H47	H	0.786201	0.643778	0.891515
	H48	H	0.420084	0.098679	0.580715
	H49	H	0.597142	0.881793	0.583513
	H50	H	0.592577	0.099686	0.407926
	H51	H	0.422423	0.877868	0.405081
	H52	H	0.589924	0.402217	0.107245
	H53	H	0.592168	0.576816	0.890380
	H54	H	0.426268	0.581016	0.108563
	H55	H	0.422142	0.408269	0.889963
	H56	H	0.122109	0.581304	0.408288
	H57	H	0.896151	0.581218	0.586149
	H58	H	0.118378	0.408100	0.585066
	H59	H	0.900431	0.398729	0.418282
	H60	H	0.121379	0.402092	0.586527
	H61	H	0.896270	0.576413	0.588960
	H62	H	0.122491	0.581812	0.406017
	H63	H	0.900730	0.408190	0.411004
	H64	H	0.416925	0.577449	0.110295
	H65	H	0.596617	0.579103	0.886787
	H66	H	0.599309	0.393664	0.112993
	H67	H	0.423546	0.396687	0.887422
	H68	H	0.599096	0.099466	0.416157
	H69	H	0.600166	0.876608	0.589723
	H70	H	0.416269	0.102281	0.590008
	H71	H	0.419985	0.879824	0.412260
	H72	H	0.917846	0.603785	0.096218
	H73	H	0.099511	0.380889	0.081507
	H74	H	0.085379	0.597082	0.909885
	H75	H	0.927919	0.382338	0.913319
	H76	H	0.102909	0.899064	0.611125
	H77	H	0.094554	0.080528	0.387374
	H78	H	0.923787	0.076984	0.609310
	H79	H	0.914384	0.899398	0.385877
	H80	H	0.616847	0.078188	0.916951
	H81	H	0.396234	0.081628	0.087847
	H82	H	0.620467	0.900092	0.084615
	H83	H	0.400563	0.906133	0.915922
	H84	H	0.619994	0.905655	0.086371
	H85	H	0.397963	0.078345	0.087294
	H86	H	0.618847	0.075257	0.903780
	H87	H	0.399459	0.907123	0.911393
	H88	H	0.922087	0.075517	0.609258
	H89	H	0.100462	0.075857	0.387879
	H90	H	0.097723	0.901120	0.609358
	H91	H	0.918632	0.897971	0.386670
	H92	H	0.098200	0.599408	0.919668
	H93	H	0.101497	0.375426	0.093563
	H94	H	0.925927	0.598814	0.088123
	H95	H	0.917031	0.379734	0.915190
	H96	H	0.426308	0.099748	0.589170
	H97	H	0.592370	0.879696	0.590021
	H98	H	0.601996	0.104264	0.406874
	H99	H	0.415405	0.875573	0.407608
	H100	H	0.602943	0.406577	0.109982
	H101	H	0.596834	0.573456	0.888750
	H102	H	0.424008	0.571081	0.106047
	H103	H	0.413509	0.402030	0.885091
	H104	H	0.121506	0.583748	0.407767
	H105	H	0.893879	0.581702	0.591419
	H106	H	0.119121	0.403426	0.580440
	H107	H	0.895663	0.398305	0.407810
	H108	H	0.914882	0.602173	0.084066
	H109	H	0.089222	0.381373	0.090621
	H110	H	0.098462	0.605167	0.904104
	H111	H	0.921661	0.377662	0.905023
	H112	H	0.098320	0.896018	0.610827
	H113	H	0.093545	0.073682	0.391071
	H114	H	0.923908	0.075136	0.607728
	H115	H	0.915561	0.895137	0.384941
	H116	H	0.622520	0.087240	0.908761
	H117	H	0.395634	0.079061	0.090225
	H118	H	0.622110	0.901651	0.090091
	H119	H	0.397680	0.903157	0.913749
	C120	C	0.388123	-0.002460	0.618917
	C121	C	0.629999	0.981370	0.621081
	C122	C	0.630312	-0.001234	0.377958
	C123	C	0.387595	0.980718	0.376576
	C124	C	0.630248	0.368018	0.007548
	C125	C	0.629570	0.610510	0.989889
	C126	C	0.386354	0.612364	0.008071
	C127	C	0.386661	0.369352	0.989843
	C128	C	0.017484	0.611305	0.377379
	C129	C	0.999506	0.611062	0.619154
	C130	C	0.018601	0.368945	0.619339
	C131	C	1.001001	0.368778	0.378485
	C132	C	0.887367	0.498344	0.120603
	C133	C	0.128837	0.482111	0.120665
	C134	C	0.129569	0.499639	0.877466
	C135	C	0.888315	0.481552	0.877321
	C136	C	0.130163	0.867889	0.506739
	C137	C	0.131032	0.110729	0.489848
	C138	C	0.889068	0.109913	0.507439
	C139	C	0.886127	0.867626	0.490242
	C140	C	0.516211	0.111868	0.877378
	C141	C	0.499789	0.111808	0.119776
	C142	C	0.518428	0.868850	0.120507
	C143	C	0.500163	0.870074	0.878629
	C144	C	0.386033	0.880445	0.679049
	C145	C	0.633758	0.097977	0.681566
	C146	C	0.632582	0.881956	0.317958
	C147	C	0.385606	0.098128	0.316970
	C148	C	0.692252	0.364551	0.891461
	C149	C	0.692462	0.615235	0.105151
	C150	C	0.321249	0.620058	0.894285
	C151	C	0.326762	0.366742	0.107069
	C152	C	0.898240	0.667694	0.378133
	C153	C	0.117722	0.670047	0.619618
	C154	C	0.903292	0.305063	0.624753
	C155	C	0.117175	0.307115	0.373483
	C156	C	0.903090	0.362647	0.682169
	C157	C	0.117913	0.612259	0.677369
	C158	C	0.898128	0.610155	0.320755
	C159	C	0.117297	0.365945	0.316916
	C160	C	0.378024	0.678657	0.894855
	C161	C	0.634822	0.672691	0.105411
	C162	C	0.633360	0.307844	0.890916
	C163	C	0.384281	0.308883	0.106738
	C164	C	0.689514	0.881316	0.376284
	C165	C	0.691572	0.097650	0.623996
	C166	C	0.329936	0.879482	0.619554
	C167	C	0.326925	0.097424	0.373781
	C168	C	0.885243	0.381266	0.180707
	C169	C	0.131836	0.599054	0.180494
	C170	C	0.136683	0.385038	0.814037
	C171	C	0.884957	0.597840	0.816230
	C172	C	0.188419	0.867695	0.388617
	C173	C	0.193677	0.115355	0.605350
	C174	C	0.827419	0.113552	0.391395
	C175	C	0.829318	0.868014	0.609061
	C176	C	0.398402	0.170708	0.875501
	C177	C	0.616704	0.172550	0.121726
	C178	C	0.401890	0.807280	0.124719
	C179	C	0.615402	0.806848	0.872993
	C180	C	0.400932	0.866601	0.180442
	C181	C	0.617346	0.114360	0.179019
	C182	C	0.398668	0.113469	0.817555
	C183	C	0.615611	0.864657	0.815254
	C184	C	0.885372	0.171392	0.391361
	C185	C	0.137082	0.174073	0.604780
	C186	C	0.129809	0.810676	0.388323
	C187	C	0.886827	0.810108	0.608545
	C188	C	0.192332	0.384138	0.873583
	C189	C	0.189967	0.598799	0.123115
	C190	C	0.828064	0.380873	0.122241
	C191	C	0.827141	0.597571	0.874054
	C192	C	0.413667	0.079121	0.593902
	C193	C	0.603769	0.900393	0.595248
	C194	C	0.605045	0.080072	0.403241
	C195	C	0.412208	0.899040	0.401358
	C196	C	0.604560	0.393428	0.088998
	C197	C	0.602615	0.584101	0.909673
	C198	C	0.414492	0.584374	0.087612
	C199	C	0.412288	0.395036	0.908722
	C200	C	0.100423	0.588564	0.400488
	C201	C	0.916997	0.586642	0.595620
	C202	C	0.098848	0.396798	0.591910
	C203	C	0.919834	0.394288	0.405133
	C204	C	0.912225	0.580343	0.096232
	C205	C	0.103755	0.400407	0.095627
	C206	C	0.102039	0.579556	0.903809
	C207	C	0.914634	0.400920	0.903631
	C208	C	0.106466	0.891739	0.588872
	C209	C	0.103912	0.084153	0.409614
	C210	C	0.915732	0.083437	0.588019
	C211	C	0.909400	0.890870	0.407466
	C212	C	0.597970	0.087076	0.902601
	C213	C	0.417914	0.086754	0.095336
	C214	C	0.599874	0.894853	0.094473
	C215	C	0.419991	0.897626	0.906113
	Zn216	Zn	0.508169	-0.009353	0.749107
	Zn217	Zn	0.509606	-0.009649	0.248701
	Zn218	Zn	0.758652	0.489472	-0.001425
	Zn219	Zn	0.257896	0.491002	-0.000593
	Zn220	Zn	0.007893	0.739698	0.498034
	Zn221	Zn	0.010376	0.239681	0.498933
	Zn222	Zn	0.009350	0.489713	0.747735
	Zn223	Zn	0.008573	0.490224	0.249658
	Zn224	Zn	0.508796	0.740093	-0.000772
	Zn225	Zn	0.507823	0.240530	-0.002005
	Zn226	Zn	0.758693	-0.010323	0.499603
	Zn227	Zn	0.258896	-0.010601	0.498227
	N228	N	0.421282	0.955007	0.678991
	N229	N	0.596052	0.024526	0.679947
	N230	N	0.596597	0.956032	0.318816
	N231	N	0.422631	0.024539	0.318489
	N232	N	0.690598	0.401087	0.965193
	N233	N	0.689415	0.577170	0.032236
	N234	N	0.326485	0.579294	0.965699
	N235	N	0.328066	0.403783	0.033343
	N236	N	0.973548	0.668978	0.412235
	N237	N	0.042913	0.669780	0.584419
	N238	N	0.976272	0.308748	0.586425
	N239	N	0.043729	0.308738	0.411058
	N240	N	0.975999	0.401683	0.679223
	N241	N	0.043147	0.576785	0.677664
	N242	N	0.973505	0.575890	0.319870
	N243	N	0.044011	0.403690	0.319916
	N244	N	0.418229	0.673945	0.966711
	N245	N	0.596315	0.670136	0.032580
	N246	N	0.595409	0.310017	0.964169
	N247	N	0.420577	0.310012	0.032591
	N248	N	0.688453	0.955158	0.413019
	N249	N	0.689363	0.024129	0.586995
	N250	N	0.330780	0.953618	0.583104
	N251	N	0.327834	0.023280	0.409990
	N252	N	0.921245	0.455586	0.180103
	N253	N	0.094811	0.525404	0.179209
	N254	N	0.098299	0.457878	0.816078
	N255	N	0.922165	0.524455	0.817906
	N256	N	0.188982	0.902465	0.463329
	N257	N	0.190024	0.076545	0.532934
	N258	N	0.829353	0.076203	0.464851
	N259	N	0.828525	0.902915	0.534246
	N260	N	0.472615	0.170079	0.911836
	N261	N	0.542635	0.171181	0.085464
	N262	N	0.476107	0.808370	0.088183
	N263	N	0.542513	0.809995	0.911766
	N264	N	0.474731	0.903914	0.178193
	N265	N	0.543621	0.077174	0.178005
	N266	N	0.473155	0.077802	0.818264
	N267	N	0.542951	0.903406	0.818670
	N268	N	0.923029	0.169438	0.464669
	N269	N	0.098600	0.171173	0.532007
	N270	N	0.094300	0.810406	0.462859
	N271	N	0.921134	0.809382	0.533539
	N272	N	0.188211	0.456458	0.912244
	N273	N	0.188399	0.524923	0.086709
	N274	N	0.829191	0.454776	0.085547
	N275	N	0.829106	0.524168	0.911455
	O276	O	-0.025722	0.772841	0.182681
	H277	H	-0.009006	0.775092	0.180134
	H278	H	-0.044019	0.760673	0.189135
	O279	O	0.318306	0.297866	0.307192
	H280	H	0.333462	0.316791	0.329793
	H281	H	0.340325	0.313369	0.322888
	O282	O	1.235112	-0.043929	0.769122
	H283	H	1.251695	-0.074947	0.754690
	H284	H	1.251221	-0.065154	0.764975
	O285	O	0.528295	0.705040	0.727507
	H286	H	0.526794	0.688213	0.714260
	H287	H	0.532825	0.732653	0.756713
	O288	O	0.722138	0.527410	0.715673
	H289	H	0.726260	0.545428	0.708692
	H290	H	0.741511	0.527934	0.723557
	O291	O	0.624737	0.677353	0.441573
	H292	H	0.628443	0.660371	0.431811
	H293	H	0.607583	0.671782	0.435095
	O294	O	0.796091	0.205538	0.961270
	H295	H	0.794066	0.213802	0.964116
	H296	H	0.803938	0.224739	0.967232
	O297	O	0.382194	0.707475	0.463712
	H298	H	0.381025	0.709304	0.473842
	H299	H	0.372476	0.707232	0.464010
	O300	O	0.007303	0.219918	0.808908
	H301	H	0.008398	0.202709	0.810574
	H302	H	0.003612	0.238217	0.781416
	O303	O	0.712179	0.666011	0.611561
	H304	H	0.703904	0.678793	0.604602
	H305	H	0.713319	0.674852	0.585168
	O306	O	0.496766	0.476759	0.433268
	H307	H	0.491384	0.476166	0.437152
	H308	H	0.500649	0.465662	0.423323
	O309	O	0.218671	0.777796	0.784774
	H310	H	0.164756	0.767613	0.777757
	H311	H	0.248217	0.743185	0.751933
	O312	O	0.559731	0.430012	0.728122
	H313	H	0.588477	0.416340	0.730211
	H314	H	0.569505	0.398369	0.728586
	O315	O	0.789146	0.774936	1.020323
	H316	H	0.776474	0.752261	1.035096
	H317	H	0.804812	0.767961	1.026718
	O318	O	0.697778	0.368914	0.585513
	H319	H	0.712560	0.357960	0.604212
	H320	H	0.704934	0.370896	0.584067
	O321	O	0.023029	0.816455	0.775488
	H322	H	0.011712	0.840228	0.775039
	H323	H	0.011710	0.806451	0.764402
	O324	O	1.043759	0.864967	0.214053
	H325	H	1.048356	0.868410	0.210316
	H326	H	1.038042	0.859735	0.213258
	O327	O	0.224584	0.215504	1.030800
	H328	H	0.229670	0.219537	1.054001
	H329	H	0.243725	0.225490	1.029553
	O330	O	0.727725	0.270866	0.463881
	H331	H	0.729228	0.275988	0.469149
	H332	H	0.736615	0.260707	0.465721
	O333	O	0.485759	0.266412	0.724606
	H334	H	0.450262	0.265244	0.714014
	H335	H	0.477324	0.236890	0.749367
	O336	O	0.716709	0.280386	0.287566
	H337	H	0.722908	0.278729	0.301971
	H338	H	0.743159	0.254840	0.276571
	O339	O	0.582067	0.266782	0.551491
	H340	H	0.594299	0.267196	0.551326
	H341	H	0.571237	0.265095	0.570950
	O342	O	-0.146621	-0.024405	0.221044
	H343	H	-0.149234	-0.015725	0.223109
	H344	H	-0.144201	-0.029853	0.227181
	O345	O	0.183404	1.014973	1.030157
	H346	H	0.165993	1.007457	1.019917
	H347	H	0.197693	1.019653	1.025096
	O348	O	-0.141779	0.146374	-0.196348
	H349	H	-0.132778	0.132805	-0.187446
	H350	H	-0.133543	0.132222	-0.181323
	O351	O	0.478921	0.708547	0.276577
	H352	H	0.461466	0.706025	0.297371
	H353	H	0.473215	0.741915	0.242026
	O354	O	0.018277	0.216553	1.168885
	H355	H	0.016249	0.232829	1.195824
	H356	H	0.051780	0.209949	1.174248
	O357	O	0.650513	0.702959	0.561863
	H358	H	0.663610	0.719219	0.545703
	H359	H	0.647139	0.695779	0.543351
	O360	O	0.295827	0.277544	0.715182
	H361	H	0.273741	0.266316	0.738420
	H362	H	0.287573	0.299942	0.684770
	O363	O	0.066572	-0.137983	0.006191
	H364	H	0.068384	-0.142260	0.021228
	H365	H	0.067963	-0.132118	-0.000067
	O366	O	0.538459	0.270321	0.283960
	H367	H	0.550993	0.253123	0.255782
	H368	H	0.556310	0.283599	0.277554
	O369	O	0.818638	0.177637	0.189676
	H370	H	0.844908	0.160059	0.178216
	H371	H	0.833148	0.157336	0.171716
	O372	O	0.953468	0.919019	-0.001977
	H373	H	0.944864	0.922328	-0.006938
	H374	H	0.936421	0.922087	-0.005344
	O375	O	0.950806	-0.201936	-0.053924
	H376	H	0.942025	-0.193689	-0.048317
	H377	H	0.948110	-0.216678	-0.062991
	O378	O	0.286880	0.522645	0.275564
	H379	H	0.278362	0.544577	0.277332
	H380	H	0.261824	0.524969	0.260777
	O381	O	-0.047413	1.134068	0.914617
	H382	H	-0.035765	1.131437	0.925810
	H383	H	-0.030695	1.137118	0.908267
	O384	O	0.791870	0.023063	0.785345
	H385	H	0.787083	0.014517	0.794374
	H386	H	0.775176	0.020721	0.779691
	O387	O	0.958120	0.965945	0.166481
	H388	H	0.960592	0.952927	0.174123
	H389	H	0.957544	0.965836	0.158483
	O390	O	0.726559	0.466495	0.272186
	H391	H	0.754821	0.461765	0.240662
	H392	H	0.720889	0.428065	0.294254
	O393	O	0.270896	0.479233	0.476102
	H394	H	0.277863	0.477949	0.479603
	H395	H	0.266507	0.466524	0.478614
	O396	O	0.200286	0.874427	1.019045
	H397	H	0.204106	0.879527	0.998581
	H398	H	0.200613	0.865667	0.999547
	O399	O	0.020836	-0.048295	0.799081
	H400	H	0.021984	-0.046567	0.798601
	H401	H	0.019043	-0.030597	0.804622
	O402	O	0.289742	0.642806	0.509111
	H403	H	0.274793	0.648582	0.499240
	H404	H	0.293312	0.636924	0.488412
	O405	O	0.741502	0.260478	0.733035
	H406	H	0.731632	0.241432	0.728944
	H407	H	0.764025	0.232563	0.759532
	O408	O	0.223393	0.026347	0.218683
	H409	H	0.238954	0.018956	0.203086
	H410	H	0.237298	0.027702	0.231405
	O411	O	0.772528	0.752878	0.763729
	H412	H	0.768550	0.746168	0.747493
	H413	H	0.761005	0.739263	0.746708
	O414	O	0.427845	0.671885	0.536673
	H415	H	0.430047	0.657022	0.539522
	H416	H	0.450790	0.674470	0.530101
	O417	O	0.682598	0.600513	0.397552
	H418	H	0.669567	0.578076	0.389889
	H419	H	0.672768	0.602211	0.385715
	O420	O	0.443621	0.257781	0.448731
	H421	H	0.451626	0.257309	0.449905
	H422	H	0.467499	0.260948	0.439613
	O423	O	0.099651	-0.013101	0.850493
	H424	H	0.094766	-0.016028	0.852593
	H425	H	0.103715	-0.019081	0.844966
	O426	O	0.318806	0.675912	0.688724
	H427	H	0.342008	0.658512	0.672394
	H428	H	0.337464	0.652770	0.679579
	O429	O	0.809908	1.053782	1.018612
	H430	H	0.810068	1.050825	1.015834
	H431	H	0.804183	1.066017	1.010881
	O432	O	0.523376	0.456867	0.472832
	H433	H	0.526124	0.448749	0.478499
	H434	H	0.509731	0.459815	0.465122
	O435	O	0.215120	1.201289	0.207180
	H436	H	0.222047	1.168791	0.193933
	H437	H	0.248911	1.232608	0.238939
	O438	O	0.005329	0.012557	0.030190
	H439	H	0.005802	0.011517	0.033008
	H440	H	0.004548	0.017631	0.036458
	O441	O	0.036960	0.005327	0.073371
	H442	H	0.041514	-0.008457	0.070655
	H443	H	0.031241	0.019739	0.082845
	O444	O	0.451081	0.420650	0.304291
	H445	H	0.461985	0.435566	0.298297
	H446	H	0.443612	0.434243	0.316837
	O447	O	0.072768	1.196867	0.976225
	H448	H	0.091454	1.202132	0.974528
	H449	H	0.087600	1.202026	0.988511
	O450	O	0.231749	0.853705	1.019288
	H451	H	0.221375	0.854288	0.986962
	H452	H	0.249075	0.847392	1.004366
	O453	O	0.296437	0.470695	0.722811
	H454	H	0.301609	0.472493	0.726288
	H455	H	0.281878	0.466343	0.730157
	O456	O	0.188009	0.182364	0.810723
	H457	H	0.174913	0.147745	0.816158
	H458	H	0.175053	0.195414	0.816716
	O459	O	0.801283	0.810698	0.204320
	H460	H	0.800331	0.796902	0.212991
	H461	H	0.799397	0.825283	0.198533
	O462	O	0.623773	0.621656	0.311429
	H463	H	0.619336	0.609537	0.309855
	H464	H	0.610062	0.607897	0.327606
	O465	O	0.767639	-0.036660	-0.045558
	H466	H	0.765290	-0.052142	-0.038539
	H467	H	0.764847	-0.043019	-0.040570
	O468	O	0.518828	0.516538	0.265454
	H469	H	0.504283	0.536598	0.254222
	H470	H	0.530872	0.506315	0.274151
	O471	O	0.558033	0.524382	0.560689
	H472	H	0.552268	0.524325	0.575511
	H473	H	0.559729	0.527236	0.560621
	O474	O	0.304325	0.691173	0.292215
	H475	H	0.320168	0.688345	0.311244
	H476	H	0.273918	0.716766	0.263582
	O477	O	0.295219	0.281434	1.522991
	H478	H	0.324746	0.279664	1.520075
	H479	H	0.282444	0.259984	1.526805
	O480	O	0.398848	0.373960	0.597769
	H481	H	0.411768	0.383160	0.599914
	H482	H	0.391243	0.368317	0.599407
	O483	O	0.728828	0.457513	0.563667
	H484	H	0.718667	0.472127	0.570275
	H485	H	0.731274	0.450476	0.566346
	O486	O	0.452367	0.549904	0.743563
	H487	H	0.479934	0.517710	0.747375
	H488	H	0.448426	0.552044	0.749514
	O489	O	0.864764	0.792211	-0.137949
	H490	H	0.840646	0.776660	-0.164174
	H491	H	0.879338	0.789220	-0.107993
	O492	O	0.196792	-0.203127	0.191028
	H493	H	0.179323	-0.175190	0.184356
	H494	H	0.187671	-0.193563	0.158315
	O495	O	0.122521	1.047355	0.950061
	H496	H	0.129802	1.032817	0.927975
	H497	H	0.116599	1.048926	0.958775
	O498	O	0.915778	1.043927	1.128725
	H499	H	0.915924	1.031526	1.139111
	H500	H	0.938107	1.042374	1.141418
	O501	O	0.426980	0.459646	0.429922
	H502	H	0.436644	0.465006	0.439426
	H503	H	0.424480	0.468476	0.420519
