data_Molecule from HDF5

_cell_length_a		16.288520
_cell_length_b		16.263661
_cell_length_c		16.240266
_cell_angle_alpha	89.994476
_cell_angle_beta	89.982688
_cell_angle_gamma	89.973679
_symmetry_space_group_name_H-M	'P 1'
_symmetry_Int_Tables_number		1

loop_
	_symmetry_equiv_pos_as_xyz
	x,y,z

loop_
	_atom_site_label
	_atom_site_type_symbol
	_atom_site_fract_x
	_atom_site_fract_y
	_atom_site_fract_z
	H0	H	0.403638	0.835700	0.712010
	H1	H	0.597098	0.165236	0.713499
	H2	H	0.598035	0.836594	0.286382
	H3	H	0.402810	0.164480	0.286846
	H4	H	0.713682	0.401968	0.836009
	H5	H	0.714354	0.598785	0.164375
	H6	H	0.286436	0.598857	0.835683
	H7	H	0.286924	0.402820	0.163899
	H8	H	0.835614	0.713907	0.402895
	H9	H	0.163224	0.714090	0.599360
	H10	H	0.836356	0.285485	0.598631
	H11	H	0.163927	0.286281	0.403640
	H12	H	0.835977	0.401546	0.713827
	H13	H	0.162871	0.597482	0.714594
	H14	H	0.836040	0.597917	0.286380
	H15	H	0.163917	0.402361	0.286719
	H16	H	0.403221	0.713228	0.835832
	H17	H	0.597657	0.713806	0.163946
	H18	H	0.597904	0.286813	0.835616
	H19	H	0.402598	0.286832	0.164284
	H20	H	0.714283	0.836485	0.401699
	H21	H	0.714411	0.164401	0.598305
	H22	H	0.285601	0.836650	0.598453
	H23	H	0.285377	0.163830	0.401229
	H24	H	0.902671	0.335776	0.213464
	H25	H	0.096794	0.664132	0.213084
	H26	H	0.097572	0.335797	0.786518
	H27	H	0.901981	0.663146	0.785946
	H28	H	0.214747	0.900296	0.336047
	H29	H	0.213235	0.096963	0.664552
	H30	H	0.786678	0.097809	0.335413
	H31	H	0.785481	0.902197	0.663975
	H32	H	0.336457	0.214539	0.901778
	H33	H	0.664111	0.214502	0.098045
	H34	H	0.336302	0.785103	0.099322
	H35	H	0.664345	0.786339	0.902184
	H36	H	0.335928	0.903569	0.213391
	H37	H	0.664240	0.097066	0.212619
	H38	H	0.336193	0.098235	0.786221
	H39	H	0.663656	0.902221	0.785100
	H40	H	0.901707	0.214414	0.336110
	H41	H	0.097481	0.212914	0.664654
	H42	H	0.098275	0.784776	0.335947
	H43	H	0.901807	0.786307	0.664514
	H44	H	0.214428	0.335862	0.901872
	H45	H	0.213682	0.663617	0.097839
	H46	H	0.785847	0.336222	0.098138
	H47	H	0.786481	0.663496	0.902125
	H48	H	0.400485	0.120821	0.600349
	H49	H	0.587357	0.884024	0.597903
	H50	H	0.597700	0.119066	0.406577
	H51	H	0.403927	0.881081	0.401395
	H52	H	0.595140	0.409491	0.116142
	H53	H	0.595000	0.590121	0.883159
	H54	H	0.399192	0.589515	0.117913
	H55	H	0.406033	0.400627	0.879707
	H56	H	0.120207	0.601801	0.403390
	H57	H	0.886625	0.586810	0.588950
	H58	H	0.114104	0.415897	0.596760
	H59	H	0.885071	0.411306	0.409653
	H60	H	0.120749	0.398373	0.600276
	H61	H	0.880570	0.591578	0.600837
	H62	H	0.113572	0.592674	0.416602
	H63	H	0.881762	0.406103	0.401306
	H64	H	0.413112	0.588503	0.113809
	H65	H	0.590166	0.594086	0.883348
	H66	H	0.590501	0.406338	0.116047
	H67	H	0.401081	0.411388	0.882489
	H68	H	0.592682	0.118383	0.403045
	H69	H	0.592466	0.885774	0.585864
	H70	H	0.414915	0.115346	0.594510
	H71	H	0.412720	0.884502	0.406334
	H72	H	0.901301	0.616539	0.087295
	H73	H	0.084164	0.385381	0.093621
	H74	H	0.093990	0.615564	0.912016
	H75	H	0.911982	0.384113	0.907208
	H76	H	0.098930	0.909034	0.617459
	H77	H	0.092333	0.097171	0.381980
	H78	H	0.901298	0.088830	0.617491
	H79	H	0.913748	0.896947	0.382404
	H80	H	0.619147	0.095594	0.900922
	H81	H	0.381897	0.094400	0.097460
	H82	H	0.614381	0.910082	0.089323
	H83	H	0.381093	0.897407	0.906603
	H84	H	0.616992	0.908455	0.097928
	H85	H	0.383209	0.097713	0.090531
	H86	H	0.616013	0.097466	0.909771
	H87	H	0.386919	0.910584	0.914638
	H88	H	0.911518	0.091504	0.614367
	H89	H	0.096988	0.092500	0.382828
	H90	H	0.089315	0.909663	0.614621
	H91	H	0.894488	0.905332	0.379349
	H92	H	0.097894	0.618681	0.904205
	H93	H	0.098826	0.384456	0.085501
	H94	H	0.902442	0.619965	0.100371
	H95	H	0.903235	0.382848	0.911308
	H96	H	0.401884	0.115714	0.584744
	H97	H	0.600496	0.881427	0.595279
	H98	H	0.592444	0.116152	0.408830
	H99	H	0.403979	0.884177	0.412502
	H100	H	0.595078	0.404284	0.119031
	H101	H	0.595958	0.596731	0.882520
	H102	H	0.407875	0.600889	0.119871
	H103	H	0.413062	0.408932	0.885046
	H104	H	0.115704	0.584886	0.401116
	H105	H	0.882153	0.599753	0.589534
	H106	H	0.114990	0.402807	0.583592
	H107	H	0.883421	0.400735	0.410498
	H108	H	0.913445	0.615596	0.093352
	H109	H	0.098078	0.379660	0.101602
	H110	H	0.088705	0.615960	0.904378
	H111	H	0.904361	0.379996	0.902118
	H112	H	0.092071	0.901310	0.617861
	H113	H	0.090380	0.091243	0.384294
	H114	H	0.905432	0.098757	0.619232
	H115	H	0.911227	0.917326	0.387351
	H116	H	0.615184	0.088903	0.906514
	H117	H	0.384814	0.090415	0.091609
	H118	H	0.616997	0.901824	0.091891
	H119	H	0.382724	0.911992	0.898045
	C120	C	0.377953	0.008844	0.621508
	C121	C	0.621497	0.992407	0.621324
	C122	C	0.621701	0.008958	0.378275
	C123	C	0.378603	0.991561	0.378434
	C124	C	0.621561	0.378702	0.008476
	C125	C	0.621902	0.621750	0.991444
	C126	C	0.378473	0.621774	0.008673
	C127	C	0.378826	0.378852	0.991201
	C128	C	0.008082	0.621567	0.378735
	C129	C	0.991196	0.621064	0.621491
	C130	C	0.008563	0.376948	0.622327
	C131	C	0.991645	0.378085	0.379024
	C132	C	0.878077	0.508578	0.121712
	C133	C	0.121893	0.491483	0.121599
	C134	C	0.121905	0.508344	0.878203
	C135	C	0.878477	0.490855	0.878680
	C136	C	0.121895	0.878192	0.508288
	C137	C	0.121370	0.121312	0.491817
	C138	C	0.878206	0.121168	0.508241
	C139	C	0.878297	0.878562	0.491625
	C140	C	0.508363	0.121937	0.878150
	C141	C	0.491818	0.122093	0.121272
	C142	C	0.508462	0.878401	0.121850
	C143	C	0.491998	0.878635	0.878119
	C144	C	0.381787	0.885046	0.675494
	C145	C	0.618263	0.116006	0.676033
	C146	C	0.618903	0.885650	0.323507
	C147	C	0.381517	0.115331	0.324051
	C148	C	0.676294	0.381425	0.885003
	C149	C	0.676041	0.618659	0.115299
	C150	C	0.323808	0.619242	0.885001
	C151	C	0.324552	0.381954	0.115154
	C152	C	0.884881	0.676334	0.381631
	C153	C	0.114389	0.676055	0.619387
	C154	C	0.885153	0.322751	0.619555
	C155	C	0.114982	0.323827	0.382508
	C156	C	0.884996	0.380641	0.676598
	C157	C	0.114408	0.617892	0.676248
	C158	C	0.884689	0.618478	0.324192
	C159	C	0.114857	0.381276	0.324261
	C160	C	0.382056	0.675899	0.884793
	C161	C	0.618731	0.676502	0.115126
	C162	C	0.618609	0.324361	0.884673
	C163	C	0.381931	0.324488	0.115161
	C164	C	0.676410	0.885530	0.381224
	C165	C	0.676694	0.115535	0.618927
	C166	C	0.323533	0.885468	0.618823
	C167	C	0.323687	0.115124	0.381252
	C168	C	0.881847	0.384802	0.175776
	C169	C	0.118303	0.614914	0.175899
	C170	C	0.118795	0.384766	0.823801
	C171	C	0.881532	0.614389	0.823843
	C172	C	0.176703	0.880683	0.384837
	C173	C	0.175396	0.117633	0.615370
	C174	C	0.823833	0.118557	0.384574
	C175	C	0.823307	0.881207	0.615133
	C176	C	0.385300	0.176810	0.880991
	C177	C	0.615199	0.176483	0.118530
	C178	C	0.385204	0.823272	0.119798
	C179	C	0.615188	0.824102	0.881513
	C180	C	0.384956	0.881821	0.176647
	C181	C	0.615235	0.118419	0.175655
	C182	C	0.385049	0.118964	0.823711
	C183	C	0.615113	0.881724	0.823419
	C184	C	0.881057	0.176230	0.384773
	C185	C	0.117966	0.175374	0.615586
	C186	C	0.118879	0.823193	0.384844
	C187	C	0.881159	0.823946	0.615555
	C188	C	0.176482	0.384818	0.881268
	C189	C	0.176207	0.614784	0.118558
	C190	C	0.824054	0.384938	0.118332
	C191	C	0.824142	0.614419	0.881369
	C192	C	0.399587	0.095171	0.599731
	C193	C	0.599793	0.906037	0.599541
	C194	C	0.600490	0.095552	0.399880
	C195	C	0.400464	0.905543	0.400217
	C196	C	0.599913	0.400228	0.094790
	C197	C	0.600074	0.600057	0.905360
	C198	C	0.400222	0.599770	0.094895
	C199	C	0.400389	0.400742	0.904763
	C200	C	0.094203	0.599508	0.400502
	C201	C	0.905262	0.599142	0.599339
	C202	C	0.094442	0.398920	0.600158
	C203	C	0.905399	0.399557	0.400668
	C204	C	0.899495	0.594956	0.100146
	C205	C	0.100239	0.405352	0.099749
	C206	C	0.100178	0.594718	0.900226
	C207	C	0.900167	0.404430	0.900293
	C208	C	0.099809	0.900040	0.594490
	C209	C	0.099733	0.099949	0.405171
	C210	C	0.899803	0.099408	0.594791
	C211	C	0.900103	0.899976	0.405439
	C212	C	0.594500	0.100448	0.899516
	C213	C	0.405676	0.100527	0.099516
	C214	C	0.594109	0.900436	0.099638
	C215	C	0.405742	0.900323	0.899966
	Zn216	Zn	0.499839	0.000611	0.749488
	Zn217	Zn	0.499898	0.000185	0.250021
	Zn218	Zn	0.749997	0.500001	-0.000166
	Zn219	Zn	0.250452	0.499838	-0.000365
	Zn220	Zn	-0.000099	0.750144	0.500262
	Zn221	Zn	-0.000358	0.249226	0.500415
	Zn222	Zn	-0.000121	0.499032	0.750227
	Zn223	Zn	-0.000208	0.499972	0.249662
	Zn224	Zn	0.499806	0.749794	0.000115
	Zn225	Zn	0.500291	0.250445	-0.000132
	Zn226	Zn	0.749758	0.000284	0.499549
	Zn227	Zn	0.250098	0.000127	0.499657
	N228	N	0.414746	0.962882	0.677422
	N229	N	0.584620	0.038405	0.677620
	N230	N	0.585547	0.963241	0.321779
	N231	N	0.415207	0.037801	0.322458
	N232	N	0.678320	0.414462	0.962808
	N233	N	0.678242	0.585459	0.037460
	N234	N	0.321528	0.586150	0.962912
	N235	N	0.322569	0.415097	0.037258
	N236	N	0.962462	0.678252	0.414895
	N237	N	0.036863	0.678059	0.586022
	N238	N	0.962825	0.320325	0.586588
	N239	N	0.037400	0.321904	0.415692
	N240	N	0.962645	0.413631	0.678456
	N241	N	0.036963	0.584461	0.677817
	N242	N	0.962304	0.585148	0.322245
	N243	N	0.037236	0.414451	0.322174
	N244	N	0.415429	0.677392	0.962505
	N245	N	0.585607	0.678381	0.037372
	N246	N	0.585155	0.322559	0.962399
	N247	N	0.414948	0.322532	0.037225
	N248	N	0.678367	0.963274	0.414221
	N249	N	0.678587	0.037926	0.585629
	N250	N	0.321079	0.963384	0.586000
	N251	N	0.321780	0.037212	0.414307
	N252	N	0.914898	0.462632	0.177753
	N253	N	0.085243	0.537259	0.178023
	N254	N	0.085273	0.462449	0.822130
	N255	N	0.914937	0.536696	0.822170
	N256	N	0.178468	0.914448	0.462477
	N257	N	0.177593	0.084862	0.537353
	N258	N	0.822239	0.084934	0.462300
	N259	N	0.821412	0.914444	0.537297
	N260	N	0.462732	0.178441	0.914234
	N261	N	0.537657	0.178877	0.085383
	N262	N	0.462736	0.821084	0.086463
	N263	N	0.537603	0.822191	0.914716
	N264	N	0.462395	0.915386	0.177969
	N265	N	0.537525	0.085336	0.177530
	N266	N	0.462462	0.085306	0.821891
	N267	N	0.537489	0.915094	0.821353
	N268	N	0.913928	0.178255	0.462684
	N269	N	0.084866	0.177477	0.537659
	N270	N	0.085609	0.821489	0.462570
	N271	N	0.914843	0.822370	0.537970
	N272	N	0.178457	0.462475	0.914364
	N273	N	0.178214	0.537177	0.085263
	N274	N	0.821454	0.462897	0.085783
	N275	N	0.822312	0.536808	0.914828
