data_Molecule from HDF5

_cell_length_a		16.606852
_cell_length_b		16.671600
_cell_length_c		16.631438
_cell_angle_alpha	89.821347
_cell_angle_beta	90.165870
_cell_angle_gamma	89.911414
_symmetry_space_group_name_H-M	'P 1'
_symmetry_Int_Tables_number		1

loop_
	_symmetry_equiv_pos_as_xyz
	x,y,z

loop_
	_atom_site_label
	_atom_site_type_symbol
	_atom_site_fract_x
	_atom_site_fract_y
	_atom_site_fract_z
	H0	H	0.398672	0.832672	0.714676
	H1	H	0.615065	0.140326	0.716562
	H2	H	0.613530	0.831937	0.269698
	H3	H	0.401888	0.141267	0.270488
	H4	H	0.724985	0.383245	0.832759
	H5	H	0.731770	0.594892	0.143136
	H6	H	0.287259	0.589331	0.834100
	H7	H	0.283582	0.379720	0.145268
	H8	H	0.850176	0.707445	0.385684
	H9	H	0.163151	0.703249	0.592977
	H10	H	0.850931	0.263448	0.599045
	H11	H	0.157599	0.260819	0.382844
	H12	H	0.849790	0.381513	0.711834
	H13	H	0.163171	0.586462	0.708822
	H14	H	0.850477	0.590600	0.270755
	H15	H	0.157289	0.375228	0.265263
	H16	H	0.401517	0.706412	0.834628
	H17	H	0.616560	0.711910	0.143097
	H18	H	0.611097	0.266116	0.834325
	H19	H	0.400723	0.263791	0.145540
	H20	H	0.725848	0.830011	0.389615
	H21	H	0.734007	0.137954	0.604410
	H22	H	0.284419	0.831691	0.597118
	H23	H	0.285359	0.140755	0.387144
	H24	H	0.897378	0.333706	0.215252
	H25	H	0.117942	0.637427	0.217583
	H26	H	0.114180	0.333013	0.766502
	H27	H	0.903789	0.642428	0.771275
	H28	H	0.225148	0.882652	0.335657
	H29	H	0.229252	0.093158	0.644382
	H30	H	0.780796	0.093295	0.338509
	H31	H	0.788897	0.883820	0.648842
	H32	H	0.351229	0.208248	0.886239
	H33	H	0.662615	0.205516	0.094866
	H34	H	0.351219	0.763939	0.097296
	H35	H	0.659074	0.762505	0.882148
	H36	H	0.351306	0.879625	0.212988
	H37	H	0.661743	0.090683	0.213303
	H38	H	0.350319	0.091614	0.770754
	H39	H	0.658808	0.879583	0.766948
	H40	H	0.893568	0.212365	0.340029
	H41	H	0.111473	0.208567	0.644597
	H42	H	0.109519	0.766240	0.335788
	H43	H	0.906878	0.769030	0.649153
	H44	H	0.230280	0.331859	0.883911
	H45	H	0.230948	0.638886	0.099849
	H46	H	0.783361	0.332380	0.096464
	H47	H	0.786639	0.642125	0.886278
	H48	H	0.416679	0.097704	0.579274
	H49	H	0.590902	0.873452	0.592181
	H50	H	0.585805	0.092756	0.405605
	H51	H	0.416999	0.872948	0.400293
	H52	H	0.596969	0.398345	0.100539
	H53	H	0.599624	0.576911	0.876877
	H54	H	0.418850	0.575863	0.102670
	H55	H	0.418811	0.386538	0.876338
	H56	H	0.119504	0.577700	0.398984
	H57	H	0.890694	0.580901	0.583431
	H58	H	0.115000	0.400816	0.578202
	H59	H	0.892686	0.390143	0.407116
	H60	H	0.117817	0.396737	0.581695
	H61	H	0.892451	0.579495	0.579857
	H62	H	0.117401	0.577184	0.407653
	H63	H	0.900921	0.407426	0.412326
	H64	H	0.417838	0.575263	0.101804
	H65	H	0.592760	0.568557	0.882074
	H66	H	0.594110	0.398566	0.100520
	H67	H	0.407241	0.402866	0.877019
	H68	H	0.600208	0.097428	0.408636
	H69	H	0.582048	0.883656	0.571997
	H70	H	0.417027	0.098066	0.579092
	H71	H	0.415377	0.874162	0.402460
	H72	H	0.920154	0.597039	0.082130
	H73	H	0.092494	0.376380	0.077507
	H74	H	0.087321	0.591915	0.907507
	H75	H	0.914905	0.371558	0.894231
	H76	H	0.090521	0.892951	0.602413
	H77	H	0.089297	0.077708	0.379163
	H78	H	0.919803	0.081254	0.606117
	H79	H	0.907936	0.895538	0.377082
	H80	H	0.618572	0.076808	0.902993
	H81	H	0.394653	0.077375	0.076858
	H82	H	0.615685	0.903702	0.079873
	H83	H	0.398283	0.903754	0.909152
	H84	H	0.618426	0.895909	0.080845
	H85	H	0.395589	0.072824	0.082615
	H86	H	0.617756	0.075121	0.903246
	H87	H	0.393627	0.902589	0.896996
	H88	H	0.913230	0.067003	0.602361
	H89	H	0.096979	0.073954	0.378372
	H90	H	0.100096	0.890545	0.606647
	H91	H	0.917572	0.901438	0.381704
	H92	H	0.106083	0.599236	0.904551
	H93	H	0.090355	0.377682	0.077130
	H94	H	0.922895	0.594053	0.075025
	H95	H	0.919551	0.375286	0.901605
	H96	H	0.416869	0.097110	0.579076
	H97	H	0.604591	0.876133	0.572873
	H98	H	0.593738	0.099355	0.394535
	H99	H	0.414097	0.872860	0.400458
	H100	H	0.595361	0.396129	0.101085
	H101	H	0.588420	0.579653	0.879863
	H102	H	0.419038	0.574819	0.101737
	H103	H	0.426090	0.403695	0.884309
	H104	H	0.115955	0.570440	0.401831
	H105	H	0.892764	0.577028	0.583410
	H106	H	0.115778	0.395049	0.576298
	H107	H	0.893519	0.405210	0.394457
	H108	H	0.915087	0.597629	0.075837
	H109	H	0.092389	0.377976	0.075869
	H110	H	0.092178	0.600128	0.889818
	H111	H	0.910173	0.372503	0.902320
	H112	H	0.098193	0.900584	0.602898
	H113	H	0.091136	0.070105	0.382451
	H114	H	0.927990	0.070747	0.597893
	H115	H	0.918760	0.889941	0.378067
	H116	H	0.618686	0.075090	0.901431
	H117	H	0.392507	0.078922	0.083174
	H118	H	0.614566	0.897882	0.073726
	H119	H	0.393067	0.892127	0.905337
	C120	C	0.384152	-0.004677	0.612068
	C121	C	0.627158	0.978652	0.613588
	C122	C	0.626948	-0.005624	0.370804
	C123	C	0.384092	0.976617	0.369217
	C124	C	0.627620	0.365794	-0.001915
	C125	C	0.627705	0.608322	0.981555
	C126	C	0.386084	0.606924	-0.000827
	C127	C	0.385087	0.365092	0.982124
	C128	C	0.014693	0.607504	0.370005
	C129	C	0.996648	0.607769	0.612152
	C130	C	0.013674	0.364829	0.612059
	C131	C	0.996483	0.365537	0.370197
	C132	C	0.885329	0.494637	0.110910
	C133	C	0.127248	0.477840	0.112191
	C134	C	0.128000	0.494686	0.868522
	C135	C	0.884591	0.477170	0.868622
	C136	C	0.127291	0.864233	0.500163
	C137	C	0.125689	0.106907	0.482196
	C138	C	0.884417	0.107263	0.500716
	C139	C	0.884935	0.864721	0.482979
	C140	C	0.515121	0.108022	0.870026
	C141	C	0.497724	0.107882	0.112568
	C142	C	0.514422	0.865182	0.111832
	C143	C	0.497017	0.866094	0.870012
	C144	C	0.381113	0.879277	0.673890
	C145	C	0.632277	0.093801	0.675946
	C146	C	0.630570	0.878025	0.310624
	C147	C	0.382896	0.094122	0.310028
	C148	C	0.686074	0.364471	0.880207
	C149	C	0.690732	0.612537	0.097024
	C150	C	0.326612	0.608221	0.881448
	C151	C	0.324714	0.362047	0.099014
	C152	C	0.897307	0.667430	0.367507
	C153	C	0.115935	0.664254	0.612224
	C154	C	0.897224	0.304156	0.615856
	C155	C	0.111582	0.301945	0.365349
	C156	C	0.896939	0.362549	0.672373
	C157	C	0.115754	0.606483	0.669768
	C158	C	0.897284	0.609358	0.310341
	C159	C	0.111354	0.358922	0.307097
	C160	C	0.383711	0.666414	0.881634
	C161	C	0.633203	0.670442	0.097110
	C162	C	0.629151	0.306185	0.881014
	C163	C	0.382686	0.304346	0.099100
	C164	C	0.686691	0.877431	0.370163
	C165	C	0.691444	0.092712	0.620029
	C166	C	0.323765	0.878778	0.615592
	C167	C	0.325124	0.094264	0.367858
	C168	C	0.880754	0.379232	0.173485
	C169	C	0.133840	0.591738	0.175883
	C170	C	0.131954	0.378661	0.807381
	C171	C	0.884644	0.595404	0.810631
	C172	C	0.185782	0.863483	0.382561
	C173	C	0.187933	0.110646	0.598173
	C174	C	0.821298	0.111437	0.385080
	C175	C	0.828263	0.864745	0.601736
	C176	C	0.397598	0.167944	0.867759
	C177	C	0.615518	0.166343	0.114011
	C178	C	0.397892	0.804269	0.115094
	C179	C	0.612747	0.803742	0.865085
	C180	C	0.397887	0.861654	0.172794
	C181	C	0.615174	0.108981	0.172427
	C182	C	0.397372	0.110173	0.810474
	C183	C	0.612594	0.861843	0.807729
	C184	C	0.877467	0.170480	0.385574
	C185	C	0.129682	0.167888	0.598389
	C186	C	0.128290	0.805771	0.382619
	C187	C	0.886454	0.807383	0.601845
	C188	C	0.189532	0.378399	0.865560
	C189	C	0.190244	0.592486	0.117200
	C190	C	0.823861	0.378732	0.114587
	C191	C	0.826393	0.595299	0.867690
	C192	C	0.409834	0.076651	0.586284
	C193	C	0.600065	0.898683	0.586731
	C194	C	0.600734	0.075557	0.395819
	C195	C	0.408450	0.894726	0.394104
	C196	C	0.602818	0.390705	0.079480
	C197	C	0.601099	0.582517	0.900700
	C198	C	0.411210	0.582365	0.080759
	C199	C	0.410283	0.390370	0.900494
	C200	C	0.096432	0.582313	0.395471
	C201	C	0.913700	0.585456	0.588880
	C202	C	0.095022	0.390085	0.586004
	C203	C	0.916439	0.393079	0.397109
	C204	C	0.911778	0.575132	0.084915
	C205	C	0.099545	0.398090	0.084689
	C206	C	0.102442	0.575858	0.893539
	C207	C	0.907968	0.394652	0.892475
	C208	C	0.103243	0.887904	0.582557
	C209	C	0.099532	0.081276	0.401060
	C210	C	0.912387	0.080427	0.581117
	C211	C	0.908135	0.888649	0.400568
	C212	C	0.597057	0.082944	0.895311
	C213	C	0.415717	0.083467	0.087862
	C214	C	0.595248	0.891528	0.085679
	C215	C	0.416035	0.892097	0.896339
	Zn216	Zn	0.505262	-0.012208	0.741563
	Zn217	Zn	0.505896	-0.014480	0.241027
	Zn218	Zn	0.756314	0.486590	-0.010434
	Zn219	Zn	0.255947	0.486283	-0.009170
	Zn220	Zn	0.006104	0.735906	0.491292
	Zn221	Zn	0.004654	0.236310	0.491283
	Zn222	Zn	0.005860	0.485874	0.740317
	Zn223	Zn	0.005810	0.486370	0.241131
	Zn224	Zn	0.505860	0.736774	-0.009278
	Zn225	Zn	0.506740	0.236560	-0.009275
	Zn226	Zn	0.756001	-0.013787	0.492891
	Zn227	Zn	0.255163	-0.013840	0.490734
	N228	N	0.417900	0.953003	0.671963
	N229	N	0.592808	0.021769	0.672231
	N230	N	0.594080	0.952033	0.310730
	N231	N	0.418568	0.019851	0.310523
	N232	N	0.685356	0.400947	0.954185
	N233	N	0.687286	0.574258	0.024147
	N234	N	0.327579	0.572052	0.955673
	N235	N	0.326165	0.399340	0.025306
	N236	N	0.971700	0.666844	0.403656
	N237	N	0.040903	0.665362	0.577173
	N238	N	0.971048	0.305355	0.579165
	N239	N	0.038965	0.305715	0.404023
	N240	N	0.970514	0.399605	0.670304
	N241	N	0.040582	0.572212	0.669995
	N242	N	0.971384	0.572908	0.311691
	N243	N	0.038943	0.398014	0.310154
	N244	N	0.419737	0.666119	0.956094
	N245	N	0.594665	0.667998	0.024193
	N246	N	0.593285	0.306905	0.955237
	N247	N	0.419664	0.306388	0.025425
	N248	N	0.684824	0.951051	0.406726
	N249	N	0.688269	0.020112	0.581708
	N250	N	0.325592	0.952077	0.577763
	N251	N	0.325558	0.020055	0.403840
	N252	N	0.918187	0.452414	0.171453
	N253	N	0.094957	0.519350	0.172747
	N254	N	0.094021	0.451768	0.809380
	N255	N	0.919691	0.520696	0.810546
	N256	N	0.185348	0.899200	0.456800
	N257	N	0.185476	0.073329	0.524810
	N258	N	0.825280	0.073090	0.457934
	N259	N	0.827026	0.899509	0.526915
	N260	N	0.472026	0.167023	0.903834
	N261	N	0.541351	0.165772	0.077585
	N262	N	0.471548	0.806114	0.077930
	N263	N	0.539710	0.806345	0.903381
	N264	N	0.471468	0.898917	0.170912
	N265	N	0.540724	0.073326	0.171767
	N266	N	0.471613	0.073898	0.811566
	N267	N	0.539514	0.899958	0.810632
	N268	N	0.915999	0.168089	0.458589
	N269	N	0.091574	0.165670	0.525180
	N270	N	0.092792	0.806000	0.456981
	N271	N	0.920590	0.806821	0.526717
	N272	N	0.187257	0.451615	0.902890
	N273	N	0.186345	0.520478	0.078014
	N274	N	0.826170	0.451731	0.076631
	N275	N	0.825926	0.520605	0.902651
	O276	O	-0.006963	0.823387	0.046768
	H277	H	0.003275	0.823063	0.041598
	H278	H	0.005827	0.814629	0.059265
	O279	O	0.516734	0.314351	0.263745
	H280	H	0.520934	0.300073	0.254531
	H281	H	0.534295	0.302796	0.257479
	O282	O	1.228930	-0.041117	0.770811
	H283	H	1.237825	-0.068477	0.758338
	H284	H	1.238562	-0.064882	0.763397
	O285	O	0.563341	0.545693	0.253981
	H286	H	0.561148	0.535617	0.252724
	H287	H	0.537811	0.545450	0.251841
	O288	O	0.221680	0.772850	0.780570
	H289	H	0.167494	0.767889	0.772484
	H290	H	0.248809	0.739554	0.745377
	O291	O	0.278084	0.545173	0.526279
	H292	H	0.289959	0.538096	0.519709
	H293	H	0.271258	0.516342	0.546694
	O294	O	1.225639	0.021191	1.215399
	H295	H	1.233579	0.006243	1.183701
	H296	H	1.252425	0.024297	1.240589
	O297	O	0.254880	0.744965	0.242633
	H298	H	0.229598	0.760980	0.229001
	H299	H	0.247679	0.741373	0.266278
	O300	O	0.075594	0.034734	1.178882
	H301	H	0.095768	0.037199	1.175466
	H302	H	0.095103	0.041064	1.168375
	O303	O	0.461945	0.558502	0.457372
	H304	H	0.467687	0.555622	0.456376
	H305	H	0.452544	0.557570	0.455440
	O306	O	0.471228	0.664799	0.565898
	H307	H	0.476758	0.674832	0.544809
	H308	H	0.472854	0.666725	0.555217
	O309	O	0.017276	1.074903	0.998248
	H310	H	0.034457	1.072424	0.992180
	H311	H	0.027117	1.086310	1.003358
	O312	O	0.153332	1.092402	0.884305
	H313	H	0.155308	1.093927	0.859861
	H314	H	0.156636	1.109636	0.886138
	O315	O	0.494675	0.465036	1.715474
	H316	H	0.511390	0.474650	1.712664
	H317	H	0.504978	0.454408	1.724851
	O318	O	0.689621	0.439181	0.596938
	H319	H	0.687558	0.442130	0.588358
	H320	H	0.705276	0.446933	0.595499
	O321	O	-0.206736	1.195284	0.881989
	H322	H	-0.202197	1.199647	0.888041
	H323	H	-0.195782	1.206161	0.897125
	O324	O	0.814988	0.973902	0.215468
	H325	H	0.811663	0.976466	0.231234
	H326	H	0.811941	0.986908	0.219326
	O327	O	-0.005238	-0.120429	1.141626
	H328	H	-0.001426	-0.128147	1.140924
	H329	H	-0.002122	-0.113519	1.149646
	O330	O	0.317087	0.672269	0.675131
	H331	H	0.336085	0.641906	0.668461
	H332	H	0.334557	0.663085	0.648604
	O333	O	0.817151	-0.203327	0.802658
	H334	H	0.821232	-0.188013	0.818966
	H335	H	0.818999	-0.201297	0.796996
	O336	O	0.425347	0.421340	0.324286
	H337	H	0.425755	0.423873	0.342558
	H338	H	0.426952	0.410848	0.311228
	O339	O	0.401822	0.420374	0.539228
	H340	H	0.396014	0.418541	0.530686
	H341	H	0.411182	0.420714	0.539297
	O342	O	-0.181750	0.175722	0.179289
	H343	H	-0.158578	0.161499	0.164843
	H344	H	-0.160959	0.158364	0.166773
	O345	O	0.219569	1.199999	1.203332
	H346	H	0.231897	1.173659	1.214943
	H347	H	0.243841	1.215898	1.220690
	O348	O	-0.115380	-0.112901	-0.170448
	H349	H	-0.100593	-0.103118	-0.167611
	H350	H	-0.125786	-0.098435	-0.163465
	O351	O	0.358605	0.625185	0.307966
	H352	H	0.389930	0.628279	0.323538
	H353	H	0.337811	0.647589	0.318831
	O354	O	0.108388	-0.167630	1.180962
	H355	H	0.094634	-0.164134	1.178172
	H356	H	0.094662	-0.161334	1.166669
	O357	O	0.482519	0.281506	0.422879
	H358	H	0.500415	0.281871	0.440214
	H359	H	0.501832	0.283308	0.409218
	O360	O	0.693185	0.671947	0.302789
	H361	H	0.711042	0.683246	0.290149
	H362	H	0.661672	0.654098	0.294160
	O363	O	0.018066	-0.239773	0.162605
	H364	H	-0.003201	-0.233317	0.162320
	H365	H	0.014283	-0.248705	0.175122
	O366	O	0.582032	0.258524	0.580843
	H367	H	0.597710	0.261741	0.570815
	H368	H	0.591898	0.266572	0.587002
	O369	O	0.938485	0.209741	0.049383
	H370	H	0.955621	0.218144	0.064379
	H371	H	0.960249	0.205684	0.040512
	O372	O	0.781435	1.070725	-0.037978
	H373	H	0.796444	1.077769	-0.035700
	H374	H	0.781517	1.069753	-0.039414
	O375	O	0.711201	-0.301679	-0.298479
	H376	H	0.703883	-0.286964	-0.280709
	H377	H	0.718039	-0.313334	-0.332136
	O378	O	0.596728	0.564077	0.505978
	H379	H	0.603000	0.572525	0.510094
	H380	H	0.590542	0.560395	0.497853
	O381	O	0.020453	1.209153	1.212316
	H382	H	0.044503	1.233106	1.232661
	H383	H	0.048277	1.202713	1.210707
	O384	O	1.007841	0.160110	0.948598
	H385	H	0.999551	0.153750	0.934340
	H386	H	1.022789	0.158805	0.951470
	O387	O	1.264477	1.242461	-0.271734
	H388	H	1.278203	1.261045	-0.302331
	H389	H	1.283810	1.244441	-0.267856
	O390	O	0.715930	0.461071	0.272604
	H391	H	0.704940	0.470693	0.264807
	H392	H	0.731268	0.454819	0.272087
	O393	O	0.285828	0.495387	0.277226
	H394	H	0.313586	0.527719	0.283488
	H395	H	0.254794	0.508396	0.247357
	O396	O	0.052915	0.769152	0.774030
	H397	H	0.027235	0.776048	0.798968
	H398	H	0.034541	0.745868	0.760944
	O399	O	0.150704	0.125149	0.795213
	H400	H	0.170135	0.127716	0.782106
	H401	H	0.152719	0.137608	0.796114
	O402	O	0.291601	0.705139	0.459314
	H403	H	0.292144	0.675320	0.473369
	H404	H	0.265487	0.726930	0.462383
	O405	O	1.234428	-0.240895	0.959987
	H406	H	1.252415	-0.252514	0.938462
	H407	H	1.245186	-0.250052	0.927769
	O408	O	0.238558	-0.043275	0.061183
	H409	H	0.244452	-0.040612	0.033399
	H410	H	0.228190	-0.068067	0.053743
	O411	O	1.220180	1.201502	1.031209
	H412	H	1.237568	1.214916	1.039218
	H413	H	1.233829	1.194018	1.045669
	O414	O	0.622782	0.638092	0.478580
	H415	H	0.609679	0.609071	0.487368
	H416	H	0.624385	0.653352	0.456557
	O417	O	0.415280	0.424751	0.562728
	H418	H	0.425606	0.433648	0.556611
	H419	H	0.416589	0.440418	0.565360
	O420	O	0.546646	0.716807	0.428767
	H421	H	0.554826	0.710938	0.419892
	H422	H	0.548257	0.716101	0.422574
	O423	O	0.072332	-0.034573	0.935403
	H424	H	0.066197	-0.034996	0.933382
	H425	H	0.069009	-0.037823	0.941736
	O426	O	0.535552	0.701097	0.702153
	H427	H	0.547334	0.701559	0.682150
	H428	H	0.534644	0.728358	0.719977
	O429	O	1.199903	0.954867	0.947113
	H430	H	1.190631	0.955215	0.916622
	H431	H	1.197598	0.941087	0.943177
	O432	O	0.748296	0.157149	0.735731
	H433	H	0.747821	0.147874	0.728279
	H434	H	0.756823	0.176455	0.726482
	O435	O	0.317926	1.295326	0.305856
	H436	H	0.328386	1.312164	0.333398
	H437	H	0.337867	1.313792	0.318948
	O438	O	0.509406	0.344095	-0.313120
	H439	H	0.530053	0.354086	-0.330133
	H440	H	0.526030	0.349787	-0.300810
	O441	O	-0.065754	-0.179742	-0.013933
	H442	H	-0.071168	-0.178786	-0.006048
	H443	H	-0.065001	-0.174839	0.002855
	O444	O	0.728160	0.713128	0.536514
	H445	H	0.724171	0.694320	0.529974
	H446	H	0.760417	0.741518	0.530223
	O447	O	-0.192100	1.047107	1.007436
	H448	H	-0.190829	1.059627	1.000993
	H449	H	-0.187468	1.042892	1.007350
	O450	O	-0.206987	0.777921	1.201804
	H451	H	-0.192758	0.799093	1.190185
	H452	H	-0.217771	0.788051	1.198364
	O453	O	0.729283	0.524988	0.713387
	H454	H	0.752344	0.525156	0.724703
	H455	H	0.730654	0.549203	0.719371
	O456	O	-0.019908	0.197631	0.773828
	H457	H	-0.016391	0.206219	0.775259
	H458	H	-0.020227	0.205432	0.766381
	O459	O	0.788446	1.050228	-0.147903
	H460	H	0.805819	1.058511	-0.154476
	H461	H	0.786686	1.049797	-0.128278
	O462	O	0.485480	0.707096	0.267293
	H463	H	0.476448	0.742732	0.233938
	H464	H	0.479730	0.684883	0.283083
	O465	O	0.785403	-0.227043	0.013507
	H466	H	0.778470	-0.225369	0.016289
	H467	H	0.773911	-0.233269	0.018936
	O468	O	0.374759	0.413057	0.549031
	H469	H	0.392382	0.383512	0.550153
	H470	H	0.368132	0.412285	0.544557
	O471	O	0.353691	0.500567	0.706656
	H472	H	0.358824	0.466552	0.714157
	H473	H	0.375412	0.512932	0.716844
	O474	O	0.717245	0.259878	0.472794
	H475	H	0.737543	0.251017	0.457835
	H476	H	0.728030	0.264552	0.452665
	O477	O	0.289560	0.270799	1.513913
	H478	H	0.297555	0.266546	1.518836
	H479	H	0.283620	0.257687	1.520418
	O480	O	0.711598	0.433574	0.437490
	H481	H	0.711083	0.427287	0.412531
	H482	H	0.709663	0.436583	0.457044
	O483	O	0.546812	0.361757	0.421755
	H484	H	0.549252	0.368040	0.429277
	H485	H	0.547499	0.352119	0.421423
	O486	O	0.463987	0.262232	0.672149
	H487	H	0.483025	0.261133	0.672501
	H488	H	0.467107	0.245138	0.690794
	O489	O	0.934920	0.932771	0.091434
	H490	H	0.931027	0.938464	0.094956
	H491	H	0.940312	0.944096	0.080099
	O492	O	-0.019872	0.044624	0.162742
	H493	H	-0.004540	0.028985	0.156368
	H494	H	-0.008808	0.066442	0.162737
	O495	O	-0.061507	1.002688	0.818699
	H496	H	-0.053198	1.006340	0.833107
	H497	H	-0.043715	0.991741	0.805532
	O498	O	1.037807	0.931403	0.801238
	H499	H	1.038600	0.948759	0.793548
	H500	H	1.049398	0.919419	0.815086
	O501	O	0.713476	0.273381	0.276394
	H502	H	0.746069	0.243426	0.243200
	H503	H	0.701157	0.301925	0.274918
