data_Molecule from HDF5

_cell_length_a		16.091335
_cell_length_b		16.201788
_cell_length_c		16.338652
_cell_angle_alpha	90.171516
_cell_angle_beta	89.699032
_cell_angle_gamma	89.934713
_symmetry_space_group_name_H-M	'P 1'
_symmetry_Int_Tables_number		1

loop_
	_symmetry_equiv_pos_as_xyz
	x,y,z

loop_
	_atom_site_label
	_atom_site_type_symbol
	_atom_site_fract_x
	_atom_site_fract_y
	_atom_site_fract_z
	H0	H	0.414850	0.845622	0.705300
	H1	H	0.616475	0.173377	0.705547
	H2	H	0.618247	0.846518	0.272536
	H3	H	0.415490	0.173489	0.275983
	H4	H	0.730152	0.411573	0.824823
	H5	H	0.728392	0.607355	0.152486
	H6	H	0.303567	0.606595	0.824155
	H7	H	0.300130	0.412871	0.152250
	H8	H	0.849417	0.722054	0.392725
	H9	H	0.181276	0.722269	0.585946
	H10	H	0.848662	0.298717	0.586222
	H11	H	0.180108	0.295377	0.388917
	H12	H	0.850718	0.410023	0.704447
	H13	H	0.181534	0.608884	0.701191
	H14	H	0.850651	0.609864	0.274206
	H15	H	0.179259	0.406811	0.271860
	H16	H	0.417789	0.724455	0.825689
	H17	H	0.613060	0.724535	0.152472
	H18	H	0.617730	0.291830	0.826993
	H19	H	0.414892	0.295425	0.152712
	H20	H	0.728301	0.844236	0.392020
	H21	H	0.726514	0.174995	0.585344
	H22	H	0.301163	0.844809	0.587735
	H23	H	0.303565	0.175024	0.394238
	H24	H	0.913705	0.346064	0.203966
	H25	H	0.117176	0.672469	0.205193
	H26	H	0.117361	0.345734	0.772260
	H27	H	0.916038	0.673429	0.774853
	H28	H	0.230897	0.911882	0.326050
	H29	H	0.227067	0.107940	0.654068
	H30	H	0.801150	0.106874	0.325362
	H31	H	0.799538	0.913221	0.653209
	H32	H	0.350198	0.222207	0.893799
	H33	H	0.681179	0.222647	0.087426
	H34	H	0.349758	0.796879	0.087604
	H35	H	0.681110	0.796682	0.890839
	H36	H	0.350255	0.909948	0.204692
	H37	H	0.681215	0.108207	0.202929
	H38	H	0.351408	0.109953	0.776732
	H39	H	0.679430	0.907608	0.773511
	H40	H	0.914476	0.224669	0.325365
	H41	H	0.112407	0.226953	0.652247
	H42	H	0.116692	0.792781	0.326369
	H43	H	0.914669	0.794966	0.653134
	H44	H	0.229609	0.344527	0.890373
	H45	H	0.225777	0.675126	0.083435
	H46	H	0.802259	0.345110	0.085784
	H47	H	0.804678	0.675208	0.892413
	H48	H	0.427029	0.127465	0.588619
	H49	H	0.594963	0.898815	0.573869
	H50	H	0.616258	0.130205	0.393606
	H51	H	0.411827	0.888864	0.397867
	H52	H	0.604643	0.428190	0.101326
	H53	H	0.606080	0.588437	0.877768
	H54	H	0.424099	0.603833	0.104253
	H55	H	0.418675	0.419852	0.872272
	H56	H	0.133227	0.596183	0.391563
	H57	H	0.900345	0.596472	0.579696
	H58	H	0.132961	0.417793	0.580019
	H59	H	0.898190	0.422116	0.395561
	H60	H	0.133491	0.417952	0.580059
	H61	H	0.894339	0.602174	0.591930
	H62	H	0.135979	0.604983	0.394259
	H63	H	0.894703	0.415810	0.391739
	H64	H	0.419926	0.607492	0.106164
	H65	H	0.597983	0.615954	0.871521
	H66	H	0.601059	0.404399	0.106664
	H67	H	0.430204	0.416992	0.874966
	H68	H	0.601823	0.127675	0.389521
	H69	H	0.621712	0.889522	0.576346
	H70	H	0.422994	0.125103	0.579490
	H71	H	0.428615	0.889797	0.384937
	H72	H	0.930676	0.624563	0.078697
	H73	H	0.112720	0.388894	0.085261
	H74	H	0.107897	0.627200	0.893057
	H75	H	0.926164	0.391434	0.892353
	H76	H	0.110225	0.921635	0.605123
	H77	H	0.108892	0.107943	0.371589
	H78	H	0.926582	0.108149	0.604457
	H79	H	0.923096	0.911695	0.372110
	H80	H	0.635872	0.102063	0.893613
	H81	H	0.400666	0.098740	0.075064
	H82	H	0.628211	0.927979	0.073318
	H83	H	0.394945	0.919777	0.888966
	H84	H	0.637508	0.919762	0.096901
	H85	H	0.396359	0.095962	0.092165
	H86	H	0.634311	0.102782	0.899416
	H87	H	0.395889	0.910112	0.900469
	H88	H	0.915788	0.108356	0.607624
	H89	H	0.112999	0.099233	0.372763
	H90	H	0.101402	0.915248	0.604755
	H91	H	0.919098	0.915144	0.372143
	H92	H	0.109662	0.627314	0.894586
	H93	H	0.100526	0.392993	0.082993
	H94	H	0.917023	0.628630	0.078598
	H95	H	0.924590	0.392678	0.897498
	H96	H	0.416458	0.129288	0.587266
	H97	H	0.604236	0.888362	0.597935
	H98	H	0.605551	0.124287	0.403662
	H99	H	0.431202	0.897395	0.404735
	H100	H	0.622975	0.414907	0.109992
	H101	H	0.625880	0.606930	0.866375
	H102	H	0.418590	0.601676	0.104840
	H103	H	0.422939	0.409180	0.870420
	H104	H	0.131827	0.600023	0.400645
	H105	H	0.895832	0.608808	0.580742
	H106	H	0.133209	0.416589	0.579888
	H107	H	0.896687	0.414864	0.399138
	H108	H	0.924728	0.629423	0.090709
	H109	H	0.109687	0.393260	0.073828
	H110	H	0.109642	0.628002	0.892485
	H111	H	0.921203	0.390432	0.893940
	H112	H	0.111494	0.910327	0.608282
	H113	H	0.104153	0.100522	0.375724
	H114	H	0.920488	0.097903	0.603465
	H115	H	0.924218	0.916605	0.374215
	H116	H	0.633369	0.097667	0.896184
	H117	H	0.394436	0.112670	0.085761
	H118	H	0.636182	0.903323	0.076293
	H119	H	0.400397	0.924321	0.902250
	C120	C	0.393385	0.018346	0.612879
	C121	C	0.636173	1.001054	0.611239
	C122	C	0.637092	0.018454	0.367192
	C123	C	0.395051	1.001175	0.368422
	C124	C	0.638640	0.386880	-0.002079
	C125	C	0.637473	0.632091	0.980189
	C126	C	0.393051	0.632557	-0.002882
	C127	C	0.394516	0.387844	0.980697
	C128	C	0.024291	0.630091	0.367476
	C129	C	1.006817	0.630828	0.611284
	C130	C	0.023897	0.388928	0.609450
	C131	C	1.005499	0.387780	0.366388
	C132	C	0.894396	0.518449	0.110393
	C133	C	0.136502	0.500443	0.109375
	C134	C	0.137973	0.518395	0.865559
	C135	C	0.895172	0.500582	0.866883
	C136	C	0.136976	0.887212	0.498206
	C137	C	0.136534	0.131805	0.481330
	C138	C	0.892724	0.132138	0.496916
	C139	C	0.892893	0.887025	0.480955
	C140	C	0.525080	0.130122	0.868879
	C141	C	0.506705	0.130995	0.112053
	C142	C	0.524069	0.888628	0.110928
	C143	C	0.506483	0.888693	0.868340
	C144	C	0.394812	0.894857	0.667721
	C145	C	0.635162	0.124526	0.666861
	C146	C	0.637056	0.895118	0.311188
	C147	C	0.396127	0.124656	0.313952
	C148	C	0.693062	0.390429	0.874020
	C149	C	0.691313	0.628775	0.103394
	C150	C	0.340347	0.628105	0.873452
	C151	C	0.338243	0.391724	0.103645
	C152	C	0.899139	0.684700	0.371494
	C153	C	0.131721	0.685195	0.606948
	C154	C	0.898667	0.335488	0.606805
	C155	C	0.130379	0.332596	0.368542
	C156	C	0.899700	0.390780	0.665881
	C157	C	0.131797	0.628677	0.664164
	C158	C	0.899848	0.628942	0.312590
	C159	C	0.130151	0.388308	0.310690
	C160	C	0.396948	0.686811	0.874074
	C161	C	0.633716	0.686767	0.103396
	C162	C	0.636928	0.330984	0.875110
	C163	C	0.395444	0.333139	0.103648
	C164	C	0.691925	0.894106	0.370482
	C165	C	0.690176	0.125410	0.607320
	C166	C	0.338626	0.894273	0.609037
	C167	C	0.340426	0.125508	0.372845
	C168	C	0.894823	0.395155	0.165673
	C169	C	0.136062	0.623870	0.165918
	C170	C	0.136933	0.394732	0.810168
	C171	C	0.896802	0.624529	0.812603
	C172	C	0.192963	0.890525	0.374936
	C173	C	0.189895	0.129048	0.604833
	C174	C	0.838336	0.128214	0.374094
	C175	C	0.837214	0.891240	0.604190
	C176	C	0.399960	0.185195	0.872794
	C177	C	0.631794	0.185242	0.108429
	C178	C	0.399283	0.834197	0.108424
	C179	C	0.631387	0.833860	0.870404
	C180	C	0.399557	0.890293	0.166603
	C181	C	0.631562	0.128691	0.165974
	C182	C	0.400338	0.129084	0.814777
	C183	C	0.630439	0.888850	0.811880
	C184	C	0.895153	0.186567	0.374137
	C185	C	0.133088	0.188232	0.603851
	C186	C	0.136304	0.831326	0.375202
	C187	C	0.894371	0.832548	0.604112
	C188	C	0.192409	0.394068	0.869161
	C189	C	0.190119	0.625143	0.105528
	C190	C	0.839382	0.394421	0.106574
	C191	C	0.841150	0.625229	0.870988
	C192	C	0.415690	0.105002	0.591636
	C193	C	0.613663	0.914572	0.589207
	C194	C	0.614468	0.104984	0.389132
	C195	C	0.417276	0.914282	0.389597
	C196	C	0.616249	0.409211	0.083722
	C197	C	0.616177	0.610249	0.894041
	C198	C	0.414458	0.610847	0.083048
	C199	C	0.417264	0.409076	0.894841
	C200	C	0.111221	0.607223	0.389046
	C201	C	0.919371	0.609061	0.590357
	C202	C	0.110996	0.411015	0.586866
	C203	C	0.918794	0.410882	0.388843
	C204	C	0.917137	0.605170	0.088912
	C205	C	0.114219	0.414134	0.087262
	C206	C	0.115716	0.605022	0.887065
	C207	C	0.917468	0.413929	0.888249
	C208	C	0.114318	0.909149	0.583853
	C209	C	0.115060	0.109144	0.395726
	C210	C	0.914487	0.110979	0.583057
	C211	C	0.915428	0.908245	0.395162
	C212	C	0.611977	0.107555	0.890116
	C213	C	0.419790	0.108974	0.090679
	C214	C	0.611337	0.910480	0.088770
	C215	C	0.419583	0.911304	0.890702
	Zn216	Zn	0.515419	0.009437	0.740639
	Zn217	Zn	0.515410	0.009432	0.239255
	Zn218	Zn	0.766988	0.510041	-0.011720
	Zn219	Zn	0.264874	0.509726	-0.011906
	Zn220	Zn	0.015262	0.757331	0.489820
	Zn221	Zn	0.014441	0.261400	0.487989
	Zn222	Zn	0.016205	0.509489	0.738029
	Zn223	Zn	0.015777	0.508992	0.238907
	Zn224	Zn	0.515548	0.761335	-0.010859
	Zn225	Zn	0.516497	0.258023	-0.009949
	Zn226	Zn	0.764265	0.009900	0.489074
	Zn227	Zn	0.266447	0.009766	0.490023
	N228	N	0.428131	0.973170	0.670089
	N229	N	0.602277	0.046035	0.669349
	N230	N	0.603895	0.973323	0.308796
	N231	N	0.429259	0.046315	0.311158
	N232	N	0.694252	0.424585	0.951299
	N233	N	0.693791	0.595543	0.025881
	N234	N	0.337555	0.595241	0.950987
	N235	N	0.337346	0.424843	0.026163
	N236	N	0.977444	0.685594	0.405015
	N237	N	0.052829	0.686508	0.574716
	N238	N	0.976894	0.334372	0.572405
	N239	N	0.052097	0.332373	0.402601
	N240	N	0.978650	0.423291	0.667670
	N241	N	0.053150	0.595526	0.666823
	N242	N	0.978742	0.595859	0.310012
	N243	N	0.051611	0.421947	0.309141
	N244	N	0.429086	0.689652	0.951893
	N245	N	0.601008	0.689068	0.025549
	N246	N	0.603753	0.328729	0.952988
	N247	N	0.429699	0.330509	0.026227
	N248	N	0.692082	0.971895	0.404807
	N249	N	0.690894	0.047683	0.573296
	N250	N	0.337650	0.972185	0.575638
	N251	N	0.339688	0.047469	0.406019
	N252	N	0.928576	0.473225	0.167878
	N253	N	0.103390	0.545479	0.168337
	N254	N	0.103751	0.473099	0.807766
	N255	N	0.929787	0.545943	0.809750
	N256	N	0.193724	0.924437	0.452337
	N257	N	0.192322	0.094835	0.527600
	N258	N	0.836707	0.095088	0.451594
	N259	N	0.836103	0.924320	0.526731
	N260	N	0.478554	0.185975	0.905645
	N261	N	0.553266	0.187037	0.075764
	N262	N	0.477692	0.832996	0.074382
	N263	N	0.553286	0.833511	0.904843
	N264	N	0.478300	0.923286	0.168223
	N265	N	0.552823	0.095551	0.168200
	N266	N	0.479115	0.095641	0.811911
	N267	N	0.551854	0.922425	0.810523
	N268	N	0.928188	0.189151	0.451678
	N269	N	0.100855	0.190201	0.526036
	N270	N	0.102203	0.829188	0.452631
	N271	N	0.928310	0.829538	0.526512
	N272	N	0.193395	0.471928	0.902763
	N273	N	0.190757	0.547380	0.071106
	N274	N	0.839253	0.472171	0.072774
	N275	N	0.839812	0.547163	0.903904
	O276	O	0.965690	0.934478	0.019620
	H277	H	0.963580	0.933138	0.019885
	H278	H	0.959533	0.948867	0.023240
	O279	O	0.002214	0.018179	0.957813
	H280	H	-0.001727	0.014753	0.963808
	H281	H	-0.006524	0.020002	0.954465
	O282	O	0.035333	0.044710	-0.012882
	H283	H	0.034716	0.040237	-0.014991
	H284	H	0.031473	0.048894	-0.007493
	O285	O	0.513229	0.519203	0.518443
	H286	H	0.509202	0.527732	0.510648
	H287	H	0.513768	0.521420	0.528629
	O288	O	-0.983938	-0.918053	-0.042384
	H289	H	-0.986164	-0.920194	-0.042097
	H290	H	-0.976364	-0.906097	-0.049596
	O291	O	0.000983	1.065080	-0.023595
	H292	H	-0.002308	1.081428	-0.022154
	H293	H	0.012344	1.067481	-0.023340
	O294	O	0.001351	0.995649	0.083848
	H295	H	-0.004008	0.993187	0.088867
	H296	H	-0.001145	0.989913	0.090059
	O297	O	0.528453	0.473074	0.496381
	H298	H	0.531803	0.467223	0.497136
	H299	H	0.537291	0.481985	0.492963
	O300	O	0.501284	0.535278	0.484499
	H301	H	0.497624	0.535839	0.487587
	H302	H	0.497476	0.533497	0.477294
	O303	O	1.052512	-0.044369	0.933701
	H304	H	1.055943	-0.044017	0.929514
	H305	H	1.053219	-0.044247	0.920850
	O306	O	-0.003971	1.108348	1.014575
	H307	H	0.003187	1.107406	1.011220
	H308	H	-0.003791	1.110645	1.011030
	O309	O	0.009387	0.997669	0.940876
	H310	H	0.004083	0.985376	0.940252
	H311	H	0.014743	0.998539	0.942420
	O312	O	0.030515	-0.016383	1.043643
	H313	H	0.032639	-0.019684	1.047599
	H314	H	0.032530	-0.018951	1.038696
	O315	O	0.493774	0.538258	0.522158
	H316	H	0.488182	0.537352	0.531764
	H317	H	0.491185	0.546090	0.512176
	O318	O	0.059014	-0.024467	1.029012
	H319	H	0.048902	-0.018473	1.029058
	H320	H	0.062683	-0.032797	1.035564
	O321	O	0.584196	0.516194	0.500418
	H322	H	0.585498	0.518445	0.507554
	H323	H	0.576938	0.520585	0.499462
	O324	O	0.454856	-0.502906	1.538331
	H325	H	0.451988	-0.503416	1.552067
	H326	H	0.447829	-0.512875	1.531383
	O327	O	1.043580	0.967441	0.984187
	H328	H	1.044639	0.955967	0.980460
	H329	H	1.049293	0.962270	0.993303
	O330	O	-0.002331	0.011591	0.895629
	H331	H	-0.007462	0.013707	0.895472
	H332	H	-0.002042	0.009049	0.892978
	O333	O	0.462371	0.531114	0.461680
	H334	H	0.464969	0.523666	0.459134
	H335	H	0.465391	0.536410	0.456323
	O336	O	0.453123	0.536406	0.444363
	H337	H	0.456541	0.538027	0.443734
	H338	H	0.454457	0.532689	0.439312
	O339	O	0.495911	0.515198	0.490226
	H340	H	0.481229	0.512139	0.492083
	H341	H	0.495252	0.510292	0.496073
	O342	O	0.460672	0.408776	0.474681
	H343	H	0.465955	0.413414	0.474688
	H344	H	0.457209	0.400924	0.463832
	O345	O	0.517481	0.498442	0.488414
	H346	H	0.521965	0.493294	0.490410
	H347	H	0.523082	0.507712	0.487561
