data_Molecule from HDF5

_cell_length_a		16.213103
_cell_length_b		16.222213
_cell_length_c		16.244548
_cell_angle_alpha	89.995183
_cell_angle_beta	89.996994
_cell_angle_gamma	90.089368
_symmetry_space_group_name_H-M	'P 1'
_symmetry_Int_Tables_number		1

loop_
	_symmetry_equiv_pos_as_xyz
	x,y,z

loop_
	_atom_site_label
	_atom_site_type_symbol
	_atom_site_fract_x
	_atom_site_fract_y
	_atom_site_fract_z
	H0	H	0.410985	0.847807	0.703595
	H1	H	0.609428	0.175612	0.702439
	H2	H	0.610265	0.847253	0.275603
	H3	H	0.412182	0.175648	0.274663
	H4	H	0.725877	0.413709	0.826870
	H5	H	0.724957	0.610384	0.155157
	H6	H	0.297988	0.610824	0.827333
	H7	H	0.298003	0.413940	0.154556
	H8	H	0.845944	0.726106	0.393343
	H9	H	0.174729	0.728576	0.589179
	H10	H	0.847335	0.299866	0.588970
	H11	H	0.175271	0.298462	0.390383
	H12	H	0.847084	0.414431	0.705145
	H13	H	0.175617	0.612412	0.704461
	H14	H	0.847738	0.613968	0.274558
	H15	H	0.176004	0.415659	0.276551
	H16	H	0.412710	0.725644	0.826111
	H17	H	0.611864	0.729450	0.153378
	H18	H	0.611535	0.298542	0.826471
	H19	H	0.412913	0.296822	0.154051
	H20	H	0.726654	0.848471	0.389984
	H21	H	0.722246	0.176750	0.586100
	H22	H	0.295955	0.848475	0.587923
	H23	H	0.297744	0.176915	0.390675
	H24	H	0.912250	0.349779	0.206431
	H25	H	0.111748	0.678018	0.203655
	H26	H	0.109110	0.349452	0.777195
	H27	H	0.912745	0.677201	0.777468
	H28	H	0.224527	0.914433	0.325887
	H29	H	0.225244	0.112482	0.653628
	H30	H	0.796228	0.112368	0.325964
	H31	H	0.797056	0.915486	0.653283
	H32	H	0.347411	0.225641	0.891754
	H33	H	0.676153	0.225385	0.088477
	H34	H	0.347056	0.797905	0.087044
	H35	H	0.676038	0.798793	0.891457
	H36	H	0.347637	0.910593	0.205012
	H37	H	0.675275	0.110837	0.204913
	H38	H	0.346915	0.109426	0.775180
	H39	H	0.675951	0.913120	0.774709
	H40	H	0.912027	0.229181	0.326071
	H41	H	0.110262	0.228308	0.653534
	H42	H	0.110147	0.798673	0.326428
	H43	H	0.910837	0.799905	0.654089
	H44	H	0.224625	0.348852	0.892648
	H45	H	0.227966	0.676822	0.089813
	H46	H	0.798315	0.348178	0.090678
	H47	H	0.798397	0.677264	0.893587
	H48	H	0.427590	0.129074	0.590409
	H49	H	0.602305	0.892977	0.587390
	H50	H	0.607710	0.128801	0.400710
	H51	H	0.415026	0.895999	0.403467
	H52	H	0.615093	0.415898	0.112083
	H53	H	0.604861	0.602762	0.874251
	H54	H	0.426947	0.604837	0.105831
	H55	H	0.422018	0.409656	0.871383
	H56	H	0.128169	0.608400	0.403423
	H57	H	0.890215	0.607766	0.593732
	H58	H	0.131386	0.413214	0.584609
	H59	H	0.893196	0.415686	0.398491
	H60	H	0.125739	0.423730	0.577035
	H61	H	0.892740	0.614114	0.578436
	H62	H	0.127310	0.602605	0.395913
	H63	H	0.896804	0.424613	0.403255
	H64	H	0.418078	0.609807	0.109048
	H65	H	0.603331	0.607942	0.873532
	H66	H	0.602351	0.427500	0.104864
	H67	H	0.409083	0.420593	0.871260
	H68	H	0.604744	0.130549	0.390425
	H69	H	0.602008	0.895953	0.577633
	H70	H	0.420215	0.125247	0.571753
	H71	H	0.411481	0.892314	0.392053
	H72	H	0.931597	0.627285	0.087368
	H73	H	0.102266	0.398487	0.078142
	H74	H	0.106920	0.632431	0.894697
	H75	H	0.912469	0.394785	0.900964
	H76	H	0.098472	0.930398	0.603142
	H77	H	0.104813	0.113816	0.370451
	H78	H	0.909775	0.105987	0.607910
	H79	H	0.921364	0.933686	0.376678
	H80	H	0.628695	0.108402	0.899374
	H81	H	0.395277	0.102066	0.080451
	H82	H	0.628097	0.923704	0.083967
	H83	H	0.391361	0.913145	0.892348
	H84	H	0.629320	0.917749	0.083397
	H85	H	0.393703	0.103656	0.085095
	H86	H	0.626918	0.100590	0.895719
	H87	H	0.395627	0.917236	0.902012
	H88	H	0.922175	0.102205	0.604121
	H89	H	0.109025	0.100724	0.372907
	H90	H	0.097413	0.911671	0.608413
	H91	H	0.928936	0.910930	0.372815
	H92	H	0.102314	0.630589	0.898101
	H93	H	0.110154	0.394420	0.084901
	H94	H	0.916417	0.626528	0.069214
	H95	H	0.917973	0.393052	0.891150
	H96	H	0.408411	0.133296	0.585867
	H97	H	0.610789	0.892441	0.581744
	H98	H	0.597910	0.127288	0.397302
	H99	H	0.422987	0.895088	0.394414
	H100	H	0.597476	0.409756	0.108223
	H101	H	0.608168	0.606061	0.871896
	H102	H	0.416949	0.599738	0.107201
	H103	H	0.424177	0.426422	0.876985
	H104	H	0.130223	0.611150	0.394480
	H105	H	0.896672	0.597682	0.581998
	H106	H	0.129349	0.426102	0.590315
	H107	H	0.893998	0.425160	0.392759
	H108	H	0.909084	0.635177	0.090406
	H109	H	0.099605	0.395986	0.088562
	H110	H	0.107381	0.630340	0.900526
	H111	H	0.924636	0.398035	0.899951
	H112	H	0.114157	0.921283	0.609694
	H113	H	0.096013	0.103602	0.376532
	H114	H	0.918262	0.114284	0.608670
	H115	H	0.905396	0.917163	0.367914
	H116	H	0.631251	0.107166	0.890747
	H117	H	0.394058	0.106917	0.080469
	H118	H	0.627063	0.921329	0.078475
	H119	H	0.394882	0.923930	0.892475
	C120	C	0.389192	0.020736	0.611314
	C121	C	0.632746	1.002853	0.610240
	C122	C	0.632728	0.020346	0.367671
	C123	C	0.388717	1.003370	0.368004
	C124	C	0.633480	0.390192	-0.000511
	C125	C	0.633973	0.634375	0.981949
	C126	C	0.391384	0.633457	-0.000664
	C127	C	0.390020	0.390240	0.981427
	C128	C	0.020003	0.635905	0.368631
	C129	C	1.001822	0.635512	0.612857
	C130	C	0.020006	0.392251	0.612205
	C131	C	1.003013	0.392875	0.369464
	C132	C	0.890144	0.521395	0.112113
	C133	C	0.133790	0.504840	0.112243
	C134	C	0.133572	0.522377	0.869201
	C135	C	0.889886	0.504306	0.869089
	C136	C	0.131774	0.892268	0.498416
	C137	C	0.132422	0.135292	0.481485
	C138	C	0.888653	0.135856	0.498708
	C139	C	0.889481	0.892038	0.480928
	C140	C	0.520267	0.133350	0.867290
	C141	C	0.502801	0.133187	0.111141
	C142	C	0.519852	0.891025	0.110910
	C143	C	0.502703	0.889853	0.867313
	C144	C	0.391060	0.897049	0.665927
	C145	C	0.629820	0.126702	0.664906
	C146	C	0.630593	0.896779	0.312748
	C147	C	0.391757	0.126928	0.312716
	C148	C	0.687955	0.393708	0.875766
	C149	C	0.688332	0.631478	0.105550
	C150	C	0.335889	0.630895	0.875988
	C151	C	0.335285	0.392775	0.105361
	C152	C	0.895574	0.690013	0.371843
	C153	C	0.125651	0.690880	0.609887
	C154	C	0.896539	0.337088	0.609645
	C155	C	0.126578	0.336760	0.370630
	C156	C	0.896393	0.394415	0.667184
	C157	C	0.126262	0.632661	0.666853
	C158	C	0.896310	0.633954	0.313084
	C159	C	0.126942	0.395196	0.314243
	C160	C	0.393222	0.687847	0.875212
	C161	C	0.632250	0.690715	0.104892
	C162	C	0.631546	0.335721	0.875791
	C163	C	0.392295	0.334586	0.104991
	C164	C	0.688713	0.897346	0.369595
	C165	C	0.686122	0.127268	0.607068
	C166	C	0.333581	0.897466	0.608529
	C167	C	0.334792	0.127512	0.370380
	C168	C	0.892046	0.398451	0.168456
	C169	C	0.132047	0.628486	0.166915
	C170	C	0.130047	0.398531	0.814691
	C171	C	0.892392	0.627976	0.814891
	C172	C	0.186592	0.894471	0.374969
	C173	C	0.187523	0.132716	0.604664
	C174	C	0.833773	0.133125	0.375008
	C175	C	0.834643	0.894998	0.604439
	C176	C	0.396379	0.187812	0.870834
	C177	C	0.626678	0.187779	0.108737
	C178	C	0.396247	0.835196	0.108125
	C179	C	0.626962	0.835905	0.870419
	C180	C	0.396579	0.891358	0.166524
	C181	C	0.626149	0.131069	0.166908
	C182	C	0.396169	0.130044	0.812970
	C183	C	0.626668	0.892498	0.812283
	C184	C	0.891166	0.191198	0.375049
	C185	C	0.130294	0.190450	0.604530
	C186	C	0.130025	0.836474	0.375379
	C187	C	0.891075	0.837485	0.604725
	C188	C	0.187562	0.398320	0.872048
	C189	C	0.189975	0.627821	0.110108
	C190	C	0.835229	0.397754	0.110840
	C191	C	0.835336	0.627893	0.872628
	C192	C	0.411844	0.106876	0.589069
	C193	C	0.611261	0.916110	0.588509
	C194	C	0.610157	0.106738	0.389690
	C195	C	0.410084	0.916994	0.390081
	C196	C	0.611513	0.411468	0.086200
	C197	C	0.611895	0.612234	0.895505
	C198	C	0.414018	0.611431	0.085191
	C199	C	0.411957	0.412402	0.895442
	C200	C	0.106093	0.613682	0.391099
	C201	C	0.915399	0.613224	0.591150
	C202	C	0.106633	0.414510	0.590333
	C203	C	0.916964	0.415146	0.391545
	C204	C	0.912551	0.607539	0.089060
	C205	C	0.110760	0.418458	0.090261
	C206	C	0.112065	0.608835	0.891274
	C207	C	0.911943	0.417707	0.890931
	C208	C	0.109574	0.914611	0.584871
	C209	C	0.109989	0.112766	0.395282
	C210	C	0.910219	0.113858	0.584592
	C211	C	0.911922	0.914061	0.394635
	C212	C	0.606634	0.111769	0.888875
	C213	C	0.416347	0.110870	0.088608
	C214	C	0.605974	0.914143	0.088478
	C215	C	0.416313	0.911573	0.889105
	Zn216	Zn	0.512116	0.011149	0.738804
	Zn217	Zn	0.510605	0.011661	0.239794
	Zn218	Zn	0.761940	0.511453	-0.009014
	Zn219	Zn	0.262063	0.512584	-0.009348
	Zn220	Zn	0.010040	0.763812	0.490403
	Zn221	Zn	0.011283	0.264078	0.489876
	Zn222	Zn	0.011416	0.513385	0.740933
	Zn223	Zn	0.011797	0.514124	0.240285
	Zn224	Zn	0.511956	0.762348	-0.010396
	Zn225	Zn	0.511839	0.262132	-0.009913
	Zn226	Zn	0.761230	0.012386	0.489645
	Zn227	Zn	0.260640	0.013033	0.489478
	N228	N	0.425026	0.974786	0.667802
	N229	N	0.597548	0.048350	0.667090
	N230	N	0.596419	0.974347	0.311637
	N231	N	0.424413	0.048716	0.310897
	N232	N	0.689660	0.426409	0.953911
	N233	N	0.689515	0.597147	0.028024
	N234	N	0.334570	0.597601	0.953872
	N235	N	0.333514	0.426317	0.027634
	N236	N	0.973178	0.691203	0.405906
	N237	N	0.047399	0.692636	0.576938
	N238	N	0.974531	0.335580	0.576252
	N239	N	0.048599	0.335254	0.404162
	N240	N	0.974420	0.427738	0.669084
	N241	N	0.048213	0.599169	0.668971
	N242	N	0.974580	0.601198	0.310791
	N243	N	0.049224	0.429115	0.313011
	N244	N	0.427281	0.689501	0.952804
	N245	N	0.599418	0.692613	0.026901
	N246	N	0.598124	0.333570	0.953703
	N247	N	0.425643	0.332890	0.027095
	N248	N	0.690167	0.975218	0.403146
	N249	N	0.688160	0.049112	0.573997
	N250	N	0.332316	0.975459	0.575305
	N251	N	0.332685	0.049791	0.403996
	N252	N	0.925699	0.476360	0.169208
	N253	N	0.097521	0.550982	0.168090
	N254	N	0.097166	0.476603	0.812844
	N255	N	0.925503	0.550053	0.812782
	N256	N	0.187801	0.928453	0.452557
	N257	N	0.189016	0.099201	0.526854
	N258	N	0.832216	0.099330	0.452634
	N259	N	0.833413	0.928059	0.526485
	N260	N	0.474477	0.190109	0.903737
	N261	N	0.548956	0.188998	0.074637
	N262	N	0.474038	0.834850	0.074066
	N263	N	0.548867	0.833684	0.903563
	N264	N	0.474229	0.925324	0.168215
	N265	N	0.547994	0.097624	0.168422
	N266	N	0.474178	0.096862	0.810686
	N267	N	0.548494	0.925339	0.810399
	N268	N	0.924649	0.193065	0.452766
	N269	N	0.096906	0.192121	0.526749
	N270	N	0.096567	0.834940	0.453284
	N271	N	0.924629	0.835737	0.526946
	N272	N	0.189746	0.476320	0.905250
	N273	N	0.191034	0.549779	0.076858
	N274	N	0.833924	0.475257	0.076434
	N275	N	0.833554	0.549661	0.905565
	O276	O	0.983748	1.023759	-0.007598
	H277	H	0.985011	1.021900	-0.012680
	H278	H	0.993574	1.029528	-0.007925
	O279	O	0.042916	0.018592	0.977428
	H280	H	0.046547	0.024754	0.977655
	H281	H	0.031544	0.022212	0.980701
	O282	O	0.045330	0.087961	0.027803
	H283	H	0.029177	0.083065	0.023925
	H284	H	0.050121	0.087787	0.023305
	O285	O	0.537004	0.510771	0.501584
	H286	H	0.541755	0.517234	0.497110
	H287	H	0.542893	0.513176	0.509618
	O288	O	-1.038801	-1.025799	-0.016382
	H289	H	-1.042416	-1.029125	-0.025820
	H290	H	-1.035147	-1.030444	-0.018183
	O291	O	0.026754	1.075847	0.056903
	H292	H	0.025859	1.067396	0.055992
	H293	H	0.017181	1.083024	0.061361
	O294	O	0.008558	1.044782	-0.042407
	H295	H	-0.000749	1.041061	-0.032978
	H296	H	0.009241	1.046515	-0.040827
	O297	O	0.574082	0.443824	0.449441
	H298	H	0.574687	0.445167	0.454167
	H299	H	0.570175	0.430733	0.436944
	O300	O	1.117312	0.055017	0.010666
	H301	H	1.121673	0.047822	0.020250
	H302	H	1.118642	0.066942	0.012256
	O303	O	0.919620	0.056475	0.996040
	H304	H	0.907207	0.059492	0.990917
	H305	H	0.929194	0.053803	0.992104
	O306	O	-0.016490	1.055751	0.969155
	H307	H	-0.021571	1.053830	0.973986
	H308	H	-0.016038	1.056443	0.963126
	O309	O	0.058386	1.053045	0.970106
	H310	H	0.063001	1.063364	0.968312
	H311	H	0.058216	1.051329	0.966402
	O312	O	-0.026709	-0.065047	0.998196
	H313	H	-0.025465	-0.070424	0.999862
	H314	H	-0.024766	-0.065339	1.003661
	O315	O	0.527053	0.422407	0.567377
	H316	H	0.521026	0.416948	0.568931
	H317	H	0.518811	0.419956	0.564605
	O318	O	0.047954	0.030922	0.980786
	H319	H	0.046862	0.034306	0.983602
	H320	H	0.054144	0.024998	0.982327
	O321	O	0.464792	0.428643	0.519668
	H322	H	0.468625	0.419750	0.524796
	H323	H	0.455144	0.418673	0.524771
	O324	O	0.495577	-0.472752	1.526815
	H325	H	0.501118	-0.462156	1.528192
	H326	H	0.495435	-0.471187	1.522365
	O327	O	1.008163	1.001929	0.963440
	H328	H	1.015611	1.007551	0.968328
	H329	H	1.010630	0.999164	0.970055
	O330	O	0.028568	-0.000825	1.011011
	H331	H	0.020307	0.002582	1.001512
	H332	H	0.028256	-0.004277	1.021493
	O333	O	0.469034	0.499121	0.519936
	H334	H	0.464504	0.498605	0.517940
	H335	H	0.470401	0.498972	0.512877
	O336	O	0.530599	0.467041	0.573262
	H337	H	0.526129	0.474386	0.572977
	H338	H	0.531186	0.476326	0.572678
	O339	O	0.512412	0.516538	0.503971
	H340	H	0.512767	0.504892	0.506653
	H341	H	0.516567	0.515587	0.511474
	O342	O	0.524298	0.530207	0.491165
	H343	H	0.520528	0.532620	0.490880
	H344	H	0.515174	0.524786	0.484601
	O345	O	0.464229	0.471974	0.553220
	H346	H	0.467219	0.470125	0.559650
	H347	H	0.457011	0.478946	0.563524
