data_Molecule from HDF5

_cell_length_a		16.484171
_cell_length_b		16.449601
_cell_length_c		16.515029
_cell_angle_alpha	90.047203
_cell_angle_beta	89.914612
_cell_angle_gamma	90.030697
_symmetry_space_group_name_H-M	'P 1'
_symmetry_Int_Tables_number		1

loop_
	_symmetry_equiv_pos_as_xyz
	x,y,z

loop_
	_atom_site_label
	_atom_site_type_symbol
	_atom_site_fract_x
	_atom_site_fract_y
	_atom_site_fract_z
	H0	H	0.393452	0.846332	0.747216
	H1	H	0.607399	0.160811	0.749339
	H2	H	0.605226	0.845650	0.305485
	H3	H	0.397071	0.161703	0.304205
	H4	H	0.724612	0.397000	0.867934
	H5	H	0.723841	0.611015	0.181003
	H6	H	0.280078	0.608333	0.867627
	H7	H	0.280479	0.401272	0.181850
	H8	H	0.843254	0.727880	0.418631
	H9	H	0.157954	0.727029	0.629794
	H10	H	0.843472	0.281409	0.633199
	H11	H	0.156886	0.284802	0.421268
	H12	H	0.845948	0.394865	0.752171
	H13	H	0.158113	0.611134	0.746688
	H14	H	0.844193	0.613017	0.300360
	H15	H	0.158389	0.402900	0.305971
	H16	H	0.395846	0.725432	0.867169
	H17	H	0.606905	0.726311	0.181506
	H18	H	0.606673	0.282172	0.867390
	H19	H	0.397678	0.284097	0.182606
	H20	H	0.721425	0.846857	0.421825
	H21	H	0.723369	0.162244	0.632518
	H22	H	0.278703	0.845881	0.629856
	H23	H	0.278745	0.160740	0.420244
	H24	H	0.895841	0.345973	0.246637
	H25	H	0.103729	0.663498	0.243886
	H26	H	0.105305	0.347619	0.803906
	H27	H	0.893610	0.661867	0.802383
	H28	H	0.219919	0.900350	0.367251
	H29	H	0.221259	0.109415	0.682227
	H30	H	0.779539	0.110870	0.366940
	H31	H	0.779466	0.901444	0.683217
	H32	H	0.343166	0.223817	0.922194
	H33	H	0.660180	0.226156	0.130826
	H34	H	0.342239	0.786753	0.126056
	H35	H	0.658783	0.782598	0.918330
	H36	H	0.342495	0.902034	0.243514
	H37	H	0.659767	0.111384	0.247843
	H38	H	0.343584	0.108416	0.804519
	H39	H	0.657527	0.897490	0.800852
	H40	H	0.896800	0.225326	0.366396
	H41	H	0.105371	0.226496	0.681553
	H42	H	0.103020	0.784986	0.366869
	H43	H	0.895098	0.784318	0.683444
	H44	H	0.220214	0.346177	0.922104
	H45	H	0.220840	0.663104	0.127627
	H46	H	0.778551	0.345968	0.132307
	H47	H	0.779259	0.661553	0.919614
	H48	H	0.407568	0.117039	0.612376
	H49	H	0.592821	0.892825	0.609381
	H50	H	0.587109	0.116838	0.435063
	H51	H	0.415538	0.892235	0.434566
	H52	H	0.584584	0.415815	0.134410
	H53	H	0.594579	0.585476	0.913273
	H54	H	0.406454	0.594274	0.138824
	H55	H	0.411516	0.407712	0.909252
	H56	H	0.113122	0.594039	0.435125
	H57	H	0.887880	0.589548	0.618374
	H58	H	0.114412	0.409709	0.613174
	H59	H	0.884714	0.411494	0.434153
	H60	H	0.109152	0.418905	0.606476
	H61	H	0.886523	0.598216	0.612967
	H62	H	0.112528	0.594389	0.435414
	H63	H	0.887891	0.416899	0.438609
	H64	H	0.413109	0.589859	0.135432
	H65	H	0.582378	0.592747	0.914799
	H66	H	0.591107	0.411839	0.138451
	H67	H	0.405605	0.415654	0.910415
	H68	H	0.590686	0.117087	0.438450
	H69	H	0.588111	0.891184	0.617969
	H70	H	0.411318	0.118280	0.618609
	H71	H	0.408386	0.890925	0.439270
	H72	H	0.910030	0.615923	0.110639
	H73	H	0.087154	0.391740	0.115829
	H74	H	0.085917	0.617084	0.935732
	H75	H	0.912489	0.391789	0.936961
	H76	H	0.095157	0.916998	0.639012
	H77	H	0.096935	0.093609	0.410207
	H78	H	0.906258	0.086501	0.636876
	H79	H	0.907240	0.915867	0.411393
	H80	H	0.610470	0.091237	0.946348
	H81	H	0.386981	0.093189	0.122967
	H82	H	0.613259	0.921428	0.115040
	H83	H	0.387592	0.913354	0.935174
	H84	H	0.618281	0.912263	0.120420
	H85	H	0.389121	0.100537	0.110784
	H86	H	0.611807	0.082757	0.932303
	H87	H	0.388652	0.914415	0.935909
	H88	H	0.919433	0.093361	0.634112
	H89	H	0.086493	0.087447	0.415407
	H90	H	0.085965	0.918887	0.635831
	H91	H	0.912599	0.919356	0.414449
	H92	H	0.093197	0.617818	0.939901
	H93	H	0.094166	0.390737	0.112282
	H94	H	0.911783	0.617026	0.115994
	H95	H	0.915107	0.392556	0.936452
	H96	H	0.414551	0.114747	0.612458
	H97	H	0.583548	0.895291	0.610526
	H98	H	0.591568	0.118978	0.434109
	H99	H	0.409001	0.887966	0.431088
	H100	H	0.591786	0.420162	0.136480
	H101	H	0.593445	0.599124	0.908845
	H102	H	0.413699	0.598498	0.137676
	H103	H	0.415156	0.415599	0.913505
	H104	H	0.112572	0.593954	0.435688
	H105	H	0.891504	0.590104	0.609344
	H106	H	0.112448	0.421671	0.618262
	H107	H	0.886067	0.418381	0.431773
	H108	H	0.915446	0.614760	0.112680
	H109	H	0.093119	0.388926	0.120289
	H110	H	0.092838	0.620932	0.931586
	H111	H	0.914053	0.393068	0.939530
	H112	H	0.087774	0.909687	0.640190
	H113	H	0.085676	0.099999	0.411545
	H114	H	0.908528	0.101223	0.640361
	H115	H	0.913477	0.912340	0.412919
	H116	H	0.617548	0.098023	0.932843
	H117	H	0.392883	0.086704	0.111104
	H118	H	0.614152	0.911232	0.109276
	H119	H	0.387854	0.915145	0.934398
	C120	C	0.378632	0.012072	0.646523
	C121	C	0.621280	0.996587	0.646285
	C122	C	0.621832	0.013117	0.404244
	C123	C	0.379607	0.994998	0.403633
	C124	C	0.622636	0.382577	0.032957
	C125	C	0.622714	0.625140	1.016001
	C126	C	0.379467	0.625602	0.033124
	C127	C	0.379579	0.382152	1.015923
	C128	C	0.008635	0.626653	0.403064
	C129	C	0.992016	0.625971	0.646513
	C130	C	0.008736	0.382949	0.646756
	C131	C	0.990840	0.384573	0.403876
	C132	C	0.879259	0.512243	0.146473
	C133	C	0.122252	0.495988	0.146588
	C134	C	0.122435	0.513704	0.903722
	C135	C	0.880390	0.496118	0.904237
	C136	C	0.121129	0.883201	0.533870
	C137	C	0.121900	0.126062	0.516321
	C138	C	0.879224	0.126509	0.533025
	C139	C	0.878613	0.883564	0.517194
	C140	C	0.509350	0.123908	0.904686
	C141	C	0.493563	0.126573	0.147647
	C142	C	0.510186	0.883573	0.145974
	C143	C	0.492314	0.881896	0.902677
	C144	C	0.375853	0.893695	0.706743
	C145	C	0.625030	0.114404	0.708169
	C146	C	0.623828	0.893515	0.345122
	C147	C	0.378074	0.114266	0.344090
	C148	C	0.683981	0.379071	0.915021
	C149	C	0.683208	0.628254	0.134102
	C150	C	0.319850	0.626971	0.914626
	C151	C	0.320403	0.381660	0.134833
	C152	C	0.890391	0.687601	0.400476
	C153	C	0.110523	0.686907	0.648478
	C154	C	0.891150	0.321420	0.650994
	C155	C	0.110119	0.325203	0.402715
	C156	C	0.892063	0.378207	0.710179
	C157	C	0.110755	0.629153	0.706562
	C158	C	0.890875	0.630422	0.341666
	C159	C	0.110692	0.383480	0.345254
	C160	C	0.377624	0.685116	0.914494
	C161	C	0.625241	0.686012	0.134299
	C162	C	0.625454	0.321954	0.914730
	C163	C	0.378664	0.323716	0.135045
	C164	C	0.681761	0.893937	0.402772
	C165	C	0.682700	0.114864	0.650203
	C166	C	0.318685	0.893291	0.648272
	C167	C	0.319249	0.113715	0.401479
	C168	C	0.876892	0.393550	0.206964
	C169	C	0.123248	0.615758	0.204972
	C170	C	0.124254	0.394676	0.843950
	C171	C	0.876514	0.614346	0.843071
	C172	C	0.180713	0.881492	0.415050
	C173	C	0.181569	0.128216	0.634858
	C174	C	0.819567	0.128696	0.414171
	C175	C	0.819255	0.882644	0.635976
	C176	C	0.390752	0.184170	0.903162
	C177	C	0.612483	0.186527	0.149604
	C178	C	0.390245	0.825643	0.145588
	C179	C	0.611137	0.822324	0.899860
	C180	C	0.390372	0.882987	0.204241
	C181	C	0.612259	0.129125	0.207859
	C182	C	0.390633	0.126578	0.844887
	C183	C	0.610504	0.879574	0.841452
	C184	C	0.877773	0.186078	0.414059
	C185	C	0.123781	0.186377	0.634496
	C186	C	0.122441	0.824061	0.414718
	C187	C	0.876556	0.824144	0.636022
	C188	C	0.181161	0.394049	0.902516
	C189	C	0.181389	0.615544	0.147221
	C190	C	0.818611	0.393500	0.149845
	C191	C	0.819383	0.614418	0.901530
	C192	C	0.403967	0.095346	0.621633
	C193	C	0.595496	0.914468	0.620011
	C194	C	0.596895	0.096032	0.428761
	C195	C	0.404050	0.912039	0.427922
	C196	C	0.596822	0.408700	0.115028
	C197	C	0.597431	0.599706	0.933705
	C198	C	0.404002	0.601134	0.115863
	C199	C	0.403670	0.406173	0.932708
	C200	C	0.091136	0.601277	0.428248
	C201	C	0.910026	0.599960	0.621065
	C202	C	0.090678	0.409432	0.620275
	C203	C	0.907970	0.408716	0.427763
	C204	C	0.904849	0.594544	0.120486
	C205	C	0.098213	0.412440	0.122848
	C206	C	0.097806	0.596789	0.928657
	C207	C	0.906584	0.413776	0.930327
	C208	C	0.096642	0.907774	0.616813
	C209	C	0.096966	0.100880	0.433842
	C210	C	0.904157	0.101133	0.615525
	C211	C	0.903978	0.908460	0.434516
	C212	C	0.591777	0.098131	0.929933
	C213	C	0.411219	0.100882	0.122289
	C214	C	0.593496	0.907893	0.121898
	C215	C	0.409482	0.907015	0.927956
	Zn216	Zn	0.500177	0.003822	0.774650
	Zn217	Zn	0.501935	0.004097	0.275298
	Zn218	Zn	0.751512	0.503194	0.024758
	Zn219	Zn	0.250646	0.504426	0.024615
	Zn220	Zn	-0.000323	0.754810	0.525316
	Zn221	Zn	0.000172	0.254914	0.524609
	Zn222	Zn	0.000965	0.504915	0.775661
	Zn223	Zn	0.000369	0.504904	0.274573
	Zn224	Zn	0.501519	0.754473	0.024367
	Zn225	Zn	0.502094	0.253642	0.024970
	Zn226	Zn	0.750361	0.005500	0.525135
	Zn227	Zn	0.250083	0.004157	0.525423
	N228	N	0.412456	0.968713	0.705682
	N229	N	0.587512	0.039953	0.705698
	N230	N	0.587571	0.968688	0.345720
	N231	N	0.414669	0.039464	0.345171
	N232	N	0.682615	0.415698	0.989824
	N233	N	0.682103	0.591380	0.059484
	N234	N	0.321147	0.590537	0.989339
	N235	N	0.320810	0.417187	0.059619
	N236	N	0.964533	0.685191	0.438132
	N237	N	0.035687	0.685291	0.611895
	N238	N	0.964793	0.324343	0.612120
	N239	N	0.034805	0.325598	0.438318
	N240	N	0.966365	0.415769	0.707584
	N241	N	0.036071	0.592043	0.705460
	N242	N	0.965424	0.593241	0.343157
	N243	N	0.035726	0.419644	0.345820
	N244	N	0.414004	0.684426	0.989171
	N245	N	0.588320	0.684279	0.059864
	N246	N	0.588095	0.324112	0.989048
	N247	N	0.414733	0.323981	0.060023
	N248	N	0.680843	0.969321	0.438461
	N249	N	0.680387	0.040655	0.612116
	N250	N	0.320458	0.968136	0.611444
	N251	N	0.319911	0.038604	0.437721
	N252	N	0.913528	0.468563	0.205441
	N253	N	0.087381	0.540352	0.204708
	N254	N	0.088672	0.470101	0.844653
	N255	N	0.913737	0.539693	0.844745
	N256	N	0.180196	0.917295	0.490238
	N257	N	0.180566	0.091545	0.560288
	N258	N	0.819953	0.092639	0.489230
	N259	N	0.820269	0.918609	0.560922
	N260	N	0.465647	0.182654	0.939531
	N261	N	0.537841	0.184935	0.112775
	N262	N	0.465830	0.825579	0.110364
	N263	N	0.536746	0.823801	0.937120
	N264	N	0.466047	0.918104	0.204659
	N265	N	0.537098	0.092702	0.207116
	N266	N	0.465506	0.089880	0.845652
	N267	N	0.535251	0.915646	0.842915
	N268	N	0.913914	0.184835	0.489019
	N269	N	0.087214	0.184948	0.559870
	N270	N	0.086307	0.824929	0.489729
	N271	N	0.912597	0.824516	0.560951
	N272	N	0.180200	0.469229	0.938924
	N273	N	0.181314	0.539819	0.112053
	N274	N	0.819777	0.468447	0.113141
	N275	N	0.821885	0.539842	0.938996
	O276	O	0.206012	0.209988	0.229373
	H277	H	0.187122	0.202352	0.216173
	H278	H	0.237207	0.243457	0.262014
	O279	O	0.994147	0.865543	0.220170
	H280	H	1.002912	0.861278	0.219115
	H281	H	1.013973	0.876156	0.215600
	O282	O	0.467314	0.392301	0.619485
	H283	H	0.465418	0.400893	0.622299
	H284	H	0.468814	0.390200	0.630816
	O285	O	0.474157	0.295947	0.730879
	H286	H	0.454586	0.309005	0.730538
	H287	H	0.477690	0.278915	0.739595
	O288	O	0.088105	0.134515	-0.096061
	H289	H	0.094193	0.122548	-0.082756
	H290	H	0.095820	0.143384	-0.106753
	O291	O	1.212122	1.037068	0.235449
	H292	H	1.223198	1.045636	0.239674
	H293	H	1.216251	1.054689	0.246917
	O294	O	-0.017952	1.087762	-0.167116
	H295	H	-0.008458	1.081987	-0.166446
	H296	H	-0.011848	1.096011	-0.162283
	O297	O	0.515801	0.280199	0.536439
	H298	H	0.508542	0.276682	0.549595
	H299	H	0.532011	0.280296	0.535663
	O300	O	0.309185	0.316607	0.337303
	H301	H	0.332016	0.330659	0.354656
	H302	H	0.323264	0.336256	0.359145
	O303	O	0.551064	0.676024	0.731821
	H304	H	0.562501	0.668141	0.723109
	H305	H	0.540964	0.695125	0.746471
	O306	O	0.043707	1.077245	0.933129
	H307	H	0.054921	1.073220	0.930938
	H308	H	0.053576	1.086195	0.946812
	O309	O	0.466035	0.722912	0.300155
	H310	H	0.431311	0.719664	0.300602
	H311	H	0.452802	0.749558	0.276526
	O312	O	0.091764	0.956098	0.096020
	H313	H	0.074322	0.960439	0.090456
	H314	H	0.098347	0.969141	0.110380
	O315	O	-0.168573	0.063237	1.030502
	H316	H	-0.164615	0.057506	1.046323
	H317	H	-0.174290	0.088264	1.029513
	O318	O	0.338292	0.565236	0.578179
	H319	H	0.327490	0.590624	0.565834
	H320	H	0.349068	0.550116	0.563003
	O321	O	0.634725	0.512749	0.667654
	H322	H	0.639277	0.503058	0.656409
	H323	H	0.649487	0.508228	0.669197
	O324	O	0.681881	0.483269	0.554066
	H325	H	0.682833	0.473246	0.553730
	H326	H	0.689298	0.461059	0.548043
	O327	O	1.213289	0.216709	1.054931
	H328	H	1.233236	0.227765	1.059849
	H329	H	1.205928	0.223288	1.072234
	O330	O	0.300738	0.300068	-0.275105
	H331	H	0.297566	0.345189	-0.271269
	H332	H	0.297828	0.288172	-0.255349
	O333	O	1.160253	1.148463	0.898239
	H334	H	1.168237	1.130204	0.907872
	H335	H	1.144766	1.137331	0.901780
	O336	O	0.303058	-0.406730	0.727221
	H337	H	0.305723	-0.408808	0.713419
	H338	H	0.293692	-0.408654	0.733605
	O339	O	0.471139	0.483844	0.309122
	H340	H	0.474541	0.502048	0.306668
	H341	H	0.477393	0.478875	0.320388
	O342	O	0.805621	0.197233	-0.169662
	H343	H	0.811014	0.172067	-0.178789
	H344	H	0.829322	0.185243	-0.172741
	O345	O	0.714710	0.720655	0.556166
	H346	H	0.739476	0.729337	0.551273
	H347	H	0.717715	0.717376	0.560330
	O348	O	1.192194	-0.185381	0.849163
	H349	H	1.195674	-0.199162	0.853344
	H350	H	1.154764	-0.191482	0.847259
	O351	O	0.934712	1.029320	0.221781
	H352	H	0.919984	1.028005	0.214277
	H353	H	0.916443	1.029468	0.227043
	O354	O	0.501252	0.571879	0.326306
	H355	H	0.489211	0.568161	0.326465
	H356	H	0.497363	0.591242	0.329058
	O357	O	0.830140	0.959353	1.036033
	H358	H	0.836169	0.970344	1.068731
	H359	H	0.825722	0.931689	1.047609
	O360	O	0.292150	0.549585	0.335352
	H361	H	0.307846	0.542298	0.328145
	H362	H	0.280958	0.544559	0.326373
	O363	O	1.032961	0.216073	0.216263
	H364	H	1.023200	0.224410	0.225054
	H365	H	1.047456	0.221975	0.213408
	O366	O	0.784250	0.210791	1.000731
	H367	H	0.764853	0.236725	0.994116
	H368	H	0.786587	0.208140	0.962644
	O369	O	0.617721	0.335651	-0.330767
	H370	H	0.608131	0.337559	-0.328438
	H371	H	0.617249	0.327616	-0.317280
	O372	O	0.524174	0.304809	0.322862
	H373	H	0.533705	0.297268	0.325260
	H374	H	0.516570	0.287098	0.324998
	O375	O	-0.519472	0.591566	1.554747
	H376	H	-0.508773	0.593054	1.569276
	H377	H	-0.499289	0.589785	1.546116
	O378	O	0.332101	0.692478	0.336390
	H379	H	0.321754	0.675380	0.361019
	H380	H	0.306831	0.695010	0.313202
	O381	O	1.208979	-0.031703	-0.174262
	H382	H	1.212672	-0.046142	-0.173116
	H383	H	1.219198	-0.052582	-0.182505
	O384	O	-0.026527	0.136117	1.044741
	H385	H	-0.035240	0.141028	1.049293
	H386	H	-0.049027	0.136538	1.045557
	O387	O	0.001585	0.860494	1.085883
	H388	H	0.015386	0.871332	1.074715
	H389	H	0.011989	0.863191	1.088704
	O390	O	-0.210071	-0.024372	1.238987
	H391	H	-0.207174	-0.044830	1.229769
	H392	H	-0.226356	-0.028018	1.262545
	O393	O	0.527594	0.545990	-0.428685
	H394	H	0.532517	0.547338	-0.435246
	H395	H	0.531711	0.550594	-0.424266
	O396	O	0.704054	0.485384	0.317678
	H397	H	0.711923	0.491265	0.305122
	H398	H	0.687588	0.494606	0.305968
	O399	O	0.599001	0.508079	0.564530
	H400	H	0.602040	0.508492	0.571005
	H401	H	0.592187	0.503454	0.562530
	O402	O	-0.064619	-0.099242	0.828582
	H403	H	-0.061552	-0.070430	0.828789
	H404	H	-0.088553	-0.108909	0.825097
	O405	O	0.114840	-0.035454	0.156406
	H406	H	0.101599	-0.017119	0.151562
	H407	H	0.125061	-0.015307	0.166943
	O408	O	0.805960	0.811900	0.221419
	H409	H	0.815205	0.821040	0.201713
	H410	H	0.809226	0.788919	0.246596
	O411	O	0.078165	0.902920	0.134017
	H412	H	0.065659	0.922624	0.129398
	H413	H	0.069803	0.906515	0.120252
	O414	O	0.314063	0.477529	0.623188
	H415	H	0.304935	0.485638	0.620680
	H416	H	0.313444	0.484348	0.623527
	O417	O	0.306467	0.717592	0.494463
	H418	H	0.305199	0.724234	0.495952
	H419	H	0.296024	0.732239	0.485697
	O420	O	0.665442	0.654827	0.679032
	H421	H	0.667643	0.623705	0.677467
	H422	H	0.648902	0.654848	0.666989
	O423	O	0.203765	0.802672	0.017847
	H424	H	0.211452	0.823063	0.013429
	H425	H	0.208609	0.789472	0.010955
	O426	O	1.046143	1.090946	0.942858
	H427	H	1.033783	1.097687	0.949918
	H428	H	1.059838	1.072060	0.938867
	O429	O	0.719072	0.287377	0.497258
	H430	H	0.726260	0.270805	0.486129
	H431	H	0.725718	0.279890	0.489473
	O432	O	0.682620	0.320751	0.339822
	H433	H	0.658926	0.311200	0.337666
	H434	H	0.693325	0.358231	0.341385
	O435	O	0.015654	0.090469	0.019991
	H436	H	0.007133	0.095651	0.023648
	H437	H	0.013804	0.094009	0.003393
	O438	O	1.016562	-0.196924	-0.170341
	H439	H	1.009224	-0.207617	-0.190973
	H440	H	1.000300	-0.187893	-0.159653
	O441	O	0.843008	0.805458	0.077541
	H442	H	0.838732	0.794138	0.072752
	H443	H	0.833781	0.797423	0.094628
	O444	O	0.573504	0.531363	0.731357
	H445	H	0.578413	0.529785	0.736890
	H446	H	0.584930	0.522347	0.722504
	O447	O	0.495757	0.690490	0.565245
	H448	H	0.505643	0.702899	0.570622
	H449	H	0.502326	0.691828	0.553130
	O450	O	0.541744	0.619434	0.515095
	H451	H	0.539067	0.631091	0.515010
	H452	H	0.530354	0.627344	0.522580
	O453	O	0.689458	0.663360	0.371421
	H454	H	0.671775	0.643336	0.370145
	H455	H	0.683510	0.660606	0.389030
	O456	O	0.939828	-0.152794	-0.051350
	H457	H	0.940394	-0.152114	-0.042870
	H458	H	0.935531	-0.151147	-0.054282
	O459	O	0.348498	0.418024	0.477295
	H460	H	0.352668	0.413737	0.474376
	H461	H	0.346427	0.416722	0.480830
	O462	O	0.290230	0.296165	0.544672
	H463	H	0.288305	0.290134	0.561543
	H464	H	0.282111	0.287880	0.575289
	O465	O	0.795971	0.006976	-0.148011
	H466	H	0.789237	-0.018834	-0.122850
	H467	H	0.785496	0.001991	-0.157226
