data_Molecule from HDF5

_cell_length_a		16.480530
_cell_length_b		16.221539
_cell_length_c		15.944828
_cell_angle_alpha	89.872217
_cell_angle_beta	90.253564
_cell_angle_gamma	90.410592
_symmetry_space_group_name_H-M	'P 1'
_symmetry_Int_Tables_number		1

loop_
	_symmetry_equiv_pos_as_xyz
	x,y,z

loop_
	_atom_site_label
	_atom_site_type_symbol
	_atom_site_fract_x
	_atom_site_fract_y
	_atom_site_fract_z
	H0	H	0.400080	0.832055	0.706906
	H1	H	0.592456	0.163225	0.704790
	H2	H	0.587310	0.832015	0.285364
	H3	H	0.401962	0.163156	0.282459
	H4	H	0.710794	0.398508	0.830412
	H5	H	0.715363	0.600096	0.161685
	H6	H	0.281063	0.600659	0.832796
	H7	H	0.284316	0.395371	0.162734
	H8	H	0.834810	0.711841	0.393761
	H9	H	0.157198	0.717602	0.599368
	H10	H	0.836087	0.277606	0.596915
	H11	H	0.157986	0.280150	0.394650
	H12	H	0.834496	0.397612	0.710449
	H13	H	0.160152	0.594990	0.710567
	H14	H	0.834428	0.591993	0.281062
	H15	H	0.160098	0.402167	0.283495
	H16	H	0.400664	0.707659	0.829718
	H17	H	0.597117	0.710712	0.163490
	H18	H	0.591921	0.290156	0.827447
	H19	H	0.401538	0.284539	0.162240
	H20	H	0.713601	0.835149	0.389797
	H21	H	0.717038	0.158826	0.599916
	H22	H	0.277107	0.835816	0.598839
	H23	H	0.278013	0.160229	0.389412
	H24	H	0.903447	0.332390	0.206035
	H25	H	0.095512	0.663103	0.208661
	H26	H	0.091504	0.331746	0.786095
	H27	H	0.904016	0.662519	0.783795
	H28	H	0.209723	0.896769	0.329691
	H29	H	0.213877	0.101926	0.659415
	H30	H	0.780637	0.098680	0.329935
	H31	H	0.780128	0.892924	0.660633
	H32	H	0.336441	0.215414	0.891602
	H33	H	0.658758	0.216100	0.096694
	H34	H	0.336494	0.777187	0.097686
	H35	H	0.658600	0.781779	0.894702
	H36	H	0.333220	0.899630	0.206892
	H37	H	0.659068	0.096285	0.211712
	H38	H	0.335048	0.093267	0.779926
	H39	H	0.660009	0.901888	0.781416
	H40	H	0.897684	0.210239	0.329564
	H41	H	0.095953	0.209291	0.661621
	H42	H	0.090462	0.786707	0.328373
	H43	H	0.897881	0.782413	0.662028
	H44	H	0.215357	0.335389	0.893825
	H45	H	0.220316	0.658842	0.103897
	H46	H	0.778319	0.336037	0.101624
	H47	H	0.780707	0.660463	0.890973
	H48	H	0.396735	0.115518	0.582322
	H49	H	0.588698	0.882719	0.579112
	H50	H	0.596516	0.115654	0.406498
	H51	H	0.396463	0.880940	0.407593
	H52	H	0.582384	0.404430	0.115036
	H53	H	0.588809	0.585227	0.880070
	H54	H	0.399410	0.579960	0.116698
	H55	H	0.400691	0.416683	0.877862
	H56	H	0.112039	0.589317	0.401462
	H57	H	0.878368	0.597332	0.591919
	H58	H	0.111449	0.404059	0.587314
	H59	H	0.882360	0.398922	0.406124
	H60	H	0.112424	0.403970	0.592353
	H61	H	0.884717	0.589496	0.579389
	H62	H	0.114198	0.599024	0.401171
	H63	H	0.882758	0.405290	0.400211
	H64	H	0.417509	0.584824	0.112142
	H65	H	0.588225	0.594679	0.876065
	H66	H	0.596344	0.402057	0.118866
	H67	H	0.411743	0.406421	0.879032
	H68	H	0.589835	0.115634	0.400662
	H69	H	0.596403	0.876938	0.587663
	H70	H	0.403615	0.117342	0.592240
	H71	H	0.398724	0.879824	0.401022
	H72	H	0.904769	0.614487	0.082413
	H73	H	0.090714	0.380315	0.092090
	H74	H	0.086517	0.612098	0.907936
	H75	H	0.898758	0.380606	0.906071
	H76	H	0.092507	0.907146	0.616219
	H77	H	0.096570	0.082570	0.375308
	H78	H	0.908287	0.087271	0.613952
	H79	H	0.889322	0.905784	0.372336
	H80	H	0.613947	0.095422	0.900716
	H81	H	0.379732	0.096193	0.088837
	H82	H	0.613416	0.899918	0.089370
	H83	H	0.382988	0.905437	0.901469
	H84	H	0.610507	0.906748	0.085203
	H85	H	0.384105	0.092495	0.079837
	H86	H	0.613571	0.096874	0.901677
	H87	H	0.380994	0.899159	0.899320
	H88	H	0.903011	0.086524	0.615623
	H89	H	0.079301	0.083285	0.379061
	H90	H	0.087454	0.911404	0.612769
	H91	H	0.908124	0.917035	0.381447
	H92	H	0.096612	0.614488	0.911020
	H93	H	0.088865	0.381730	0.084628
	H94	H	0.901154	0.617142	0.088087
	H95	H	0.901188	0.379325	0.903974
	H96	H	0.407883	0.111907	0.582105
	H97	H	0.584818	0.879935	0.590699
	H98	H	0.588863	0.112867	0.408592
	H99	H	0.403185	0.881712	0.404894
	H100	H	0.592817	0.415240	0.113362
	H101	H	0.596436	0.588978	0.875508
	H102	H	0.405134	0.596760	0.120261
	H103	H	0.398489	0.401605	0.873505
	H104	H	0.111576	0.594291	0.409411
	H105	H	0.883221	0.582125	0.593819
	H106	H	0.112822	0.400524	0.589584
	H107	H	0.879645	0.397930	0.398453
	H108	H	0.907758	0.615249	0.088368
	H109	H	0.096181	0.380606	0.085857
	H110	H	0.093001	0.616336	0.900670
	H111	H	0.902156	0.380752	0.907427
	H112	H	0.086158	0.904571	0.615221
	H113	H	0.087246	0.098629	0.373346
	H114	H	0.905539	0.082429	0.613040
	H115	H	0.909392	0.894460	0.374442
	H116	H	0.612708	0.094624	0.902452
	H117	H	0.383395	0.085345	0.088194
	H118	H	0.612719	0.906074	0.094213
	H119	H	0.382736	0.900026	0.905501
	C120	C	0.373935	0.006491	0.616137
	C121	C	0.618901	0.988370	0.615943
	C122	C	0.618011	0.006246	0.375163
	C123	C	0.372707	0.989334	0.374015
	C124	C	0.618196	0.378480	0.005137
	C125	C	0.620066	0.619180	0.987292
	C126	C	0.377513	0.617470	0.006423
	C127	C	0.376191	0.377706	0.986967
	C128	C	0.005433	0.620323	0.373782
	C129	C	0.988553	0.619781	0.618728
	C130	C	0.005402	0.373265	0.618873
	C131	C	0.988783	0.374057	0.373567
	C132	C	0.876142	0.506843	0.116591
	C133	C	0.120883	0.489102	0.118274
	C134	C	0.119728	0.506165	0.876251
	C135	C	0.874519	0.488833	0.875107
	C136	C	0.116656	0.877803	0.504673
	C137	C	0.117517	0.118015	0.485649
	C138	C	0.875928	0.116335	0.504480
	C139	C	0.874199	0.875599	0.486271
	C140	C	0.506217	0.122343	0.872013
	C141	C	0.488746	0.120730	0.116836
	C142	C	0.505328	0.874534	0.118550
	C143	C	0.489290	0.874780	0.873456
	C144	C	0.378220	0.882318	0.670894
	C145	C	0.614860	0.112947	0.669548
	C146	C	0.611232	0.881720	0.320898
	C147	C	0.378647	0.113288	0.318280
	C148	C	0.672887	0.379522	0.879780
	C149	C	0.676495	0.619084	0.112463
	C150	C	0.320141	0.618389	0.881772
	C151	C	0.321957	0.377013	0.112637
	C152	C	0.883376	0.673950	0.374600
	C153	C	0.109569	0.677710	0.618343
	C154	C	0.884034	0.316480	0.617316
	C155	C	0.110024	0.319235	0.375479
	C156	C	0.883401	0.376368	0.673665
	C157	C	0.110938	0.616894	0.673986
	C158	C	0.883021	0.614349	0.318215
	C159	C	0.111017	0.379425	0.319780
	C160	C	0.379704	0.671780	0.880316
	C161	C	0.618012	0.674194	0.113079
	C162	C	0.613371	0.326111	0.878295
	C163	C	0.380056	0.321703	0.112434
	C164	C	0.673533	0.883298	0.373291
	C165	C	0.676836	0.110853	0.617200
	C166	C	0.317045	0.883956	0.616960
	C167	C	0.317063	0.111951	0.371786
	C168	C	0.880632	0.382546	0.170803
	C169	C	0.117167	0.613055	0.172814
	C170	C	0.114445	0.381949	0.821674
	C171	C	0.880888	0.612962	0.820052
	C172	C	0.171613	0.878011	0.379362
	C173	C	0.174848	0.119552	0.610226
	C174	C	0.819251	0.117224	0.379595
	C175	C	0.818597	0.874820	0.611253
	C176	C	0.384475	0.176734	0.872603
	C177	C	0.610575	0.177226	0.116304
	C178	C	0.384461	0.816731	0.116939
	C179	C	0.610486	0.820000	0.874855
	C180	C	0.382846	0.877727	0.171681
	C181	C	0.610752	0.117563	0.173166
	C182	C	0.383675	0.115858	0.817218
	C183	C	0.611399	0.880042	0.818747
	C184	C	0.877597	0.172596	0.379258
	C185	C	0.116059	0.172942	0.611477
	C186	C	0.112317	0.823256	0.378652
	C187	C	0.877243	0.819809	0.611889
	C188	C	0.175456	0.383390	0.875881
	C189	C	0.179323	0.610963	0.120778
	C190	C	0.818388	0.384307	0.118554
	C191	C	0.819587	0.611913	0.873445
	C192	C	0.396277	0.092853	0.592451
	C193	C	0.596573	0.902197	0.592544
	C194	C	0.597734	0.092229	0.398331
	C195	C	0.393289	0.903072	0.397601
	C196	C	0.596810	0.400698	0.093033
	C197	C	0.597781	0.596446	0.899863
	C198	C	0.400520	0.594121	0.093603
	C199	C	0.397398	0.401351	0.899411
	C200	C	0.090516	0.599948	0.397051
	C201	C	0.903961	0.596607	0.595088
	C202	C	0.090297	0.396118	0.596289
	C203	C	0.903621	0.394719	0.395175
	C204	C	0.898055	0.593255	0.093064
	C205	C	0.098496	0.403054	0.094524
	C206	C	0.098440	0.592036	0.899723
	C207	C	0.894719	0.402662	0.898713
	C208	C	0.095103	0.900902	0.592158
	C209	C	0.094467	0.094873	0.398586
	C210	C	0.898956	0.092627	0.591843
	C211	C	0.895831	0.898817	0.398745
	C212	C	0.591294	0.101852	0.894911
	C213	C	0.404353	0.097925	0.092920
	C214	C	0.590300	0.897496	0.096000
	C215	C	0.404176	0.895393	0.895540
	Zn216	Zn	0.497266	-0.002275	0.743556
	Zn217	Zn	0.495712	-0.002107	0.246646
	Zn218	Zn	0.746115	0.498147	-0.003720
	Zn219	Zn	0.249382	0.497838	-0.002384
	Zn220	Zn	-0.003820	0.749742	0.495673
	Zn221	Zn	-0.003114	0.243757	0.495781
	Zn222	Zn	-0.002569	0.496853	0.747870
	Zn223	Zn	-0.002044	0.497544	0.244564
	Zn224	Zn	0.498042	0.745020	-0.003808
	Zn225	Zn	0.497662	0.251573	-0.004987
	Zn226	Zn	0.747931	-0.003542	0.495230
	Zn227	Zn	0.244192	-0.001357	0.495039
	N228	N	0.412964	0.959737	0.670407
	N229	N	0.579712	0.035658	0.669004
	N230	N	0.577312	0.958954	0.321748
	N231	N	0.412464	0.036013	0.319591
	N232	N	0.675879	0.411559	0.959678
	N233	N	0.677885	0.585579	0.033293
	N234	N	0.318665	0.585370	0.961257
	N235	N	0.319216	0.410964	0.033369
	N236	N	0.960419	0.677980	0.408117
	N237	N	0.032496	0.679665	0.584824
	N238	N	0.960887	0.314370	0.583937
	N239	N	0.032862	0.315505	0.407837
	N240	N	0.959989	0.410812	0.674782
	N241	N	0.034815	0.581447	0.674209
	N242	N	0.959974	0.581948	0.317423
	N243	N	0.034641	0.412940	0.318488
	N244	N	0.414830	0.671301	0.958739
	N245	N	0.583620	0.674497	0.034261
	N246	N	0.580262	0.325205	0.957290
	N247	N	0.413010	0.321953	0.033414
	N248	N	0.677928	0.961651	0.406329
	N249	N	0.679547	0.032195	0.584733
	N250	N	0.314156	0.962382	0.583954
	N251	N	0.313251	0.033789	0.405471
	N252	N	0.915764	0.459678	0.169725
	N253	N	0.081378	0.536084	0.171243
	N254	N	0.080363	0.459144	0.822073
	N255	N	0.914185	0.535551	0.820849
	N256	N	0.174377	0.911088	0.458756
	N257	N	0.176009	0.086006	0.530959
	N258	N	0.818179	0.083073	0.458508
	N259	N	0.816379	0.908532	0.532014
	N260	N	0.461617	0.180911	0.905804
	N261	N	0.533777	0.179116	0.081753
	N262	N	0.461618	0.814605	0.084589
	N263	N	0.533616	0.816669	0.908114
	N264	N	0.459122	0.912912	0.172770
	N265	N	0.534249	0.083122	0.173697
	N266	N	0.460429	0.082748	0.816531
	N267	N	0.535016	0.913482	0.817669
	N268	N	0.912165	0.172303	0.458189
	N269	N	0.081022	0.172311	0.533080
	N270	N	0.078909	0.822888	0.457547
	N271	N	0.911010	0.820008	0.533067
	N272	N	0.179142	0.461734	0.908912
	N273	N	0.181647	0.532932	0.087472
	N274	N	0.815569	0.462785	0.085503
	N275	N	0.815582	0.533698	0.907188
	O276	O	0.475141	0.505296	0.554767
	H277	H	0.480610	0.496457	0.563011
	H278	H	0.462669	0.509641	0.549105
	O279	O	0.492715	0.502911	0.562798
	H280	H	0.479946	0.509373	0.566309
	H281	H	0.487776	0.503256	0.553347
	O282	O	0.999384	0.937674	0.093147
	H283	H	0.995611	0.935021	0.098018
	H284	H	1.005512	0.943172	0.083905
	O285	O	0.937580	0.011876	0.944617
	H286	H	0.925100	0.021084	0.941145
	H287	H	0.938046	0.014146	0.963141
	O288	O	0.471311	0.442079	0.528484
	H289	H	0.469457	0.435849	0.531414
	H290	H	0.469275	0.448951	0.520738
	O291	O	0.431951	0.570524	0.418849
	H292	H	0.431762	0.577637	0.419805
	H293	H	0.438075	0.572358	0.407417
	O294	O	0.509045	0.622869	0.495809
	H295	H	0.513567	0.623786	0.510989
	H296	H	0.516873	0.633821	0.493276
	O297	O	-0.069053	-0.020514	1.147302
	H298	H	-0.074941	-0.032526	1.136220
	H299	H	-0.071629	-0.016380	1.161298
	O300	O	0.492771	0.502312	0.544878
	H301	H	0.483576	0.495765	0.551594
	H302	H	0.500570	0.505259	0.544611
	O303	O	1.038507	0.912356	-0.132262
	H304	H	1.035123	0.917632	-0.121727
	H305	H	1.038671	0.913719	-0.139246
	O306	O	-0.067032	0.964613	1.000781
	H307	H	-0.077204	0.959544	1.011473
	H308	H	-0.064079	0.967338	1.004373
	O309	O	0.565977	0.508539	0.520208
	H310	H	0.562529	0.513604	0.528431
	H311	H	0.557776	0.499589	0.505122
	O312	O	0.059538	0.023900	-0.062683
	H313	H	0.060938	0.032695	-0.054779
	H314	H	0.060014	0.030694	-0.048872
	O315	O	0.836948	-0.050496	0.005151
	H316	H	0.842968	-0.040007	-0.007368
	H317	H	0.846705	-0.043491	-0.004921
	O318	O	1.042152	0.962068	0.877069
	H319	H	1.035045	0.962983	0.881174
	H320	H	1.056299	0.941884	0.865626
	O321	O	0.035115	-0.094866	1.031180
	H322	H	0.038360	-0.105958	1.010076
	H323	H	0.020541	-0.099031	1.035559
	O324	O	0.566459	0.440872	0.476881
	H325	H	0.579848	0.440000	0.471191
	H326	H	0.569825	0.442249	0.472779
	O327	O	-0.005602	-0.016564	0.083977
	H328	H	-0.007958	-0.016694	0.082596
	H329	H	-0.015324	-0.018847	0.062513
	O330	O	0.398481	0.492548	0.561857
	H331	H	0.386211	0.484165	0.556993
	H332	H	0.398005	0.498009	0.560694
	O333	O	0.132825	1.083655	1.088191
	H334	H	0.135177	1.068962	1.085526
	H335	H	0.139968	1.094154	1.102715
	O336	O	0.102775	0.070788	0.077261
	H337	H	0.099723	0.076528	0.096963
	H338	H	0.102005	0.068407	0.072641
	O339	O	0.421156	0.459592	0.578596
	H340	H	0.418827	0.457656	0.586549
	H341	H	0.416092	0.448594	0.584155
	O342	O	1.010221	1.123214	1.084767
	H343	H	1.013814	1.127958	1.094607
	H344	H	1.018053	1.116877	1.086279
	O345	O	0.944316	0.987887	-0.007873
	H346	H	0.929436	0.994131	-0.017596
	H347	H	0.951567	0.979641	-0.009694
	O348	O	0.575082	0.485158	0.439462
	H349	H	0.583451	0.491709	0.438154
	H350	H	0.575394	0.492760	0.449017
	O351	O	0.589728	0.549910	0.513363
	H352	H	0.590162	0.549065	0.515837
	H353	H	0.593910	0.553297	0.519401
	O354	O	0.437400	0.466579	0.489390
	H355	H	0.437731	0.459363	0.501394
	H356	H	0.439501	0.470832	0.488439
	O357	O	0.966263	-0.050646	0.906713
	H358	H	0.960977	-0.050627	0.905811
	H359	H	0.982548	-0.036342	0.908455
	O360	O	0.452761	0.591982	0.420978
	H361	H	0.455714	0.601480	0.431232
	H362	H	0.459087	0.586219	0.422536
	O363	O	1.032707	0.927567	0.905075
	H364	H	1.036508	0.934084	0.898659
	H365	H	1.044241	0.912874	0.916676
	O366	O	1.120146	0.833207	0.925962
	H367	H	1.112366	0.832486	0.934921
	H368	H	1.115742	0.827828	0.912533
	O369	O	1.159072	0.085589	1.135823
	H370	H	1.148732	0.088260	1.138587
	H371	H	1.160189	0.081844	1.139612
	O372	O	-0.062910	0.131732	-0.049732
	H373	H	-0.051146	0.131248	-0.042144
	H374	H	-0.067941	0.131348	-0.061422
	O375	O	0.841399	0.052346	-0.111351
	H376	H	0.851128	0.055646	-0.107809
	H377	H	0.838982	0.061741	-0.124855
	O378	O	0.493096	0.473909	0.494519
	H379	H	0.491650	0.477102	0.493798
	H380	H	0.496110	0.473245	0.494456
	O381	O	0.623728	0.499126	0.509286
	H382	H	0.628899	0.500168	0.512130
	H383	H	0.618784	0.496829	0.510061
