data_Molecule from HDF5

_cell_length_a		16.157972
_cell_length_b		16.163092
_cell_length_c		16.424783
_cell_angle_alpha	90.531812
_cell_angle_beta	89.498701
_cell_angle_gamma	89.376599
_symmetry_space_group_name_H-M	'P 1'
_symmetry_Int_Tables_number		1

loop_
	_symmetry_equiv_pos_as_xyz
	x,y,z

loop_
	_atom_site_label
	_atom_site_type_symbol
	_atom_site_fract_x
	_atom_site_fract_y
	_atom_site_fract_z
	H0	H	0.389142	0.828743	0.732920
	H1	H	0.593610	0.152449	0.734643
	H2	H	0.599231	0.830324	0.293843
	H3	H	0.386193	0.154675	0.299179
	H4	H	0.712394	0.386731	0.850884
	H5	H	0.709845	0.591644	0.173853
	H6	H	0.275271	0.593621	0.852992
	H7	H	0.275146	0.390531	0.173663
	H8	H	0.829796	0.707291	0.414158
	H9	H	0.156820	0.703136	0.613264
	H10	H	0.826151	0.279915	0.610220
	H11	H	0.156950	0.270466	0.413931
	H12	H	0.829795	0.387626	0.732468
	H13	H	0.154384	0.591998	0.731303
	H14	H	0.830938	0.590784	0.296656
	H15	H	0.155857	0.377763	0.292071
	H16	H	0.391786	0.710375	0.853451
	H17	H	0.592504	0.708757	0.174494
	H18	H	0.598146	0.269701	0.852641
	H19	H	0.394786	0.279328	0.175618
	H20	H	0.709004	0.827803	0.411777
	H21	H	0.702602	0.155693	0.613490
	H22	H	0.280460	0.826421	0.612936
	H23	H	0.276176	0.154943	0.419618
	H24	H	0.894672	0.323702	0.226868
	H25	H	0.099163	0.648072	0.236454
	H26	H	0.097388	0.325988	0.794495
	H27	H	0.888669	0.651644	0.798760
	H28	H	0.213949	0.886855	0.353975
	H29	H	0.205160	0.092455	0.676321
	H30	H	0.775297	0.089988	0.351920
	H31	H	0.773440	0.893295	0.675381
	H32	H	0.328889	0.205831	0.920812
	H33	H	0.659540	0.204139	0.111122
	H34	H	0.328945	0.779663	0.114678
	H35	H	0.657682	0.774865	0.913692
	H36	H	0.330190	0.892861	0.232192
	H37	H	0.656659	0.093964	0.232632
	H38	H	0.329431	0.095616	0.800994
	H39	H	0.654734	0.884779	0.794100
	H40	H	0.892072	0.204649	0.350885
	H41	H	0.087574	0.206619	0.675219
	H42	H	0.096583	0.770585	0.352800
	H43	H	0.890137	0.775502	0.676496
	H44	H	0.210657	0.325340	0.912278
	H45	H	0.202653	0.653931	0.112722
	H46	H	0.782436	0.323236	0.107666
	H47	H	0.780836	0.653216	0.917113
	H48	H	0.396012	0.107639	0.606829
	H49	H	0.585348	0.872886	0.604092
	H50	H	0.586692	0.109836	0.423717
	H51	H	0.405119	0.874468	0.421417
	H52	H	0.582091	0.406426	0.124656
	H53	H	0.586756	0.576241	0.899004
	H54	H	0.397099	0.582340	0.128114
	H55	H	0.411241	0.402936	0.901765
	H56	H	0.108599	0.576956	0.426068
	H57	H	0.878500	0.578644	0.600608
	H58	H	0.105326	0.402853	0.596431
	H59	H	0.874048	0.405284	0.406875
	H60	H	0.110755	0.401043	0.612936
	H61	H	0.874687	0.577142	0.614436
	H62	H	0.108917	0.573136	0.421751
	H63	H	0.871591	0.383532	0.418547
	H64	H	0.402713	0.584620	0.127449
	H65	H	0.581456	0.584646	0.898427
	H66	H	0.583783	0.390648	0.129921
	H67	H	0.405175	0.389114	0.896634
	H68	H	0.581212	0.110415	0.418422
	H69	H	0.580489	0.873657	0.606484
	H70	H	0.399307	0.109704	0.614289
	H71	H	0.406437	0.873739	0.420441
	H72	H	0.908741	0.603018	0.109229
	H73	H	0.079225	0.374175	0.099718
	H74	H	0.083739	0.607291	0.919634
	H75	H	0.913615	0.375577	0.925682
	H76	H	0.082726	0.898374	0.629394
	H77	H	0.088774	0.076269	0.398143
	H78	H	0.889894	0.080069	0.628720
	H79	H	0.894066	0.911705	0.401709
	H80	H	0.613422	0.086014	0.919094
	H81	H	0.377466	0.079112	0.112033
	H82	H	0.613011	0.893128	0.106946
	H83	H	0.374425	0.900367	0.919408
	H84	H	0.608056	0.901474	0.097556
	H85	H	0.373773	0.091278	0.112191
	H86	H	0.607809	0.078334	0.928255
	H87	H	0.375204	0.898778	0.926945
	H88	H	0.904378	0.084488	0.626636
	H89	H	0.081602	0.076907	0.401070
	H90	H	0.084878	0.895076	0.629793
	H91	H	0.917640	0.896830	0.404449
	H92	H	0.081724	0.605998	0.920898
	H93	H	0.090135	0.370974	0.096872
	H94	H	0.901389	0.604999	0.102275
	H95	H	0.894330	0.368832	0.924243
	H96	H	0.404727	0.106510	0.607533
	H97	H	0.581419	0.874789	0.601599
	H98	H	0.579386	0.107853	0.425391
	H99	H	0.406668	0.875599	0.422522
	H100	H	0.596587	0.400605	0.130888
	H101	H	0.590813	0.583745	0.895682
	H102	H	0.397602	0.588634	0.129650
	H103	H	0.396259	0.402343	0.897008
	H104	H	0.110352	0.578641	0.421120
	H105	H	0.872363	0.590026	0.607480
	H106	H	0.111660	0.387036	0.601125
	H107	H	0.880950	0.404055	0.431031
	H108	H	0.899258	0.606594	0.111411
	H109	H	0.086869	0.368720	0.107772
	H110	H	0.083995	0.606251	0.921491
	H111	H	0.906499	0.367947	0.907401
	H112	H	0.086918	0.898168	0.629494
	H113	H	0.084832	0.082682	0.397989
	H114	H	0.894487	0.093746	0.632361
	H115	H	0.895299	0.885412	0.393988
	H116	H	0.610278	0.072722	0.916310
	H117	H	0.380071	0.085466	0.102083
	H118	H	0.609116	0.906512	0.109741
	H119	H	0.377900	0.905831	0.923666
	C120	C	0.370357	0.000190	0.638015
	C121	C	0.611830	0.981992	0.634618
	C122	C	0.613904	0.001007	0.392147
	C123	C	0.373167	0.982774	0.393788
	C124	C	0.617893	0.367571	0.021793
	C125	C	0.615233	0.611913	1.004529
	C126	C	0.369810	0.614640	0.022526
	C127	C	0.373485	0.369801	1.004687
	C128	C	0.001894	0.608219	0.392923
	C129	C	0.983442	0.611318	0.636173
	C130	C	0.000599	0.368779	0.633656
	C131	C	0.984034	0.365600	0.390146
	C132	C	0.873191	0.496413	0.134857
	C133	C	0.114922	0.479220	0.133564
	C134	C	0.115185	0.498380	0.889934
	C135	C	0.873766	0.479681	0.891868
	C136	C	0.116337	0.866719	0.523241
	C137	C	0.112501	0.109807	0.505712
	C138	C	0.867969	0.113739	0.521954
	C139	C	0.870655	0.868996	0.506306
	C140	C	0.502082	0.111072	0.893708
	C141	C	0.485407	0.114203	0.137263
	C142	C	0.502190	0.871256	0.135437
	C143	C	0.484165	0.869794	0.892827
	C144	C	0.370559	0.877156	0.693946
	C145	C	0.611831	0.104250	0.694249
	C146	C	0.616896	0.878560	0.333387
	C147	C	0.369395	0.105720	0.337958
	C148	C	0.674608	0.366914	0.899836
	C149	C	0.671539	0.611379	0.125722
	C150	C	0.313822	0.613340	0.901090
	C151	C	0.315153	0.371621	0.125994
	C152	C	0.878582	0.667431	0.394284
	C153	C	0.107024	0.666169	0.633872
	C154	C	0.876055	0.315890	0.630895
	C155	C	0.107584	0.307676	0.392303
	C156	C	0.877851	0.369617	0.691833
	C157	C	0.105900	0.610610	0.692494
	C158	C	0.879396	0.609680	0.335775
	C159	C	0.107159	0.361706	0.332270
	C160	C	0.371755	0.671274	0.901312
	C161	C	0.613013	0.669407	0.126267
	C162	C	0.617459	0.309025	0.900651
	C163	C	0.374624	0.316165	0.126958
	C164	C	0.671451	0.877381	0.392174
	C165	C	0.665931	0.106032	0.633885
	C166	C	0.316305	0.876108	0.634503
	C167	C	0.314408	0.106029	0.397865
	C168	C	0.874725	0.372864	0.189041
	C169	C	0.116215	0.600521	0.194897
	C170	C	0.116475	0.375107	0.832938
	C171	C	0.871685	0.602898	0.837104
	C172	C	0.174897	0.866768	0.402147
	C173	C	0.167167	0.110868	0.627690
	C174	C	0.813431	0.110402	0.400159
	C175	C	0.812377	0.872123	0.627349
	C176	C	0.378275	0.168081	0.898702
	C177	C	0.609723	0.168080	0.133290
	C178	C	0.378302	0.816846	0.134595
	C179	C	0.607817	0.812432	0.893592
	C180	C	0.379080	0.873218	0.193120
	C181	C	0.608258	0.113172	0.193421
	C182	C	0.378640	0.112987	0.839157
	C183	C	0.606516	0.867316	0.834020
	C184	C	0.871592	0.167325	0.399555
	C185	C	0.108493	0.167674	0.627412
	C186	C	0.116639	0.808760	0.401628
	C187	C	0.870698	0.813579	0.627870
	C188	C	0.173013	0.374930	0.891506
	C189	C	0.168039	0.603461	0.133369
	C190	C	0.818812	0.372859	0.129875
	C191	C	0.817676	0.603759	0.895749
	C192	C	0.393161	0.085824	0.616095
	C193	C	0.589059	0.896211	0.610971
	C194	C	0.589323	0.087072	0.415537
	C195	C	0.398615	0.896904	0.415046
	C196	C	0.594465	0.392135	0.106576
	C197	C	0.592998	0.588475	0.919769
	C198	C	0.392376	0.591850	0.106588
	C199	C	0.397185	0.391756	0.920236
	C200	C	0.087134	0.583352	0.416078
	C201	C	0.897448	0.588737	0.613943
	C202	C	0.086810	0.390688	0.610362
	C203	C	0.897871	0.390459	0.412460
	C204	C	0.896302	0.582646	0.113762
	C205	C	0.092110	0.393468	0.108641
	C206	C	0.090315	0.584381	0.913527
	C207	C	0.897666	0.393358	0.912871
	C208	C	0.091719	0.890343	0.607783
	C209	C	0.091221	0.085663	0.421110
	C210	C	0.889715	0.092512	0.607211
	C211	C	0.895192	0.891392	0.421579
	C212	C	0.588287	0.086367	0.915035
	C213	C	0.399472	0.091946	0.115158
	C214	C	0.588012	0.893834	0.111586
	C215	C	0.398043	0.894479	0.916630
	Zn216	Zn	0.491836	-0.009725	0.764414
	Zn217	Zn	0.493672	-0.007614	0.264905
	Zn218	Zn	0.746060	0.489500	0.011943
	Zn219	Zn	0.242530	0.490143	0.013107
	Zn220	Zn	-0.007256	0.738212	0.514392
	Zn221	Zn	-0.008450	0.240356	0.512954
	Zn222	Zn	-0.007548	0.488977	0.763277
	Zn223	Zn	-0.004580	0.486474	0.262768
	Zn224	Zn	0.493078	0.742595	0.013841
	Zn225	Zn	0.494818	0.240730	0.013781
	Zn226	Zn	0.739717	-0.008509	0.513437
	Zn227	Zn	0.244799	-0.009809	0.515946
	N228	N	0.403578	0.955146	0.696253
	N229	N	0.578891	0.026129	0.694827
	N230	N	0.581960	0.956410	0.333049
	N231	N	0.405403	0.028109	0.335476
	N232	N	0.675020	0.402656	0.976044
	N233	N	0.672917	0.576193	0.049079
	N234	N	0.312121	0.578913	0.977338
	N235	N	0.314458	0.404543	0.049127
	N236	N	0.955784	0.666853	0.428873
	N237	N	0.029748	0.666861	0.599557
	N238	N	0.953509	0.315180	0.595363
	N239	N	0.030146	0.309753	0.427512
	N240	N	0.956238	0.401741	0.693577
	N241	N	0.027866	0.577307	0.694250
	N242	N	0.956946	0.573573	0.334777
	N243	N	0.029300	0.397034	0.330783
	N244	N	0.405658	0.672423	0.977767
	N245	N	0.578905	0.669877	0.049986
	N246	N	0.582985	0.309134	0.977634
	N247	N	0.410374	0.314900	0.050682
	N248	N	0.669639	0.954634	0.427939
	N249	N	0.666038	0.029142	0.597450
	N250	N	0.315944	0.953474	0.600544
	N251	N	0.316705	0.028581	0.431810
	N252	N	0.907668	0.450856	0.192339
	N253	N	0.084122	0.522007	0.195203
	N254	N	0.081361	0.452994	0.831780
	N255	N	0.905861	0.524641	0.834609
	N256	N	0.174917	0.901781	0.478698
	N257	N	0.169536	0.075417	0.551307
	N258	N	0.810872	0.078057	0.477284
	N259	N	0.812237	0.905586	0.550548
	N260	N	0.456079	0.166947	0.931931
	N261	N	0.532286	0.169058	0.099298
	N262	N	0.455847	0.815423	0.099525
	N263	N	0.530620	0.814177	0.929640
	N264	N	0.457138	0.906305	0.193751
	N265	N	0.529950	0.080685	0.196233
	N266	N	0.456814	0.078253	0.835895
	N267	N	0.528401	0.902077	0.833315
	N268	N	0.904492	0.169842	0.476533
	N269	N	0.075137	0.167404	0.550708
	N270	N	0.080774	0.808556	0.478019
	N271	N	0.906262	0.811707	0.551513
	N272	N	0.172701	0.452958	0.925832
	N273	N	0.167301	0.527041	0.095819
	N274	N	0.817575	0.450953	0.097069
	N275	N	0.818923	0.526341	0.929527
	O276	O	1.107121	-0.034305	1.029146
	H277	H	1.104508	-0.034811	1.034623
	H278	H	1.115966	-0.024742	1.041455
	O279	O	0.449523	0.412177	0.482808
	H280	H	0.447888	0.403659	0.479635
	H281	H	0.464743	0.400500	0.479996
	O282	O	0.622441	0.462010	0.415776
	H283	H	0.628716	0.464245	0.412352
	H284	H	0.626715	0.475154	0.432236
	O285	O	0.395797	0.422416	0.555299
	H286	H	0.395091	0.409329	0.559516
	H287	H	0.405530	0.416718	0.552673
	O288	O	0.590441	0.527388	0.578412
	H289	H	0.586823	0.540584	0.575455
	H290	H	0.578978	0.536113	0.578488
	O291	O	-0.028528	0.045354	1.146452
	H292	H	-0.023620	0.038755	1.149090
	H293	H	-0.035236	0.046328	1.134762
	O294	O	0.993051	1.025546	-0.105468
	H295	H	0.998786	1.024620	-0.107586
	H296	H	0.997453	1.022795	-0.103874
	O297	O	1.659973	0.534367	0.478807
	H298	H	1.664725	0.534682	0.474071
	H299	H	1.647977	0.548876	0.472407
	O300	O	0.558224	0.584940	0.491917
	H301	H	0.536177	0.592153	0.507515
	H302	H	0.556671	0.571889	0.488941
	O303	O	0.494793	0.410414	0.600370
	H304	H	0.506379	0.408835	0.603901
	H305	H	0.493617	0.415822	0.599644
	O306	O	0.650709	0.339533	0.395251
	H307	H	0.653322	0.353114	0.379145
	H308	H	0.669372	0.339487	0.401760
	O309	O	0.436920	0.403384	0.399010
	H310	H	0.449714	0.410658	0.397575
	H311	H	0.430847	0.406129	0.389755
	O312	O	0.964419	0.943321	1.010433
	H313	H	0.963772	0.948618	1.013085
	H314	H	0.963059	0.939830	0.992439
	O315	O	1.029180	0.930695	-0.049207
	H316	H	1.041978	0.913534	-0.055404
	H317	H	1.005878	0.931928	-0.036881
	O318	O	0.544705	0.511891	0.448856
	H319	H	0.548720	0.513543	0.444867
	H320	H	0.539032	0.520124	0.449121
	O321	O	1.008963	1.070415	-0.009247
	H322	H	1.017421	1.052773	-0.012740
	H323	H	1.015362	1.075813	-0.005441
	O324	O	-0.578639	1.571351	0.536344
	H325	H	-0.581308	1.557276	0.548495
	H326	H	-0.592835	1.568124	0.528485
	O327	O	-0.390677	1.507890	1.504701
	H328	H	-0.387643	1.504626	1.504299
	H329	H	-0.398800	1.515942	1.502141
	O330	O	-0.136434	-0.033346	0.035647
	H331	H	-0.138855	-0.030702	0.028156
	H332	H	-0.132726	-0.034320	0.020928
	O333	O	0.968086	1.114953	0.023344
	H334	H	0.976928	1.118532	0.009202
	H335	H	0.968820	1.121377	0.009561
	O336	O	0.038310	-0.040788	0.088042
	H337	H	0.034595	-0.043101	0.097757
	H338	H	0.037232	-0.049362	0.090721
	O339	O	0.008671	-0.005788	-0.058033
	H340	H	0.005965	-0.007956	-0.057175
	H341	H	0.017438	-0.019884	-0.061585
	O342	O	0.446380	0.458533	0.683563
	H343	H	0.436647	0.464779	0.691028
	H344	H	0.442755	0.446418	0.672723
	O345	O	0.056543	1.015804	0.976259
	H346	H	0.054912	1.009452	0.985138
	H347	H	0.062445	1.014398	0.968030
	O348	O	0.416999	0.457501	0.444087
	H349	H	0.416127	0.455629	0.451661
	H350	H	0.409045	0.454854	0.437897
	O351	O	0.352013	0.642859	0.363674
	H352	H	0.361690	0.645869	0.359159
	H353	H	0.366810	0.638453	0.355527
	O354	O	0.294674	0.683584	-0.400036
	H355	H	0.271045	0.695828	-0.399101
	H356	H	0.302358	0.667820	-0.405015
	O357	O	0.501446	0.541165	0.347146
	H358	H	0.516406	0.530023	0.348412
	H359	H	0.507212	0.527828	0.345829
	O360	O	0.538083	0.385193	0.475658
	H361	H	0.549886	0.378108	0.475810
	H362	H	0.538545	0.386996	0.488592
	O363	O	0.555318	0.501726	0.689425
	H364	H	0.551696	0.498412	0.679590
	H365	H	0.563971	0.511611	0.694500
	O366	O	0.973232	0.951368	0.044291
	H367	H	0.973552	0.956552	0.038043
	H368	H	0.977531	0.954903	0.047003
	O369	O	1.085546	-0.180565	-0.004495
	H370	H	1.083991	-0.182902	0.013719
	H371	H	1.073543	-0.177932	-0.004539
	O372	O	0.350612	0.397478	0.670468
	H373	H	0.365263	0.378881	0.662971
	H374	H	0.339876	0.391126	0.674453
	O375	O	0.952398	-0.023734	0.971081
	H376	H	0.954393	-0.021791	0.977331
	H377	H	0.948027	-0.011921	0.968219
	O378	O	-0.058026	0.885338	0.156059
	H379	H	-0.065387	0.892339	0.162919
	H380	H	-0.075532	0.886171	0.166338
	O381	O	0.338290	0.561677	0.474590
	H382	H	0.338857	0.578288	0.465353
	H383	H	0.321885	0.564842	0.470621
	O384	O	0.960239	0.969652	0.022385
	H385	H	0.963948	0.970932	0.007360
	H386	H	0.961216	0.969197	0.028556
	O387	O	1.077709	-0.121535	0.926321
	H388	H	1.079438	-0.121743	0.946856
	H389	H	1.087208	-0.129722	0.919864
	O390	O	0.581003	1.594809	-0.410328
	H391	H	0.583222	1.593178	-0.410988
	H392	H	0.589315	1.613961	-0.407282
	O393	O	0.394343	0.466958	0.524003
	H394	H	0.392989	0.473379	0.527941
	H395	H	0.390860	0.455244	0.522229
