data_Molecule from HDF5

_cell_length_a		16.368506
_cell_length_b		16.000018
_cell_length_c		16.240986
_cell_angle_alpha	89.397918
_cell_angle_beta	89.759542
_cell_angle_gamma	89.602666
_symmetry_space_group_name_H-M	'P 1'
_symmetry_Int_Tables_number		1

loop_
	_symmetry_equiv_pos_as_xyz
	x,y,z

loop_
	_atom_site_label
	_atom_site_type_symbol
	_atom_site_fract_x
	_atom_site_fract_y
	_atom_site_fract_z
	H0	H	0.407640	0.846305	0.712634
	H1	H	0.601120	0.178500	0.704397
	H2	H	0.608933	0.845228	0.283733
	H3	H	0.410418	0.177383	0.283208
	H4	H	0.723848	0.409964	0.832089
	H5	H	0.722681	0.608196	0.159381
	H6	H	0.290941	0.614473	0.832603
	H7	H	0.289036	0.405406	0.158891
	H8	H	0.843186	0.727482	0.396868
	H9	H	0.171058	0.717217	0.586262
	H10	H	0.842964	0.296973	0.593937
	H11	H	0.171659	0.298371	0.399694
	H12	H	0.844032	0.408929	0.713920
	H13	H	0.168466	0.609010	0.708207
	H14	H	0.842646	0.612235	0.279318
	H15	H	0.168347	0.409614	0.277418
	H16	H	0.410580	0.725712	0.831766
	H17	H	0.600391	0.717700	0.162524
	H18	H	0.603786	0.300222	0.830062
	H19	H	0.412809	0.296714	0.161487
	H20	H	0.724299	0.845572	0.397118
	H21	H	0.720316	0.176228	0.595058
	H22	H	0.296955	0.844367	0.598309
	H23	H	0.291363	0.175440	0.394486
	H24	H	0.906779	0.344882	0.210881
	H25	H	0.102118	0.676104	0.204569
	H26	H	0.106008	0.342995	0.783843
	H27	H	0.909523	0.676843	0.782148
	H28	H	0.227345	0.908684	0.334082
	H29	H	0.221617	0.107862	0.660471
	H30	H	0.790277	0.115143	0.333634
	H31	H	0.790061	0.905924	0.659567
	H32	H	0.343816	0.226974	0.900031
	H33	H	0.671597	0.218193	0.089113
	H34	H	0.343714	0.797205	0.096454
	H35	H	0.670497	0.796394	0.899552
	H36	H	0.346203	0.908967	0.215933
	H37	H	0.669560	0.109724	0.209121
	H38	H	0.343446	0.114294	0.780664
	H39	H	0.669505	0.911538	0.780549
	H40	H	0.912267	0.223604	0.331021
	H41	H	0.101512	0.219474	0.661738
	H42	H	0.103456	0.801197	0.329613
	H43	H	0.912548	0.796592	0.660921
	H44	H	0.223424	0.344810	0.896816
	H45	H	0.219870	0.675372	0.094459
	H46	H	0.796137	0.343235	0.095149
	H47	H	0.791253	0.675268	0.892947
	H48	H	0.408990	0.133615	0.594139
	H49	H	0.597892	0.895798	0.575387
	H50	H	0.604423	0.133215	0.396378
	H51	H	0.426265	0.892687	0.401638
	H52	H	0.610674	0.419310	0.114696
	H53	H	0.597510	0.599758	0.881094
	H54	H	0.413020	0.609285	0.115562
	H55	H	0.412405	0.426806	0.880883
	H56	H	0.118885	0.596849	0.400801
	H57	H	0.890661	0.603725	0.585694
	H58	H	0.120087	0.420643	0.583595
	H59	H	0.888430	0.417992	0.395701
	H60	H	0.123964	0.418338	0.598327
	H61	H	0.889654	0.600554	0.591609
	H62	H	0.124735	0.602436	0.389001
	H63	H	0.889787	0.412625	0.405698
	H64	H	0.401121	0.597805	0.115932
	H65	H	0.601038	0.608520	0.877411
	H66	H	0.595928	0.418748	0.109404
	H67	H	0.420204	0.417124	0.879811
	H68	H	0.592642	0.129266	0.399921
	H69	H	0.613220	0.886670	0.594074
	H70	H	0.419308	0.128000	0.585891
	H71	H	0.416012	0.894118	0.416352
	H72	H	0.906609	0.627983	0.076341
	H73	H	0.101344	0.390465	0.084925
	H74	H	0.099223	0.629621	0.899405
	H75	H	0.910518	0.387373	0.898679
	H76	H	0.092061	0.911542	0.610693
	H77	H	0.099248	0.104934	0.379940
	H78	H	0.906695	0.092274	0.612452
	H79	H	0.920745	0.911905	0.378148
	H80	H	0.629691	0.110852	0.883901
	H81	H	0.392970	0.098451	0.085305
	H82	H	0.623608	0.911241	0.084903
	H83	H	0.385852	0.907294	0.898499
	H84	H	0.622397	0.921056	0.090686
	H85	H	0.389203	0.101180	0.097593
	H86	H	0.622933	0.112953	0.911214
	H87	H	0.394233	0.920980	0.916015
	H88	H	0.921593	0.101665	0.611248
	H89	H	0.105470	0.103304	0.378057
	H90	H	0.110797	0.903634	0.618774
	H91	H	0.902967	0.922232	0.375571
	H92	H	0.098858	0.628538	0.901091
	H93	H	0.098179	0.390577	0.088520
	H94	H	0.908092	0.632892	0.093371
	H95	H	0.922752	0.393013	0.902345
	H96	H	0.406876	0.130499	0.580869
	H97	H	0.588964	0.892090	0.599033
	H98	H	0.601947	0.128938	0.408875
	H99	H	0.408928	0.887207	0.401351
	H100	H	0.602887	0.405164	0.116218
	H101	H	0.606143	0.600700	0.877879
	H102	H	0.415896	0.593852	0.109692
	H103	H	0.408479	0.416421	0.876981
	H104	H	0.123469	0.609484	0.401120
	H105	H	0.887833	0.606129	0.590449
	H106	H	0.125168	0.406049	0.588524
	H107	H	0.892762	0.423354	0.404303
	H108	H	0.922392	0.626410	0.084623
	H109	H	0.097711	0.392408	0.084108
	H110	H	0.100161	0.629424	0.900195
	H111	H	0.912966	0.392071	0.912071
	H112	H	0.109192	0.924542	0.612654
	H113	H	0.101819	0.098971	0.380256
	H114	H	0.906534	0.109481	0.617431
	H115	H	0.919104	0.932144	0.384597
	H116	H	0.618608	0.087741	0.898255
	H117	H	0.389259	0.110887	0.089264
	H118	H	0.627313	0.912331	0.096278
	H119	H	0.391046	0.930152	0.894746
	C120	C	0.385340	0.020324	0.617184
	C121	C	0.627070	1.001877	0.616527
	C122	C	0.629404	0.020204	0.374370
	C123	C	0.387319	1.001196	0.376069
	C124	C	0.630257	0.387406	0.004452
	C125	C	0.628827	0.630431	0.987630
	C126	C	0.383498	0.631643	0.004779
	C127	C	0.385319	0.389004	0.987688
	C128	C	0.014709	0.633296	0.369984
	C129	C	0.997483	0.630687	0.615712
	C130	C	0.015192	0.386790	0.619196
	C131	C	0.998215	0.388700	0.373333
	C132	C	0.884880	0.519134	0.115153
	C133	C	0.126672	0.501089	0.114426
	C134	C	0.128743	0.519362	0.872711
	C135	C	0.885883	0.500768	0.874270
	C136	C	0.131566	0.886372	0.505116
	C137	C	0.129353	0.130217	0.488033
	C138	C	0.884338	0.131867	0.505151
	C139	C	0.885767	0.889866	0.487552
	C140	C	0.515492	0.134121	0.871392
	C141	C	0.498568	0.130806	0.117127
	C142	C	0.516340	0.887344	0.119733
	C143	C	0.498415	0.889922	0.874387
	C144	C	0.388122	0.895418	0.674291
	C145	C	0.622756	0.128378	0.668418
	C146	C	0.628383	0.894799	0.320916
	C147	C	0.389461	0.127089	0.320443
	C148	C	0.685480	0.390089	0.880884
	C149	C	0.683710	0.627677	0.110878
	C150	C	0.329281	0.632880	0.881453
	C151	C	0.328737	0.387615	0.110417
	C152	C	0.891932	0.689905	0.374660
	C153	C	0.121512	0.682035	0.609286
	C154	C	0.892183	0.333148	0.615777
	C155	C	0.121834	0.334413	0.377146
	C156	C	0.892790	0.389040	0.675257
	C157	C	0.120164	0.627990	0.669774
	C158	C	0.891595	0.632415	0.316471
	C159	C	0.120270	0.390036	0.316613
	C160	C	0.388948	0.687988	0.880972
	C161	C	0.623277	0.682513	0.112323
	C162	C	0.625674	0.335483	0.879949
	C163	C	0.390263	0.333362	0.111731
	C164	C	0.685722	0.895046	0.377433
	C165	C	0.682009	0.126909	0.614208
	C166	C	0.332785	0.894649	0.617646
	C167	C	0.330518	0.126304	0.375956
	C168	C	0.887334	0.394227	0.172465
	C169	C	0.123156	0.626415	0.168107
	C170	C	0.126529	0.393296	0.820079
	C171	C	0.888469	0.626703	0.819128
	C172	C	0.188073	0.889141	0.382211
	C173	C	0.183444	0.127408	0.611641
	C174	C	0.829174	0.133123	0.382275
	C175	C	0.829439	0.887911	0.610832
	C176	C	0.392662	0.189836	0.877301
	C177	C	0.622360	0.182909	0.111250
	C178	C	0.393116	0.833579	0.117419
	C179	C	0.621316	0.834345	0.878269
	C180	C	0.394325	0.889162	0.177001
	C181	C	0.621390	0.128590	0.170873
	C182	C	0.392315	0.133471	0.818294
	C183	C	0.620783	0.891501	0.818808
	C184	C	0.889713	0.187168	0.380861
	C185	C	0.123966	0.183147	0.612258
	C186	C	0.126294	0.835701	0.380113
	C187	C	0.890291	0.833423	0.611505
	C188	C	0.184901	0.394094	0.876105
	C189	C	0.181764	0.625914	0.113379
	C190	C	0.832170	0.393418	0.114939
	C191	C	0.829664	0.625783	0.874185
	C192	C	0.405695	0.107953	0.593793
	C193	C	0.606062	0.914289	0.595680
	C194	C	0.606471	0.107793	0.395415
	C195	C	0.410402	0.914015	0.399401
	C196	C	0.609199	0.408276	0.091130
	C197	C	0.607824	0.609347	0.901178
	C198	C	0.404225	0.607653	0.091249
	C199	C	0.407151	0.413028	0.901587
	C200	C	0.100199	0.609905	0.390827
	C201	C	0.911634	0.609495	0.595374
	C202	C	0.100912	0.408535	0.596786
	C203	C	0.912377	0.411283	0.395570
	C204	C	0.906055	0.606560	0.091689
	C205	C	0.105327	0.413840	0.092404
	C206	C	0.106133	0.606591	0.893915
	C207	C	0.908725	0.413415	0.897546
	C208	C	0.110477	0.906993	0.591666
	C209	C	0.108359	0.108693	0.401682
	C210	C	0.905507	0.108048	0.591527
	C211	C	0.907653	0.914768	0.401699
	C212	C	0.601524	0.110642	0.891744
	C213	C	0.412778	0.109807	0.096685
	C214	C	0.602112	0.908705	0.097266
	C215	C	0.412466	0.912815	0.896578
	Zn216	Zn	0.505669	0.011817	0.743316
	Zn217	Zn	0.507794	0.010517	0.247250
	Zn218	Zn	0.758414	0.508804	-0.004397
	Zn219	Zn	0.255173	0.510532	-0.004531
	Zn220	Zn	0.006980	0.760205	0.494762
	Zn221	Zn	0.007317	0.258909	0.496115
	Zn222	Zn	0.006518	0.509974	0.746424
	Zn223	Zn	0.005515	0.510372	0.241575
	Zn224	Zn	0.506119	0.759425	-0.002693
	Zn225	Zn	0.508038	0.259877	-0.004205
	Zn226	Zn	0.755779	0.010891	0.496724
	Zn227	Zn	0.259623	0.009364	0.497141
	N228	N	0.420170	0.974650	0.674163
	N229	N	0.589475	0.049543	0.670571
	N230	N	0.594033	0.973597	0.318822
	N231	N	0.424001	0.048345	0.320445
	N232	N	0.688457	0.421514	0.959259
	N233	N	0.687345	0.596068	0.032342
	N234	N	0.325926	0.598465	0.959391
	N235	N	0.325727	0.421541	0.032121
	N236	N	0.969443	0.690960	0.407058
	N237	N	0.044359	0.683918	0.576359
	N238	N	0.969240	0.331593	0.581582
	N239	N	0.044886	0.333370	0.411588
	N240	N	0.970388	0.421642	0.677545
	N241	N	0.041986	0.596772	0.673991
	N242	N	0.969023	0.598272	0.312930
	N243	N	0.042443	0.423278	0.314249
	N244	N	0.421548	0.687686	0.958972
	N245	N	0.589758	0.684666	0.034708
	N246	N	0.591866	0.333648	0.957699
	N247	N	0.424899	0.334235	0.034517
	N248	N	0.686414	0.974132	0.410018
	N249	N	0.684736	0.047397	0.582573
	N250	N	0.330911	0.973276	0.582736
	N251	N	0.328893	0.047075	0.409605
	N252	N	0.919389	0.473515	0.172855
	N253	N	0.089661	0.547738	0.169050
	N254	N	0.092337	0.472189	0.817713
	N255	N	0.922777	0.547989	0.819076
	N256	N	0.191660	0.919868	0.460955
	N257	N	0.187031	0.095280	0.533331
	N258	N	0.825608	0.099713	0.460655
	N259	N	0.826520	0.922248	0.532720
	N260	N	0.470250	0.190234	0.909653
	N261	N	0.544909	0.184537	0.078490
	N262	N	0.470013	0.832163	0.082655
	N263	N	0.544096	0.833451	0.912189
	N264	N	0.471849	0.921879	0.178540
	N265	N	0.543629	0.096943	0.174752
	N266	N	0.469734	0.099652	0.814474
	N267	N	0.543162	0.925439	0.816426
	N268	N	0.923492	0.186355	0.458483
	N269	N	0.091027	0.184909	0.534574
	N270	N	0.092061	0.833605	0.457453
	N271	N	0.924543	0.834457	0.533997
	N272	N	0.186603	0.473430	0.907853
	N273	N	0.184141	0.546827	0.080862
	N274	N	0.830587	0.471990	0.079760
	N275	N	0.827946	0.546448	0.907727
	O276	O	-0.043819	0.037110	0.034880
	H277	H	-0.045928	0.025560	0.033744
	H278	H	-0.052184	0.034491	0.042716
	O279	O	0.547198	0.450911	0.445282
	H280	H	0.547929	0.438857	0.435579
	H281	H	0.550353	0.454774	0.441411
	O282	O	0.555970	0.552260	0.480682
	H283	H	0.553782	0.555082	0.480264
	H284	H	0.558833	0.545033	0.480471
	O285	O	1.084601	-0.004514	0.915035
	H286	H	1.086220	-0.008153	0.913513
	H287	H	1.079309	-0.006267	0.917834
	O288	O	0.987230	0.000649	-0.059765
	H289	H	0.972858	0.001170	-0.061433
	H290	H	0.986210	0.002659	-0.078196
	O291	O	0.416536	0.512733	0.480094
	H292	H	0.408860	0.494042	0.493980
	H293	H	0.416221	0.516926	0.474974
	O294	O	1.056936	-0.016031	1.079336
	H295	H	1.054100	-0.014651	1.078869
	H296	H	1.060626	-0.004881	1.090418
	O297	O	0.042666	0.044710	0.044263
	H298	H	0.044944	0.044041	0.044761
	H299	H	0.040441	0.043548	0.036956
	O300	O	0.404591	0.618604	0.484009
	H301	H	0.401913	0.620930	0.471778
	H302	H	0.394668	0.623007	0.479367
	O303	O	1.017116	0.006052	0.023741
	H304	H	1.013537	0.017496	0.026835
	H305	H	1.029717	-0.006353	0.022173
	O306	O	1.009297	0.005888	0.019332
	H307	H	1.009621	0.009917	0.016256
	H308	H	1.016061	0.003182	0.013938
	O309	O	-0.004645	0.074204	1.038247
	H310	H	-0.000974	0.071651	1.036869
	H311	H	0.000391	0.069574	1.026815
	O312	O	0.971730	0.942417	0.957607
	H313	H	0.985714	0.941111	0.955128
	H314	H	0.964992	0.941129	0.961879
	O315	O	0.504055	0.535727	0.512107
	H316	H	0.505916	0.542835	0.506423
	H317	H	0.509714	0.532110	0.516207
	O318	O	0.402535	0.502097	0.464733
	H319	H	0.409127	0.506527	0.461149
	H320	H	0.404201	0.511173	0.461009
	O321	O	0.033532	1.004273	0.992178
	H322	H	0.034676	1.008001	0.984019
	H323	H	0.034951	1.000360	0.984261
	O324	O	0.483418	0.491604	0.505275
	H325	H	0.488267	0.492461	0.510916
	H326	H	0.485076	0.495826	0.500897
	O327	O	-0.030210	0.038891	0.988617
	H328	H	-0.020584	0.021013	0.987279
	H329	H	-0.033233	0.038591	0.991832
	O330	O	0.568447	0.575254	0.543051
	H331	H	0.566000	0.578508	0.544140
	H332	H	0.566515	0.583860	0.552300
	O333	O	0.450926	0.483592	0.479614
	H334	H	0.451867	0.469455	0.479127
	H335	H	0.451099	0.483112	0.478533
	O336	O	0.470187	0.506341	0.624158
	H337	H	0.469971	0.510714	0.614189
	H338	H	0.462757	0.508026	0.624489
	O339	O	1.076294	1.062690	-0.088164
	H340	H	1.073336	1.065320	-0.082906
	H341	H	1.069369	1.066612	-0.091903
	O342	O	0.446704	0.504395	0.446853
	H343	H	0.439689	0.506320	0.442375
	H344	H	0.442026	0.505882	0.449656
	O345	O	0.474543	0.496635	0.420710
	H346	H	0.473678	0.490023	0.424442
	H347	H	0.464414	0.493897	0.424521
	O348	O	-0.037021	-0.114150	0.121417
	H349	H	-0.035137	-0.120497	0.128552
	H350	H	-0.043323	-0.107338	0.127256
	O351	O	-0.072835	0.988971	1.044982
	H352	H	-0.080263	0.988796	1.043835
	H353	H	-0.073684	0.996318	1.051183
	O354	O	0.497750	0.522685	0.538435
	H355	H	0.500098	0.521809	0.546378
	H356	H	0.499604	0.522639	0.539017
	O357	O	-0.019176	0.965975	1.086605
	H358	H	-0.019871	0.971881	1.087241
	H359	H	-0.024985	0.966608	1.090842
