data_Molecule from HDF5

_cell_length_a		16.475182
_cell_length_b		16.260847
_cell_length_c		16.269700
_cell_angle_alpha	89.963677
_cell_angle_beta	90.091739
_cell_angle_gamma	90.108901
_symmetry_space_group_name_H-M	'P 1'
_symmetry_Int_Tables_number		1

loop_
	_symmetry_equiv_pos_as_xyz
	x,y,z

loop_
	_atom_site_label
	_atom_site_type_symbol
	_atom_site_fract_x
	_atom_site_fract_y
	_atom_site_fract_z
	H0	H	0.382471	0.844708	0.707157
	H1	H	0.586433	0.168162	0.705296
	H2	H	0.584593	0.844284	0.272797
	H3	H	0.379799	0.165952	0.268785
	H4	H	0.708505	0.402172	0.828139
	H5	H	0.710082	0.612858	0.149440
	H6	H	0.267696	0.610236	0.829222
	H7	H	0.265597	0.396843	0.148433
	H8	H	0.825846	0.724403	0.383263
	H9	H	0.144378	0.726836	0.591999
	H10	H	0.825546	0.286253	0.593724
	H11	H	0.144352	0.283848	0.384944
	H12	H	0.827086	0.401106	0.711800
	H13	H	0.145526	0.610174	0.708878
	H14	H	0.828751	0.610597	0.266267
	H15	H	0.145025	0.400356	0.269059
	H16	H	0.388127	0.721861	0.826994
	H17	H	0.591441	0.725311	0.151044
	H18	H	0.590029	0.288321	0.826851
	H19	H	0.386613	0.287343	0.151185
	H20	H	0.703391	0.845330	0.383082
	H21	H	0.708738	0.163943	0.598357
	H22	H	0.264363	0.844883	0.593683
	H23	H	0.263256	0.165745	0.382480
	H24	H	0.884881	0.345608	0.206437
	H25	H	0.091940	0.667513	0.208930
	H26	H	0.091786	0.345137	0.769548
	H27	H	0.887985	0.667748	0.772614
	H28	H	0.206124	0.897550	0.329089
	H29	H	0.205754	0.111272	0.648822
	H30	H	0.763495	0.110716	0.327899
	H31	H	0.764263	0.900387	0.649533
	H32	H	0.326986	0.227263	0.884669
	H33	H	0.646551	0.223353	0.092291
	H34	H	0.328436	0.783875	0.092467
	H35	H	0.647662	0.789692	0.886364
	H36	H	0.326542	0.900459	0.207310
	H37	H	0.644005	0.110279	0.211141
	H38	H	0.326365	0.110635	0.768895
	H39	H	0.644700	0.904953	0.768584
	H40	H	0.882402	0.224028	0.327192
	H41	H	0.087475	0.224080	0.650327
	H42	H	0.085126	0.788773	0.326328
	H43	H	0.884427	0.788607	0.650801
	H44	H	0.209583	0.345984	0.881569
	H45	H	0.208592	0.666458	0.095053
	H46	H	0.766099	0.348144	0.096455
	H47	H	0.769737	0.667758	0.883975
	H48	H	0.398079	0.117579	0.573752
	H49	H	0.570640	0.894656	0.571091
	H50	H	0.572123	0.118019	0.405386
	H51	H	0.388944	0.886730	0.393060
	H52	H	0.569904	0.422266	0.098749
	H53	H	0.574873	0.597671	0.874995
	H54	H	0.398444	0.601359	0.106735
	H55	H	0.401564	0.415937	0.875421
	H56	H	0.095959	0.589498	0.403515
	H57	H	0.873718	0.597462	0.574426
	H58	H	0.096991	0.419018	0.579500
	H59	H	0.872412	0.414800	0.396809
	H60	H	0.099849	0.413901	0.581582
	H61	H	0.873545	0.589716	0.582062
	H62	H	0.103923	0.597446	0.390224
	H63	H	0.873007	0.416513	0.400150
	H64	H	0.391966	0.590905	0.106469
	H65	H	0.582391	0.600219	0.871220
	H66	H	0.578246	0.407021	0.106182
	H67	H	0.394966	0.416936	0.873224
	H68	H	0.578658	0.122808	0.401666
	H69	H	0.581943	0.887985	0.578440
	H70	H	0.387591	0.121963	0.573643
	H71	H	0.399998	0.892350	0.398683
	H72	H	0.894146	0.623500	0.078878
	H73	H	0.080469	0.391659	0.074780
	H74	H	0.081434	0.621941	0.897635
	H75	H	0.901873	0.388460	0.891465
	H76	H	0.069114	0.922777	0.599108
	H77	H	0.074865	0.096689	0.372976
	H78	H	0.893607	0.102795	0.605745
	H79	H	0.893034	0.914206	0.373138
	H80	H	0.602511	0.107750	0.899420
	H81	H	0.370555	0.102805	0.076941
	H82	H	0.599483	0.914352	0.075584
	H83	H	0.369510	0.911634	0.892013
	H84	H	0.599160	0.922311	0.083284
	H85	H	0.375334	0.093024	0.073334
	H86	H	0.595399	0.090173	0.905289
	H87	H	0.373638	0.910039	0.907194
	H88	H	0.887574	0.089242	0.605044
	H89	H	0.075520	0.090903	0.374801
	H90	H	0.072027	0.910525	0.604767
	H91	H	0.890813	0.917484	0.373203
	H92	H	0.074821	0.619676	0.899297
	H93	H	0.077605	0.390055	0.081476
	H94	H	0.902896	0.621718	0.080198
	H95	H	0.903201	0.396578	0.909238
	H96	H	0.393968	0.123100	0.582854
	H97	H	0.568853	0.890368	0.585288
	H98	H	0.570565	0.121295	0.397169
	H99	H	0.389095	0.890792	0.405847
	H100	H	0.587743	0.423113	0.104658
	H101	H	0.581532	0.592039	0.875740
	H102	H	0.403528	0.591187	0.101237
	H103	H	0.398317	0.422166	0.875973
	H104	H	0.100714	0.605778	0.404191
	H105	H	0.869457	0.599486	0.584320
	H106	H	0.098274	0.413332	0.575653
	H107	H	0.872356	0.418280	0.396764
	H108	H	0.899149	0.620936	0.071999
	H109	H	0.073801	0.394073	0.076855
	H110	H	0.079677	0.619721	0.904139
	H111	H	0.886579	0.387803	0.903146
	H112	H	0.080945	0.920017	0.604493
	H113	H	0.069894	0.093504	0.375738
	H114	H	0.900860	0.091199	0.600291
	H115	H	0.894684	0.917312	0.374272
	H116	H	0.601751	0.093212	0.886211
	H117	H	0.370493	0.093789	0.084263
	H118	H	0.603352	0.912726	0.085987
	H119	H	0.375245	0.923499	0.899937
	C120	C	0.362236	0.014837	0.609466
	C121	C	0.605990	0.997072	0.610182
	C122	C	0.604647	0.014491	0.369073
	C123	C	0.361659	0.996479	0.367050
	C124	C	0.609939	0.385500	-0.003037
	C125	C	0.610521	0.628223	0.980718
	C126	C	0.367014	0.626373	-0.001717
	C127	C	0.366928	0.385344	0.980807
	C128	C	-0.005431	0.628148	0.367038
	C129	C	0.977392	0.627487	0.610736
	C130	C	-0.006259	0.383566	0.611648
	C131	C	0.977883	0.384390	0.367189
	C132	C	0.866711	0.516090	0.109595
	C133	C	0.109138	0.497894	0.110126
	C134	C	0.109866	0.514317	0.867752
	C135	C	0.867172	0.497781	0.868933
	C136	C	0.105517	0.885064	0.496800
	C137	C	0.105541	0.126537	0.480340
	C138	C	0.862716	0.126530	0.497601
	C139	C	0.862099	0.884118	0.479925
	C140	C	0.494746	0.128772	0.865921
	C141	C	0.477552	0.127379	0.110493
	C142	C	0.495280	0.883955	0.111499
	C143	C	0.478182	0.885304	0.867812
	C144	C	0.362554	0.893243	0.668301
	C145	C	0.606341	0.118832	0.667591
	C146	C	0.604204	0.893004	0.310922
	C147	C	0.360854	0.117464	0.307580
	C148	C	0.668920	0.383542	0.876116
	C149	C	0.669937	0.630803	0.101491
	C150	C	0.307875	0.628230	0.877122
	C151	C	0.306654	0.380757	0.100960
	C152	C	0.874199	0.685923	0.364687
	C153	C	0.097161	0.686970	0.610999
	C154	C	0.873787	0.324893	0.613246
	C155	C	0.096896	0.324081	0.366363
	C156	C	0.874706	0.382224	0.672025
	C157	C	0.097633	0.629110	0.669259
	C158	C	0.875744	0.629459	0.306254
	C159	C	0.097623	0.382399	0.308856
	C160	C	0.367569	0.683996	0.876169
	C161	C	0.610924	0.686820	0.102449
	C162	C	0.609909	0.326876	0.875652
	C163	C	0.367171	0.326271	0.102370
	C164	C	0.663120	0.893433	0.366284
	C165	C	0.667005	0.116981	0.613983
	C166	C	0.303923	0.893263	0.611716
	C167	C	0.302830	0.117433	0.364391
	C168	C	0.865765	0.394607	0.168316
	C169	C	0.110697	0.618992	0.169558
	C170	C	0.110619	0.393547	0.808232
	C171	C	0.867660	0.619290	0.810320
	C172	C	0.165341	0.881379	0.376541
	C173	C	0.165324	0.128940	0.600903
	C174	C	0.803343	0.129022	0.376295
	C175	C	0.804261	0.882614	0.601250
	C176	C	0.374752	0.187938	0.865493
	C177	C	0.598135	0.185045	0.111747
	C178	C	0.375805	0.823528	0.111785
	C179	C	0.598923	0.828025	0.867176
	C180	C	0.374889	0.882053	0.168705
	C181	C	0.596725	0.128442	0.170989
	C182	C	0.374190	0.129802	0.807771
	C183	C	0.597739	0.885580	0.808501
	C184	C	0.862339	0.185506	0.375862
	C185	C	0.106494	0.185355	0.601623
	C186	C	0.105455	0.826551	0.375318
	C187	C	0.863772	0.826701	0.601955
	C188	C	0.169039	0.393932	0.864528
	C189	C	0.168861	0.618606	0.112862
	C190	C	0.806551	0.395916	0.113349
	C191	C	0.808840	0.618997	0.865778
	C192	C	0.386187	0.098963	0.584159
	C193	C	0.581123	0.912846	0.585432
	C194	C	0.580815	0.098929	0.394123
	C195	C	0.385629	0.911895	0.392203
	C196	C	0.585786	0.410423	0.081365
	C197	C	0.586507	0.603809	0.896171
	C198	C	0.391019	0.601687	0.082807
	C199	C	0.391258	0.410892	0.896688
	C200	C	0.078175	0.604458	0.392166
	C201	C	0.893922	0.602786	0.587012
	C202	C	0.076827	0.408201	0.586245
	C203	C	0.894350	0.409383	0.390949
	C204	C	0.891564	0.600247	0.084346
	C205	C	0.084300	0.413906	0.085146
	C206	C	0.085580	0.598445	0.892932
	C207	C	0.890469	0.413109	0.894021
	C208	C	0.081060	0.910432	0.581074
	C209	C	0.080510	0.101026	0.396258
	C210	C	0.886759	0.101667	0.581856
	C211	C	0.885789	0.908987	0.395471
	C212	C	0.578071	0.104176	0.890013
	C213	C	0.393916	0.103456	0.085480
	C214	C	0.578846	0.909038	0.088215
	C215	C	0.394549	0.908401	0.892439
	Zn216	Zn	0.484406	0.006235	0.737524
	Zn217	Zn	0.484486	0.005788	0.240060
	Zn218	Zn	0.738828	0.507010	-0.010875
	Zn219	Zn	0.237688	0.505568	-0.010733
	Zn220	Zn	-0.015360	0.756570	0.488132
	Zn221	Zn	-0.015689	0.254847	0.488551
	Zn222	Zn	-0.012708	0.505838	0.740542
	Zn223	Zn	-0.012487	0.506706	0.238045
	Zn224	Zn	0.488198	0.755218	-0.010505
	Zn225	Zn	0.487680	0.256833	-0.011455
	Zn226	Zn	0.733350	0.005471	0.488726
	Zn227	Zn	0.233865	0.005381	0.488314
	N228	N	0.397964	0.969784	0.667020
	N229	N	0.568722	0.043378	0.665077
	N230	N	0.568192	0.969093	0.312702
	N231	N	0.396666	0.041237	0.309106
	N232	N	0.669324	0.419009	0.952875
	N233	N	0.669829	0.595132	0.024883
	N234	N	0.307090	0.593395	0.954320
	N235	N	0.306520	0.417024	0.024451
	N236	N	0.949261	0.685194	0.401802
	N237	N	0.021369	0.686291	0.575439
	N238	N	0.948744	0.325518	0.576502
	N239	N	0.021334	0.325458	0.401911
	N240	N	0.950466	0.417737	0.671454
	N241	N	0.022322	0.592728	0.669172
	N242	N	0.951468	0.594024	0.307638
	N243	N	0.022520	0.419187	0.309039
	N244	N	0.403378	0.683087	0.952495
	N245	N	0.574726	0.685529	0.026208
	N246	N	0.574080	0.327967	0.951799
	N247	N	0.403701	0.328819	0.026484
	N248	N	0.663403	0.969964	0.402036
	N249	N	0.666930	0.040146	0.578870
	N250	N	0.303210	0.969992	0.576180
	N251	N	0.302926	0.040894	0.400288
	N252	N	0.902633	0.470513	0.166138
	N253	N	0.074303	0.542892	0.168062
	N254	N	0.074415	0.469603	0.810109
	N255	N	0.903127	0.542941	0.812104
	N256	N	0.165455	0.917006	0.453242
	N257	N	0.164960	0.093152	0.524350
	N258	N	0.802988	0.093324	0.453088
	N259	N	0.803168	0.917660	0.524402
	N260	N	0.450649	0.187596	0.900732
	N261	N	0.523183	0.184453	0.074690
	N262	N	0.451778	0.824590	0.076996
	N263	N	0.523587	0.827825	0.903491
	N264	N	0.449985	0.918961	0.168680
	N265	N	0.520600	0.093452	0.170348
	N266	N	0.449735	0.094000	0.807673
	N267	N	0.521759	0.920340	0.808829
	N268	N	0.898149	0.184356	0.452240
	N269	N	0.070191	0.184059	0.525566
	N270	N	0.069055	0.828673	0.451187
	N271	N	0.898780	0.827287	0.525377
	N272	N	0.168801	0.470178	0.900704
	N273	N	0.168305	0.542167	0.076847
	N274	N	0.807161	0.472307	0.077500
	N275	N	0.808270	0.542364	0.901362
	O276	O	1.179680	0.145135	0.178832
	H277	H	1.164867	0.113124	0.186130
	H278	H	1.177960	0.139457	0.196657
	O279	O	0.470148	0.621829	0.312790
	H280	H	0.474312	0.616142	0.299697
	H281	H	0.488761	0.613660	0.322991
	O282	O	0.581933	0.385673	0.572515
	H283	H	0.595867	0.394456	0.569189
	H284	H	0.589959	0.376306	0.558320
	O285	O	0.880118	0.113052	-0.020525
	H286	H	0.884187	0.120239	-0.032486
	H287	H	0.885519	0.123798	-0.027164
	O288	O	0.135149	-0.183959	0.811180
	H289	H	0.144099	-0.191209	0.837873
	H290	H	0.123744	-0.202451	0.798615
	O291	O	0.669051	0.588679	0.620276
	H292	H	0.690906	0.584198	0.639479
	H293	H	0.666670	0.574408	0.603795
	O294	O	0.345755	0.324913	0.575564
	H295	H	0.342273	0.325349	0.573771
	H296	H	0.367115	0.320285	0.579636
	O297	O	0.875810	1.033248	0.807985
	H298	H	0.883849	1.048426	0.798736
	H299	H	0.896208	1.034154	0.811457
	O300	O	0.190920	0.208924	0.028447
	H301	H	0.188117	0.189431	0.053947
	H302	H	0.208205	0.230007	0.024395
	O303	O	0.561900	0.532358	0.336816
	H304	H	0.558982	0.544244	0.344804
	H305	H	0.550535	0.528217	0.323621
	O306	O	1.009067	0.000646	0.177890
	H307	H	1.010910	-0.011168	0.179954
	H308	H	0.998144	0.002803	0.176972
	O309	O	0.315160	0.399366	0.623201
	H310	H	0.316217	0.394013	0.607187
	H311	H	0.333148	0.400663	0.622339
	O312	O	0.797393	1.032945	0.063352
	H313	H	0.819305	1.027822	0.048720
	H314	H	0.779946	1.048874	0.044465
	O315	O	0.968775	-0.114584	0.104942
	H316	H	0.959200	-0.111203	0.107626
	H317	H	0.971995	-0.107228	0.104188
	O318	O	0.529682	0.387342	0.600951
	H319	H	0.542752	0.377667	0.600441
	H320	H	0.529149	0.373627	0.602505
	O321	O	1.028568	0.203486	1.189533
	H322	H	1.036766	0.209512	1.178353
	H323	H	1.019501	0.202922	1.205834
	O324	O	0.008929	0.143044	0.907847
	H325	H	0.026528	0.141015	0.911979
	H326	H	0.014174	0.154616	0.896611
	O327	O	0.653968	0.334579	0.344038
	H328	H	0.629370	0.318975	0.333398
	H329	H	0.672477	0.368471	0.341507
	O330	O	0.476592	0.491677	0.676939
	H331	H	0.479671	0.487077	0.687310
	H332	H	0.478613	0.503915	0.669343
	O333	O	1.182513	1.009153	1.116892
	H334	H	1.191957	1.002370	1.133328
	H335	H	1.186018	0.990814	1.098023
	O336	O	0.595173	0.540916	0.474844
	H337	H	0.594909	0.557537	0.469926
	H338	H	0.590949	0.531799	0.477286
	O339	O	0.983996	-0.073024	0.874819
	H340	H	0.980638	-0.063669	0.883720
	H341	H	0.993458	-0.080749	0.877983
	O342	O	-0.139092	1.030776	1.081207
	H343	H	-0.138019	1.039276	1.091244
	H344	H	-0.140739	1.022468	1.060738
	O345	O	0.450589	0.681360	1.503004
	H346	H	0.462020	0.687115	1.494740
	H347	H	0.443963	0.678726	1.482265
	O348	O	0.671051	0.448147	0.310975
	H349	H	0.663133	0.465489	0.312600
	H350	H	0.688619	0.450937	0.312040
	O351	O	-0.125659	-0.122956	-0.057069
	H352	H	-0.123856	-0.118546	-0.067244
	H353	H	-0.129360	-0.125014	-0.059613
	O354	O	0.892906	0.859115	0.073215
	H355	H	0.898383	0.868679	0.073895
	H356	H	0.873140	0.859799	0.064271
	O357	O	-0.015199	1.178709	-0.180520
	H358	H	-0.013799	1.184227	-0.182554
	H359	H	-0.007989	1.179770	-0.177594
	O360	O	0.288979	0.560649	0.298949
	H361	H	0.291126	0.582426	0.303798
	H362	H	0.266927	0.570339	0.278412
	O363	O	0.441143	0.343552	0.343479
	H364	H	0.446146	0.338067	0.343015
	H365	H	0.426044	0.342844	0.330807
	O366	O	0.343681	0.500245	0.674439
	H367	H	0.338563	0.476813	0.662985
	H368	H	0.344511	0.479184	0.686371
	O369	O	0.478571	0.592684	0.599966
	H370	H	0.494003	0.593323	0.600816
	H371	H	0.482335	0.595889	0.609021
	O372	O	0.672301	0.515344	0.457069
	H373	H	0.674024	0.509038	0.457689
	H374	H	0.682437	0.500690	0.454863
	O375	O	0.613673	0.570533	0.664846
	H376	H	0.591593	0.565789	0.663987
	H377	H	0.605251	0.565863	0.672367
	O378	O	0.432212	0.689273	0.487074
	H379	H	0.451082	0.695290	0.476432
	H380	H	0.419994	0.690887	0.507308
	O381	O	0.442659	0.399105	0.428288
	H382	H	0.438599	0.397891	0.440250
	H383	H	0.418373	0.392880	0.432447
	O384	O	-0.095952	1.096098	0.821248
	H385	H	-0.084886	1.072921	0.819151
	H386	H	-0.069557	1.107700	0.807587
	O387	O	1.163376	1.020736	-0.188614
	H388	H	1.187358	1.004977	-0.217150
	H389	H	1.166460	0.989469	-0.174084
	O390	O	0.294781	0.462792	0.521778
	H391	H	0.292426	0.448851	0.523630
	H392	H	0.296802	0.464369	0.536362
	O393	O	0.922113	-0.143099	1.032035
	H394	H	0.908627	-0.142381	1.034180
	H395	H	0.918314	-0.142457	1.049509
	O396	O	0.084425	0.988095	0.912493
	H397	H	0.074263	0.992328	0.906438
	H398	H	0.100738	0.988185	0.896039
	O399	O	0.361661	0.679467	1.386554
	H400	H	0.355315	0.690389	1.400384
	H401	H	0.365735	0.673161	1.399454
	O402	O	0.812427	0.054087	0.839283
	H403	H	0.812716	0.054083	0.838119
	H404	H	0.818366	0.049927	0.832434
	O405	O	0.185908	0.010307	0.010893
	H406	H	0.191693	0.028520	-0.003179
	H407	H	0.177471	-0.013961	-0.001624
	O408	O	0.912124	1.127229	1.054426
	H409	H	0.901971	1.136013	1.032007
	H410	H	0.915259	1.132148	1.066482
	O411	O	1.013868	0.899257	-0.128952
	H412	H	1.007445	0.911092	-0.126818
	H413	H	1.016727	0.886718	-0.122032
	O414	O	0.663301	-0.313080	1.514921
	H415	H	0.685324	-0.294021	1.523168
	H416	H	0.663074	-0.309287	1.544401
	O417	O	0.638074	0.307822	0.440229
	H418	H	0.640133	0.310965	0.414961
	H419	H	0.649532	0.300895	0.421175
	O420	O	-0.098164	0.897775	0.137378
	H421	H	-0.100284	0.901242	0.137299
	H422	H	-0.102086	0.897667	0.141511
	O423	O	1.046423	-0.143481	0.035901
	H424	H	1.061102	-0.150932	0.038687
	H425	H	1.035051	-0.119996	0.048450
	O426	O	0.311552	0.657606	1.566811
	H427	H	0.327377	0.634726	1.569453
	H428	H	0.312199	0.645336	1.551419
	O429	O	0.348652	0.516107	0.412062
	H430	H	0.349004	0.521205	0.411306
	H431	H	0.340737	0.527075	0.392920
