data_Molecule from HDF5

_cell_length_a		16.244176
_cell_length_b		16.235030
_cell_length_c		16.333564
_cell_angle_alpha	89.942053
_cell_angle_beta	89.923434
_cell_angle_gamma	89.901184
_symmetry_space_group_name_H-M	'P 1'
_symmetry_Int_Tables_number		1

loop_
	_symmetry_equiv_pos_as_xyz
	x,y,z

loop_
	_atom_site_label
	_atom_site_type_symbol
	_atom_site_fract_x
	_atom_site_fract_y
	_atom_site_fract_z
	H0	H	0.400705	0.836555	0.715584
	H1	H	0.598958	0.163633	0.714230
	H2	H	0.598603	0.835694	0.286421
	H3	H	0.401492	0.164318	0.285746
	H4	H	0.714250	0.402196	0.836316
	H5	H	0.713696	0.596495	0.163034
	H6	H	0.286647	0.597234	0.836061
	H7	H	0.285249	0.401819	0.163253
	H8	H	0.835494	0.713115	0.403161
	H9	H	0.164860	0.713644	0.596958
	H10	H	0.835006	0.287502	0.597499
	H11	H	0.164855	0.287935	0.403279
	H12	H	0.835818	0.402318	0.714742
	H13	H	0.163905	0.599185	0.714809
	H14	H	0.836043	0.597861	0.286989
	H15	H	0.163766	0.401544	0.285893
	H16	H	0.400668	0.715384	0.836696
	H17	H	0.596228	0.712326	0.163863
	H18	H	0.597482	0.286392	0.836320
	H19	H	0.401832	0.285474	0.163380
	H20	H	0.713499	0.835632	0.403224
	H21	H	0.711900	0.165105	0.596235
	H22	H	0.286883	0.835613	0.597901
	H23	H	0.288013	0.165511	0.403740
	H24	H	0.900953	0.335733	0.215337
	H25	H	0.097427	0.664662	0.213508
	H26	H	0.099001	0.336251	0.785673
	H27	H	0.900735	0.663747	0.786306
	H28	H	0.214818	0.902089	0.336401
	H29	H	0.213817	0.097649	0.663591
	H30	H	0.785989	0.098965	0.336701
	H31	H	0.785604	0.902305	0.663383
	H32	H	0.336262	0.213613	0.902925
	H33	H	0.664480	0.211634	0.095636
	H34	H	0.334541	0.788402	0.096357
	H35	H	0.664414	0.785900	0.903288
	H36	H	0.335272	0.901836	0.214628
	H37	H	0.664474	0.096988	0.213003
	H38	H	0.336755	0.098767	0.786307
	H39	H	0.663338	0.899236	0.785162
	H40	H	0.903598	0.213791	0.336265
	H41	H	0.097356	0.213836	0.663844
	H42	H	0.097404	0.787220	0.336221
	H43	H	0.901859	0.785676	0.663444
	H44	H	0.214185	0.335655	0.902636
	H45	H	0.213491	0.664543	0.097401
	H46	H	0.787453	0.334350	0.096215
	H47	H	0.786332	0.664404	0.902959
	H48	H	0.403620	0.116319	0.587175
	H49	H	0.590803	0.882556	0.595007
	H50	H	0.597673	0.120080	0.403414
	H51	H	0.417544	0.887216	0.411877
	H52	H	0.586594	0.403162	0.114962
	H53	H	0.588913	0.600854	0.882808
	H54	H	0.413301	0.593390	0.114078
	H55	H	0.411559	0.394413	0.881386
	H56	H	0.115583	0.595397	0.415669
	H57	H	0.885284	0.590339	0.587278
	H58	H	0.120097	0.403416	0.600930
	H59	H	0.886617	0.410209	0.417864
	H60	H	0.116427	0.402853	0.586558
	H61	H	0.883061	0.589487	0.600297
	H62	H	0.116148	0.583371	0.401382
	H63	H	0.882221	0.415458	0.396761
	H64	H	0.402238	0.600099	0.119312
	H65	H	0.601345	0.593498	0.880738
	H66	H	0.598753	0.400122	0.119264
	H67	H	0.394727	0.408969	0.881061
	H68	H	0.589739	0.116584	0.401780
	H69	H	0.592728	0.883758	0.590645
	H70	H	0.402582	0.120496	0.600116
	H71	H	0.395822	0.881755	0.412766
	H72	H	0.895652	0.622463	0.102532
	H73	H	0.089954	0.383376	0.095048
	H74	H	0.099249	0.619171	0.906390
	H75	H	0.913694	0.385862	0.910440
	H76	H	0.094026	0.906834	0.615954
	H77	H	0.093726	0.089051	0.385408
	H78	H	0.901983	0.096785	0.618983
	H79	H	0.910851	0.908499	0.385689
	H80	H	0.613622	0.085687	0.913509
	H81	H	0.383049	0.094241	0.092207
	H82	H	0.612716	0.913410	0.087572
	H83	H	0.384290	0.905543	0.912741
	H84	H	0.619406	0.908336	0.104594
	H85	H	0.383948	0.090303	0.093500
	H86	H	0.619330	0.088280	0.896968
	H87	H	0.384412	0.913390	0.905690
	H88	H	0.905148	0.088678	0.614985
	H89	H	0.090535	0.098389	0.383517
	H90	H	0.093473	0.906350	0.616262
	H91	H	0.907117	0.903582	0.382204
	H92	H	0.089780	0.618126	0.900253
	H93	H	0.093991	0.383825	0.090727
	H94	H	0.918365	0.614522	0.099441
	H95	H	0.899782	0.381511	0.910247
	H96	H	0.414964	0.116296	0.595624
	H97	H	0.595492	0.881852	0.594656
	H98	H	0.592632	0.116276	0.409952
	H99	H	0.407045	0.879503	0.393240
	H100	H	0.595877	0.412210	0.114634
	H101	H	0.590088	0.586311	0.886783
	H102	H	0.401073	0.587309	0.116163
	H103	H	0.414641	0.415494	0.888293
	H104	H	0.121935	0.601635	0.399111
	H105	H	0.881022	0.601428	0.593552
	H106	H	0.114079	0.415131	0.593512
	H107	H	0.878752	0.394819	0.404758
	H108	H	0.903125	0.614329	0.081256
	H109	H	0.095136	0.381591	0.095737
	H110	H	0.089738	0.614744	0.911107
	H111	H	0.908042	0.380077	0.898441
	H112	H	0.093823	0.906235	0.616748
	H113	H	0.099853	0.095960	0.381680
	H114	H	0.910765	0.096047	0.615884
	H115	H	0.904371	0.909232	0.384103
	H116	H	0.619773	0.102059	0.907923
	H117	H	0.381835	0.092939	0.096094
	H118	H	0.618942	0.895915	0.090478
	H119	H	0.380502	0.903689	0.902870
	C120	C	0.379220	0.008650	0.621951
	C121	C	0.621084	0.991404	0.621184
	C122	C	0.621521	0.008643	0.378063
	C123	C	0.378688	0.991923	0.378500
	C124	C	0.621707	0.377371	0.008195
	C125	C	0.621594	0.621396	0.991604
	C126	C	0.377592	0.621894	0.008206
	C127	C	0.378477	0.378345	0.991742
	C128	C	0.008694	0.621578	0.378203
	C129	C	0.991967	0.621574	0.621338
	C130	C	0.008126	0.378696	0.621766
	C131	C	0.991274	0.378867	0.378608
	C132	C	0.877749	0.508201	0.122165
	C133	C	0.121138	0.491796	0.121242
	C134	C	0.121408	0.508649	0.878213
	C135	C	0.878349	0.491279	0.878344
	C136	C	0.121933	0.878629	0.508049
	C137	C	0.121908	0.122059	0.492078
	C138	C	0.878274	0.122229	0.508567
	C139	C	0.878536	0.878750	0.491762
	C140	C	0.509070	0.120857	0.878329
	C141	C	0.491546	0.120874	0.121553
	C142	C	0.508149	0.878248	0.121880
	C143	C	0.491372	0.878273	0.878516
	C144	C	0.380927	0.885143	0.677405
	C145	C	0.618739	0.115098	0.676059
	C146	C	0.618954	0.884747	0.324008
	C147	C	0.381052	0.115461	0.323487
	C148	C	0.676544	0.380953	0.885151
	C149	C	0.676025	0.617709	0.114544
	C150	C	0.323579	0.618522	0.884825
	C151	C	0.323547	0.381363	0.114590
	C152	C	0.884844	0.676044	0.381961
	C153	C	0.115637	0.676255	0.618046
	C154	C	0.884302	0.324759	0.618508
	C155	C	0.115644	0.325119	0.382345
	C156	C	0.884590	0.381682	0.676766
	C157	C	0.115292	0.619515	0.676564
	C158	C	0.884980	0.618619	0.324488
	C159	C	0.114984	0.381309	0.323919
	C160	C	0.380444	0.676764	0.885283
	C161	C	0.617860	0.675218	0.114719
	C162	C	0.618948	0.323420	0.885037
	C163	C	0.381486	0.323539	0.114828
	C164	C	0.676208	0.884822	0.381970
	C165	C	0.675105	0.115506	0.617582
	C166	C	0.324744	0.884732	0.618535
	C167	C	0.325071	0.116183	0.382427
	C168	C	0.880775	0.384576	0.176896
	C169	C	0.118198	0.615746	0.175639
	C170	C	0.119366	0.384926	0.823360
	C171	C	0.880540	0.614972	0.823934
	C172	C	0.176827	0.881727	0.385190
	C173	C	0.176136	0.118567	0.615078
	C174	C	0.824060	0.119403	0.385384
	C175	C	0.823567	0.881600	0.614823
	C176	C	0.385195	0.175565	0.882002
	C177	C	0.615578	0.174550	0.117156
	C178	C	0.383940	0.824790	0.118084
	C179	C	0.615016	0.822902	0.881795
	C180	C	0.384470	0.881040	0.176976
	C181	C	0.615333	0.117521	0.175192
	C182	C	0.385257	0.118416	0.824371
	C183	C	0.614809	0.879435	0.823460
	C184	C	0.882238	0.176536	0.385049
	C185	C	0.118543	0.176341	0.614984
	C186	C	0.118571	0.824608	0.384957
	C187	C	0.881260	0.823768	0.614688
	C188	C	0.176528	0.384731	0.881398
	C189	C	0.175588	0.615812	0.117811
	C190	C	0.824176	0.383981	0.118050
	C191	C	0.823550	0.615128	0.881764
	C192	C	0.400751	0.095219	0.600673
	C193	C	0.599294	0.905019	0.599857
	C194	C	0.599744	0.095262	0.398890
	C195	C	0.400394	0.905191	0.399714
	C196	C	0.599906	0.398594	0.094343
	C197	C	0.599879	0.599919	0.905580
	C198	C	0.399164	0.600145	0.094283
	C199	C	0.400514	0.399933	0.905796
	C200	C	0.095424	0.599881	0.399273
	C201	C	0.905467	0.599883	0.600049
	C202	C	0.094477	0.400520	0.600069
	C203	C	0.904914	0.400359	0.400176
	C204	C	0.899418	0.594861	0.100694
	C205	C	0.099444	0.405537	0.100262
	C206	C	0.099227	0.594963	0.899476
	C207	C	0.900685	0.404837	0.899963
	C208	C	0.100236	0.900131	0.594142
	C209	C	0.100871	0.100795	0.405801
	C210	C	0.899709	0.100523	0.594456
	C211	C	0.900845	0.900881	0.406039
	C212	C	0.595356	0.098655	0.899790
	C213	C	0.405203	0.099060	0.100158
	C214	C	0.594616	0.899556	0.100648
	C215	C	0.405372	0.900970	0.900572
	Zn216	Zn	0.500380	-0.000242	0.750236
	Zn217	Zn	0.499920	-0.000212	0.250204
	Zn218	Zn	0.750414	0.499401	-0.000315
	Zn219	Zn	0.249542	0.500365	-0.000304
	Zn220	Zn	0.000387	0.749727	0.499640
	Zn221	Zn	-0.000237	0.250648	0.500011
	Zn222	Zn	-0.000020	0.500251	0.750258
	Zn223	Zn	-0.000083	0.499717	0.250191
	Zn224	Zn	0.499352	0.750108	-0.000031
	Zn225	Zn	0.500237	0.249143	-0.000165
	Zn226	Zn	0.749398	0.000589	0.499732
	Zn227	Zn	0.250852	0.000615	0.500132
	N228	N	0.413994	0.963225	0.679728
	N229	N	0.585915	0.036985	0.678486
	N230	N	0.585973	0.962826	0.321335
	N231	N	0.413839	0.037250	0.321114
	N232	N	0.678446	0.413760	0.962760
	N233	N	0.678446	0.585057	0.036908
	N234	N	0.321850	0.585075	0.962339
	N235	N	0.321777	0.414610	0.037033
	N236	N	0.962857	0.677803	0.414803
	N237	N	0.038014	0.677435	0.584355
	N238	N	0.962104	0.322915	0.584918
	N239	N	0.037775	0.323261	0.415640
	N240	N	0.962638	0.414564	0.678799
	N241	N	0.037427	0.586198	0.678711
	N242	N	0.962959	0.585293	0.322183
	N243	N	0.036864	0.414166	0.321652
	N244	N	0.413218	0.678969	0.962885
	N245	N	0.584898	0.677747	0.037136
	N246	N	0.585477	0.321326	0.962516
	N247	N	0.414960	0.321319	0.037265
	N248	N	0.677867	0.962822	0.414832
	N249	N	0.676666	0.037766	0.584085
	N250	N	0.323377	0.962547	0.584966
	N251	N	0.323392	0.038222	0.415673
	N252	N	0.913306	0.462977	0.179526
	N253	N	0.085002	0.537784	0.177946
	N254	N	0.085778	0.462901	0.821348
	N255	N	0.914018	0.536927	0.821646
	N256	N	0.179162	0.914435	0.462813
	N257	N	0.178206	0.085500	0.537536
	N258	N	0.821621	0.086189	0.463002
	N259	N	0.821666	0.914903	0.537351
	N260	N	0.463128	0.177160	0.915084
	N261	N	0.537618	0.176521	0.084197
	N262	N	0.461655	0.822970	0.084630
	N263	N	0.537442	0.822378	0.915649
	N264	N	0.462671	0.913827	0.179214
	N265	N	0.537289	0.084805	0.177850
	N266	N	0.463201	0.085081	0.822269
	N267	N	0.536935	0.912974	0.821117
	N268	N	0.915362	0.178383	0.462507
	N269	N	0.085426	0.178422	0.537438
	N270	N	0.084961	0.822740	0.462327
	N271	N	0.914906	0.821926	0.537237
	N272	N	0.177629	0.462481	0.915013
	N273	N	0.177515	0.537889	0.084681
	N274	N	0.822339	0.461828	0.084707
	N275	N	0.822314	0.537273	0.914900
