data_Molecule from HDF5

_cell_length_a		16.323000
_cell_length_b		16.360643
_cell_length_c		16.336750
_cell_angle_alpha	89.985349
_cell_angle_beta	90.153351
_cell_angle_gamma	90.211659
_symmetry_space_group_name_H-M	'P 1'
_symmetry_Int_Tables_number		1

loop_
	_symmetry_equiv_pos_as_xyz
	x,y,z

loop_
	_atom_site_label
	_atom_site_type_symbol
	_atom_site_fract_x
	_atom_site_fract_y
	_atom_site_fract_z
	H0	H	0.375722	0.848024	0.720571
	H1	H	0.589533	0.166147	0.720708
	H2	H	0.584234	0.847156	0.279158
	H3	H	0.375867	0.166786	0.278301
	H4	H	0.702206	0.400104	0.839834
	H5	H	0.701701	0.610799	0.159531
	H6	H	0.257953	0.611866	0.840083
	H7	H	0.261812	0.403047	0.160454
	H8	H	0.821046	0.725318	0.396257
	H9	H	0.141111	0.726640	0.605674
	H10	H	0.823405	0.282476	0.605857
	H11	H	0.144024	0.289836	0.398054
	H12	H	0.820790	0.399349	0.718857
	H13	H	0.141619	0.607928	0.719245
	H14	H	0.821294	0.610840	0.279630
	H15	H	0.142489	0.403690	0.280957
	H16	H	0.375652	0.725282	0.837552
	H17	H	0.588212	0.729186	0.157255
	H18	H	0.582779	0.288057	0.837728
	H19	H	0.373487	0.283042	0.157315
	H20	H	0.701129	0.847845	0.394337
	H21	H	0.705055	0.165805	0.605954
	H22	H	0.262172	0.846803	0.604267
	H23	H	0.264787	0.167779	0.397576
	H24	H	0.874989	0.346432	0.221980
	H25	H	0.083533	0.667085	0.219142
	H26	H	0.084878	0.346216	0.780360
	H27	H	0.874890	0.664570	0.778397
	H28	H	0.197755	0.904838	0.338315
	H29	H	0.202009	0.108289	0.661016
	H30	H	0.760547	0.114607	0.340237
	H31	H	0.761827	0.904314	0.659609
	H32	H	0.319695	0.224414	0.893005
	H33	H	0.641189	0.227829	0.101206
	H34	H	0.321447	0.787380	0.100368
	H35	H	0.641223	0.786035	0.892216
	H36	H	0.320763	0.903626	0.215335
	H37	H	0.642416	0.112074	0.217488
	H38	H	0.321870	0.111889	0.775428
	H39	H	0.642439	0.904635	0.779521
	H40	H	0.878567	0.228294	0.339799
	H41	H	0.087730	0.225113	0.661308
	H42	H	0.082236	0.788480	0.339525
	H43	H	0.875344	0.786316	0.659640
	H44	H	0.199176	0.346422	0.897741
	H45	H	0.202207	0.665944	0.106622
	H46	H	0.760046	0.346142	0.104988
	H47	H	0.763209	0.666712	0.896971
	H48	H	0.396860	0.119034	0.584045
	H49	H	0.573088	0.893015	0.586051
	H50	H	0.572549	0.122697	0.408766
	H51	H	0.382796	0.890280	0.408679
	H52	H	0.570940	0.415334	0.114696
	H53	H	0.565153	0.595171	0.886430
	H54	H	0.391671	0.595230	0.112636
	H55	H	0.394023	0.417771	0.886502
	H56	H	0.096201	0.595794	0.408238
	H57	H	0.866124	0.596471	0.587541
	H58	H	0.092369	0.421991	0.583378
	H59	H	0.863354	0.407731	0.407949
	H60	H	0.097370	0.421428	0.599487
	H61	H	0.867100	0.594191	0.588578
	H62	H	0.097120	0.600588	0.409917
	H63	H	0.872240	0.416446	0.422550
	H64	H	0.394526	0.597392	0.112217
	H65	H	0.572881	0.600453	0.882453
	H66	H	0.570644	0.420266	0.112831
	H67	H	0.386799	0.412005	0.882404
	H68	H	0.571177	0.121736	0.407927
	H69	H	0.571194	0.892434	0.590363
	H70	H	0.389143	0.121394	0.585858
	H71	H	0.391620	0.889432	0.399697
	H72	H	0.901797	0.617134	0.092031
	H73	H	0.070327	0.392720	0.087244
	H74	H	0.064473	0.619413	0.910624
	H75	H	0.888044	0.391570	0.912686
	H76	H	0.083237	0.920428	0.616631
	H77	H	0.073330	0.095328	0.386418
	H78	H	0.897875	0.099137	0.612897
	H79	H	0.895012	0.917798	0.386899
	H80	H	0.592334	0.091454	0.911200
	H81	H	0.365200	0.094984	0.092685
	H82	H	0.597578	0.917982	0.089885
	H83	H	0.371617	0.925615	0.912527
	H84	H	0.596317	0.915553	0.085628
	H85	H	0.365360	0.100257	0.085954
	H86	H	0.597510	0.098529	0.904066
	H87	H	0.363149	0.917198	0.898518
	H88	H	0.890294	0.094262	0.614530
	H89	H	0.071128	0.100422	0.385173
	H90	H	0.064678	0.923038	0.610731
	H91	H	0.892896	0.915285	0.385143
	H92	H	0.070199	0.619223	0.914549
	H93	H	0.072739	0.391026	0.091156
	H94	H	0.886651	0.618836	0.081443
	H95	H	0.889072	0.390149	0.906905
	H96	H	0.394711	0.121874	0.591859
	H97	H	0.568001	0.894769	0.586788
	H98	H	0.571270	0.121609	0.409189
	H99	H	0.395175	0.894230	0.410779
	H100	H	0.566146	0.416799	0.111354
	H101	H	0.574160	0.590546	0.885284
	H102	H	0.391672	0.598491	0.113679
	H103	H	0.384286	0.420824	0.885061
	H104	H	0.095835	0.597136	0.413345
	H105	H	0.864948	0.595365	0.590487
	H106	H	0.098914	0.407943	0.590230
	H107	H	0.869099	0.425781	0.406048
	H108	H	0.886147	0.625101	0.098441
	H109	H	0.068624	0.392708	0.092259
	H110	H	0.070951	0.621517	0.907816
	H111	H	0.894154	0.391915	0.910860
	H112	H	0.070438	0.905494	0.617410
	H113	H	0.076592	0.099626	0.384054
	H114	H	0.897647	0.090001	0.609606
	H115	H	0.891616	0.918932	0.385924
	H116	H	0.595330	0.101847	0.914913
	H117	H	0.369229	0.092293	0.085304
	H118	H	0.595090	0.919570	0.086695
	H119	H	0.366893	0.908248	0.914064
	C120	C	0.360940	0.015348	0.619763
	C121	C	0.603440	0.998745	0.620006
	C122	C	0.603333	0.016252	0.376772
	C123	C	0.359185	0.997868	0.375942
	C124	C	0.601190	0.385787	0.007045
	C125	C	0.602842	0.627955	0.990113
	C126	C	0.359961	0.627921	0.007059
	C127	C	0.357330	0.384727	0.990348
	C128	C	-0.009872	0.628252	0.378685
	C129	C	0.971981	0.627304	0.621444
	C130	C	-0.009382	0.383767	0.622333
	C131	C	0.974029	0.385272	0.379954
	C132	C	0.859143	0.514853	0.122527
	C133	C	0.102190	0.497789	0.121870
	C134	C	0.100952	0.514412	0.879241
	C135	C	0.858650	0.496912	0.878312
	C136	C	0.102859	0.885636	0.508620
	C137	C	0.105048	0.128770	0.491793
	C138	C	0.862250	0.128087	0.507459
	C139	C	0.860275	0.885692	0.491379
	C140	C	0.489284	0.128215	0.877070
	C141	C	0.472607	0.128837	0.119857
	C142	C	0.490524	0.885562	0.118730
	C143	C	0.472874	0.885383	0.876269
	C144	C	0.358258	0.895593	0.680126
	C145	C	0.606913	0.118422	0.680627
	C146	C	0.604052	0.895652	0.317729
	C147	C	0.358115	0.118732	0.317989
	C148	C	0.661801	0.382680	0.887500
	C149	C	0.662535	0.629978	0.110957
	C150	C	0.298530	0.630091	0.887552
	C151	C	0.300138	0.383684	0.111692
	C152	C	0.869167	0.686375	0.377522
	C153	C	0.093220	0.686203	0.623180
	C154	C	0.870741	0.323037	0.623865
	C155	C	0.095470	0.327922	0.378702
	C156	C	0.869383	0.381198	0.680115
	C157	C	0.093156	0.627559	0.680207
	C158	C	0.869274	0.629123	0.319505
	C159	C	0.094497	0.384737	0.320495
	C160	C	0.357112	0.686729	0.886250
	C161	C	0.605947	0.688847	0.109839
	C162	C	0.602228	0.326835	0.886239
	C163	C	0.355690	0.323994	0.110062
	C164	C	0.662075	0.895831	0.375436
	C165	C	0.664566	0.118315	0.623387
	C166	C	0.301441	0.894958	0.622040
	C167	C	0.302492	0.119176	0.377311
	C168	C	0.857128	0.394212	0.181894
	C169	C	0.103141	0.618552	0.180578
	C170	C	0.102897	0.394201	0.820167
	C171	C	0.856957	0.617168	0.818508
	C172	C	0.159536	0.885212	0.387067
	C173	C	0.163224	0.128150	0.612772
	C174	C	0.801167	0.131951	0.387795
	C175	C	0.801061	0.885067	0.611640
	C176	C	0.368285	0.185983	0.874692
	C177	C	0.593112	0.188373	0.120431
	C178	C	0.369382	0.826640	0.119333
	C179	C	0.593302	0.826178	0.874320
	C180	C	0.369162	0.884771	0.176477
	C181	C	0.593784	0.130561	0.178311
	C182	C	0.369446	0.129578	0.816168
	C183	C	0.594073	0.885119	0.818049
	C184	C	0.859994	0.188530	0.387733
	C185	C	0.106133	0.186156	0.612912
	C186	C	0.102269	0.827244	0.387522
	C187	C	0.857674	0.826265	0.611611
	C188	C	0.160055	0.394414	0.878583
	C189	C	0.162037	0.618076	0.124395
	C190	C	0.799616	0.394236	0.123772
	C191	C	0.801287	0.617949	0.877647
	C192	C	0.386307	0.098878	0.594480
	C193	C	0.578043	0.915273	0.594987
	C194	C	0.578798	0.100157	0.401387
	C195	C	0.382989	0.913485	0.399527
	C196	C	0.576357	0.410659	0.091032
	C197	C	0.577879	0.602674	0.906555
	C198	C	0.385401	0.603933	0.090853
	C199	C	0.381431	0.409612	0.906488
	C200	C	0.074418	0.604493	0.403433
	C201	C	0.887992	0.602454	0.596344
	C202	C	0.074378	0.409587	0.598040
	C203	C	0.890031	0.409493	0.404791
	C204	C	0.884127	0.598443	0.097764
	C205	C	0.077694	0.413814	0.097342
	C206	C	0.075834	0.598361	0.904001
	C207	C	0.883307	0.413210	0.903055
	C208	C	0.079611	0.909511	0.592981
	C209	C	0.080744	0.105276	0.407165
	C210	C	0.887829	0.102015	0.590661
	C211	C	0.885777	0.910240	0.407536
	C212	C	0.573489	0.104160	0.902694
	C213	C	0.388453	0.103354	0.095203
	C214	C	0.574459	0.910463	0.094344
	C215	C	0.388928	0.909830	0.901028
	Zn216	Zn	0.481974	0.007355	0.748074
	Zn217	Zn	0.481470	0.007201	0.248042
	Zn218	Zn	0.731006	0.506238	-0.000130
	Zn219	Zn	0.230132	0.507239	0.000474
	Zn220	Zn	-0.018667	0.756739	0.500450
	Zn221	Zn	-0.016106	0.256996	0.500571
	Zn222	Zn	-0.020202	0.505337	0.749790
	Zn223	Zn	-0.018609	0.506241	0.250866
	Zn224	Zn	0.481446	0.756729	-0.002471
	Zn225	Zn	0.479523	0.257053	-0.002483
	Zn226	Zn	0.731931	0.007583	0.498810
	Zn227	Zn	0.232133	0.006458	0.499028
	N228	N	0.394669	0.971405	0.678778
	N229	N	0.569401	0.043244	0.678495
	N230	N	0.568457	0.971566	0.318507
	N231	N	0.392532	0.042202	0.316939
	N232	N	0.661304	0.418502	0.963625
	N233	N	0.660777	0.592855	0.035504
	N234	N	0.299974	0.594422	0.963745
	N235	N	0.300900	0.420660	0.036189
	N236	N	0.945309	0.685665	0.413923
	N237	N	0.016682	0.686610	0.587848
	N238	N	0.947111	0.324472	0.588619
	N239	N	0.019436	0.327866	0.414616
	N240	N	0.944970	0.418266	0.679331
	N241	N	0.016688	0.591727	0.679182
	N242	N	0.945410	0.593672	0.320244
	N243	N	0.018072	0.419801	0.321252
	N244	N	0.394782	0.685488	0.961501
	N245	N	0.569834	0.687928	0.033747
	N246	N	0.565163	0.328754	0.961703
	N247	N	0.390537	0.324505	0.033602
	N248	N	0.661822	0.971982	0.411197
	N249	N	0.662412	0.043063	0.586072
	N250	N	0.303154	0.970353	0.585080
	N251	N	0.302947	0.042921	0.412741
	N252	N	0.893282	0.470320	0.181501
	N253	N	0.066875	0.542638	0.179258
	N254	N	0.066736	0.470031	0.820496
	N255	N	0.891741	0.540765	0.818549
	N256	N	0.160156	0.920685	0.463339
	N257	N	0.162892	0.093328	0.536272
	N258	N	0.802297	0.095020	0.463277
	N259	N	0.802866	0.921462	0.535720
	N260	N	0.443902	0.184966	0.912110
	N261	N	0.516649	0.187335	0.084892
	N262	N	0.445931	0.826919	0.084425
	N263	N	0.516967	0.826107	0.909627
	N264	N	0.445352	0.920629	0.176533
	N265	N	0.517599	0.094385	0.177975
	N266	N	0.445695	0.094460	0.817598
	N267	N	0.517995	0.920998	0.818952
	N268	N	0.897381	0.186217	0.463079
	N269	N	0.070669	0.186452	0.536523
	N270	N	0.068059	0.827054	0.464345
	N271	N	0.893895	0.826707	0.535778
	N272	N	0.158837	0.470274	0.914646
	N273	N	0.161931	0.541925	0.088981
	N274	N	0.800666	0.470190	0.087623
	N275	N	0.802127	0.542214	0.913974
	O276	O	1.121032	-0.047973	0.044513
	H277	H	1.115684	-0.040796	0.066343
	H278	H	1.120277	-0.053964	0.041695
	O279	O	0.494180	0.391377	0.494926
	H280	H	0.493012	0.407439	0.488584
	H281	H	0.480934	0.391187	0.492306
	O282	O	0.498729	0.480672	0.670560
	H283	H	0.497945	0.494466	0.672122
	H284	H	0.482570	0.469647	0.669244
	O285	O	1.137662	0.026324	0.170012
	H286	H	1.141514	0.024966	0.175062
	H287	H	1.139120	0.025763	0.170017
	O288	O	-0.016833	0.068399	1.053076
	H289	H	-0.018691	0.043979	1.048460
	H290	H	-0.025331	0.070955	1.037212
	O291	O	0.482679	0.639284	0.690673
	H292	H	0.485544	0.640018	0.705194
	H293	H	0.477985	0.633941	0.703076
	O294	O	0.382915	0.597693	0.587870
	H295	H	0.385247	0.580170	0.590473
	H296	H	0.382116	0.596333	0.562793
	O297	O	1.168580	0.889490	0.874263
	H298	H	1.176176	0.909270	0.874940
	H299	H	1.176877	0.894073	0.885069
	O300	O	-0.256056	-0.038244	-0.202976
	H301	H	-0.264259	-0.034114	-0.191139
	H302	H	-0.252613	-0.025487	-0.213590
	O303	O	0.318409	0.429633	0.550995
	H304	H	0.310293	0.426400	0.571422
	H305	H	0.314767	0.425611	0.552785
	O306	O	1.388485	-0.303895	0.298036
	H307	H	1.407226	-0.304323	0.300414
	H308	H	1.384817	-0.299698	0.290810
	O309	O	1.353840	0.710729	0.479897
	H310	H	1.337709	0.721583	0.461130
	H311	H	1.349878	0.707737	0.484659
	O312	O	0.885300	1.142263	-0.043844
	H313	H	0.899138	1.151542	-0.045264
	H314	H	0.898629	1.128726	-0.058264
	O315	O	1.029356	0.098238	-0.124204
	H316	H	1.042876	0.096704	-0.138315
	H317	H	1.037910	0.090459	-0.127510
	O318	O	0.678166	0.624685	0.466928
	H319	H	0.670847	0.618566	0.484889
	H320	H	0.682400	0.625989	0.473785
	O321	O	1.475381	0.429720	1.430809
	H322	H	1.482463	0.428181	1.419252
	H323	H	1.489064	0.417310	1.445754
	O324	O	0.071455	-0.047456	1.052890
	H325	H	0.068373	-0.055661	1.057757
	H326	H	0.069492	-0.032374	1.039739
	O327	O	0.287906	0.508455	0.360562
	H328	H	0.283672	0.508918	0.336453
	H329	H	0.284497	0.517775	0.357070
	O330	O	0.917101	-0.104996	0.867213
	H331	H	0.933352	-0.124081	0.849150
	H332	H	0.899065	-0.094142	0.874613
	O333	O	1.495705	1.409831	0.347515
	H334	H	1.501056	1.380625	0.319894
	H335	H	1.524123	1.420692	0.360362
	O336	O	0.196199	0.177582	0.025052
	H337	H	0.205288	0.185937	0.027074
	H338	H	0.194099	0.162867	0.040816
	O339	O	1.094861	0.056253	1.175364
	H340	H	1.088456	0.050136	1.170229
	H341	H	1.078183	0.055495	1.178897
	O342	O	-0.168136	0.960749	1.145881
	H343	H	-0.170929	0.972275	1.137701
	H344	H	-0.190648	0.957133	1.146158
	O345	O	0.540951	0.584296	1.360374
	H346	H	0.537726	0.571574	1.353729
	H347	H	0.548190	0.569463	1.352053
	O348	O	0.572487	0.638800	0.523917
	H349	H	0.559807	0.657628	0.508876
	H350	H	0.581620	0.641864	0.539414
	O351	O	-0.000921	-0.158673	0.096643
	H352	H	0.013707	-0.166473	0.073818
	H353	H	-0.004470	-0.154596	0.085987
	O354	O	0.897473	0.973666	-0.081590
	H355	H	0.883409	0.978708	-0.071590
	H356	H	0.902124	0.976348	-0.096529
	O357	O	-0.106426	0.863768	0.111759
	H358	H	-0.110022	0.849194	0.124315
	H359	H	-0.105873	0.879428	0.127639
	O360	O	0.600073	0.364380	0.431903
	H361	H	0.598339	0.367000	0.442964
	H362	H	0.608091	0.353445	0.435781
	O363	O	0.449845	0.597307	0.558262
	H364	H	0.456352	0.606611	0.558183
	H365	H	0.449180	0.588772	0.567890
	O366	O	0.065641	1.075573	-0.138757
	H367	H	0.066610	1.085609	-0.125239
	H368	H	0.073952	1.073729	-0.127298
	O369	O	0.430241	0.346000	0.579867
	H370	H	0.428551	0.357352	0.577113
	H371	H	0.422094	0.347968	0.577103
	O372	O	0.599655	0.592802	0.353334
	H373	H	0.591700	0.596944	0.361139
	H374	H	0.605402	0.589148	0.365275
	O375	O	0.545064	0.636908	0.657092
	H376	H	0.544708	0.622559	0.656107
	H377	H	0.520573	0.630613	0.642200
	O378	O	0.404375	0.430511	0.670630
	H379	H	0.397221	0.422447	0.672014
	H380	H	0.411762	0.418314	0.665765
	O381	O	-0.052746	0.188732	0.027886
	H382	H	-0.060996	0.201443	0.032168
	H383	H	-0.055539	0.185991	0.015778
	O384	O	-0.088606	0.880920	0.947515
	H385	H	-0.106327	0.873628	0.947614
	H386	H	-0.090604	0.883185	0.931871
	O387	O	1.181674	1.070707	-0.018220
	H388	H	1.192390	1.086879	-0.001539
	H389	H	1.174058	1.067528	-0.007669
	O390	O	0.449194	0.389229	0.550874
	H391	H	0.444283	0.399810	0.559674
	H392	H	0.442371	0.390613	0.540857
	O393	O	0.862615	-0.136851	1.187444
	H394	H	0.870601	-0.123555	1.197195
	H395	H	0.872505	-0.122482	1.189797
	O396	O	-0.045736	1.187109	0.936552
	H397	H	-0.043310	1.163656	0.932100
	H398	H	-0.053985	1.199407	0.921765
	O399	O	0.374813	0.396460	1.641859
	H400	H	0.375622	0.388666	1.643209
	H401	H	0.364892	0.405544	1.639284
	O402	O	1.054647	-0.179716	0.797763
	H403	H	1.051036	-0.190332	0.781422
	H404	H	1.066668	-0.166671	0.803813
	O405	O	-0.554867	0.518814	-0.440568
	H406	H	-0.567866	0.515000	-0.439522
	H407	H	-0.541074	0.516522	-0.441985
	O408	O	0.808228	1.023860	1.153270
	H409	H	0.804652	1.037399	1.134761
	H410	H	0.800168	1.007458	1.150006
	O411	O	0.927601	0.928886	-1.034978
	H412	H	0.922324	0.935934	-1.035182
	H413	H	0.935369	0.934289	-1.044596
	O414	O	0.667620	-0.517526	1.504581
	H415	H	0.671363	-0.504569	1.508913
	H416	H	0.652689	-0.524540	1.505473
	O417	O	0.584568	0.497611	0.319762
	H418	H	0.597918	0.520330	0.319973
	H419	H	0.594460	0.508052	0.314925
	O420	O	0.167193	1.204037	0.093209
	H421	H	0.145480	1.203467	0.114483
	H422	H	0.180095	1.217830	0.101735
	O423	O	0.802940	-0.051432	-0.044855
	H424	H	0.788885	-0.059122	-0.047554
	H425	H	0.809317	-0.052616	-0.030749
	O426	O	0.353049	0.600464	1.345673
	H427	H	0.353996	0.595234	1.342138
	H428	H	0.381771	0.612865	1.332786
	O429	O	0.664249	0.333636	0.349113
	H430	H	0.676678	0.352432	0.349503
	H431	H	0.666711	0.336115	0.375207
