data_Molecule from HDF5

_cell_length_a		16.345021
_cell_length_b		16.297170
_cell_length_c		16.233024
_cell_angle_alpha	89.862035
_cell_angle_beta	90.312960
_cell_angle_gamma	89.428379
_symmetry_space_group_name_H-M	'P 1'
_symmetry_Int_Tables_number		1

loop_
	_symmetry_equiv_pos_as_xyz
	x,y,z

loop_
	_atom_site_label
	_atom_site_type_symbol
	_atom_site_fract_x
	_atom_site_fract_y
	_atom_site_fract_z
	H0	H	0.382917	0.828329	0.704423
	H1	H	0.581667	0.152270	0.704300
	H2	H	0.586615	0.828974	0.270465
	H3	H	0.380091	0.153221	0.270004
	H4	H	0.702835	0.384457	0.827624
	H5	H	0.697955	0.587273	0.152309
	H6	H	0.263307	0.590413	0.827661
	H7	H	0.271160	0.387326	0.153489
	H8	H	0.822603	0.709940	0.386097
	H9	H	0.145366	0.706899	0.594269
	H10	H	0.821447	0.275080	0.590237
	H11	H	0.144801	0.271399	0.391245
	H12	H	0.821592	0.390362	0.706233
	H13	H	0.146400	0.588079	0.707475
	H14	H	0.822306	0.592956	0.270385
	H15	H	0.145992	0.386954	0.275711
	H16	H	0.378121	0.707079	0.826503
	H17	H	0.586473	0.706728	0.150824
	H18	H	0.582772	0.274976	0.824074
	H19	H	0.384457	0.271627	0.151005
	H20	H	0.705605	0.830955	0.382981
	H21	H	0.698692	0.153462	0.588854
	H22	H	0.266814	0.829019	0.592349
	H23	H	0.262665	0.151875	0.384504
	H24	H	0.884725	0.326893	0.207542
	H25	H	0.083568	0.650582	0.207328
	H26	H	0.085734	0.326377	0.775668
	H27	H	0.881127	0.652178	0.773445
	H28	H	0.201391	0.886312	0.326636
	H29	H	0.202027	0.091568	0.650427
	H30	H	0.765512	0.095973	0.326056
	H31	H	0.767434	0.890393	0.649753
	H32	H	0.322267	0.209273	0.883767
	H33	H	0.645122	0.203350	0.087878
	H34	H	0.322925	0.769862	0.093730
	H35	H	0.643431	0.768309	0.885356
	H36	H	0.323231	0.887482	0.208084
	H37	H	0.643182	0.093034	0.207489
	H38	H	0.321411	0.093197	0.768454
	H39	H	0.644671	0.886376	0.771549
	H40	H	0.881223	0.208932	0.326646
	H41	H	0.084953	0.205029	0.652338
	H42	H	0.087122	0.770806	0.327461
	H43	H	0.881608	0.774064	0.651246
	H44	H	0.201067	0.327120	0.891588
	H45	H	0.201884	0.648958	0.096749
	H46	H	0.766945	0.326728	0.093612
	H47	H	0.761161	0.649980	0.885831
	H48	H	0.395514	0.104821	0.578093
	H49	H	0.577870	0.876411	0.574965
	H50	H	0.574418	0.106128	0.399820
	H51	H	0.400679	0.877802	0.398278
	H52	H	0.578775	0.392697	0.107181
	H53	H	0.570588	0.579070	0.873753
	H54	H	0.391376	0.585535	0.106674
	H55	H	0.389742	0.399856	0.872348
	H56	H	0.097614	0.574844	0.399171
	H57	H	0.867370	0.590277	0.577036
	H58	H	0.100315	0.389590	0.581770
	H59	H	0.872344	0.408546	0.404583
	H60	H	0.097232	0.399379	0.578998
	H61	H	0.872292	0.575905	0.574546
	H62	H	0.100358	0.582267	0.396676
	H63	H	0.866229	0.402790	0.388664
	H64	H	0.389732	0.574860	0.105121
	H65	H	0.573159	0.577836	0.872879
	H66	H	0.576476	0.399495	0.103440
	H67	H	0.390983	0.401248	0.874393
	H68	H	0.575220	0.107736	0.393943
	H69	H	0.579151	0.874464	0.579690
	H70	H	0.391466	0.104429	0.572402
	H71	H	0.389048	0.875989	0.403259
	H72	H	0.894960	0.599575	0.071823
	H73	H	0.077433	0.371151	0.086802
	H74	H	0.073521	0.604805	0.898684
	H75	H	0.901320	0.376901	0.900352
	H76	H	0.078162	0.894823	0.606857
	H77	H	0.072716	0.076599	0.374105
	H78	H	0.899183	0.073193	0.600263
	H79	H	0.886973	0.900256	0.370103
	H80	H	0.595364	0.072852	0.899905
	H81	H	0.367280	0.083704	0.075840
	H82	H	0.596970	0.897452	0.075854
	H83	H	0.367970	0.897607	0.896136
	H84	H	0.595600	0.899478	0.076355
	H85	H	0.368794	0.079671	0.076213
	H86	H	0.601109	0.079581	0.884983
	H87	H	0.368694	0.900733	0.898912
	H88	H	0.896324	0.093455	0.606767
	H89	H	0.068828	0.083110	0.374347
	H90	H	0.079277	0.903030	0.603874
	H91	H	0.897748	0.907720	0.376364
	H92	H	0.073129	0.604733	0.900417
	H93	H	0.074490	0.374179	0.079864
	H94	H	0.883657	0.605215	0.078196
	H95	H	0.886783	0.373469	0.905648
	H96	H	0.389031	0.106801	0.578681
	H97	H	0.574613	0.875270	0.578716
	H98	H	0.569935	0.105679	0.395515
	H99	H	0.391106	0.872964	0.390594
	H100	H	0.571339	0.393780	0.103868
	H101	H	0.571090	0.575815	0.874393
	H102	H	0.400053	0.579312	0.103631
	H103	H	0.392232	0.399258	0.873220
	H104	H	0.097694	0.580951	0.404378
	H105	H	0.867293	0.580066	0.589047
	H106	H	0.100034	0.397849	0.589515
	H107	H	0.866587	0.391707	0.403001
	H108	H	0.895873	0.604478	0.085503
	H109	H	0.081618	0.372149	0.080647
	H110	H	0.074938	0.605050	0.900073
	H111	H	0.891011	0.370176	0.890790
	H112	H	0.071135	0.899417	0.602750
	H113	H	0.075790	0.082665	0.372295
	H114	H	0.880117	0.079196	0.607023
	H115	H	0.899737	0.893490	0.372418
	H116	H	0.600837	0.090082	0.899232
	H117	H	0.366763	0.081877	0.079284
	H118	H	0.597251	0.898354	0.078237
	H119	H	0.367877	0.900868	0.894656
	C120	C	0.362344	-0.001045	0.608109
	C121	C	0.605701	0.982270	0.608863
	C122	C	0.605266	-0.000051	0.365607
	C123	C	0.361574	0.982465	0.366075
	C124	C	0.605485	0.365956	-0.002832
	C125	C	0.602823	0.608231	0.980861
	C126	C	0.361003	0.611114	-0.001656
	C127	C	0.362583	0.368570	0.980708
	C128	C	-0.007572	0.611424	0.367915
	C129	C	0.975636	0.611527	0.611768
	C130	C	-0.007862	0.367151	0.612929
	C131	C	0.975197	0.369493	0.369416
	C132	C	0.862092	0.496807	0.110760
	C133	C	0.106778	0.479534	0.112962
	C134	C	0.104568	0.497605	0.870300
	C135	C	0.861115	0.480472	0.867799
	C136	C	0.106636	0.867824	0.497647
	C137	C	0.103577	0.110322	0.480726
	C138	C	0.861164	0.113236	0.497498
	C139	C	0.863728	0.870124	0.479722
	C140	C	0.492155	0.111990	0.864335
	C141	C	0.474256	0.111055	0.107934
	C142	C	0.491374	0.867665	0.109632
	C143	C	0.474161	0.867537	0.865672
	C144	C	0.363492	0.876998	0.665919
	C145	C	0.602814	0.103985	0.666044
	C146	C	0.606103	0.878028	0.308522
	C147	C	0.360755	0.104311	0.308400
	C148	C	0.663389	0.365929	0.875638
	C149	C	0.659923	0.607466	0.103606
	C150	C	0.302224	0.610617	0.876136
	C151	C	0.308256	0.368328	0.103966
	C152	C	0.871134	0.670591	0.366682
	C153	C	0.097292	0.667764	0.612497
	C154	C	0.870044	0.312641	0.610708
	C155	C	0.096623	0.310471	0.370976
	C156	C	0.870392	0.369966	0.668688
	C157	C	0.097626	0.608963	0.669320
	C158	C	0.871018	0.612436	0.309058
	C159	C	0.097365	0.368236	0.313783
	C160	C	0.359422	0.668369	0.875603
	C161	C	0.604026	0.666675	0.102625
	C162	C	0.603716	0.311185	0.873894
	C163	C	0.365006	0.310701	0.102817
	C164	C	0.665601	0.878994	0.364495
	C165	C	0.660670	0.104619	0.608299
	C166	C	0.305517	0.877372	0.610111
	C167	C	0.302286	0.103591	0.365518
	C168	C	0.864299	0.375279	0.168930
	C169	C	0.104209	0.601710	0.169399
	C170	C	0.104619	0.375298	0.813858
	C171	C	0.860628	0.603067	0.811152
	C172	C	0.163433	0.867399	0.375618
	C173	C	0.162527	0.110546	0.602412
	C174	C	0.803939	0.114491	0.375053
	C175	C	0.806243	0.870836	0.601402
	C176	C	0.370522	0.170361	0.864038
	C177	C	0.596382	0.166197	0.107889
	C178	C	0.370860	0.809712	0.111512
	C179	C	0.595107	0.807654	0.865497
	C180	C	0.371052	0.867907	0.168937
	C181	C	0.595321	0.111107	0.167059
	C182	C	0.370031	0.112372	0.807043
	C183	C	0.595794	0.866645	0.808965
	C184	C	0.861372	0.171064	0.375282
	C185	C	0.104016	0.166781	0.603381
	C186	C	0.106529	0.809606	0.375935
	C187	C	0.862869	0.812564	0.602038
	C188	C	0.162556	0.375636	0.871109
	C189	C	0.163064	0.600942	0.114251
	C190	C	0.805780	0.375284	0.112116
	C191	C	0.800894	0.601773	0.866843
	C192	C	0.385211	0.083292	0.583454
	C193	C	0.583699	0.897515	0.584763
	C194	C	0.580427	0.084641	0.389521
	C195	C	0.386382	0.897390	0.390349
	C196	C	0.582384	0.388511	0.082799
	C197	C	0.578859	0.584484	0.895846
	C198	C	0.386230	0.587103	0.082952
	C199	C	0.384654	0.392864	0.895377
	C200	C	0.076581	0.586588	0.392817
	C201	C	0.891178	0.588797	0.587309
	C202	C	0.077155	0.389098	0.590068
	C203	C	0.890498	0.393903	0.392100
	C204	C	0.884860	0.581153	0.085821
	C205	C	0.084380	0.394527	0.089153
	C206	C	0.080838	0.582765	0.893123
	C207	C	0.885810	0.395718	0.891888
	C208	C	0.083183	0.891841	0.582539
	C209	C	0.079476	0.087429	0.395651
	C210	C	0.885044	0.089120	0.582876
	C211	C	0.887854	0.893613	0.394935
	C212	C	0.576856	0.087845	0.887868
	C213	C	0.389804	0.088410	0.084040
	C214	C	0.574848	0.891521	0.084213
	C215	C	0.389988	0.892544	0.889548
	Zn216	Zn	0.482773	-0.010581	0.736844
	Zn217	Zn	0.482909	-0.009188	0.237177
	Zn218	Zn	0.732513	0.488020	-0.010454
	Zn219	Zn	0.233819	0.489093	-0.008431
	Zn220	Zn	-0.015467	0.740376	0.489790
	Zn221	Zn	-0.017189	0.239606	0.489546
	Zn222	Zn	-0.016212	0.489618	0.740886
	Zn223	Zn	-0.015290	0.488993	0.239451
	Zn224	Zn	0.482870	0.738571	-0.011733
	Zn225	Zn	0.483545	0.239316	-0.012978
	Zn226	Zn	0.734708	-0.008467	0.487170
	Zn227	Zn	0.233565	-0.010083	0.488771
	N228	N	0.398295	0.953466	0.664897
	N229	N	0.569498	0.026939	0.666535
	N230	N	0.569277	0.954192	0.309206
	N231	N	0.396785	0.027752	0.308699
	N232	N	0.664568	0.399212	0.953262
	N233	N	0.659047	0.571680	0.026912
	N234	N	0.302733	0.575980	0.953523
	N235	N	0.306712	0.403825	0.027032
	N236	N	0.947508	0.670282	0.402436
	N237	N	0.020369	0.669667	0.577430
	N238	N	0.947010	0.310331	0.577072
	N239	N	0.019813	0.311076	0.404907
	N240	N	0.947428	0.402981	0.670243
	N241	N	0.021034	0.574915	0.669024
	N242	N	0.947580	0.576597	0.309522
	N243	N	0.020861	0.404117	0.312527
	N244	N	0.395173	0.668898	0.952395
	N245	N	0.569227	0.667111	0.025306
	N246	N	0.568513	0.310960	0.950574
	N247	N	0.398033	0.310620	0.025135
	N248	N	0.665375	0.955996	0.399172
	N249	N	0.662804	0.027668	0.573681
	N250	N	0.304797	0.954065	0.574608
	N251	N	0.302536	0.026517	0.400446
	N252	N	0.898881	0.451880	0.168177
	N253	N	0.069982	0.525135	0.168878
	N254	N	0.069269	0.452185	0.813161
	N255	N	0.896921	0.526709	0.811451
	N256	N	0.163687	0.902705	0.452405
	N257	N	0.162342	0.076060	0.525222
	N258	N	0.803703	0.079192	0.452066
	N259	N	0.806520	0.905781	0.524326
	N260	N	0.447428	0.170541	0.898753
	N261	N	0.520176	0.166453	0.071488
	N262	N	0.446658	0.809425	0.075376
	N263	N	0.518413	0.807676	0.899707
	N264	N	0.447039	0.903320	0.167816
	N265	N	0.518614	0.077453	0.167299
	N266	N	0.446585	0.076826	0.807076
	N267	N	0.519349	0.903022	0.808631
	N268	N	0.896222	0.170417	0.452506
	N269	N	0.067812	0.166599	0.526782
	N270	N	0.071785	0.809700	0.452894
	N271	N	0.897961	0.811895	0.525297
	N272	N	0.162627	0.452650	0.905603
	N273	N	0.164717	0.523998	0.079667
	N274	N	0.804396	0.451771	0.076476
	N275	N	0.800923	0.524477	0.901281
	O276	O	0.526477	0.323178	0.397174
	H277	H	0.531396	0.326382	0.399490
	H278	H	0.531860	0.307290	0.380237
	O279	O	0.935898	1.001795	0.937320
	H280	H	0.938624	1.007727	0.930244
	H281	H	0.941415	1.006688	0.938667
	O282	O	1.085676	-0.004689	1.079422
	H283	H	1.078833	-0.004972	1.075056
	H284	H	1.085445	-0.018521	1.086638
	O285	O	1.107417	-0.150354	0.903138
	H286	H	1.114883	-0.172372	0.895860
	H287	H	1.090028	-0.147313	0.912839
	O288	O	1.050732	0.924974	0.813944
	H289	H	1.064332	0.930691	0.820409
	H290	H	1.047970	0.926450	0.815110
	O291	O	0.062047	1.026811	0.079646
	H292	H	0.060950	1.020743	0.075748
	H293	H	0.064581	1.033826	0.081416
	O294	O	0.412131	0.603123	0.343201
	H295	H	0.427964	0.594178	0.339961
	H296	H	0.418822	0.590906	0.347504
	O297	O	1.070046	0.936296	0.990007
	H298	H	1.066601	0.932184	0.999666
	H299	H	1.061303	0.937800	0.975400
	O300	O	0.335984	0.588863	0.474656
	H301	H	0.334034	0.590900	0.451156
	H302	H	0.322261	0.598883	0.469647
	O303	O	0.580278	0.472495	0.668035
	H304	H	0.582049	0.456156	0.665136
	H305	H	0.580642	0.471913	0.676620
	O306	O	0.543762	0.573094	0.326719
	H307	H	0.543187	0.580607	0.306856
	H308	H	0.556578	0.576519	0.346137
	O309	O	0.623014	0.444205	0.547648
	H310	H	0.618698	0.453567	0.549907
	H311	H	0.624532	0.452896	0.549581
	O312	O	-0.192854	0.013307	0.124770
	H313	H	-0.200903	-0.000533	0.128492
	H314	H	-0.172247	0.003874	0.136005
	O315	O	0.410465	0.471632	0.404861
	H316	H	0.409799	0.495110	0.408044
	H317	H	0.400012	0.472495	0.386329
	O318	O	0.106540	1.121393	1.150697
	H319	H	0.104446	1.116604	1.153736
	H320	H	0.109618	1.120904	1.160341
	O321	O	0.411109	0.521971	0.436190
	H322	H	0.417475	0.537915	0.438222
	H323	H	0.411598	0.516195	0.436458
	O324	O	-0.515326	1.512004	-0.382337
	H325	H	-0.516042	1.499867	-0.392079
	H326	H	-0.524702	1.515841	-0.391762
	O327	O	0.405184	0.401409	0.515607
	H328	H	0.397562	0.409504	0.513512
	H329	H	0.404970	0.405481	0.519492
	O330	O	0.011125	0.148850	0.891439
	H331	H	0.010763	0.165404	0.896274
	H332	H	0.015350	0.130364	0.891231
	O333	O	-0.388017	0.597653	1.554877
	H334	H	-0.388365	0.593868	1.553359
	H335	H	-0.370829	0.598792	1.563952
	O336	O	0.449465	0.521801	0.486650
	H337	H	0.444032	0.527206	0.477016
	H338	H	0.449133	0.526413	0.498200
	O339	O	0.813624	0.180028	-0.117304
	H340	H	0.817513	0.198499	-0.118926
	H341	H	0.809617	0.175028	-0.134433
	O342	O	-0.057430	-0.009983	0.139103
	H343	H	-0.056840	-0.013300	0.151307
	H344	H	-0.051894	-0.020308	0.136966
	O345	O	1.066248	-0.004256	1.144159
	H346	H	1.073948	-0.002973	1.144883
	H347	H	1.072746	-0.002911	1.147522
	O348	O	0.918462	0.946218	-0.151139
	H349	H	0.913851	0.961142	-0.157161
	H350	H	0.917468	0.953107	-0.150720
	O351	O	0.332566	0.512421	0.443210
	H352	H	0.333187	0.501543	0.449573
	H353	H	0.325292	0.496759	0.445534
	O354	O	1.166418	0.004193	0.887494
	H355	H	1.186132	-0.003039	0.888443
	H356	H	1.157348	0.006381	0.898984
	O357	O	-0.162020	-0.152944	1.042648
	H358	H	-0.161594	-0.172718	1.056177
	H359	H	-0.167034	-0.156629	1.050926
	O360	O	0.517381	0.641113	0.534653
	H361	H	0.520004	0.633280	0.536442
	H362	H	0.525548	0.652302	0.554480
	O363	O	-0.039071	0.890417	0.971973
	H364	H	-0.043955	0.890077	0.986984
	H365	H	-0.046490	0.916982	0.971537
	O366	O	1.064309	1.182269	-0.074030
	H367	H	1.061656	1.207110	-0.073637
	H368	H	1.082971	1.168299	-0.052043
	O369	O	0.394127	0.400117	0.438041
	H370	H	0.394622	0.417358	0.430292
	H371	H	0.395911	0.408373	0.440314
	O372	O	0.447991	0.392086	0.533913
	H373	H	0.455742	0.389000	0.523547
	H374	H	0.447700	0.401366	0.545142
	O375	O	0.496256	0.428107	0.513779
	H376	H	0.497905	0.440336	0.524626
	H377	H	0.485322	0.431769	0.521880
	O378	O	0.807095	1.018789	-0.133652
	H379	H	0.798137	1.030064	-0.121957
	H380	H	0.823032	1.011609	-0.135701
	O381	O	1.019716	-0.109653	-0.079621
	H382	H	1.025284	-0.107060	-0.078882
	H383	H	1.017690	-0.110621	-0.073733
	O384	O	1.663648	0.639477	0.559584
	H385	H	1.671130	0.641899	0.571807
	H386	H	1.673238	0.650868	0.573801
	O387	O	0.082669	-0.071087	0.000154
	H388	H	0.062928	-0.076360	-0.022459
	H389	H	0.073403	-0.053396	-0.001046
	O390	O	0.486450	1.412864	0.603336
	H391	H	0.465910	1.407467	0.604579
	H392	H	0.490384	1.391970	0.593241
	O393	O	0.878770	0.814451	1.056293
	H394	H	0.873428	0.822493	1.032129
	H395	H	0.903613	0.813090	1.059791
	O396	O	0.570418	0.479843	0.359409
	H397	H	0.567931	0.478012	0.377908
	H398	H	0.585079	0.478943	0.358402
	O399	O	0.525148	0.328782	1.479357
	H400	H	0.520671	0.336684	1.481569
	H401	H	0.532723	0.324756	1.488790
	O402	O	0.461631	0.668479	0.495748
	H403	H	0.478011	0.663155	0.494707
	H404	H	0.461987	0.681567	0.507752
	O405	O	0.866425	0.991811	0.074712
	H406	H	0.872829	1.004445	0.080169
	H407	H	0.861316	0.993655	0.071315
	O408	O	0.905866	1.174176	-0.065275
	H409	H	0.925039	1.183592	-0.076081
	H410	H	0.892694	1.159572	-0.080764
	O411	O	1.020250	-0.209039	1.078004
	H412	H	1.030843	-0.222896	1.062593
	H413	H	1.025848	-0.209037	1.067613
	O414	O	0.956955	0.001622	-0.162179
	H415	H	0.950380	0.023369	-0.139489
	H416	H	0.945711	-0.004757	-0.176171
	O417	O	0.420779	0.518743	0.494160
	H418	H	0.436143	0.513637	0.499703
	H419	H	0.425146	0.518784	0.506196
