data_Molecule from HDF5

_cell_length_a		16.345166
_cell_length_b		16.220217
_cell_length_c		16.035244
_cell_angle_alpha	90.685257
_cell_angle_beta	89.188926
_cell_angle_gamma	89.975722
_symmetry_space_group_name_H-M	'P 1'
_symmetry_Int_Tables_number		1

loop_
	_symmetry_equiv_pos_as_xyz
	x,y,z

loop_
	_atom_site_label
	_atom_site_type_symbol
	_atom_site_fract_x
	_atom_site_fract_y
	_atom_site_fract_z
	H0	H	0.409638	0.834151	0.699804
	H1	H	0.601304	0.164998	0.697022
	H2	H	0.605547	0.835219	0.267747
	H3	H	0.413175	0.165387	0.280325
	H4	H	0.726029	0.396590	0.821245
	H5	H	0.718988	0.601235	0.152354
	H6	H	0.296838	0.598340	0.820908
	H7	H	0.290446	0.401527	0.151145
	H8	H	0.844730	0.710999	0.389649
	H9	H	0.169236	0.715476	0.586640
	H10	H	0.844166	0.283036	0.587964
	H11	H	0.169809	0.278880	0.381651
	H12	H	0.844268	0.400170	0.703965
	H13	H	0.172130	0.595655	0.697764
	H14	H	0.842742	0.591524	0.277855
	H15	H	0.170415	0.396891	0.267145
	H16	H	0.412186	0.709998	0.819868
	H17	H	0.604327	0.716621	0.151254
	H18	H	0.610150	0.282992	0.821557
	H19	H	0.408897	0.291576	0.154053
	H20	H	0.724215	0.833913	0.380662
	H21	H	0.724368	0.160724	0.588536
	H22	H	0.289610	0.834361	0.589108
	H23	H	0.290186	0.160788	0.387207
	H24	H	0.910459	0.331284	0.194723
	H25	H	0.100922	0.662566	0.201801
	H26	H	0.106684	0.333128	0.770950
	H27	H	0.914219	0.663218	0.778650
	H28	H	0.226348	0.891951	0.321672
	H29	H	0.217708	0.098679	0.652458
	H30	H	0.799398	0.091887	0.320195
	H31	H	0.789304	0.895459	0.649874
	H32	H	0.344789	0.214503	0.891856
	H33	H	0.670730	0.217169	0.086577
	H34	H	0.345392	0.785983	0.088017
	H35	H	0.669757	0.781655	0.879911
	H36	H	0.344267	0.904403	0.202184
	H37	H	0.672330	0.097649	0.198036
	H38	H	0.343332	0.097654	0.777527
	H39	H	0.670493	0.900250	0.767344
	H40	H	0.910274	0.206991	0.320974
	H41	H	0.103191	0.213000	0.651399
	H42	H	0.107759	0.780572	0.320533
	H43	H	0.908408	0.788217	0.652906
	H44	H	0.228172	0.335731	0.881813
	H45	H	0.222151	0.663216	0.089279
	H46	H	0.787168	0.336418	0.088331
	H47	H	0.794708	0.662004	0.888036
	H48	H	0.420651	0.110970	0.573597
	H49	H	0.605162	0.879635	0.575435
	H50	H	0.608307	0.114209	0.401486
	H51	H	0.415160	0.881279	0.394007
	H52	H	0.593224	0.404964	0.103717
	H53	H	0.609566	0.598516	0.862391
	H54	H	0.421255	0.594693	0.102948
	H55	H	0.421660	0.402839	0.867727
	H56	H	0.124830	0.584130	0.384498
	H57	H	0.892121	0.594114	0.579867
	H58	H	0.121302	0.409354	0.573581
	H59	H	0.890476	0.395799	0.398425
	H60	H	0.125287	0.403592	0.582292
	H61	H	0.892300	0.587833	0.584371
	H62	H	0.124901	0.596583	0.395679
	H63	H	0.892356	0.407086	0.393666
	H64	H	0.409806	0.601710	0.109197
	H65	H	0.609072	0.579228	0.869298
	H66	H	0.605119	0.407221	0.108309
	H67	H	0.414304	0.405218	0.866172
	H68	H	0.610897	0.118764	0.390139
	H69	H	0.596115	0.881124	0.580606
	H70	H	0.399665	0.117527	0.575567
	H71	H	0.417785	0.881869	0.394172
	H72	H	0.915403	0.611823	0.071647
	H73	H	0.109379	0.378519	0.075843
	H74	H	0.096728	0.612736	0.899550
	H75	H	0.914199	0.379263	0.889946
	H76	H	0.097345	0.908722	0.603356
	H77	H	0.096355	0.093692	0.367123
	H78	H	0.915253	0.088713	0.605479
	H79	H	0.911595	0.891604	0.361576
	H80	H	0.623756	0.084757	0.885011
	H81	H	0.391297	0.096393	0.083184
	H82	H	0.622326	0.911733	0.075407
	H83	H	0.390711	0.901606	0.896504
	H84	H	0.625711	0.906389	0.077773
	H85	H	0.390726	0.096549	0.085584
	H86	H	0.627546	0.102146	0.889632
	H87	H	0.392309	0.907318	0.897603
	H88	H	0.913171	0.092264	0.607062
	H89	H	0.109849	0.083762	0.365475
	H90	H	0.096751	0.905680	0.604138
	H91	H	0.909819	0.910587	0.367723
	H92	H	0.111443	0.616694	0.899112
	H93	H	0.096091	0.381447	0.079147
	H94	H	0.901964	0.619398	0.084724
	H95	H	0.922507	0.382997	0.896881
	H96	H	0.411856	0.119253	0.593197
	H97	H	0.596396	0.883562	0.569898
	H98	H	0.599217	0.115625	0.393274
	H99	H	0.416508	0.883447	0.395548
	H100	H	0.598483	0.417222	0.102950
	H101	H	0.592292	0.589983	0.870809
	H102	H	0.408755	0.587427	0.105240
	H103	H	0.420190	0.410594	0.868784
	H104	H	0.120020	0.582731	0.400471
	H105	H	0.889149	0.594432	0.587382
	H106	H	0.123703	0.398955	0.572401
	H107	H	0.888185	0.398704	0.386940
	H108	H	0.920740	0.615561	0.091026
	H109	H	0.101020	0.384851	0.066055
	H110	H	0.102703	0.617315	0.886247
	H111	H	0.912316	0.381387	0.900186
	H112	H	0.099443	0.906270	0.605090
	H113	H	0.095869	0.076440	0.371400
	H114	H	0.911664	0.088402	0.605699
	H115	H	0.927323	0.901578	0.369769
	H116	H	0.620437	0.090744	0.902879
	H117	H	0.389947	0.097521	0.084732
	H118	H	0.623295	0.906905	0.071028
	H119	H	0.390888	0.905173	0.891671
	C120	C	0.382837	0.007267	0.609719
	C121	C	0.628233	0.989674	0.606304
	C122	C	0.632445	0.007252	0.363427
	C123	C	0.387532	0.990221	0.366746
	C124	C	0.629773	0.378575	-0.004278
	C125	C	0.630065	0.620717	0.977198
	C126	C	0.386906	0.621692	-0.004554
	C127	C	0.388268	0.379089	0.977750
	C128	C	0.015530	0.616586	0.366328
	C129	C	0.999052	0.620621	0.610361
	C130	C	0.015868	0.375580	0.607258
	C131	C	0.998358	0.372132	0.362298
	C132	C	0.884006	0.507002	0.109700
	C133	C	0.129214	0.489881	0.106234
	C134	C	0.132709	0.507262	0.863729
	C135	C	0.888485	0.489783	0.867357
	C136	C	0.129226	0.875027	0.495256
	C137	C	0.127810	0.116541	0.477489
	C138	C	0.886494	0.116954	0.495846
	C139	C	0.886381	0.874555	0.476408
	C140	C	0.515813	0.121209	0.865818
	C141	C	0.499288	0.124052	0.110997
	C142	C	0.516367	0.879244	0.106608
	C143	C	0.498752	0.876326	0.863136
	C144	C	0.387663	0.883409	0.663169
	C145	C	0.623850	0.114406	0.661155
	C146	C	0.627210	0.883846	0.305868
	C147	C	0.391287	0.115188	0.315182
	C148	C	0.687328	0.377851	0.870978
	C149	C	0.682540	0.620844	0.102325
	C150	C	0.333885	0.618185	0.870258
	C151	C	0.329941	0.381893	0.102194
	C152	C	0.892970	0.672441	0.369537
	C153	C	0.121082	0.676876	0.606953
	C154	C	0.893133	0.320911	0.607360
	C155	C	0.121213	0.317186	0.362470
	C156	C	0.893158	0.379192	0.665054
	C157	C	0.122526	0.617249	0.662260
	C158	C	0.891875	0.612992	0.313995
	C159	C	0.121446	0.375719	0.305233
	C160	C	0.390998	0.673943	0.869844
	C161	C	0.625448	0.678090	0.101687
	C162	C	0.629562	0.321103	0.871177
	C163	C	0.388815	0.327287	0.103585
	C164	C	0.686509	0.883270	0.361924
	C165	C	0.684951	0.112424	0.606813
	C166	C	0.327649	0.883662	0.608311
	C167	C	0.329965	0.112760	0.368447
	C168	C	0.888203	0.381661	0.160399
	C169	C	0.123739	0.613474	0.163809
	C170	C	0.129035	0.382941	0.807401
	C171	C	0.892852	0.614156	0.814813
	C172	C	0.187496	0.873369	0.371020
	C173	C	0.181035	0.117500	0.602406
	C174	C	0.834677	0.112777	0.370212
	C175	C	0.828314	0.876543	0.600701
	C176	C	0.393326	0.176705	0.870370
	C177	C	0.621976	0.179191	0.107291
	C178	C	0.393850	0.824259	0.106995
	C179	C	0.621210	0.820265	0.861444
	C180	C	0.393350	0.883290	0.163841
	C181	C	0.622887	0.119746	0.162585
	C182	C	0.392385	0.118100	0.813905
	C183	C	0.621525	0.879042	0.805150
	C184	C	0.889944	0.170285	0.370563
	C185	C	0.124063	0.174402	0.602070
	C186	C	0.128364	0.817903	0.370452
	C187	C	0.887565	0.822978	0.602372
	C188	C	0.189196	0.384306	0.862780
	C189	C	0.183730	0.613764	0.107634
	C190	C	0.826985	0.384219	0.107459
	C191	C	0.833390	0.613302	0.869270
	C192	C	0.404324	0.093607	0.587468
	C193	C	0.605862	0.903617	0.582370
	C194	C	0.612163	0.093841	0.387810
	C195	C	0.409945	0.904471	0.388107
	C196	C	0.605840	0.402728	0.082674
	C197	C	0.609690	0.596494	0.889892
	C198	C	0.407310	0.600900	0.083009
	C199	C	0.411826	0.400113	0.890367
	C200	C	0.101056	0.594382	0.387381
	C201	C	0.913414	0.598632	0.589860
	C202	C	0.101458	0.397360	0.583057
	C203	C	0.912517	0.393941	0.386096
	C204	C	0.906181	0.593198	0.088715
	C205	C	0.108168	0.403781	0.081122
	C206	C	0.110313	0.593292	0.887776
	C207	C	0.909822	0.403597	0.889191
	C208	C	0.105038	0.899629	0.581924
	C209	C	0.106809	0.091917	0.390476
	C210	C	0.907232	0.095991	0.583308
	C211	C	0.909607	0.894996	0.389046
	C212	C	0.601527	0.099120	0.886296
	C213	C	0.413123	0.103097	0.090501
	C214	C	0.601592	0.901761	0.081924
	C215	C	0.413518	0.898261	0.887816
	Zn216	Zn	0.506521	-0.000339	0.736201
	Zn217	Zn	0.508959	0.000992	0.237058
	Zn218	Zn	0.758134	0.499277	-0.013023
	Zn219	Zn	0.260776	0.500008	-0.014710
	Zn220	Zn	0.007045	0.747642	0.486854
	Zn221	Zn	0.006810	0.244174	0.485706
	Zn222	Zn	0.008145	0.498031	0.737755
	Zn223	Zn	0.006344	0.496153	0.235644
	Zn224	Zn	0.507699	0.748322	-0.014846
	Zn225	Zn	0.507785	0.251095	-0.011955
	Zn226	Zn	0.759912	-0.003457	0.485760
	Zn227	Zn	0.256514	-0.003118	0.486580
	N228	N	0.420928	0.961275	0.664440
	N229	N	0.589273	0.036975	0.661093
	N230	N	0.594428	0.961978	0.306770
	N231	N	0.426610	0.038234	0.314006
	N232	N	0.687561	0.412845	0.949472
	N233	N	0.685668	0.585880	0.023757
	N234	N	0.331015	0.586409	0.949558
	N235	N	0.329672	0.413609	0.022863
	N236	N	0.970857	0.674877	0.401452
	N237	N	0.043354	0.679070	0.575347
	N238	N	0.970470	0.318837	0.572026
	N239	N	0.043765	0.314711	0.397029
	N240	N	0.970481	0.412566	0.665336
	N241	N	0.045649	0.583015	0.664695
	N242	N	0.968915	0.578906	0.311892
	N243	N	0.043899	0.408968	0.305041
	N244	N	0.423270	0.676214	0.948653
	N245	N	0.593681	0.678275	0.022716
	N246	N	0.594493	0.321387	0.949766
	N247	N	0.424389	0.325459	0.025344
	N248	N	0.689700	0.961048	0.397074
	N249	N	0.687885	0.033837	0.573523
	N250	N	0.324687	0.961751	0.575738
	N251	N	0.327293	0.034203	0.399804
	N252	N	0.922973	0.458962	0.162157
	N253	N	0.090649	0.535469	0.162972
	N254	N	0.094596	0.460469	0.807883
	N255	N	0.926393	0.536314	0.813475
	N256	N	0.188103	0.908082	0.449668
	N257	N	0.183346	0.082078	0.523937
	N258	N	0.832238	0.080455	0.449173
	N259	N	0.827549	0.908040	0.521583
	N260	N	0.471022	0.178573	0.902085
	N261	N	0.543923	0.182210	0.076172
	N262	N	0.471148	0.821767	0.072016
	N263	N	0.544028	0.818368	0.896838
	N264	N	0.470747	0.916840	0.163777
	N265	N	0.545468	0.086502	0.165381
	N266	N	0.469698	0.084437	0.810656
	N267	N	0.544464	0.913185	0.805903
	N268	N	0.921333	0.173030	0.449696
	N269	N	0.091823	0.174031	0.523271
	N270	N	0.092843	0.818738	0.448945
	N271	N	0.923183	0.821393	0.523986
	N272	N	0.191533	0.462486	0.896927
	N273	N	0.187215	0.535843	0.072605
	N274	N	0.824214	0.463137	0.076876
	N275	N	0.830328	0.534920	0.901118
	O276	O	0.490682	0.504481	0.540373
	H277	H	0.474622	0.507216	0.541655
	H278	H	0.498896	0.509541	0.543743
	O279	O	0.576608	0.633816	0.499306
	H280	H	0.579051	0.630402	0.495454
	H281	H	0.582969	0.639126	0.491674
	O282	O	0.917762	0.957351	-0.004885
	H283	H	0.930003	0.963781	-0.000441
	H284	H	0.919421	0.940645	-0.004328
	O285	O	1.101597	0.034439	1.053502
	H286	H	1.110219	0.033469	1.058012
	H287	H	1.106104	0.017354	1.040100
	O288	O	0.052366	0.947599	1.025158
	H289	H	0.046184	0.948924	1.025344
	H290	H	0.048957	0.953177	1.007141
	O291	O	0.599282	0.424568	0.487230
	H292	H	0.600473	0.431857	0.495229
	H293	H	0.595955	0.417116	0.483255
	O294	O	0.081621	-0.115948	0.979093
	H295	H	0.086661	-0.109543	0.986099
	H296	H	0.072744	-0.118330	0.978346
	O297	O	0.192878	-0.073523	0.834218
	H298	H	0.188843	-0.098167	0.825451
	H299	H	0.210015	-0.083176	0.816408
	O300	O	0.545180	0.550381	0.440733
	H301	H	0.552150	0.540808	0.431292
	H302	H	0.552667	0.555539	0.436480
	O303	O	0.558926	0.545624	-0.386890
	H304	H	0.558574	0.547071	-0.371730
	H305	H	0.559610	0.539828	-0.381924
	O306	O	0.022743	1.053631	1.040179
	H307	H	0.025653	1.066142	1.051215
	H308	H	0.013464	1.053780	1.030118
	O309	O	0.496424	0.397592	0.490026
	H310	H	0.487019	0.403080	0.501847
	H311	H	0.486972	0.386778	0.493636
	O312	O	-0.038479	0.162655	-0.037228
	H313	H	-0.035768	0.158054	-0.027039
	H314	H	-0.027619	0.157332	-0.038267
	O315	O	0.935785	-0.028109	-0.043116
	H316	H	0.921909	-0.019672	-0.044669
	H317	H	0.927151	-0.025090	-0.036783
	O318	O	0.944864	1.093570	0.893746
	H319	H	0.940336	1.111826	0.880663
	H320	H	0.939278	1.094836	0.905843
	O321	O	0.539720	0.535962	1.512421
	H322	H	0.534575	0.539958	1.517159
	H323	H	0.531848	0.530988	1.517366
	O324	O	0.412522	0.461437	0.450295
	H325	H	0.412113	0.457173	0.442097
	H326	H	0.413988	0.455630	0.448009
	O327	O	-0.057606	-0.012831	0.049547
	H328	H	-0.047821	-0.002388	0.051415
	H329	H	-0.060629	-0.010661	0.047276
	O330	O	0.605730	0.445381	0.381216
	H331	H	0.609284	0.445062	0.385783
	H332	H	0.617698	0.427522	0.373383
	O333	O	0.009563	0.907710	1.020286
	H334	H	0.007832	0.915198	1.013323
	H335	H	0.010753	0.908145	1.027778
	O336	O	0.109986	-0.158499	-0.139642
	H337	H	0.093344	-0.166287	-0.138397
	H338	H	0.093749	-0.167024	-0.142440
	O339	O	0.427934	0.532070	0.426458
	H340	H	0.433838	0.538329	0.424386
	H341	H	0.429081	0.536386	0.422167
	O342	O	1.039864	1.075711	0.959119
	H343	H	1.049587	1.059522	0.951498
	H344	H	1.036974	1.081413	0.956740
	O345	O	1.085021	0.989067	-0.037131
	H346	H	1.089382	0.988562	-0.042343
	H347	H	1.081294	0.988257	-0.045908
	O348	O	0.446136	0.471506	0.585260
	H349	H	0.440011	0.473922	0.593715
	H350	H	0.450627	0.471843	0.579330
	O351	O	0.534613	0.445926	0.534857
	H352	H	0.524387	0.444143	0.532051
	H353	H	0.542470	0.446701	0.540601
	O354	O	0.536291	0.486930	0.434875
	H355	H	0.541167	0.485846	0.449002
	H356	H	0.539387	0.487342	0.438592
	O357	O	0.427441	0.515048	1.426114
	H358	H	0.424679	0.527498	1.423397
	H359	H	0.426039	0.516664	1.419352
	O360	O	0.470789	0.443618	0.561877
	H361	H	0.478557	0.432588	0.549679
	H362	H	0.471248	0.457051	0.560555
	O363	O	0.922201	1.058350	0.945798
	H364	H	0.915172	1.065340	0.943934
	H365	H	0.923432	1.054785	0.957849
	O366	O	0.985477	1.017938	1.036136
	H367	H	0.998607	1.018775	1.020422
	H368	H	0.985658	1.026116	1.033261
	O369	O	0.938410	-0.040574	1.045208
	H370	H	0.953560	-0.037306	1.060003
	H371	H	0.943366	-0.036265	1.052754
	O372	O	0.017012	0.042501	0.088870
	H373	H	0.022501	0.050797	0.110159
	H374	H	0.015888	0.035804	0.090485
	O375	O	0.454972	-0.462242	0.489642
	H376	H	0.445565	-0.465393	0.493895
	H377	H	0.450173	-0.455361	0.486127
	O378	O	0.573996	0.522105	0.455448
	H379	H	0.564937	0.513569	0.450798
	H380	H	0.576359	0.520191	0.460666
	O381	O	0.454079	0.525997	0.427780
	H382	H	0.449742	0.522186	0.419562
	H383	H	0.463161	0.538640	0.423987
