data_Molecule from HDF5

_cell_length_a		16.348324
_cell_length_b		16.252713
_cell_length_c		16.077361
_cell_angle_alpha	90.027943
_cell_angle_beta	90.271959
_cell_angle_gamma	89.954403
_symmetry_space_group_name_H-M	'P 1'
_symmetry_Int_Tables_number		1

loop_
	_symmetry_equiv_pos_as_xyz
	x,y,z

loop_
	_atom_site_label
	_atom_site_type_symbol
	_atom_site_fract_x
	_atom_site_fract_y
	_atom_site_fract_z
	H0	H	0.418165	0.842843	0.701841
	H1	H	0.610045	0.172187	0.702578
	H2	H	0.610544	0.842678	0.276470
	H3	H	0.417301	0.171830	0.276519
	H4	H	0.725822	0.407057	0.823428
	H5	H	0.730708	0.607265	0.153322
	H6	H	0.298051	0.606369	0.823588
	H7	H	0.299273	0.405583	0.153310
	H8	H	0.851345	0.723281	0.386693
	H9	H	0.175796	0.723292	0.591133
	H10	H	0.850798	0.290825	0.587586
	H11	H	0.176698	0.291151	0.390240
	H12	H	0.849639	0.410015	0.699915
	H13	H	0.176989	0.603081	0.703711
	H14	H	0.850354	0.603504	0.273892
	H15	H	0.178119	0.409165	0.276955
	H16	H	0.413638	0.721155	0.823680
	H17	H	0.613052	0.720009	0.154379
	H18	H	0.610329	0.293327	0.823792
	H19	H	0.416020	0.294475	0.154276
	H20	H	0.730897	0.844249	0.387842
	H21	H	0.730450	0.170643	0.591702
	H22	H	0.297939	0.844338	0.591305
	H23	H	0.297091	0.169951	0.387806
	H24	H	0.919064	0.340960	0.200446
	H25	H	0.110478	0.670960	0.202065
	H26	H	0.109362	0.341479	0.776533
	H27	H	0.916729	0.670358	0.776344
	H28	H	0.227870	0.906881	0.323970
	H29	H	0.229598	0.107035	0.654085
	H30	H	0.797590	0.107701	0.325306
	H31	H	0.800463	0.907352	0.654633
	H32	H	0.351391	0.222229	0.889343
	H33	H	0.676140	0.222761	0.090570
	H34	H	0.350883	0.790867	0.088270
	H35	H	0.676143	0.789491	0.888958
	H36	H	0.349693	0.909640	0.202839
	H37	H	0.677635	0.102722	0.202651
	H38	H	0.350341	0.105196	0.774715
	H39	H	0.677823	0.909332	0.776990
	H40	H	0.913722	0.220049	0.324552
	H41	H	0.113570	0.221308	0.654151
	H42	H	0.111459	0.793213	0.323170
	H43	H	0.915263	0.792317	0.653991
	H44	H	0.228930	0.342710	0.888164
	H45	H	0.231660	0.668635	0.091911
	H46	H	0.798416	0.342614	0.089099
	H47	H	0.796431	0.668886	0.886769
	H48	H	0.429005	0.120428	0.576129
	H49	H	0.606327	0.890305	0.585226
	H50	H	0.610792	0.124614	0.401611
	H51	H	0.419622	0.890304	0.397798
	H52	H	0.607548	0.407259	0.109292
	H53	H	0.617711	0.595500	0.868478
	H54	H	0.415822	0.604998	0.110291
	H55	H	0.421231	0.409144	0.869042
	H56	H	0.127411	0.603408	0.406469
	H57	H	0.898932	0.592964	0.585482
	H58	H	0.132475	0.410778	0.588901
	H59	H	0.898342	0.406058	0.404241
	H60	H	0.130569	0.406710	0.577035
	H61	H	0.894063	0.608031	0.584907
	H62	H	0.127950	0.590350	0.394878
	H63	H	0.900991	0.423532	0.395019
	H64	H	0.418046	0.589192	0.105234
	H65	H	0.597645	0.588646	0.876043
	H66	H	0.614592	0.418950	0.108401
	H67	H	0.415235	0.414672	0.869096
	H68	H	0.609177	0.125078	0.393115
	H69	H	0.607575	0.892316	0.579173
	H70	H	0.411964	0.124641	0.575671
	H71	H	0.420114	0.890379	0.396700
	H72	H	0.920544	0.623702	0.084376
	H73	H	0.105255	0.394015	0.067761
	H74	H	0.106551	0.624850	0.891663
	H75	H	0.915788	0.384982	0.885802
	H76	H	0.102830	0.920280	0.604469
	H77	H	0.095661	0.087368	0.377101
	H78	H	0.913204	0.096492	0.610123
	H79	H	0.917685	0.910480	0.369027
	H80	H	0.629825	0.106362	0.903453
	H81	H	0.398252	0.105752	0.073964
	H82	H	0.629221	0.913465	0.081809
	H83	H	0.395769	0.908100	0.894372
	H84	H	0.629909	0.913413	0.082804
	H85	H	0.399653	0.092836	0.083372
	H86	H	0.628123	0.093720	0.897979
	H87	H	0.400022	0.914191	0.901710
	H88	H	0.928583	0.093411	0.604137
	H89	H	0.100764	0.113748	0.368010
	H90	H	0.104275	0.908290	0.608180
	H91	H	0.917494	0.921606	0.371839
	H92	H	0.102154	0.620472	0.899916
	H93	H	0.121513	0.384833	0.084453
	H94	H	0.925982	0.620928	0.076785
	H95	H	0.925919	0.391524	0.897951
	H96	H	0.420870	0.127557	0.590522
	H97	H	0.612539	0.889313	0.582657
	H98	H	0.602506	0.121972	0.398707
	H99	H	0.420706	0.890444	0.397146
	H100	H	0.601314	0.418300	0.104843
	H101	H	0.600431	0.609410	0.868505
	H102	H	0.430687	0.600001	0.104984
	H103	H	0.422331	0.417136	0.871945
	H104	H	0.133422	0.605379	0.390773
	H105	H	0.898897	0.601277	0.572279
	H106	H	0.127790	0.419310	0.580893
	H107	H	0.892790	0.408107	0.384594
	H108	H	0.916833	0.622423	0.076126
	H109	H	0.098703	0.389499	0.091405
	H110	H	0.111934	0.623403	0.901011
	H111	H	0.910283	0.387816	0.901044
	H112	H	0.114167	0.916365	0.608940
	H113	H	0.121159	0.094502	0.368399
	H114	H	0.924060	0.108681	0.610104
	H115	H	0.927746	0.914672	0.372520
	H116	H	0.633149	0.103954	0.890235
	H117	H	0.393404	0.106164	0.089431
	H118	H	0.629230	0.912684	0.081913
	H119	H	0.398222	0.917944	0.892133
	C120	C	0.392733	0.015909	0.610350
	C121	C	0.636842	0.998907	0.611748
	C122	C	0.635954	0.015711	0.368344
	C123	C	0.391674	0.998365	0.367576
	C124	C	0.635191	0.385495	-0.001941
	C125	C	0.634819	0.627303	0.980135
	C126	C	0.392317	0.627016	-0.002446
	C127	C	0.392265	0.385190	0.979516
	C128	C	0.022119	0.628599	0.366994
	C129	C	1.004949	0.628876	0.610655
	C130	C	0.022066	0.384278	0.610391
	C131	C	1.005484	0.383896	0.366585
	C132	C	0.893000	0.514223	0.108882
	C133	C	0.136676	0.497462	0.111047
	C134	C	0.135018	0.514429	0.868339
	C135	C	0.890042	0.496885	0.866440
	C136	C	0.135172	0.885666	0.497834
	C137	C	0.135073	0.127781	0.480478
	C138	C	0.892909	0.127890	0.498439
	C139	C	0.892665	0.886114	0.480594
	C140	C	0.522438	0.129283	0.867793
	C141	C	0.505076	0.129704	0.111484
	C142	C	0.521602	0.884993	0.110958
	C143	C	0.505419	0.884522	0.867493
	C144	C	0.396963	0.892080	0.664802
	C145	C	0.632420	0.122640	0.666155
	C146	C	0.632128	0.891958	0.313539
	C147	C	0.395455	0.122508	0.313057
	C148	C	0.689053	0.386866	0.873064
	C149	C	0.691848	0.626516	0.104150
	C150	C	0.336185	0.626044	0.873066
	C151	C	0.337359	0.386618	0.104103
	C152	C	0.899683	0.684519	0.367413
	C153	C	0.127362	0.684548	0.610342
	C154	C	0.899394	0.329402	0.607388
	C155	C	0.128119	0.329066	0.369531
	C156	C	0.898710	0.388389	0.663493
	C157	C	0.127927	0.624795	0.666369
	C158	C	0.899184	0.625035	0.311297
	C159	C	0.128804	0.387849	0.313311
	C160	C	0.393551	0.683012	0.873034
	C161	C	0.633416	0.682573	0.104602
	C162	C	0.631032	0.330876	0.873260
	C163	C	0.395413	0.331201	0.104581
	C164	C	0.691828	0.892701	0.369303
	C165	C	0.692106	0.121956	0.611015
	C166	C	0.336842	0.893016	0.610034
	C167	C	0.335512	0.121345	0.368223
	C168	C	0.897175	0.390355	0.163652
	C169	C	0.132360	0.621504	0.165469
	C170	C	0.130931	0.390798	0.813619
	C171	C	0.894838	0.620851	0.812688
	C172	C	0.190081	0.887102	0.373343
	C173	C	0.191394	0.126665	0.604739
	C174	C	0.836202	0.126616	0.374477
	C175	C	0.837993	0.887532	0.605075
	C176	C	0.399927	0.184642	0.868992
	C177	C	0.627779	0.184407	0.109774
	C178	C	0.399387	0.829349	0.108763
	C179	C	0.627846	0.828280	0.869204
	C180	C	0.398781	0.888208	0.165817
	C181	C	0.628600	0.124896	0.165746
	C182	C	0.399461	0.126259	0.812102
	C183	C	0.628584	0.887724	0.813475
	C184	C	0.894462	0.182334	0.373909
	C185	C	0.133434	0.183227	0.605011
	C186	C	0.131999	0.830786	0.372841
	C187	C	0.894775	0.829904	0.604567
	C188	C	0.190288	0.391402	0.869197
	C189	C	0.192298	0.620401	0.110376
	C190	C	0.837482	0.391160	0.108018
	C191	C	0.835189	0.620187	0.867747
	C192	C	0.414255	0.101898	0.587521
	C193	C	0.615216	0.912833	0.589016
	C194	C	0.614088	0.101586	0.391090
	C195	C	0.413689	0.912623	0.390529
	C196	C	0.614253	0.408202	0.085081
	C197	C	0.612022	0.604578	0.893502
	C198	C	0.414980	0.604714	0.084246
	C199	C	0.413391	0.407216	0.892585
	C200	C	0.107437	0.606465	0.390522
	C201	C	0.919389	0.607307	0.587605
	C202	C	0.107942	0.405801	0.588810
	C203	C	0.919438	0.405825	0.388403
	C204	C	0.914613	0.600151	0.085822
	C205	C	0.114908	0.411502	0.088049
	C206	C	0.113241	0.600566	0.891000
	C207	C	0.911131	0.410548	0.888376
	C208	C	0.113375	0.908053	0.584658
	C209	C	0.112465	0.105187	0.393581
	C210	C	0.915299	0.105932	0.585826
	C211	C	0.914609	0.908933	0.393588
	C212	C	0.608201	0.107756	0.890605
	C213	C	0.419237	0.108058	0.088709
	C214	C	0.607375	0.906973	0.088823
	C215	C	0.420002	0.906743	0.889678
	Zn216	Zn	0.513971	0.007149	0.739093
	Zn217	Zn	0.513607	0.007192	0.239604
	Zn218	Zn	0.762580	0.505809	-0.011565
	Zn219	Zn	0.264492	0.506055	-0.010983
	Zn220	Zn	0.013642	0.758054	0.488503
	Zn221	Zn	0.013719	0.255375	0.488999
	Zn222	Zn	0.013093	0.505664	0.739495
	Zn223	Zn	0.014431	0.505997	0.238238
	Zn224	Zn	0.513491	0.755098	-0.011057
	Zn225	Zn	0.513433	0.258448	-0.010446
	Zn226	Zn	0.764917	0.007343	0.490277
	Zn227	Zn	0.263400	0.006797	0.489350
	N228	N	0.430821	0.969489	0.665368
	N229	N	0.598791	0.045202	0.666752
	N230	N	0.597933	0.969391	0.312889
	N231	N	0.429693	0.045159	0.312478
	N232	N	0.691577	0.420264	0.951589
	N233	N	0.693076	0.593009	0.025651
	N234	N	0.335174	0.591954	0.951541
	N235	N	0.335290	0.419778	0.025348
	N236	N	0.977029	0.686560	0.401627
	N237	N	0.050090	0.686957	0.576314
	N238	N	0.977271	0.326667	0.575136
	N239	N	0.050379	0.326585	0.401952
	N240	N	0.975909	0.421820	0.665433
	N241	N	0.050852	0.590761	0.666741
	N242	N	0.976309	0.591093	0.310788
	N243	N	0.051384	0.421204	0.311188
	N244	N	0.427834	0.683752	0.951225
	N245	N	0.598620	0.683067	0.026631
	N246	N	0.598326	0.329801	0.951930
	N247	N	0.428651	0.330015	0.026322
	N248	N	0.694377	0.970593	0.402456
	N249	N	0.695006	0.043906	0.577855
	N250	N	0.334157	0.971033	0.576745
	N251	N	0.333217	0.043332	0.401573
	N252	N	0.930926	0.467853	0.164277
	N253	N	0.098553	0.544029	0.165982
	N254	N	0.097146	0.468322	0.812987
	N255	N	0.928036	0.543231	0.811632
	N256	N	0.192407	0.920466	0.452092
	N257	N	0.192397	0.092782	0.526211
	N258	N	0.835209	0.093441	0.453105
	N259	N	0.836556	0.921894	0.526877
	N260	N	0.477413	0.186610	0.902952
	N261	N	0.549829	0.187501	0.076928
	N262	N	0.476825	0.827229	0.075512
	N263	N	0.550359	0.826244	0.902211
	N264	N	0.475900	0.921988	0.167373
	N265	N	0.551386	0.091623	0.166903
	N266	N	0.476544	0.092346	0.811493
	N267	N	0.551458	0.921857	0.811998
	N268	N	0.928909	0.183120	0.452075
	N269	N	0.099282	0.184070	0.526728
	N270	N	0.098735	0.829727	0.451351
	N271	N	0.928100	0.829134	0.526089
	N272	N	0.192727	0.469317	0.902690
	N273	N	0.194889	0.542386	0.077174
	N274	N	0.834770	0.469193	0.074569
	N275	N	0.831864	0.541996	0.900266
	O276	O	1.008022	0.919161	0.014893
	H277	H	1.005510	0.923973	0.022140
	H278	H	1.007611	0.918829	0.012177
	O279	O	0.076508	0.025625	0.924838
	H280	H	0.076848	0.017277	0.919571
	H281	H	0.073004	0.017808	0.920982
	O282	O	-0.017103	-0.069148	0.061273
	H283	H	-0.028684	-0.070966	0.070770
	H284	H	-0.018113	-0.082100	0.061039
	O285	O	0.515508	0.519395	0.536464
	H286	H	0.506454	0.525646	0.527525
	H287	H	0.518619	0.520465	0.535730
	O288	O	-0.926781	-1.006088	0.033870
	H289	H	-0.922020	-1.003045	0.031812
	H290	H	-0.930813	-0.993220	0.036336
	O291	O	-0.005010	0.958583	-0.050543
	H292	H	-0.008864	0.956165	-0.055532
	H293	H	0.005962	0.967755	-0.056503
	O294	O	0.022719	1.071484	-0.102236
	H295	H	0.030533	1.078602	-0.104926
	H296	H	0.022027	1.069626	-0.110124
	O297	O	0.515679	0.541596	0.489172
	H298	H	0.511476	0.535770	0.491568
	H299	H	0.517933	0.553782	0.497429
	O300	O	0.484062	0.570567	0.472151
	H301	H	0.485199	0.582261	0.469545
	H302	H	0.480523	0.581466	0.468314
	O303	O	0.937398	-0.024043	1.008522
	H304	H	0.937019	-0.027054	1.003475
	H305	H	0.940470	-0.022332	1.010642
	O306	O	0.023325	1.031212	1.046688
	H307	H	0.017984	1.030205	1.046637
	H308	H	0.026022	1.038378	1.048401
	O309	O	-0.002511	1.060345	0.988684
	H310	H	-0.004184	1.059058	0.988627
	H311	H	-0.010103	1.055632	0.990643
	O312	O	0.029203	0.018762	1.021679
	H313	H	0.033591	0.021206	1.033478
	H314	H	0.034760	0.018165	1.021448
	O315	O	0.486510	0.551465	0.473179
	H316	H	0.483974	0.570123	0.474125
	H317	H	0.496358	0.549512	0.481845
	O318	O	0.042198	0.024517	1.025033
	H319	H	0.033168	0.033283	1.021799
	H320	H	0.045939	0.019455	1.024743
	O321	O	0.566007	0.528510	0.416117
	H322	H	0.566283	0.525625	0.411396
	H323	H	0.563964	0.530936	0.415289
	O324	O	0.500641	-0.461593	1.516124
	H325	H	0.499003	-0.465796	1.516316
	H326	H	0.496160	-0.469163	1.509743
	O327	O	0.992847	1.002579	1.019509
	H328	H	0.989809	0.999684	1.020256
	H329	H	0.991621	0.998924	1.021727
	O330	O	0.060757	0.033309	0.974696
	H331	H	0.058086	0.038825	0.970400
	H332	H	0.067852	0.029882	0.982930
	O333	O	0.559066	0.573576	0.485317
	H334	H	0.565715	0.587014	0.485350
	H335	H	0.557488	0.569723	0.496756
	O336	O	0.519000	0.589367	0.467571
	H337	H	0.518467	0.575272	0.467557
	H338	H	0.535784	0.583326	0.476346
	O339	O	0.492020	0.559477	0.385280
	H340	H	0.500619	0.551886	0.391769
	H341	H	0.493637	0.565732	0.368566
	O342	O	0.558884	0.582389	0.570985
	H343	H	0.550010	0.581264	0.574657
	H344	H	0.558435	0.577121	0.566361
	O345	O	0.499848	0.556942	0.472411
	H346	H	0.490906	0.559691	0.469728
	H347	H	0.490596	0.548158	0.464662
