data_Molecule from HDF5

_cell_length_a		16.547288
_cell_length_b		16.527363
_cell_length_c		16.507108
_cell_angle_alpha	90.143772
_cell_angle_beta	90.070491
_cell_angle_gamma	90.167384
_symmetry_space_group_name_H-M	'P 1'
_symmetry_Int_Tables_number		1

loop_
	_symmetry_equiv_pos_as_xyz
	x,y,z

loop_
	_atom_site_label
	_atom_site_type_symbol
	_atom_site_fract_x
	_atom_site_fract_y
	_atom_site_fract_z
	H0	H	0.398078	0.857386	0.743517
	H1	H	0.609352	0.171255	0.749270
	H2	H	0.604374	0.857271	0.303483
	H3	H	0.397706	0.171703	0.304309
	H4	H	0.723759	0.407570	0.868896
	H5	H	0.722841	0.620013	0.182233
	H6	H	0.282677	0.614734	0.867441
	H7	H	0.279484	0.408644	0.182727
	H8	H	0.844343	0.736126	0.418347
	H9	H	0.158317	0.733746	0.627756
	H10	H	0.843538	0.291367	0.630621
	H11	H	0.158299	0.294115	0.421984
	H12	H	0.843346	0.409834	0.746551
	H13	H	0.158556	0.616469	0.743838
	H14	H	0.845055	0.620636	0.300539
	H15	H	0.158794	0.410763	0.305647
	H16	H	0.399368	0.731683	0.866895
	H17	H	0.606477	0.736710	0.181529
	H18	H	0.606654	0.292077	0.868534
	H19	H	0.396784	0.292774	0.182792
	H20	H	0.721627	0.857949	0.419289
	H21	H	0.724869	0.171856	0.631864
	H22	H	0.278679	0.859185	0.628895
	H23	H	0.282130	0.172856	0.421703
	H24	H	0.897319	0.355790	0.245260
	H25	H	0.105624	0.671326	0.246097
	H26	H	0.099385	0.354903	0.808294
	H27	H	0.896257	0.671601	0.805366
	H28	H	0.220033	0.910401	0.365563
	H29	H	0.218336	0.115608	0.683045
	H30	H	0.778164	0.120640	0.367134
	H31	H	0.778966	0.910615	0.680798
	H32	H	0.344364	0.233567	0.923040
	H33	H	0.657336	0.238459	0.133867
	H34	H	0.343798	0.792548	0.128148
	H35	H	0.659502	0.795399	0.922061
	H36	H	0.344168	0.908165	0.245369
	H37	H	0.657498	0.120871	0.248647
	H38	H	0.344583	0.116696	0.805533
	H39	H	0.659476	0.912259	0.806101
	H40	H	0.895677	0.235135	0.366133
	H41	H	0.101087	0.231770	0.683658
	H42	H	0.103111	0.794432	0.365945
	H43	H	0.895972	0.795101	0.682173
	H44	H	0.217010	0.354666	0.924507
	H45	H	0.222230	0.671093	0.130391
	H46	H	0.778591	0.356574	0.131332
	H47	H	0.780132	0.670271	0.921608
	H48	H	0.411657	0.126292	0.612118
	H49	H	0.591411	0.903522	0.611128
	H50	H	0.585297	0.123684	0.441646
	H51	H	0.406834	0.901203	0.436234
	H52	H	0.584529	0.422418	0.136401
	H53	H	0.592727	0.600139	0.912801
	H54	H	0.412775	0.607476	0.140115
	H55	H	0.404848	0.426146	0.911427
	H56	H	0.109295	0.597271	0.440728
	H57	H	0.884818	0.610581	0.616761
	H58	H	0.112772	0.423797	0.614418
	H59	H	0.889486	0.427369	0.434831
	H60	H	0.112844	0.424806	0.617656
	H61	H	0.890144	0.603376	0.609743
	H62	H	0.114451	0.603096	0.428987
	H63	H	0.887976	0.423509	0.434882
	H64	H	0.409254	0.602204	0.138311
	H65	H	0.587107	0.602875	0.913617
	H66	H	0.595500	0.424366	0.139774
	H67	H	0.414816	0.426665	0.916001
	H68	H	0.594571	0.127155	0.438705
	H69	H	0.592071	0.902585	0.615827
	H70	H	0.408502	0.129535	0.616221
	H71	H	0.411126	0.900794	0.431571
	H72	H	0.909922	0.626954	0.115080
	H73	H	0.094499	0.399166	0.114173
	H74	H	0.096545	0.628751	0.933723
	H75	H	0.914649	0.403115	0.936502
	H76	H	0.091914	0.923041	0.637888
	H77	H	0.087279	0.102252	0.412624
	H78	H	0.908979	0.100445	0.637214
	H79	H	0.908334	0.926053	0.410690
	H80	H	0.612680	0.100310	0.937944
	H81	H	0.389495	0.103747	0.113461
	H82	H	0.611682	0.927399	0.111100
	H83	H	0.388928	0.918784	0.939839
	H84	H	0.612388	0.928349	0.115111
	H85	H	0.390016	0.102878	0.113554
	H86	H	0.615112	0.103719	0.933150
	H87	H	0.390030	0.929612	0.932409
	H88	H	0.916744	0.101652	0.633129
	H89	H	0.090220	0.108922	0.409675
	H90	H	0.091757	0.925368	0.637680
	H91	H	0.914356	0.928589	0.414391
	H92	H	0.090209	0.627524	0.933023
	H93	H	0.088783	0.400258	0.118109
	H94	H	0.917819	0.624340	0.115246
	H95	H	0.910970	0.402008	0.938545
	H96	H	0.414296	0.128308	0.617355
	H97	H	0.588129	0.904517	0.613774
	H98	H	0.586998	0.127374	0.432329
	H99	H	0.412561	0.903616	0.436889
	H100	H	0.589483	0.433272	0.135135
	H101	H	0.592004	0.606107	0.911248
	H102	H	0.415374	0.602521	0.136829
	H103	H	0.411644	0.417511	0.910451
	H104	H	0.113013	0.610459	0.440805
	H105	H	0.887291	0.600148	0.620636
	H106	H	0.113876	0.422231	0.616952
	H107	H	0.889553	0.425170	0.438271
	H108	H	0.913428	0.623468	0.108701
	H109	H	0.088972	0.402913	0.111667
	H110	H	0.093438	0.626605	0.939204
	H111	H	0.911472	0.400816	0.934651
	H112	H	0.090340	0.923723	0.636998
	H113	H	0.095389	0.102649	0.410217
	H114	H	0.912707	0.108252	0.637194
	H115	H	0.914200	0.921832	0.411632
	H116	H	0.614498	0.106424	0.939067
	H117	H	0.388963	0.103303	0.114350
	H118	H	0.613272	0.924345	0.113931
	H119	H	0.384806	0.918220	0.927621
	C120	C	0.380167	0.023739	0.646132
	C121	C	0.623220	1.007279	0.646528
	C122	C	0.621400	0.022844	0.404185
	C123	C	0.379040	1.006014	0.402910
	C124	C	0.622421	0.393210	0.033877
	C125	C	0.623183	0.635657	1.016487
	C126	C	0.380897	0.634584	0.033802
	C127	C	0.379399	0.391996	1.016842
	C128	C	0.008890	0.635761	0.403521
	C129	C	0.991767	0.635986	0.646873
	C130	C	0.008583	0.392499	0.647141
	C131	C	0.992869	0.393317	0.404457
	C132	C	0.880960	0.521286	0.145881
	C133	C	0.123202	0.504710	0.147155
	C134	C	0.122447	0.522537	0.904726
	C135	C	0.879709	0.505517	0.904275
	C136	C	0.122277	0.892987	0.532778
	C137	C	0.121606	0.135545	0.515650
	C138	C	0.879707	0.136075	0.532229
	C139	C	0.879579	0.893520	0.516017
	C140	C	0.510203	0.134851	0.904913
	C141	C	0.492699	0.136256	0.147312
	C142	C	0.508805	0.893837	0.145058
	C143	C	0.492579	0.891670	0.902413
	C144	C	0.378460	0.905022	0.704854
	C145	C	0.626786	0.124652	0.708140
	C146	C	0.623414	0.904448	0.343700
	C147	C	0.378493	0.124564	0.343888
	C148	C	0.682982	0.390037	0.915811
	C149	C	0.682768	0.638246	0.135233
	C150	C	0.322646	0.634107	0.914438
	C151	C	0.319956	0.390289	0.135629
	C152	C	0.891114	0.695718	0.400535
	C153	C	0.110840	0.694276	0.647074
	C154	C	0.890329	0.332284	0.648873
	C155	C	0.111113	0.333801	0.403065
	C156	C	0.890268	0.390806	0.706547
	C157	C	0.111090	0.636067	0.704792
	C158	C	0.891670	0.638246	0.341965
	C159	C	0.111484	0.391896	0.345436
	C160	C	0.380523	0.692146	0.914386
	C161	C	0.624947	0.696217	0.134680
	C162	C	0.625053	0.332243	0.915673
	C163	C	0.378232	0.332894	0.135874
	C164	C	0.681784	0.904862	0.400964
	C165	C	0.684295	0.124659	0.649664
	C166	C	0.319661	0.905735	0.647647
	C167	C	0.321085	0.125200	0.402183
	C168	C	0.878797	0.402885	0.205722
	C169	C	0.124337	0.623897	0.206267
	C170	C	0.119914	0.402480	0.847383
	C171	C	0.877843	0.624068	0.845307
	C172	C	0.180895	0.891622	0.413473
	C173	C	0.179127	0.135290	0.635652
	C174	C	0.818926	0.138434	0.414059
	C175	C	0.819275	0.892087	0.634037
	C176	C	0.391469	0.193853	0.903639
	C177	C	0.610297	0.197486	0.151178
	C178	C	0.390783	0.833036	0.146655
	C179	C	0.611971	0.834298	0.902582
	C180	C	0.390840	0.890555	0.204922
	C181	C	0.610440	0.138907	0.208362
	C182	C	0.391724	0.135904	0.845354
	C183	C	0.611914	0.892376	0.844901
	C184	C	0.877144	0.195756	0.413828
	C185	C	0.120823	0.192764	0.635830
	C186	C	0.122627	0.833889	0.413583
	C187	C	0.877228	0.834466	0.634646
	C188	C	0.178428	0.402496	0.904932
	C189	C	0.182567	0.623664	0.148859
	C190	C	0.819653	0.403398	0.149125
	C191	C	0.819694	0.623330	0.902634
	C192	C	0.404550	0.106496	0.622099
	C193	C	0.597775	0.924909	0.620975
	C194	C	0.596103	0.104726	0.430144
	C195	C	0.403335	0.923258	0.427696
	C196	C	0.596940	0.419127	0.115848
	C197	C	0.598037	0.610157	0.933982
	C198	C	0.405258	0.610692	0.116964
	C199	C	0.403746	0.416287	0.934143
	C200	C	0.090955	0.610707	0.429431
	C201	C	0.908881	0.611884	0.622653
	C202	C	0.091564	0.416725	0.623097
	C203	C	0.910425	0.418237	0.428874
	C204	C	0.906336	0.603400	0.120341
	C205	C	0.098141	0.422222	0.122074
	C206	C	0.099888	0.605870	0.928371
	C207	C	0.905104	0.423252	0.929416
	C208	C	0.098513	0.917190	0.615747
	C209	C	0.097937	0.111597	0.432559
	C210	C	0.905449	0.110483	0.614422
	C211	C	0.905116	0.918379	0.433623
	C212	C	0.592684	0.110590	0.929838
	C213	C	0.410618	0.110757	0.121268
	C214	C	0.591021	0.919566	0.120352
	C215	C	0.409500	0.915439	0.926235
	Zn216	Zn	0.502038	0.014378	0.775218
	Zn217	Zn	0.501056	0.013991	0.274694
	Zn218	Zn	0.751488	0.513753	0.025762
	Zn219	Zn	0.251539	0.513641	0.025688
	Zn220	Zn	0.000083	0.764791	0.525058
	Zn221	Zn	0.000327	0.264428	0.524878
	Zn222	Zn	0.000571	0.514313	0.775719
	Zn223	Zn	0.001323	0.513556	0.274853
	Zn224	Zn	0.501325	0.764136	0.025240
	Zn225	Zn	0.501490	0.264364	0.025754
	Zn226	Zn	0.751555	0.015083	0.523905
	Zn227	Zn	0.250976	0.015040	0.524044
	N228	N	0.415277	0.979557	0.704235
	N229	N	0.589415	0.050430	0.706096
	N230	N	0.586820	0.978950	0.345301
	N231	N	0.413550	0.049266	0.344074
	N232	N	0.681703	0.426856	0.990191
	N233	N	0.681790	0.601330	0.060714
	N234	N	0.322677	0.599104	0.989898
	N235	N	0.320639	0.426357	0.060757
	N236	N	0.965009	0.694311	0.438107
	N237	N	0.035571	0.694394	0.611857
	N238	N	0.965045	0.333198	0.612729
	N239	N	0.036276	0.334609	0.438771
	N240	N	0.964749	0.427522	0.705529
	N241	N	0.035864	0.600798	0.705055
	N242	N	0.966057	0.601708	0.343680
	N243	N	0.036791	0.428129	0.346003
	N244	N	0.416047	0.692363	0.989554
	N245	N	0.588593	0.694629	0.059817
	N246	N	0.588015	0.334069	0.990088
	N247	N	0.414493	0.333780	0.061023
	N248	N	0.680677	0.979379	0.437843
	N249	N	0.682417	0.050551	0.612174
	N250	N	0.320338	0.980591	0.612117
	N251	N	0.321194	0.050298	0.437874
	N252	N	0.916054	0.477296	0.204016
	N253	N	0.088306	0.548919	0.205525
	N254	N	0.085902	0.478172	0.847026
	N255	N	0.914242	0.549600	0.846011
	N256	N	0.181196	0.927400	0.488798
	N257	N	0.180011	0.100655	0.559879
	N258	N	0.820080	0.102438	0.488872
	N259	N	0.820703	0.928016	0.559232
	N260	N	0.466233	0.193545	0.939627
	N261	N	0.536051	0.195892	0.113883
	N262	N	0.465194	0.835021	0.110237
	N263	N	0.536557	0.833344	0.937183
	N264	N	0.465010	0.927895	0.203821
	N265	N	0.536065	0.101803	0.206203
	N266	N	0.466639	0.100356	0.845940
	N267	N	0.536583	0.926921	0.844411
	N268	N	0.914012	0.194497	0.488465
	N269	N	0.086160	0.193321	0.560168
	N270	N	0.086999	0.834461	0.488683
	N271	N	0.913776	0.835014	0.560018
	N272	N	0.180176	0.478061	0.939653
	N273	N	0.182061	0.548468	0.112977
	N274	N	0.820969	0.477891	0.112697
	N275	N	0.820765	0.548526	0.938463
	O276	O	1.000076	1.118882	-0.063058
	H277	H	0.999490	1.117544	-0.038241
	H278	H	1.005864	1.089902	-0.052964
	O279	O	-0.026718	-0.055427	1.001601
	H280	H	-0.017528	-0.085013	0.994709
	H281	H	-0.022612	-0.045377	1.004259
	O282	O	-0.127347	0.902345	-0.167668
	H283	H	-0.134387	0.910672	-0.166134
	H284	H	-0.131133	0.900131	-0.166858
	O285	O	0.360314	0.663459	0.559662
	H286	H	0.349964	0.650885	0.548456
	H287	H	0.362088	0.657958	0.544156
	O288	O	0.644540	0.375122	0.724080
	H289	H	0.628913	0.372201	0.715254
	H290	H	0.624296	0.390982	0.717898
	O291	O	0.516641	0.630424	0.321167
	H292	H	0.523600	0.616167	0.329274
	H293	H	0.529790	0.624415	0.313771
	O294	O	-0.590904	0.305372	0.561673
	H295	H	-0.568715	0.297586	0.541474
	H296	H	-0.600635	0.323164	0.544131
	O297	O	1.046029	0.019511	0.189953
	H298	H	1.055748	0.030325	0.195276
	H299	H	1.038206	0.025236	0.166718
	O300	O	-0.213157	-0.022239	0.229439
	H301	H	-0.214600	-0.001639	0.224327
	H302	H	-0.226442	-0.012766	0.241065
	O303	O	0.171376	0.217638	0.223467
	H304	H	0.188919	0.232851	0.248851
	H305	H	0.168444	0.209177	0.228127
	O306	O	0.787824	0.221378	-0.038854
	H307	H	0.791030	0.223057	-0.064202
	H308	H	0.782589	0.246701	-0.045739
	O309	O	1.013276	0.194782	0.244859
	H310	H	1.022227	0.190375	0.247078
	H311	H	1.009521	0.213392	0.253485
	O312	O	0.291051	0.298032	0.652026
	H313	H	0.292066	0.296806	0.634095
	H314	H	0.258756	0.269354	0.666867
	O315	O	0.713559	0.299567	0.496216
	H316	H	0.719781	0.302492	0.511864
	H317	H	0.725104	0.284741	0.501059
	O318	O	1.205220	1.220720	0.050990
	H319	H	1.208327	1.217025	0.079648
	H320	H	1.214149	1.236934	0.048363
	O321	O	0.298212	0.312614	0.315647
	H322	H	0.313048	0.325651	0.315164
	H323	H	0.318744	0.334344	0.332412
	O324	O	0.536061	0.728334	1.737571
	H325	H	0.531228	0.722037	1.724943
	H326	H	0.539578	0.753234	1.767362
	O327	O	0.480630	0.399201	0.304858
	H328	H	0.479935	0.378942	0.304000
	H329	H	0.480824	0.408659	0.304753
	O330	O	0.206956	0.805554	-0.180117
	H331	H	0.241069	0.776369	-0.214308
	H332	H	0.210520	0.852137	-0.183301
	O333	O	0.722257	0.532518	-0.489583
	H334	H	0.721241	0.532207	-0.498873
	H335	H	0.727087	0.540972	-0.481899
	O336	O	0.719733	0.490665	0.315668
	H337	H	0.713121	0.469098	0.334440
	H338	H	0.748459	0.492309	0.289199
	O339	O	0.509026	0.376970	0.613767
	H340	H	0.500510	0.390898	0.618765
	H341	H	0.507812	0.374244	0.608577
	O342	O	0.051866	0.928347	-0.007186
	H343	H	0.039567	0.917604	-0.008664
	H344	H	0.071868	0.921457	0.000298
	O345	O	0.498791	0.423753	0.712412
	H346	H	0.507323	0.420579	0.687082
	H347	H	0.496585	0.429539	0.733276
	O348	O	0.809358	-0.171721	0.108094
	H349	H	0.811284	-0.181976	0.101289
	H350	H	0.808843	-0.164766	0.126987
	O351	O	0.045920	0.114039	0.907197
	H352	H	0.060732	0.115719	0.913639
	H353	H	0.035787	0.086774	0.906430
	O354	O	1.509391	-0.684374	1.374322
	H355	H	1.543366	-0.673493	1.388627
	H356	H	1.506149	-0.703610	1.358684
	O357	O	0.407873	0.298331	0.742151
	H358	H	0.374792	0.285738	0.751511
	H359	H	0.408056	0.283509	0.760411
	O360	O	0.478272	0.552165	0.547147
	H361	H	0.473203	0.545189	0.547036
	H362	H	0.480534	0.554095	0.551968
	O363	O	0.512009	0.396056	-0.486275
	H364	H	0.519220	0.399955	-0.481346
	H365	H	0.506705	0.396009	-0.493436
	O366	O	1.117641	-0.163754	1.153827
	H367	H	1.137611	-0.177182	1.151176
	H368	H	1.108799	-0.160842	1.134093
	O369	O	0.190182	0.200099	0.837264
	H370	H	0.168769	0.183923	0.855098
	H371	H	0.174892	0.182626	0.860905
	O372	O	-0.026203	0.802088	1.225357
	H373	H	-0.019635	0.790536	1.212950
	H374	H	-0.029010	0.791315	1.236331
	O375	O	1.141163	-0.004012	0.052274
	H376	H	1.146403	-0.009382	0.073872
	H377	H	1.138120	-0.019667	0.065975
	O378	O	1.031907	0.792938	0.808041
	H379	H	1.053413	0.786042	0.791714
	H380	H	1.058827	0.782641	0.796406
	O381	O	0.205542	0.805493	0.011655
	H382	H	0.212118	0.800844	-0.001490
	H383	H	0.214915	0.802912	-0.012701
	O384	O	0.490333	0.548667	0.342319
	H385	H	0.491732	0.562303	0.342099
	H386	H	0.500359	0.552733	0.346503
	O387	O	-0.153112	1.055084	0.959876
	H388	H	-0.152921	1.039615	0.957267
	H389	H	-0.153130	1.054451	0.958174
	O390	O	0.209808	0.963265	0.826055
	H391	H	0.222952	0.976526	0.829169
	H392	H	0.204829	0.977748	0.829034
	O393	O	0.945530	0.078727	0.129758
	H394	H	0.967530	0.079146	0.141453
	H395	H	0.950208	0.072225	0.131566
	O396	O	0.325242	0.719093	0.344105
	H397	H	0.331219	0.705551	0.351504
	H398	H	0.338008	0.728487	0.349492
	O399	O	1.508009	0.730806	-0.462025
	H400	H	1.512662	0.724782	-0.452857
	H401	H	1.528163	0.736137	-0.455645
	O402	O	0.285902	-0.284394	1.479320
	H403	H	0.288449	-0.285864	1.480587
	H404	H	0.265962	-0.274974	1.467356
	O405	O	0.308860	0.523074	0.542558
	H406	H	0.303924	0.528589	0.539724
	H407	H	0.312945	0.517086	0.554444
	O408	O	1.047769	1.031077	0.859266
	H409	H	1.029949	1.019744	0.870779
	H410	H	1.047755	1.019979	0.859867
	O411	O	0.952552	1.233398	-0.048182
	H412	H	0.956404	1.243753	-0.067572
	H413	H	0.950762	1.225594	-0.046005
	O414	O	-0.145662	0.105066	-0.102920
	H415	H	-0.147429	0.116490	-0.117217
	H416	H	-0.134595	0.101963	-0.103705
	O417	O	0.607114	0.571510	0.530369
	H418	H	0.613661	0.559176	0.512549
	H419	H	0.613992	0.577279	0.532359
	O420	O	0.718228	-0.457088	0.736925
	H421	H	0.721880	-0.451662	0.756038
	H422	H	0.716229	-0.455079	0.745804
	O423	O	0.936646	1.125574	0.127249
	H424	H	0.938795	1.122188	0.120886
	H425	H	0.936185	1.119706	0.123929
	O426	O	0.011611	0.988626	0.194750
	H427	H	0.025589	0.991632	0.194963
	H428	H	-0.006764	0.985655	0.199077
	O429	O	0.637828	0.645212	0.652406
	H430	H	0.632140	0.637042	0.624995
	H431	H	0.662159	0.659731	0.670457
	O432	O	0.724439	0.763258	0.271314
	H433	H	0.718972	0.763214	0.267164
	H434	H	0.739445	0.776701	0.275385
	O435	O	1.222017	0.019585	0.213438
	H436	H	1.218644	0.025602	0.211221
	H437	H	1.237510	0.021665	0.244787
	O438	O	0.647699	0.740934	0.515834
	H439	H	0.673226	0.762018	0.520402
	H440	H	0.645654	0.731464	0.532297
	O441	O	0.303921	0.403874	0.430944
	H442	H	0.305171	0.420797	0.432027
	H443	H	0.304984	0.415873	0.446208
	O444	O	0.590034	0.698566	0.337485
	H445	H	0.602379	0.697446	0.342489
	H446	H	0.579824	0.701806	0.354297
	O447	O	0.404583	0.566497	0.717098
	H448	H	0.421557	0.555271	0.722766
	H449	H	0.401269	0.550186	0.723262
	O450	O	0.797027	0.045974	-0.187597
	H451	H	0.781900	0.037076	-0.203263
	H452	H	0.793206	0.067902	-0.180641
	O453	O	0.692414	0.327503	0.334560
	H454	H	0.684199	0.339823	0.321379
	H455	H	0.704588	0.312102	0.375034
	O456	O	-0.044220	1.018755	1.008235
	H457	H	-0.052491	1.019514	1.011840
	H458	H	-0.041585	1.014407	0.996097
	O459	O	0.751071	-0.236408	0.774761
	H460	H	0.740835	-0.229694	0.781089
	H461	H	0.761262	-0.245744	0.785577
	O462	O	0.283464	0.548272	0.309108
	H463	H	0.286824	0.557186	0.301903
	H464	H	0.271446	0.557444	0.295302
	O465	O	0.977198	0.096379	0.028280
	H466	H	0.997049	0.088068	0.033699
	H467	H	0.961538	0.089019	0.045765
	O468	O	-0.086264	0.846900	0.047499
	H469	H	-0.102919	0.836596	0.038816
	H470	H	-0.076259	0.841912	0.049653
	O471	O	0.707357	0.462533	0.554635
	H472	H	0.711651	0.477622	0.547805
	H473	H	0.693551	0.453991	0.568629
	O474	O	0.280928	0.454061	0.744979
	H475	H	0.257766	0.449492	0.772780
	H476	H	0.282934	0.416694	0.738626
	O477	O	0.310434	-0.290668	0.714572
	H478	H	0.323066	-0.320070	0.697982
	H479	H	0.332868	-0.299658	0.692811
