data_Molecule from HDF5

_cell_length_a		16.272147
_cell_length_b		16.223713
_cell_length_c		16.137528
_cell_angle_alpha	89.319451
_cell_angle_beta	90.020651
_cell_angle_gamma	90.088038
_symmetry_space_group_name_H-M	'P 1'
_symmetry_Int_Tables_number		1

loop_
	_symmetry_equiv_pos_as_xyz
	x,y,z

loop_
	_atom_site_label
	_atom_site_type_symbol
	_atom_site_fract_x
	_atom_site_fract_y
	_atom_site_fract_z
	H0	H	0.393431	0.837899	0.720274
	H1	H	0.589588	0.167206	0.713079
	H2	H	0.589108	0.836178	0.292812
	H3	H	0.393693	0.165616	0.285567
	H4	H	0.705150	0.400802	0.839437
	H5	H	0.706018	0.598785	0.166706
	H6	H	0.275151	0.604324	0.838680
	H7	H	0.274460	0.397847	0.166947
	H8	H	0.827773	0.718736	0.399969
	H9	H	0.154905	0.715693	0.599605
	H10	H	0.829876	0.281772	0.604940
	H11	H	0.156323	0.289328	0.404081
	H12	H	0.828512	0.397344	0.719864
	H13	H	0.154683	0.599684	0.717011
	H14	H	0.826734	0.602139	0.286340
	H15	H	0.155338	0.406343	0.288671
	H16	H	0.390911	0.719296	0.839527
	H17	H	0.589768	0.711501	0.168773
	H18	H	0.588335	0.290773	0.838096
	H19	H	0.390022	0.283612	0.166837
	H20	H	0.707670	0.837811	0.404937
	H21	H	0.709758	0.164595	0.603000
	H22	H	0.276219	0.837898	0.605834
	H23	H	0.277993	0.165614	0.401214
	H24	H	0.891784	0.337396	0.219406
	H25	H	0.088152	0.667334	0.211540
	H26	H	0.088513	0.336547	0.791404
	H27	H	0.890286	0.664574	0.785412
	H28	H	0.205914	0.905374	0.337469
	H29	H	0.206902	0.100181	0.667227
	H30	H	0.777227	0.103641	0.338137
	H31	H	0.777818	0.899578	0.666996
	H32	H	0.327880	0.216858	0.902417
	H33	H	0.654550	0.217164	0.102356
	H34	H	0.329109	0.782410	0.106275
	H35	H	0.654889	0.787340	0.906186
	H36	H	0.327824	0.901555	0.218714
	H37	H	0.656843	0.095941	0.213582
	H38	H	0.328277	0.101963	0.786871
	H39	H	0.656372	0.905984	0.791957
	H40	H	0.895449	0.217176	0.337801
	H41	H	0.092511	0.213766	0.668008
	H42	H	0.089659	0.791352	0.336654
	H43	H	0.890662	0.783956	0.665732
	H44	H	0.206701	0.338477	0.903052
	H45	H	0.207707	0.663978	0.101684
	H46	H	0.774878	0.337479	0.105464
	H47	H	0.774451	0.664201	0.900416
	H48	H	0.395987	0.121046	0.598374
	H49	H	0.591278	0.881367	0.602693
	H50	H	0.584499	0.117720	0.412838
	H51	H	0.395832	0.881643	0.406137
	H52	H	0.572061	0.406025	0.118794
	H53	H	0.582046	0.596928	0.884940
	H54	H	0.402287	0.597916	0.121985
	H55	H	0.396403	0.419467	0.887054
	H56	H	0.108517	0.602751	0.409293
	H57	H	0.872853	0.595198	0.595349
	H58	H	0.109345	0.411053	0.601200
	H59	H	0.876734	0.415522	0.409631
	H60	H	0.110595	0.402821	0.597068
	H61	H	0.875269	0.593915	0.589110
	H62	H	0.105592	0.592294	0.410185
	H63	H	0.871892	0.404377	0.405621
	H64	H	0.390304	0.589232	0.122845
	H65	H	0.583357	0.594707	0.885564
	H66	H	0.588719	0.398987	0.125588
	H67	H	0.405633	0.407237	0.886418
	H68	H	0.590041	0.120036	0.408338
	H69	H	0.578419	0.885332	0.601056
	H70	H	0.403512	0.118278	0.593864
	H71	H	0.402432	0.887074	0.413344
	H72	H	0.885443	0.620402	0.086423
	H73	H	0.083938	0.382794	0.097761
	H74	H	0.071438	0.618912	0.897549
	H75	H	0.897705	0.381946	0.906498
	H76	H	0.079245	0.893667	0.623180
	H77	H	0.074824	0.093198	0.388324
	H78	H	0.909477	0.097993	0.620043
	H79	H	0.908401	0.906947	0.386045
	H80	H	0.607896	0.093970	0.906922
	H81	H	0.375352	0.096503	0.089571
	H82	H	0.614782	0.901208	0.113030
	H83	H	0.376641	0.915541	0.910839
	H84	H	0.609331	0.894600	0.085750
	H85	H	0.376002	0.087807	0.095234
	H86	H	0.610843	0.100192	0.906128
	H87	H	0.372371	0.907176	0.907985
	H88	H	0.891345	0.095325	0.624277
	H89	H	0.087459	0.106610	0.380427
	H90	H	0.097548	0.911163	0.623449
	H91	H	0.889891	0.905532	0.379274
	H92	H	0.079624	0.612559	0.925255
	H93	H	0.080830	0.384332	0.098518
	H94	H	0.896259	0.622500	0.105139
	H95	H	0.900630	0.385376	0.915446
	H96	H	0.395089	0.118759	0.589480
	H97	H	0.587323	0.885393	0.591377
	H98	H	0.582899	0.118854	0.405174
	H99	H	0.392559	0.883649	0.416325
	H100	H	0.587124	0.417822	0.119931
	H101	H	0.580680	0.594298	0.885750
	H102	H	0.402172	0.583563	0.116354
	H103	H	0.390858	0.406386	0.881313
	H104	H	0.109785	0.596118	0.401763
	H105	H	0.876350	0.589205	0.593937
	H106	H	0.106355	0.409502	0.592033
	H107	H	0.875940	0.405098	0.417806
	H108	H	0.905960	0.613818	0.087592
	H109	H	0.082221	0.384734	0.095051
	H110	H	0.097717	0.624427	0.905140
	H111	H	0.891308	0.383251	0.914131
	H112	H	0.074624	0.917189	0.614343
	H113	H	0.094456	0.088925	0.385209
	H114	H	0.900650	0.081332	0.616553
	H115	H	0.896800	0.922393	0.386807
	H116	H	0.608861	0.097861	0.912666
	H117	H	0.372632	0.096299	0.100186
	H118	H	0.603131	0.920217	0.095154
	H119	H	0.376039	0.907797	0.917417
	C120	C	0.369633	0.010643	0.624560
	C121	C	0.614115	0.992699	0.625290
	C122	C	0.613743	0.010132	0.381754
	C123	C	0.369408	0.992743	0.381342
	C124	C	0.611395	0.379914	0.012359
	C125	C	0.611449	0.622177	0.994362
	C126	C	0.369137	0.622294	0.012078
	C127	C	0.368734	0.380130	0.994071
	C128	C	-0.000543	0.625591	0.378317
	C129	C	0.982697	0.622212	0.622499
	C130	C	0.000819	0.377689	0.625859
	C131	C	0.983480	0.380912	0.382196
	C132	C	0.867551	0.510338	0.123966
	C133	C	0.111766	0.492638	0.124029
	C134	C	0.111649	0.510236	0.881636
	C135	C	0.867615	0.491813	0.880845
	C136	C	0.112788	0.880561	0.510979
	C137	C	0.114039	0.123637	0.494099
	C138	C	0.871265	0.122659	0.511558
	C139	C	0.869853	0.880628	0.493077
	C140	C	0.500840	0.125352	0.879813
	C141	C	0.483086	0.122050	0.123673
	C142	C	0.500498	0.877203	0.126817
	C143	C	0.483098	0.881051	0.883194
	C144	C	0.372781	0.886794	0.681381
	C145	C	0.610729	0.117345	0.677395
	C146	C	0.610374	0.885816	0.328897
	C147	C	0.373207	0.116441	0.324277
	C148	C	0.666926	0.381776	0.888421
	C149	C	0.667566	0.619034	0.117939
	C150	C	0.313229	0.623402	0.888112
	C151	C	0.312731	0.379371	0.117695
	C152	C	0.876500	0.680686	0.380151
	C153	C	0.105761	0.677887	0.620523
	C154	C	0.878280	0.320550	0.624397
	C155	C	0.107092	0.326740	0.384062
	C156	C	0.877628	0.378524	0.681517
	C157	C	0.105752	0.619941	0.678590
	C158	C	0.875933	0.622663	0.323747
	C159	C	0.106677	0.384948	0.326684
	C160	C	0.370419	0.680843	0.888666
	C161	C	0.609531	0.675057	0.118933
	C162	C	0.608735	0.326992	0.887711
	C163	C	0.370397	0.322577	0.117815
	C164	C	0.668974	0.886496	0.384910
	C165	C	0.670276	0.116211	0.622246
	C166	C	0.314243	0.887275	0.624723
	C167	C	0.315581	0.116513	0.381679
	C168	C	0.870842	0.386677	0.180981
	C169	C	0.109103	0.617271	0.176000
	C170	C	0.109194	0.386018	0.828229
	C171	C	0.869845	0.615273	0.823597
	C172	C	0.168189	0.884612	0.386819
	C173	C	0.169277	0.120420	0.618192
	C174	C	0.815802	0.122654	0.387318
	C175	C	0.815469	0.880432	0.617582
	C176	C	0.377009	0.179660	0.882083
	C177	C	0.606027	0.178325	0.121901
	C178	C	0.377639	0.821381	0.125574
	C179	C	0.606368	0.825536	0.885747
	C180	C	0.377075	0.880451	0.181569
	C181	C	0.607241	0.118101	0.177210
	C182	C	0.377284	0.122458	0.824344
	C183	C	0.607101	0.884629	0.829156
	C184	C	0.873975	0.179370	0.387387
	C185	C	0.112321	0.176925	0.618550
	C186	C	0.110096	0.828320	0.386140
	C187	C	0.871597	0.822706	0.616720
	C188	C	0.168023	0.387062	0.883591
	C189	C	0.168268	0.615714	0.121023
	C190	C	0.812795	0.386577	0.124365
	C191	C	0.812157	0.615149	0.880984
	C192	C	0.391535	0.096980	0.600922
	C193	C	0.592247	0.906440	0.604570
	C194	C	0.592271	0.096420	0.402625
	C195	C	0.390684	0.906377	0.405002
	C196	C	0.589213	0.401433	0.099152
	C197	C	0.588714	0.601263	0.907768
	C198	C	0.391683	0.597545	0.098309
	C199	C	0.391140	0.404153	0.907392
	C200	C	0.085676	0.603750	0.400412
	C201	C	0.897029	0.599271	0.599512
	C202	C	0.086517	0.400970	0.603269
	C203	C	0.897150	0.402029	0.404480
	C204	C	0.889285	0.596573	0.100047
	C205	C	0.088911	0.406378	0.103212
	C206	C	0.089390	0.596298	0.902924
	C207	C	0.889867	0.405949	0.904858
	C208	C	0.090529	0.901200	0.597700
	C209	C	0.091816	0.102479	0.407136
	C210	C	0.893800	0.098630	0.598117
	C211	C	0.891927	0.904586	0.406516
	C212	C	0.586958	0.103758	0.902038
	C213	C	0.396936	0.100076	0.101595
	C214	C	0.586839	0.898961	0.104632
	C215	C	0.397281	0.903452	0.905446
	Zn216	Zn	0.492052	0.002205	0.753144
	Zn217	Zn	0.492117	0.000578	0.253412
	Zn218	Zn	0.738928	0.500321	0.002729
	Zn219	Zn	0.240275	0.501223	0.002531
	Zn220	Zn	-0.009143	0.752686	0.500727
	Zn221	Zn	-0.006883	0.250852	0.503377
	Zn222	Zn	-0.009230	0.500582	0.753247
	Zn223	Zn	-0.009664	0.502543	0.251738
	Zn224	Zn	0.491104	0.750464	0.003903
	Zn225	Zn	0.491078	0.252620	0.002637
	Zn226	Zn	0.742471	0.001582	0.503236
	Zn227	Zn	0.240719	0.002317	0.502967
	N228	N	0.406501	0.964629	0.681633
	N229	N	0.576309	0.039765	0.679361
	N230	N	0.576498	0.963458	0.326891
	N231	N	0.406147	0.038313	0.323914
	N232	N	0.668668	0.414033	0.966926
	N233	N	0.668758	0.586772	0.039530
	N234	N	0.312478	0.587498	0.965756
	N235	N	0.311505	0.414381	0.039588
	N236	N	0.954426	0.682648	0.413405
	N237	N	0.028204	0.679394	0.586253
	N238	N	0.955995	0.319772	0.590710
	N239	N	0.029447	0.324243	0.417926
	N240	N	0.954695	0.413482	0.682598
	N241	N	0.028091	0.586140	0.680063
	N242	N	0.953444	0.588945	0.322457
	N243	N	0.028763	0.417857	0.325290
	N244	N	0.404309	0.680405	0.966860
	N245	N	0.575271	0.677056	0.041031
	N246	N	0.574967	0.325624	0.965821
	N247	N	0.404573	0.323068	0.039880
	N248	N	0.671208	0.964711	0.417228
	N249	N	0.672716	0.037748	0.590755
	N250	N	0.312156	0.965338	0.590227
	N251	N	0.313204	0.038775	0.416482
	N252	N	0.904172	0.464679	0.180887
	N253	N	0.074429	0.539689	0.177975
	N254	N	0.074696	0.463422	0.826960
	N255	N	0.903620	0.537664	0.823489
	N256	N	0.169829	0.916536	0.465509
	N257	N	0.170399	0.088057	0.539823
	N258	N	0.813790	0.088230	0.465768
	N259	N	0.814077	0.915650	0.539700
	N260	N	0.454790	0.181722	0.915706
	N261	N	0.527757	0.180767	0.089244
	N262	N	0.455491	0.819102	0.092574
	N263	N	0.528230	0.823366	0.918643
	N264	N	0.454568	0.914386	0.182477
	N265	N	0.529788	0.084086	0.178731
	N266	N	0.455114	0.089341	0.822935
	N267	N	0.529440	0.918331	0.827562
	N268	N	0.907718	0.179509	0.465607
	N269	N	0.078676	0.179043	0.540243
	N270	N	0.076417	0.825469	0.464347
	N271	N	0.904893	0.822951	0.538267
	N272	N	0.170132	0.465368	0.915814
	N273	N	0.170176	0.537189	0.089655
	N274	N	0.810434	0.464525	0.089756
	N275	N	0.810504	0.537218	0.915832
	O276	O	0.040225	-0.037456	-0.005855
	H277	H	0.044865	-0.035990	-0.004225
	H278	H	0.037847	-0.033230	-0.004688
	O279	O	0.570427	0.439735	0.438941
	H280	H	0.581246	0.430362	0.423323
	H281	H	0.567495	0.450051	0.439981
	O282	O	0.540816	0.552609	0.572661
	H283	H	0.544859	0.550927	0.580914
	H284	H	0.541424	0.553057	0.558215
	O285	O	-0.055853	1.050773	1.000484
	H286	H	-0.063393	1.050112	1.006151
	H287	H	-0.059174	1.049350	0.987149
	O288	O	0.455680	0.560663	0.525591
	H289	H	0.459917	0.550136	0.535396
	H290	H	0.474786	0.565253	0.517119
	O291	O	1.024366	1.004858	0.927212
	H292	H	1.019883	1.009798	0.920869
	H293	H	1.040514	1.008594	0.928271
	O294	O	1.482997	0.440513	0.585366
	H295	H	1.485800	0.436977	0.583181
	H296	H	1.477649	0.444986	0.597154
	O297	O	1.009160	0.005578	0.933467
	H298	H	1.008252	0.002500	0.931975
	H299	H	1.007416	-0.002860	0.935365
	O300	O	0.393858	0.566341	0.452102
	H301	H	0.388078	0.564463	0.464753
	H302	H	0.389848	0.558365	0.451918
	O303	O	0.982840	0.031985	0.081433
	H304	H	0.987542	0.030309	0.079547
	H305	H	0.980918	0.035116	0.088339
	O306	O	-0.010624	0.955687	0.972503
	H307	H	0.000782	0.953772	0.969149
	H308	H	-0.014507	0.955155	0.967739
	O309	O	0.563229	0.468249	0.501201
	H310	H	0.564983	0.474919	0.503532
	H311	H	0.574647	0.467840	0.504329
	O312	O	0.943244	-0.038506	0.985466
	H313	H	0.945558	-0.032630	0.983796
	H314	H	0.946031	-0.035628	0.982079
	O315	O	0.405602	0.516199	0.470361
	H316	H	0.409740	0.515573	0.473560
	H317	H	0.400119	0.514525	0.478068
	O318	O	0.534931	0.524253	0.427695
	H319	H	0.533117	0.534321	0.419106
	H320	H	0.540876	0.524034	0.434494
	O321	O	0.942483	1.014056	0.982392
	H322	H	0.932766	1.011784	0.986445
	H323	H	0.939197	1.009116	0.987280
	O324	O	0.360548	0.582718	0.523875
	H325	H	0.364781	0.591562	0.530347
	H326	H	0.367469	0.573785	0.538362
	O327	O	0.510184	0.455345	0.457109
	H328	H	0.508615	0.459726	0.449623
	H329	H	0.517261	0.463671	0.453367
	O330	O	1.031847	-0.008126	0.983131
	H331	H	1.040833	-0.010826	0.978179
	H332	H	1.030605	0.000502	0.981320
	O333	O	1.590096	1.525947	-0.470118
	H334	H	1.580091	1.530413	-0.469417
	H335	H	1.593611	1.518116	-0.478695
	O336	O	0.541333	0.473997	0.494686
	H337	H	0.521006	0.478572	0.483811
	H338	H	0.559676	0.473336	0.501874
	O339	O	0.493495	0.567246	0.542370
	H340	H	0.478072	0.572565	0.548226
	H341	H	0.498956	0.562338	0.541051
	O342	O	-0.047882	0.928069	-0.025289
	H343	H	-0.048078	0.932529	-0.029051
	H344	H	-0.038650	0.934044	-0.031551
	O345	O	0.002476	0.022144	-0.048073
	H346	H	-0.002707	0.018325	-0.044654
	H347	H	0.002843	0.021113	-0.046564
	O348	O	0.616516	0.577477	0.445349
	H349	H	0.611626	0.576182	0.436061
	H350	H	0.612712	0.579137	0.443567
	O351	O	0.445168	0.487257	0.426254
	H352	H	0.440931	0.484044	0.413459
	H353	H	0.441882	0.494965	0.424824
	O354	O	0.491631	0.566895	0.559953
	H355	H	0.492833	0.568647	0.554817
	H356	H	0.484706	0.565375	0.559550
	O357	O	0.546430	0.494748	0.587887
	H358	H	0.552576	0.495792	0.594284
	H359	H	0.540080	0.496125	0.584468
	O360	O	0.043916	0.015658	0.035763
	H361	H	0.045988	0.023185	0.038657
	H362	H	0.040101	0.016526	0.041334
	O363	O	0.462561	0.467341	0.493027
	H364	H	0.470040	0.462901	0.501619
	H365	H	0.463336	0.473363	0.494692
	O366	O	0.028299	-0.003880	1.080560
	H367	H	0.032457	-0.005446	1.070489
	H368	H	0.026681	-0.008023	1.084810
	O369	O	0.368422	0.400068	0.506735
	H370	H	0.379115	0.392098	0.504824
	H371	H	0.353784	0.407155	0.504628
