data_Molecule from HDF5

_cell_length_a		16.215271
_cell_length_b		16.459140
_cell_length_c		16.375583
_cell_angle_alpha	90.029130
_cell_angle_beta	90.151619
_cell_angle_gamma	90.197349
_symmetry_space_group_name_H-M	'P 1'
_symmetry_Int_Tables_number		1

loop_
	_symmetry_equiv_pos_as_xyz
	x,y,z

loop_
	_atom_site_label
	_atom_site_type_symbol
	_atom_site_fract_x
	_atom_site_fract_y
	_atom_site_fract_z
	H0	H	0.389582	0.839317	0.711264
	H1	H	0.599511	0.158791	0.716756
	H2	H	0.599499	0.841489	0.272785
	H3	H	0.390433	0.159382	0.272529
	H4	H	0.715068	0.395615	0.835861
	H5	H	0.711715	0.602120	0.156835
	H6	H	0.275628	0.599394	0.834105
	H7	H	0.279133	0.398422	0.157228
	H8	H	0.832409	0.719510	0.391470
	H9	H	0.155760	0.722792	0.600761
	H10	H	0.834693	0.280886	0.600860
	H11	H	0.155750	0.281979	0.390704
	H12	H	0.834254	0.396330	0.715897
	H13	H	0.156208	0.607333	0.716356
	H14	H	0.831851	0.602133	0.277252
	H15	H	0.157194	0.401417	0.280304
	H16	H	0.387601	0.718276	0.834604
	H17	H	0.600266	0.721661	0.154612
	H18	H	0.598704	0.279293	0.834259
	H19	H	0.386418	0.274629	0.152161
	H20	H	0.711928	0.840564	0.393130
	H21	H	0.711535	0.161690	0.596248
	H22	H	0.274393	0.840397	0.594180
	H23	H	0.276809	0.161412	0.391342
	H24	H	0.887243	0.343153	0.218662
	H25	H	0.099995	0.660228	0.214929
	H26	H	0.104083	0.344147	0.770130
	H27	H	0.884850	0.657882	0.771314
	H28	H	0.211432	0.901550	0.333524
	H29	H	0.215919	0.104992	0.655289
	H30	H	0.774196	0.105035	0.334605
	H31	H	0.775183	0.898398	0.654645
	H32	H	0.333267	0.220441	0.884275
	H33	H	0.652354	0.222188	0.101121
	H34	H	0.331332	0.779507	0.098044
	H35	H	0.653551	0.778808	0.889976
	H36	H	0.332713	0.894626	0.213913
	H37	H	0.654097	0.105136	0.213378
	H38	H	0.332501	0.099734	0.774485
	H39	H	0.655276	0.895648	0.775772
	H40	H	0.888301	0.223233	0.336219
	H41	H	0.103127	0.224917	0.654399
	H42	H	0.103876	0.777903	0.337254
	H43	H	0.887327	0.779243	0.652958
	H44	H	0.211968	0.340464	0.892616
	H45	H	0.214531	0.660258	0.097855
	H46	H	0.771259	0.342463	0.102205
	H47	H	0.770833	0.657925	0.890404
	H48	H	0.410576	0.113028	0.588051
	H49	H	0.577449	0.890732	0.580805
	H50	H	0.589588	0.114061	0.409519
	H51	H	0.408010	0.889335	0.404744
	H52	H	0.578888	0.403053	0.109248
	H53	H	0.579117	0.588043	0.883669
	H54	H	0.406790	0.588269	0.108279
	H55	H	0.402758	0.404033	0.878671
	H56	H	0.111829	0.595596	0.403406
	H57	H	0.878920	0.597211	0.583743
	H58	H	0.110547	0.415890	0.588306
	H59	H	0.878632	0.410761	0.404347
	H60	H	0.111106	0.408530	0.581623
	H61	H	0.883512	0.586483	0.577347
	H62	H	0.108793	0.592840	0.410280
	H63	H	0.879893	0.409969	0.408717
	H64	H	0.406561	0.594487	0.109654
	H65	H	0.580563	0.591664	0.880976
	H66	H	0.585887	0.412799	0.107959
	H67	H	0.399819	0.411369	0.880575
	H68	H	0.584962	0.117513	0.395037
	H69	H	0.592677	0.885164	0.580884
	H70	H	0.406968	0.112237	0.580510
	H71	H	0.398898	0.888039	0.407181
	H72	H	0.907055	0.611523	0.083400
	H73	H	0.085208	0.385957	0.087697
	H74	H	0.085768	0.615611	0.901699
	H75	H	0.905329	0.388629	0.907258
	H76	H	0.079884	0.904948	0.609360
	H77	H	0.081442	0.096347	0.381597
	H78	H	0.905599	0.092434	0.608915
	H79	H	0.903964	0.911994	0.380519
	H80	H	0.608659	0.093928	0.909247
	H81	H	0.379129	0.093179	0.073229
	H82	H	0.610135	0.905210	0.084244
	H83	H	0.379443	0.907187	0.908610
	H84	H	0.605309	0.911396	0.076955
	H85	H	0.383303	0.076806	0.078422
	H86	H	0.606195	0.084483	0.908057
	H87	H	0.378205	0.913133	0.899069
	H88	H	0.904148	0.091023	0.608083
	H89	H	0.086966	0.093356	0.380443
	H90	H	0.091092	0.913842	0.611005
	H91	H	0.906162	0.909574	0.380220
	H92	H	0.077950	0.611426	0.907533
	H93	H	0.086725	0.386024	0.089868
	H94	H	0.900500	0.615638	0.085128
	H95	H	0.907998	0.387563	0.905261
	H96	H	0.402524	0.115031	0.587282
	H97	H	0.584152	0.883432	0.594728
	H98	H	0.575283	0.110408	0.404890
	H99	H	0.401904	0.885609	0.398300
	H100	H	0.573936	0.412882	0.105056
	H101	H	0.582797	0.587829	0.882218
	H102	H	0.401870	0.590576	0.111033
	H103	H	0.407001	0.409796	0.882028
	H104	H	0.109239	0.587999	0.404139
	H105	H	0.879600	0.585987	0.590322
	H106	H	0.107385	0.417038	0.579190
	H107	H	0.880762	0.414311	0.407364
	H108	H	0.906455	0.614913	0.090496
	H109	H	0.084397	0.385479	0.089801
	H110	H	0.087559	0.613534	0.911777
	H111	H	0.908088	0.389255	0.907823
	H112	H	0.078294	0.918607	0.604949
	H113	H	0.082173	0.089749	0.383069
	H114	H	0.906656	0.090773	0.608221
	H115	H	0.903238	0.908819	0.379122
	H116	H	0.610773	0.089294	0.900796
	H117	H	0.375231	0.088448	0.090266
	H118	H	0.606921	0.915187	0.087062
	H119	H	0.374574	0.902801	0.899735
	C120	C	0.373653	0.007821	0.615087
	C121	C	0.616050	0.992086	0.616688
	C122	C	0.615413	0.008916	0.371983
	C123	C	0.372141	0.992470	0.371649
	C124	C	0.613438	0.378122	0.002574
	C125	C	0.614060	0.621139	0.987588
	C126	C	0.372752	0.620690	0.003435
	C127	C	0.371307	0.376498	0.986071
	C128	C	0.002791	0.622634	0.374548
	C129	C	0.986763	0.622703	0.616497
	C130	C	0.003628	0.380989	0.616102
	C131	C	0.986266	0.380660	0.374955
	C132	C	0.872186	0.509259	0.117993
	C133	C	0.117066	0.491701	0.118877
	C134	C	0.116135	0.509066	0.874278
	C135	C	0.872977	0.492375	0.874069
	C136	C	0.115259	0.880843	0.502975
	C137	C	0.116613	0.124548	0.486846
	C138	C	0.873220	0.123165	0.503199
	C139	C	0.872702	0.879411	0.486059
	C140	C	0.502183	0.119838	0.873227
	C141	C	0.484697	0.119645	0.113604
	C142	C	0.501387	0.878621	0.114790
	C143	C	0.484474	0.877299	0.872537
	C144	C	0.371472	0.887548	0.672265
	C145	C	0.617663	0.111754	0.676235
	C146	C	0.617557	0.889077	0.312928
	C147	C	0.371522	0.112025	0.312465
	C148	C	0.674851	0.376746	0.883404
	C149	C	0.673425	0.622073	0.108142
	C150	C	0.314525	0.619275	0.882262
	C151	C	0.315453	0.377462	0.107898
	C152	C	0.880757	0.680142	0.373191
	C153	C	0.107418	0.683077	0.618889
	C154	C	0.882810	0.320756	0.618716
	C155	C	0.107435	0.321829	0.373053
	C156	C	0.882658	0.378430	0.675880
	C157	C	0.107725	0.625370	0.676551
	C158	C	0.880471	0.621903	0.316383
	C159	C	0.108417	0.381419	0.318066
	C160	C	0.370242	0.678483	0.882480
	C161	C	0.617701	0.681717	0.106746
	C162	C	0.616503	0.319167	0.882337
	C163	C	0.369075	0.315960	0.105391
	C164	C	0.673466	0.888590	0.372886
	C165	C	0.673238	0.113050	0.616086
	C166	C	0.313946	0.888136	0.613939
	C167	C	0.314973	0.113165	0.371658
	C168	C	0.869453	0.390502	0.178317
	C169	C	0.118707	0.612175	0.176516
	C170	C	0.119798	0.390587	0.812432
	C171	C	0.868270	0.610763	0.812778
	C172	C	0.173752	0.880715	0.382269
	C173	C	0.176836	0.124960	0.607221
	C174	C	0.813571	0.124290	0.382874
	C175	C	0.813916	0.878710	0.606420
	C176	C	0.381421	0.179732	0.868121
	C177	C	0.604717	0.181519	0.117999
	C178	C	0.379999	0.819093	0.116554
	C179	C	0.605719	0.818759	0.871878
	C180	C	0.380529	0.876267	0.174444
	C181	C	0.605506	0.123182	0.174092
	C182	C	0.380944	0.120096	0.813049
	C183	C	0.606494	0.876742	0.814918
	C184	C	0.870611	0.183154	0.383656
	C185	C	0.120372	0.184163	0.606852
	C186	C	0.119801	0.819544	0.384061
	C187	C	0.870092	0.819644	0.605643
	C188	C	0.174075	0.388872	0.873102
	C189	C	0.175749	0.612141	0.118091
	C190	C	0.811463	0.390118	0.120358
	C191	C	0.811027	0.610775	0.871583
	C192	C	0.399342	0.091644	0.591958
	C193	C	0.591720	0.908251	0.592613
	C194	C	0.590508	0.092266	0.395976
	C195	C	0.396185	0.909192	0.396171
	C196	C	0.587170	0.402600	0.085757
	C197	C	0.588493	0.596242	0.903929
	C198	C	0.397614	0.597621	0.087716
	C199	C	0.395908	0.401085	0.902211
	C200	C	0.087577	0.599046	0.398954
	C201	C	0.902553	0.597309	0.591027
	C202	C	0.087734	0.406456	0.590599
	C203	C	0.901816	0.404741	0.399654
	C204	C	0.897315	0.592360	0.093120
	C205	C	0.092644	0.407767	0.095939
	C206	C	0.090814	0.591942	0.899499
	C207	C	0.899555	0.410036	0.899643
	C208	C	0.090349	0.905500	0.586493
	C209	C	0.090907	0.100355	0.403539
	C210	C	0.898439	0.098439	0.586651
	C211	C	0.897350	0.903330	0.401986
	C212	C	0.586504	0.096088	0.898803
	C213	C	0.400996	0.093733	0.087828
	C214	C	0.585579	0.903487	0.089918
	C215	C	0.399555	0.901029	0.895716
	Zn216	Zn	0.494419	-0.000940	0.745136
	Zn217	Zn	0.493771	0.000077	0.242707
	Zn218	Zn	0.742995	0.500002	-0.003791
	Zn219	Zn	0.244266	0.499481	-0.004177
	Zn220	Zn	-0.005478	0.751446	0.494586
	Zn221	Zn	-0.004993	0.252503	0.495825
	Zn222	Zn	-0.004553	0.501185	0.744839
	Zn223	Zn	-0.005425	0.501136	0.246447
	Zn224	Zn	0.492730	0.749797	-0.005620
	Zn225	Zn	0.492659	0.248184	-0.006525
	Zn226	Zn	0.744463	0.001305	0.494342
	Zn227	Zn	0.244326	0.002018	0.494399
	N228	N	0.408142	0.963137	0.672900
	N229	N	0.583172	0.035391	0.677003
	N230	N	0.582235	0.964946	0.312163
	N231	N	0.406187	0.035953	0.312229
	N232	N	0.673035	0.412642	0.959129
	N233	N	0.671280	0.585121	0.032939
	N234	N	0.315812	0.584317	0.958527
	N235	N	0.316811	0.414452	0.032644
	N236	N	0.957781	0.680817	0.408326
	N237	N	0.031110	0.681450	0.582199
	N238	N	0.959378	0.321978	0.582649
	N239	N	0.030331	0.321084	0.407623
	N240	N	0.958846	0.415003	0.674365
	N241	N	0.031418	0.588898	0.675508
	N242	N	0.957444	0.587065	0.316775
	N243	N	0.031975	0.417268	0.319006
	N244	N	0.405715	0.679501	0.958922
	N245	N	0.581619	0.681362	0.030627
	N246	N	0.579265	0.319483	0.957697
	N247	N	0.402710	0.315134	0.028480
	N248	N	0.672222	0.964020	0.408927
	N249	N	0.672574	0.037476	0.580222
	N250	N	0.315342	0.964053	0.579192
	N251	N	0.315166	0.037891	0.407622
	N252	N	0.906439	0.465593	0.177007
	N253	N	0.082782	0.536338	0.177052
	N254	N	0.084278	0.466267	0.813053
	N255	N	0.906130	0.536136	0.814043
	N256	N	0.170946	0.918459	0.457093
	N257	N	0.174672	0.088507	0.531641
	N258	N	0.814921	0.087717	0.458231
	N259	N	0.815446	0.915091	0.531001
	N260	N	0.457690	0.179717	0.904898
	N261	N	0.528466	0.179389	0.080855
	N262	N	0.456233	0.820316	0.080200
	N263	N	0.528876	0.819040	0.906862
	N264	N	0.457006	0.912539	0.173554
	N265	N	0.530014	0.085173	0.171388
	N266	N	0.457030	0.083674	0.815944
	N267	N	0.530159	0.912599	0.815127
	N268	N	0.906852	0.182722	0.459562
	N269	N	0.083985	0.184327	0.531088
	N270	N	0.084122	0.819674	0.460017
	N271	N	0.906056	0.819904	0.529701
	N272	N	0.171927	0.463392	0.911023
	N273	N	0.175087	0.536177	0.083110
	N274	N	0.813338	0.464984	0.083455
	N275	N	0.813673	0.536076	0.908970
	O276	O	0.530614	0.544605	0.664953
	H277	H	0.533568	0.534079	0.664344
	H278	H	0.535083	0.551061	0.655633
	O279	O	0.533578	0.514902	0.407520
	H280	H	0.532233	0.522252	0.401889
	H281	H	0.531903	0.501439	0.398688
	O282	O	0.575544	0.509529	0.648452
	H283	H	0.584271	0.509217	0.665726
	H284	H	0.597603	0.508981	0.638701
	O285	O	0.930249	0.083333	-0.003360
	H286	H	0.936047	0.081678	-0.004369
	H287	H	0.945946	0.090162	-0.002284
	O288	O	-0.192922	0.191953	0.838331
	H289	H	-0.207309	0.184952	0.867860
	H290	H	-0.198227	0.167881	0.846155
	O291	O	0.601122	0.350858	0.443866
	H292	H	0.590923	0.345793	0.439934
	H293	H	0.609473	0.357633	0.437454
	O294	O	0.346374	0.452939	0.555514
	H295	H	0.339010	0.444899	0.570808
	H296	H	0.349979	0.456782	0.561037
	O297	O	1.124731	0.923524	1.030618
	H298	H	1.133078	0.940448	1.044070
	H299	H	1.109976	0.927514	1.039119
	O300	O	0.057852	0.064240	-0.136871
	H301	H	0.042444	0.037794	-0.133050
	H302	H	0.049384	0.057063	-0.122936
	O303	O	0.525552	0.511876	0.544205
	H304	H	0.531493	0.518756	0.547039
	H305	H	0.512267	0.518771	0.547147
	O306	O	1.196648	0.046755	0.023226
	H307	H	1.192453	0.053767	0.033343
	H308	H	1.210878	0.037790	0.027577
	O309	O	0.536465	0.526304	0.559803
	H310	H	0.529230	0.540055	0.559846
	H311	H	0.547856	0.527310	0.571370
	O312	O	1.013006	0.785251	-0.219794
	H313	H	1.027774	0.763174	-0.241975
	H314	H	1.043523	0.785868	-0.212048
	O315	O	1.079666	0.111682	-0.065716
	H316	H	1.067935	0.109626	-0.088155
	H317	H	1.104025	0.115178	-0.060556
	O318	O	0.430435	0.494860	0.488204
	H319	H	0.440972	0.497600	0.491604
	H320	H	0.437795	0.502368	0.508644
	O321	O	1.102551	0.192672	0.939431
	H322	H	1.103177	0.179183	0.924584
	H323	H	1.110472	0.200546	0.927245
	O324	O	-0.094309	-0.137797	0.875696
	H325	H	-0.086468	-0.144702	0.864705
	H326	H	-0.074878	-0.143852	0.875023
	O327	O	0.621662	0.644280	0.651233
	H328	H	0.631867	0.651287	0.646853
	H329	H	0.624819	0.647210	0.644376
	O330	O	0.520600	0.466551	0.463439
	H331	H	0.524838	0.464725	0.465415
	H332	H	0.521483	0.465941	0.476239
	O333	O	1.074321	0.987053	0.835411
	H334	H	1.072424	1.006295	0.831220
	H335	H	1.080325	0.990995	0.835212
	O336	O	0.407524	0.481665	0.540679
	H337	H	0.409730	0.491789	0.536879
	H338	H	0.410859	0.480621	0.548904
	O339	O	1.207703	0.051567	1.175010
	H340	H	1.206792	0.073237	1.172036
	H341	H	1.224938	0.074785	1.193736
	O342	O	-0.173873	1.150029	0.988372
	H343	H	-0.182575	1.167970	0.980946
	H344	H	-0.152769	1.155561	1.008732
	O345	O	-0.074705	1.026233	0.894475
	H346	H	-0.081865	1.012382	0.890951
	H347	H	-0.075613	1.034426	0.890939
	O348	O	0.465863	0.444940	0.590438
	H349	H	0.476936	0.434962	0.587468
	H350	H	0.480031	0.453524	0.596902
	O351	O	-0.121019	0.059010	0.192065
	H352	H	-0.110069	0.054307	0.176154
	H353	H	-0.122192	0.059383	0.197485
	O354	O	0.801999	0.828083	-0.066750
	H355	H	0.825513	0.825983	-0.065362
	H356	H	0.798784	0.807615	-0.066382
	O357	O	0.174482	0.820761	-0.185249
	H358	H	0.168366	0.823714	-0.150897
	H359	H	0.190853	0.856702	-0.188939
	O360	O	0.482314	0.650436	0.388839
	H361	H	0.471153	0.651453	0.369160
	H362	H	0.473318	0.656111	0.386442
	O363	O	0.452675	0.348066	0.490237
	H364	H	0.450830	0.352418	0.502148
	H365	H	0.442446	0.347113	0.491505
	O366	O	0.470341	0.480362	0.570940
	H367	H	0.478757	0.488377	0.573796
	H368	H	0.478347	0.465357	0.565594
	O369	O	0.679741	0.439151	0.395776
	H370	H	0.683535	0.432243	0.398373
	H371	H	0.682442	0.463877	0.392146
	O372	O	0.558865	0.529002	0.364814
	H373	H	0.546782	0.542015	0.383450
	H374	H	0.558626	0.522005	0.364442
	O375	O	0.469681	0.547993	0.505470
	H376	H	0.468149	0.545098	0.500610
	H377	H	0.469184	0.549901	0.504714
	O378	O	0.488172	0.499071	0.527624
	H379	H	0.501421	0.503635	0.539008
	H380	H	0.494791	0.500160	0.532020
	O381	O	0.473520	0.593206	0.336786
	H382	H	0.480173	0.590328	0.339200
	H383	H	0.458858	0.598218	0.322461
	O384	O	-0.159563	1.095035	1.066338
	H385	H	-0.135075	1.099879	1.051115
	H386	H	-0.174346	1.103272	1.054310
	O387	O	0.791860	1.006609	-0.193019
	H388	H	0.790065	0.988929	-0.196206
	H389	H	0.789135	0.985923	-0.195332
	O390	O	0.415936	0.502824	0.359974
	H391	H	0.419692	0.482522	0.357351
	H392	H	0.409335	0.503468	0.368110
	O393	O	1.185420	-0.190101	0.974421
	H394	H	1.173502	-0.196033	0.979006
	H395	H	1.190453	-0.190946	0.987023
	O396	O	-0.198600	0.933228	1.188606
	H397	H	-0.185650	0.959376	1.176019
	H398	H	-0.218445	0.937366	1.200232
	O399	O	0.770608	0.781774	1.173313
	H400	H	0.755918	0.816150	1.179046
	H401	H	0.766329	0.780904	1.146840
	O402	O	1.005586	-0.025150	1.097074
	H403	H	1.018048	-0.009450	1.101874
	H404	H	1.018969	-0.027737	1.097200
	O405	O	-0.022049	0.169107	-0.217556
	H406	H	-0.056585	0.167682	-0.214807
	H407	H	-0.041100	0.190066	-0.236312
	O408	O	1.165160	1.155499	1.043277
	H409	H	1.169361	1.158178	1.020516
	H410	H	1.134468	1.167633	1.030977
	O411	O	0.990859	0.795562	0.203747
	H412	H	0.952581	0.802565	0.191456
	H413	H	0.991671	0.778249	0.228249
	O414	O	0.225555	-0.153943	1.311962
	H415	H	0.225867	-0.160869	1.316460
	H416	H	0.221584	-0.165526	1.310334
	O417	O	0.357910	0.453495	0.520746
	H418	H	0.336984	0.439508	0.529289
	H419	H	0.354797	0.452777	0.525279
	O420	O	-0.024891	0.806440	0.015930
	H421	H	-0.022621	0.807314	0.041517
	H422	H	-0.036325	0.804727	0.018611
	O423	O	1.061848	0.135787	0.200434
	H424	H	1.068009	0.149706	0.227440
	H425	H	1.053220	0.118456	0.196683
	O426	O	-0.027422	0.207990	1.118602
	H427	H	-0.006416	0.209856	1.125537
	H428	H	-0.005868	0.200676	1.114870
	O429	O	0.436724	0.429541	0.411501
	H430	H	0.448837	0.434698	0.411197
	H431	H	0.432125	0.419258	0.401771
