data_Molecule from HDF5

_cell_length_a		16.136607
_cell_length_b		16.317706
_cell_length_c		16.230664
_cell_angle_alpha	90.186834
_cell_angle_beta	89.818582
_cell_angle_gamma	90.149050
_symmetry_space_group_name_H-M	'P 1'
_symmetry_Int_Tables_number		1

loop_
	_symmetry_equiv_pos_as_xyz
	x,y,z

loop_
	_atom_site_label
	_atom_site_type_symbol
	_atom_site_fract_x
	_atom_site_fract_y
	_atom_site_fract_z
	H0	H	0.395211	0.837295	0.710376
	H1	H	0.595704	0.164254	0.710811
	H2	H	0.595936	0.838029	0.279383
	H3	H	0.397278	0.164508	0.281501
	H4	H	0.707914	0.403680	0.830677
	H5	H	0.707828	0.597474	0.160895
	H6	H	0.282269	0.597349	0.831498
	H7	H	0.281875	0.403764	0.160894
	H8	H	0.830042	0.712694	0.397591
	H9	H	0.159763	0.715075	0.596005
	H10	H	0.830433	0.284714	0.594585
	H11	H	0.159856	0.285109	0.393459
	H12	H	0.830258	0.401382	0.709275
	H13	H	0.160395	0.598602	0.708901
	H14	H	0.829794	0.595206	0.284389
	H15	H	0.160090	0.401118	0.280808
	H16	H	0.397038	0.713842	0.831538
	H17	H	0.594203	0.715956	0.159570
	H18	H	0.595099	0.285205	0.832210
	H19	H	0.395465	0.285968	0.160306
	H20	H	0.709553	0.837098	0.396654
	H21	H	0.709896	0.164475	0.592439
	H22	H	0.281315	0.837042	0.594247
	H23	H	0.283269	0.164864	0.400203
	H24	H	0.895530	0.335525	0.209586
	H25	H	0.094649	0.662510	0.212001
	H26	H	0.094248	0.336328	0.779533
	H27	H	0.897245	0.662938	0.781878
	H28	H	0.209384	0.903328	0.331722
	H29	H	0.208041	0.098134	0.660651
	H30	H	0.784189	0.096506	0.330546
	H31	H	0.781435	0.903662	0.660343
	H32	H	0.330814	0.213245	0.898173
	H33	H	0.661033	0.215234	0.094031
	H34	H	0.331166	0.786317	0.095751
	H35	H	0.660000	0.786244	0.894105
	H36	H	0.331434	0.903402	0.209437
	H37	H	0.661400	0.100155	0.209321
	H38	H	0.330153	0.096511	0.784048
	H39	H	0.660046	0.902239	0.780382
	H40	H	0.896912	0.213507	0.331217
	H41	H	0.096384	0.217232	0.658765
	H42	H	0.095630	0.785276	0.331965
	H43	H	0.894984	0.785192	0.659809
	H44	H	0.210107	0.336201	0.896904
	H45	H	0.207621	0.664103	0.093275
	H46	H	0.780353	0.336468	0.092500
	H47	H	0.784282	0.664418	0.899938
	H48	H	0.397981	0.119165	0.591380
	H49	H	0.594517	0.882511	0.588615
	H50	H	0.588028	0.118287	0.399345
	H51	H	0.402334	0.882659	0.398587
	H52	H	0.580635	0.405229	0.112047
	H53	H	0.582151	0.590710	0.881300
	H54	H	0.405857	0.602092	0.113794
	H55	H	0.411511	0.398712	0.879372
	H56	H	0.112742	0.582503	0.394355
	H57	H	0.874360	0.602172	0.589546
	H58	H	0.113801	0.401768	0.582885
	H59	H	0.878881	0.404032	0.409889
	H60	H	0.110216	0.413813	0.583318
	H61	H	0.881470	0.589175	0.580817
	H62	H	0.117661	0.604526	0.400323
	H63	H	0.878339	0.411976	0.400486
	H64	H	0.394171	0.594742	0.115954
	H65	H	0.590522	0.604401	0.875091
	H66	H	0.593138	0.404435	0.116031
	H67	H	0.393571	0.403354	0.875118
	H68	H	0.588765	0.115609	0.404629
	H69	H	0.583295	0.884356	0.593141
	H70	H	0.405691	0.118053	0.594039
	H71	H	0.406658	0.885878	0.402167
	H72	H	0.907905	0.618226	0.101759
	H73	H	0.092957	0.379910	0.094192
	H74	H	0.093439	0.618320	0.900623
	H75	H	0.913705	0.388339	0.910189
	H76	H	0.089974	0.902085	0.614913
	H77	H	0.086447	0.085731	0.381552
	H78	H	0.903339	0.092497	0.612745
	H79	H	0.904523	0.900476	0.377548
	H80	H	0.613699	0.092460	0.902519
	H81	H	0.378237	0.092374	0.090641
	H82	H	0.614590	0.910066	0.089225
	H83	H	0.377961	0.911868	0.898676
	H84	H	0.614690	0.904644	0.086688
	H85	H	0.376562	0.096049	0.089271
	H86	H	0.613843	0.094682	0.901360
	H87	H	0.374780	0.900610	0.900634
	H88	H	0.904466	0.093512	0.612694
	H89	H	0.084744	0.101293	0.377071
	H90	H	0.091101	0.909472	0.613718
	H91	H	0.900523	0.907014	0.378241
	H92	H	0.084669	0.615771	0.899646
	H93	H	0.081767	0.384396	0.090573
	H94	H	0.908271	0.611574	0.082232
	H95	H	0.887799	0.380891	0.907538
	H96	H	0.404094	0.115591	0.586931
	H97	H	0.585030	0.887526	0.581214
	H98	H	0.593561	0.118290	0.402272
	H99	H	0.400721	0.884908	0.404319
	H100	H	0.588513	0.415615	0.111008
	H101	H	0.598210	0.589177	0.877137
	H102	H	0.405488	0.588788	0.109656
	H103	H	0.405920	0.417086	0.883053
	H104	H	0.108635	0.590087	0.416246
	H105	H	0.875709	0.587161	0.597065
	H106	H	0.114784	0.408119	0.593277
	H107	H	0.874911	0.400091	0.398972
	H108	H	0.890972	0.619955	0.090309
	H109	H	0.091057	0.384018	0.082205
	H110	H	0.088507	0.614221	0.907696
	H111	H	0.903649	0.379102	0.885637
	H112	H	0.084412	0.906474	0.612464
	H113	H	0.098656	0.093480	0.375612
	H114	H	0.903218	0.094518	0.612712
	H115	H	0.907411	0.906205	0.380452
	H116	H	0.613133	0.093754	0.903687
	H117	H	0.379543	0.093813	0.086675
	H118	H	0.612763	0.909389	0.083691
	H119	H	0.379904	0.906745	0.910003
	C120	C	0.373763	0.009302	0.618381
	C121	C	0.617196	0.992393	0.616963
	C122	C	0.618373	0.009465	0.373233
	C123	C	0.374810	0.992641	0.374183
	C124	C	0.616235	0.379857	0.004222
	C125	C	0.617884	0.622894	0.986899
	C126	C	0.374061	0.622281	0.004144
	C127	C	0.374363	0.378738	0.987793
	C128	C	0.003881	0.620641	0.375088
	C129	C	0.986403	0.621544	0.617731
	C130	C	0.003752	0.379035	0.615705
	C131	C	0.986446	0.377874	0.374113
	C132	C	0.873462	0.508271	0.118417
	C133	C	0.116806	0.490962	0.117592
	C134	C	0.117692	0.508156	0.873353
	C135	C	0.873977	0.491274	0.874002
	C136	C	0.117170	0.878054	0.504519
	C137	C	0.118236	0.122427	0.486841
	C138	C	0.875501	0.121105	0.503971
	C139	C	0.874531	0.877421	0.487442
	C140	C	0.504488	0.121806	0.874216
	C141	C	0.487465	0.122852	0.117415
	C142	C	0.504877	0.879601	0.116145
	C143	C	0.486505	0.878205	0.873733
	C144	C	0.375162	0.886264	0.672922
	C145	C	0.615423	0.115335	0.672425
	C146	C	0.616113	0.886660	0.317235
	C147	C	0.377363	0.115728	0.319886
	C148	C	0.671091	0.382736	0.880249
	C149	C	0.671406	0.619293	0.111188
	C150	C	0.319766	0.618401	0.880567
	C151	C	0.319312	0.382448	0.111677
	C152	C	0.879578	0.675094	0.377647
	C153	C	0.110489	0.677164	0.615682
	C154	C	0.879604	0.323189	0.614570
	C155	C	0.110748	0.323208	0.374836
	C156	C	0.879543	0.381156	0.671542
	C157	C	0.110872	0.619132	0.671912
	C158	C	0.879254	0.616537	0.321538
	C159	C	0.110743	0.380647	0.318433
	C160	C	0.376647	0.676469	0.880649
	C161	C	0.614674	0.677854	0.110551
	C162	C	0.615112	0.323674	0.880976
	C163	C	0.375668	0.323753	0.111291
	C164	C	0.672567	0.886217	0.375697
	C165	C	0.672509	0.115520	0.613708
	C166	C	0.318627	0.886068	0.615092
	C167	C	0.320509	0.115854	0.378636
	C168	C	0.875529	0.384703	0.172047
	C169	C	0.114532	0.613955	0.173453
	C170	C	0.115115	0.385242	0.817715
	C171	C	0.877252	0.614497	0.819969
	C172	C	0.172241	0.881775	0.380938
	C173	C	0.171479	0.119152	0.611164
	C174	C	0.821267	0.117387	0.379818
	C175	C	0.818769	0.882135	0.611031
	C176	C	0.380134	0.176241	0.877101
	C177	C	0.611540	0.178122	0.115094
	C178	C	0.380481	0.824608	0.115130
	C179	C	0.610739	0.823712	0.874707
	C180	C	0.380532	0.882897	0.171453
	C181	C	0.611841	0.120495	0.171785
	C182	C	0.379888	0.118064	0.820431
	C183	C	0.610717	0.881288	0.818093
	C184	C	0.877182	0.175828	0.380043
	C185	C	0.116199	0.178489	0.610225
	C186	C	0.115785	0.822882	0.381202
	C187	C	0.875347	0.823370	0.611033
	C188	C	0.172694	0.385169	0.876082
	C189	C	0.170904	0.614778	0.114716
	C190	C	0.818369	0.384986	0.113794
	C191	C	0.820676	0.615077	0.878286
	C192	C	0.396133	0.095330	0.596983
	C193	C	0.594212	0.906676	0.594282
	C194	C	0.596594	0.095376	0.395521
	C195	C	0.396816	0.906638	0.395478
	C196	C	0.593839	0.401889	0.090733
	C197	C	0.596548	0.601231	0.900287
	C198	C	0.395607	0.601440	0.090758
	C199	C	0.397048	0.399972	0.901405
	C200	C	0.090677	0.598905	0.397158
	C201	C	0.899513	0.599308	0.595591
	C202	C	0.090281	0.401236	0.593130
	C203	C	0.899768	0.398935	0.396588
	C204	C	0.895792	0.594157	0.097600
	C205	C	0.094993	0.405016	0.095557
	C206	C	0.095371	0.593903	0.895918
	C207	C	0.895294	0.405007	0.894925
	C208	C	0.095043	0.899590	0.591215
	C209	C	0.096433	0.100098	0.400606
	C210	C	0.897537	0.100011	0.590246
	C211	C	0.897664	0.898311	0.401113
	C212	C	0.591298	0.100244	0.896106
	C213	C	0.400682	0.100785	0.095195
	C214	C	0.591521	0.901685	0.093289
	C215	C	0.399985	0.899940	0.896579
	Zn216	Zn	0.495302	0.000168	0.746463
	Zn217	Zn	0.496671	0.001129	0.244638
	Zn218	Zn	0.745522	0.500512	-0.004387
	Zn219	Zn	0.245639	0.500195	-0.003695
	Zn220	Zn	-0.004083	0.748540	0.496314
	Zn221	Zn	-0.004437	0.249577	0.494806
	Zn222	Zn	-0.004703	0.499974	0.744591
	Zn223	Zn	-0.004978	0.499170	0.246641
	Zn224	Zn	0.495625	0.751067	-0.004518
	Zn225	Zn	0.495918	0.250264	-0.003846
	Zn226	Zn	0.746881	0.000461	0.495056
	Zn227	Zn	0.245965	0.000689	0.496716
	N228	N	0.408783	0.963711	0.674981
	N229	N	0.581912	0.037550	0.674650
	N230	N	0.583073	0.964447	0.315532
	N231	N	0.410691	0.038216	0.317237
	N232	N	0.671988	0.416738	0.957979
	N233	N	0.673402	0.585803	0.033240
	N234	N	0.317968	0.585501	0.958407
	N235	N	0.318361	0.415938	0.034066
	N236	N	0.958299	0.677524	0.410310
	N237	N	0.031978	0.678798	0.582879
	N238	N	0.957775	0.321700	0.580635
	N239	N	0.032640	0.321268	0.408887
	N240	N	0.957700	0.415157	0.672403
	N241	N	0.032691	0.585284	0.673238
	N242	N	0.957625	0.583645	0.319519
	N243	N	0.032584	0.414014	0.317872
	N244	N	0.409785	0.678927	0.958603
	N245	N	0.582174	0.680265	0.032274
	N246	N	0.581788	0.321757	0.959068
	N247	N	0.409345	0.321514	0.033253
	N248	N	0.673984	0.963370	0.409692
	N249	N	0.673943	0.038038	0.580143
	N250	N	0.317654	0.963605	0.581765
	N251	N	0.318500	0.038193	0.411457
	N252	N	0.909056	0.462223	0.174907
	N253	N	0.081807	0.536103	0.175499
	N254	N	0.082110	0.462798	0.815755
	N255	N	0.909721	0.536659	0.817212
	N256	N	0.173260	0.915332	0.458812
	N257	N	0.172898	0.085005	0.533564
	N258	N	0.820206	0.083936	0.457534
	N259	N	0.818193	0.915081	0.532895
	N260	N	0.458566	0.178552	0.910032
	N261	N	0.533148	0.179573	0.081906
	N262	N	0.458801	0.822433	0.081462
	N263	N	0.532373	0.821525	0.908520
	N264	N	0.458871	0.916512	0.172192
	N265	N	0.533655	0.086951	0.173393
	N266	N	0.458223	0.084974	0.818726
	N267	N	0.532549	0.914538	0.817406
	N268	N	0.910098	0.178313	0.458204
	N269	N	0.083681	0.180588	0.531981
	N270	N	0.082348	0.820425	0.459228
	N271	N	0.909080	0.820267	0.533240
	N272	N	0.174326	0.462639	0.910016
	N273	N	0.172565	0.537387	0.080735
	N274	N	0.816801	0.462786	0.081257
	N275	N	0.818821	0.537592	0.911347
	O276	O	0.473951	0.469658	0.485380
	H277	H	0.463025	0.469050	0.473259
	H278	H	0.467884	0.476336	0.491578
	O279	O	0.544376	0.596896	0.461262
	H280	H	0.537300	0.593749	0.473666
	H281	H	0.553265	0.589411	0.464601
	O282	O	0.442812	0.515145	0.536954
	H283	H	0.445662	0.516491	0.537564
	H284	H	0.443256	0.516365	0.543194
	O285	O	0.025497	0.934184	0.973443
	H286	H	0.033805	0.935334	0.978678
	H287	H	0.018911	0.922648	0.971613
	O288	O	0.479976	0.497577	0.439118
	H289	H	0.484754	0.492281	0.445935
	H290	H	0.474699	0.508516	0.433949
	O291	O	-0.032932	-0.066615	1.047229
	H292	H	-0.033403	-0.066896	1.046370
	H293	H	-0.030420	-0.063864	1.044520
	O294	O	0.950643	0.951579	0.953027
	H295	H	0.955816	0.956185	0.951990
	H296	H	0.945111	0.943837	0.949233
	O297	O	0.468013	0.446789	0.570443
	H298	H	0.466230	0.454595	0.572009
	H299	H	0.473778	0.444389	0.573256
	O300	O	0.444583	0.519278	0.515253
	H301	H	0.445955	0.524746	0.520473
	H302	H	0.447154	0.522248	0.517071
	O303	O	0.431057	0.491686	0.527879
	H304	H	0.429255	0.498216	0.532308
	H305	H	0.435250	0.491337	0.525177
	O306	O	1.580482	0.534621	0.551278
	H307	H	1.574957	0.530217	0.559233
	H308	H	1.579782	0.526286	0.553152
	O309	O	0.522750	0.502324	0.485073
	H310	H	0.528926	0.501216	0.483961
	H311	H	0.520953	0.488570	0.479637
	O312	O	0.482392	0.472633	0.447007
	H313	H	0.469518	0.472219	0.448682
	H314	H	0.488480	0.470798	0.443626
	O315	O	0.979240	-0.010671	1.000737
	H316	H	0.970414	-0.015366	1.004125
	H317	H	0.977804	-0.011166	1.004234
	O318	O	-0.402880	-0.439023	0.415629
	H319	H	-0.397697	-0.444941	0.417813
	H320	H	-0.397656	-0.443301	0.413628
	O321	O	0.479954	0.488816	0.518580
	H322	H	0.487078	0.493448	0.522626
	H323	H	0.481895	0.482861	0.511790
	O324	O	0.967122	-0.037035	0.016221
	H325	H	0.978224	-0.028467	0.024523
	H326	H	0.970838	-0.039634	0.028986
	O327	O	0.969545	0.983343	0.038566
	H328	H	0.968515	0.981497	0.022845
	H329	H	0.966074	0.986333	0.035881
	O330	O	0.502739	0.522364	0.420866
	H331	H	0.503624	0.526544	0.419057
	H332	H	0.486056	0.533329	0.424965
	O333	O	0.397810	0.464968	0.498821
	H334	H	0.397203	0.466664	0.491797
	H335	H	0.401060	0.470742	0.498077
