data_Molecule from HDF5

_cell_length_a		16.087534
_cell_length_b		16.206695
_cell_length_c		16.354296
_cell_angle_alpha	90.307706
_cell_angle_beta	89.988697
_cell_angle_gamma	89.943318
_symmetry_space_group_name_H-M	'P 1'
_symmetry_Int_Tables_number		1

loop_
	_symmetry_equiv_pos_as_xyz
	x,y,z

loop_
	_atom_site_label
	_atom_site_type_symbol
	_atom_site_fract_x
	_atom_site_fract_y
	_atom_site_fract_z
	H0	H	0.398449	0.833464	0.711933
	H1	H	0.603452	0.159602	0.715642
	H2	H	0.603169	0.833691	0.278720
	H3	H	0.399859	0.161306	0.281434
	H4	H	0.712745	0.396099	0.833627
	H5	H	0.711971	0.596440	0.159859
	H6	H	0.283047	0.592945	0.832440
	H7	H	0.281210	0.398704	0.159015
	H8	H	0.833968	0.712206	0.399423
	H9	H	0.165616	0.710116	0.595383
	H10	H	0.834214	0.283528	0.595937
	H11	H	0.163614	0.285649	0.397922
	H12	H	0.833618	0.398298	0.710044
	H13	H	0.162172	0.600025	0.713379
	H14	H	0.832073	0.598149	0.283414
	H15	H	0.160984	0.395059	0.278578
	H16	H	0.394052	0.714111	0.834951
	H17	H	0.595822	0.712159	0.159900
	H18	H	0.598052	0.279097	0.834247
	H19	H	0.397107	0.281860	0.159044
	H20	H	0.712861	0.831969	0.399765
	H21	H	0.713380	0.161521	0.595831
	H22	H	0.286867	0.832475	0.591564
	H23	H	0.287961	0.162859	0.400172
	H24	H	0.890851	0.335147	0.213348
	H25	H	0.097640	0.660010	0.213735
	H26	H	0.101734	0.336190	0.776277
	H27	H	0.894877	0.661685	0.780296
	H28	H	0.212691	0.900715	0.332277
	H29	H	0.214388	0.097630	0.659641
	H30	H	0.782709	0.096160	0.334533
	H31	H	0.784729	0.898016	0.659293
	H32	H	0.333530	0.209758	0.896878
	H33	H	0.662934	0.214062	0.097034
	H34	H	0.332716	0.787935	0.093999
	H35	H	0.662634	0.779256	0.896730
	H36	H	0.335520	0.897092	0.212680
	H37	H	0.665162	0.098415	0.211636
	H38	H	0.336382	0.098994	0.779765
	H39	H	0.664207	0.893927	0.781448
	H40	H	0.897987	0.212811	0.334161
	H41	H	0.102073	0.217404	0.658100
	H42	H	0.101647	0.780715	0.333784
	H43	H	0.901396	0.782853	0.659381
	H44	H	0.209837	0.333169	0.896715
	H45	H	0.210788	0.661055	0.095798
	H46	H	0.785103	0.332283	0.090949
	H47	H	0.781525	0.661975	0.898643
	H48	H	0.414799	0.113213	0.595177
	H49	H	0.590142	0.880944	0.586621
	H50	H	0.582216	0.111904	0.402496
	H51	H	0.410521	0.880863	0.401827
	H52	H	0.592968	0.396749	0.116158
	H53	H	0.584718	0.588615	0.882182
	H54	H	0.403782	0.593638	0.113752
	H55	H	0.409225	0.401133	0.880423
	H56	H	0.115140	0.585408	0.403943
	H57	H	0.880934	0.596263	0.582567
	H58	H	0.116002	0.411879	0.590777
	H59	H	0.882758	0.407341	0.413382
	H60	H	0.117749	0.404455	0.588549
	H61	H	0.883022	0.583471	0.588164
	H62	H	0.117086	0.588004	0.398861
	H63	H	0.878423	0.411461	0.395838
	H64	H	0.401781	0.591720	0.113476
	H65	H	0.589490	0.591632	0.878746
	H66	H	0.594560	0.412598	0.111359
	H67	H	0.400191	0.399827	0.878334
	H68	H	0.594294	0.113246	0.412554
	H69	H	0.595679	0.878801	0.589804
	H70	H	0.409337	0.112075	0.584183
	H71	H	0.406891	0.880668	0.403818
	H72	H	0.906967	0.616485	0.097250
	H73	H	0.087381	0.380634	0.083659
	H74	H	0.090155	0.615095	0.905939
	H75	H	0.906914	0.379774	0.895257
	H76	H	0.089728	0.911026	0.609490
	H77	H	0.096694	0.095437	0.378156
	H78	H	0.904197	0.088225	0.612488
	H79	H	0.903707	0.906939	0.380788
	H80	H	0.617971	0.089238	0.905001
	H81	H	0.381063	0.088612	0.091494
	H82	H	0.615072	0.909663	0.083296
	H83	H	0.380376	0.908683	0.900096
	H84	H	0.620009	0.906938	0.096458
	H85	H	0.381433	0.089367	0.090504
	H86	H	0.616635	0.088222	0.907356
	H87	H	0.380212	0.902214	0.902947
	H88	H	0.913667	0.087414	0.609278
	H89	H	0.096057	0.087572	0.380761
	H90	H	0.089595	0.895999	0.614714
	H91	H	0.912574	0.906299	0.382477
	H92	H	0.087771	0.616220	0.902039
	H93	H	0.091207	0.378447	0.090301
	H94	H	0.910490	0.612155	0.085945
	H95	H	0.911545	0.383003	0.904632
	H96	H	0.402907	0.116663	0.593684
	H97	H	0.589713	0.879448	0.592982
	H98	H	0.596258	0.116786	0.397440
	H99	H	0.407927	0.879183	0.400404
	H100	H	0.580094	0.404849	0.109712
	H101	H	0.590278	0.585868	0.881407
	H102	H	0.403752	0.591103	0.111410
	H103	H	0.403550	0.408483	0.882294
	H104	H	0.117217	0.590427	0.403569
	H105	H	0.877397	0.594518	0.596408
	H106	H	0.114750	0.409314	0.583465
	H107	H	0.875312	0.395341	0.402359
	H108	H	0.898946	0.616140	0.087602
	H109	H	0.083051	0.379974	0.091095
	H110	H	0.086569	0.614521	0.904879
	H111	H	0.900796	0.380765	0.904611
	H112	H	0.102660	0.904189	0.615615
	H113	H	0.088868	0.092499	0.380690
	H114	H	0.909853	0.096496	0.614116
	H115	H	0.908448	0.898426	0.379079
	H116	H	0.616842	0.086502	0.904834
	H117	H	0.381304	0.087525	0.090190
	H118	H	0.619936	0.895735	0.086751
	H119	H	0.383290	0.908240	0.906991
	C120	C	0.379178	0.005782	0.618527
	C121	C	0.621966	0.987878	0.619527
	C122	C	0.621336	0.005910	0.374892
	C123	C	0.379363	0.989129	0.374577
	C124	C	0.619037	0.374728	0.004779
	C125	C	0.618045	0.618540	0.988420
	C126	C	0.373938	0.619647	0.005176
	C127	C	0.374692	0.374123	0.987681
	C128	C	0.006971	0.618051	0.374703
	C129	C	0.989934	0.620146	0.618291
	C130	C	0.007470	0.378097	0.616860
	C131	C	0.988185	0.375767	0.374249
	C132	C	0.874931	0.506406	0.118255
	C133	C	0.117162	0.488198	0.117750
	C134	C	0.118460	0.506914	0.874385
	C135	C	0.875949	0.489418	0.873713
	C136	C	0.122354	0.875343	0.505015
	C137	C	0.122494	0.121149	0.487864
	C138	C	0.878600	0.119129	0.504853
	C139	C	0.878866	0.875240	0.488259
	C140	C	0.508073	0.117455	0.876074
	C141	C	0.490442	0.118687	0.118805
	C142	C	0.508347	0.876529	0.117357
	C143	C	0.490092	0.875296	0.874675
	C144	C	0.379602	0.882426	0.673636
	C145	C	0.622377	0.110890	0.676828
	C146	C	0.621745	0.882618	0.317872
	C147	C	0.380603	0.112482	0.319795
	C148	C	0.674653	0.376251	0.882383
	C149	C	0.673872	0.616500	0.111154
	C150	C	0.319941	0.614831	0.881787
	C151	C	0.318952	0.377449	0.110295
	C152	C	0.882932	0.674284	0.378431
	C153	C	0.115194	0.673769	0.615739
	C154	C	0.883375	0.321645	0.615459
	C155	C	0.113404	0.322160	0.376966
	C156	C	0.883133	0.378695	0.672374
	C157	C	0.113547	0.618958	0.674636
	C158	C	0.882127	0.617617	0.320784
	C159	C	0.111798	0.376596	0.317514
	C160	C	0.375353	0.675081	0.883038
	C161	C	0.616281	0.674286	0.111133
	C162	C	0.617471	0.318048	0.882501
	C163	C	0.376544	0.319397	0.110140
	C164	C	0.676048	0.881563	0.378229
	C165	C	0.677171	0.111767	0.617318
	C166	C	0.323888	0.881830	0.613939
	C167	C	0.324804	0.113320	0.378931
	C168	C	0.873549	0.383693	0.174350
	C169	C	0.117001	0.611194	0.174570
	C170	C	0.119187	0.384415	0.816373
	C171	C	0.875787	0.612723	0.818519
	C172	C	0.176497	0.878906	0.381606
	C173	C	0.177516	0.118899	0.610602
	C174	C	0.821311	0.116617	0.382959
	C175	C	0.823009	0.877876	0.610657
	C176	C	0.383413	0.172527	0.877479
	C177	C	0.614341	0.175229	0.116575
	C178	C	0.382902	0.823750	0.114585
	C179	C	0.613761	0.817977	0.876804
	C180	C	0.384411	0.878204	0.173816
	C181	C	0.615253	0.118067	0.173955
	C182	C	0.384867	0.117423	0.818935
	C183	C	0.614555	0.874902	0.819352
	C184	C	0.878708	0.174832	0.382820
	C185	C	0.121540	0.178529	0.609782
	C186	C	0.120988	0.819261	0.382371
	C187	C	0.880935	0.820334	0.610541
	C188	C	0.173385	0.383099	0.875987
	C189	C	0.173197	0.611763	0.115740
	C190	C	0.820304	0.382441	0.113633
	C191	C	0.818986	0.612704	0.876806
	C192	C	0.402135	0.091679	0.597172
	C193	C	0.598761	0.901892	0.596614
	C194	C	0.597850	0.091855	0.397712
	C195	C	0.401705	0.902610	0.395890
	C196	C	0.595858	0.397966	0.090316
	C197	C	0.595071	0.595481	0.903098
	C198	C	0.396487	0.598337	0.090746
	C199	C	0.397623	0.396393	0.902563
	C200	C	0.093944	0.594858	0.395929
	C201	C	0.902897	0.598195	0.595734
	C202	C	0.093780	0.401545	0.594236
	C203	C	0.901224	0.398052	0.397216
	C204	C	0.898416	0.592701	0.096586
	C205	C	0.094051	0.402000	0.094956
	C206	C	0.095052	0.592948	0.897643
	C207	C	0.899492	0.403693	0.895181
	C208	C	0.100422	0.897177	0.590818
	C209	C	0.100441	0.098422	0.402277
	C210	C	0.902266	0.097256	0.589907
	C211	C	0.901673	0.897372	0.402729
	C212	C	0.594668	0.094520	0.899045
	C213	C	0.403744	0.095270	0.097090
	C214	C	0.595643	0.897765	0.095318
	C215	C	0.403723	0.899216	0.896816
	Zn216	Zn	0.500424	-0.002704	0.747653
	Zn217	Zn	0.500525	-0.003087	0.245934
	Zn218	Zn	0.747541	0.497072	-0.003728
	Zn219	Zn	0.245470	0.496773	-0.003794
	Zn220	Zn	0.000803	0.745951	0.496276
	Zn221	Zn	-0.001008	0.249315	0.496429
	Zn222	Zn	-0.002071	0.498716	0.745337
	Zn223	Zn	-0.004332	0.496608	0.246391
	Zn224	Zn	0.497187	0.748265	-0.003257
	Zn225	Zn	0.497841	0.245357	-0.003390
	Zn226	Zn	0.748897	-0.002901	0.497352
	Zn227	Zn	0.250700	-0.002231	0.496254
	N228	N	0.413371	0.960440	0.676405
	N229	N	0.588896	0.032759	0.678517
	N230	N	0.588712	0.960961	0.315455
	N231	N	0.413729	0.034297	0.317041
	N232	N	0.675649	0.410713	0.959394
	N233	N	0.675059	0.582621	0.033804
	N234	N	0.318695	0.581444	0.958821
	N235	N	0.317419	0.410462	0.033055
	N236	N	0.961700	0.674824	0.411174
	N237	N	0.037220	0.674679	0.581426
	N238	N	0.961526	0.321260	0.581615
	N239	N	0.035501	0.321610	0.411619
	N240	N	0.961239	0.413295	0.673408
	N241	N	0.034671	0.586060	0.676212
	N242	N	0.960360	0.583389	0.318372
	N243	N	0.032712	0.409187	0.315663
	N244	N	0.407952	0.678426	0.960857
	N245	N	0.582347	0.675570	0.033837
	N246	N	0.583637	0.317118	0.959710
	N247	N	0.410356	0.317095	0.032896
	N248	N	0.676179	0.959240	0.412872
	N249	N	0.677105	0.034389	0.582512
	N250	N	0.323445	0.959448	0.580417
	N251	N	0.323987	0.035569	0.412346
	N252	N	0.906805	0.461886	0.177283
	N253	N	0.082769	0.533470	0.175687
	N254	N	0.085929	0.462637	0.814962
	N255	N	0.910274	0.534903	0.816213
	N256	N	0.177582	0.913018	0.458826
	N257	N	0.178288	0.083785	0.533823
	N258	N	0.821151	0.082610	0.459780
	N259	N	0.821311	0.911205	0.533431
	N260	N	0.461155	0.172579	0.912405
	N261	N	0.535781	0.175703	0.083249
	N262	N	0.460892	0.822673	0.080167
	N263	N	0.535388	0.817885	0.910294
	N264	N	0.463751	0.910076	0.175933
	N265	N	0.537220	0.083443	0.175439
	N266	N	0.463297	0.083763	0.817927
	N267	N	0.536687	0.910180	0.817916
	N268	N	0.913642	0.176533	0.459616
	N269	N	0.088257	0.180192	0.532343
	N270	N	0.088451	0.816603	0.460154
	N271	N	0.914842	0.818553	0.533433
	N272	N	0.172997	0.460284	0.911367
	N273	N	0.173345	0.534095	0.080927
	N274	N	0.821100	0.459826	0.079332
	N275	N	0.818773	0.535147	0.910348
	O276	O	0.357375	0.450368	0.511703
	H277	H	0.350681	0.444543	0.514835
	H278	H	0.356688	0.446815	0.501096
	O279	O	0.574017	0.558465	0.602574
	H280	H	0.586294	0.559135	0.604655
	H281	H	0.563548	0.547013	0.610906
	O282	O	1.046023	0.897324	-0.019247
	H283	H	1.044332	0.897291	-0.017051
	H284	H	1.054861	0.910500	-0.020103
	O285	O	0.970268	-0.004022	0.840324
	H286	H	0.966663	-0.003348	0.835283
	H287	H	0.961584	-0.010867	0.842532
	O288	O	0.410755	0.570867	0.505719
	H289	H	0.402397	0.566806	0.509097
	H290	H	0.411481	0.564569	0.501424
	O291	O	0.509315	0.531995	0.433855
	H292	H	0.502427	0.548518	0.432386
	H293	H	0.520737	0.530489	0.435661
	O294	O	0.447141	0.429623	0.465234
	H295	H	0.458568	0.439150	0.469931
	H296	H	0.438696	0.419971	0.479108
	O297	O	-0.076669	-0.107241	1.010922
	H298	H	-0.073570	-0.106469	1.007417
	H299	H	-0.071583	-0.105994	1.002043
	O300	O	0.447349	0.493222	0.538018
	H301	H	0.433856	0.500464	0.531460
	H302	H	0.448806	0.485888	0.529683
	O303	O	0.995517	1.004477	-0.042767
	H304	H	0.997144	1.009397	-0.069021
	H305	H	0.990285	0.999053	-0.046538
	O306	O	-0.148287	0.966019	1.105354
	H307	H	-0.149785	0.967968	1.105059
	H308	H	-0.130913	0.958825	1.117869
	O309	O	0.478678	0.488290	0.544465
	H310	H	0.481174	0.496689	0.551015
	H311	H	0.468011	0.487577	0.545293
	O312	O	0.076699	0.016791	-0.022157
	H313	H	0.081731	0.012826	-0.015723
	H314	H	0.075522	0.013938	-0.002247
	O315	O	0.984256	0.087722	-0.055516
	H316	H	0.978325	0.086850	-0.061978
	H317	H	0.983648	0.085745	-0.038655
	O318	O	0.902708	0.968887	1.046839
	H319	H	0.915799	0.972643	1.033372
	H320	H	0.889887	0.963466	1.055509
	O321	O	0.020327	-0.030729	0.923151
	H322	H	0.008327	-0.042164	0.937341
	H323	H	0.028096	-0.018476	0.916720
	O324	O	0.579573	0.472351	0.444850
	H325	H	0.580013	0.463449	0.435193
	H326	H	0.578281	0.462811	0.452228
	O327	O	0.000558	-0.006596	-0.088065
	H328	H	0.011405	-0.008029	-0.100301
	H329	H	0.011228	0.001872	-0.081774
	O330	O	0.408492	0.492785	0.589424
	H331	H	0.410840	0.492279	0.590169
	H332	H	0.412638	0.498346	0.581561
	O333	O	0.070893	1.094024	0.901218
	H334	H	0.077530	1.084010	0.908294
	H335	H	0.079600	1.091650	0.903431
	O336	O	0.056516	0.023488	-0.042830
	H337	H	0.053431	0.020461	-0.052466
	H338	H	0.052632	0.023031	-0.037491
	O339	O	0.595035	0.522369	0.541713
	H340	H	0.597386	0.513638	0.552170
	H341	H	0.610458	0.524388	0.543707
	O342	O	1.070698	1.018071	1.101987
	H343	H	1.077864	1.023947	1.095818
	H344	H	1.065769	1.018120	1.101793
	O345	O	1.040356	0.865060	0.072926
	H346	H	1.030790	0.862542	0.065849
	H347	H	1.048813	0.874530	0.059574
	O348	O	0.461808	0.408970	0.403828
	H349	H	0.463638	0.411694	0.397371
	H350	H	0.443970	0.407353	0.398237
	O351	O	0.548023	0.456766	0.588857
	H352	H	0.549063	0.465985	0.588484
	H353	H	0.546532	0.449705	0.576207
	O354	O	0.531898	0.542611	0.488749
	H355	H	0.540988	0.547439	0.490160
	H356	H	0.530336	0.532630	0.480320
	O357	O	0.943700	0.119839	0.903133
	H358	H	0.946902	0.124552	0.897446
	H359	H	0.941871	0.109921	0.895552
	O360	O	0.479224	0.514040	0.392559
	H361	H	0.475896	0.530375	0.393380
	H362	H	0.470721	0.525051	0.390056
	O363	O	0.886040	1.149854	1.021018
	H364	H	0.880844	1.160251	1.017338
	H365	H	0.889734	1.153091	1.020834
	O366	O	1.016810	0.831638	0.985409
	H367	H	1.023365	0.822989	0.997055
	H368	H	1.011246	0.830747	0.966712
	O369	O	1.120539	0.003025	1.149771
	H370	H	1.106948	0.015850	1.153355
	H371	H	1.119993	-0.000210	1.149555
	O372	O	0.095632	0.111309	0.101202
	H373	H	0.079146	0.119096	0.113473
	H374	H	0.080733	0.091065	0.115203
	O375	O	0.955957	0.037469	0.056176
	H376	H	0.961184	0.037126	0.062038
	H377	H	0.957739	0.028908	0.067039
	O378	O	0.484464	0.577712	0.424215
	H379	H	0.485963	0.577045	0.429708
	H380	H	0.491249	0.570084	0.426900
	O381	O	0.481711	0.466636	0.529643
	H382	H	0.481351	0.470559	0.544269
	H383	H	0.484946	0.460279	0.536268
