data_Molecule from HDF5

_cell_length_a		16.188363
_cell_length_b		16.263201
_cell_length_c		16.192655
_cell_angle_alpha	90.241163
_cell_angle_beta	90.109680
_cell_angle_gamma	89.874215
_symmetry_space_group_name_H-M	'P 1'
_symmetry_Int_Tables_number		1

loop_
	_symmetry_equiv_pos_as_xyz
	x,y,z

loop_
	_atom_site_label
	_atom_site_type_symbol
	_atom_site_fract_x
	_atom_site_fract_y
	_atom_site_fract_z
	H0	H	0.415411	0.848133	0.706537
	H1	H	0.614740	0.175430	0.708809
	H2	H	0.612778	0.847789	0.278279
	H3	H	0.415731	0.176467	0.279285
	H4	H	0.727297	0.413191	0.828745
	H5	H	0.729731	0.610742	0.157280
	H6	H	0.299608	0.611041	0.829059
	H7	H	0.301443	0.413817	0.157583
	H8	H	0.849631	0.727598	0.392751
	H9	H	0.179062	0.725732	0.592639
	H10	H	0.850063	0.298558	0.590757
	H11	H	0.178165	0.296195	0.393157
	H12	H	0.849835	0.413599	0.705718
	H13	H	0.178853	0.610059	0.706833
	H14	H	0.849008	0.608804	0.278733
	H15	H	0.178937	0.412034	0.278232
	H16	H	0.414331	0.726630	0.829322
	H17	H	0.615314	0.727295	0.157281
	H18	H	0.616575	0.294994	0.830585
	H19	H	0.415372	0.298221	0.157256
	H20	H	0.729481	0.847604	0.394080
	H21	H	0.729251	0.175581	0.592687
	H22	H	0.300406	0.847953	0.590241
	H23	H	0.298218	0.175294	0.393338
	H24	H	0.915421	0.347415	0.205817
	H25	H	0.113458	0.674579	0.208351
	H26	H	0.113981	0.347728	0.776994
	H27	H	0.914726	0.675773	0.779103
	H28	H	0.228156	0.911821	0.327897
	H29	H	0.228414	0.110714	0.657078
	H30	H	0.801366	0.109342	0.328154
	H31	H	0.801650	0.913732	0.657305
	H32	H	0.350162	0.227150	0.894548
	H33	H	0.679454	0.225184	0.093268
	H34	H	0.350478	0.798127	0.092428
	H35	H	0.679051	0.795863	0.892995
	H36	H	0.350034	0.914203	0.206199
	H37	H	0.678585	0.110389	0.208204
	H38	H	0.349988	0.110233	0.778829
	H39	H	0.679456	0.911746	0.777690
	H40	H	0.914663	0.225996	0.328387
	H41	H	0.113927	0.226447	0.656694
	H42	H	0.115176	0.795533	0.328869
	H43	H	0.915834	0.798303	0.656728
	H44	H	0.229949	0.347550	0.893426
	H45	H	0.228878	0.674639	0.093337
	H46	H	0.801445	0.347317	0.089069
	H47	H	0.797729	0.674193	0.892812
	H48	H	0.414209	0.132771	0.590256
	H49	H	0.606394	0.895854	0.582992
	H50	H	0.620287	0.130660	0.407755
	H51	H	0.411207	0.891344	0.397677
	H52	H	0.607474	0.422607	0.109727
	H53	H	0.597231	0.614261	0.875907
	H54	H	0.422278	0.604968	0.110684
	H55	H	0.417597	0.420136	0.874426
	H56	H	0.132836	0.611331	0.401735
	H57	H	0.899282	0.600714	0.582189
	H58	H	0.129615	0.421944	0.578687
	H59	H	0.896337	0.416788	0.399275
	H60	H	0.132459	0.422824	0.590290
	H61	H	0.895934	0.605934	0.590656
	H62	H	0.128688	0.600088	0.405674
	H63	H	0.896564	0.420337	0.398858
	H64	H	0.423010	0.606428	0.110345
	H65	H	0.618714	0.605764	0.871709
	H66	H	0.605589	0.415924	0.111431
	H67	H	0.426567	0.423871	0.878643
	H68	H	0.607774	0.133291	0.386251
	H69	H	0.611216	0.894701	0.584775
	H70	H	0.429549	0.127882	0.589665
	H71	H	0.427836	0.894619	0.389681
	H72	H	0.921252	0.628539	0.086346
	H73	H	0.105257	0.396017	0.082120
	H74	H	0.114765	0.630383	0.902453
	H75	H	0.927944	0.395617	0.893238
	H76	H	0.114051	0.922426	0.610444
	H77	H	0.104791	0.096287	0.377999
	H78	H	0.931788	0.107300	0.608252
	H79	H	0.919395	0.925271	0.375647
	H80	H	0.629296	0.105672	0.910737
	H81	H	0.397729	0.093650	0.092860
	H82	H	0.633803	0.912445	0.084473
	H83	H	0.398858	0.918434	0.903921
	H84	H	0.628610	0.922613	0.079442
	H85	H	0.391097	0.118493	0.093044
	H86	H	0.630928	0.095346	0.897287
	H87	H	0.398511	0.923053	0.898482
	H88	H	0.917845	0.114338	0.614875
	H89	H	0.100066	0.109423	0.375259
	H90	H	0.102636	0.921644	0.608237
	H91	H	0.928900	0.919110	0.376945
	H92	H	0.104384	0.630092	0.893777
	H93	H	0.113087	0.393564	0.083694
	H94	H	0.923454	0.627875	0.084876
	H95	H	0.921885	0.396499	0.905632
	H96	H	0.420648	0.126518	0.576398
	H97	H	0.606881	0.894264	0.587711
	H98	H	0.596252	0.123553	0.406297
	H99	H	0.424982	0.899652	0.408614
	H100	H	0.611987	0.418097	0.112652
	H101	H	0.601869	0.591382	0.880780
	H102	H	0.421669	0.606722	0.111513
	H103	H	0.425975	0.414263	0.875869
	H104	H	0.132382	0.601347	0.393724
	H105	H	0.896104	0.610998	0.581308
	H106	H	0.134111	0.412458	0.585044
	H107	H	0.895657	0.418050	0.395863
	H108	H	0.920833	0.627825	0.083883
	H109	H	0.107457	0.392459	0.090088
	H110	H	0.102585	0.624966	0.905854
	H111	H	0.914206	0.390832	0.894707
	H112	H	0.107519	0.912199	0.612472
	H113	H	0.114024	0.106339	0.371560
	H114	H	0.916967	0.098015	0.609210
	H115	H	0.919321	0.914129	0.372642
	H116	H	0.634612	0.111177	0.896102
	H117	H	0.400567	0.107759	0.071211
	H118	H	0.633032	0.922518	0.091248
	H119	H	0.396128	0.916535	0.896979
	C120	C	0.392596	0.020659	0.613937
	C121	C	0.637072	1.003162	0.614608
	C122	C	0.636850	0.020487	0.371026
	C123	C	0.392428	1.003501	0.370437
	C124	C	0.636721	0.389787	0.002613
	C125	C	0.636089	0.632995	0.984696
	C126	C	0.393126	0.634018	0.002218
	C127	C	0.394163	0.390869	0.984535
	C128	C	0.022443	0.633290	0.371151
	C129	C	1.005585	0.633922	0.614309
	C130	C	0.023115	0.390663	0.613388
	C131	C	1.005405	0.389907	0.370094
	C132	C	0.893064	0.519951	0.113164
	C133	C	0.136886	0.502245	0.114883
	C134	C	0.136414	0.520114	0.871271
	C135	C	0.892259	0.502604	0.869869
	C136	C	0.136353	0.889986	0.501093
	C137	C	0.135690	0.132932	0.483818
	C138	C	0.893121	0.134002	0.501630
	C139	C	0.894148	0.891303	0.484065
	C140	C	0.523145	0.133731	0.872023
	C141	C	0.505686	0.134169	0.114784
	C142	C	0.523263	0.890788	0.113883
	C143	C	0.506108	0.889696	0.870606
	C144	C	0.395076	0.897218	0.668981
	C145	C	0.634964	0.126506	0.670743
	C146	C	0.633851	0.896925	0.315749
	C147	C	0.395094	0.127207	0.316559
	C148	C	0.690682	0.392048	0.878194
	C149	C	0.692215	0.631204	0.108220
	C150	C	0.336927	0.631834	0.878620
	C151	C	0.338686	0.393476	0.108308
	C152	C	0.898796	0.689250	0.372950
	C153	C	0.129590	0.688350	0.612535
	C154	C	0.899176	0.336294	0.611008
	C155	C	0.129121	0.334196	0.372758
	C156	C	0.899137	0.393292	0.668344
	C157	C	0.129585	0.631093	0.669599
	C158	C	0.898390	0.630502	0.316135
	C159	C	0.129462	0.391606	0.315341
	C160	C	0.394634	0.688705	0.878366
	C161	C	0.635071	0.688984	0.108172
	C162	C	0.635536	0.333483	0.879087
	C163	C	0.395657	0.336144	0.108388
	C164	C	0.691500	0.896799	0.373756
	C165	C	0.691783	0.126652	0.612970
	C166	C	0.337896	0.897063	0.611105
	C167	C	0.336601	0.126612	0.373209
	C168	C	0.895461	0.396334	0.167851
	C169	C	0.133764	0.625644	0.170359
	C170	C	0.134404	0.396662	0.815224
	C171	C	0.894395	0.626437	0.816134
	C172	C	0.191041	0.891876	0.377334
	C173	C	0.190732	0.130726	0.607947
	C174	C	0.838638	0.130244	0.377367
	C175	C	0.839488	0.893844	0.608108
	C176	C	0.399423	0.189421	0.873973
	C177	C	0.629771	0.188283	0.113467
	C178	C	0.399559	0.835810	0.112118
	C179	C	0.629941	0.833999	0.872789
	C180	C	0.399275	0.893477	0.168865
	C181	C	0.629561	0.131050	0.170424
	C182	C	0.399235	0.131164	0.816592
	C183	C	0.630152	0.891760	0.815528
	C184	C	0.894806	0.188363	0.377618
	C185	C	0.134061	0.188556	0.607485
	C186	C	0.135019	0.833717	0.377945
	C187	C	0.896076	0.836171	0.607802
	C188	C	0.192011	0.396665	0.873136
	C189	C	0.191285	0.625700	0.113363
	C190	C	0.838412	0.396273	0.110308
	C191	C	0.836394	0.625658	0.873023
	C192	C	0.414673	0.106708	0.591838
	C193	C	0.614724	0.917114	0.591844
	C194	C	0.614657	0.106872	0.393457
	C195	C	0.414719	0.917432	0.392312
	C196	C	0.614835	0.412366	0.088946
	C197	C	0.612903	0.610421	0.898380
	C198	C	0.415745	0.612386	0.088508
	C199	C	0.416843	0.412865	0.898561
	C200	C	0.108817	0.610931	0.393793
	C201	C	0.919213	0.612272	0.591507
	C202	C	0.109691	0.412612	0.591322
	C203	C	0.918476	0.412061	0.391639
	C204	C	0.915368	0.605949	0.091363
	C205	C	0.115087	0.416217	0.091938
	C206	C	0.113662	0.605956	0.893911
	C207	C	0.914800	0.416622	0.891514
	C208	C	0.114502	0.912261	0.587871
	C209	C	0.113161	0.110521	0.397304
	C210	C	0.915521	0.112889	0.588320
	C211	C	0.916006	0.913164	0.397734
	C212	C	0.609327	0.110844	0.894592
	C213	C	0.418997	0.112807	0.092301
	C214	C	0.609588	0.912968	0.091650
	C215	C	0.420165	0.912390	0.893155
	Zn216	Zn	0.514892	0.011894	0.742228
	Zn217	Zn	0.514177	0.012246	0.241968
	Zn218	Zn	0.764072	0.510828	-0.007384
	Zn219	Zn	0.265249	0.511567	-0.006795
	Zn220	Zn	0.014492	0.762000	0.492907
	Zn221	Zn	0.014341	0.261759	0.492467
	Zn222	Zn	0.014283	0.511868	0.741852
	Zn223	Zn	0.014134	0.511063	0.242089
	Zn224	Zn	0.514808	0.761906	-0.006747
	Zn225	Zn	0.515227	0.262744	-0.005609
	Zn226	Zn	0.765553	0.011928	0.493273
	Zn227	Zn	0.263863	0.011766	0.492213
	N228	N	0.428372	0.975093	0.670859
	N229	N	0.601637	0.048710	0.671965
	N230	N	0.600437	0.974923	0.313862
	N231	N	0.429236	0.049626	0.314802
	N232	N	0.691579	0.426322	0.955831
	N233	N	0.692936	0.597137	0.030295
	N234	N	0.335865	0.598439	0.956547
	N235	N	0.337729	0.427030	0.030375
	N236	N	0.976957	0.691002	0.406505
	N237	N	0.051421	0.690501	0.579026
	N238	N	0.977222	0.334494	0.577622
	N239	N	0.050888	0.332753	0.405648
	N240	N	0.977403	0.426315	0.670096
	N241	N	0.051529	0.597937	0.670908
	N242	N	0.976218	0.596417	0.314777
	N243	N	0.051607	0.425743	0.313713
	N244	N	0.428591	0.690479	0.956283
	N245	N	0.600834	0.690119	0.030378
	N246	N	0.602687	0.331965	0.957523
	N247	N	0.429430	0.334366	0.030552
	N248	N	0.693453	0.974685	0.407139
	N249	N	0.693364	0.048837	0.579133
	N250	N	0.336169	0.974704	0.577686
	N251	N	0.334794	0.048764	0.405812
	N252	N	0.928851	0.474189	0.169736
	N253	N	0.100684	0.547778	0.171672
	N254	N	0.100585	0.474402	0.813756
	N255	N	0.928641	0.548821	0.814000
	N256	N	0.192129	0.926040	0.455212
	N257	N	0.192031	0.096913	0.529906
	N258	N	0.837280	0.097254	0.455439
	N259	N	0.837884	0.927142	0.530139
	N260	N	0.477419	0.190941	0.907947
	N261	N	0.551648	0.190455	0.079642
	N262	N	0.477717	0.833923	0.078741
	N263	N	0.551904	0.832529	0.906331
	N264	N	0.477298	0.926732	0.170257
	N265	N	0.551378	0.097987	0.171358
	N266	N	0.477178	0.097389	0.815167
	N267	N	0.552361	0.925879	0.813981
	N268	N	0.928323	0.190606	0.455832
	N269	N	0.100598	0.190132	0.529300
	N270	N	0.101639	0.832607	0.455909
	N271	N	0.929454	0.834391	0.529836
	N272	N	0.193602	0.474525	0.907033
	N273	N	0.193261	0.548106	0.079446
	N274	N	0.837074	0.473900	0.076835
	N275	N	0.834744	0.547740	0.905615
	O276	O	1.026339	0.948172	-0.018273
	H277	H	1.023241	0.947175	-0.022698
	H278	H	1.025137	0.941083	-0.012978
	O279	O	0.025278	0.015115	1.053679
	H280	H	0.026675	0.015583	1.046207
	H281	H	0.024843	0.014734	1.051365
	O282	O	0.054829	0.013113	-0.012825
	H283	H	0.060737	0.004461	-0.015245
	H284	H	0.048432	0.022913	-0.007858
	O285	O	0.499585	0.540417	0.532025
	H286	H	0.501418	0.548041	0.533683
	H287	H	0.501093	0.533391	0.522369
	O288	O	-0.985648	-1.014163	-0.041619
	H289	H	-0.969518	-1.015130	-0.040309
	H290	H	-0.991090	-1.003937	-0.055241
	O291	O	0.067625	0.908326	-0.012893
	H292	H	0.069846	0.903639	-0.004758
	H293	H	0.062623	0.905702	-0.005627
	O294	O	-0.012727	1.016462	0.005378
	H295	H	-0.014275	1.024973	0.006277
	H296	H	-0.017562	1.019245	0.010238
	O297	O	0.518443	0.527134	0.503196
	H298	H	0.514229	0.525245	0.513050
	H299	H	0.526541	0.519611	0.494016
	O300	O	0.970293	-0.006087	-0.100223
	H301	H	0.965672	-0.004193	-0.103395
	H302	H	0.973934	-0.001326	-0.104358
	O303	O	1.002781	0.004613	1.036271
	H304	H	1.013900	0.000925	1.032884
	H305	H	0.992671	-0.009137	1.046499
	O306	O	0.001449	0.990019	0.902834
	H307	H	-0.001351	0.994459	0.903309
	H308	H	0.002553	0.989693	0.903970
	O309	O	0.017031	1.047085	1.071147
	H310	H	0.017574	1.039078	1.073936
	H311	H	0.015948	1.046713	1.069849
	O312	O	-0.069845	-0.073616	1.069200
	H313	H	-0.066249	-0.073892	1.080086
	H314	H	-0.074970	-0.067887	1.066535
	O315	O	0.389142	0.528199	0.500222
	H316	H	0.381077	0.529926	0.503446
	H317	H	0.388210	0.514465	0.502531
	O318	O	-0.001132	0.049874	0.921622
	H319	H	-0.002156	0.053388	0.923335
	H320	H	0.001142	0.060527	0.924973
	O321	O	0.473895	0.509422	0.426568
	H322	H	0.477168	0.512098	0.424716
	H323	H	0.473309	0.507449	0.423555
	O324	O	0.387540	-0.302402	1.327435
	H325	H	0.378636	-0.288962	1.324915
	H326	H	0.391185	-0.299171	1.338551
	O327	O	0.986816	1.020114	0.978907
	H328	H	0.980594	1.014217	0.977444
	H329	H	0.980697	1.014505	0.978306
	O330	O	0.000783	0.003961	0.986452
	H331	H	-0.000597	0.002768	0.980855
	H332	H	0.010082	-0.002596	0.974632
	O333	O	0.496734	0.561249	0.480180
	H334	H	0.500397	0.559301	0.484046
	H335	H	0.491546	0.559789	0.483671
	O336	O	0.516375	0.511937	0.578797
	H337	H	0.518040	0.520363	0.580321
	H338	H	0.518495	0.510375	0.581432
	O339	O	0.467235	0.532266	0.488342
	H340	H	0.461834	0.530374	0.472998
	H341	H	0.463567	0.542590	0.490749
	O342	O	0.540828	0.530877	0.578354
	H343	H	0.543492	0.529121	0.577249
	H344	H	0.543299	0.530718	0.572094
	O345	O	0.434500	0.510687	0.444406
	H346	H	0.435368	0.504706	0.444697
	H347	H	0.434218	0.515718	0.450992
