data_Molecule from HDF5

_cell_length_a		16.461530
_cell_length_b		16.056068
_cell_length_c		16.097798
_cell_angle_alpha	89.240050
_cell_angle_beta	90.126514
_cell_angle_gamma	89.781599
_symmetry_space_group_name_H-M	'P 1'
_symmetry_Int_Tables_number		1

loop_
	_symmetry_equiv_pos_as_xyz
	x,y,z

loop_
	_atom_site_label
	_atom_site_type_symbol
	_atom_site_fract_x
	_atom_site_fract_y
	_atom_site_fract_z
	H0	H	0.412424	0.846290	0.714409
	H1	H	0.602018	0.179310	0.707881
	H2	H	0.602117	0.845248	0.293446
	H3	H	0.408286	0.177601	0.286360
	H4	H	0.723542	0.410631	0.837458
	H5	H	0.723236	0.611044	0.165197
	H6	H	0.288703	0.615836	0.837697
	H7	H	0.289510	0.405005	0.165182
	H8	H	0.844690	0.729249	0.401893
	H9	H	0.170250	0.723385	0.598949
	H10	H	0.844178	0.295018	0.603373
	H11	H	0.169423	0.297189	0.407583
	H12	H	0.844808	0.412068	0.719148
	H13	H	0.170056	0.607313	0.717700
	H14	H	0.844654	0.612929	0.284317
	H15	H	0.169434	0.412735	0.289274
	H16	H	0.408568	0.726111	0.835763
	H17	H	0.601413	0.718079	0.169145
	H18	H	0.601177	0.303896	0.833943
	H19	H	0.411471	0.297176	0.167307
	H20	H	0.723696	0.848286	0.400618
	H21	H	0.721548	0.176355	0.600412
	H22	H	0.292901	0.847491	0.604616
	H23	H	0.289124	0.175973	0.394554
	H24	H	0.911869	0.345079	0.216143
	H25	H	0.102657	0.677804	0.210867
	H26	H	0.102977	0.344673	0.795228
	H27	H	0.909520	0.677386	0.788148
	H28	H	0.223251	0.910867	0.336836
	H29	H	0.224616	0.112842	0.664082
	H30	H	0.788658	0.118355	0.338506
	H31	H	0.789831	0.906254	0.664908
	H32	H	0.343872	0.228830	0.901085
	H33	H	0.669131	0.223896	0.096975
	H34	H	0.343577	0.795114	0.101571
	H35	H	0.669140	0.796556	0.904976
	H36	H	0.343843	0.910548	0.218349
	H37	H	0.667308	0.108964	0.217556
	H38	H	0.344543	0.114764	0.782791
	H39	H	0.669795	0.915427	0.789198
	H40	H	0.908179	0.228761	0.337758
	H41	H	0.100055	0.215533	0.669650
	H42	H	0.103246	0.801438	0.335177
	H43	H	0.913069	0.799010	0.668191
	H44	H	0.222215	0.347154	0.902269
	H45	H	0.223048	0.675016	0.102760
	H46	H	0.791113	0.346685	0.106797
	H47	H	0.790193	0.675614	0.897283
	H48	H	0.408369	0.135843	0.597982
	H49	H	0.588402	0.896639	0.597139
	H50	H	0.594744	0.128618	0.412869
	H51	H	0.412138	0.892060	0.410166
	H52	H	0.597532	0.416131	0.118934
	H53	H	0.602529	0.606380	0.881820
	H54	H	0.414886	0.599629	0.118304
	H55	H	0.413964	0.429585	0.885972
	H56	H	0.119354	0.601326	0.413968
	H57	H	0.887913	0.611058	0.603392
	H58	H	0.119731	0.421850	0.597750
	H59	H	0.890133	0.416482	0.409409
	H60	H	0.125976	0.412668	0.608524
	H61	H	0.893113	0.609308	0.586755
	H62	H	0.122751	0.601013	0.400070
	H63	H	0.892316	0.422023	0.411735
	H64	H	0.412310	0.604113	0.121256
	H65	H	0.600102	0.600024	0.884053
	H66	H	0.604232	0.415599	0.121659
	H67	H	0.415773	0.417997	0.883161
	H68	H	0.603374	0.131122	0.409384
	H69	H	0.604758	0.895511	0.582597
	H70	H	0.421899	0.127954	0.588880
	H71	H	0.414716	0.893896	0.411787
	H72	H	0.916908	0.627276	0.087567
	H73	H	0.109711	0.390528	0.091123
	H74	H	0.090379	0.625700	0.914348
	H75	H	0.914634	0.390572	0.905461
	H76	H	0.099740	0.911827	0.620350
	H77	H	0.091220	0.094822	0.387785
	H78	H	0.910905	0.101645	0.621708
	H79	H	0.913781	0.923276	0.383657
	H80	H	0.626992	0.121699	0.902550
	H81	H	0.389512	0.114158	0.088902
	H82	H	0.618908	0.922410	0.097177
	H83	H	0.390641	0.919399	0.905438
	H84	H	0.623685	0.913291	0.103269
	H85	H	0.394751	0.096414	0.086474
	H86	H	0.617412	0.104130	0.918288
	H87	H	0.390814	0.918150	0.909308
	H88	H	0.911561	0.098287	0.620212
	H89	H	0.093681	0.115656	0.381321
	H90	H	0.107780	0.919955	0.620779
	H91	H	0.911890	0.922045	0.383488
	H92	H	0.107170	0.630164	0.916492
	H93	H	0.099015	0.390118	0.105452
	H94	H	0.907446	0.630605	0.087036
	H95	H	0.918751	0.395739	0.916743
	H96	H	0.406926	0.130518	0.581690
	H97	H	0.607314	0.887836	0.603616
	H98	H	0.596923	0.132207	0.404449
	H99	H	0.411385	0.893119	0.413852
	H100	H	0.601126	0.421822	0.118172
	H101	H	0.596136	0.605270	0.884086
	H102	H	0.409186	0.598910	0.120269
	H103	H	0.404934	0.422337	0.881099
	H104	H	0.124342	0.613755	0.407550
	H105	H	0.893269	0.595740	0.597722
	H106	H	0.122876	0.408250	0.595134
	H107	H	0.891149	0.421106	0.406528
	H108	H	0.911845	0.631138	0.096026
	H109	H	0.092997	0.395764	0.089331
	H110	H	0.100640	0.633895	0.900094
	H111	H	0.905838	0.391035	0.916603
	H112	H	0.096931	0.922972	0.617264
	H113	H	0.110570	0.102270	0.380666
	H114	H	0.914127	0.100311	0.619578
	H115	H	0.911739	0.924484	0.383721
	H116	H	0.622149	0.097403	0.894096
	H117	H	0.388066	0.101420	0.103157
	H118	H	0.620828	0.912078	0.091294
	H119	H	0.391877	0.921770	0.908063
	C120	C	0.385240	0.021543	0.620710
	C121	C	0.628023	1.003085	0.622057
	C122	C	0.627420	0.021063	0.380832
	C123	C	0.383897	1.002566	0.380167
	C124	C	0.628406	0.390408	0.009926
	C125	C	0.627849	0.631825	0.992732
	C126	C	0.383679	0.632215	0.010548
	C127	C	0.384648	0.391535	0.992854
	C128	C	0.014955	0.634736	0.378258
	C129	C	0.999083	0.632532	0.624015
	C130	C	0.015255	0.386671	0.627656
	C131	C	0.998410	0.390201	0.381443
	C132	C	0.884777	0.520163	0.121982
	C133	C	0.128605	0.502098	0.123177
	C134	C	0.127420	0.520273	0.882429
	C135	C	0.884318	0.501885	0.881411
	C136	C	0.129360	0.890150	0.510284
	C137	C	0.127146	0.131658	0.492675
	C138	C	0.883562	0.132541	0.511562
	C139	C	0.884760	0.890989	0.492405
	C140	C	0.515036	0.136767	0.876349
	C141	C	0.497778	0.132479	0.122136
	C142	C	0.513969	0.887303	0.125725
	C143	C	0.498793	0.890967	0.880264
	C144	C	0.390030	0.896438	0.677525
	C145	C	0.623607	0.128957	0.673196
	C146	C	0.623810	0.895495	0.328650
	C147	C	0.386744	0.127535	0.323106
	C148	C	0.684039	0.392192	0.886045
	C149	C	0.683898	0.630214	0.116601
	C150	C	0.327493	0.633884	0.886679
	C151	C	0.329139	0.388530	0.116655
	C152	C	0.893195	0.691380	0.380866
	C153	C	0.121558	0.686309	0.620590
	C154	C	0.892962	0.332272	0.624009
	C155	C	0.121092	0.335202	0.386009
	C156	C	0.893155	0.390716	0.681755
	C157	C	0.121358	0.628591	0.679725
	C158	C	0.893091	0.633530	0.322450
	C159	C	0.120752	0.392466	0.326922
	C160	C	0.387174	0.688850	0.885726
	C161	C	0.623433	0.683357	0.118507
	C162	C	0.623319	0.338909	0.884256
	C163	C	0.389579	0.334895	0.117794
	C164	C	0.684166	0.897149	0.382039
	C165	C	0.683520	0.127337	0.619968
	C166	C	0.330712	0.896988	0.622456
	C167	C	0.327649	0.126704	0.377513
	C168	C	0.889675	0.394948	0.178682
	C169	C	0.124414	0.627708	0.175283
	C170	C	0.123977	0.394701	0.830840
	C171	C	0.887905	0.627247	0.825221
	C172	C	0.184400	0.891958	0.385892
	C173	C	0.184538	0.130723	0.616065
	C174	C	0.827480	0.135557	0.387621
	C175	C	0.829056	0.888710	0.616293
	C176	C	0.392893	0.191838	0.879414
	C177	C	0.620292	0.186651	0.118628
	C178	C	0.392128	0.832616	0.122064
	C179	C	0.620461	0.834912	0.884011
	C180	C	0.392064	0.890027	0.180368
	C181	C	0.619546	0.129591	0.178394
	C182	C	0.393145	0.135084	0.820488
	C183	C	0.620860	0.893872	0.826188
	C184	C	0.886937	0.190355	0.387101
	C185	C	0.122728	0.182037	0.618702
	C186	C	0.125280	0.837128	0.385104
	C187	C	0.890372	0.835458	0.617866
	C188	C	0.183671	0.396292	0.883608
	C189	C	0.184329	0.626175	0.121641
	C190	C	0.829491	0.395863	0.124439
	C191	C	0.828452	0.626335	0.879494
	C192	C	0.406078	0.108882	0.596492
	C193	C	0.606448	0.915859	0.600853
	C194	C	0.604963	0.108232	0.402313
	C195	C	0.406167	0.915412	0.404683
	C196	C	0.607169	0.411540	0.097083
	C197	C	0.606076	0.610388	0.905958
	C198	C	0.405683	0.608065	0.097414
	C199	C	0.405531	0.416071	0.905951
	C200	C	0.100190	0.611950	0.400503
	C201	C	0.913556	0.611398	0.602475
	C202	C	0.100618	0.407817	0.606656
	C203	C	0.913294	0.412930	0.403008
	C204	C	0.905866	0.607127	0.097353
	C205	C	0.106968	0.414847	0.101763
	C206	C	0.105552	0.607491	0.903912
	C207	C	0.906496	0.415007	0.905683
	C208	C	0.107856	0.911983	0.596994
	C209	C	0.104990	0.110470	0.405866
	C210	C	0.905692	0.107344	0.598048
	C211	C	0.906315	0.915790	0.406223
	C212	C	0.600293	0.114382	0.898283
	C213	C	0.412871	0.110556	0.099487
	C214	C	0.599228	0.909482	0.103834
	C215	C	0.413124	0.913229	0.901238
	Zn216	Zn	0.506924	0.013492	0.748547
	Zn217	Zn	0.505353	0.011060	0.253875
	Zn218	Zn	0.756486	0.511182	0.001400
	Zn219	Zn	0.255245	0.511098	0.002236
	Zn220	Zn	0.007387	0.763397	0.501320
	Zn221	Zn	0.006333	0.258929	0.503447
	Zn222	Zn	0.006993	0.510386	0.755865
	Zn223	Zn	0.006947	0.511710	0.249577
	Zn224	Zn	0.506165	0.758839	0.002487
	Zn225	Zn	0.505983	0.263882	0.000588
	Zn226	Zn	0.755578	0.012052	0.501515
	Zn227	Zn	0.256431	0.012064	0.500266
	N228	N	0.423207	0.974869	0.676486
	N229	N	0.589865	0.050700	0.674691
	N230	N	0.588977	0.973637	0.327726
	N231	N	0.421192	0.049258	0.324874
	N232	N	0.687187	0.423662	0.965051
	N233	N	0.687024	0.598934	0.037386
	N234	N	0.325229	0.599376	0.965465
	N235	N	0.326152	0.423115	0.038061
	N236	N	0.970147	0.692483	0.414582
	N237	N	0.044644	0.689078	0.586907
	N238	N	0.969982	0.329661	0.591018
	N239	N	0.044113	0.333625	0.419192
	N240	N	0.970064	0.423683	0.684240
	N241	N	0.044107	0.595903	0.681961
	N242	N	0.969956	0.599606	0.320356
	N243	N	0.043581	0.425872	0.323827
	N244	N	0.421330	0.687867	0.963722
	N245	N	0.589163	0.684549	0.040531
	N246	N	0.589532	0.337392	0.962419
	N247	N	0.423439	0.336592	0.039635
	N248	N	0.686576	0.976246	0.413368
	N249	N	0.686329	0.048067	0.588754
	N250	N	0.327452	0.975950	0.588065
	N251	N	0.325940	0.047927	0.412188
	N252	N	0.923494	0.473157	0.177161
	N253	N	0.090470	0.549479	0.176410
	N254	N	0.089515	0.472814	0.829892
	N255	N	0.922095	0.548987	0.826324
	N256	N	0.187409	0.924075	0.464860
	N257	N	0.187456	0.100135	0.536702
	N258	N	0.825444	0.100155	0.465963
	N259	N	0.825341	0.922678	0.537438
	N260	N	0.469480	0.193142	0.913203
	N261	N	0.543581	0.188593	0.084402
	N262	N	0.469049	0.830756	0.089003
	N263	N	0.543447	0.832989	0.916818
	N264	N	0.469056	0.923452	0.182839
	N265	N	0.542491	0.096797	0.180708
	N266	N	0.470276	0.101343	0.818469
	N267	N	0.544021	0.928052	0.823740
	N268	N	0.921295	0.188434	0.465080
	N269	N	0.087755	0.182931	0.540934
	N270	N	0.091573	0.835795	0.463192
	N271	N	0.924318	0.836687	0.539822
	N272	N	0.185756	0.475528	0.915206
	N273	N	0.186908	0.546955	0.089930
	N274	N	0.826585	0.474669	0.089716
	N275	N	0.826288	0.547454	0.913850
	O276	O	-0.028006	-0.009974	0.050103
	H277	H	-0.031752	-0.007548	0.057107
	H278	H	-0.027841	-0.003476	0.047705
	O279	O	0.487759	0.542635	0.489694
	H280	H	0.494300	0.552464	0.489131
	H281	H	0.490218	0.548323	0.487241
	O282	O	0.477294	0.575355	0.492408
	H283	H	0.477583	0.577084	0.488869
	H284	H	0.474303	0.593684	0.497962
	O285	O	1.059137	-0.065579	0.961874
	H286	H	1.054374	-0.070424	0.964912
	H287	H	1.052536	-0.069533	0.965668
	O288	O	0.926759	0.125029	-0.079351
	H289	H	0.913195	0.119179	-0.071180
	H290	H	0.919858	0.131565	-0.082542
	O291	O	0.508208	0.407659	0.536766
	H292	H	0.500718	0.413305	0.546413
	H293	H	0.497252	0.403130	0.535784
	O294	O	1.027141	0.009650	0.942202
	H295	H	1.025230	0.009122	0.944762
	H296	H	1.028398	0.005201	0.931087
	O297	O	0.012689	0.002376	0.064415
	H298	H	0.007265	0.007841	0.059240
	H299	H	0.008102	-0.010258	0.067421
	O300	O	0.550349	0.480673	0.428257
	H301	H	0.558794	0.482454	0.432000
	H302	H	0.554524	0.473141	0.433501
	O303	O	0.969830	0.048686	-0.079947
	H304	H	0.973188	0.045156	-0.078363
	H305	H	0.971701	0.046258	-0.087840
	O306	O	1.015563	0.016963	-0.036322
	H307	H	1.021094	0.020959	-0.032200
	H308	H	1.018979	0.019531	-0.033610
	O309	O	-0.068635	-0.072710	1.034939
	H310	H	-0.064435	-0.075960	1.039662
	H311	H	-0.061325	-0.076428	1.030352
	O312	O	0.909912	0.866992	1.010544
	H313	H	0.920569	0.867679	1.015455
	H314	H	0.906615	0.868406	1.010372
	O315	O	0.529763	0.551057	0.535845
	H316	H	0.528521	0.546212	0.526342
	H317	H	0.541006	0.545614	0.537073
	O318	O	0.405566	0.516258	0.482682
	H319	H	0.404606	0.510342	0.484854
	H320	H	0.405431	0.508915	0.475418
	O321	O	0.106655	1.019410	1.047039
	H322	H	0.109710	1.020038	1.040868
	H323	H	0.102622	1.022806	1.044054
	O324	O	0.032909	0.023324	-0.048544
	H325	H	0.033014	0.016486	-0.045898
	H326	H	0.028897	0.015538	-0.044856
	O327	O	0.063269	-0.024372	0.940277
	H328	H	0.069227	-0.033339	0.932796
	H329	H	0.065745	-0.009261	0.926435
	O330	O	0.918436	0.879852	0.092807
	H331	H	0.911085	0.877348	0.094329
	H332	H	0.910391	0.873441	0.091469
	O333	O	0.474225	0.534340	0.478828
	H334	H	0.469632	0.538636	0.481574
	H335	H	0.473672	0.544906	0.470265
	O336	O	0.540760	0.579946	0.517052
	H337	H	0.542146	0.579586	0.510023
	H338	H	0.541992	0.585418	0.519408
	O339	O	1.074650	1.028158	0.046438
	H340	H	1.083063	1.032114	0.054897
	H341	H	1.071770	1.029243	0.048466
	O342	O	0.482812	0.538197	0.536907
	H343	H	0.481534	0.531146	0.541721
	H344	H	0.476266	0.540338	0.530918
	O345	O	0.566281	0.484573	0.562684
	H346	H	0.568491	0.477895	0.548287
	H347	H	0.562266	0.485874	0.558290
	O348	O	-0.024250	0.038816	0.062784
	H349	H	-0.026633	0.041144	0.070168
	H350	H	-0.017190	0.034841	0.059151
	O351	O	-0.012401	0.985110	1.065604
	H352	H	-0.025892	0.979700	1.069589
	H353	H	-0.014377	0.994280	1.067489
	O354	O	0.486887	0.543157	0.478467
	H355	H	0.483080	0.532218	0.491946
	H356	H	0.469440	0.553600	0.473727
	O357	O	-0.099854	0.948900	1.077669
	H358	H	-0.106458	0.947623	1.069398
	H359	H	-0.104785	0.958839	1.072250
