data_Molecule from HDF5

_cell_length_a		16.286386
_cell_length_b		16.242152
_cell_length_c		16.291864
_cell_angle_alpha	89.879542
_cell_angle_beta	90.149849
_cell_angle_gamma	89.936666
_symmetry_space_group_name_H-M	'P 1'
_symmetry_Int_Tables_number		1

loop_
	_symmetry_equiv_pos_as_xyz
	x,y,z

loop_
	_atom_site_label
	_atom_site_type_symbol
	_atom_site_fract_x
	_atom_site_fract_y
	_atom_site_fract_z
	H0	H	0.410004	0.826531	0.710373
	H1	H	0.604947	0.154104	0.713366
	H2	H	0.604163	0.825545	0.284951
	H3	H	0.406485	0.153413	0.282074
	H4	H	0.720394	0.391032	0.833163
	H5	H	0.720545	0.588020	0.161346
	H6	H	0.290542	0.589287	0.834790
	H7	H	0.292014	0.391413	0.161055
	H8	H	0.843121	0.705248	0.398565
	H9	H	0.171066	0.701284	0.594051
	H10	H	0.842088	0.277056	0.594904
	H11	H	0.170573	0.278131	0.401238
	H12	H	0.842589	0.392137	0.712580
	H13	H	0.169716	0.587636	0.712275
	H14	H	0.842955	0.589535	0.281963
	H15	H	0.169278	0.391647	0.282915
	H16	H	0.406796	0.705077	0.834691
	H17	H	0.603917	0.703558	0.161426
	H18	H	0.604140	0.275216	0.833658
	H19	H	0.408968	0.276491	0.161564
	H20	H	0.720814	0.826559	0.400222
	H21	H	0.720656	0.154983	0.596674
	H22	H	0.293780	0.826416	0.596264
	H23	H	0.292136	0.153536	0.398707
	H24	H	0.907480	0.327104	0.211890
	H25	H	0.103882	0.654637	0.210886
	H26	H	0.104101	0.326072	0.784893
	H27	H	0.907205	0.655501	0.783518
	H28	H	0.220984	0.892304	0.334087
	H29	H	0.220902	0.087806	0.661251
	H30	H	0.790053	0.090775	0.334133
	H31	H	0.792013	0.891143	0.661126
	H32	H	0.342042	0.205119	0.898263
	H33	H	0.669244	0.205346	0.097005
	H34	H	0.342505	0.776119	0.096181
	H35	H	0.669021	0.775677	0.901276
	H36	H	0.342488	0.891854	0.211414
	H37	H	0.669689	0.088515	0.212330
	H38	H	0.342201	0.090002	0.781898
	H39	H	0.669200	0.889782	0.784290
	H40	H	0.907684	0.205432	0.333499
	H41	H	0.104767	0.203947	0.661180
	H42	H	0.104299	0.777201	0.333921
	H43	H	0.909782	0.776350	0.661600
	H44	H	0.219065	0.325745	0.900900
	H45	H	0.219052	0.654897	0.094707
	H46	H	0.792211	0.326511	0.096175
	H47	H	0.790476	0.654486	0.898461
	H48	H	0.414346	0.106071	0.585617
	H49	H	0.597635	0.872878	0.596358
	H50	H	0.611300	0.109515	0.406203
	H51	H	0.419417	0.875069	0.407886
	H52	H	0.607233	0.395004	0.117157
	H53	H	0.603261	0.576776	0.881425
	H54	H	0.408101	0.585645	0.117097
	H55	H	0.407136	0.400651	0.880443
	H56	H	0.122810	0.581857	0.403247
	H57	H	0.886810	0.586314	0.596960
	H58	H	0.122877	0.396293	0.591245
	H59	H	0.886936	0.391733	0.402485
	H60	H	0.122792	0.398386	0.592900
	H61	H	0.889115	0.588043	0.585540
	H62	H	0.123522	0.583975	0.402465
	H63	H	0.892461	0.399284	0.411045
	H64	H	0.411911	0.578038	0.112659
	H65	H	0.591122	0.582798	0.883514
	H66	H	0.597592	0.405164	0.110311
	H67	H	0.416534	0.399694	0.882904
	H68	H	0.592952	0.109715	0.392573
	H69	H	0.596950	0.875692	0.587811
	H70	H	0.409379	0.109361	0.590832
	H71	H	0.407206	0.872103	0.407969
	H72	H	0.903392	0.606317	0.078370
	H73	H	0.098325	0.375417	0.084085
	H74	H	0.093797	0.604623	0.906499
	H75	H	0.902022	0.370700	0.905884
	H76	H	0.094247	0.911331	0.608165
	H77	H	0.095011	0.086567	0.380963
	H78	H	0.919577	0.083497	0.611939
	H79	H	0.912996	0.898858	0.381718
	H80	H	0.623679	0.086600	0.901872
	H81	H	0.387123	0.078973	0.101208
	H82	H	0.620899	0.904388	0.092958
	H83	H	0.389994	0.898349	0.906505
	H84	H	0.626848	0.890565	0.098974
	H85	H	0.386384	0.094927	0.088069
	H86	H	0.619984	0.083291	0.912186
	H87	H	0.388285	0.900008	0.900213
	H88	H	0.911130	0.087621	0.614844
	H89	H	0.103885	0.088169	0.378483
	H90	H	0.091659	0.880168	0.616394
	H91	H	0.913762	0.896105	0.380907
	H92	H	0.103196	0.608381	0.907691
	H93	H	0.105800	0.370817	0.093218
	H94	H	0.908704	0.613398	0.102132
	H95	H	0.918451	0.372989	0.894592
	H96	H	0.416873	0.107709	0.593060
	H97	H	0.604971	0.872866	0.591263
	H98	H	0.590945	0.101630	0.414087
	H99	H	0.414002	0.870728	0.396498
	H100	H	0.593485	0.390841	0.113045
	H101	H	0.601462	0.590519	0.878124
	H102	H	0.417127	0.585653	0.114659
	H103	H	0.411509	0.391818	0.879306
	H104	H	0.122741	0.583660	0.404459
	H105	H	0.891855	0.578269	0.590132
	H106	H	0.124068	0.396205	0.593338
	H107	H	0.890088	0.404346	0.399559
	H108	H	0.926521	0.602554	0.088058
	H109	H	0.092975	0.374187	0.095741
	H110	H	0.099892	0.608566	0.898970
	H111	H	0.918966	0.378880	0.913618
	H112	H	0.119728	0.895189	0.620048
	H113	H	0.100730	0.079344	0.382126
	H114	H	0.911883	0.078059	0.612719
	H115	H	0.911129	0.897512	0.380039
	H116	H	0.620762	0.075983	0.903329
	H117	H	0.393511	0.076113	0.081231
	H118	H	0.622082	0.891281	0.083695
	H119	H	0.387857	0.893642	0.903018
	C120	C	0.385633	-0.000998	0.618353
	C121	C	0.628645	0.982159	0.620316
	C122	C	0.627329	-0.001312	0.376258
	C123	C	0.384606	0.981138	0.375703
	C124	C	0.627658	0.368609	0.005336
	C125	C	0.627288	0.611407	0.989246
	C126	C	0.384039	0.611730	0.006534
	C127	C	0.384262	0.368784	0.989264
	C128	C	0.015004	0.612091	0.374937
	C129	C	0.997834	0.611570	0.619033
	C130	C	0.014972	0.368144	0.620500
	C131	C	0.997832	0.369800	0.376349
	C132	C	0.884159	0.499127	0.118710
	C133	C	0.127576	0.481932	0.119162
	C134	C	0.127243	0.498722	0.876281
	C135	C	0.884269	0.482517	0.875535
	C136	C	0.129272	0.868177	0.506455
	C137	C	0.128327	0.112081	0.488900
	C138	C	0.884786	0.112286	0.505302
	C139	C	0.885020	0.868991	0.489300
	C140	C	0.513681	0.111475	0.876151
	C141	C	0.497600	0.111620	0.119048
	C142	C	0.514653	0.868113	0.119526
	C143	C	0.497027	0.868871	0.876351
	C144	C	0.388985	0.875503	0.672983
	C145	C	0.625638	0.105381	0.675385
	C146	C	0.624755	0.874759	0.322559
	C147	C	0.386577	0.104387	0.320168
	C148	C	0.682384	0.370994	0.882089
	C149	C	0.682237	0.608194	0.112509
	C150	C	0.328379	0.609770	0.883670
	C151	C	0.329941	0.371163	0.112624
	C152	C	0.891796	0.667394	0.377846
	C153	C	0.121763	0.664890	0.615505
	C154	C	0.891278	0.314037	0.616214
	C155	C	0.121341	0.315195	0.379738
	C156	C	0.891291	0.371454	0.674474
	C157	C	0.121266	0.608039	0.673748
	C158	C	0.891763	0.610014	0.319860
	C159	C	0.120689	0.371534	0.321056
	C160	C	0.386191	0.667199	0.883445
	C161	C	0.624497	0.665730	0.112669
	C162	C	0.624751	0.313426	0.882330
	C163	C	0.387836	0.313894	0.112520
	C164	C	0.682597	0.875273	0.379731
	C165	C	0.683287	0.105598	0.617468
	C166	C	0.331322	0.875497	0.616133
	C167	C	0.329382	0.104471	0.377973
	C168	C	0.887358	0.375747	0.173613
	C169	C	0.124695	0.605424	0.173570
	C170	C	0.124480	0.375113	0.822008
	C171	C	0.886983	0.606268	0.821080
	C172	C	0.183515	0.871468	0.383036
	C173	C	0.183444	0.109022	0.612153
	C174	C	0.829028	0.110234	0.382654
	C175	C	0.830171	0.871174	0.612372
	C176	C	0.390855	0.167385	0.878052
	C177	C	0.620684	0.166758	0.116465
	C178	C	0.391196	0.813912	0.116556
	C179	C	0.620204	0.813437	0.880222
	C180	C	0.391290	0.871573	0.173744
	C181	C	0.620952	0.108810	0.173998
	C182	C	0.390758	0.110009	0.820206
	C183	C	0.620180	0.870313	0.822101
	C184	C	0.887063	0.167671	0.382444
	C185	C	0.125630	0.166576	0.612182
	C186	C	0.125726	0.814103	0.382944
	C187	C	0.888770	0.814095	0.612618
	C188	C	0.181706	0.374897	0.879809
	C189	C	0.181655	0.605653	0.115696
	C190	C	0.829463	0.375638	0.116494
	C191	C	0.828684	0.605849	0.877875
	C192	C	0.407242	0.085423	0.596296
	C193	C	0.606508	0.896042	0.598259
	C194	C	0.605084	0.084704	0.398034
	C195	C	0.406915	0.894786	0.397674
	C196	C	0.605924	0.390532	0.091230
	C197	C	0.605141	0.589737	0.903160
	C198	C	0.406170	0.589822	0.092637
	C199	C	0.405432	0.390933	0.903015
	C200	C	0.100817	0.589628	0.396763
	C201	C	0.911626	0.590416	0.597339
	C202	C	0.100901	0.390337	0.598766
	C203	C	0.911879	0.391848	0.397976
	C204	C	0.906255	0.585345	0.096237
	C205	C	0.105637	0.395716	0.097449
	C206	C	0.105478	0.584963	0.898034
	C207	C	0.906728	0.396471	0.898049
	C208	C	0.108272	0.889246	0.592682
	C209	C	0.106415	0.090815	0.402741
	C210	C	0.907439	0.089624	0.591177
	C211	C	0.906279	0.891098	0.403081
	C212	C	0.599394	0.088775	0.898937
	C213	C	0.411264	0.089748	0.096818
	C214	C	0.600960	0.889094	0.098173
	C215	C	0.410877	0.890691	0.897201
	Zn216	Zn	0.505648	-0.009709	0.747910
	Zn217	Zn	0.506124	-0.010463	0.247474
	Zn218	Zn	0.756192	0.490227	-0.003071
	Zn219	Zn	0.255685	0.490033	-0.002014
	Zn220	Zn	0.007060	0.740012	0.497369
	Zn221	Zn	0.006740	0.240658	0.497036
	Zn222	Zn	0.005981	0.490666	0.747877
	Zn223	Zn	0.005852	0.490408	0.246742
	Zn224	Zn	0.505373	0.740340	-0.001885
	Zn225	Zn	0.505883	0.240411	-0.002501
	Zn226	Zn	0.756183	-0.009213	0.497509
	Zn227	Zn	0.257151	-0.009947	0.497882
	N228	N	0.421929	0.953366	0.674512
	N229	N	0.592692	0.027301	0.677497
	N230	N	0.590977	0.952410	0.320263
	N231	N	0.420303	0.026713	0.318770
	N232	N	0.684489	0.404419	0.959634
	N233	N	0.684100	0.575412	0.034778
	N234	N	0.327087	0.576035	0.961097
	N235	N	0.327668	0.404496	0.034875
	N236	N	0.969317	0.668687	0.411673
	N237	N	0.044082	0.667091	0.582055
	N238	N	0.969235	0.311777	0.583498
	N239	N	0.044149	0.314138	0.413556
	N240	N	0.969042	0.404225	0.677188
	N241	N	0.043375	0.575811	0.676118
	N242	N	0.969170	0.576334	0.318125
	N243	N	0.043055	0.404939	0.319025
	N244	N	0.420214	0.668411	0.960858
	N245	N	0.590723	0.667804	0.035012
	N246	N	0.591443	0.311829	0.959863
	N247	N	0.421183	0.312672	0.035016
	N248	N	0.684025	0.953251	0.412598
	N249	N	0.685296	0.028007	0.584072
	N250	N	0.329233	0.953460	0.582948
	N251	N	0.328389	0.026864	0.411922
	N252	N	0.920506	0.453563	0.175195
	N253	N	0.091356	0.527599	0.175432
	N254	N	0.091287	0.453004	0.819749
	N255	N	0.920855	0.528568	0.819600
	N256	N	0.185763	0.904508	0.460642
	N257	N	0.185118	0.075683	0.534518
	N258	N	0.827674	0.076443	0.460152
	N259	N	0.827726	0.904423	0.534711
	N260	N	0.468328	0.168434	0.912099
	N261	N	0.543007	0.168487	0.083178
	N262	N	0.468896	0.811706	0.083440
	N263	N	0.542643	0.812461	0.913431
	N264	N	0.468990	0.904332	0.175709
	N265	N	0.543287	0.075365	0.175829
	N266	N	0.468008	0.075873	0.819172
	N267	N	0.542808	0.904220	0.819866
	N268	N	0.921210	0.168860	0.459694
	N269	N	0.091989	0.168513	0.534772
	N270	N	0.092446	0.812201	0.460457
	N271	N	0.922183	0.812570	0.535028
	N272	N	0.183615	0.452778	0.912827
	N273	N	0.183667	0.527797	0.082807
	N274	N	0.827828	0.453301	0.082640
	N275	N	0.827122	0.528117	0.911231
	O276	O	0.873894	0.120202	0.891579
	H277	H	0.872491	0.131615	0.892236
	H278	H	0.875216	0.118806	0.876564
	O279	O	-0.073241	1.123522	0.869586
	H280	H	-0.079995	1.129137	0.860710
	H281	H	-0.078276	1.114548	0.873396
	O282	O	0.913308	1.083243	-0.118754
	H283	H	0.918373	1.088836	-0.124120
	H284	H	0.910096	1.085732	-0.118274
	O285	O	-0.137261	1.094149	0.870664
	H286	H	-0.140367	1.089843	0.865695
	H287	H	-0.138540	1.097778	0.880544
