data_Molecule from HDF5

_cell_length_a		16.515347
_cell_length_b		16.415467
_cell_length_c		16.337667
_cell_angle_alpha	90.117442
_cell_angle_beta	89.854820
_cell_angle_gamma	89.975545
_symmetry_space_group_name_H-M	'P 1'
_symmetry_Int_Tables_number		1

loop_
	_symmetry_equiv_pos_as_xyz
	x,y,z

loop_
	_atom_site_label
	_atom_site_type_symbol
	_atom_site_fract_x
	_atom_site_fract_y
	_atom_site_fract_z
	H0	H	0.407899	0.857770	0.729295
	H1	H	0.615522	0.176066	0.727293
	H2	H	0.614472	0.858150	0.287324
	H3	H	0.405183	0.175823	0.287420
	H4	H	0.734251	0.410717	0.849181
	H5	H	0.730896	0.622789	0.166455
	H6	H	0.287595	0.627264	0.850634
	H7	H	0.288882	0.410380	0.165594
	H8	H	0.854800	0.738203	0.402110
	H9	H	0.168125	0.741606	0.616220
	H10	H	0.854464	0.294028	0.614547
	H11	H	0.169341	0.293104	0.401736
	H12	H	0.853454	0.411999	0.729653
	H13	H	0.168280	0.624746	0.731773
	H14	H	0.852628	0.617740	0.289931
	H15	H	0.169107	0.407925	0.284130
	H16	H	0.407218	0.737611	0.848174
	H17	H	0.616267	0.738369	0.167008
	H18	H	0.617982	0.296429	0.848432
	H19	H	0.403759	0.294835	0.164773
	H20	H	0.732179	0.858584	0.402655
	H21	H	0.733750	0.174618	0.615400
	H22	H	0.286503	0.860261	0.618822
	H23	H	0.286985	0.173773	0.400694
	H24	H	0.908326	0.356623	0.225669
	H25	H	0.117054	0.673845	0.232141
	H26	H	0.117974	0.358840	0.785914
	H27	H	0.905746	0.675885	0.785708
	H28	H	0.237736	0.904826	0.351633
	H29	H	0.232165	0.121741	0.666972
	H30	H	0.790567	0.123477	0.350005
	H31	H	0.788255	0.907893	0.665300
	H32	H	0.356650	0.243285	0.897091
	H33	H	0.668059	0.240425	0.113097
	H34	H	0.353768	0.794891	0.115119
	H35	H	0.668064	0.793210	0.900271
	H36	H	0.352366	0.911275	0.230843
	H37	H	0.667368	0.124468	0.230126
	H38	H	0.354910	0.123916	0.784166
	H39	H	0.669395	0.911423	0.785989
	H40	H	0.907158	0.236691	0.350022
	H41	H	0.115558	0.236609	0.667157
	H42	H	0.119758	0.793047	0.349094
	H43	H	0.905462	0.794061	0.666074
	H44	H	0.237432	0.361692	0.897862
	H45	H	0.234736	0.674211	0.118953
	H46	H	0.788388	0.359616	0.113640
	H47	H	0.788775	0.675748	0.900442
	H48	H	0.421290	0.130676	0.598551
	H49	H	0.600590	0.902613	0.599999
	H50	H	0.599288	0.128162	0.425205
	H51	H	0.428656	0.907634	0.424915
	H52	H	0.595238	0.435408	0.117273
	H53	H	0.601758	0.608203	0.892508
	H54	H	0.425480	0.606506	0.120652
	H55	H	0.429369	0.434613	0.897297
	H56	H	0.123359	0.604012	0.422301
	H57	H	0.899862	0.608602	0.591988
	H58	H	0.123658	0.427831	0.596679
	H59	H	0.897663	0.425172	0.414481
	H60	H	0.124132	0.426690	0.596877
	H61	H	0.902070	0.600660	0.595545
	H62	H	0.123596	0.601883	0.418538
	H63	H	0.898798	0.423003	0.420644
	H64	H	0.420853	0.607736	0.122471
	H65	H	0.601388	0.605076	0.893361
	H66	H	0.596665	0.423722	0.122740
	H67	H	0.425391	0.426791	0.892594
	H68	H	0.607168	0.132243	0.419450
	H69	H	0.598776	0.904465	0.594265
	H70	H	0.426720	0.127384	0.595501
	H71	H	0.417882	0.903323	0.424179
	H72	H	0.925808	0.628860	0.097477
	H73	H	0.098445	0.405354	0.095174
	H74	H	0.104089	0.633045	0.918335
	H75	H	0.925427	0.404693	0.915813
	H76	H	0.102456	0.928563	0.622330
	H77	H	0.092891	0.102323	0.397120
	H78	H	0.920634	0.103519	0.622347
	H79	H	0.925432	0.925979	0.393380
	H80	H	0.624543	0.110192	0.919821
	H81	H	0.398233	0.107864	0.095334
	H82	H	0.624820	0.924445	0.095938
	H83	H	0.403048	0.933827	0.925943
	H84	H	0.620581	0.930632	0.093203
	H85	H	0.398893	0.105624	0.095340
	H86	H	0.622230	0.104402	0.921891
	H87	H	0.398731	0.932580	0.912457
	H88	H	0.923021	0.104234	0.622494
	H89	H	0.102360	0.110774	0.390941
	H90	H	0.097740	0.933944	0.619160
	H91	H	0.919616	0.926810	0.392375
	H92	H	0.094743	0.629192	0.917285
	H93	H	0.100545	0.404366	0.092088
	H94	H	0.918418	0.630029	0.094112
	H95	H	0.922389	0.407063	0.924982
	H96	H	0.420455	0.129243	0.591881
	H97	H	0.604501	0.902120	0.595105
	H98	H	0.597406	0.131058	0.414735
	H99	H	0.424669	0.902619	0.414539
	H100	H	0.606313	0.431658	0.122782
	H101	H	0.599042	0.606459	0.893489
	H102	H	0.421964	0.603115	0.120245
	H103	H	0.420054	0.434718	0.894660
	H104	H	0.125385	0.606255	0.419045
	H105	H	0.897602	0.606620	0.600511
	H106	H	0.124152	0.426983	0.595612
	H107	H	0.900968	0.428693	0.418986
	H108	H	0.919808	0.632539	0.101708
	H109	H	0.101880	0.402902	0.095472
	H110	H	0.099505	0.628183	0.926385
	H111	H	0.916485	0.402649	0.918188
	H112	H	0.095008	0.926641	0.620316
	H113	H	0.105609	0.097067	0.394398
	H114	H	0.921674	0.105629	0.623385
	H115	H	0.922822	0.931003	0.394749
	H116	H	0.624560	0.105305	0.915764
	H117	H	0.397966	0.106869	0.097722
	H118	H	0.623745	0.930945	0.100471
	H119	H	0.396869	0.921398	0.921447
	C120	C	0.390079	0.025013	0.629554
	C121	C	0.633260	1.008005	0.629190
	C122	C	0.633180	0.025713	0.386719
	C123	C	0.389952	1.008533	0.387838
	C124	C	0.632424	0.397176	0.016031
	C125	C	0.632673	0.639306	0.998570
	C126	C	0.390119	0.638969	0.016569
	C127	C	0.390689	0.397439	0.998714
	C128	C	0.020023	0.636280	0.387000
	C129	C	1.003390	0.638673	0.629448
	C130	C	0.019811	0.395202	0.629030
	C131	C	1.003302	0.393089	0.385682
	C132	C	0.889499	0.525589	0.129263
	C133	C	0.133146	0.508107	0.128940
	C134	C	0.132902	0.525966	0.886764
	C135	C	0.889493	0.509314	0.886755
	C136	C	0.133177	0.894713	0.516617
	C137	C	0.132432	0.136519	0.499350
	C138	C	0.889875	0.137642	0.517884
	C139	C	0.890354	0.895048	0.499063
	C140	C	0.520193	0.139440	0.885373
	C141	C	0.502323	0.139747	0.129074
	C142	C	0.518852	0.896065	0.129571
	C143	C	0.503188	0.895913	0.886636
	C144	C	0.388075	0.905968	0.690418
	C145	C	0.634450	0.128051	0.688201
	C146	C	0.633684	0.905945	0.326921
	C147	C	0.387057	0.127922	0.327462
	C148	C	0.693575	0.393507	0.896571
	C149	C	0.691811	0.641543	0.118518
	C150	C	0.328908	0.643435	0.897553
	C151	C	0.328911	0.392737	0.117663
	C152	C	0.901841	0.697198	0.384322
	C153	C	0.121061	0.700620	0.633603
	C154	C	0.901518	0.334608	0.632587
	C155	C	0.121993	0.333023	0.383453
	C156	C	0.901034	0.393369	0.689997
	C157	C	0.121327	0.642168	0.691028
	C158	C	0.900777	0.637297	0.328305
	C159	C	0.121759	0.390132	0.324767
	C160	C	0.387983	0.699143	0.896714
	C161	C	0.634486	0.699111	0.118658
	C162	C	0.635672	0.336746	0.896181
	C163	C	0.386195	0.334861	0.117028
	C164	C	0.692339	0.906162	0.384173
	C165	C	0.693360	0.127240	0.632194
	C166	C	0.327864	0.907103	0.635006
	C167	C	0.328194	0.127002	0.383996
	C168	C	0.888693	0.405060	0.187315
	C169	C	0.135519	0.626456	0.191756
	C170	C	0.136140	0.406991	0.825751
	C171	C	0.887316	0.628377	0.825920
	C172	C	0.196422	0.888407	0.398678
	C173	C	0.192085	0.139562	0.619211
	C174	C	0.830515	0.140805	0.397937
	C175	C	0.829388	0.891094	0.618165
	C176	C	0.402839	0.201581	0.880873
	C177	C	0.620550	0.200507	0.131791
	C178	C	0.400511	0.835341	0.132842
	C179	C	0.621207	0.834397	0.882931
	C180	C	0.399917	0.893530	0.190455
	C181	C	0.620260	0.142539	0.189953
	C182	C	0.402180	0.142259	0.824397
	C183	C	0.621885	0.893171	0.825847
	C184	C	0.888489	0.197242	0.397818
	C185	C	0.134049	0.196693	0.619427
	C186	C	0.137192	0.833026	0.397308
	C187	C	0.887505	0.834133	0.618180
	C188	C	0.195641	0.408334	0.881540
	C189	C	0.194318	0.626702	0.135164
	C190	C	0.829081	0.406726	0.131469
	C191	C	0.828857	0.628202	0.883001
	C192	C	0.415503	0.107602	0.602872
	C193	C	0.608433	0.924765	0.603736
	C194	C	0.608551	0.108749	0.412456
	C195	C	0.416027	0.926111	0.413700
	C196	C	0.606589	0.423011	0.099251
	C197	C	0.607947	0.613804	0.914894
	C198	C	0.415375	0.613050	0.099524
	C199	C	0.417182	0.424498	0.916369
	C200	C	0.102727	0.611120	0.412467
	C201	C	0.921285	0.612566	0.603398
	C202	C	0.102380	0.419877	0.603557
	C203	C	0.920591	0.418304	0.410889
	C204	C	0.914099	0.608852	0.104724
	C205	C	0.107847	0.425704	0.101709
	C206	C	0.107191	0.608557	0.913180
	C207	C	0.914195	0.426448	0.912443
	C208	C	0.106257	0.921926	0.599022
	C209	C	0.107456	0.110743	0.416127
	C210	C	0.914698	0.111852	0.600866
	C211	C	0.915367	0.920616	0.415486
	C212	C	0.602245	0.113883	0.911476
	C213	C	0.419911	0.114387	0.103329
	C214	C	0.601407	0.921540	0.104064
	C215	C	0.421134	0.921797	0.912577
	Zn216	Zn	0.511793	0.017206	0.757351
	Zn217	Zn	0.510360	0.017601	0.258374
	Zn218	Zn	0.760277	0.517729	0.007657
	Zn219	Zn	0.261783	0.518296	0.007988
	Zn220	Zn	0.011985	0.767374	0.507304
	Zn221	Zn	0.011917	0.264934	0.508065
	Zn222	Zn	0.011335	0.517510	0.758420
	Zn223	Zn	0.011913	0.515411	0.257149
	Zn224	Zn	0.511110	0.766836	0.008008
	Zn225	Zn	0.511844	0.269011	0.006447
	Zn226	Zn	0.762189	0.016673	0.508142
	Zn227	Zn	0.260775	0.016296	0.508243
	N228	N	0.425943	0.980271	0.687014
	N229	N	0.597930	0.052927	0.686483
	N230	N	0.597922	0.981498	0.327978
	N231	N	0.424675	0.053333	0.329697
	N232	N	0.691467	0.430555	0.972090
	N233	N	0.690951	0.605279	0.042753
	N234	N	0.329800	0.606940	0.973055
	N235	N	0.331479	0.430931	0.042923
	N236	N	0.977074	0.696751	0.420173
	N237	N	0.046721	0.698557	0.596045
	N238	N	0.976215	0.335640	0.595491
	N239	N	0.047198	0.334595	0.420445
	N240	N	0.975631	0.430553	0.687925
	N241	N	0.046975	0.604480	0.688700
	N242	N	0.975488	0.600304	0.329837
	N243	N	0.046994	0.426759	0.325914
	N244	N	0.425209	0.696536	0.971816
	N245	N	0.598706	0.698091	0.042795
	N246	N	0.598215	0.338926	0.971423
	N247	N	0.423829	0.337688	0.041933
	N248	N	0.692325	0.981741	0.420321
	N249	N	0.692936	0.051447	0.596193
	N250	N	0.328981	0.982307	0.597804
	N251	N	0.329676	0.051614	0.420712
	N252	N	0.925644	0.479970	0.186307
	N253	N	0.098426	0.551629	0.188080
	N254	N	0.097922	0.481343	0.828768
	N255	N	0.924377	0.553553	0.828038
	N256	N	0.194076	0.926211	0.473806
	N257	N	0.191114	0.103016	0.543571
	N258	N	0.831111	0.104376	0.473518
	N259	N	0.831048	0.928216	0.542854
	N260	N	0.477249	0.199840	0.918129
	N261	N	0.545945	0.199094	0.094815
	N262	N	0.475378	0.836746	0.095633
	N263	N	0.546592	0.836152	0.920145
	N264	N	0.474641	0.930511	0.188554
	N265	N	0.545662	0.105484	0.188407
	N266	N	0.476249	0.104459	0.827104
	N267	N	0.547656	0.930924	0.828152
	N268	N	0.924407	0.195831	0.473571
	N269	N	0.097801	0.194883	0.543908
	N270	N	0.098573	0.836777	0.471790
	N271	N	0.925017	0.836832	0.542990
	N272	N	0.193932	0.483534	0.918686
	N273	N	0.192986	0.552117	0.096782
	N274	N	0.829394	0.482637	0.096142
	N275	N	0.830058	0.553115	0.920146
	O276	O	0.036398	0.219802	0.213274
	H277	H	0.056436	0.224384	0.200373
	H278	H	0.055852	0.234417	0.222791
	O279	O	0.927197	0.216745	0.841441
	H280	H	0.917607	0.233503	0.872167
	H281	H	0.953223	0.220604	0.826260
	O282	O	0.293385	0.495471	0.724363
	H283	H	0.289162	0.472307	0.729918
	H284	H	0.274189	0.505889	0.734838
	O285	O	0.716514	0.688326	0.516903
	H286	H	0.727960	0.685550	0.519438
	H287	H	0.714335	0.684135	0.500076
	O288	O	0.992360	0.947238	-0.037724
	H289	H	0.978202	0.946489	-0.044452
	H290	H	0.997480	0.944191	-0.024321
	O291	O	0.649756	0.408763	0.592803
	H292	H	0.648615	0.411843	0.606570
	H293	H	0.644265	0.433609	0.586919
	O294	O	-0.062499	0.029204	1.002656
	H295	H	-0.060176	0.007680	0.994699
	H296	H	-0.051817	0.037911	0.992039
	O297	O	0.438503	0.554895	0.309159
	H298	H	0.417310	0.538160	0.304989
	H299	H	0.440176	0.544854	0.305158
	O300	O	0.481976	0.310452	0.619401
	H301	H	0.500512	0.324802	0.612292
	H302	H	0.490600	0.289746	0.626189
	O303	O	0.530647	0.629810	0.305702
	H304	H	0.527019	0.634391	0.299505
	H305	H	0.495786	0.626633	0.304522
	O306	O	0.364556	0.590541	0.567140
	H307	H	0.377884	0.589908	0.567156
	H308	H	0.369867	0.604215	0.571656
	O309	O	0.321097	0.595287	0.308749
	H310	H	0.315191	0.564866	0.305823
	H311	H	0.315208	0.584676	0.315717
	O312	O	0.217633	0.996862	0.807370
	H313	H	0.190510	0.996337	0.811742
	H314	H	0.233557	0.997674	0.791127
	O315	O	0.501709	0.371914	0.433828
	H316	H	0.518273	0.365394	0.426676
	H317	H	0.519417	0.375774	0.425880
	O318	O	0.796256	-0.018161	0.046311
	H319	H	0.788901	-0.011817	0.038205
	H320	H	0.811539	-0.001416	0.039577
	O321	O	-0.183594	0.193415	-0.097415
	H322	H	-0.164719	0.190076	-0.075744
	H323	H	-0.163597	0.208224	-0.093548
	O324	O	0.405074	0.409918	0.641127
	H325	H	0.400826	0.393375	0.638939
	H326	H	0.390529	0.416711	0.653152
	O327	O	0.631074	0.601673	0.408056
	H328	H	0.621588	0.605946	0.412206
	H329	H	0.604692	0.595394	0.408198
	O330	O	-0.181333	0.823884	0.154558
	H331	H	-0.185118	0.844679	0.153808
	H332	H	-0.165692	0.803358	0.168869
	O333	O	0.561598	0.317396	0.550131
	H334	H	0.557527	0.310719	0.553885
	H335	H	0.577768	0.338844	0.545955
	O336	O	0.150781	0.266294	-0.244364
	H337	H	0.172444	0.253909	-0.256453
	H338	H	0.171154	0.274831	-0.260557
	O339	O	0.199615	0.834217	0.822948
	H340	H	0.208505	0.866108	0.834107
	H341	H	0.163083	0.821542	0.807765
	O342	O	-0.013894	0.802025	1.221246
	H343	H	-0.019994	0.783115	1.239397
	H344	H	-0.009422	0.801702	1.213487
	O345	O	0.704074	0.663873	-0.305292
	H346	H	0.676473	0.676378	-0.290721
	H347	H	0.706391	0.656910	-0.331764
	O348	O	0.302192	0.721396	0.487939
	H349	H	0.284369	0.734751	0.492828
	H350	H	0.315765	0.729945	0.509304
	O351	O	0.050107	0.808282	0.905474
	H352	H	0.026623	0.808523	0.892099
	H353	H	0.048998	0.788786	0.889637
	O354	O	-0.117540	0.960279	-0.054961
	H355	H	-0.105429	0.972007	-0.065587
	H356	H	-0.122242	0.964196	-0.045716
	O357	O	0.209524	-0.020352	1.025690
	H358	H	0.217777	-0.050977	1.026590
	H359	H	0.203309	-0.023112	1.047063
	O360	O	0.195324	0.202684	0.192540
	H361	H	0.208347	0.209259	0.144364
	H362	H	0.194660	0.162694	0.197563
	O363	O	-0.065732	0.216750	0.959336
	H364	H	-0.066050	0.202102	0.963538
	H365	H	-0.050966	0.227612	0.969160
	O366	O	0.070272	0.096590	0.987686
	H367	H	0.076755	0.075211	1.006217
	H368	H	0.089970	0.090095	0.998961
	O369	O	0.529247	0.724049	0.680946
	H370	H	0.536049	0.703619	0.679345
	H371	H	0.538227	0.739669	0.701548
	O372	O	1.055369	0.113129	0.804551
	H373	H	1.045673	0.106556	0.812550
	H374	H	1.057962	0.114978	0.800240
	O375	O	0.514609	0.528104	0.483738
	H376	H	0.513062	0.513590	0.490868
	H377	H	0.528104	0.508436	0.482998
	O378	O	0.541144	0.721441	0.487925
	H379	H	0.543382	0.727558	0.467126
	H380	H	0.550139	0.718920	0.475755
	O381	O	0.703815	0.413830	0.312878
	H382	H	0.713131	0.402944	0.319183
	H383	H	0.708429	0.418818	0.322537
	O384	O	0.613104	0.313663	0.306327
	H385	H	0.619110	0.296725	0.282739
	H386	H	0.639836	0.315526	0.325064
	O387	O	0.405977	-0.286673	0.312280
	H388	H	0.392568	-0.266053	0.326295
	H389	H	0.378177	-0.323772	0.309883
	O390	O	-0.159714	-0.137076	0.043567
	H391	H	-0.170787	-0.132252	0.047006
	H392	H	-0.173358	-0.150781	0.051785
	O393	O	0.797040	1.040565	0.793652
	H394	H	0.778064	1.066839	0.775226
	H395	H	0.792174	1.069286	0.795389
	O396	O	1.227835	-0.200974	-0.015487
	H397	H	1.212698	-0.201247	-0.037261
	H398	H	1.254850	-0.232650	-0.025300
	O399	O	0.906416	0.093964	1.188556
	H400	H	0.899586	0.084261	1.195205
	H401	H	0.912310	0.113416	1.184726
	O402	O	0.896316	0.933877	0.905960
	H403	H	0.892619	0.935137	0.923609
	H404	H	0.871826	0.929144	0.903996
	O405	O	1.018692	0.918776	-0.172632
	H406	H	1.023305	0.907799	-0.174714
	H407	H	1.000789	0.922886	-0.173236
	O408	O	0.886799	0.199007	0.117074
	H409	H	0.877495	0.200081	0.110336
	H410	H	0.909798	0.184326	0.118913
	O411	O	0.795662	0.945354	0.221616
	H412	H	0.776993	0.967499	0.223535
	H413	H	0.779060	0.927153	0.234533
	O414	O	0.563641	0.302874	0.494220
	H415	H	0.563835	0.296891	0.503577
	H416	H	0.592545	0.292221	0.490598
	O417	O	0.460548	0.581252	0.704171
	H418	H	0.447501	0.559930	0.696663
	H419	H	0.461251	0.564759	0.704446
	O420	O	0.227325	0.228759	0.026569
	H421	H	0.255348	0.249059	0.020546
	H422	H	0.230300	0.208446	-0.000508
	O423	O	0.682623	0.574018	0.453984
	H424	H	0.676149	0.569949	0.450771
	H425	H	0.685059	0.567093	0.435332
	O426	O	0.720251	0.423986	0.410049
	H427	H	0.718473	0.434784	0.421193
	H428	H	0.727743	0.416360	0.415176
	O429	O	0.296801	0.471775	0.450034
	H430	H	0.298403	0.459770	0.449934
	H431	H	0.299297	0.484344	0.475179
	O432	O	0.545551	0.474278	0.568932
	H433	H	0.557195	0.485239	0.561549
	H434	H	0.553833	0.476588	0.562817
	O435	O	0.668963	0.506804	0.707480
	H436	H	0.671467	0.526487	0.725818
	H437	H	0.647518	0.517033	0.706255
	O438	O	0.038836	-0.008815	0.204822
	H439	H	0.032940	-0.023358	0.210190
	H440	H	0.031280	0.016646	0.213021
	O441	O	1.217338	0.037892	0.206936
	H442	H	1.222331	0.030107	0.213723
	H443	H	1.213162	0.022543	0.217137
	O444	O	0.216438	1.096120	0.949425
	H445	H	0.215635	1.083066	0.932938
	H446	H	0.218819	1.070755	0.945709
	O447	O	0.418681	0.586777	0.503448
	H448	H	0.430527	0.580347	0.494523
	H449	H	0.419344	0.601730	0.503587
	O450	O	0.314767	0.319543	0.585124
	H451	H	0.315694	0.347388	0.571480
	H452	H	0.309658	0.302537	0.557826
	O453	O	0.066592	-0.143018	1.106584
	H454	H	0.060990	-0.147031	1.114386
	H455	H	0.049436	-0.140062	1.089627
