data_Molecule from HDF5

_cell_length_a		16.163421
_cell_length_b		16.500275
_cell_length_c		15.971970
_cell_angle_alpha	90.689873
_cell_angle_beta	88.825938
_cell_angle_gamma	90.125493
_symmetry_space_group_name_H-M	'P 1'
_symmetry_Int_Tables_number		1

loop_
	_symmetry_equiv_pos_as_xyz
	x,y,z

loop_
	_atom_site_label
	_atom_site_type_symbol
	_atom_site_fract_x
	_atom_site_fract_y
	_atom_site_fract_z
	H0	H	0.400891	0.838903	0.712575
	H1	H	0.599768	0.163104	0.714361
	H2	H	0.602965	0.840365	0.278563
	H3	H	0.411040	0.166418	0.290142
	H4	H	0.715855	0.400566	0.836356
	H5	H	0.702044	0.599021	0.168712
	H6	H	0.290985	0.592342	0.832668
	H7	H	0.280747	0.405364	0.166473
	H8	H	0.838537	0.718912	0.402312
	H9	H	0.163487	0.721210	0.603329
	H10	H	0.839261	0.280431	0.609366
	H11	H	0.163378	0.283581	0.390583
	H12	H	0.833706	0.406809	0.713621
	H13	H	0.165207	0.598872	0.712098
	H14	H	0.831046	0.592405	0.300556
	H15	H	0.162327	0.403986	0.280495
	H16	H	0.397299	0.714780	0.834588
	H17	H	0.597274	0.721542	0.163406
	H18	H	0.603382	0.283098	0.835639
	H19	H	0.389847	0.286009	0.165449
	H20	H	0.720257	0.839765	0.393306
	H21	H	0.719168	0.162500	0.598240
	H22	H	0.281523	0.840666	0.599621
	H23	H	0.285233	0.162732	0.399123
	H24	H	0.895682	0.338479	0.217135
	H25	H	0.089780	0.664636	0.213584
	H26	H	0.100025	0.340567	0.779348
	H27	H	0.901440	0.663256	0.790244
	H28	H	0.217550	0.902431	0.331755
	H29	H	0.211321	0.099669	0.666031
	H30	H	0.798499	0.094377	0.330262
	H31	H	0.784010	0.904969	0.662643
	H32	H	0.335963	0.215696	0.900387
	H33	H	0.659875	0.224760	0.104208
	H34	H	0.335579	0.787147	0.104171
	H35	H	0.661514	0.779417	0.888572
	H36	H	0.337106	0.908221	0.216084
	H37	H	0.668963	0.098030	0.202617
	H38	H	0.334538	0.094845	0.791671
	H39	H	0.666125	0.904315	0.783021
	H40	H	0.902093	0.216491	0.336039
	H41	H	0.105631	0.222588	0.663127
	H42	H	0.108961	0.781747	0.334888
	H43	H	0.896830	0.789899	0.664892
	H44	H	0.217523	0.340474	0.893486
	H45	H	0.214249	0.662060	0.103569
	H46	H	0.775721	0.340996	0.105600
	H47	H	0.782854	0.662500	0.906247
	H48	H	0.408957	0.115574	0.594645
	H49	H	0.592716	0.886213	0.591276
	H50	H	0.605793	0.118107	0.405238
	H51	H	0.406727	0.887103	0.407734
	H52	H	0.595769	0.419416	0.120741
	H53	H	0.593817	0.588108	0.880740
	H54	H	0.403019	0.595807	0.119328
	H55	H	0.412302	0.406998	0.883208
	H56	H	0.117384	0.588794	0.404179
	H57	H	0.884265	0.597758	0.591079
	H58	H	0.120060	0.405661	0.590936
	H59	H	0.880402	0.412308	0.402172
	H60	H	0.115589	0.409040	0.580493
	H61	H	0.883789	0.595245	0.597424
	H62	H	0.119217	0.597315	0.404048
	H63	H	0.877057	0.389879	0.413202
	H64	H	0.406898	0.595694	0.118249
	H65	H	0.588294	0.588672	0.882745
	H66	H	0.569354	0.415032	0.112939
	H67	H	0.410103	0.401316	0.879946
	H68	H	0.606505	0.120017	0.398962
	H69	H	0.591688	0.888522	0.583452
	H70	H	0.406409	0.116036	0.593159
	H71	H	0.413591	0.887852	0.401792
	H72	H	0.901599	0.613994	0.092251
	H73	H	0.085775	0.389235	0.081582
	H74	H	0.092782	0.619052	0.900228
	H75	H	0.901291	0.385510	0.911516
	H76	H	0.092956	0.909459	0.619139
	H77	H	0.101298	0.096597	0.377668
	H78	H	0.901411	0.091612	0.619684
	H79	H	0.912857	0.892490	0.374872
	H80	H	0.615386	0.088199	0.908179
	H81	H	0.386475	0.086879	0.089098
	H82	H	0.620937	0.899707	0.083285
	H83	H	0.381820	0.908819	0.904879
	H84	H	0.614048	0.909873	0.077768
	H85	H	0.379877	0.092249	0.105890
	H86	H	0.619552	0.097150	0.901500
	H87	H	0.380774	0.900885	0.908290
	H88	H	0.915664	0.085904	0.614689
	H89	H	0.095830	0.085101	0.383274
	H90	H	0.089838	0.913691	0.616069
	H91	H	0.907330	0.913349	0.378543
	H92	H	0.088121	0.613025	0.914581
	H93	H	0.097476	0.384004	0.089679
	H94	H	0.889146	0.620059	0.102297
	H95	H	0.905472	0.384209	0.903824
	H96	H	0.406463	0.116609	0.596436
	H97	H	0.598898	0.885810	0.586327
	H98	H	0.600546	0.117663	0.401867
	H99	H	0.414993	0.890261	0.410515
	H100	H	0.583351	0.395000	0.124713
	H101	H	0.591895	0.593918	0.879558
	H102	H	0.404565	0.599011	0.120398
	H103	H	0.405959	0.406590	0.880949
	H104	H	0.116614	0.593213	0.411913
	H105	H	0.880552	0.601549	0.596648
	H106	H	0.115434	0.416670	0.589845
	H107	H	0.886848	0.409151	0.426774
	H108	H	0.903875	0.617272	0.108933
	H109	H	0.083768	0.386149	0.096761
	H110	H	0.103043	0.617092	0.912931
	H111	H	0.909180	0.388429	0.911011
	H112	H	0.087106	0.908180	0.617756
	H113	H	0.088224	0.096047	0.381545
	H114	H	0.913190	0.100215	0.618808
	H115	H	0.927259	0.906521	0.382523
	H116	H	0.616860	0.098738	0.914300
	H117	H	0.379870	0.104302	0.091398
	H118	H	0.619622	0.910942	0.090260
	H119	H	0.384254	0.906175	0.913698
	C120	C	0.377618	0.009501	0.622607
	C121	C	0.623859	0.993187	0.618057
	C122	C	0.630418	0.011108	0.371951
	C123	C	0.383103	0.994633	0.378434
	C124	C	0.616829	0.379652	0.010264
	C125	C	0.618155	0.621270	0.990962
	C126	C	0.377529	0.622440	0.008945
	C127	C	0.376809	0.378419	0.991137
	C128	C	0.008651	0.621072	0.380974
	C129	C	0.991380	0.626119	0.623824
	C130	C	0.009160	0.380410	0.620140
	C131	C	0.990131	0.376972	0.379358
	C132	C	0.870548	0.509889	0.128089
	C133	C	0.117404	0.493056	0.120804
	C134	C	0.122934	0.509719	0.877066
	C135	C	0.876885	0.492882	0.881432
	C136	C	0.123038	0.879796	0.508289
	C137	C	0.123416	0.122795	0.490344
	C138	C	0.882864	0.120344	0.507920
	C139	C	0.882588	0.878780	0.488657
	C140	C	0.508394	0.121943	0.879764
	C141	C	0.491051	0.123906	0.121681
	C142	C	0.509671	0.879900	0.117873
	C143	C	0.491088	0.877023	0.876336
	C144	C	0.380015	0.887642	0.675982
	C145	C	0.620892	0.114727	0.675474
	C146	C	0.624817	0.888979	0.316052
	C147	C	0.388485	0.117442	0.326273
	C148	C	0.676676	0.380486	0.885481
	C149	C	0.667859	0.619801	0.117677
	C150	C	0.326073	0.615540	0.882889
	C151	C	0.318684	0.383483	0.116553
	C152	C	0.886107	0.678239	0.383736
	C153	C	0.114961	0.681849	0.622258
	C154	C	0.887000	0.321467	0.624951
	C155	C	0.113925	0.321985	0.374140
	C156	C	0.884246	0.384098	0.677198
	C157	C	0.115614	0.621060	0.676342
	C158	C	0.882267	0.615314	0.333189
	C159	C	0.113444	0.381761	0.319181
	C160	C	0.379309	0.676030	0.883786
	C161	C	0.615809	0.680755	0.114974
	C162	C	0.620797	0.322106	0.885495
	C163	C	0.373211	0.324241	0.116079
	C164	C	0.683260	0.888472	0.372923
	C165	C	0.680294	0.114471	0.617625
	C166	C	0.320520	0.888597	0.619727
	C167	C	0.325920	0.115467	0.380480
	C168	C	0.873900	0.387666	0.181318
	C169	C	0.112265	0.615558	0.176612
	C170	C	0.120425	0.388799	0.818457
	C171	C	0.880155	0.614846	0.827424
	C172	C	0.180441	0.881392	0.382338
	C173	C	0.176107	0.120964	0.615856
	C174	C	0.832439	0.116439	0.381381
	C175	C	0.823141	0.883658	0.613552
	C176	C	0.384882	0.176765	0.881321
	C177	C	0.612700	0.183648	0.121191
	C178	C	0.385089	0.825798	0.121370
	C179	C	0.613462	0.819578	0.872155
	C180	C	0.386158	0.885423	0.177493
	C181	C	0.617379	0.120496	0.170321
	C182	C	0.384209	0.116627	0.827311
	C183	C	0.615775	0.881737	0.819736
	C184	C	0.884717	0.176545	0.384010
	C185	C	0.123572	0.182143	0.614204
	C186	C	0.126374	0.821489	0.383963
	C187	C	0.879791	0.826775	0.614736
	C188	C	0.179148	0.388841	0.875253
	C189	C	0.174278	0.614290	0.121813
	C190	C	0.814179	0.388830	0.125563
	C191	C	0.821470	0.614426	0.885473
	C192	C	0.400554	0.094208	0.601188
	C193	C	0.601105	0.908736	0.593974
	C194	C	0.610376	0.096440	0.395251
	C195	C	0.405155	0.910087	0.400137
	C196	C	0.590426	0.402985	0.097099
	C197	C	0.597520	0.597325	0.903801
	C198	C	0.398626	0.602640	0.096690
	C199	C	0.402080	0.398903	0.903841
	C200	C	0.095397	0.599318	0.400928
	C201	C	0.905204	0.604683	0.601605
	C202	C	0.094866	0.403462	0.594478
	C203	C	0.903834	0.397613	0.406170
	C204	C	0.891806	0.595012	0.107137
	C205	C	0.095446	0.408402	0.096650
	C206	C	0.101012	0.594405	0.902032
	C207	C	0.898812	0.408112	0.902472
	C208	C	0.097418	0.903478	0.595424
	C209	C	0.101579	0.099331	0.403135
	C210	C	0.903863	0.098845	0.595127
	C211	C	0.908223	0.898321	0.401278
	C212	C	0.594992	0.101018	0.901434
	C213	C	0.404517	0.100975	0.101469
	C214	C	0.595846	0.900744	0.091414
	C215	C	0.404470	0.898814	0.901602
	Zn216	Zn	0.501239	0.000965	0.750482
	Zn217	Zn	0.504602	0.003374	0.246548
	Zn218	Zn	0.744474	0.500658	0.003058
	Zn219	Zn	0.250913	0.500861	0.000112
	Zn220	Zn	0.002201	0.751610	0.499617
	Zn221	Zn	0.001258	0.249075	0.500296
	Zn222	Zn	-0.000897	0.501636	0.749805
	Zn223	Zn	-0.003982	0.500306	0.253273
	Zn224	Zn	0.498783	0.749713	-0.002191
	Zn225	Zn	0.497294	0.250710	0.001219
	Zn226	Zn	0.756573	0.000671	0.495934
	Zn227	Zn	0.249439	0.001454	0.499054
	N228	N	0.414912	0.963774	0.677880
	N229	N	0.586626	0.038334	0.675861
	N230	N	0.592805	0.966131	0.315094
	N231	N	0.423491	0.041344	0.324771
	N232	N	0.674496	0.415412	0.964127
	N233	N	0.669497	0.583315	0.039736
	N234	N	0.324836	0.582929	0.961687
	N235	N	0.320682	0.416322	0.037873
	N236	N	0.965821	0.682050	0.412521
	N237	N	0.036608	0.685411	0.590486
	N238	N	0.965638	0.319057	0.590175
	N239	N	0.036247	0.318911	0.410810
	N240	N	0.961068	0.420113	0.674371
	N241	N	0.037748	0.587249	0.677619
	N242	N	0.959513	0.580431	0.331306
	N243	N	0.035337	0.415100	0.322092
	N244	N	0.410492	0.680553	0.963335
	N245	N	0.585500	0.681793	0.035101
	N246	N	0.584274	0.321420	0.963938
	N247	N	0.408684	0.320958	0.037002
	N248	N	0.687039	0.965416	0.406793
	N249	N	0.682138	0.037913	0.582315
	N250	N	0.318836	0.965421	0.587410
	N251	N	0.322583	0.038264	0.412209
	N252	N	0.908358	0.463856	0.183074
	N253	N	0.077737	0.539158	0.176239
	N254	N	0.086380	0.465130	0.819287
	N255	N	0.913899	0.538461	0.824755
	N256	N	0.178593	0.916762	0.460809
	N257	N	0.176406	0.085016	0.537709
	N258	N	0.831264	0.081846	0.459330
	N259	N	0.824785	0.915332	0.534317
	N260	N	0.463145	0.180213	0.913369
	N261	N	0.533157	0.185966	0.091696
	N262	N	0.463047	0.822131	0.085107
	N263	N	0.534650	0.816557	0.906454
	N264	N	0.464575	0.918104	0.175668
	N265	N	0.540855	0.083846	0.170783
	N266	N	0.462221	0.083252	0.826031
	N267	N	0.538431	0.916689	0.822111
	N268	N	0.915467	0.179100	0.463680
	N269	N	0.091584	0.183364	0.535097
	N270	N	0.091497	0.820260	0.463410
	N271	N	0.916074	0.823361	0.536025
	N272	N	0.180971	0.465174	0.911015
	N273	N	0.177576	0.537323	0.087722
	N274	N	0.811964	0.465762	0.093236
	N275	N	0.819304	0.537553	0.918246
	O276	O	0.476956	0.417743	0.478460
	H277	H	0.470850	0.426046	0.493308
	H278	H	0.480897	0.403353	0.485291
	O279	O	0.522307	0.404068	0.527267
	H280	H	0.516480	0.391076	0.530375
	H281	H	0.513493	0.402344	0.529487
	O282	O	0.897966	0.961930	0.046998
	H283	H	0.896481	0.950909	0.042417
	H284	H	0.894269	0.949708	0.059418
	O285	O	1.039182	0.000182	1.010750
	H286	H	1.032546	-0.013680	1.001677
	H287	H	1.024777	0.007458	1.018236
	O288	O	0.439112	0.551622	0.440663
	H289	H	0.427242	0.559226	0.439838
	H290	H	0.439981	0.550966	0.442085
	O291	O	0.577398	0.539055	0.513546
	H292	H	0.577577	0.541582	0.519600
	H293	H	0.592883	0.536697	0.508823
	O294	O	0.457352	0.498077	0.530406
	H295	H	0.460674	0.501616	0.528884
	H296	H	0.458305	0.503988	0.532253
	O297	O	-0.066623	0.043164	0.839276
	H298	H	-0.064321	0.042168	0.837275
	H299	H	-0.083623	0.050572	0.837969
	O300	O	0.457070	0.511586	0.507498
	H301	H	0.463382	0.523262	0.510876
	H302	H	0.457802	0.514592	0.496061
	O303	O	1.028185	1.002464	-0.063803
	H304	H	1.027094	1.014095	-0.071591
	H305	H	1.037635	0.994024	-0.072032
	O306	O	0.118541	0.913020	0.849411
	H307	H	0.116804	0.910686	0.860210
	H308	H	0.117582	0.922429	0.831277
	O309	O	0.534648	0.508851	0.457963
	H310	H	0.532215	0.508989	0.445203
	H311	H	0.550992	0.504283	0.458935
	O312	O	0.002987	-0.103917	0.046750
	H313	H	0.017302	-0.099977	0.033118
	H314	H	0.008171	-0.098980	0.043985
	O315	O	0.941655	0.052654	0.018424
	H316	H	0.945334	0.048950	0.022159
	H317	H	0.936440	0.050111	0.015357
	O318	O	1.058788	1.006398	1.014381
	H319	H	1.072174	1.002098	1.004622
	H320	H	1.056592	1.007590	1.008444
	O321	O	0.070449	-0.026453	0.913612
	H322	H	0.060801	-0.021065	0.916109
	H323	H	0.070159	-0.018855	0.929331
	O324	O	0.417606	0.393478	0.471257
	H325	H	0.406801	0.384401	0.478541
	H326	H	0.406002	0.402670	0.476537
	O327	O	-0.076367	-0.073346	0.005239
	H328	H	-0.062425	-0.076672	0.010602
	H329	H	-0.067229	-0.079892	0.002758
	O330	O	0.512175	0.538052	0.451871
	H331	H	0.509892	0.535319	0.444033
	H332	H	0.516914	0.532144	0.449677
	O333	O	-0.026703	1.025932	0.963412
	H334	H	-0.003540	1.024634	0.969218
	H335	H	-0.031911	1.021129	0.959239
	O336	O	-0.057765	0.030531	-0.059575
	H337	H	-0.068268	0.025066	-0.059941
	H338	H	-0.065205	0.035234	-0.056308
	O339	O	0.484436	0.449514	0.581562
	H340	H	0.485403	0.450844	0.580920
	H341	H	0.481307	0.444282	0.576516
	O342	O	1.115771	0.856847	0.999149
	H343	H	1.124673	0.857773	0.992106
	H344	H	1.125828	0.850505	0.979455
	O345	O	0.861773	0.986678	0.089194
	H346	H	0.854922	0.969217	0.082838
	H347	H	0.863364	0.987997	0.103046
	O348	O	0.552424	0.648262	0.585291
	H349	H	0.560916	0.644875	0.573495
	H350	H	0.560370	0.658171	0.599365
	O351	O	0.440532	0.379852	0.553777
	H352	H	0.444152	0.377000	0.549014
	H353	H	0.445230	0.386345	0.548045
	O354	O	0.573331	0.590681	0.510021
	H355	H	0.578626	0.584147	0.509578
	H356	H	0.574521	0.587932	0.513752
	O357	O	1.015558	0.036208	1.040963
	H358	H	0.999234	0.032964	1.046196
	H359	H	1.005455	0.046713	1.047684
	O360	O	0.438865	0.420325	0.525190
	H361	H	0.427396	0.413130	0.524971
	H362	H	0.428371	0.424880	0.530590
	O363	O	0.488305	0.548571	0.512803
	H364	H	0.489530	0.546009	0.515158
	H365	H	0.476754	0.547853	0.508640
	O366	O	1.060277	1.079218	1.030834
	H367	H	1.059767	1.089848	1.028754
	H368	H	1.067187	1.076400	1.038709
	O369	O	1.079824	0.133945	1.043859
	H370	H	1.090831	0.135057	1.044018
	H371	H	1.082712	0.137105	1.054861
	O372	O	0.076925	0.001020	0.019101
	H373	H	0.070452	-0.002332	0.002773
	H374	H	0.078938	0.003668	0.018716
	O375	O	1.032835	0.037527	0.031576
	H376	H	1.022969	0.029001	0.027290
	H377	H	1.035685	0.042540	0.037861
	O378	O	0.531327	0.578064	0.504421
	H379	H	0.542214	0.572521	0.494615
	H380	H	0.516242	0.582976	0.498797
	O381	O	0.508463	0.526021	0.460172
	H382	H	0.510134	0.535144	0.461314
	H383	H	0.501982	0.514173	0.456024
