data_Molecule from HDF5

_cell_length_a		16.312028
_cell_length_b		16.049233
_cell_length_c		16.344734
_cell_angle_alpha	89.920923
_cell_angle_beta	89.765738
_cell_angle_gamma	90.539891
_symmetry_space_group_name_H-M	'P 1'
_symmetry_Int_Tables_number		1

loop_
	_symmetry_equiv_pos_as_xyz
	x,y,z

loop_
	_atom_site_label
	_atom_site_type_symbol
	_atom_site_fract_x
	_atom_site_fract_y
	_atom_site_fract_z
	H0	H	0.394146	0.822841	0.720566
	H1	H	0.598022	0.152208	0.722160
	H2	H	0.597730	0.823597	0.291300
	H3	H	0.396492	0.153280	0.288816
	H4	H	0.718166	0.385737	0.846815
	H5	H	0.717716	0.594660	0.168955
	H6	H	0.282251	0.588454	0.845693
	H7	H	0.279004	0.383402	0.170099
	H8	H	0.834466	0.702600	0.411383
	H9	H	0.160554	0.707013	0.606289
	H10	H	0.834187	0.273304	0.608489
	H11	H	0.160567	0.277237	0.410725
	H12	H	0.837091	0.383515	0.729802
	H13	H	0.160868	0.593298	0.724057
	H14	H	0.838153	0.598604	0.287387
	H15	H	0.158558	0.388722	0.288951
	H16	H	0.402696	0.698884	0.842942
	H17	H	0.598063	0.706215	0.169040
	H18	H	0.596692	0.274345	0.843947
	H19	H	0.398999	0.271228	0.170139
	H20	H	0.714076	0.825080	0.405693
	H21	H	0.713939	0.153478	0.609040
	H22	H	0.279909	0.824295	0.606753
	H23	H	0.283358	0.155137	0.407357
	H24	H	0.893722	0.327056	0.227282
	H25	H	0.099986	0.655476	0.222391
	H26	H	0.098959	0.324420	0.792058
	H27	H	0.901610	0.654167	0.794153
	H28	H	0.214233	0.887657	0.347565
	H29	H	0.215740	0.092365	0.669755
	H30	H	0.780286	0.094290	0.347358
	H31	H	0.776092	0.885713	0.669350
	H32	H	0.334155	0.200850	0.909362
	H33	H	0.660507	0.205176	0.105412
	H34	H	0.333571	0.771902	0.103358
	H35	H	0.661834	0.777466	0.908625
	H36	H	0.335611	0.880907	0.227213
	H37	H	0.658087	0.094615	0.225528
	H38	H	0.334587	0.088665	0.790189
	H39	H	0.657899	0.886155	0.785817
	H40	H	0.900638	0.203763	0.346231
	H41	H	0.096015	0.203105	0.672542
	H42	H	0.096436	0.774762	0.346018
	H43	H	0.895413	0.772800	0.671242
	H44	H	0.209386	0.321272	0.910591
	H45	H	0.215777	0.653541	0.107721
	H46	H	0.781459	0.325492	0.111361
	H47	H	0.785499	0.653543	0.907676
	H48	H	0.402452	0.106969	0.595303
	H49	H	0.589862	0.869641	0.595823
	H50	H	0.591373	0.104522	0.423618
	H51	H	0.398001	0.871827	0.423842
	H52	H	0.582010	0.388955	0.123299
	H53	H	0.594359	0.587060	0.889361
	H54	H	0.406517	0.583076	0.124993
	H55	H	0.399175	0.391801	0.889179
	H56	H	0.109566	0.575880	0.419789
	H57	H	0.877027	0.588776	0.609736
	H58	H	0.112822	0.397855	0.600427
	H59	H	0.877817	0.392668	0.410478
	H60	H	0.113987	0.400663	0.602928
	H61	H	0.885313	0.579583	0.591069
	H62	H	0.115814	0.580356	0.407457
	H63	H	0.883703	0.393589	0.427044
	H64	H	0.401591	0.575273	0.123855
	H65	H	0.599329	0.575987	0.892214
	H66	H	0.599532	0.397202	0.126203
	H67	H	0.402379	0.401774	0.892859
	H68	H	0.592832	0.109627	0.409219
	H69	H	0.584362	0.870037	0.600073
	H70	H	0.404798	0.108517	0.605101
	H71	H	0.403037	0.868601	0.409141
	H72	H	0.905350	0.606593	0.090895
	H73	H	0.082339	0.374033	0.099378
	H74	H	0.095699	0.606680	0.918142
	H75	H	0.905145	0.373557	0.926189
	H76	H	0.088993	0.900124	0.624507
	H77	H	0.091603	0.082947	0.392338
	H78	H	0.898064	0.073126	0.624251
	H79	H	0.914405	0.900140	0.397232
	H80	H	0.611739	0.076679	0.911727
	H81	H	0.383273	0.074763	0.098074
	H82	H	0.613702	0.900745	0.103071
	H83	H	0.378454	0.889431	0.909496
	H84	H	0.613931	0.895738	0.098416
	H85	H	0.381570	0.076095	0.101477
	H86	H	0.613940	0.081285	0.910640
	H87	H	0.381958	0.892297	0.918742
	H88	H	0.911517	0.077874	0.622303
	H89	H	0.091393	0.081125	0.393435
	H90	H	0.086458	0.898910	0.624617
	H91	H	0.902563	0.888933	0.388777
	H92	H	0.093044	0.607361	0.913321
	H93	H	0.090806	0.370944	0.097888
	H94	H	0.904141	0.611532	0.104559
	H95	H	0.903087	0.368319	0.913020
	H96	H	0.411806	0.105384	0.598911
	H97	H	0.584470	0.872772	0.594235
	H98	H	0.579508	0.103703	0.414440
	H99	H	0.412975	0.875537	0.419496
	H100	H	0.585466	0.407331	0.117859
	H101	H	0.587070	0.578123	0.893877
	H102	H	0.409864	0.576524	0.121014
	H103	H	0.409308	0.393320	0.893061
	H104	H	0.114535	0.589530	0.419276
	H105	H	0.883770	0.567711	0.610306
	H106	H	0.114735	0.397131	0.603197
	H107	H	0.883843	0.408664	0.416311
	H108	H	0.916728	0.604930	0.099532
	H109	H	0.087131	0.370406	0.105983
	H110	H	0.089665	0.605324	0.917755
	H111	H	0.915966	0.373100	0.917068
	H112	H	0.089434	0.896832	0.625451
	H113	H	0.089816	0.082581	0.392748
	H114	H	0.901764	0.087135	0.628212
	H115	H	0.897882	0.906143	0.393274
	H116	H	0.612792	0.079996	0.914985
	H117	H	0.381579	0.078438	0.098670
	H118	H	0.609795	0.901499	0.096689
	H119	H	0.381545	0.899086	0.910639
	C120	C	0.375458	-0.002125	0.628685
	C121	C	0.617137	0.979754	0.627256
	C122	C	0.618054	-0.002566	0.385789
	C123	C	0.375511	0.980867	0.386586
	C124	C	0.619472	0.367382	0.015573
	C125	C	0.622275	0.611418	0.998779
	C126	C	0.377505	0.607796	0.015776
	C127	C	0.374122	0.364840	0.998956
	C128	C	0.006523	0.612146	0.386628
	C129	C	0.989697	0.610411	0.631195
	C130	C	0.006680	0.366898	0.632317
	C131	C	0.988754	0.369009	0.387578
	C132	C	0.876852	0.499479	0.130276
	C133	C	0.118289	0.480845	0.129799
	C134	C	0.120614	0.497085	0.887226
	C135	C	0.879092	0.480241	0.888376
	C136	C	0.117952	0.868544	0.517460
	C137	C	0.120061	0.111979	0.500135
	C138	C	0.875353	0.110576	0.517677
	C139	C	0.874083	0.867307	0.499986
	C140	C	0.505619	0.108758	0.884118
	C141	C	0.489020	0.108968	0.128476
	C142	C	0.505503	0.866663	0.128859
	C143	C	0.488135	0.865434	0.883376
	C144	C	0.374972	0.872916	0.683735
	C145	C	0.617635	0.103215	0.684189
	C146	C	0.617218	0.873151	0.329589
	C147	C	0.377018	0.104377	0.328448
	C148	C	0.678136	0.367175	0.894533
	C149	C	0.678453	0.612571	0.120603
	C150	C	0.321315	0.607154	0.893664
	C151	C	0.317691	0.364430	0.121272
	C152	C	0.883684	0.666774	0.389826
	C153	C	0.111906	0.668489	0.627325
	C154	C	0.883779	0.310204	0.629963
	C155	C	0.111581	0.314383	0.389736
	C156	C	0.885036	0.365249	0.690149
	C157	C	0.112130	0.611780	0.685948
	C158	C	0.885502	0.614523	0.328262
	C159	C	0.110349	0.370017	0.329276
	C160	C	0.381126	0.662443	0.892451
	C161	C	0.619309	0.668770	0.120463
	C162	C	0.617785	0.311522	0.893078
	C163	C	0.376884	0.308038	0.121167
	C164	C	0.674999	0.873910	0.386617
	C165	C	0.674832	0.103935	0.627363
	C166	C	0.318141	0.873597	0.627101
	C167	C	0.320351	0.105149	0.386965
	C168	C	0.875231	0.376022	0.188500
	C169	C	0.118915	0.605558	0.184614
	C170	C	0.118542	0.373190	0.830908
	C171	C	0.881016	0.604478	0.831632
	C172	C	0.175119	0.868491	0.395631
	C173	C	0.176695	0.111309	0.621884
	C174	C	0.819094	0.112231	0.395671
	C175	C	0.815725	0.866656	0.621267
	C176	C	0.382912	0.163625	0.888036
	C177	C	0.611504	0.166843	0.126033
	C178	C	0.382848	0.809088	0.125757
	C179	C	0.612015	0.812852	0.886512
	C180	C	0.383807	0.863833	0.186859
	C181	C	0.610245	0.111890	0.185930
	C182	C	0.383206	0.107594	0.828883
	C183	C	0.610239	0.867322	0.825729
	C184	C	0.878948	0.166834	0.395169
	C185	C	0.117370	0.166767	0.623033
	C186	C	0.116360	0.812479	0.394932
	C187	C	0.875315	0.810689	0.622364
	C188	C	0.173959	0.371927	0.889450
	C189	C	0.177089	0.604385	0.127962
	C190	C	0.819539	0.375165	0.130477
	C191	C	0.823714	0.604369	0.888503
	C192	C	0.399335	0.084545	0.606239
	C193	C	0.593354	0.893321	0.603596
	C194	C	0.594793	0.083501	0.408831
	C195	C	0.398051	0.894487	0.410504
	C196	C	0.595990	0.391122	0.100374
	C197	C	0.600326	0.587203	0.913796
	C198	C	0.399389	0.585035	0.101149
	C199	C	0.397033	0.388548	0.913722
	C200	C	0.091386	0.588769	0.408973
	C201	C	0.904053	0.585978	0.609967
	C202	C	0.092040	0.391359	0.608909
	C203	C	0.903758	0.391804	0.411009
	C204	C	0.901550	0.585384	0.105627
	C205	C	0.093764	0.394171	0.107685
	C206	C	0.099091	0.584115	0.909786
	C207	C	0.901281	0.394068	0.912028
	C208	C	0.095027	0.891719	0.602656
	C209	C	0.097691	0.088888	0.414864
	C210	C	0.897199	0.086471	0.602759
	C211	C	0.897930	0.891432	0.415155
	C212	C	0.590685	0.085969	0.905899
	C213	C	0.403962	0.083707	0.105874
	C214	C	0.590546	0.891927	0.105944
	C215	C	0.402857	0.887264	0.906211
	Zn216	Zn	0.496309	-0.012494	0.754988
	Zn217	Zn	0.496958	-0.011604	0.257913
	Zn218	Zn	0.750345	0.489159	0.008835
	Zn219	Zn	0.246837	0.487543	0.008545
	Zn220	Zn	-0.003289	0.739118	0.508912
	Zn221	Zn	-0.002724	0.239047	0.509546
	Zn222	Zn	-0.000624	0.488982	0.759966
	Zn223	Zn	-0.003043	0.491465	0.258090
	Zn224	Zn	0.497969	0.737619	0.006307
	Zn225	Zn	0.497678	0.237406	0.006286
	Zn226	Zn	0.745767	-0.010088	0.507714
	Zn227	Zn	0.247711	-0.010029	0.508329
	N228	N	0.409904	0.951329	0.684866
	N229	N	0.582244	0.025033	0.684241
	N230	N	0.582508	0.951083	0.328986
	N231	N	0.410065	0.025844	0.327850
	N232	N	0.679287	0.401149	0.971781
	N233	N	0.680525	0.577716	0.043738
	N234	N	0.319016	0.573943	0.971191
	N235	N	0.315816	0.398894	0.044222
	N236	N	0.959872	0.665611	0.425545
	N237	N	0.034613	0.667687	0.593797
	N238	N	0.960608	0.311066	0.594883
	N239	N	0.035026	0.313609	0.425273
	N240	N	0.962585	0.399688	0.691720
	N241	N	0.035101	0.576410	0.688250
	N242	N	0.962784	0.581352	0.326062
	N243	N	0.033032	0.403394	0.327869
	N244	N	0.415294	0.663044	0.969371
	N245	N	0.585125	0.668179	0.043765
	N246	N	0.581783	0.311699	0.969286
	N247	N	0.411370	0.308328	0.044144
	N248	N	0.675786	0.952129	0.420837
	N249	N	0.674623	0.025921	0.592871
	N250	N	0.318357	0.952173	0.593503
	N251	N	0.319424	0.027267	0.422517
	N252	N	0.910059	0.454327	0.188456
	N253	N	0.083200	0.527496	0.185998
	N254	N	0.086316	0.452231	0.829194
	N255	N	0.914835	0.526311	0.831421
	N256	N	0.176100	0.902859	0.472514
	N257	N	0.178637	0.078206	0.544400
	N258	N	0.816663	0.077983	0.472867
	N259	N	0.814745	0.900917	0.544084
	N260	N	0.459924	0.164624	0.921874
	N261	N	0.534934	0.165264	0.091094
	N262	N	0.459646	0.810517	0.090688
	N263	N	0.535372	0.811555	0.921673
	N264	N	0.461249	0.898669	0.189134
	N265	N	0.532996	0.076610	0.187574
	N266	N	0.460349	0.074112	0.826477
	N267	N	0.532239	0.899190	0.823594
	N268	N	0.913395	0.165882	0.471978
	N269	N	0.082664	0.167270	0.546337
	N270	N	0.081447	0.812388	0.471798
	N271	N	0.910537	0.810641	0.545718
	N272	N	0.175053	0.449969	0.923940
	N273	N	0.176672	0.525852	0.094699
	N274	N	0.819919	0.453118	0.095347
	N275	N	0.822335	0.526274	0.923183
	O276	O	1.031513	-0.008419	1.101222
	H277	H	1.028687	-0.006580	1.091731
	H278	H	1.031838	-0.014129	1.096008
	O279	O	0.326259	0.453907	0.387929
	H280	H	0.323967	0.460681	0.386056
	H281	H	0.336317	0.463699	0.389050
	O282	O	0.558697	0.365428	0.511352
	H283	H	0.559534	0.355761	0.498230
	H284	H	0.544433	0.373620	0.526138
	O285	O	0.469459	0.620194	0.557845
	H286	H	0.468412	0.616984	0.557973
	H287	H	0.478215	0.632555	0.563072
	O288	O	0.490142	0.407831	0.403391
	H289	H	0.496543	0.396800	0.414595
	H290	H	0.481137	0.402959	0.395656
	O291	O	-0.002021	0.008819	0.967353
	H292	H	0.007530	0.021818	0.969206
	H293	H	-0.006570	0.000108	0.965238
	O294	O	1.038282	0.960910	-0.086561
	H295	H	1.024234	0.967689	-0.091315
	H296	H	1.019144	0.957696	-0.082509
	O297	O	1.098472	1.023898	-0.012406
	H298	H	1.086647	1.018327	-0.015328
	H299	H	1.098366	1.026929	-0.011228
	O300	O	0.608505	0.493255	0.357548
	H301	H	0.605600	0.496585	0.359849
	H302	H	0.612751	0.485021	0.355722
	O303	O	0.605390	0.398254	0.613888
	H304	H	0.614855	0.389339	0.621205
	H305	H	0.598892	0.396900	0.617154
	O306	O	0.400417	0.602806	0.545630
	H307	H	0.378208	0.612154	0.538470
	H308	H	0.412203	0.597504	0.523529
	O309	O	0.469272	0.445423	0.418426
	H310	H	0.457749	0.457634	0.421823
	H311	H	0.462819	0.441885	0.407856
	O312	O	0.891260	1.053298	0.910804
	H313	H	0.885953	1.052348	0.926117
	H314	H	0.894425	1.054926	0.916878
	O315	O	1.064157	0.988546	-0.099311
	H316	H	1.058454	0.993655	-0.103993
	H317	H	1.065445	0.980578	-0.110366
	O318	O	0.591773	0.508300	0.603748
	H319	H	0.571444	0.497228	0.619780
	H320	H	0.599062	0.527200	0.612239
	O321	O	0.957684	0.952472	0.070582
	H322	H	0.956569	0.944393	0.076498
	H323	H	0.970079	0.958210	0.073547
	O324	O	-0.357859	1.415394	0.370752
	H325	H	-0.331566	1.404053	0.353551
	H326	H	-0.359454	1.402586	0.383308
	O327	O	-0.577689	1.461748	1.551850
	H328	H	-0.585200	1.450685	1.559490
	H329	H	-0.575587	1.466241	1.551647
	O330	O	0.037650	-0.006689	-0.037441
	H331	H	0.027965	-0.004826	-0.043831
	H332	H	0.043926	-0.003708	-0.025444
	O333	O	0.653096	0.458996	0.560030
	H334	H	0.658221	0.464768	0.569700
	H335	H	0.655083	0.458074	0.552292
	O336	O	0.050775	-0.019904	0.055892
	H337	H	0.065134	-0.012643	0.056366
	H338	H	0.046131	0.004524	0.063809
	O339	O	-0.031956	-0.117665	0.057323
	H340	H	-0.023064	-0.099228	0.050464
	H341	H	-0.030867	-0.118750	0.062748
	O342	O	0.461563	0.554645	0.474250
	H343	H	0.469833	0.547453	0.472764
	H344	H	0.475264	0.566364	0.468919
	O345	O	-0.126323	1.064063	1.088332
	H346	H	-0.117415	1.059890	1.085770
	H347	H	-0.124069	1.056576	1.092146
	O348	O	0.519463	0.457609	0.489702
	H349	H	0.529748	0.448877	0.499586
	H350	H	0.509388	0.461008	0.478710
	O351	O	0.487553	0.553077	0.450049
	H352	H	0.481738	0.550261	0.450597
	H353	H	0.480614	0.547469	0.457155
	O354	O	-0.151101	0.932987	0.034206
	H355	H	-0.155534	0.926887	0.043517
	H356	H	-0.167739	0.937353	0.024032
	O357	O	0.589392	0.600626	0.463655
	H358	H	0.582837	0.605456	0.452403
	H359	H	0.604054	0.607369	0.471097
	O360	O	0.509984	0.557689	0.671460
	H361	H	0.503971	0.547365	0.675388
	H362	H	0.495163	0.567039	0.674352
	O363	O	0.397481	0.556026	0.350537
	H364	H	0.401226	0.561385	0.345758
	H365	H	0.399326	0.577045	0.358259
	O366	O	0.975633	1.127937	0.013641
	H367	H	0.967922	1.118964	0.015812
	H368	H	0.985731	1.132997	0.021683
	O369	O	0.983765	-0.101481	-0.027851
	H370	H	0.992808	-0.101761	-0.027369
	H371	H	0.981603	-0.109011	-0.027418
	O372	O	0.338717	0.407596	0.527292
	H373	H	0.332265	0.398975	0.527841
	H374	H	0.349228	0.401776	0.528614
	O375	O	1.082917	-0.015456	1.072941
	H376	H	1.072126	-0.017986	1.070202
	H377	H	1.085170	-0.008079	1.069687
	O378	O	0.052469	1.036663	0.088559
	H379	H	0.061145	1.044264	0.102554
	H380	H	0.050092	1.028297	0.078566
	O381	O	0.443162	0.316803	0.584899
	H382	H	0.423075	0.324250	0.576535
	H383	H	0.438983	0.323986	0.581495
	O384	O	0.886374	0.885463	0.124603
	H385	H	0.887084	0.870655	0.137945
	H386	H	0.866551	0.880779	0.129500
	O387	O	1.007428	0.105799	1.031959
	H388	H	1.013845	0.099749	1.011823
	H389	H	1.018107	0.106347	1.040356
	O390	O	1.101756	0.921809	0.037393
	H391	H	1.101054	0.921221	0.041077
	H392	H	1.114840	0.931008	0.039278
	O393	O	0.597881	0.653879	0.555322
	H394	H	0.603825	0.648959	0.537706
	H395	H	0.599702	0.659186	0.561665
