data_Molecule from HDF5

_cell_length_a		16.315504
_cell_length_b		16.230467
_cell_length_c		16.252573
_cell_angle_alpha	89.987757
_cell_angle_beta	89.871129
_cell_angle_gamma	89.933337
_symmetry_space_group_name_H-M	'P 1'
_symmetry_Int_Tables_number		1

loop_
	_symmetry_equiv_pos_as_xyz
	x,y,z

loop_
	_atom_site_label
	_atom_site_type_symbol
	_atom_site_fract_x
	_atom_site_fract_y
	_atom_site_fract_z
	H0	H	0.405927	0.830291	0.708333
	H1	H	0.600249	0.158534	0.707423
	H2	H	0.602179	0.830725	0.280313
	H3	H	0.406351	0.158945	0.281578
	H4	H	0.717959	0.395036	0.830907
	H5	H	0.716362	0.591972	0.158328
	H6	H	0.288789	0.592694	0.830949
	H7	H	0.288196	0.395155	0.157831
	H8	H	0.840429	0.709530	0.397534
	H9	H	0.167208	0.708248	0.591285
	H10	H	0.840013	0.281168	0.593175
	H11	H	0.166891	0.280400	0.396580
	H12	H	0.839860	0.398127	0.709033
	H13	H	0.167385	0.593522	0.709218
	H14	H	0.839572	0.593038	0.281646
	H15	H	0.166745	0.396036	0.279326
	H16	H	0.405568	0.707842	0.830166
	H17	H	0.600573	0.707980	0.158489
	H18	H	0.600316	0.280976	0.830407
	H19	H	0.405372	0.281304	0.158621
	H20	H	0.719061	0.831132	0.394982
	H21	H	0.717318	0.158684	0.592951
	H22	H	0.288732	0.830682	0.593585
	H23	H	0.290433	0.159350	0.397500
	H24	H	0.904613	0.330549	0.210151
	H25	H	0.099917	0.658653	0.208457
	H26	H	0.100943	0.330454	0.780888
	H27	H	0.905215	0.658752	0.781518
	H28	H	0.218490	0.897112	0.330865
	H29	H	0.218113	0.093924	0.658521
	H30	H	0.789347	0.094346	0.330649
	H31	H	0.787955	0.895396	0.657731
	H32	H	0.339140	0.209222	0.896387
	H33	H	0.666067	0.208481	0.091629
	H34	H	0.339003	0.780257	0.093260
	H35	H	0.667048	0.779626	0.896194
	H36	H	0.339961	0.896882	0.209127
	H37	H	0.666923	0.092275	0.207803
	H38	H	0.339099	0.092569	0.780178
	H39	H	0.666772	0.895548	0.778884
	H40	H	0.905974	0.208878	0.330769
	H41	H	0.100636	0.207851	0.659164
	H42	H	0.103217	0.780797	0.330138
	H43	H	0.906248	0.781697	0.658556
	H44	H	0.217336	0.330022	0.895910
	H45	H	0.218464	0.657847	0.094836
	H46	H	0.789395	0.329909	0.093090
	H47	H	0.788281	0.658028	0.896395
	H48	H	0.411315	0.112142	0.591544
	H49	H	0.588270	0.878996	0.590080
	H50	H	0.597576	0.110809	0.404370
	H51	H	0.413834	0.877442	0.398965
	H52	H	0.599717	0.395367	0.114329
	H53	H	0.588596	0.589467	0.879548
	H54	H	0.401344	0.587150	0.114029
	H55	H	0.417900	0.406500	0.881282
	H56	H	0.121619	0.590396	0.397094
	H57	H	0.889010	0.581637	0.589257
	H58	H	0.118139	0.404763	0.582237
	H59	H	0.882258	0.406999	0.380264
	H60	H	0.120802	0.404778	0.594483
	H61	H	0.884364	0.591482	0.593993
	H62	H	0.120105	0.589700	0.403891
	H63	H	0.882659	0.381037	0.409653
	H64	H	0.412878	0.579521	0.107969
	H65	H	0.601554	0.591322	0.874257
	H66	H	0.600217	0.405983	0.111425
	H67	H	0.410762	0.391598	0.874496
	H68	H	0.599475	0.112633	0.398920
	H69	H	0.598164	0.879604	0.577720
	H70	H	0.411042	0.110220	0.584575
	H71	H	0.411761	0.879583	0.406135
	H72	H	0.909055	0.613128	0.094810
	H73	H	0.100732	0.376506	0.086283
	H74	H	0.093359	0.608931	0.907741
	H75	H	0.914176	0.375699	0.893296
	H76	H	0.095385	0.895854	0.612937
	H77	H	0.097924	0.097687	0.375126
	H78	H	0.912295	0.090795	0.611917
	H79	H	0.914037	0.909451	0.381374
	H80	H	0.616021	0.083741	0.907869
	H81	H	0.383412	0.092519	0.094404
	H82	H	0.620261	0.899485	0.088820
	H83	H	0.390067	0.899305	0.912498
	H84	H	0.618868	0.900181	0.084542
	H85	H	0.387483	0.090200	0.080739
	H86	H	0.620013	0.083237	0.893170
	H87	H	0.388447	0.911699	0.896586
	H88	H	0.905016	0.088247	0.612955
	H89	H	0.105867	0.082634	0.376765
	H90	H	0.102380	0.904450	0.611942
	H91	H	0.915957	0.896273	0.377868
	H92	H	0.101634	0.613291	0.902269
	H93	H	0.092590	0.377141	0.091808
	H94	H	0.915004	0.607775	0.083789
	H95	H	0.914719	0.380476	0.908656
	H96	H	0.405495	0.113248	0.587822
	H97	H	0.603127	0.874104	0.591288
	H98	H	0.593074	0.111971	0.399546
	H99	H	0.406221	0.876364	0.401029
	H100	H	0.590914	0.400699	0.110093
	H101	H	0.597813	0.579444	0.879169
	H102	H	0.414516	0.594169	0.112668
	H103	H	0.400675	0.406509	0.876282
	H104	H	0.119187	0.584666	0.399403
	H105	H	0.888057	0.591734	0.582372
	H106	H	0.122036	0.393943	0.587892
	H107	H	0.896446	0.417796	0.415665
	H108	H	0.901941	0.612169	0.083656
	H109	H	0.092198	0.379917	0.082228
	H110	H	0.092247	0.611417	0.897669
	H111	H	0.900925	0.375292	0.902587
	H112	H	0.092170	0.906492	0.608469
	H113	H	0.089183	0.084007	0.380724
	H114	H	0.910523	0.083445	0.610052
	H115	H	0.903856	0.902145	0.374955
	H116	H	0.621261	0.096292	0.901065
	H117	H	0.388032	0.079819	0.090253
	H118	H	0.618703	0.903141	0.087952
	H119	H	0.383199	0.892388	0.895147
	C120	C	0.381378	0.003023	0.616184
	C121	C	0.624643	0.986075	0.614966
	C122	C	0.625567	0.003544	0.372344
	C123	C	0.382187	0.986257	0.373646
	C124	C	0.624717	0.372524	0.003324
	C125	C	0.624350	0.615495	0.986041
	C126	C	0.381378	0.615879	0.003334
	C127	C	0.381390	0.372867	0.985695
	C128	C	0.012119	0.616525	0.372696
	C129	C	0.995267	0.616724	0.616710
	C130	C	0.012345	0.372916	0.616674
	C131	C	0.995101	0.372820	0.372900
	C132	C	0.880987	0.502746	0.116426
	C133	C	0.124086	0.485877	0.115777
	C134	C	0.124456	0.502871	0.873581
	C135	C	0.881667	0.485833	0.873437
	C136	C	0.125243	0.873361	0.502794
	C137	C	0.125447	0.116229	0.486148
	C138	C	0.881355	0.116108	0.503025
	C139	C	0.882363	0.873830	0.486166
	C140	C	0.510916	0.116144	0.872482
	C141	C	0.494742	0.115705	0.115911
	C142	C	0.511233	0.872236	0.116232
	C143	C	0.495106	0.872538	0.872645
	C144	C	0.384822	0.879270	0.670873
	C145	C	0.621411	0.109713	0.669736
	C146	C	0.623072	0.879825	0.317590
	C147	C	0.385290	0.109849	0.318814
	C148	C	0.679862	0.374762	0.879821
	C149	C	0.678816	0.612827	0.109522
	C150	C	0.326791	0.613493	0.879720
	C151	C	0.326066	0.374611	0.108991
	C152	C	0.888921	0.671491	0.376484
	C153	C	0.118411	0.671091	0.612685
	C154	C	0.888759	0.318955	0.613649
	C155	C	0.118016	0.317936	0.375503
	C156	C	0.888810	0.376825	0.671448
	C157	C	0.118534	0.613771	0.671063
	C158	C	0.888651	0.613794	0.318731
	C159	C	0.117987	0.375605	0.317464
	C160	C	0.384819	0.670494	0.879473
	C161	C	0.620740	0.669868	0.109723
	C162	C	0.621518	0.318257	0.879625
	C163	C	0.384395	0.318240	0.109444
	C164	C	0.680967	0.880019	0.374627
	C165	C	0.679674	0.109558	0.612923
	C166	C	0.326788	0.879469	0.613839
	C167	C	0.327607	0.109990	0.376228
	C168	C	0.883868	0.379425	0.172068
	C169	C	0.121122	0.609744	0.170855
	C170	C	0.121890	0.379239	0.818566
	C171	C	0.884416	0.609682	0.819193
	C172	C	0.180903	0.875917	0.379654
	C173	C	0.180199	0.114018	0.609573
	C174	C	0.827040	0.114443	0.379593
	C175	C	0.826260	0.875367	0.609028
	C176	C	0.387971	0.171262	0.875549
	C177	C	0.617611	0.170390	0.112501
	C178	C	0.388136	0.817723	0.113735
	C179	C	0.617919	0.817226	0.875172
	C180	C	0.388517	0.875524	0.171494
	C181	C	0.617789	0.112779	0.170299
	C182	C	0.387902	0.113340	0.817890
	C183	C	0.618183	0.875069	0.817140
	C184	C	0.885001	0.171242	0.379689
	C185	C	0.121550	0.170342	0.610069
	C186	C	0.123164	0.818601	0.379241
	C187	C	0.885018	0.818822	0.609490
	C188	C	0.179531	0.379197	0.875710
	C189	C	0.179873	0.609191	0.114278
	C190	C	0.826912	0.379012	0.113765
	C191	C	0.826094	0.609024	0.875970
	C192	C	0.402801	0.089515	0.594290
	C193	C	0.602766	0.899862	0.592965
	C194	C	0.603351	0.089607	0.394419
	C195	C	0.404005	0.900096	0.395865
	C196	C	0.603169	0.394154	0.089616
	C197	C	0.602624	0.593215	0.899780
	C198	C	0.403129	0.593580	0.089347
	C199	C	0.403419	0.394804	0.899626
	C200	C	0.098100	0.594780	0.393918
	C201	C	0.909438	0.594714	0.594986
	C202	C	0.098224	0.394725	0.594711
	C203	C	0.909193	0.395146	0.395262
	C204	C	0.902472	0.588888	0.094089
	C205	C	0.101800	0.399767	0.093484
	C206	C	0.102100	0.589008	0.895894
	C207	C	0.903420	0.399393	0.894991
	C208	C	0.103108	0.895575	0.588769
	C209	C	0.103917	0.094619	0.399897
	C210	C	0.902973	0.094140	0.589301
	C211	C	0.904729	0.896193	0.400207
	C212	C	0.596847	0.094274	0.894384
	C213	C	0.408444	0.093768	0.094612
	C214	C	0.597213	0.894509	0.093720
	C215	C	0.409351	0.894694	0.894804
	Zn216	Zn	0.503230	-0.005706	0.743493
	Zn217	Zn	0.503370	-0.005563	0.245170
	Zn218	Zn	0.752670	0.493632	-0.005472
	Zn219	Zn	0.253202	0.494215	-0.005764
	Zn220	Zn	0.004002	0.745173	0.494231
	Zn221	Zn	0.003609	0.244125	0.494783
	Zn222	Zn	0.003839	0.494994	0.745246
	Zn223	Zn	0.003007	0.494794	0.244331
	Zn224	Zn	0.503120	0.743878	-0.005304
	Zn225	Zn	0.502798	0.244622	-0.005339
	Zn226	Zn	0.753562	-0.005191	0.494002
	Zn227	Zn	0.253447	-0.005281	0.494767
	N228	N	0.418226	0.956925	0.672078
	N229	N	0.587994	0.032016	0.671140
	N230	N	0.589065	0.957384	0.316261
	N231	N	0.418597	0.031934	0.317108
	N232	N	0.681911	0.407661	0.957800
	N233	N	0.681042	0.579568	0.031638
	N234	N	0.324399	0.580244	0.957612
	N235	N	0.324221	0.408159	0.031380
	N236	N	0.966666	0.673469	0.409101
	N237	N	0.040857	0.672948	0.579608
	N238	N	0.966415	0.316220	0.580494
	N239	N	0.040726	0.316534	0.409426
	N240	N	0.966589	0.409755	0.673402
	N241	N	0.040813	0.581210	0.673967
	N242	N	0.966175	0.580559	0.316272
	N243	N	0.040381	0.408961	0.315731
	N244	N	0.417935	0.672045	0.957319
	N245	N	0.587890	0.671587	0.031857
	N246	N	0.587913	0.316784	0.957345
	N247	N	0.418129	0.316941	0.031766
	N248	N	0.682773	0.958033	0.407740
	N249	N	0.681663	0.031664	0.579462
	N250	N	0.324764	0.957421	0.580502
	N251	N	0.325711	0.032116	0.409585
	N252	N	0.917023	0.457177	0.173424
	N253	N	0.087288	0.532245	0.171825
	N254	N	0.088380	0.457072	0.817200
	N255	N	0.917996	0.531940	0.817206
	N256	N	0.182047	0.909507	0.457336
	N257	N	0.182498	0.080898	0.531633
	N258	N	0.824570	0.081138	0.457376
	N259	N	0.824763	0.908924	0.531255
	N260	N	0.465488	0.172961	0.908926
	N261	N	0.540046	0.172311	0.079601
	N262	N	0.465581	0.815762	0.080183
	N263	N	0.540627	0.815712	0.908988
	N264	N	0.466214	0.908556	0.173223
	N265	N	0.540174	0.079405	0.172395
	N266	N	0.465325	0.079841	0.815784
	N267	N	0.540850	0.909134	0.815653
	N268	N	0.918104	0.172588	0.457555
	N269	N	0.088275	0.171882	0.532360
	N270	N	0.089369	0.816865	0.456846
	N271	N	0.919120	0.817763	0.532040
	N272	N	0.181395	0.457197	0.909049
	N273	N	0.181649	0.531300	0.080501
	N274	N	0.824782	0.456736	0.079960
	N275	N	0.824453	0.530967	0.909112
	O276	O	1.018448	-0.030722	0.974364
	H277	H	1.019166	-0.025123	0.971301
	H278	H	1.007521	-0.017312	0.978865
	O279	O	-0.013697	0.920128	0.990427
	H280	H	-0.006452	0.917507	0.987083
	H281	H	-0.014073	0.919505	0.988297
	O282	O	1.034484	0.940301	-0.003430
	H283	H	1.047829	0.933983	0.004075
	H284	H	1.032435	0.939056	-0.008371
	O285	O	-0.024703	0.952430	1.013264
	H286	H	-0.027973	0.947851	1.005857
	H287	H	-0.030298	0.939837	1.020966
