data_Molecule from HDF5

_cell_length_a		16.457274
_cell_length_b		16.360182
_cell_length_c		16.447329
_cell_angle_alpha	89.987723
_cell_angle_beta	90.101458
_cell_angle_gamma	90.146051
_symmetry_space_group_name_H-M	'P 1'
_symmetry_Int_Tables_number		1

loop_
	_symmetry_equiv_pos_as_xyz
	x,y,z

loop_
	_atom_site_label
	_atom_site_type_symbol
	_atom_site_fract_x
	_atom_site_fract_y
	_atom_site_fract_z
	H0	H	0.389995	0.848785	0.739651
	H1	H	0.596937	0.167941	0.736835
	H2	H	0.604138	0.849609	0.293613
	H3	H	0.389589	0.166471	0.298227
	H4	H	0.711137	0.401442	0.859773
	H5	H	0.722687	0.620181	0.171975
	H6	H	0.275123	0.608321	0.859229
	H7	H	0.269125	0.399641	0.175498
	H8	H	0.836474	0.731576	0.408305
	H9	H	0.153098	0.724927	0.620177
	H10	H	0.837081	0.283308	0.620875
	H11	H	0.153867	0.289178	0.413665
	H12	H	0.836514	0.397307	0.738364
	H13	H	0.151232	0.610033	0.738692
	H14	H	0.838098	0.619008	0.289240
	H15	H	0.150923	0.402603	0.294980
	H16	H	0.388490	0.728368	0.860664
	H17	H	0.604062	0.732889	0.175342
	H18	H	0.592495	0.288964	0.859080
	H19	H	0.386246	0.285175	0.176307
	H20	H	0.717921	0.848594	0.411424
	H21	H	0.716199	0.166478	0.623161
	H22	H	0.272822	0.848296	0.624933
	H23	H	0.272786	0.164624	0.412885
	H24	H	0.884085	0.349188	0.240584
	H25	H	0.104102	0.664498	0.242260
	H26	H	0.094737	0.345090	0.800270
	H27	H	0.885627	0.663365	0.792533
	H28	H	0.219584	0.897176	0.360899
	H29	H	0.213022	0.108264	0.676251
	H30	H	0.766626	0.119940	0.362095
	H31	H	0.774070	0.900864	0.674977
	H32	H	0.333540	0.224091	0.915407
	H33	H	0.651899	0.231599	0.123711
	H34	H	0.335665	0.784789	0.125243
	H35	H	0.651002	0.783810	0.911389
	H36	H	0.337209	0.899157	0.243056
	H37	H	0.651950	0.117945	0.242900
	H38	H	0.335216	0.109822	0.797682
	H39	H	0.650745	0.898691	0.793466
	H40	H	0.887210	0.230924	0.359543
	H41	H	0.098162	0.226150	0.675137
	H42	H	0.101386	0.784473	0.358461
	H43	H	0.888892	0.784177	0.674805
	H44	H	0.210772	0.346576	0.915732
	H45	H	0.218978	0.664514	0.126657
	H46	H	0.768047	0.349433	0.125244
	H47	H	0.769065	0.663411	0.907313
	H48	H	0.403940	0.120376	0.603587
	H49	H	0.585867	0.892382	0.609222
	H50	H	0.585407	0.121521	0.428861
	H51	H	0.406751	0.893222	0.429788
	H52	H	0.583769	0.426000	0.130721
	H53	H	0.583356	0.604133	0.901440
	H54	H	0.402017	0.591129	0.131647
	H55	H	0.400065	0.409627	0.901963
	H56	H	0.100105	0.589593	0.436674
	H57	H	0.879312	0.598716	0.602835
	H58	H	0.109241	0.414527	0.608890
	H59	H	0.881194	0.421105	0.427381
	H60	H	0.107401	0.418049	0.607533
	H61	H	0.883000	0.591135	0.601340
	H62	H	0.106885	0.589366	0.420536
	H63	H	0.881041	0.417290	0.429219
	H64	H	0.409623	0.593848	0.128764
	H65	H	0.587122	0.586399	0.906919
	H66	H	0.574199	0.421232	0.128741
	H67	H	0.395069	0.419527	0.902507
	H68	H	0.575981	0.118078	0.429823
	H69	H	0.580446	0.894837	0.607935
	H70	H	0.399501	0.123779	0.609275
	H71	H	0.408704	0.894049	0.431254
	H72	H	0.905857	0.618796	0.103007
	H73	H	0.081971	0.395627	0.100332
	H74	H	0.087950	0.621412	0.930120
	H75	H	0.905755	0.394578	0.930774
	H76	H	0.081013	0.917953	0.628493
	H77	H	0.091694	0.091486	0.402577
	H78	H	0.911658	0.090683	0.626587
	H79	H	0.906362	0.921013	0.405015
	H80	H	0.608325	0.098628	0.927675
	H81	H	0.378000	0.102468	0.111537
	H82	H	0.606231	0.924399	0.109747
	H83	H	0.381505	0.910951	0.935618
	H84	H	0.606636	0.916835	0.105196
	H85	H	0.384293	0.094705	0.100488
	H86	H	0.607170	0.098940	0.928819
	H87	H	0.385373	0.928593	0.932494
	H88	H	0.909113	0.101269	0.630580
	H89	H	0.077679	0.093277	0.405935
	H90	H	0.084190	0.912841	0.631428
	H91	H	0.907930	0.921339	0.404860
	H92	H	0.080572	0.621967	0.921165
	H93	H	0.081642	0.393447	0.108346
	H94	H	0.910716	0.617274	0.101877
	H95	H	0.897330	0.391235	0.930840
	H96	H	0.407195	0.121346	0.610439
	H97	H	0.584773	0.894348	0.603334
	H98	H	0.582190	0.117648	0.437157
	H99	H	0.406427	0.893642	0.431874
	H100	H	0.582390	0.415447	0.133620
	H101	H	0.569888	0.593617	0.910669
	H102	H	0.404764	0.598828	0.133268
	H103	H	0.405458	0.418074	0.906659
	H104	H	0.108043	0.603529	0.430369
	H105	H	0.879578	0.592982	0.608862
	H106	H	0.108744	0.417786	0.611411
	H107	H	0.882433	0.420099	0.431275
	H108	H	0.906978	0.617223	0.098415
	H109	H	0.075014	0.396182	0.104548
	H110	H	0.077222	0.617924	0.931537
	H111	H	0.902386	0.390273	0.923282
	H112	H	0.087406	0.918630	0.630723
	H113	H	0.085619	0.103902	0.400108
	H114	H	0.901322	0.093030	0.630228
	H115	H	0.907112	0.920396	0.405013
	H116	H	0.607445	0.097509	0.928128
	H117	H	0.382926	0.088384	0.113307
	H118	H	0.602950	0.923909	0.101605
	H119	H	0.377700	0.918156	0.919011
	C120	C	0.372042	0.016224	0.639907
	C121	C	0.615616	0.999350	0.639277
	C122	C	0.616141	0.015333	0.397277
	C123	C	0.374425	0.998285	0.398301
	C124	C	0.611971	0.387644	0.026405
	C125	C	0.615550	0.629486	1.009338
	C126	C	0.372644	0.627238	0.026930
	C127	C	0.368587	0.383670	1.008689
	C128	C	0.001974	0.629286	0.393962
	C129	C	0.984850	0.627001	0.637881
	C130	C	0.003330	0.383858	0.639429
	C131	C	0.985635	0.386684	0.396135
	C132	C	0.871946	0.514876	0.137277
	C133	C	0.114360	0.498937	0.138338
	C134	C	0.113062	0.514645	0.896761
	C135	C	0.870104	0.496897	0.894938
	C136	C	0.117176	0.883884	0.525984
	C137	C	0.116328	0.127683	0.508037
	C138	C	0.873532	0.128919	0.525408
	C139	C	0.874044	0.886753	0.509038
	C140	C	0.502142	0.128439	0.897259
	C141	C	0.485645	0.129564	0.140962
	C142	C	0.502025	0.886509	0.140048
	C143	C	0.485561	0.885861	0.896315
	C144	C	0.370677	0.896561	0.700138
	C145	C	0.616708	0.119634	0.698122
	C146	C	0.620964	0.896814	0.334608
	C147	C	0.371253	0.118165	0.337837
	C148	C	0.671187	0.384198	0.907131
	C149	C	0.680546	0.636003	0.125838
	C150	C	0.313669	0.628481	0.907034
	C151	C	0.309199	0.381886	0.128056
	C152	C	0.884116	0.691343	0.389884
	C153	C	0.104702	0.686027	0.639305
	C154	C	0.884118	0.323699	0.639571
	C155	C	0.105347	0.327792	0.394460
	C156	C	0.883828	0.380348	0.698163
	C157	C	0.104008	0.628625	0.698064
	C158	C	0.884735	0.635179	0.330456
	C159	C	0.104036	0.384146	0.335387
	C160	C	0.370405	0.687625	0.907857
	C161	C	0.621576	0.692514	0.127349
	C162	C	0.612477	0.327938	0.906899
	C163	C	0.367633	0.324748	0.128498
	C164	C	0.677764	0.896390	0.393416
	C165	C	0.676076	0.118923	0.641824
	C166	C	0.312541	0.896245	0.642897
	C167	C	0.313065	0.117438	0.394814
	C168	C	0.867171	0.396803	0.199998
	C169	C	0.120287	0.617320	0.201078
	C170	C	0.113874	0.393900	0.838915
	C171	C	0.867798	0.615765	0.833229
	C172	C	0.178631	0.880085	0.407795
	C173	C	0.174353	0.128157	0.628068
	C174	C	0.809384	0.135121	0.408400
	C175	C	0.813902	0.883066	0.627809
	C176	C	0.381828	0.185703	0.896343
	C177	C	0.604275	0.191778	0.143028
	C178	C	0.383576	0.824992	0.143417
	C179	C	0.603933	0.824405	0.893496
	C180	C	0.384334	0.881816	0.202336
	C181	C	0.604328	0.134574	0.202108
	C182	C	0.382708	0.129044	0.837472
	C183	C	0.603572	0.881429	0.834465
	C184	C	0.869419	0.190621	0.407026
	C185	C	0.117141	0.186539	0.627701
	C186	C	0.119496	0.823943	0.406544
	C187	C	0.871255	0.825027	0.627339
	C188	C	0.171520	0.394334	0.896677
	C189	C	0.177709	0.617279	0.143412
	C190	C	0.808940	0.396737	0.142602
	C191	C	0.809475	0.615924	0.890370
	C192	C	0.396596	0.100013	0.615001
	C193	C	0.591041	0.915793	0.614166
	C194	C	0.588995	0.097683	0.424195
	C195	C	0.399931	0.915272	0.423636
	C196	C	0.587360	0.413467	0.109428
	C197	C	0.588012	0.602501	0.927818
	C198	C	0.398068	0.601754	0.109630
	C199	C	0.393014	0.408522	0.925432
	C200	C	0.083722	0.601878	0.421129
	C201	C	0.902172	0.601762	0.611780
	C202	C	0.086700	0.409327	0.615797
	C203	C	0.903153	0.412190	0.421867
	C204	C	0.899709	0.596541	0.109278
	C205	C	0.087405	0.416575	0.112083
	C206	C	0.088794	0.598600	0.920781
	C207	C	0.894748	0.413800	0.921035
	C208	C	0.091626	0.909185	0.608493
	C209	C	0.091984	0.103244	0.424564
	C210	C	0.899846	0.102452	0.607616
	C211	C	0.899756	0.913257	0.426395
	C212	C	0.585756	0.105120	0.921329
	C213	C	0.403134	0.102949	0.115754
	C214	C	0.584093	0.913701	0.113346
	C215	C	0.403077	0.911755	0.921736
	Zn216	Zn	0.494286	0.007934	0.767660
	Zn217	Zn	0.494659	0.007348	0.269294
	Zn218	Zn	0.742387	0.506294	0.016942
	Zn219	Zn	0.242447	0.507021	0.017624
	Zn220	Zn	-0.005977	0.756831	0.516068
	Zn221	Zn	-0.005003	0.257151	0.516280
	Zn222	Zn	-0.007505	0.505059	0.767477
	Zn223	Zn	-0.006673	0.507122	0.266211
	Zn224	Zn	0.493504	0.757361	0.018679
	Zn225	Zn	0.492781	0.257906	0.018358
	Zn226	Zn	0.744825	0.007748	0.518201
	Zn227	Zn	0.244789	0.006220	0.517716
	N228	N	0.406881	0.972250	0.698413
	N229	N	0.580048	0.044149	0.696731
	N230	N	0.583745	0.971978	0.336794
	N231	N	0.408987	0.043357	0.340051
	N232	N	0.670731	0.420754	0.982523
	N233	N	0.677138	0.597683	0.051520
	N234	N	0.315048	0.591675	0.982068
	N235	N	0.309730	0.417628	0.052511
	N236	N	0.958016	0.687794	0.428520
	N237	N	0.029527	0.685354	0.602698
	N238	N	0.959591	0.325576	0.603983
	N239	N	0.030354	0.328918	0.431106
	N240	N	0.958969	0.417134	0.698083
	N241	N	0.028386	0.592832	0.697440
	N242	N	0.959423	0.597670	0.332707
	N243	N	0.028644	0.419834	0.336047
	N244	N	0.406124	0.687219	0.983420
	N245	N	0.581781	0.688631	0.053875
	N246	N	0.576416	0.329968	0.982097
	N247	N	0.403860	0.325731	0.053230
	N248	N	0.675108	0.971281	0.431327
	N249	N	0.675490	0.042995	0.606068
	N250	N	0.313402	0.971725	0.606138
	N251	N	0.314676	0.041776	0.431346
	N252	N	0.905601	0.471432	0.196868
	N253	N	0.081490	0.542967	0.197901
	N254	N	0.078316	0.469818	0.838886
	N255	N	0.904405	0.540645	0.835674
	N256	N	0.177316	0.916543	0.483031
	N257	N	0.173853	0.092277	0.552678
	N258	N	0.812106	0.097103	0.482905
	N259	N	0.815555	0.920722	0.553097
	N260	N	0.457042	0.185634	0.932815
	N261	N	0.529305	0.189048	0.105879
	N262	N	0.457966	0.827682	0.105518
	N263	N	0.529475	0.826870	0.931138
	N264	N	0.459274	0.919103	0.200393
	N265	N	0.529703	0.096625	0.200698
	N266	N	0.458622	0.094321	0.837846
	N267	N	0.528937	0.918833	0.836074
	N268	N	0.908803	0.186708	0.480589
	N269	N	0.081762	0.186584	0.551931
	N270	N	0.081761	0.826092	0.481024
	N271	N	0.907760	0.827025	0.552273
	N272	N	0.171391	0.470560	0.931843
	N273	N	0.173971	0.542726	0.104905
	N274	N	0.811613	0.471490	0.104631
	N275	N	0.810647	0.541002	0.928040
	O276	O	-0.181546	-0.207349	0.039521
	H277	H	-0.179853	-0.220330	0.024758
	H278	H	-0.186920	-0.216175	0.019412
	O279	O	0.814035	-0.165886	1.196106
	H280	H	0.803977	-0.180032	1.142866
	H281	H	0.866821	-0.178844	1.207104
	O282	O	0.999073	0.832983	0.797370
	H283	H	1.002087	0.807858	0.774108
	H284	H	1.022852	0.836780	0.802508
	O285	O	0.705559	0.550862	0.726932
	H286	H	0.702242	0.578895	0.730867
	H287	H	0.719755	0.563765	0.745819
	O288	O	0.796567	1.015578	-0.189571
	H289	H	0.773103	1.021304	-0.224708
	H290	H	0.809039	1.059195	-0.185144
	O291	O	0.343882	0.558430	0.362411
	H292	H	0.333619	0.553976	0.349026
	H293	H	0.342834	0.575538	0.350959
	O294	O	-0.079567	-0.028371	0.896374
	H295	H	-0.084942	-0.033858	0.879383
	H296	H	-0.078376	-0.054473	0.894907
	O297	O	0.678530	0.350871	0.444752
	H298	H	0.686145	0.367886	0.445033
	H299	H	0.675151	0.358223	0.465208
	O300	O	0.312437	0.313749	0.723528
	H301	H	0.311232	0.323727	0.731349
	H302	H	0.299805	0.291988	0.739013
	O303	O	0.441492	0.639456	0.705913
	H304	H	0.431470	0.626164	0.708456
	H305	H	0.437774	0.642366	0.705507
	O306	O	1.208098	0.969081	0.122112
	H307	H	1.215043	0.985492	0.157262
	H308	H	1.187757	0.974131	0.124665
	O309	O	0.298673	0.426444	0.435110
	H310	H	0.314895	0.440050	0.433129
	H311	H	0.294833	0.423086	0.451897
	O312	O	-0.114835	1.194783	0.815733
	H313	H	-0.117631	1.211740	0.831311
	H314	H	-0.092181	1.189207	0.807970
	O315	O	0.335414	0.709699	0.524290
	H316	H	0.348006	0.712176	0.543110
	H317	H	0.324924	0.712717	0.523962
	O318	O	1.000682	-0.041074	0.017714
	H319	H	0.977356	-0.044600	-0.001510
	H320	H	1.002338	-0.037040	0.036441
	O321	O	0.064867	-0.216072	0.068541
	H322	H	0.062137	-0.216984	0.043135
	H323	H	0.079410	-0.204791	0.052770
	O324	O	1.145863	0.039319	-0.035123
	H325	H	1.154837	0.039995	-0.013238
	H326	H	1.139679	0.043157	-0.021401
	O327	O	0.492712	0.608056	0.720206
	H328	H	0.496605	0.625804	0.733883
	H329	H	0.486390	0.589019	0.709610
	O330	O	0.658231	1.689608	-0.461683
	H331	H	0.659832	1.671877	-0.480491
	H332	H	0.680247	1.701077	-0.458241
	O333	O	0.495825	0.492562	0.486055
	H334	H	0.513081	0.489100	0.484514
	H335	H	0.493792	0.486512	0.509831
	O336	O	-0.065485	0.066975	0.239797
	H337	H	-0.071945	0.062277	0.243794
	H338	H	-0.094397	0.060627	0.234042
	O339	O	-0.068167	1.204859	1.049198
	H340	H	-0.055768	1.207194	1.044518
	H341	H	-0.077686	1.196565	1.036504
	O342	O	-0.120139	0.802182	0.930196
	H343	H	-0.110846	0.805587	0.907605
	H344	H	-0.110108	0.824258	0.932357
	O345	O	0.371629	0.422049	-0.424663
	H346	H	0.363898	0.423846	-0.411679
	H347	H	0.370795	0.413096	-0.418738
	O348	O	0.563109	0.421160	0.607528
	H349	H	0.554843	0.423324	0.614077
	H350	H	0.567902	0.425319	0.607727
	O351	O	0.422959	1.301515	0.504057
	H352	H	0.421976	1.296965	0.492300
	H353	H	0.400345	1.300005	0.499456
	O354	O	0.137913	0.803784	-0.179201
	H355	H	0.157423	0.816575	-0.184911
	H356	H	0.150856	0.807558	-0.156127
	O357	O	-0.024545	-0.206120	1.228158
	H358	H	-0.026641	-0.250727	1.256887
	H359	H	-0.000193	-0.218775	1.181037
	O360	O	0.585804	0.389716	0.619115
	H361	H	0.592392	0.382470	0.612582
	H362	H	0.591627	0.406168	0.607171
	O363	O	-0.309676	0.291256	0.713481
	H364	H	-0.313094	0.296519	0.727906
	H365	H	-0.293355	0.291921	0.718572
	O366	O	0.204787	0.154350	1.053407
	H367	H	0.225256	0.183399	1.060451
	H368	H	0.198014	0.145927	1.097474
	O369	O	0.575675	0.583181	0.485580
	H370	H	0.561628	0.574067	0.487179
	H371	H	0.585934	0.575771	0.485675
	O372	O	0.773537	-0.010898	1.239667
	H373	H	0.735224	-0.016983	1.278947
	H374	H	0.787610	-0.064449	1.225494
	O375	O	0.539934	0.552283	0.301723
	H376	H	0.523198	0.575737	0.293982
	H377	H	0.541167	0.546430	0.312267
	O378	O	0.369870	0.369964	0.603878
	H379	H	0.387974	0.382950	0.621832
	H380	H	0.350904	0.360643	0.608122
	O381	O	0.890688	-0.021608	-0.121446
	H382	H	0.886035	-0.011037	-0.148179
	H383	H	0.894472	-0.015026	-0.099434
	O384	O	0.413991	0.691941	0.380398
	H385	H	0.409657	0.650776	0.379500
	H386	H	0.414026	0.696954	0.422524
	O387	O	0.337662	-0.460904	0.595077
	H388	H	0.334139	-0.452016	0.596166
	H389	H	0.347554	-0.450330	0.589160
	O390	O	-0.304592	-0.299914	-0.272833
	H391	H	-0.326329	-0.288709	-0.261092
	H392	H	-0.310288	-0.283995	-0.301258
	O393	O	0.988029	1.218368	1.186602
	H394	H	0.986654	1.236372	1.211072
	H395	H	0.981938	1.215393	1.166799
	O396	O	1.528393	0.613878	0.568364
	H397	H	1.522934	0.603762	0.576675
	H398	H	1.535900	0.607878	0.569453
	O399	O	1.197706	0.078453	1.211573
	H400	H	1.195522	0.100252	1.238095
	H401	H	1.170903	0.055188	1.223282
	O402	O	1.202368	0.917255	0.801975
	H403	H	1.211201	0.922115	0.796062
	H404	H	1.210168	0.940060	0.807591
	O405	O	1.132817	1.204581	0.219730
	H406	H	1.137174	1.187041	0.239246
	H407	H	1.097261	1.221193	0.241746
	O408	O	1.051258	-0.047321	0.232790
	H409	H	1.037576	-0.081207	0.220959
	H410	H	1.021391	-0.040188	0.237211
	O411	O	1.066512	1.208404	0.005670
	H412	H	1.064193	1.198451	0.014248
	H413	H	1.083112	1.211266	0.008318
	O414	O	0.623048	0.608204	0.417583
	H415	H	0.623624	0.621110	0.413846
	H416	H	0.617025	0.610213	0.386891
	O417	O	0.452725	0.498171	0.511417
	H418	H	0.466903	0.486825	0.503516
	H419	H	0.435471	0.502171	0.507773
	O420	O	0.476975	0.563952	0.605191
	H421	H	0.477698	0.537808	0.598358
	H422	H	0.473919	0.559920	0.617631
	O423	O	0.525717	0.348552	0.556861
	H424	H	0.538148	0.352726	0.575716
	H425	H	0.533619	0.331578	0.557834
	O426	O	0.475118	0.723592	0.300681
	H427	H	0.474871	0.750607	0.294922
	H428	H	0.449841	0.731299	0.296755
	O429	O	0.404508	0.471641	0.321491
	H430	H	0.399492	0.454328	0.320331
	H431	H	0.426343	0.463464	0.315354
	O432	O	0.518259	0.294078	0.301951
	H433	H	0.520657	0.261803	0.276586
	H434	H	0.563576	0.298233	0.310771
	O435	O	0.171991	1.155249	-0.148394
	H436	H	0.153480	1.154432	-0.131449
	H437	H	0.166402	1.135845	-0.124222
	O438	O	0.000933	0.105433	-0.149321
	H439	H	-0.014272	0.084382	-0.144215
	H440	H	0.001557	0.115260	-0.151119
	O441	O	0.776818	0.063007	0.080107
	H442	H	0.768519	0.043200	0.128419
	H443	H	0.788067	0.047159	0.058554
	O444	O	-0.013633	1.002261	1.023689
	H445	H	-0.017367	1.011569	1.022860
	H446	H	-0.031238	1.014115	1.013806
	O447	O	0.695260	0.415231	0.322745
	H448	H	0.711157	0.409879	0.315937
	H449	H	0.686708	0.451317	0.323472
	O450	O	0.792823	0.187258	-0.036852
	H451	H	0.787010	0.183883	-0.015802
	H452	H	0.789934	0.186778	-0.025229
	O453	O	0.200017	-0.203731	0.974931
	H454	H	0.219030	-0.207082	0.974295
	H455	H	0.210944	-0.187230	0.993438
