data_Molecule from HDF5

_cell_length_a		16.586359
_cell_length_b		16.562487
_cell_length_c		16.592842
_cell_angle_alpha	89.991269
_cell_angle_beta	89.975689
_cell_angle_gamma	90.011686
_symmetry_space_group_name_H-M	'P 1'
_symmetry_Int_Tables_number		1

loop_
	_symmetry_equiv_pos_as_xyz
	x,y,z

loop_
	_atom_site_label
	_atom_site_type_symbol
	_atom_site_fract_x
	_atom_site_fract_y
	_atom_site_fract_z
	H0	H	0.416937	0.844581	0.732576
	H1	H	0.622239	0.158389	0.730238
	H2	H	0.624218	0.844492	0.290849
	H3	H	0.415092	0.157845	0.290242
	H4	H	0.742329	0.395491	0.855365
	H5	H	0.739501	0.604773	0.168796
	H6	H	0.297004	0.607128	0.856982
	H7	H	0.296109	0.394188	0.166180
	H8	H	0.863820	0.722764	0.407834
	H9	H	0.175985	0.723398	0.618709
	H10	H	0.864043	0.280542	0.615729
	H11	H	0.177616	0.281114	0.408158
	H12	H	0.864114	0.396425	0.732815
	H13	H	0.174196	0.608540	0.735554
	H14	H	0.863792	0.605709	0.292004
	H15	H	0.175545	0.394643	0.289507
	H16	H	0.414190	0.723577	0.856369
	H17	H	0.626795	0.724131	0.167091
	H18	H	0.624196	0.280891	0.854295
	H19	H	0.415115	0.279986	0.167058
	H20	H	0.741869	0.845229	0.406109
	H21	H	0.738748	0.159200	0.614854
	H22	H	0.301096	0.843531	0.614678
	H23	H	0.299428	0.157833	0.405846
	H24	H	0.913637	0.345038	0.234116
	H25	H	0.126377	0.656301	0.235248
	H26	H	0.127393	0.346661	0.789048
	H27	H	0.909648	0.655307	0.786942
	H28	H	0.242022	0.895637	0.355954
	H29	H	0.241388	0.105715	0.668161
	H30	H	0.800071	0.106097	0.354735
	H31	H	0.798050	0.896125	0.667734
	H32	H	0.363498	0.222326	0.906781
	H33	H	0.677592	0.220204	0.113292
	H34	H	0.365202	0.776805	0.120210
	H35	H	0.676463	0.780107	0.906513
	H36	H	0.365694	0.892297	0.236871
	H37	H	0.676988	0.106285	0.231544
	H38	H	0.363656	0.105636	0.790408
	H39	H	0.676597	0.896706	0.790387
	H40	H	0.917906	0.221569	0.354739
	H41	H	0.124954	0.222017	0.668618
	H42	H	0.125106	0.779212	0.356187
	H43	H	0.913828	0.780048	0.667718
	H44	H	0.242153	0.346103	0.905118
	H45	H	0.244318	0.655998	0.120646
	H46	H	0.797721	0.345082	0.116756
	H47	H	0.797803	0.657745	0.906600
	H48	H	0.431300	0.111325	0.596918
	H49	H	0.612613	0.889383	0.594257
	H50	H	0.615322	0.115822	0.418781
	H51	H	0.434700	0.892625	0.427566
	H52	H	0.610656	0.411311	0.123535
	H53	H	0.611045	0.597360	0.896934
	H54	H	0.428908	0.586159	0.123530
	H55	H	0.432055	0.415022	0.900357
	H56	H	0.133587	0.591937	0.419609
	H57	H	0.909981	0.591624	0.593398
	H58	H	0.135005	0.411603	0.608917
	H59	H	0.907630	0.410904	0.421774
	H60	H	0.132652	0.406564	0.595782
	H61	H	0.909983	0.583227	0.601335
	H62	H	0.131109	0.592513	0.427368
	H63	H	0.909074	0.409903	0.425345
	H64	H	0.436061	0.586164	0.120757
	H65	H	0.614777	0.583425	0.900681
	H66	H	0.608981	0.412235	0.122663
	H67	H	0.432528	0.410575	0.899256
	H68	H	0.605729	0.113289	0.418033
	H69	H	0.613762	0.885848	0.605998
	H70	H	0.424772	0.115384	0.601470
	H71	H	0.426992	0.888375	0.423846
	H72	H	0.932880	0.612762	0.103796
	H73	H	0.111585	0.388422	0.101956
	H74	H	0.102625	0.612626	0.921200
	H75	H	0.932645	0.389208	0.919821
	H76	H	0.113529	0.912378	0.624973
	H77	H	0.106103	0.094081	0.399900
	H78	H	0.924474	0.096316	0.627148
	H79	H	0.933166	0.914194	0.401105
	H80	H	0.631047	0.091942	0.924171
	H81	H	0.408427	0.092260	0.098502
	H82	H	0.631915	0.907237	0.093197
	H83	H	0.407726	0.911537	0.922608
	H84	H	0.627388	0.921202	0.097007
	H85	H	0.409032	0.086640	0.101620
	H86	H	0.631979	0.088457	0.919501
	H87	H	0.409258	0.913622	0.925176
	H88	H	0.927280	0.083149	0.621995
	H89	H	0.113429	0.091559	0.398582
	H90	H	0.107884	0.915744	0.622036
	H91	H	0.932136	0.911016	0.400195
	H92	H	0.105702	0.610690	0.929333
	H93	H	0.103097	0.390633	0.103190
	H94	H	0.930125	0.611873	0.098874
	H95	H	0.934814	0.391830	0.927332
	H96	H	0.433319	0.114537	0.605596
	H97	H	0.603468	0.890236	0.601553
	H98	H	0.610676	0.111896	0.426408
	H99	H	0.435070	0.888761	0.418935
	H100	H	0.609070	0.410085	0.123396
	H101	H	0.601072	0.588912	0.903528
	H102	H	0.433078	0.592170	0.123738
	H103	H	0.427862	0.412705	0.898434
	H104	H	0.131018	0.585075	0.423452
	H105	H	0.906084	0.593259	0.603785
	H106	H	0.128588	0.420194	0.599497
	H107	H	0.909443	0.413765	0.423463
	H108	H	0.927844	0.614438	0.103567
	H109	H	0.107081	0.391667	0.095564
	H110	H	0.111680	0.614879	0.923744
	H111	H	0.927370	0.388564	0.926123
	H112	H	0.106765	0.909186	0.624331
	H113	H	0.108465	0.086633	0.402314
	H114	H	0.937456	0.092745	0.622542
	H115	H	0.930123	0.913957	0.400009
	H116	H	0.633816	0.093943	0.919109
	H117	H	0.406035	0.091727	0.104332
	H118	H	0.633555	0.912069	0.107204
	H119	H	0.408917	0.914611	0.922348
	C120	C	0.398484	0.009441	0.633052
	C121	C	0.641044	0.992691	0.632133
	C122	C	0.642203	0.010045	0.389481
	C123	C	0.399482	0.992977	0.390229
	C124	C	0.641832	0.379489	0.019631
	C125	C	0.641647	0.622751	1.003113
	C126	C	0.399262	0.621902	0.020435
	C127	C	0.398170	0.379936	1.002461
	C128	C	0.028560	0.622177	0.391625
	C129	C	1.011244	0.622441	0.633249
	C130	C	0.028722	0.379637	0.633745
	C131	C	1.012171	0.379561	0.391299
	C132	C	0.897572	0.509862	0.134448
	C133	C	0.140933	0.492935	0.133634
	C134	C	0.140064	0.510056	0.891405
	C135	C	0.898613	0.492689	0.890981
	C136	C	0.141767	0.879627	0.520745
	C137	C	0.141617	0.122361	0.503526
	C138	C	0.898690	0.122939	0.520226
	C139	C	0.898968	0.880459	0.503393
	C140	C	0.528530	0.123138	0.889311
	C141	C	0.511599	0.122118	0.132699
	C142	C	0.528393	0.879840	0.132798
	C143	C	0.511890	0.880630	0.890800
	C144	C	0.397690	0.891394	0.692553
	C145	C	0.641409	0.111433	0.690525
	C146	C	0.643566	0.891537	0.330543
	C147	C	0.396993	0.110424	0.330067
	C148	C	0.701837	0.377562	0.902091
	C149	C	0.700762	0.624362	0.121331
	C150	C	0.337772	0.625244	0.903420
	C151	C	0.337436	0.376679	0.119744
	C152	C	0.910911	0.682560	0.389262
	C153	C	0.128649	0.683177	0.636360
	C154	C	0.911036	0.320136	0.634896
	C155	C	0.130267	0.320446	0.389439
	C156	C	0.910859	0.377893	0.692852
	C157	C	0.128019	0.625839	0.694514
	C158	C	0.910630	0.624215	0.331839
	C159	C	0.129341	0.377263	0.330789
	C160	C	0.396117	0.682775	0.903081
	C161	C	0.644218	0.683385	0.120344
	C162	C	0.643192	0.320488	0.901457
	C163	C	0.396252	0.319820	0.120154
	C164	C	0.701800	0.891986	0.387875
	C165	C	0.699347	0.111581	0.633123
	C166	C	0.340372	0.890823	0.634017
	C167	C	0.339547	0.110628	0.387985
	C168	C	0.895365	0.391877	0.193989
	C169	C	0.144309	0.609801	0.194779
	C170	C	0.144211	0.393306	0.830008
	C171	C	0.893292	0.609008	0.828254
	C172	C	0.201749	0.877175	0.402915
	C173	C	0.201203	0.123805	0.621492
	C174	C	0.839787	0.124838	0.401831
	C175	C	0.838162	0.877914	0.620646
	C176	C	0.410367	0.182186	0.888067
	C177	C	0.630064	0.180997	0.133081
	C178	C	0.411777	0.817623	0.137487
	C179	C	0.629427	0.819987	0.888031
	C180	C	0.412000	0.875367	0.195392
	C181	C	0.629781	0.124220	0.191782
	C182	C	0.410546	0.124439	0.830232
	C183	C	0.629649	0.878194	0.830434
	C184	C	0.898201	0.182170	0.401959
	C185	C	0.143479	0.181703	0.621744
	C186	C	0.143871	0.819170	0.403097
	C187	C	0.895963	0.820070	0.620770
	C188	C	0.201953	0.393218	0.887396
	C189	C	0.202881	0.609539	0.137743
	C190	C	0.837581	0.392154	0.136022
	C191	C	0.837526	0.610376	0.887649
	C192	C	0.422792	0.092292	0.608363
	C193	C	0.616818	0.910015	0.607706
	C194	C	0.617417	0.092016	0.413881
	C195	C	0.424931	0.910939	0.416182
	C196	C	0.616632	0.404144	0.101885
	C197	C	0.616280	0.597052	0.921491
	C198	C	0.425220	0.595712	0.101543
	C199	C	0.423498	0.405515	0.920556
	C200	C	0.110502	0.597006	0.416420
	C201	C	0.929853	0.596563	0.607253
	C202	C	0.110932	0.405495	0.608589
	C203	C	0.929964	0.404383	0.416475
	C204	C	0.922933	0.591912	0.109415
	C205	C	0.114824	0.411370	0.107545
	C206	C	0.114071	0.591447	0.917417
	C207	C	0.924325	0.411271	0.917085
	C208	C	0.116597	0.905052	0.602420
	C209	C	0.116421	0.097611	0.421714
	C210	C	0.922878	0.097952	0.602328
	C211	C	0.924675	0.905725	0.421594
	C212	C	0.610828	0.098533	0.914000
	C213	C	0.429246	0.097346	0.108498
	C214	C	0.609662	0.906082	0.106566
	C215	C	0.429993	0.905967	0.916267
	Zn216	Zn	0.520413	0.001259	0.761024
	Zn217	Zn	0.520622	0.000918	0.261385
	Zn218	Zn	0.770147	0.501155	0.011641
	Zn219	Zn	0.269425	0.501515	0.012105
	Zn220	Zn	0.019858	0.751021	0.512715
	Zn221	Zn	0.021000	0.250928	0.512374
	Zn222	Zn	0.019436	0.501400	0.762442
	Zn223	Zn	0.020046	0.500738	0.262503
	Zn224	Zn	0.519982	0.751256	0.011759
	Zn225	Zn	0.519948	0.251361	0.011028
	Zn226	Zn	0.769899	0.001464	0.511586
	Zn227	Zn	0.270430	0.001185	0.511579
	N228	N	0.432882	0.966349	0.692138
	N229	N	0.606047	0.036402	0.690233
	N230	N	0.607526	0.965963	0.331236
	N231	N	0.433655	0.036170	0.331395
	N232	N	0.701030	0.413618	0.976644
	N233	N	0.699315	0.587180	0.047385
	N234	N	0.339532	0.588071	0.977385
	N235	N	0.338361	0.413120	0.045418
	N236	N	0.985292	0.681657	0.425312
	N237	N	0.054888	0.681195	0.598890
	N238	N	0.985562	0.321163	0.598943
	N239	N	0.056263	0.321855	0.426397
	N240	N	0.985334	0.414018	0.692274
	N241	N	0.053919	0.588997	0.692894
	N242	N	0.984956	0.587509	0.332879
	N243	N	0.054732	0.413207	0.331657
	N244	N	0.433525	0.680726	0.976776
	N245	N	0.608311	0.682578	0.045828
	N246	N	0.606574	0.321444	0.975723
	N247	N	0.433227	0.321561	0.046098
	N248	N	0.701429	0.966624	0.423623
	N249	N	0.699280	0.036750	0.597638
	N250	N	0.340701	0.965402	0.598007
	N251	N	0.340911	0.036187	0.424819
	N252	N	0.931893	0.466336	0.193324
	N253	N	0.106664	0.536183	0.192437
	N254	N	0.106450	0.466989	0.832229
	N255	N	0.930282	0.534867	0.830101
	N256	N	0.200606	0.913961	0.477080
	N257	N	0.200413	0.087802	0.546934
	N258	N	0.839680	0.088827	0.476399
	N259	N	0.839536	0.914481	0.546275
	N260	N	0.484854	0.181620	0.924048
	N261	N	0.555350	0.180317	0.097288
	N262	N	0.485200	0.820158	0.099273
	N263	N	0.555091	0.821245	0.924691
	N264	N	0.485625	0.913254	0.192691
	N265	N	0.555161	0.088429	0.191699
	N266	N	0.485093	0.088488	0.830887
	N267	N	0.555555	0.915052	0.831920
	N268	N	0.933826	0.181344	0.476650
	N269	N	0.107134	0.181023	0.547548
	N270	N	0.107427	0.820371	0.477386
	N271	N	0.933067	0.821542	0.546885
	N272	N	0.199790	0.467029	0.924844
	N273	N	0.200884	0.535673	0.100418
	N274	N	0.838879	0.466607	0.099823
	N275	N	0.840400	0.537018	0.926026
	O276	O	-0.033246	0.879642	-0.127012
	H277	H	-0.013444	0.887970	-0.127788
	H278	H	-0.024766	0.877005	-0.111095
	O279	O	0.236733	0.913630	0.085044
	H280	H	0.237114	0.931470	0.063628
	H281	H	0.238991	0.897104	0.071032
	O282	O	1.299112	0.492915	0.345665
	H283	H	1.284716	0.496228	0.324059
	H284	H	1.315849	0.507395	0.347439
	O285	O	0.722324	0.454017	0.458510
	H286	H	0.722958	0.449336	0.457602
	H287	H	0.734065	0.457383	0.433142
	O288	O	-0.183540	1.155320	0.042050
	H289	H	-0.184056	1.153457	0.044041
	H290	H	-0.164774	1.150584	0.037433
	O291	O	0.234256	0.208761	0.802388
	H292	H	0.223790	0.201820	0.804141
	H293	H	0.245883	0.228027	0.778181
	O294	O	1.451565	-0.555386	0.339893
	H295	H	1.464729	-0.566935	0.337305
	H296	H	1.450690	-0.556019	0.342982
	O297	O	0.732736	0.418652	0.334593
	H298	H	0.725910	0.422483	0.340088
	H299	H	0.742867	0.421756	0.319354
	O300	O	-0.187778	0.211815	0.805157
	H301	H	-0.199344	0.192535	0.801976
	H302	H	-0.205444	0.209676	0.802773
	O303	O	0.472475	-0.700295	0.650918
	H304	H	0.463206	-0.695225	0.648564
	H305	H	0.476004	-0.698584	0.660216
	O306	O	0.518464	0.399181	0.714188
	H307	H	0.536583	0.409273	0.704954
	H308	H	0.538400	0.388147	0.717591
	O309	O	0.408973	0.517819	0.631988
	H310	H	0.407141	0.510677	0.633057
	H311	H	0.423595	0.520615	0.638867
	O312	O	0.527106	0.463872	0.690568
	H313	H	0.544350	0.470495	0.685934
	H314	H	0.538848	0.464636	0.678897
	O315	O	1.304311	0.716127	1.472872
	H316	H	1.294257	0.711537	1.489210
	H317	H	1.294047	0.722296	1.488942
	O318	O	0.623674	0.311917	0.355195
	H319	H	0.641664	0.308743	0.331082
	H320	H	0.612199	0.337900	0.347088
	O321	O	-0.055559	0.902396	1.062447
	H322	H	-0.036466	0.903334	1.072795
	H323	H	-0.060603	0.908104	1.080456
	O324	O	1.241566	1.040768	0.003002
	H325	H	1.235114	1.041665	-0.016267
	H326	H	1.242868	1.065524	0.001400
	O327	O	0.074767	-0.041498	1.234892
	H328	H	0.087224	-0.056023	1.241783
	H329	H	0.079203	-0.039761	1.229464
	O330	O	0.701818	-0.316644	0.324644
	H331	H	0.688942	-0.320283	0.325750
	H332	H	0.675471	-0.333845	0.331044
	O333	O	0.690907	0.553268	0.405431
	H334	H	0.687264	0.548585	0.402486
	H335	H	0.689395	0.575947	0.408976
	O336	O	0.365878	0.543913	0.606783
	H337	H	0.367704	0.531254	0.599132
	H338	H	0.356494	0.538070	0.614913
	O339	O	0.808712	-0.211855	1.049111
	H340	H	0.824947	-0.194120	1.023562
	H341	H	0.779074	-0.228731	1.037538
	O342	O	-0.683774	-0.293873	0.305877
	H343	H	-0.694109	-0.287370	0.349440
	H344	H	-0.692226	-0.299171	0.294678
	O345	O	0.738459	1.710580	0.536372
	H346	H	0.730526	1.722964	0.540958
	H347	H	0.741682	1.737585	0.532622
	O348	O	-0.465238	0.439316	0.701596
	H349	H	-0.463575	0.445740	0.703595
	H350	H	-0.465397	0.448214	0.688829
	O351	O	0.699194	0.370451	0.661324
	H352	H	0.700615	0.379873	0.662426
	H353	H	0.684980	0.378269	0.650367
	O354	O	-0.192203	0.041219	0.800736
	H355	H	-0.170270	0.027566	0.811370
	H356	H	-0.209445	0.037171	0.778899
	O357	O	0.554052	0.279164	0.288023
	H358	H	0.564258	0.275769	0.287533
	H359	H	0.561579	0.263744	0.268409
	O360	O	0.007323	0.098917	1.018961
	H361	H	0.001926	0.100407	1.020031
	H362	H	0.008919	0.096956	1.016008
	O363	O	-0.065964	0.145576	0.189179
	H364	H	-0.053041	0.140720	0.175116
	H365	H	-0.054900	0.136533	0.203237
	O366	O	0.523455	0.513980	0.295227
	H367	H	0.511541	0.524120	0.305855
	H368	H	0.523345	0.516972	0.298777
	O369	O	1.239152	0.220371	0.043597
	H370	H	1.233998	0.241083	0.034347
	H371	H	1.235701	0.236614	0.037701
	O372	O	1.107010	0.959798	-0.032379
	H373	H	1.109396	0.983270	-0.026414
	H374	H	1.102779	0.955529	-0.032389
	O375	O	1.222702	0.205856	0.217276
	H376	H	1.213151	0.167513	0.221093
	H377	H	1.219831	0.203955	0.177827
	O378	O	-0.104501	-0.209177	0.882407
	H379	H	-0.087338	-0.209308	0.904006
	H380	H	-0.099102	-0.192941	0.884981
	O381	O	0.298745	0.544264	0.549060
	H382	H	0.299377	0.521982	0.565364
	H383	H	0.296322	0.524914	0.538547
	O384	O	0.490926	0.699304	0.304653
	H385	H	0.468726	0.694357	0.296831
	H386	H	0.475072	0.705262	0.302592
	O387	O	0.799269	0.943368	-0.026757
	H388	H	0.806533	0.965644	-0.019736
	H389	H	0.797685	0.949749	-0.025338
	O390	O	0.339952	0.680224	0.689785
	H391	H	0.347366	0.654520	0.674820
	H392	H	0.360915	0.659267	0.682355
	O393	O	0.216487	1.038598	0.201855
	H394	H	0.223490	1.024752	0.200562
	H395	H	0.231326	1.030796	0.199648
	O396	O	0.161278	1.009467	0.814878
	H397	H	0.180899	1.014116	0.796966
	H398	H	0.150528	1.012072	0.801418
	O399	O	0.352688	0.338346	1.686067
	H400	H	0.391480	0.326346	1.689635
	H401	H	0.351492	0.357459	1.663170
	O402	O	0.133016	-0.055915	0.798618
	H403	H	0.147369	-0.057865	0.800676
	H404	H	0.141983	-0.046552	0.809047
	O405	O	0.929269	-0.054945	1.098681
	H406	H	0.929860	-0.052929	1.088245
	H407	H	0.929387	-0.062543	1.100672
	O408	O	-0.202983	-0.031673	0.234938
	H409	H	-0.182723	-0.076464	0.225471
	H410	H	-0.239482	-0.040078	0.272883
	O411	O	0.038711	0.779692	-0.205421
	H412	H	0.060200	0.779415	-0.192355
	H413	H	0.052678	0.752184	-0.226258
	O414	O	0.530058	0.557381	-0.545993
	H415	H	0.536294	0.548732	-0.539528
	H416	H	0.527078	0.557749	-0.547863
	O417	O	0.601610	0.357426	0.611451
	H418	H	0.620799	0.363177	0.606498
	H419	H	0.589594	0.356201	0.605432
	O420	O	0.742536	0.283064	0.480571
	H421	H	0.754761	0.271557	0.452624
	H422	H	0.754082	0.271998	0.463227
	O423	O	-0.009488	-0.219464	1.230657
	H424	H	-0.019117	-0.240560	1.257905
	H425	H	-0.021295	-0.209387	1.226602
	O426	O	0.990695	0.226692	-0.207171
	H427	H	0.952110	0.215004	-0.200954
	H428	H	0.976994	0.257622	-0.236813
	O429	O	1.016080	0.772767	1.009336
	H430	H	1.026755	0.781722	0.999115
	H431	H	1.028193	0.767519	1.020523
	O432	O	0.823808	-0.199396	0.214708
	H433	H	0.823185	-0.217645	0.231111
	H434	H	0.815058	-0.207288	0.161274
	O435	O	0.243440	0.778983	-0.014568
	H436	H	0.239468	0.786051	-0.028363
	H437	H	0.269459	0.754467	-0.028562
	O438	O	0.026931	-0.005929	-0.211290
	H439	H	0.024485	-0.011540	-0.211599
	H440	H	0.027825	0.007807	-0.214828
	O441	O	-0.019578	0.222605	0.089810
	H442	H	-0.031167	0.225280	0.099291
	H443	H	-0.014871	0.217475	0.088532
	O444	O	0.425207	0.295648	0.478964
	H445	H	0.428420	0.283944	0.465457
	H446	H	0.421397	0.299408	0.465691
	O447	O	0.100914	1.217840	0.957160
	H448	H	0.077273	1.213222	0.957174
	H449	H	0.092717	1.216123	0.941610
	O450	O	-0.181377	1.203545	1.072577
	H451	H	-0.187092	1.200071	1.058591
	H452	H	-0.170006	1.188097	1.067067
	O453	O	0.719413	0.703732	0.715599
	H454	H	0.746163	0.727363	0.727067
	H455	H	0.724054	0.670361	0.705622
	O456	O	-0.770322	0.793964	0.804029
	H457	H	-0.749174	0.790556	0.793201
	H458	H	-0.768551	0.813970	0.789015
	O459	O	0.570157	0.697196	0.467463
	H460	H	0.550129	0.696822	0.478221
	H461	H	0.553218	0.693705	0.454361
	O462	O	0.515984	0.479232	0.484871
	H463	H	0.517590	0.488429	0.473237
	H464	H	0.504827	0.466642	0.472953
	O465	O	0.901060	0.047873	0.178485
	H466	H	0.897465	0.013124	0.187763
	H467	H	0.916156	0.042492	0.186804
	O468	O	0.310959	0.381718	0.486462
	H469	H	0.309385	0.367493	0.498054
	H470	H	0.322425	0.378487	0.463922
	O471	O	0.730212	0.529365	0.720958
	H472	H	0.741853	0.531275	0.717489
	H473	H	0.739017	0.520605	0.716936
	O474	O	0.419188	0.377104	0.332846
	H475	H	0.425754	0.395751	0.335497
	H476	H	0.393089	0.351817	0.317990
	O477	O	0.458585	0.723264	1.564278
	H478	H	0.455292	0.716723	1.570200
	H479	H	0.458422	0.729279	1.580011
	O480	O	-0.010023	1.092087	-0.104761
	H481	H	-0.019374	1.077441	-0.109021
	H482	H	-0.006085	1.103397	-0.105163
	O483	O	0.539618	0.695067	0.721177
	H484	H	0.564503	0.692009	0.730901
	H485	H	0.559176	0.710075	0.733620
	O486	O	0.205414	0.858026	0.206192
	H487	H	0.201965	0.861095	0.178013
	H488	H	0.209947	0.870785	0.201704
	O489	O	1.040646	1.174918	0.202737
	H490	H	1.056538	1.172957	0.210908
	H491	H	1.042876	1.184279	0.221987
