data_Molecule from HDF5

_cell_length_a		16.545000
_cell_length_b		16.314587
_cell_length_c		16.295435
_cell_angle_alpha	90.073005
_cell_angle_beta	90.027586
_cell_angle_gamma	90.064338
_symmetry_space_group_name_H-M	'P 1'
_symmetry_Int_Tables_number		1

loop_
	_symmetry_equiv_pos_as_xyz
	x,y,z

loop_
	_atom_site_label
	_atom_site_type_symbol
	_atom_site_fract_x
	_atom_site_fract_y
	_atom_site_fract_z
	H0	H	0.396347	0.838529	0.714234
	H1	H	0.601097	0.159585	0.714188
	H2	H	0.604783	0.838913	0.274723
	H3	H	0.399956	0.161172	0.280653
	H4	H	0.723286	0.387574	0.838009
	H5	H	0.722720	0.605303	0.154281
	H6	H	0.277978	0.602213	0.835973
	H7	H	0.277816	0.391450	0.155410
	H8	H	0.840730	0.719036	0.391848
	H9	H	0.158280	0.717972	0.600266
	H10	H	0.840152	0.276857	0.598431
	H11	H	0.155656	0.273890	0.388267
	H12	H	0.841072	0.390901	0.717208
	H13	H	0.157702	0.601314	0.717017
	H14	H	0.839800	0.601086	0.275531
	H15	H	0.156330	0.392208	0.273519
	H16	H	0.395383	0.717588	0.836187
	H17	H	0.604526	0.718215	0.156038
	H18	H	0.601908	0.279788	0.834764
	H19	H	0.397126	0.280194	0.157028
	H20	H	0.722987	0.839505	0.387574
	H21	H	0.720558	0.157404	0.602588
	H22	H	0.277368	0.840158	0.603444
	H23	H	0.279132	0.157696	0.390346
	H24	H	0.895896	0.336291	0.213679
	H25	H	0.100302	0.658015	0.212311
	H26	H	0.101153	0.334709	0.775845
	H27	H	0.900121	0.658273	0.779711
	H28	H	0.220072	0.894277	0.336914
	H29	H	0.219835	0.104179	0.656820
	H30	H	0.778285	0.103236	0.337631
	H31	H	0.778593	0.891292	0.656461
	H32	H	0.341498	0.220376	0.890174
	H33	H	0.659424	0.217800	0.097668
	H34	H	0.340950	0.777618	0.099844
	H35	H	0.656576	0.775113	0.890254
	H36	H	0.340910	0.896336	0.216293
	H37	H	0.658684	0.103310	0.216622
	H38	H	0.339635	0.101732	0.775695
	H39	H	0.656435	0.891867	0.773245
	H40	H	0.895902	0.215541	0.335771
	H41	H	0.101224	0.216583	0.657943
	H42	H	0.102015	0.779924	0.335555
	H43	H	0.900433	0.782024	0.658865
	H44	H	0.221410	0.336705	0.887169
	H45	H	0.218313	0.655924	0.098567
	H46	H	0.777621	0.338216	0.102322
	H47	H	0.779052	0.656369	0.890454
	H48	H	0.408967	0.113120	0.582089
	H49	H	0.590502	0.880128	0.594216
	H50	H	0.593491	0.113746	0.407254
	H51	H	0.413135	0.886934	0.411704
	H52	H	0.591481	0.407720	0.111731
	H53	H	0.591052	0.586094	0.880800
	H54	H	0.411654	0.583628	0.108541
	H55	H	0.404410	0.409493	0.879997
	H56	H	0.112800	0.589793	0.402333
	H57	H	0.885201	0.593449	0.585056
	H58	H	0.109429	0.407531	0.579979
	H59	H	0.887083	0.408072	0.406985
	H60	H	0.110190	0.411646	0.586778
	H61	H	0.888059	0.585876	0.584617
	H62	H	0.110827	0.590122	0.407041
	H63	H	0.885396	0.407777	0.404135
	H64	H	0.408377	0.590830	0.111702
	H65	H	0.588558	0.581826	0.883504
	H66	H	0.590907	0.413503	0.109131
	H67	H	0.410260	0.412296	0.882633
	H68	H	0.586478	0.111418	0.406644
	H69	H	0.579976	0.888013	0.581720
	H70	H	0.406090	0.115210	0.586570
	H71	H	0.405048	0.883931	0.409641
	H72	H	0.906759	0.613178	0.086179
	H73	H	0.090747	0.380882	0.083140
	H74	H	0.086651	0.611760	0.900605
	H75	H	0.906243	0.378494	0.899628
	H76	H	0.086459	0.903340	0.612321
	H77	H	0.084579	0.086887	0.383509
	H78	H	0.904733	0.088638	0.614290
	H79	H	0.914939	0.901511	0.381392
	H80	H	0.612881	0.085201	0.897845
	H81	H	0.388347	0.093697	0.079093
	H82	H	0.610704	0.912300	0.084582
	H83	H	0.385804	0.901416	0.910233
	H84	H	0.613361	0.907974	0.089743
	H85	H	0.388820	0.080961	0.090200
	H86	H	0.613468	0.096345	0.906917
	H87	H	0.390746	0.915171	0.910674
	H88	H	0.910224	0.081245	0.609541
	H89	H	0.093475	0.089169	0.380223
	H90	H	0.097166	0.909555	0.613960
	H91	H	0.900862	0.908540	0.379191
	H92	H	0.084328	0.606102	0.912290
	H93	H	0.088786	0.381026	0.087382
	H94	H	0.912299	0.610968	0.085869
	H95	H	0.917168	0.385225	0.907735
	H96	H	0.411942	0.113163	0.587510
	H97	H	0.596940	0.884040	0.578124
	H98	H	0.589962	0.110265	0.413038
	H99	H	0.412054	0.883331	0.404045
	H100	H	0.585545	0.409806	0.109664
	H101	H	0.586086	0.586524	0.883323
	H102	H	0.404004	0.583711	0.111106
	H103	H	0.409929	0.405574	0.879959
	H104	H	0.110620	0.585554	0.404182
	H105	H	0.885400	0.588845	0.592013
	H106	H	0.113441	0.404344	0.586325
	H107	H	0.885589	0.404838	0.406656
	H108	H	0.908542	0.610262	0.081319
	H109	H	0.086640	0.382703	0.083105
	H110	H	0.096374	0.610958	0.909596
	H111	H	0.904439	0.383245	0.914270
	H112	H	0.087760	0.915091	0.608156
	H113	H	0.092131	0.080298	0.383212
	H114	H	0.914235	0.090480	0.611668
	H115	H	0.912649	0.916909	0.385589
	H116	H	0.608062	0.082942	0.911766
	H117	H	0.383180	0.095656	0.094820
	H118	H	0.611790	0.905263	0.082769
	H119	H	0.384905	0.909825	0.899190
	C120	C	0.377860	0.007886	0.617493
	C121	C	0.620315	0.989840	0.617088
	C122	C	0.622146	0.006759	0.375141
	C123	C	0.379642	0.990621	0.376677
	C124	C	0.621005	0.377461	0.004408
	C125	C	0.620775	0.618259	0.987539
	C126	C	0.376732	0.618250	0.004856
	C127	C	0.377429	0.376505	0.987030
	C128	C	0.006762	0.619576	0.373737
	C129	C	0.991090	0.619703	0.618077
	C130	C	0.006862	0.375717	0.616220
	C131	C	0.989760	0.374685	0.373072
	C132	C	0.877528	0.505699	0.116596
	C133	C	0.119323	0.487833	0.116039
	C134	C	0.120733	0.504192	0.874154
	C135	C	0.878107	0.488010	0.874771
	C136	C	0.121665	0.877234	0.505528
	C137	C	0.121172	0.118594	0.488042
	C138	C	0.878284	0.118134	0.505647
	C139	C	0.878324	0.877317	0.488253
	C140	C	0.506915	0.119971	0.873823
	C141	C	0.492043	0.121167	0.118335
	C142	C	0.507635	0.876706	0.118083
	C143	C	0.490903	0.876129	0.873976
	C144	C	0.376831	0.887117	0.676252
	C145	C	0.620729	0.111101	0.675636
	C146	C	0.623651	0.886895	0.314349
	C147	C	0.379909	0.111942	0.318437
	C148	C	0.681820	0.372077	0.884957
	C149	C	0.681543	0.622085	0.106990
	C150	C	0.317428	0.620894	0.884420
	C151	C	0.317898	0.373679	0.107664
	C152	C	0.887921	0.679071	0.373024
	C153	C	0.110605	0.678426	0.618978
	C154	C	0.887747	0.316179	0.617688
	C155	C	0.108424	0.314429	0.370488
	C156	C	0.888314	0.373102	0.676830
	C157	C	0.110528	0.620058	0.676952
	C158	C	0.887430	0.620125	0.315147
	C159	C	0.108774	0.373326	0.313326
	C160	C	0.375996	0.678074	0.884226
	C161	C	0.622577	0.678399	0.107922
	C162	C	0.621186	0.318185	0.883540
	C163	C	0.377394	0.318333	0.108422
	C164	C	0.682281	0.887161	0.371052
	C165	C	0.680197	0.109919	0.619940
	C166	C	0.317732	0.888029	0.620953
	C167	C	0.319780	0.110465	0.373262
	C168	C	0.876687	0.384906	0.175470
	C169	C	0.119649	0.609139	0.174054
	C170	C	0.121020	0.383322	0.814478
	C171	C	0.879278	0.609608	0.817324
	C172	C	0.180515	0.875536	0.384715
	C173	C	0.180112	0.121867	0.608814
	C174	C	0.818434	0.120916	0.385314
	C175	C	0.819099	0.874444	0.608702
	C176	C	0.388300	0.179728	0.872289
	C177	C	0.611540	0.178834	0.117519
	C178	C	0.388296	0.817664	0.119151
	C179	C	0.609028	0.815360	0.871668
	C180	C	0.388292	0.876523	0.177018
	C181	C	0.611170	0.121764	0.176871
	C182	C	0.387517	0.120805	0.815018
	C183	C	0.609114	0.873572	0.813341
	C184	C	0.877326	0.176682	0.384295
	C185	C	0.120820	0.177675	0.609243
	C186	C	0.121931	0.818643	0.384284
	C187	C	0.879531	0.819750	0.609985
	C188	C	0.180602	0.384190	0.870453
	C189	C	0.178267	0.608410	0.117318
	C190	C	0.817780	0.385902	0.119569
	C191	C	0.819345	0.608690	0.872596
	C192	C	0.402037	0.091962	0.592556
	C193	C	0.596070	0.905962	0.592030
	C194	C	0.597269	0.090088	0.401497
	C195	C	0.403398	0.906551	0.401385
	C196	C	0.596575	0.403138	0.088252
	C197	C	0.595756	0.592147	0.904073
	C198	C	0.401087	0.593127	0.088781
	C199	C	0.401312	0.401783	0.902822
	C200	C	0.089799	0.595515	0.397461
	C201	C	0.907902	0.596120	0.593975
	C202	C	0.089643	0.400835	0.591427
	C203	C	0.907467	0.399585	0.398358
	C204	C	0.901996	0.589747	0.091596
	C205	C	0.095743	0.403670	0.091574
	C206	C	0.096279	0.587878	0.900033
	C207	C	0.902175	0.403873	0.899968
	C208	C	0.097651	0.902269	0.589608
	C209	C	0.097214	0.092927	0.404095
	C210	C	0.902593	0.093702	0.589839
	C211	C	0.902391	0.901955	0.404033
	C212	C	0.589746	0.095308	0.898434
	C213	C	0.408457	0.097082	0.094792
	C214	C	0.590503	0.901209	0.093112
	C215	C	0.408394	0.901418	0.899291
	Zn216	Zn	0.498956	-0.001550	0.744874
	Zn217	Zn	0.499905	-0.001200	0.247535
	Zn218	Zn	0.749444	0.497212	-0.004659
	Zn219	Zn	0.248574	0.495925	-0.004613
	Zn220	Zn	-0.000611	0.749360	0.496301
	Zn221	Zn	-0.001011	0.245757	0.496212
	Zn222	Zn	-0.000861	0.496318	0.746268
	Zn223	Zn	-0.001914	0.496901	0.244384
	Zn224	Zn	0.498842	0.746246	-0.003555
	Zn225	Zn	0.499395	0.250267	-0.004187
	Zn226	Zn	0.749924	-0.002246	0.497175
	Zn227	Zn	0.250060	-0.001201	0.496384
	N228	N	0.413447	0.962839	0.674124
	N229	N	0.584310	0.035298	0.674091
	N230	N	0.586918	0.962137	0.316793
	N231	N	0.416694	0.036378	0.320545
	N232	N	0.681717	0.408099	0.961107
	N233	N	0.680616	0.585390	0.030944
	N234	N	0.317663	0.584558	0.960471
	N235	N	0.317619	0.408867	0.030986
	N236	N	0.963126	0.679057	0.408585
	N237	N	0.035497	0.678246	0.582905
	N238	N	0.962330	0.317704	0.580805
	N239	N	0.033494	0.314898	0.406788
	N240	N	0.963332	0.409621	0.675820
	N241	N	0.035321	0.584461	0.676860
	N242	N	0.962468	0.584131	0.315370
	N243	N	0.034187	0.410151	0.314851
	N244	N	0.412069	0.676655	0.960195
	N245	N	0.585601	0.676252	0.032585
	N246	N	0.583690	0.321646	0.958806
	N247	N	0.413320	0.319848	0.032464
	N248	N	0.681198	0.962849	0.408384
	N249	N	0.680169	0.033489	0.584516
	N250	N	0.318031	0.964226	0.585177
	N251	N	0.319127	0.034044	0.408449
	N252	N	0.913082	0.460478	0.173619
	N253	N	0.084001	0.532980	0.173722
	N254	N	0.084531	0.458943	0.816813
	N255	N	0.914714	0.533455	0.818326
	N256	N	0.180522	0.910987	0.461274
	N257	N	0.180443	0.085983	0.532538
	N258	N	0.818768	0.085386	0.461725
	N259	N	0.817829	0.908849	0.531640
	N260	N	0.463557	0.179619	0.908025
	N261	N	0.536181	0.178872	0.082090
	N262	N	0.463681	0.817363	0.083688
	N263	N	0.534411	0.816780	0.908667
	N264	N	0.463543	0.912312	0.176540
	N265	N	0.535742	0.086593	0.177298
	N266	N	0.462429	0.084518	0.815823
	N267	N	0.534551	0.910611	0.814750
	N268	N	0.914044	0.174878	0.459968
	N269	N	0.084897	0.175929	0.533083
	N270	N	0.086235	0.819489	0.460354
	N271	N	0.915434	0.821269	0.533947
	N272	N	0.180532	0.460323	0.906702
	N273	N	0.178463	0.531890	0.082362
	N274	N	0.818174	0.462150	0.083732
	N275	N	0.818372	0.531872	0.907308
	O276	O	-0.115665	-0.070191	0.927530
	H277	H	-0.091369	-0.077386	0.928126
	H278	H	-0.124718	-0.071454	0.897642
	O279	O	0.710587	0.465173	0.713646
	H280	H	0.714455	0.465433	0.728756
	H281	H	0.714951	0.497270	0.712766
	O282	O	0.293543	0.315386	0.570639
	H283	H	0.289113	0.323090	0.589458
	H284	H	0.278789	0.304732	0.573774
	O285	O	0.610826	1.490537	-0.515782
	H286	H	0.616484	1.479027	-0.509994
	H287	H	0.614905	1.483924	-0.506137
	O288	O	0.559070	0.308580	0.399856
	H289	H	0.575613	0.321406	0.402074
	H290	H	0.550834	0.290864	0.398392
	O291	O	0.314053	0.396847	0.642611
	H292	H	0.330808	0.417753	0.645943
	H293	H	0.320057	0.407605	0.640423
	O294	O	1.207083	1.188308	1.083734
	H295	H	1.187689	1.173308	1.088103
	H296	H	1.232476	1.187409	1.086011
	O297	O	0.664023	0.552693	0.338509
	H298	H	0.663781	0.549957	0.330208
	H299	H	0.663353	0.559518	0.335486
	O300	O	0.926741	0.151040	0.945626
	H301	H	0.928305	0.160999	0.929610
	H302	H	0.939863	0.134776	0.937490
	O303	O	0.287551	0.643958	0.382661
	H304	H	0.294458	0.621014	0.373993
	H305	H	0.254752	0.663655	0.364997
	O306	O	-0.086690	-0.016716	0.793450
	H307	H	-0.097780	-0.004582	0.784000
	H308	H	-0.089223	-0.016136	0.794483
	O309	O	0.835888	-0.093534	0.175177
	H310	H	0.822007	-0.063441	0.183689
	H311	H	0.830856	-0.086516	0.163221
	O312	O	0.598178	0.393436	0.465299
	H313	H	0.617702	0.379335	0.471560
	H314	H	0.599918	0.376898	0.460268
	O315	O	0.355428	0.454672	0.451933
	H316	H	0.372623	0.441205	0.446930
	H317	H	0.350777	0.455640	0.443715
	O318	O	0.055958	-0.009431	0.118083
	H319	H	0.061353	-0.023184	0.103198
	H320	H	0.048905	-0.028264	0.105639
	O321	O	0.696354	0.711227	0.521289
	H322	H	0.714790	0.733306	0.516527
	H323	H	0.682476	0.708383	0.526244
	O324	O	1.216136	0.102017	0.992997
	H325	H	1.204980	0.092272	1.015924
	H326	H	1.233799	0.104306	1.007601
	O327	O	0.577046	0.507385	0.310357
	H328	H	0.568412	0.515906	0.303554
	H329	H	0.580291	0.503465	0.308763
	O330	O	-0.000192	1.135626	1.182487
	H331	H	-0.011023	1.116988	1.171052
	H332	H	0.007127	1.133531	1.203540
	O333	O	0.202963	0.937612	-0.175236
	H334	H	0.216766	0.942476	-0.173695
	H335	H	0.207004	0.941371	-0.168154
	O336	O	1.061950	0.928607	-0.175057
	H337	H	1.043599	0.920999	-0.170296
	H338	H	1.059742	0.933216	-0.183177
	O339	O	0.119121	1.069276	0.871491
	H340	H	0.130813	1.061712	0.873878
	H341	H	0.113735	1.076281	0.883079
	O342	O	-0.184797	0.890487	0.069605
	H343	H	-0.191248	0.885519	0.072591
	H344	H	-0.188700	0.896932	0.065888
	O345	O	-0.160956	-0.053400	0.851333
	H346	H	-0.169943	-0.052573	0.837686
	H347	H	-0.166047	-0.030215	0.851177
	O348	O	0.706505	0.426823	0.501013
	H349	H	0.703540	0.418017	0.500288
	H350	H	0.709998	0.437893	0.523246
	O351	O	1.073250	1.011954	0.011556
	H352	H	1.079310	1.014329	0.021735
	H353	H	1.076717	1.015867	0.017821
	O354	O	0.878221	0.803406	1.153660
	H355	H	0.862879	0.831292	1.155719
	H356	H	0.874280	0.791700	1.159081
	O357	O	-0.046325	-0.168535	0.056499
	H358	H	-0.052659	-0.166440	0.058028
	H359	H	-0.052876	-0.178854	0.057638
	O360	O	0.325117	0.503401	0.694881
	H361	H	0.317005	0.509034	0.697776
	H362	H	0.338216	0.517266	0.687088
	O363	O	0.448631	-0.563503	-0.643301
	H364	H	0.453728	-0.576217	-0.645831
	H365	H	0.444320	-0.545607	-0.646961
	O366	O	-0.106180	-0.143985	1.062863
	H367	H	-0.120448	-0.151059	1.074440
	H368	H	-0.118755	-0.153988	1.055709
	O369	O	1.183319	0.110822	1.177397
	H370	H	1.141851	0.104330	1.186764
	H371	H	1.193033	0.114110	1.139042
	O372	O	0.359512	0.453516	0.396625
	H373	H	0.347443	0.440372	0.391937
	H374	H	0.355696	0.461117	0.383269
	O375	O	0.670531	0.676346	1.607964
	H376	H	0.637049	0.681230	1.616585
	H377	H	0.683526	0.678592	1.578795
	O378	O	0.580496	0.690571	0.701573
	H379	H	0.561827	0.701280	0.683969
	H380	H	0.576756	0.676091	0.705691
	O381	O	0.047807	0.929321	-0.057128
	H382	H	0.050221	0.932698	-0.069530
	H383	H	0.051964	0.927661	-0.062123
	O384	O	0.288296	0.549763	0.489927
	H385	H	0.269447	0.553730	0.487915
	H386	H	0.282816	0.546467	0.468814
	O387	O	0.696829	0.359590	0.308429
	H388	H	0.703747	0.371339	0.316163
	H389	H	0.711313	0.355106	0.319640
	O390	O	0.532503	0.562082	0.368247
	H391	H	0.522970	0.566829	0.375887
	H392	H	0.521806	0.570208	0.364749
	O393	O	0.853622	0.126697	0.875777
	H394	H	0.846039	0.133059	0.891185
	H395	H	0.874625	0.134141	0.869044
	O396	O	0.425812	0.687935	0.309000
	H397	H	0.422525	0.679063	0.281138
	H398	H	0.418572	0.682194	0.326465
	O399	O	0.958812	0.887709	-0.096791
	H400	H	0.954364	0.886113	-0.098431
	H401	H	0.951591	0.889490	-0.089800
	O402	O	1.125348	0.871639	0.175627
	H403	H	1.110789	0.875265	0.171094
	H404	H	1.135635	0.874618	0.154729
	O405	O	0.409236	0.427453	0.646371
	H406	H	0.394822	0.442385	0.637717
	H407	H	0.414323	0.426646	0.653645
	O408	O	0.530384	0.703278	0.455843
	H409	H	0.536632	0.706498	0.434206
	H410	H	0.519574	0.703971	0.451678
	O411	O	1.139017	1.082587	1.175922
	H412	H	1.133371	1.102808	1.171265
	H413	H	1.139744	1.082059	1.193418
	O414	O	0.572851	0.339066	0.524923
	H415	H	0.551991	0.336413	0.520239
	H416	H	0.574303	0.337481	0.526202
	O417	O	-0.141414	1.120948	0.944927
	H418	H	-0.127110	1.104983	0.944676
	H419	H	-0.140966	1.136166	0.948025
	O420	O	0.175414	0.839039	0.940518
	H421	H	0.165096	0.831538	0.918095
	H422	H	0.192276	0.839542	0.939182
	O423	O	-0.018155	1.197030	-0.112642
	H424	H	-0.014189	1.195297	-0.123586
	H425	H	-0.005087	1.197722	-0.104871
	O426	O	0.484685	0.512462	0.672536
	H427	H	0.487020	0.531602	0.665568
	H428	H	0.479864	0.497762	0.684710
	O429	O	0.534090	0.478668	0.668162
	H430	H	0.532983	0.490463	0.676558
	H431	H	0.547496	0.472934	0.663805
	O432	O	0.514040	0.345348	0.501304
	H433	H	0.505991	0.337644	0.488813
	H434	H	0.508333	0.338815	0.510227
	O435	O	0.293434	-0.416690	0.337852
	H436	H	0.308728	-0.443178	0.339259
	H437	H	0.281032	-0.402096	0.329212
	O438	O	-0.136545	1.113496	1.120862
	H439	H	-0.123409	1.123574	1.111525
	H440	H	-0.139844	1.121498	1.126994
	O441	O	0.389717	0.683498	0.586581
	H442	H	0.392876	0.682300	0.563967
	H443	H	0.388759	0.679314	0.564455
