data_Molecule from HDF5

_cell_length_a		16.427422
_cell_length_b		16.167518
_cell_length_c		16.170146
_cell_angle_alpha	89.781683
_cell_angle_beta	89.931277
_cell_angle_gamma	90.096247
_symmetry_space_group_name_H-M	'P 1'
_symmetry_Int_Tables_number		1

loop_
	_symmetry_equiv_pos_as_xyz
	x,y,z

loop_
	_atom_site_label
	_atom_site_type_symbol
	_atom_site_fract_x
	_atom_site_fract_y
	_atom_site_fract_z
	H0	H	0.402100	0.842119	0.716256
	H1	H	0.596266	0.172781	0.714985
	H2	H	0.595677	0.840716	0.293219
	H3	H	0.403698	0.172505	0.289796
	H4	H	0.714150	0.405352	0.840694
	H5	H	0.714592	0.609100	0.167198
	H6	H	0.283822	0.606873	0.838681
	H7	H	0.281605	0.404999	0.166753
	H8	H	0.836687	0.723911	0.404311
	H9	H	0.162233	0.721537	0.600381
	H10	H	0.836253	0.292423	0.601470
	H11	H	0.162306	0.293876	0.405504
	H12	H	0.836643	0.406413	0.719637
	H13	H	0.161088	0.606895	0.719301
	H14	H	0.835232	0.605952	0.289420
	H15	H	0.161578	0.409755	0.287124
	H16	H	0.402881	0.718929	0.838143
	H17	H	0.593809	0.717954	0.168982
	H18	H	0.593460	0.296707	0.838192
	H19	H	0.400960	0.293314	0.168243
	H20	H	0.716453	0.844224	0.402741
	H21	H	0.714483	0.170835	0.603150
	H22	H	0.283044	0.843718	0.604341
	H23	H	0.285560	0.172242	0.402336
	H24	H	0.900089	0.342152	0.216777
	H25	H	0.094194	0.672598	0.213701
	H26	H	0.092696	0.341810	0.792996
	H27	H	0.901419	0.671730	0.789628
	H28	H	0.215605	0.907613	0.339593
	H29	H	0.215344	0.108016	0.667421
	H30	H	0.783900	0.109351	0.340159
	H31	H	0.783351	0.906117	0.667357
	H32	H	0.336498	0.220062	0.904886
	H33	H	0.661133	0.223190	0.102043
	H34	H	0.335747	0.792183	0.101871
	H35	H	0.661294	0.791733	0.905748
	H36	H	0.337646	0.906224	0.220505
	H37	H	0.662085	0.105096	0.217448
	H38	H	0.337122	0.103643	0.788660
	H39	H	0.662535	0.909171	0.789294
	H40	H	0.903395	0.220540	0.338551
	H41	H	0.095528	0.218741	0.670022
	H42	H	0.096171	0.796004	0.337568
	H43	H	0.903846	0.795000	0.669072
	H44	H	0.212930	0.343370	0.902164
	H45	H	0.213591	0.670953	0.102994
	H46	H	0.781228	0.343330	0.105222
	H47	H	0.781843	0.670263	0.902275
	H48	H	0.409812	0.127386	0.606159
	H49	H	0.598493	0.886437	0.599408
	H50	H	0.584072	0.122023	0.412145
	H51	H	0.407129	0.893691	0.420309
	H52	H	0.591225	0.414893	0.121594
	H53	H	0.597156	0.592282	0.886676
	H54	H	0.407218	0.602155	0.120432
	H55	H	0.399050	0.413850	0.883528
	H56	H	0.114540	0.606269	0.408839
	H57	H	0.887154	0.597509	0.588595
	H58	H	0.116227	0.411317	0.600391
	H59	H	0.885774	0.410753	0.419207
	H60	H	0.113916	0.412549	0.594124
	H61	H	0.883215	0.594972	0.603283
	H62	H	0.112213	0.599212	0.412304
	H63	H	0.884323	0.421207	0.406392
	H64	H	0.397729	0.599437	0.123400
	H65	H	0.583093	0.597809	0.889008
	H66	H	0.590949	0.417797	0.121088
	H67	H	0.404463	0.418653	0.886831
	H68	H	0.599593	0.124632	0.417752
	H69	H	0.586808	0.890222	0.598998
	H70	H	0.414191	0.120360	0.587538
	H71	H	0.397974	0.886517	0.410658
	H72	H	0.915620	0.621770	0.093898
	H73	H	0.088757	0.387924	0.101932
	H74	H	0.089693	0.625092	0.909269
	H75	H	0.908012	0.390128	0.910826
	H76	H	0.103790	0.913983	0.623820
	H77	H	0.083671	0.109629	0.386892
	H78	H	0.912828	0.109244	0.622867
	H79	H	0.902347	0.922211	0.386468
	H80	H	0.616251	0.096859	0.902928
	H81	H	0.384422	0.093202	0.101202
	H82	H	0.614906	0.906095	0.092536
	H83	H	0.384036	0.911181	0.914927
	H84	H	0.612587	0.918268	0.094944
	H85	H	0.382182	0.105508	0.099467
	H86	H	0.618074	0.108985	0.908494
	H87	H	0.384888	0.919094	0.906914
	H88	H	0.893378	0.099700	0.625243
	H89	H	0.105933	0.103337	0.381963
	H90	H	0.090254	0.925123	0.616409
	H91	H	0.913023	0.917888	0.388948
	H92	H	0.091227	0.624247	0.913316
	H93	H	0.085902	0.393045	0.090004
	H94	H	0.897257	0.623070	0.083679
	H95	H	0.902577	0.390605	0.917250
	H96	H	0.394888	0.127452	0.591610
	H97	H	0.593611	0.891859	0.588553
	H98	H	0.594674	0.127945	0.401661
	H99	H	0.411980	0.890475	0.406587
	H100	H	0.588435	0.415387	0.120999
	H101	H	0.594116	0.607196	0.882851
	H102	H	0.403595	0.592230	0.119100
	H103	H	0.406396	0.411605	0.884995
	H104	H	0.114823	0.599053	0.404268
	H105	H	0.881051	0.608554	0.597057
	H106	H	0.114112	0.416994	0.598375
	H107	H	0.880230	0.405896	0.404782
	H108	H	0.898629	0.629097	0.103975
	H109	H	0.097738	0.388492	0.092364
	H110	H	0.094092	0.625531	0.910234
	H111	H	0.900678	0.387345	0.909419
	H112	H	0.086417	0.906506	0.621414
	H113	H	0.090654	0.087954	0.390903
	H114	H	0.909765	0.087936	0.616343
	H115	H	0.904966	0.910981	0.384218
	H116	H	0.612193	0.099232	0.915379
	H117	H	0.386036	0.098423	0.089776
	H118	H	0.617605	0.910797	0.104325
	H119	H	0.380766	0.908465	0.904757
	C120	C	0.377992	0.015938	0.624229
	C121	C	0.620670	0.998596	0.624154
	C122	C	0.621188	0.015910	0.382062
	C123	C	0.378012	0.998974	0.382507
	C124	C	0.618829	0.386476	0.012549
	C125	C	0.619654	0.627865	0.995123
	C126	C	0.375921	0.627068	0.011879
	C127	C	0.375211	0.385224	0.994233
	C128	C	0.006627	0.630177	0.380208
	C129	C	0.991125	0.629204	0.625208
	C130	C	0.007439	0.384699	0.626203
	C131	C	0.990846	0.385225	0.381334
	C132	C	0.875398	0.516086	0.124245
	C133	C	0.119062	0.498801	0.123328
	C134	C	0.118983	0.515979	0.882398
	C135	C	0.875737	0.497799	0.882498
	C136	C	0.121414	0.886603	0.511670
	C137	C	0.121266	0.128849	0.495556
	C138	C	0.877777	0.128303	0.512341
	C139	C	0.878093	0.886584	0.495086
	C140	C	0.507767	0.129001	0.880937
	C141	C	0.491385	0.128308	0.125143
	C142	C	0.507543	0.883593	0.126074
	C143	C	0.490953	0.884553	0.881225
	C144	C	0.380975	0.891555	0.678913
	C145	C	0.616794	0.123224	0.677852
	C146	C	0.617712	0.891085	0.328712
	C147	C	0.382261	0.123155	0.327116
	C148	C	0.675209	0.386729	0.889281
	C149	C	0.675721	0.627380	0.118396
	C150	C	0.321854	0.626273	0.887775
	C151	C	0.320041	0.385905	0.117836
	C152	C	0.884901	0.686070	0.383264
	C153	C	0.113531	0.683936	0.621636
	C154	C	0.884867	0.329796	0.622742
	C155	C	0.113605	0.331288	0.384441
	C156	C	0.884912	0.386723	0.681070
	C157	C	0.112899	0.626886	0.680714
	C158	C	0.884278	0.627388	0.326047
	C159	C	0.113217	0.389136	0.325786
	C160	C	0.381028	0.681852	0.887368
	C161	C	0.615672	0.681705	0.119420
	C162	C	0.615391	0.332515	0.888096
	C163	C	0.379062	0.329859	0.118535
	C164	C	0.677306	0.892547	0.383410
	C165	C	0.675901	0.122295	0.622718
	C166	C	0.321740	0.892527	0.623537
	C167	C	0.323546	0.123158	0.382993
	C168	C	0.878866	0.391564	0.179570
	C169	C	0.115496	0.623241	0.176965
	C170	C	0.114662	0.391382	0.828867
	C171	C	0.879880	0.622241	0.826953
	C172	C	0.177184	0.887944	0.388383
	C173	C	0.176935	0.127679	0.618839
	C174	C	0.822501	0.128136	0.388855
	C175	C	0.822165	0.886925	0.618618
	C176	C	0.385221	0.182911	0.883802
	C177	C	0.612873	0.184970	0.122971
	C178	C	0.384681	0.829337	0.122996
	C179	C	0.613233	0.829863	0.884831
	C180	C	0.385537	0.885929	0.181713
	C181	C	0.613404	0.125613	0.179782
	C182	C	0.385312	0.124768	0.826478
	C183	C	0.613793	0.888209	0.826841
	C184	C	0.882430	0.183146	0.388061
	C185	C	0.117397	0.182624	0.620100
	C186	C	0.117488	0.832779	0.387228
	C187	C	0.881692	0.831523	0.619359
	C188	C	0.173858	0.392034	0.883560
	C189	C	0.175017	0.622184	0.122344
	C190	C	0.819927	0.392114	0.124179
	C191	C	0.820535	0.621665	0.882760
	C192	C	0.399908	0.102597	0.601616
	C193	C	0.599333	0.911984	0.602001
	C194	C	0.599432	0.102414	0.404099
	C195	C	0.399211	0.912526	0.405741
	C196	C	0.596719	0.409208	0.098849
	C197	C	0.597800	0.605569	0.908583
	C198	C	0.396677	0.604546	0.098701
	C199	C	0.396971	0.407849	0.907527
	C200	C	0.092079	0.608027	0.401972
	C201	C	0.905814	0.606797	0.602962
	C202	C	0.092619	0.406984	0.604089
	C203	C	0.905603	0.406498	0.403260
	C204	C	0.897320	0.602265	0.100972
	C205	C	0.097042	0.412386	0.101399
	C206	C	0.097937	0.602481	0.904389
	C207	C	0.897252	0.411564	0.905556
	C208	C	0.099745	0.908655	0.598251
	C209	C	0.099748	0.106701	0.409061
	C210	C	0.898965	0.105649	0.599039
	C211	C	0.900095	0.910156	0.408804
	C212	C	0.593285	0.107896	0.902670
	C213	C	0.406112	0.105726	0.103190
	C214	C	0.592891	0.905206	0.103878
	C215	C	0.405406	0.906249	0.902761
	Zn216	Zn	0.499839	0.007084	0.751601
	Zn217	Zn	0.499770	0.006092	0.254586
	Zn218	Zn	0.747269	0.506689	0.003962
	Zn219	Zn	0.246898	0.506938	0.002874
	Zn220	Zn	-0.000489	0.758615	0.503016
	Zn221	Zn	-0.000268	0.256014	0.504188
	Zn222	Zn	-0.001614	0.507016	0.754365
	Zn223	Zn	-0.002283	0.507870	0.251063
	Zn224	Zn	0.498101	0.755086	0.003680
	Zn225	Zn	0.498465	0.258044	0.002955
	Zn226	Zn	0.749071	0.007410	0.503501
	Zn227	Zn	0.249933	0.008184	0.503533
	N228	N	0.415268	0.969202	0.679365
	N229	N	0.583198	0.045191	0.678767
	N230	N	0.583452	0.968701	0.327850
	N231	N	0.415557	0.045079	0.326771
	N232	N	0.677456	0.419509	0.967692
	N233	N	0.678263	0.594625	0.039913
	N234	N	0.318827	0.592842	0.966051
	N235	N	0.317296	0.419290	0.039563
	N236	N	0.962053	0.687927	0.416177
	N237	N	0.036621	0.685514	0.587931
	N238	N	0.961937	0.328518	0.589166
	N239	N	0.036746	0.328767	0.418142
	N240	N	0.961956	0.420247	0.683432
	N241	N	0.035716	0.593615	0.682946
	N242	N	0.960889	0.593192	0.324136
	N243	N	0.035819	0.421704	0.323462
	N244	N	0.413973	0.682533	0.965596
	N245	N	0.581406	0.681943	0.041844
	N246	N	0.580857	0.332428	0.965625
	N247	N	0.412758	0.329323	0.040558
	N248	N	0.679895	0.971192	0.415864
	N249	N	0.678393	0.043918	0.589824
	N250	N	0.319823	0.971000	0.590270
	N251	N	0.320536	0.044873	0.416503
	N252	N	0.912797	0.469584	0.179927
	N253	N	0.081290	0.545633	0.177780
	N254	N	0.081021	0.469133	0.828087
	N255	N	0.913712	0.544321	0.826681
	N256	N	0.179599	0.920822	0.466714
	N257	N	0.179452	0.095048	0.540428
	N258	N	0.819727	0.094653	0.467041
	N259	N	0.819762	0.920427	0.540223
	N260	N	0.462204	0.185639	0.917060
	N261	N	0.535856	0.186647	0.089721
	N262	N	0.461523	0.827754	0.089072
	N263	N	0.535978	0.827556	0.917836
	N264	N	0.462750	0.918980	0.183853
	N265	N	0.536820	0.090962	0.181022
	N266	N	0.462666	0.092154	0.824227
	N267	N	0.536746	0.921438	0.824502
	N268	N	0.916035	0.183269	0.465958
	N269	N	0.083311	0.183367	0.542375
	N270	N	0.083376	0.831834	0.464979
	N271	N	0.915667	0.831232	0.541585
	N272	N	0.176851	0.470593	0.915980
	N273	N	0.177309	0.543556	0.089824
	N274	N	0.817963	0.470150	0.090374
	N275	N	0.818001	0.543624	0.916620
	O276	O	0.527469	0.528060	0.555590
	H277	H	0.538653	0.529639	0.556028
	H278	H	0.527242	0.540331	0.560284
	O279	O	0.073547	0.022467	0.107595
	H280	H	0.069960	0.022758	0.112910
	H281	H	0.081170	0.020291	0.116685
	O282	O	0.559008	0.468661	0.512503
	H283	H	0.561724	0.469091	0.522496
	H284	H	0.561941	0.470364	0.512165
	O285	O	0.522211	0.558715	0.479571
	H286	H	0.530975	0.552503	0.467414
	H287	H	0.524913	0.558838	0.475960
	O288	O	1.570996	-0.455586	-0.472913
	H289	H	1.574045	-0.455618	-0.482021
	H290	H	1.564827	-0.457616	-0.487423
	O291	O	-0.463822	0.417561	-0.505985
	H292	H	-0.460923	0.415329	-0.492676
	H293	H	-0.471597	0.414157	-0.501625
	O294	O	0.547163	0.537787	0.425694
	H295	H	0.543710	0.526073	0.429019
	H296	H	0.549922	0.543328	0.420845
	O297	O	0.038021	1.046538	0.088011
	H298	H	0.045097	1.035318	0.097140
	H299	H	0.044718	1.051344	0.079743
	O300	O	1.024941	0.070959	1.104886
	H301	H	1.020996	0.078295	1.113524
	H302	H	1.034303	0.067421	1.103476
	O303	O	0.557416	0.532395	0.484844
	H304	H	0.551168	0.522546	0.478990
	H305	H	0.551657	0.534781	0.481909
	O306	O	0.043503	1.023082	1.124345
	H307	H	0.035430	1.028703	1.127644
	H308	H	0.034275	1.027770	1.113990
	O309	O	0.551661	0.546395	0.548026
	H310	H	0.548045	0.560155	0.549250
	H311	H	0.556499	0.549297	0.558087
