data_Molecule from HDF5

_cell_length_a		16.107616
_cell_length_b		16.335671
_cell_length_c		16.472487
_cell_angle_alpha	90.131791
_cell_angle_beta	89.692981
_cell_angle_gamma	90.069819
_symmetry_space_group_name_H-M	'P 1'
_symmetry_Int_Tables_number		1

loop_
	_symmetry_equiv_pos_as_xyz
	x,y,z

loop_
	_atom_site_label
	_atom_site_type_symbol
	_atom_site_fract_x
	_atom_site_fract_y
	_atom_site_fract_z
	H0	H	0.378990	0.831054	0.704832
	H1	H	0.590507	0.151220	0.707130
	H2	H	0.589295	0.832894	0.264743
	H3	H	0.379922	0.153463	0.265556
	H4	H	0.705804	0.389370	0.825828
	H5	H	0.699040	0.593354	0.146156
	H6	H	0.270487	0.588616	0.823173
	H7	H	0.264623	0.391622	0.146616
	H8	H	0.823523	0.709103	0.386091
	H9	H	0.150182	0.708646	0.585082
	H10	H	0.823297	0.273296	0.590411
	H11	H	0.150112	0.277430	0.384945
	H12	H	0.821890	0.389430	0.703834
	H13	H	0.147249	0.598565	0.705733
	H14	H	0.823198	0.596656	0.270766
	H15	H	0.147759	0.389504	0.265358
	H16	H	0.380756	0.710388	0.824910
	H17	H	0.584132	0.711965	0.144264
	H18	H	0.589969	0.271876	0.825723
	H19	H	0.379051	0.272887	0.145905
	H20	H	0.699087	0.830195	0.386831
	H21	H	0.700348	0.154334	0.584960
	H22	H	0.269457	0.829703	0.582794
	H23	H	0.272743	0.156439	0.388670
	H24	H	0.876715	0.334863	0.209430
	H25	H	0.090726	0.653073	0.206415
	H26	H	0.091584	0.334464	0.762297
	H27	H	0.876329	0.651067	0.765257
	H28	H	0.204624	0.892382	0.323908
	H29	H	0.203794	0.093263	0.646326
	H30	H	0.769023	0.094707	0.325090
	H31	H	0.766312	0.891134	0.644252
	H32	H	0.322131	0.209945	0.883044
	H33	H	0.646600	0.210696	0.087822
	H34	H	0.319781	0.776729	0.087296
	H35	H	0.647697	0.777526	0.885594
	H36	H	0.322023	0.889092	0.205464
	H37	H	0.647165	0.096919	0.202504
	H38	H	0.322938	0.096787	0.766536
	H39	H	0.646695	0.888663	0.768559
	H40	H	0.883643	0.212485	0.327064
	H41	H	0.093514	0.214810	0.644718
	H42	H	0.092875	0.771424	0.325444
	H43	H	0.881029	0.773270	0.643676
	H44	H	0.198711	0.330071	0.885555
	H45	H	0.200149	0.655271	0.085392
	H46	H	0.765276	0.332565	0.089425
	H47	H	0.769852	0.654738	0.888973
	H48	H	0.395394	0.103988	0.567416
	H49	H	0.569915	0.878982	0.573889
	H50	H	0.576827	0.110108	0.388548
	H51	H	0.403117	0.879578	0.390590
	H52	H	0.573609	0.396243	0.100885
	H53	H	0.584053	0.577612	0.869550
	H54	H	0.385937	0.592011	0.103460
	H55	H	0.398262	0.392848	0.870613
	H56	H	0.105606	0.585743	0.391243
	H57	H	0.866192	0.588270	0.582991
	H58	H	0.100556	0.411260	0.579453
	H59	H	0.867591	0.387839	0.406303
	H60	H	0.104151	0.399905	0.576982
	H61	H	0.869170	0.586042	0.570159
	H62	H	0.102338	0.583979	0.399734
	H63	H	0.877679	0.416601	0.406068
	H64	H	0.388912	0.576743	0.097413
	H65	H	0.567181	0.581808	0.873482
	H66	H	0.577482	0.405625	0.098774
	H67	H	0.386086	0.399798	0.869637
	H68	H	0.571995	0.107626	0.393141
	H69	H	0.579568	0.874967	0.575137
	H70	H	0.388928	0.111653	0.584985
	H71	H	0.395493	0.879973	0.398992
	H72	H	0.893886	0.609502	0.081665
	H73	H	0.068135	0.380015	0.076809
	H74	H	0.069715	0.607022	0.892285
	H75	H	0.898002	0.377477	0.891396
	H76	H	0.073868	0.909244	0.595665
	H77	H	0.075396	0.086154	0.372347
	H78	H	0.896955	0.087085	0.599911
	H79	H	0.899305	0.904601	0.373589
	H80	H	0.601247	0.075157	0.890250
	H81	H	0.368157	0.080438	0.078731
	H82	H	0.602047	0.899848	0.075324
	H83	H	0.365205	0.897186	0.895033
	H84	H	0.599331	0.902954	0.073241
	H85	H	0.366963	0.083901	0.076269
	H86	H	0.603234	0.087618	0.894607
	H87	H	0.368344	0.903913	0.897767
	H88	H	0.891150	0.082070	0.599986
	H89	H	0.079045	0.086435	0.371537
	H90	H	0.069796	0.893699	0.598760
	H91	H	0.898841	0.895457	0.369341
	H92	H	0.075956	0.606479	0.899889
	H93	H	0.074915	0.377819	0.074118
	H94	H	0.895523	0.608270	0.080037
	H95	H	0.899216	0.379595	0.898058
	H96	H	0.407817	0.104768	0.583189
	H97	H	0.573034	0.875492	0.582633
	H98	H	0.578714	0.109355	0.394994
	H99	H	0.392234	0.875381	0.389409
	H100	H	0.567287	0.403183	0.096346
	H101	H	0.578116	0.593415	0.867465
	H102	H	0.400955	0.587852	0.097720
	H103	H	0.397017	0.405836	0.875190
	H104	H	0.102032	0.577224	0.393721
	H105	H	0.871177	0.576709	0.579153
	H106	H	0.098543	0.406329	0.568750
	H107	H	0.864001	0.404676	0.381292
	H108	H	0.893515	0.608941	0.079292
	H109	H	0.072468	0.377075	0.080656
	H110	H	0.079149	0.610127	0.891104
	H111	H	0.893194	0.376288	0.896314
	H112	H	0.085382	0.898893	0.602025
	H113	H	0.077768	0.082995	0.371789
	H114	H	0.897491	0.080200	0.597550
	H115	H	0.891116	0.901641	0.368938
	H116	H	0.597678	0.078171	0.902673
	H117	H	0.368878	0.079900	0.073160
	H118	H	0.600546	0.903412	0.077585
	H119	H	0.365800	0.903484	0.890821
	C120	C	0.364628	0.000101	0.607679
	C121	C	0.606089	0.983038	0.607406
	C122	C	0.606610	0.002157	0.362474
	C123	C	0.365113	0.984769	0.363492
	C124	C	0.606492	0.370093	-0.006437
	C125	C	0.605780	0.614597	0.976336
	C126	C	0.361895	0.614232	-0.006519
	C127	C	0.361643	0.369408	0.977660
	C128	C	-0.004683	0.613046	0.365683
	C129	C	0.976603	0.614692	0.607463
	C130	C	-0.006101	0.373209	0.606976
	C131	C	0.977388	0.372550	0.365778
	C132	C	0.862272	0.502519	0.110225
	C133	C	0.104532	0.484673	0.107578
	C134	C	0.105997	0.501706	0.863297
	C135	C	0.864585	0.484135	0.865716
	C136	C	0.108306	0.870228	0.493064
	C137	C	0.108996	0.115473	0.477494
	C138	C	0.864272	0.114561	0.493855
	C139	C	0.864544	0.870700	0.476133
	C140	C	0.493543	0.112131	0.864919
	C141	C	0.475344	0.112816	0.106336
	C142	C	0.492577	0.871270	0.106658
	C143	C	0.474724	0.871286	0.864741
	C144	C	0.361515	0.879291	0.665426
	C145	C	0.608393	0.103605	0.666703
	C146	C	0.607503	0.880759	0.304526
	C147	C	0.362753	0.105735	0.305710
	C148	C	0.666153	0.370016	0.873715
	C149	C	0.661224	0.613455	0.097680
	C150	C	0.307207	0.610251	0.871758
	C151	C	0.303379	0.371187	0.098305
	C152	C	0.872264	0.670733	0.366714
	C153	C	0.100387	0.671076	0.605677
	C154	C	0.871948	0.313058	0.608958
	C155	C	0.100788	0.315391	0.364985
	C156	C	0.871020	0.371466	0.665047
	C157	C	0.098943	0.616126	0.665610
	C158	C	0.872124	0.614471	0.309516
	C159	C	0.099604	0.371244	0.305895
	C160	C	0.362116	0.670859	0.872580
	C161	C	0.604086	0.672419	0.096682
	C162	C	0.608479	0.311480	0.873588
	C163	C	0.360739	0.312398	0.098135
	C164	C	0.662079	0.879417	0.365030
	C165	C	0.662941	0.105150	0.605635
	C166	C	0.307161	0.878377	0.604742
	C167	C	0.308902	0.107122	0.366494
	C168	C	0.859067	0.382209	0.169076
	C169	C	0.107429	0.605477	0.166155
	C170	C	0.108556	0.381585	0.803322
	C171	C	0.860427	0.604135	0.806425
	C172	C	0.166896	0.871042	0.372494
	C173	C	0.166307	0.114081	0.598045
	C174	C	0.807109	0.114590	0.373531
	C175	C	0.805600	0.871613	0.596395
	C176	C	0.371037	0.170901	0.864113
	C177	C	0.598138	0.172003	0.107130
	C178	C	0.369187	0.814675	0.106678
	C179	C	0.598448	0.815009	0.865592
	C180	C	0.370509	0.870481	0.165777
	C181	C	0.598220	0.115201	0.164066
	C182	C	0.371445	0.114407	0.806269
	C183	C	0.598137	0.870515	0.807613
	C184	C	0.864411	0.173283	0.374491
	C185	C	0.110866	0.174361	0.597395
	C186	C	0.110822	0.811191	0.373126
	C187	C	0.862694	0.812824	0.596005
	C188	C	0.161961	0.379354	0.864761
	C189	C	0.162433	0.606413	0.106111
	C190	C	0.803485	0.381145	0.109572
	C191	C	0.807217	0.605862	0.867871
	C192	C	0.389972	0.084740	0.585298
	C193	C	0.581586	0.898415	0.583777
	C194	C	0.582993	0.086965	0.385431
	C195	C	0.389735	0.900332	0.386235
	C196	C	0.580408	0.394543	0.076968
	C197	C	0.583167	0.591039	0.892247
	C198	C	0.385262	0.592050	0.077838
	C199	C	0.386561	0.392657	0.893504
	C200	C	0.080981	0.589309	0.388283
	C201	C	0.890908	0.590685	0.584206
	C202	C	0.079052	0.398335	0.582185
	C203	C	0.891972	0.395989	0.390704
	C204	C	0.887001	0.586981	0.086876
	C205	C	0.079235	0.400320	0.083941
	C206	C	0.081863	0.585966	0.887359
	C207	C	0.889542	0.399739	0.888748
	C208	C	0.083567	0.893839	0.577069
	C209	C	0.084523	0.091915	0.393738
	C210	C	0.888310	0.090248	0.577556
	C211	C	0.889377	0.893850	0.392331
	C212	C	0.578420	0.087531	0.888806
	C213	C	0.390288	0.088567	0.082838
	C214	C	0.578261	0.895057	0.082343
	C215	C	0.388819	0.894754	0.887840
	Zn216	Zn	0.484879	-0.009033	0.737185
	Zn217	Zn	0.484969	-0.006606	0.234045
	Zn218	Zn	0.735698	0.492854	-0.013752
	Zn219	Zn	0.232997	0.492549	-0.014451
	Zn220	Zn	-0.013229	0.741096	0.484658
	Zn221	Zn	-0.013540	0.244302	0.486620
	Zn222	Zn	-0.015428	0.493473	0.735293
	Zn223	Zn	-0.015103	0.493356	0.237828
	Zn224	Zn	0.482948	0.743891	-0.015806
	Zn225	Zn	0.484351	0.240345	-0.014144
	Zn226	Zn	0.734488	-0.007616	0.484737
	Zn227	Zn	0.237146	-0.007083	0.485163
	N228	N	0.396301	0.956310	0.667441
	N229	N	0.573922	0.026580	0.668051
	N230	N	0.573894	0.958128	0.302719
	N231	N	0.396802	0.028590	0.303715
	N232	N	0.665038	0.405612	0.949392
	N233	N	0.662384	0.578267	0.021755
	N234	N	0.306771	0.575921	0.947997
	N235	N	0.303834	0.405839	0.022376
	N236	N	0.949891	0.670033	0.400844
	N237	N	0.023328	0.670345	0.570340
	N238	N	0.949409	0.313975	0.573420
	N239	N	0.023741	0.315714	0.401267
	N240	N	0.947888	0.408076	0.663922
	N241	N	0.020787	0.581890	0.666841
	N242	N	0.949554	0.579321	0.308739
	N243	N	0.021788	0.405588	0.306090
	N244	N	0.394948	0.673794	0.949446
	N245	N	0.570242	0.673113	0.020339
	N246	N	0.572019	0.311501	0.949258
	N247	N	0.395876	0.310980	0.021828
	N248	N	0.661950	0.955737	0.400081
	N249	N	0.661592	0.029154	0.569523
	N250	N	0.308956	0.954476	0.569546
	N251	N	0.310025	0.030875	0.401694
	N252	N	0.894729	0.458679	0.169732
	N253	N	0.072262	0.528686	0.167270
	N254	N	0.074482	0.458665	0.802462
	N255	N	0.895650	0.527600	0.805124
	N256	N	0.165410	0.907074	0.447918
	N257	N	0.165169	0.078175	0.522492
	N258	N	0.806913	0.078733	0.448789
	N259	N	0.806656	0.906834	0.520777
	N260	N	0.447884	0.169856	0.900012
	N261	N	0.520976	0.170676	0.071758
	N262	N	0.446245	0.815016	0.070477
	N263	N	0.520704	0.815414	0.900290
	N264	N	0.448256	0.904948	0.165881
	N265	N	0.521197	0.078992	0.163581
	N266	N	0.448593	0.078586	0.806452
	N267	N	0.520196	0.904760	0.806825
	N268	N	0.899385	0.173163	0.450477
	N269	N	0.076014	0.175578	0.521446
	N270	N	0.075423	0.810382	0.449428
	N271	N	0.898917	0.812250	0.520287
	N272	N	0.160456	0.454901	0.901462
	N273	N	0.160814	0.530268	0.070348
	N274	N	0.805140	0.457087	0.073877
	N275	N	0.809731	0.530103	0.904105
	O276	O	0.421499	0.512029	0.502823
	H277	H	0.412096	0.502880	0.493017
	H278	H	0.420918	0.515818	0.510355
	O279	O	1.161322	1.040908	1.158215
	H280	H	1.160434	1.037111	1.170155
	H281	H	1.157901	1.029655	1.168635
	O282	O	0.916158	-0.022186	0.930522
	H283	H	0.918352	-0.025025	0.921971
	H284	H	0.896943	-0.026217	0.928652
	O285	O	0.865794	0.030357	1.090482
	H286	H	0.865417	0.037374	1.070381
	H287	H	0.852398	0.030632	1.098755
	O288	O	0.911251	1.094701	1.008340
	H289	H	0.897893	1.094043	1.001961
	H290	H	0.910878	1.104307	1.014930
	O291	O	-0.045021	0.878960	-0.114687
	H292	H	-0.027639	0.872400	-0.116960
	H293	H	-0.044575	0.871043	-0.126843
	O294	O	0.516436	0.410235	0.547286
	H295	H	0.530026	0.413951	0.556363
	H296	H	0.527249	0.394093	0.560429
	O297	O	1.163026	0.853482	0.994798
	H298	H	1.169002	0.839560	0.994600
	H299	H	1.163001	0.855432	1.019378
	O300	O	0.387758	0.555570	0.484782
	H301	H	0.393158	0.564837	0.486783
	H302	H	0.388744	0.551033	0.487880
	O303	O	0.416432	0.398835	0.576657
	H304	H	0.413658	0.389579	0.579637
	H305	H	0.416149	0.394147	0.569921
	O306	O	0.564312	0.482142	0.436287
	H307	H	0.555853	0.494602	0.429729
	H308	H	0.584745	0.479119	0.447777
	O309	O	0.547510	0.459272	0.631812
	H310	H	0.543173	0.463615	0.632259
	H311	H	0.541588	0.450120	0.628080
	O312	O	-0.079486	0.127812	0.069297
	H313	H	-0.073226	0.124348	0.071512
	H314	H	-0.073771	0.117343	0.062146
	O315	O	0.631503	0.501319	0.364242
	H316	H	0.643727	0.500894	0.356198
	H317	H	0.622792	0.499365	0.369434
	O318	O	0.064669	1.181074	1.110551
	H319	H	0.065834	1.184660	1.110626
	H320	H	0.072626	1.186539	1.112610
	O321	O	0.637324	0.647235	0.667421
	H322	H	0.643890	0.632994	0.676794
	H323	H	0.631220	0.646875	0.647280
	O324	O	-0.581310	1.603495	-0.577004
	H325	H	-0.571020	1.590193	-0.585461
	H326	H	-0.576277	1.594459	-0.583495
	O327	O	0.541178	0.380501	0.557847
	H328	H	0.544872	0.386484	0.557349
	H329	H	0.534048	0.377751	0.551534
	O330	O	-0.106469	0.060485	0.968897
	H331	H	-0.102928	0.047930	0.948382
	H332	H	-0.123757	0.074265	0.965985
	O333	O	-0.589523	0.432259	1.439729
	H334	H	-0.597502	0.418131	1.440942
	H335	H	-0.599660	0.433774	1.437241
	O336	O	0.385508	0.544493	0.343648
	H337	H	0.371302	0.548875	0.337904
	H338	H	0.376829	0.551979	0.349373
	O339	O	1.130085	-0.038748	-0.121187
	H340	H	1.133128	-0.023179	-0.119507
	H341	H	1.137817	-0.046752	-0.097060
	O342	O	-0.093046	-0.004390	0.176897
	H343	H	-0.103687	-0.006794	0.183899
	H344	H	-0.101885	-0.015733	0.163552
	O345	O	1.078721	0.095385	1.188839
	H346	H	1.089832	0.111932	1.181833
	H347	H	1.080861	0.078346	1.194667
	O348	O	0.835715	0.950170	-0.146835
	H349	H	0.837193	0.963283	-0.156916
	H350	H	0.830502	0.950052	-0.159286
	O351	O	0.534600	0.539265	0.401515
	H352	H	0.521827	0.523949	0.402971
	H353	H	0.546240	0.549366	0.389052
	O354	O	1.046491	-0.160958	1.026815
	H355	H	1.030455	-0.166843	1.009294
	H356	H	1.040382	-0.155752	1.018178
	O357	O	-0.014045	0.135505	0.901792
	H358	H	-0.016876	0.123039	0.893912
	H359	H	-0.030882	0.137978	0.884551
	O360	O	0.520824	0.359354	0.484952
	H361	H	0.518802	0.373341	0.483367
	H362	H	0.527323	0.355880	0.482756
	O363	O	0.094775	0.925590	0.800648
	H364	H	0.104507	0.934736	0.809909
	H365	H	0.115742	0.916900	0.795583
	O366	O	1.107472	1.109469	-0.083500
	H367	H	1.113553	1.115512	-0.072664
	H368	H	1.107908	1.113859	-0.098390
	O369	O	0.084032	0.036579	0.816271
	H370	H	0.077138	0.026578	0.822957
	H371	H	0.093430	0.020893	0.825874
	O372	O	0.442456	0.560951	0.419638
	H373	H	0.437370	0.568398	0.414445
	H374	H	0.437843	0.557793	0.419385
	O375	O	0.610359	0.396948	0.377109
	H376	H	0.613767	0.386731	0.360938
	H377	H	0.623042	0.391897	0.383570
	O378	O	0.862943	0.825795	0.178162
	H379	H	0.887790	0.838068	0.173208
	H380	H	0.863085	0.841628	0.191030
	O381	O	1.017670	-0.123802	-0.135220
	H382	H	1.025891	-0.125158	-0.108950
	H383	H	1.017809	-0.119483	-0.154212
	O384	O	1.494607	0.512375	0.394525
	H385	H	1.486232	0.513189	0.381923
	H386	H	1.504170	0.518200	0.385115
	O387	O	-0.097268	-0.181482	-0.029940
	H388	H	-0.123965	-0.189877	-0.048566
	H389	H	-0.083003	-0.171853	-0.035368
	O390	O	0.601281	1.618096	0.466087
	H391	H	0.609124	1.620290	0.451364
	H392	H	0.593644	1.612068	0.463594
	O393	O	0.978984	1.180987	0.853444
	H394	H	0.985045	1.159882	0.855436
	H395	H	0.969319	1.186080	0.830762
	O396	O	0.498332	0.468952	0.611742
	H397	H	0.499005	0.471502	0.613147
	H398	H	0.507536	0.471766	0.603213
	O399	O	0.504172	0.360357	1.492012
	H400	H	0.509164	0.358075	1.471876
	H401	H	0.516754	0.370256	1.477642
	O402	O	0.305564	0.473154	0.553433
	H403	H	0.306956	0.480575	0.577648
	H404	H	0.293439	0.461294	0.566327
	O405	O	0.829352	0.941266	0.040093
	H406	H	0.834178	0.946011	0.035529
	H407	H	0.836264	0.940278	0.031423
	O408	O	0.888833	0.869833	-0.053227
	H409	H	0.885870	0.867109	-0.056277
	H410	H	0.899133	0.871395	-0.048646
	O411	O	1.086846	-0.050865	1.080866
	H412	H	1.073093	-0.028676	1.078392
	H413	H	1.090479	-0.029906	1.086185
	O414	O	0.809849	0.099581	-0.142414
	H415	H	0.824189	0.098702	-0.153569
	H416	H	0.818977	0.100503	-0.125729
	O417	O	0.538756	0.594549	0.558196
	H418	H	0.527698	0.594632	0.556729
	H419	H	0.542676	0.592780	0.549275
