data_Molecule from HDF5

_cell_length_a		16.187597
_cell_length_b		16.079876
_cell_length_c		16.362879
_cell_angle_alpha	90.827728
_cell_angle_beta	90.770033
_cell_angle_gamma	91.058078
_symmetry_space_group_name_H-M	'P 1'
_symmetry_Int_Tables_number		1

loop_
	_symmetry_equiv_pos_as_xyz
	x,y,z

loop_
	_atom_site_label
	_atom_site_type_symbol
	_atom_site_fract_x
	_atom_site_fract_y
	_atom_site_fract_z
	H0	H	0.384344	0.835515	0.710496
	H1	H	0.592447	0.164968	0.720874
	H2	H	0.583030	0.836949	0.283704
	H3	H	0.386498	0.165806	0.286211
	H4	H	0.696595	0.400777	0.836497
	H5	H	0.707561	0.606128	0.162701
	H6	H	0.270032	0.594913	0.838412
	H7	H	0.270265	0.400194	0.163434
	H8	H	0.820159	0.704852	0.402927
	H9	H	0.149973	0.719472	0.601082
	H10	H	0.821783	0.286717	0.592049
	H11	H	0.152999	0.290603	0.405178
	H12	H	0.822426	0.397139	0.711351
	H13	H	0.148459	0.609164	0.720838
	H14	H	0.824261	0.597812	0.281166
	H15	H	0.151594	0.402247	0.286556
	H16	H	0.388682	0.708949	0.836881
	H17	H	0.590238	0.720307	0.163623
	H18	H	0.579009	0.284535	0.837431
	H19	H	0.387663	0.286019	0.164071
	H20	H	0.690120	0.833017	0.404629
	H21	H	0.705180	0.165322	0.604194
	H22	H	0.271583	0.835628	0.593764
	H23	H	0.274453	0.166993	0.403445
	H24	H	0.885892	0.335507	0.209610
	H25	H	0.093655	0.665064	0.218784
	H26	H	0.081618	0.337351	0.782759
	H27	H	0.888970	0.667363	0.787072
	H28	H	0.197690	0.899609	0.337509
	H29	H	0.207468	0.106300	0.662464
	H30	H	0.769459	0.094131	0.337481
	H31	H	0.772011	0.901867	0.664496
	H32	H	0.319934	0.204749	0.904467
	H33	H	0.650126	0.219039	0.102003
	H34	H	0.322211	0.784302	0.094519
	H35	H	0.652215	0.790484	0.905413
	H36	H	0.322762	0.897071	0.213033
	H37	H	0.648767	0.109055	0.222324
	H38	H	0.323498	0.097659	0.783244
	H39	H	0.650035	0.899826	0.785501
	H40	H	0.888544	0.209334	0.336292
	H41	H	0.089997	0.220438	0.662949
	H42	H	0.077571	0.786549	0.336845
	H43	H	0.888392	0.786444	0.663630
	H44	H	0.190273	0.333659	0.903056
	H45	H	0.205268	0.664830	0.102375
	H46	H	0.772237	0.335102	0.092391
	H47	H	0.775837	0.668288	0.904120
	H48	H	0.410663	0.115781	0.594494
	H49	H	0.569281	0.888416	0.579967
	H50	H	0.581386	0.121519	0.405504
	H51	H	0.383512	0.882264	0.408814
	H52	H	0.587102	0.415361	0.116992
	H53	H	0.577466	0.599326	0.882680
	H54	H	0.391622	0.584359	0.116471
	H55	H	0.385451	0.401920	0.883875
	H56	H	0.104211	0.593785	0.410390
	H57	H	0.862710	0.601163	0.600661
	H58	H	0.108438	0.406418	0.601523
	H59	H	0.868590	0.395902	0.409232
	H60	H	0.101781	0.411530	0.583644
	H61	H	0.870161	0.593254	0.581657
	H62	H	0.105147	0.595259	0.407689
	H63	H	0.874895	0.415021	0.407130
	H64	H	0.407075	0.594442	0.115142
	H65	H	0.586030	0.594999	0.882578
	H66	H	0.573786	0.415081	0.113824
	H67	H	0.388321	0.401623	0.884223
	H68	H	0.574150	0.116723	0.414581
	H69	H	0.595112	0.875796	0.594708
	H70	H	0.392516	0.118608	0.586013
	H71	H	0.392684	0.880943	0.397994
	H72	H	0.906611	0.619182	0.100141
	H73	H	0.070825	0.385017	0.088761
	H74	H	0.075874	0.619787	0.905912
	H75	H	0.895289	0.383353	0.899149
	H76	H	0.082450	0.912572	0.616905
	H77	H	0.081407	0.098209	0.381723
	H78	H	0.896435	0.101508	0.618756
	H79	H	0.887851	0.908522	0.386843
	H80	H	0.604913	0.083336	0.900071
	H81	H	0.369538	0.091332	0.091845
	H82	H	0.603481	0.912611	0.091953
	H83	H	0.368417	0.908925	0.896256
	H84	H	0.602826	0.917626	0.096483
	H85	H	0.367901	0.087574	0.096427
	H86	H	0.609440	0.107485	0.909287
	H87	H	0.365706	0.895271	0.902634
	H88	H	0.889788	0.092609	0.618214
	H89	H	0.083154	0.089495	0.383541
	H90	H	0.079266	0.912031	0.616729
	H91	H	0.890013	0.897703	0.382975
	H92	H	0.078265	0.617851	0.917358
	H93	H	0.086671	0.378975	0.090311
	H94	H	0.899788	0.616820	0.086208
	H95	H	0.892179	0.386797	0.909529
	H96	H	0.394911	0.123526	0.605117
	H97	H	0.567425	0.879340	0.610526
	H98	H	0.585191	0.119570	0.417029
	H99	H	0.397681	0.886687	0.410132
	H100	H	0.579885	0.403679	0.118105
	H101	H	0.579136	0.589713	0.885544
	H102	H	0.391710	0.602373	0.120944
	H103	H	0.386806	0.399003	0.883206
	H104	H	0.105319	0.596820	0.410538
	H105	H	0.869420	0.579668	0.598451
	H106	H	0.102177	0.424872	0.598808
	H107	H	0.866217	0.404965	0.392274
	H108	H	0.891556	0.623336	0.097506
	H109	H	0.075874	0.378774	0.103092
	H110	H	0.086769	0.622043	0.909837
	H111	H	0.883671	0.381260	0.902597
	H112	H	0.080364	0.909027	0.617314
	H113	H	0.074730	0.093282	0.385931
	H114	H	0.900251	0.091639	0.614008
	H115	H	0.879630	0.901204	0.382001
	H116	H	0.599573	0.089956	0.924398
	H117	H	0.366272	0.093287	0.097257
	H118	H	0.605326	0.911056	0.097534
	H119	H	0.371194	0.906284	0.910873
	C120	C	0.367566	0.009787	0.621297
	C121	C	0.608856	0.990894	0.624898
	C122	C	0.605968	0.009391	0.381909
	C123	C	0.363741	0.992359	0.378321
	C124	C	0.606201	0.381022	0.008445
	C125	C	0.610775	0.625047	0.991890
	C126	C	0.366887	0.620045	0.009420
	C127	C	0.360980	0.375156	0.991832
	C128	C	-0.004053	0.621323	0.379624
	C129	C	0.976270	0.623670	0.623264
	C130	C	-0.004571	0.381815	0.621072
	C131	C	0.978828	0.377970	0.376531
	C132	C	0.867701	0.510024	0.120630
	C133	C	0.109838	0.490619	0.123923
	C134	C	0.106113	0.510414	0.880789
	C135	C	0.863668	0.492998	0.877211
	C136	C	0.106526	0.880632	0.509049
	C137	C	0.110332	0.124676	0.491627
	C138	C	0.865494	0.121550	0.509216
	C139	C	0.860235	0.875927	0.491911
	C140	C	0.495497	0.120220	0.881245
	C141	C	0.476730	0.123434	0.125096
	C142	C	0.495214	0.881469	0.121727
	C143	C	0.477802	0.877195	0.877199
	C144	C	0.366315	0.885131	0.673516
	C145	C	0.610678	0.115427	0.682307
	C146	C	0.602622	0.885671	0.323237
	C147	C	0.366521	0.116551	0.324030
	C148	C	0.659269	0.381043	0.885478
	C149	C	0.668635	0.625381	0.114186
	C150	C	0.309455	0.615516	0.886807
	C151	C	0.307653	0.379312	0.114731
	C152	C	0.870477	0.670882	0.381568
	C153	C	0.100389	0.681314	0.621302
	C154	C	0.871234	0.324357	0.614716
	C155	C	0.103219	0.326014	0.382798
	C156	C	0.871651	0.379592	0.674021
	C157	C	0.099654	0.626895	0.681130
	C158	C	0.872694	0.617441	0.321158
	C159	C	0.102645	0.381605	0.323864
	C160	C	0.368651	0.672300	0.886015
	C161	C	0.610405	0.682408	0.114522
	C162	C	0.600828	0.323282	0.885853
	C163	C	0.366228	0.322746	0.115078
	C164	C	0.655780	0.883398	0.383572
	C165	C	0.666908	0.115618	0.624270
	C166	C	0.309634	0.885292	0.615741
	C167	C	0.310743	0.117196	0.382224
	C168	C	0.867034	0.385239	0.172793
	C169	C	0.111735	0.615122	0.180951
	C170	C	0.102021	0.386282	0.822296
	C171	C	0.867955	0.618058	0.824167
	C172	C	0.159226	0.881232	0.385987
	C173	C	0.168423	0.125284	0.613927
	C174	C	0.808272	0.115800	0.386300
	C175	C	0.808460	0.880675	0.615436
	C176	C	0.370068	0.169916	0.883741
	C177	C	0.600612	0.181339	0.123099
	C178	C	0.371248	0.823387	0.116013
	C179	C	0.602366	0.825821	0.883338
	C180	C	0.371639	0.879310	0.175111
	C181	C	0.599949	0.126543	0.182761
	C182	C	0.372118	0.116931	0.823189
	C183	C	0.601235	0.880516	0.823777
	C184	C	0.867490	0.173056	0.385455
	C185	C	0.109935	0.182118	0.614100
	C186	C	0.100002	0.824433	0.385775
	C187	C	0.866359	0.823194	0.615141
	C188	C	0.156146	0.384226	0.882135
	C189	C	0.167139	0.615394	0.122746
	C190	C	0.810223	0.385100	0.114720
	C191	C	0.811598	0.618426	0.882146
	C192	C	0.392246	0.096867	0.601284
	C193	C	0.584560	0.903597	0.601759
	C194	C	0.586138	0.096687	0.405466
	C195	C	0.384880	0.905704	0.399421
	C196	C	0.586440	0.404488	0.094102
	C197	C	0.587552	0.601481	0.905984
	C198	C	0.389955	0.599558	0.095402
	C199	C	0.380827	0.395070	0.906088
	C200	C	0.082682	0.601298	0.402800
	C201	C	0.889907	0.598579	0.600249
	C202	C	0.081828	0.406806	0.600598
	C203	C	0.892253	0.399011	0.396866
	C204	C	0.892206	0.597233	0.100593
	C205	C	0.085189	0.403469	0.100714
	C206	C	0.086160	0.597345	0.904388
	C207	C	0.884155	0.406268	0.897648
	C208	C	0.086572	0.904147	0.594715
	C209	C	0.086679	0.100742	0.405794
	C210	C	0.888769	0.101300	0.594818
	C211	C	0.879921	0.896256	0.406184
	C212	C	0.582261	0.099763	0.904468
	C213	C	0.390408	0.098235	0.102025
	C214	C	0.581708	0.906486	0.101280
	C215	C	0.390816	0.897333	0.897221
	Zn216	Zn	0.486927	0.000450	0.751262
	Zn217	Zn	0.486226	0.001816	0.251992
	Zn218	Zn	0.737838	0.502295	-0.000174
	Zn219	Zn	0.234699	0.499282	0.001333
	Zn220	Zn	-0.015755	0.749448	0.500544
	Zn221	Zn	-0.012255	0.252063	0.499655
	Zn222	Zn	-0.014299	0.502534	0.750657
	Zn223	Zn	-0.011549	0.500542	0.250088
	Zn224	Zn	0.487532	0.751624	0.000590
	Zn225	Zn	0.484831	0.248921	0.000959
	Zn226	Zn	0.733981	-0.000811	0.501542
	Zn227	Zn	0.237807	0.002077	0.500247
	N228	N	0.401523	0.963610	0.676930
	N229	N	0.575506	0.036921	0.682918
	N230	N	0.572353	0.965113	0.322222
	N231	N	0.398836	0.037976	0.321356
	N232	N	0.662553	0.416420	0.962593
	N233	N	0.669109	0.590560	0.036921
	N234	N	0.308389	0.583783	0.964608
	N235	N	0.303896	0.411024	0.037032
	N236	N	0.948007	0.673519	0.417337
	N237	N	0.022590	0.679360	0.585774
	N238	N	0.949220	0.325585	0.582430
	N239	N	0.024997	0.323615	0.414908
	N240	N	0.950055	0.414417	0.678325
	N241	N	0.021619	0.591694	0.682363
	N242	N	0.951835	0.587602	0.319776
	N243	N	0.024278	0.412799	0.319528
	N244	N	0.403827	0.675099	0.963087
	N245	N	0.575140	0.682263	0.037383
	N246	N	0.568481	0.323008	0.963283
	N247	N	0.398371	0.319592	0.037772
	N248	N	0.657920	0.961391	0.419410
	N249	N	0.665884	0.037171	0.589109
	N250	N	0.310277	0.963991	0.583837
	N251	N	0.308823	0.038919	0.415213
	N252	N	0.902097	0.464060	0.176694
	N253	N	0.076561	0.536300	0.181611
	N254	N	0.071748	0.465578	0.821171
	N255	N	0.899361	0.539034	0.820768
	N256	N	0.163591	0.915421	0.463700
	N257	N	0.168845	0.090450	0.536532
	N258	N	0.806656	0.084611	0.464254
	N259	N	0.804647	0.912710	0.538068
	N260	N	0.447809	0.172222	0.919203
	N261	N	0.522683	0.179699	0.087989
	N262	N	0.449239	0.824687	0.083465
	N263	N	0.524440	0.823551	0.915870
	N264	N	0.449608	0.915003	0.178484
	N265	N	0.521972	0.091276	0.183983
	N266	N	0.451186	0.086811	0.821779
	N267	N	0.522671	0.911732	0.819817
	N268	N	0.902325	0.176840	0.462705
	N269	N	0.074629	0.181738	0.537001
	N270	N	0.067634	0.824018	0.463105
	N271	N	0.897770	0.819903	0.537388
	N272	N	0.159189	0.462428	0.917743
	N273	N	0.166053	0.537102	0.088040
	N274	N	0.810584	0.463824	0.083029
	N275	N	0.808698	0.539913	0.914528
	O276	O	-0.146480	-0.066731	0.073509
	H277	H	-0.152739	-0.065833	0.067098
	H278	H	-0.153309	-0.071613	0.087012
	O279	O	0.543228	0.515212	0.516935
	H280	H	0.541122	0.505779	0.506402
	H281	H	0.549689	0.511522	0.511129
	O282	O	0.538004	0.510033	0.562930
	H283	H	0.556409	0.522842	0.569776
	H284	H	0.542813	0.514115	0.551639
	O285	O	-0.021866	1.046759	1.001676
	H286	H	-0.020872	1.050829	0.993455
	H287	H	-0.025436	1.043603	0.997424
	O288	O	0.506032	0.515351	0.444617
	H289	H	0.509541	0.526080	0.437373
	H290	H	0.504811	0.509014	0.448897
	O291	O	0.980265	1.060175	1.055113
	H292	H	0.996579	1.072720	1.054889
	H293	H	0.981909	1.060458	1.061441
	O294	O	1.532378	0.551289	0.535447
	H295	H	1.535219	0.547304	0.533385
	H296	H	1.534271	0.547587	0.531585
	O297	O	0.954263	0.005074	0.941212
	H298	H	0.951847	-0.001077	0.926800
	H299	H	0.957549	0.003785	0.948464
	O300	O	0.555437	0.501317	0.563559
	H301	H	0.543497	0.508070	0.576885
	H302	H	0.553680	0.506574	0.570055
	O303	O	0.964331	-0.049763	-0.044337
	H304	H	0.950571	-0.052308	-0.046905
	H305	H	0.963030	-0.031907	-0.046921
	O306	O	0.009135	1.055497	0.943712
	H307	H	0.014427	1.048698	0.948357
	H308	H	0.010097	1.068288	0.934104
	O309	O	0.450122	0.519331	0.528255
	H310	H	0.454124	0.523836	0.538563
	H311	H	0.450690	0.511941	0.531858
	O312	O	1.078948	0.156430	1.006203
	H313	H	1.080629	0.148289	1.016869
	H314	H	1.086049	0.166989	1.012633
	O315	O	0.487837	0.530382	0.549384
	H316	H	0.499950	0.527138	0.549053
	H317	H	0.481905	0.533661	0.561458
	O318	O	0.501796	0.548481	0.476150
	H319	H	0.506333	0.540846	0.482832
	H320	H	0.500006	0.553096	0.467813
	O321	O	1.012448	1.043948	1.026110
	H322	H	1.015516	1.045036	1.035253
	H323	H	1.014058	1.044725	1.026892
	O324	O	1.025596	0.020371	0.067236
	H325	H	1.041513	0.018580	0.071540
	H326	H	1.019047	0.017416	0.062896
	O327	O	0.510000	0.372324	0.484944
	H328	H	0.505470	0.375655	0.476245
	H329	H	0.499503	0.363130	0.481701
	O330	O	0.943170	-0.059079	1.055545
	H331	H	0.940101	-0.066071	1.047748
	H332	H	0.939243	-0.066210	1.058724
	O333	O	1.504522	1.465774	-0.537899
	H334	H	1.504926	1.473045	-0.546846
	H335	H	1.511732	1.472165	-0.528511
	O336	O	0.994589	1.032767	0.953408
	H337	H	0.990322	1.034492	0.956173
	H338	H	0.997310	1.046132	0.959584
	O339	O	0.407026	0.385052	0.446565
	H340	H	0.417287	0.375068	0.449382
	H341	H	0.414478	0.382267	0.449618
	O342	O	-0.050728	1.031900	0.026896
	H343	H	-0.052560	1.027619	0.028532
	H344	H	-0.034899	1.030740	0.029027
	O345	O	-0.007330	0.008652	0.003064
	H346	H	0.003273	0.007274	0.007574
	H347	H	-0.006823	0.008908	-0.002929
	O348	O	0.531415	0.479784	0.371728
	H349	H	0.520670	0.484626	0.364827
	H350	H	0.537982	0.484798	0.371095
	O351	O	0.472223	0.497348	0.539789
	H352	H	0.453772	0.486739	0.534894
	H353	H	0.478053	0.502944	0.532085
	O354	O	0.492640	0.489694	0.511479
	H355	H	0.498623	0.482473	0.513765
	H356	H	0.498839	0.482716	0.526476
	O357	O	0.452054	0.485912	0.489214
	H358	H	0.443206	0.488320	0.494189
	H359	H	0.452258	0.483468	0.471174
	O360	O	0.061754	0.083201	0.106287
	H361	H	0.063748	0.089261	0.118881
	H362	H	0.047614	0.072448	0.098427
	O363	O	0.425380	0.590946	0.525493
	H364	H	0.425314	0.589619	0.535020
	H365	H	0.424140	0.591685	0.523773
	O366	O	-0.080334	-0.065752	1.010612
	H367	H	-0.073749	-0.065191	1.017230
	H368	H	-0.078264	-0.069636	1.017516
	O369	O	0.415555	0.458255	0.531381
	H370	H	0.414809	0.463811	0.536682
	H371	H	0.411250	0.449067	0.535325
