data_Molecule from HDF5

_cell_length_a		16.167556
_cell_length_b		16.179763
_cell_length_c		16.330666
_cell_angle_alpha	89.823240
_cell_angle_beta	89.863702
_cell_angle_gamma	90.052741
_symmetry_space_group_name_H-M	'P 1'
_symmetry_Int_Tables_number		1

loop_
	_symmetry_equiv_pos_as_xyz
	x,y,z

loop_
	_atom_site_label
	_atom_site_type_symbol
	_atom_site_fract_x
	_atom_site_fract_y
	_atom_site_fract_z
	H0	H	0.398014	0.841565	0.713007
	H1	H	0.597051	0.169007	0.709990
	H2	H	0.598007	0.840694	0.281624
	H3	H	0.398266	0.169069	0.279613
	H4	H	0.714918	0.407364	0.832304
	H5	H	0.716590	0.602499	0.160357
	H6	H	0.288531	0.604501	0.832665
	H7	H	0.285341	0.405524	0.158976
	H8	H	0.834130	0.718653	0.397412
	H9	H	0.164708	0.718056	0.592613
	H10	H	0.833915	0.293544	0.593505
	H11	H	0.164365	0.292058	0.398364
	H12	H	0.836467	0.404207	0.712858
	H13	H	0.164192	0.605196	0.708602
	H14	H	0.836468	0.605786	0.279237
	H15	H	0.164231	0.405435	0.281175
	H16	H	0.404393	0.719372	0.832584
	H17	H	0.600135	0.719342	0.160225
	H18	H	0.600299	0.290690	0.832798
	H19	H	0.400619	0.289585	0.158916
	H20	H	0.712192	0.839473	0.399878
	H21	H	0.709337	0.170562	0.592074
	H22	H	0.286281	0.839976	0.594332
	H23	H	0.286339	0.170886	0.399485
	H24	H	0.900027	0.340850	0.210944
	H25	H	0.101865	0.669033	0.211075
	H26	H	0.101622	0.341885	0.780136
	H27	H	0.902050	0.669493	0.781489
	H28	H	0.213187	0.907708	0.333171
	H29	H	0.213712	0.104242	0.660479
	H30	H	0.783615	0.105220	0.333605
	H31	H	0.784129	0.907119	0.661285
	H32	H	0.335050	0.219094	0.899533
	H33	H	0.665436	0.216261	0.092220
	H34	H	0.335400	0.789907	0.095520
	H35	H	0.665786	0.795574	0.900975
	H36	H	0.334927	0.904630	0.211165
	H37	H	0.663751	0.105261	0.210961
	H38	H	0.334986	0.104626	0.782671
	H39	H	0.663935	0.906355	0.781679
	H40	H	0.902668	0.218247	0.332422
	H41	H	0.097223	0.220378	0.660510
	H42	H	0.097281	0.792193	0.332996
	H43	H	0.898249	0.789056	0.660505
	H44	H	0.214509	0.340421	0.899143
	H45	H	0.212738	0.670812	0.091677
	H46	H	0.789458	0.339068	0.091949
	H47	H	0.788743	0.669936	0.897263
	H48	H	0.404462	0.123688	0.588079
	H49	H	0.578878	0.893107	0.583461
	H50	H	0.593333	0.124297	0.399405
	H51	H	0.407123	0.886220	0.395629
	H52	H	0.599776	0.408095	0.115180
	H53	H	0.599245	0.601454	0.878486
	H54	H	0.407023	0.600490	0.113911
	H55	H	0.413157	0.394986	0.876171
	H56	H	0.116823	0.599520	0.403503
	H57	H	0.879617	0.601595	0.592120
	H58	H	0.114030	0.424386	0.587026
	H59	H	0.880944	0.410658	0.401130
	H60	H	0.121926	0.409374	0.598481
	H61	H	0.884086	0.597064	0.582384
	H62	H	0.117002	0.597566	0.401181
	H63	H	0.882930	0.413402	0.404061
	H64	H	0.406459	0.595697	0.112211
	H65	H	0.594818	0.596386	0.881739
	H66	H	0.595553	0.416834	0.111163
	H67	H	0.391452	0.419627	0.876578
	H68	H	0.586108	0.120202	0.401059
	H69	H	0.603543	0.885905	0.582270
	H70	H	0.406896	0.123318	0.592777
	H71	H	0.411548	0.890971	0.407827
	H72	H	0.913509	0.620913	0.088099
	H73	H	0.093575	0.389816	0.083039
	H74	H	0.106095	0.626634	0.902245
	H75	H	0.910185	0.387666	0.901420
	H76	H	0.097208	0.912450	0.614817
	H77	H	0.091905	0.089767	0.383670
	H78	H	0.907378	0.092657	0.609995
	H79	H	0.898327	0.913888	0.379538
	H80	H	0.617350	0.098133	0.903344
	H81	H	0.379929	0.102005	0.091156
	H82	H	0.615839	0.916431	0.087778
	H83	H	0.385052	0.921619	0.906184
	H84	H	0.618189	0.913538	0.093861
	H85	H	0.383314	0.097903	0.084320
	H86	H	0.616416	0.095799	0.901206
	H87	H	0.378113	0.910486	0.895129
	H88	H	0.908608	0.107558	0.614676
	H89	H	0.084665	0.105400	0.381722
	H90	H	0.088512	0.915519	0.610061
	H91	H	0.909225	0.918390	0.383893
	H92	H	0.089131	0.624233	0.890237
	H93	H	0.097812	0.385176	0.092910
	H94	H	0.907345	0.621592	0.084842
	H95	H	0.908075	0.387620	0.903673
	H96	H	0.409558	0.121359	0.588602
	H97	H	0.590116	0.882510	0.604637
	H98	H	0.592213	0.121666	0.407034
	H99	H	0.398780	0.886061	0.406583
	H100	H	0.590228	0.408481	0.111727
	H101	H	0.592806	0.603168	0.880537
	H102	H	0.410527	0.597207	0.111632
	H103	H	0.422180	0.424802	0.886710
	H104	H	0.118765	0.600681	0.401516
	H105	H	0.882775	0.589925	0.592176
	H106	H	0.117208	0.405084	0.579035
	H107	H	0.882024	0.415518	0.400680
	H108	H	0.907772	0.623499	0.092073
	H109	H	0.087091	0.388420	0.092239
	H110	H	0.088063	0.618853	0.910163
	H111	H	0.907981	0.385907	0.900755
	H112	H	0.088987	0.906146	0.614207
	H113	H	0.102100	0.102997	0.376958
	H114	H	0.893929	0.100397	0.616593
	H115	H	0.909385	0.906559	0.380489
	H116	H	0.618299	0.097840	0.900433
	H117	H	0.382509	0.093848	0.091693
	H118	H	0.617656	0.909345	0.087722
	H119	H	0.381791	0.905783	0.910869
	C120	C	0.377556	0.013871	0.618813
	C121	C	0.619068	0.996141	0.617547
	C122	C	0.620011	0.013600	0.374653
	C123	C	0.377229	0.996918	0.374816
	C124	C	0.623103	0.383235	0.004342
	C125	C	0.624528	0.628183	0.988041
	C126	C	0.379928	0.626879	0.004771
	C127	C	0.379245	0.383758	0.987548
	C128	C	0.008339	0.627217	0.373766
	C129	C	0.991083	0.625733	0.616851
	C130	C	0.008785	0.384243	0.617253
	C131	C	0.990921	0.384430	0.374257
	C132	C	0.880171	0.513096	0.117113
	C133	C	0.122259	0.496501	0.117659
	C134	C	0.123224	0.514102	0.873417
	C135	C	0.879812	0.496223	0.873693
	C136	C	0.121160	0.883202	0.505387
	C137	C	0.121011	0.127930	0.488581
	C138	C	0.876130	0.128161	0.505301
	C139	C	0.876610	0.883594	0.489245
	C140	C	0.508484	0.126704	0.874091
	C141	C	0.491001	0.126404	0.117623
	C142	C	0.508242	0.883756	0.118297
	C143	C	0.490899	0.884639	0.875514
	C144	C	0.378869	0.890310	0.674440
	C145	C	0.617021	0.120314	0.672013
	C146	C	0.618244	0.889332	0.320021
	C147	C	0.378865	0.120388	0.318798
	C148	C	0.677563	0.386413	0.881201
	C149	C	0.679059	0.623752	0.111314
	C150	C	0.325690	0.624785	0.881474
	C151	C	0.323298	0.385581	0.110267
	C152	C	0.883868	0.681508	0.376760
	C153	C	0.115280	0.680788	0.613316
	C154	C	0.883600	0.330402	0.614718
	C155	C	0.115071	0.329409	0.377112
	C156	C	0.885156	0.385163	0.674090
	C157	C	0.115072	0.624582	0.671173
	C158	C	0.885030	0.625456	0.317802
	C159	C	0.115106	0.385887	0.319047
	C160	C	0.383183	0.682228	0.881651
	C161	C	0.621404	0.682267	0.111221
	C162	C	0.620585	0.328408	0.881627
	C163	C	0.380495	0.327750	0.110194
	C164	C	0.674910	0.889001	0.378633
	C165	C	0.672629	0.121172	0.613337
	C166	C	0.322955	0.889755	0.615755
	C167	C	0.323176	0.121269	0.378143
	C168	C	0.880927	0.389856	0.172938
	C169	C	0.120713	0.620289	0.172465
	C170	C	0.121462	0.390565	0.818538
	C171	C	0.881724	0.620029	0.818691
	C172	C	0.175839	0.886844	0.382092
	C173	C	0.175585	0.124727	0.611724
	C174	C	0.821770	0.125285	0.382435
	C175	C	0.821334	0.885899	0.612089
	C176	C	0.384518	0.182007	0.878000
	C177	C	0.615714	0.180122	0.113880
	C178	C	0.384471	0.827869	0.115907
	C179	C	0.615909	0.831383	0.879102
	C180	C	0.384032	0.885051	0.173026
	C181	C	0.614760	0.124605	0.172886
	C182	C	0.384193	0.124961	0.820266
	C183	C	0.614987	0.886730	0.819937
	C184	C	0.880768	0.181835	0.381867
	C185	C	0.117904	0.182728	0.611559
	C186	C	0.118098	0.829561	0.381855
	C187	C	0.878384	0.827373	0.611667
	C188	C	0.177377	0.389791	0.877727
	C189	C	0.176036	0.621192	0.113080
	C190	C	0.825860	0.388820	0.113555
	C191	C	0.825578	0.620270	0.876773
	C192	C	0.400351	0.100603	0.596274
	C193	C	0.597386	0.909703	0.596440
	C194	C	0.597255	0.099552	0.395883
	C195	C	0.399347	0.910141	0.396620
	C196	C	0.601661	0.404736	0.090279
	C197	C	0.602225	0.606870	0.902403
	C198	C	0.401794	0.604317	0.090565
	C199	C	0.402163	0.406431	0.901926
	C200	C	0.095149	0.605476	0.395495
	C201	C	0.904608	0.602827	0.595298
	C202	C	0.095136	0.406411	0.594754
	C203	C	0.904467	0.406576	0.395784
	C204	C	0.902847	0.599597	0.094877
	C205	C	0.099633	0.410180	0.095904
	C206	C	0.101019	0.600892	0.894723
	C207	C	0.902049	0.409416	0.895566
	C208	C	0.098271	0.904980	0.590835
	C209	C	0.099208	0.105878	0.402776
	C210	C	0.897188	0.106793	0.591656
	C211	C	0.899069	0.906278	0.403481
	C212	C	0.595157	0.103957	0.895402
	C213	C	0.404383	0.104271	0.095761
	C214	C	0.594825	0.906618	0.096356
	C215	C	0.403956	0.906431	0.897609
	Zn216	Zn	0.498781	0.004821	0.746409
	Zn217	Zn	0.498825	0.004986	0.245818
	Zn218	Zn	0.752571	0.504556	-0.004438
	Zn219	Zn	0.250628	0.505599	-0.004201
	Zn220	Zn	-0.001132	0.754402	0.496498
	Zn221	Zn	-0.000853	0.256839	0.496609
	Zn222	Zn	0.000977	0.505347	0.745223
	Zn223	Zn	0.000590	0.505260	0.245680
	Zn224	Zn	0.500411	0.756355	-0.003580
	Zn225	Zn	0.500882	0.254672	-0.003866
	Zn226	Zn	0.747712	0.005289	0.497240
	Zn227	Zn	0.249633	0.005415	0.497284
	N228	N	0.411917	0.968653	0.676344
	N229	N	0.584325	0.041929	0.674669
	N230	N	0.585083	0.967496	0.317145
	N231	N	0.411663	0.041961	0.316446
	N232	N	0.679381	0.419710	0.958517
	N233	N	0.681486	0.591175	0.033499
	N234	N	0.323276	0.591424	0.958990
	N235	N	0.322418	0.419725	0.032911
	N236	N	0.961662	0.682654	0.410943
	N237	N	0.037101	0.681571	0.580208
	N238	N	0.961336	0.329410	0.580352
	N239	N	0.037176	0.328330	0.410791
	N240	N	0.963791	0.418065	0.675671
	N241	N	0.036816	0.591236	0.673481
	N242	N	0.963477	0.592684	0.315889
	N243	N	0.037013	0.419448	0.317129
	N244	N	0.416317	0.683445	0.959268
	N245	N	0.588169	0.685066	0.033771
	N246	N	0.587338	0.326246	0.959330
	N247	N	0.414635	0.326543	0.032987
	N248	N	0.676216	0.967096	0.411798
	N249	N	0.674152	0.043059	0.580213
	N250	N	0.322181	0.967796	0.581690
	N251	N	0.322173	0.043494	0.412422
	N252	N	0.913985	0.468244	0.175245
	N253	N	0.087845	0.541805	0.175247
	N254	N	0.088591	0.469038	0.815629
	N255	N	0.914930	0.541830	0.816860
	N256	N	0.177970	0.919482	0.459835
	N257	N	0.177738	0.091472	0.534381
	N258	N	0.818738	0.092620	0.460261
	N259	N	0.820272	0.920203	0.534869
	N260	N	0.462842	0.183096	0.910883
	N261	N	0.537884	0.181309	0.080169
	N262	N	0.462679	0.826937	0.082448
	N263	N	0.537877	0.829946	0.912866
	N264	N	0.462135	0.918945	0.174669
	N265	N	0.536111	0.091933	0.175332
	N266	N	0.462116	0.091246	0.817781
	N267	N	0.536242	0.918998	0.817698
	N268	N	0.913791	0.183727	0.459381
	N269	N	0.084494	0.184547	0.534052
	N270	N	0.084710	0.827047	0.459411
	N271	N	0.911952	0.825575	0.534111
	N272	N	0.178512	0.467649	0.911071
	N273	N	0.177098	0.543314	0.079654
	N274	N	0.825227	0.466764	0.079661
	N275	N	0.824217	0.542102	0.910126
	O276	O	0.452755	0.488574	0.522882
	H277	H	0.438039	0.494359	0.523389
	H278	H	0.455673	0.499799	0.529643
	O279	O	0.537288	0.520683	0.514265
	H280	H	0.529120	0.518889	0.525772
	H281	H	0.533355	0.522645	0.518802
	O282	O	0.474221	0.573613	0.526474
	H283	H	0.474170	0.570129	0.522922
	H284	H	0.474983	0.572065	0.516783
	O285	O	-0.016601	0.957246	1.028962
	H286	H	-0.024019	0.950795	1.039390
	H287	H	-0.020220	0.949477	1.027613
	O288	O	0.503016	0.492911	0.515355
	H289	H	0.505180	0.494041	0.524861
	H290	H	0.503914	0.486589	0.511973
	O291	O	-0.045209	-0.037155	1.048082
	H292	H	-0.043347	-0.029321	1.048034
	H293	H	-0.041925	-0.041621	1.043551
	O294	O	0.425126	0.448252	0.522456
	H295	H	0.416958	0.447837	0.530992
	H296	H	0.424113	0.448810	0.535917
	O297	O	0.561316	0.504721	0.531462
	H298	H	0.558529	0.513552	0.531240
	H299	H	0.567441	0.512380	0.523073
	O300	O	0.541496	0.398601	0.494876
	H301	H	0.542873	0.400713	0.500884
	H302	H	0.538375	0.398883	0.492285
	O303	O	0.531814	0.499888	0.487799
	H304	H	0.537362	0.509013	0.489125
	H305	H	0.527372	0.491507	0.479483
	O306	O	0.954064	-0.048104	1.065245
	H307	H	0.959376	-0.042750	1.066338
	H308	H	0.945649	-0.046171	1.070936
	O309	O	0.558512	0.472018	0.425049
	H310	H	0.560092	0.461409	0.429209
	H311	H	0.555411	0.474707	0.419641
	O312	O	0.396705	0.532750	0.473544
	H313	H	0.411562	0.524744	0.470188
	H314	H	0.401192	0.537009	0.470123
	O315	O	0.904474	-0.066693	1.063715
	H316	H	0.901587	-0.074964	1.071057
	H317	H	0.899149	-0.057463	1.067523
	O318	O	-0.072937	-0.111741	0.064418
	H319	H	-0.064483	-0.112137	0.063824
	H320	H	-0.076351	-0.121339	0.063068
	O321	O	0.548846	0.483528	0.551257
	H322	H	0.549361	0.483037	0.554594
	H323	H	0.551679	0.463376	0.543768
	O324	O	0.969770	-0.084714	0.048286
	H325	H	0.969695	-0.082511	0.048651
	H326	H	0.971031	-0.098565	0.047070
	O327	O	0.936510	0.976718	0.042359
	H328	H	0.933227	0.968495	0.044247
	H329	H	0.932465	0.978469	0.045688
	O330	O	0.445335	0.551511	0.433049
	H331	H	0.441146	0.550847	0.416171
	H332	H	0.446992	0.547822	0.427285
	O333	O	0.467438	0.517477	0.472722
	H334	H	0.463465	0.520117	0.475017
	H335	H	0.475976	0.505330	0.467088
