data_Molecule from HDF5

_cell_length_a		16.217513
_cell_length_b		16.477648
_cell_length_c		16.452833
_cell_angle_alpha	90.147901
_cell_angle_beta	90.178656
_cell_angle_gamma	90.041004
_symmetry_space_group_name_H-M	'P 1'
_symmetry_Int_Tables_number		1

loop_
	_symmetry_equiv_pos_as_xyz
	x,y,z

loop_
	_atom_site_label
	_atom_site_type_symbol
	_atom_site_fract_x
	_atom_site_fract_y
	_atom_site_fract_z
	H0	H	0.379452	0.841515	0.721665
	H1	H	0.600631	0.153553	0.721735
	H2	H	0.601027	0.840251	0.270245
	H3	H	0.385898	0.154864	0.276201
	H4	H	0.713375	0.391359	0.837988
	H5	H	0.709377	0.600898	0.156144
	H6	H	0.265183	0.605481	0.838441
	H7	H	0.272118	0.395742	0.154138
	H8	H	0.831632	0.722359	0.385196
	H9	H	0.149003	0.721638	0.604021
	H10	H	0.830859	0.275527	0.603973
	H11	H	0.149130	0.277754	0.391079
	H12	H	0.831073	0.391842	0.718999
	H13	H	0.148450	0.609252	0.720686
	H14	H	0.830470	0.605077	0.273059
	H15	H	0.148966	0.393492	0.276194
	H16	H	0.376002	0.725666	0.840332
	H17	H	0.599163	0.722219	0.152655
	H18	H	0.602326	0.271127	0.839708
	H19	H	0.387401	0.277872	0.153639
	H20	H	0.712515	0.839214	0.391205
	H21	H	0.711539	0.155742	0.601530
	H22	H	0.266684	0.840123	0.602909
	H23	H	0.272521	0.156638	0.395691
	H24	H	0.881347	0.341552	0.219486
	H25	H	0.097609	0.656098	0.218626
	H26	H	0.101584	0.342721	0.769245
	H27	H	0.880734	0.655951	0.772182
	H28	H	0.209342	0.894337	0.336525
	H29	H	0.210781	0.100808	0.655685
	H30	H	0.769751	0.099885	0.337501
	H31	H	0.770993	0.893637	0.655379
	H32	H	0.329577	0.217562	0.891151
	H33	H	0.652239	0.217173	0.101923
	H34	H	0.330028	0.776933	0.099906
	H35	H	0.649988	0.775436	0.888926
	H36	H	0.329394	0.891186	0.215858
	H37	H	0.650658	0.102135	0.218044
	H38	H	0.329744	0.102468	0.775067
	H39	H	0.650388	0.890868	0.775097
	H40	H	0.880820	0.220620	0.339366
	H41	H	0.100921	0.223434	0.653436
	H42	H	0.098642	0.774025	0.338442
	H43	H	0.879672	0.771813	0.651574
	H44	H	0.210415	0.339242	0.891701
	H45	H	0.211775	0.656805	0.099852
	H46	H	0.770871	0.339324	0.098636
	H47	H	0.766921	0.656660	0.890520
	H48	H	0.399737	0.108095	0.578085
	H49	H	0.566454	0.889898	0.583307
	H50	H	0.576553	0.110927	0.400799
	H51	H	0.404418	0.884682	0.404673
	H52	H	0.571527	0.408740	0.105470
	H53	H	0.578394	0.582952	0.883851
	H54	H	0.398713	0.586214	0.109156
	H55	H	0.400069	0.407004	0.881235
	H56	H	0.105616	0.587125	0.405710
	H57	H	0.874079	0.588570	0.587076
	H58	H	0.101786	0.410715	0.576755
	H59	H	0.873340	0.407921	0.407382
	H60	H	0.102298	0.417469	0.586002
	H61	H	0.878128	0.586718	0.576678
	H62	H	0.104293	0.588310	0.409942
	H63	H	0.874981	0.410573	0.409832
	H64	H	0.407830	0.582594	0.104001
	H65	H	0.573292	0.587846	0.884742
	H66	H	0.581299	0.399650	0.112429
	H67	H	0.402793	0.409044	0.881870
	H68	H	0.573365	0.106147	0.410354
	H69	H	0.586849	0.884221	0.576489
	H70	H	0.398134	0.112691	0.591491
	H71	H	0.398031	0.882834	0.408087
	H72	H	0.898349	0.611296	0.082779
	H73	H	0.088667	0.383805	0.080865
	H74	H	0.077616	0.611534	0.906670
	H75	H	0.908574	0.388118	0.905848
	H76	H	0.078171	0.916038	0.606471
	H77	H	0.073610	0.083103	0.387827
	H78	H	0.899360	0.088120	0.610255
	H79	H	0.897340	0.912625	0.382339
	H80	H	0.608631	0.094457	0.907382
	H81	H	0.375798	0.087520	0.082715
	H82	H	0.603348	0.912295	0.082581
	H83	H	0.376012	0.911190	0.908461
	H84	H	0.606147	0.910514	0.087524
	H85	H	0.375138	0.086080	0.087510
	H86	H	0.600669	0.082120	0.917468
	H87	H	0.375833	0.910255	0.908793
	H88	H	0.905020	0.085758	0.608759
	H89	H	0.075590	0.095988	0.381468
	H90	H	0.069982	0.906448	0.606600
	H91	H	0.909081	0.911435	0.386225
	H92	H	0.075802	0.609502	0.909466
	H93	H	0.080205	0.381053	0.097326
	H94	H	0.900041	0.613495	0.090126
	H95	H	0.902604	0.388158	0.911061
	H96	H	0.411028	0.107346	0.587809
	H97	H	0.580810	0.880081	0.596685
	H98	H	0.583730	0.110075	0.409644
	H99	H	0.399181	0.881496	0.400959
	H100	H	0.585132	0.413563	0.108639
	H101	H	0.578992	0.589754	0.881536
	H102	H	0.407414	0.592003	0.108838
	H103	H	0.403565	0.405264	0.881064
	H104	H	0.102947	0.583685	0.408076
	H105	H	0.877859	0.578765	0.584087
	H106	H	0.106860	0.406609	0.585993
	H107	H	0.874102	0.411415	0.406218
	H108	H	0.906227	0.610145	0.085610
	H109	H	0.070435	0.388588	0.083151
	H110	H	0.079688	0.611482	0.909893
	H111	H	0.901236	0.385347	0.903722
	H112	H	0.081400	0.904901	0.611177
	H113	H	0.086573	0.086543	0.381713
	H114	H	0.904338	0.091683	0.611009
	H115	H	0.902719	0.901848	0.381927
	H116	H	0.604784	0.078693	0.900843
	H117	H	0.374265	0.090893	0.086642
	H118	H	0.605288	0.907070	0.083399
	H119	H	0.376942	0.910783	0.909696
	C120	C	0.369137	0.005491	0.618097
	C121	C	0.612153	0.988737	0.618424
	C122	C	0.611459	0.005071	0.374476
	C123	C	0.368423	0.987971	0.373816
	C124	C	0.613181	0.374668	0.004777
	C125	C	0.610723	0.619144	0.988012
	C126	C	0.368965	0.620281	0.003891
	C127	C	0.370351	0.376247	0.986598
	C128	C	-0.001236	0.619455	0.374509
	C129	C	0.981487	0.619214	0.616613
	C130	C	-0.001221	0.377822	0.617130
	C131	C	0.979916	0.377526	0.375458
	C132	C	0.868496	0.507052	0.117942
	C133	C	0.112506	0.489359	0.118798
	C134	C	0.112004	0.506778	0.874426
	C135	C	0.868914	0.490495	0.874020
	C136	C	0.110492	0.876379	0.504156
	C137	C	0.112195	0.120420	0.488003
	C138	C	0.869149	0.119787	0.505212
	C139	C	0.868969	0.875510	0.487267
	C140	C	0.499088	0.118261	0.875223
	C141	C	0.481995	0.119179	0.117513
	C142	C	0.499212	0.876782	0.117028
	C143	C	0.481703	0.876960	0.875527
	C144	C	0.363430	0.888238	0.680157
	C145	C	0.616847	0.106645	0.680154
	C146	C	0.616565	0.887315	0.312235
	C147	C	0.366769	0.107357	0.315352
	C148	C	0.674015	0.372692	0.885724
	C149	C	0.670937	0.620430	0.107523
	C150	C	0.305829	0.623494	0.885892
	C151	C	0.311520	0.376169	0.106470
	C152	C	0.879051	0.681192	0.369693
	C153	C	0.101083	0.681002	0.620956
	C154	C	0.878914	0.316038	0.621401
	C155	C	0.100645	0.317630	0.372758
	C156	C	0.878946	0.374041	0.678533
	C157	C	0.100914	0.624725	0.679225
	C158	C	0.878594	0.622821	0.313435
	C159	C	0.100662	0.375140	0.315461
	C160	C	0.361185	0.683488	0.886870
	C161	C	0.615692	0.680857	0.106147
	C162	C	0.618426	0.312785	0.886545
	C163	C	0.368792	0.317707	0.106160
	C164	C	0.672606	0.886486	0.372092
	C165	C	0.672591	0.107729	0.620481
	C166	C	0.307454	0.887214	0.620420
	C167	C	0.310320	0.108178	0.374740
	C168	C	0.864351	0.388702	0.178776
	C169	C	0.115136	0.608685	0.178239
	C170	C	0.117168	0.389321	0.811451
	C171	C	0.863865	0.608881	0.813043
	C172	C	0.170656	0.874956	0.384717
	C173	C	0.171791	0.120700	0.607758
	C174	C	0.808629	0.120018	0.385757
	C175	C	0.809352	0.874082	0.606962
	C176	C	0.377923	0.178074	0.872713
	C177	C	0.603418	0.177742	0.119998
	C178	C	0.378151	0.816501	0.118670
	C179	C	0.602085	0.815892	0.871609
	C180	C	0.378237	0.873362	0.176653
	C181	C	0.602759	0.120489	0.177789
	C182	C	0.378011	0.120829	0.814968
	C183	C	0.602022	0.873377	0.814670
	C184	C	0.864268	0.180023	0.386592
	C185	C	0.117066	0.181825	0.606379
	C186	C	0.115258	0.815028	0.385590
	C187	C	0.863720	0.813498	0.605141
	C188	C	0.171800	0.387491	0.872364
	C189	C	0.172317	0.608913	0.119314
	C190	C	0.809406	0.387279	0.118355
	C191	C	0.806841	0.608903	0.871837
	C192	C	0.395716	0.088002	0.592805
	C193	C	0.585624	0.906177	0.592658
	C194	C	0.585252	0.087524	0.399717
	C195	C	0.393324	0.904671	0.397681
	C196	C	0.586799	0.400021	0.087340
	C197	C	0.584425	0.594069	0.905052
	C198	C	0.396910	0.594380	0.085710
	C199	C	0.394979	0.400044	0.903196
	C200	C	0.082525	0.593747	0.400622
	C201	C	0.898281	0.592419	0.590215
	C202	C	0.081947	0.403979	0.590767
	C203	C	0.895985	0.402743	0.400515
	C204	C	0.894093	0.589782	0.093485
	C205	C	0.087186	0.406307	0.094234
	C206	C	0.085409	0.589396	0.900747
	C207	C	0.896122	0.408677	0.899506
	C208	C	0.084117	0.901718	0.586611
	C209	C	0.085904	0.095522	0.405160
	C210	C	0.895368	0.095356	0.588379
	C211	C	0.895546	0.901209	0.404830
	C212	C	0.582786	0.092667	0.901072
	C213	C	0.397339	0.095139	0.092690
	C214	C	0.583152	0.902455	0.091771
	C215	C	0.398282	0.903053	0.901553
	Zn216	Zn	0.490661	-0.002936	0.747554
	Zn217	Zn	0.490340	-0.002702	0.244657
	Zn218	Zn	0.740280	0.498152	-0.003918
	Zn219	Zn	0.240910	0.498111	-0.004410
	Zn220	Zn	-0.010280	0.746852	0.495530
	Zn221	Zn	-0.010043	0.248874	0.496650
	Zn222	Zn	-0.009479	0.499141	0.745470
	Zn223	Zn	-0.010426	0.498506	0.246897
	Zn224	Zn	0.490354	0.749447	-0.004648
	Zn225	Zn	0.491351	0.246634	-0.004534
	Zn226	Zn	0.740899	-0.002764	0.496653
	Zn227	Zn	0.239972	-0.002500	0.496731
	N228	N	0.400944	0.962824	0.678823
	N229	N	0.579986	0.031572	0.679041
	N230	N	0.579124	0.962101	0.313634
	N231	N	0.401658	0.031454	0.314274
	N232	N	0.670892	0.410544	0.960269
	N233	N	0.667950	0.582822	0.032917
	N234	N	0.310700	0.584732	0.959483
	N235	N	0.312316	0.412010	0.031157
	N236	N	0.954838	0.679115	0.407105
	N237	N	0.025772	0.677731	0.582507
	N238	N	0.954415	0.318514	0.583767
	N239	N	0.024530	0.318593	0.409050
	N240	N	0.954400	0.411884	0.676052
	N241	N	0.025494	0.586917	0.676584
	N242	N	0.954126	0.585568	0.316065
	N243	N	0.024386	0.411493	0.316711
	N244	N	0.400336	0.681291	0.961099
	N245	N	0.579029	0.680290	0.030645
	N246	N	0.581221	0.314096	0.961456
	N247	N	0.404432	0.317606	0.030510
	N248	N	0.669534	0.960454	0.410423
	N249	N	0.669862	0.033298	0.582751
	N250	N	0.311032	0.961172	0.582220
	N251	N	0.311057	0.032759	0.410193
	N252	N	0.900450	0.464186	0.178665
	N253	N	0.078798	0.533299	0.178188
	N254	N	0.080980	0.464723	0.812595
	N255	N	0.901589	0.534303	0.814193
	N256	N	0.168136	0.912318	0.459386
	N257	N	0.168705	0.083108	0.533255
	N258	N	0.811620	0.083346	0.460726
	N259	N	0.812600	0.912083	0.532778
	N260	N	0.454313	0.176852	0.909246
	N261	N	0.527358	0.177026	0.083012
	N262	N	0.454480	0.818188	0.082607
	N263	N	0.526248	0.817771	0.908515
	N264	N	0.454473	0.909881	0.175915
	N265	N	0.526222	0.084704	0.176223
	N266	N	0.454198	0.084457	0.816384
	N267	N	0.526103	0.910542	0.816961
	N268	N	0.901198	0.179812	0.461906
	N269	N	0.080787	0.181865	0.530792
	N270	N	0.078791	0.815545	0.460910
	N271	N	0.899988	0.814165	0.529665
	N272	N	0.168964	0.461873	0.910393
	N273	N	0.170813	0.533696	0.083063
	N274	N	0.811813	0.461838	0.081427
	N275	N	0.809700	0.534297	0.908874
	O276	O	0.691355	0.494617	0.437047
	H277	H	0.684943	0.471337	0.442567
	H278	H	0.681434	0.498103	0.438466
	O279	O	0.357454	0.406062	0.588802
	H280	H	0.332620	0.403983	0.597552
	H281	H	0.368126	0.412727	0.561256
	O282	O	0.497271	0.503624	0.399016
	H283	H	0.494739	0.499034	0.396383
	H284	H	0.497046	0.509333	0.395323
	O285	O	1.079517	1.149452	0.145927
	H286	H	1.095508	1.138064	0.155152
	H287	H	1.094112	1.156499	0.149885
	O288	O	0.371731	0.507151	0.667091
	H289	H	0.358038	0.508274	0.675323
	H290	H	0.362029	0.505266	0.671446
	O291	O	0.699052	0.468007	0.520372
	H292	H	0.695899	0.462505	0.517950
	H293	H	0.697651	0.472054	0.529652
	O294	O	1.119946	0.816949	0.821471
	H295	H	1.130894	0.810130	0.835752
	H296	H	1.125533	0.845280	0.832172
	O297	O	0.284418	0.534320	0.287110
	H298	H	0.290868	0.580653	0.297503
	H299	H	0.264112	0.540767	0.262428
	O300	O	0.862240	0.189353	0.813014
	H301	H	0.862670	0.182137	0.811864
	H302	H	0.839191	0.174967	0.824258
	O303	O	0.487196	0.387475	0.409329
	H304	H	0.503170	0.386160	0.418693
	H305	H	0.492058	0.408154	0.409871
	O306	O	0.107965	0.004881	0.818802
	H307	H	0.117463	0.027345	0.814712
	H308	H	0.105264	0.017001	0.824458
	O309	O	1.190424	0.025423	-0.093169
	H310	H	1.186993	0.034121	-0.109101
	H311	H	1.193743	0.039056	-0.089786
	O312	O	0.340327	0.639165	0.550257
	H313	H	0.352919	0.638570	0.580027
	H314	H	0.351821	0.639098	0.553796
	O315	O	0.698512	0.707501	0.511992
	H316	H	0.716605	0.691415	0.502625
	H317	H	0.712742	0.718013	0.532827
	O318	O	-0.097873	-0.053332	0.058293
	H319	H	-0.095094	-0.028896	0.049454
	H320	H	-0.104538	-0.068955	0.067892
	O321	O	0.318634	0.325221	0.668858
	H322	H	0.334243	0.345321	0.673400
	H323	H	0.312303	0.318172	0.623532
	O324	O	0.821484	-0.115304	1.117038
	H325	H	0.832369	-0.091478	1.110524
	H326	H	0.850202	-0.127883	1.123145
	O327	O	0.349929	0.679245	0.527276
	H328	H	0.360638	0.690954	0.548527
	H329	H	0.346113	0.691725	0.542744
	O330	O	0.173730	0.949463	1.120830
	H331	H	0.198442	0.961642	1.139572
	H332	H	0.171704	0.952341	1.104410
	O333	O	-0.182361	0.969389	0.012871
	H334	H	-0.170144	0.981875	0.026132
	H335	H	-0.192588	0.972056	0.004537
	O336	O	0.886936	1.091020	0.197659
	H337	H	0.873011	1.092588	0.221850
	H338	H	0.922213	1.072751	0.188970
	O339	O	0.080145	0.969898	1.033231
	H340	H	0.078491	0.967002	1.024639
	H341	H	0.073517	0.961955	1.032615
	O342	O	0.543391	0.717958	0.431981
	H343	H	0.544317	0.709895	0.447300
	H344	H	0.566451	0.727282	0.445703
	O345	O	-0.200595	0.186440	0.934817
	H346	H	-0.192200	0.189014	0.951720
	H347	H	-0.215344	0.184238	0.936235
	O348	O	0.296234	0.691510	0.389119
	H349	H	0.320844	0.698605	0.394658
	H350	H	0.283633	0.702764	0.417592
	O351	O	0.859865	0.953728	0.062986
	H352	H	0.868020	0.958613	0.046846
	H353	H	0.870445	0.984827	0.076705
	O354	O	0.810089	1.016486	0.797494
	H355	H	0.833758	0.997669	0.787528
	H356	H	0.806005	1.005510	0.782638
	O357	O	0.005244	0.202811	-0.172054
	H358	H	-0.011496	0.203782	-0.161114
	H359	H	-0.020091	0.222580	-0.190400
	O360	O	0.417238	0.694168	0.294662
	H361	H	0.434567	0.719059	0.270244
	H362	H	0.431339	0.698676	0.333798
	O363	O	0.662471	-0.323400	-0.331423
	H364	H	0.647803	-0.315493	-0.357564
	H365	H	0.677163	-0.374681	-0.317481
	O366	O	-0.004233	-0.207696	0.829405
	H367	H	0.018982	-0.214384	0.834850
	H368	H	-0.010544	-0.219027	0.827109
	O369	O	1.030368	-0.007518	0.847277
	H370	H	1.033466	0.006332	0.860007
	H371	H	1.034768	-0.018260	0.845445
	O372	O	0.285794	0.357684	0.477945
	H373	H	0.276269	0.375688	0.458909
	H374	H	0.286307	0.364527	0.474618
	O375	O	0.697245	0.321030	1.494569
	H376	H	0.697362	0.340387	1.473119
	H377	H	0.718266	0.308071	1.502349
	O378	O	0.506593	0.714604	0.715050
	H379	H	0.516902	0.739496	0.749190
	H380	H	0.526089	0.694399	0.716923
	O381	O	0.118221	1.203239	0.028111
	H382	H	0.124028	1.212977	0.049009
	H383	H	0.111434	1.217344	0.026507
	O384	O	0.491418	0.572675	0.280440
	H385	H	0.496103	0.575969	0.267427
	H386	H	0.484970	0.583999	0.287350
	O387	O	0.476527	0.284575	0.700257
	H388	H	0.455001	0.292576	0.674332
	H389	H	0.472725	0.246251	0.731820
	O390	O	0.889729	1.183279	0.037957
	H391	H	0.900546	1.193617	0.066714
	H392	H	0.892175	1.165428	0.028485
	O393	O	1.194828	0.126104	1.205008
	H394	H	1.204186	0.120780	1.203994
	H395	H	1.206579	0.118735	1.222351
	O396	O	0.405342	0.425804	0.377523
	H397	H	0.414890	0.428707	0.385095
	H398	H	0.396677	0.436943	0.368250
	O399	O	0.993742	0.835447	0.193573
	H400	H	1.000816	0.827978	0.177971
	H401	H	1.009207	0.836269	0.194540
	O402	O	1.092782	0.796397	0.030263
	H403	H	1.067250	0.798350	0.021857
	H404	H	1.114299	0.800831	0.018399
	O405	O	0.539521	0.437394	0.703837
	H406	H	0.528336	0.419230	0.704582
	H407	H	0.519854	0.437840	0.697022
	O408	O	0.383171	0.572413	0.659890
	H409	H	0.389918	0.575443	0.648675
	H410	H	0.382189	0.560842	0.666790
	O411	O	0.973700	1.063459	1.139067
	H412	H	0.975978	1.065214	1.138131
	H413	H	0.981383	1.072865	1.155799
	O414	O	0.332489	0.309106	0.337934
	H415	H	0.339113	0.331892	0.357353
	H416	H	0.350894	0.324450	0.345915
	O417	O	0.180190	0.957239	1.021355
	H418	H	0.159617	0.962928	1.023513
	H419	H	0.180571	0.973588	1.016492
	O420	O	-0.054406	0.833452	0.941720
	H421	H	-0.070729	0.825244	0.947675
	H422	H	-0.061126	0.841126	0.940280
	O423	O	0.012957	1.149223	0.019570
	H424	H	0.018593	1.150347	0.022061
	H425	H	-0.009625	1.143272	0.016869
	O426	O	0.538465	0.330006	0.561512
	H427	H	0.535422	0.328624	0.551968
	H428	H	0.545311	0.326534	0.567875
	O429	O	0.694224	0.462915	0.288299
	H430	H	0.713727	0.452229	0.268449
	H431	H	0.689197	0.473136	0.292822
	O432	O	0.631785	0.310934	0.310687
	H433	H	0.628035	0.318063	0.304182
	H434	H	0.629221	0.313857	0.315149
	O435	O	0.403042	-0.565155	0.469349
	H436	H	0.393460	-0.543214	0.456368
	H437	H	0.397744	-0.571709	0.463625
	O438	O	-0.214592	0.790127	1.057600
	H439	H	-0.203893	0.806114	1.074010
	H440	H	-0.239223	0.765178	1.050640
	O441	O	0.699388	0.519748	0.707317
	H442	H	0.705892	0.508575	0.729653
	H443	H	0.687510	0.498233	0.718525
