data_Molecule from HDF5

_cell_length_a		16.222059
_cell_length_b		16.288995
_cell_length_c		16.285816
_cell_angle_alpha	89.723672
_cell_angle_beta	90.413483
_cell_angle_gamma	90.354169
_symmetry_space_group_name_H-M	'P 1'
_symmetry_Int_Tables_number		1

loop_
	_symmetry_equiv_pos_as_xyz
	x,y,z

loop_
	_atom_site_label
	_atom_site_type_symbol
	_atom_site_fract_x
	_atom_site_fract_y
	_atom_site_fract_z
	H0	H	0.402298	0.831111	0.711938
	H1	H	0.605024	0.156372	0.706524
	H2	H	0.604094	0.829671	0.276523
	H3	H	0.400462	0.152798	0.273782
	H4	H	0.716812	0.390642	0.830846
	H5	H	0.723379	0.593945	0.154241
	H6	H	0.286391	0.591081	0.829384
	H7	H	0.289565	0.391665	0.155549
	H8	H	0.840255	0.708242	0.389029
	H9	H	0.165598	0.709220	0.596161
	H10	H	0.840764	0.272911	0.592768
	H11	H	0.166851	0.276229	0.393258
	H12	H	0.841071	0.385741	0.710641
	H13	H	0.167519	0.590746	0.709001
	H14	H	0.842356	0.594540	0.271474
	H15	H	0.168351	0.393873	0.279848
	H16	H	0.399231	0.709963	0.829875
	H17	H	0.607574	0.709732	0.154682
	H18	H	0.598930	0.278880	0.830263
	H19	H	0.398334	0.272837	0.153568
	H20	H	0.717689	0.829517	0.392414
	H21	H	0.722577	0.153317	0.595035
	H22	H	0.287790	0.828242	0.592581
	H23	H	0.285552	0.153802	0.390816
	H24	H	0.902983	0.328748	0.209876
	H25	H	0.106157	0.655325	0.207970
	H26	H	0.104683	0.328338	0.778023
	H27	H	0.904288	0.652850	0.774591
	H28	H	0.216010	0.891327	0.331790
	H29	H	0.220950	0.091787	0.655615
	H30	H	0.785614	0.091531	0.330342
	H31	H	0.787752	0.889624	0.656001
	H32	H	0.337759	0.205037	0.892170
	H33	H	0.665826	0.209220	0.092514
	H34	H	0.340108	0.773183	0.091646
	H35	H	0.664698	0.775692	0.889664
	H36	H	0.339555	0.889058	0.207476
	H37	H	0.666395	0.093294	0.209332
	H38	H	0.340588	0.094132	0.774066
	H39	H	0.667179	0.896117	0.779973
	H40	H	0.900483	0.209036	0.330956
	H41	H	0.105780	0.206623	0.656220
	H42	H	0.101425	0.776787	0.331885
	H43	H	0.900524	0.771237	0.654457
	H44	H	0.216710	0.327755	0.896146
	H45	H	0.221930	0.653631	0.093633
	H46	H	0.789118	0.327219	0.091503
	H47	H	0.786965	0.653259	0.889390
	H48	H	0.417104	0.105025	0.578754
	H49	H	0.593789	0.877012	0.584462
	H50	H	0.593884	0.106783	0.403298
	H51	H	0.406868	0.873103	0.397481
	H52	H	0.591535	0.401285	0.108404
	H53	H	0.598325	0.581363	0.876956
	H54	H	0.414169	0.578340	0.106741
	H55	H	0.402202	0.394353	0.871786
	H56	H	0.116844	0.577632	0.405380
	H57	H	0.885795	0.586702	0.581107
	H58	H	0.117190	0.400660	0.578629
	H59	H	0.885782	0.400106	0.393789
	H60	H	0.119686	0.406091	0.591778
	H61	H	0.889801	0.576851	0.578944
	H62	H	0.122336	0.585753	0.393931
	H63	H	0.887146	0.393835	0.405926
	H64	H	0.417139	0.583482	0.106746
	H65	H	0.588460	0.582007	0.878957
	H66	H	0.594539	0.397153	0.110085
	H67	H	0.405457	0.407115	0.876904
	H68	H	0.593561	0.107636	0.400539
	H69	H	0.595800	0.874515	0.588536
	H70	H	0.404485	0.109730	0.580165
	H71	H	0.413185	0.876989	0.401247
	H72	H	0.901980	0.611518	0.084252
	H73	H	0.089620	0.374816	0.095298
	H74	H	0.100017	0.610462	0.895143
	H75	H	0.909600	0.374666	0.903084
	H76	H	0.092618	0.905873	0.608341
	H77	H	0.086148	0.081331	0.379720
	H78	H	0.913948	0.074061	0.606093
	H79	H	0.903257	0.890874	0.372728
	H80	H	0.620352	0.097154	0.907857
	H81	H	0.384732	0.086864	0.083598
	H82	H	0.623058	0.901723	0.097056
	H83	H	0.386815	0.899503	0.901932
	H84	H	0.620347	0.891573	0.076222
	H85	H	0.388139	0.080304	0.079430
	H86	H	0.615988	0.078050	0.904647
	H87	H	0.388154	0.903996	0.903435
	H88	H	0.918100	0.088663	0.609319
	H89	H	0.092835	0.090287	0.375959
	H90	H	0.090765	0.893901	0.610497
	H91	H	0.903276	0.911573	0.379583
	H92	H	0.086736	0.605492	0.898538
	H93	H	0.092091	0.379088	0.078521
	H94	H	0.921866	0.607161	0.092989
	H95	H	0.909763	0.374377	0.900140
	H96	H	0.413313	0.109184	0.590605
	H97	H	0.591528	0.877130	0.588243
	H98	H	0.592095	0.105755	0.402489
	H99	H	0.405915	0.876364	0.405216
	H100	H	0.597820	0.401863	0.110360
	H101	H	0.593415	0.589922	0.875441
	H102	H	0.411683	0.584006	0.108718
	H103	H	0.415366	0.396161	0.876428
	H104	H	0.120388	0.592053	0.407922
	H105	H	0.886199	0.578986	0.588474
	H106	H	0.123006	0.391540	0.588858
	H107	H	0.891411	0.406964	0.403803
	H108	H	0.917762	0.601881	0.071327
	H109	H	0.104452	0.372576	0.088444
	H110	H	0.097694	0.605107	0.908313
	H111	H	0.911295	0.375399	0.901564
	H112	H	0.102253	0.898555	0.613548
	H113	H	0.098198	0.079960	0.377813
	H114	H	0.903718	0.083768	0.611449
	H115	H	0.921427	0.898768	0.380674
	H116	H	0.623804	0.090217	0.889997
	H117	H	0.385819	0.079255	0.087421
	H118	H	0.613161	0.914164	0.080229
	H119	H	0.386137	0.903339	0.899244
	C120	C	0.381417	0.000920	0.614135
	C121	C	0.624811	0.983948	0.615591
	C122	C	0.623248	-0.000126	0.372407
	C123	C	0.379401	0.982863	0.370646
	C124	C	0.622832	0.370977	0.001880
	C125	C	0.625409	0.614619	0.983948
	C126	C	0.382615	0.612752	0.000283
	C127	C	0.379307	0.369697	0.982923
	C128	C	0.012205	0.614463	0.370925
	C129	C	0.994963	0.611415	0.613685
	C130	C	0.012189	0.368640	0.615130
	C131	C	0.995776	0.371180	0.372046
	C132	C	0.882957	0.499535	0.113518
	C133	C	0.126250	0.483118	0.115718
	C134	C	0.124285	0.499522	0.872202
	C135	C	0.880875	0.482023	0.870134
	C136	C	0.123265	0.870520	0.503163
	C137	C	0.123665	0.113351	0.485200
	C138	C	0.880941	0.112860	0.501747
	C139	C	0.880267	0.869544	0.484607
	C140	C	0.511583	0.116207	0.870963
	C141	C	0.493944	0.113356	0.114029
	C142	C	0.511609	0.870475	0.114274
	C143	C	0.494675	0.872732	0.871980
	C144	C	0.382421	0.879208	0.672570
	C145	C	0.624434	0.106972	0.669605
	C146	C	0.623229	0.877944	0.315362
	C147	C	0.380503	0.104485	0.312681
	C148	C	0.678421	0.371710	0.879566
	C149	C	0.684002	0.613690	0.105711
	C150	C	0.325011	0.611273	0.877959
	C151	C	0.325858	0.371327	0.106602
	C152	C	0.889441	0.670266	0.369895
	C153	C	0.117481	0.669340	0.614099
	C154	C	0.889294	0.311299	0.613253
	C155	C	0.118198	0.315043	0.373644
	C156	C	0.889590	0.367722	0.671535
	C157	C	0.118232	0.610593	0.670576
	C158	C	0.890344	0.613699	0.311419
	C159	C	0.119032	0.373455	0.317154
	C160	C	0.381361	0.670320	0.878099
	C161	C	0.626464	0.671527	0.105836
	C162	C	0.619880	0.315969	0.879123
	C163	C	0.379885	0.312014	0.105237
	C164	C	0.679751	0.878173	0.373112
	C165	C	0.683079	0.105495	0.614211
	C166	C	0.325525	0.877617	0.613337
	C167	C	0.323307	0.104870	0.370873
	C168	C	0.883584	0.377268	0.171009
	C169	C	0.125821	0.606057	0.170462
	C170	C	0.123440	0.376791	0.816645
	C171	C	0.883323	0.604150	0.812745
	C172	C	0.178248	0.871801	0.380356
	C173	C	0.181985	0.111805	0.607103
	C174	C	0.823513	0.112027	0.379120
	C175	C	0.824855	0.869684	0.607057
	C176	C	0.387533	0.168930	0.872131
	C177	C	0.616899	0.170747	0.112748
	C178	C	0.388852	0.812068	0.112032
	C179	C	0.616546	0.815199	0.871599
	C180	C	0.388484	0.869892	0.169453
	C181	C	0.617223	0.112915	0.170784
	C182	C	0.388791	0.113588	0.813364
	C183	C	0.617903	0.875238	0.816995
	C184	C	0.880924	0.170111	0.379445
	C185	C	0.124834	0.169346	0.607287
	C186	C	0.121217	0.814778	0.380358
	C187	C	0.881507	0.811201	0.606592
	C188	C	0.179193	0.376554	0.875672
	C189	C	0.183809	0.605252	0.113852
	C190	C	0.826774	0.376495	0.112042
	C191	C	0.825281	0.604409	0.870194
	C192	C	0.404729	0.086105	0.590057
	C193	C	0.600762	0.898394	0.593485
	C194	C	0.599712	0.084839	0.395399
	C195	C	0.401968	0.897531	0.394411
	C196	C	0.601140	0.393544	0.087293
	C197	C	0.600616	0.591233	0.898975
	C198	C	0.407257	0.588940	0.085368
	C199	C	0.401190	0.392500	0.897404
	C200	C	0.097634	0.591790	0.395434
	C201	C	0.909562	0.587733	0.589840
	C202	C	0.097821	0.392336	0.593036
	C203	C	0.910214	0.393683	0.394410
	C204	C	0.906791	0.584899	0.089732
	C205	C	0.102456	0.397666	0.093820
	C206	C	0.101577	0.584685	0.894324
	C207	C	0.903619	0.396832	0.894485
	C208	C	0.101394	0.892875	0.588723
	C209	C	0.099211	0.090475	0.399973
	C210	C	0.905011	0.089018	0.586896
	C211	C	0.902823	0.893310	0.399635
	C212	C	0.597743	0.094748	0.894006
	C213	C	0.408383	0.089298	0.090415
	C214	C	0.596777	0.895192	0.091318
	C215	C	0.409164	0.895636	0.894797
	Zn216	Zn	0.503842	-0.005585	0.743870
	Zn217	Zn	0.502790	-0.008846	0.243376
	Zn218	Zn	0.752653	0.491116	-0.007200
	Zn219	Zn	0.253493	0.491182	-0.006962
	Zn220	Zn	0.002573	0.741734	0.493310
	Zn221	Zn	0.003224	0.241561	0.493002
	Zn222	Zn	0.003771	0.490068	0.742524
	Zn223	Zn	0.004682	0.492538	0.243252
	Zn224	Zn	0.503216	0.742767	-0.008301
	Zn225	Zn	0.500747	0.243076	-0.007201
	Zn226	Zn	0.751544	-0.008964	0.493786
	Zn227	Zn	0.251371	-0.008805	0.493230
	N228	N	0.416237	0.956908	0.673466
	N229	N	0.588774	0.030212	0.670609
	N230	N	0.588716	0.954795	0.314743
	N231	N	0.414740	0.027479	0.312388
	N232	N	0.680329	0.405394	0.956740
	N233	N	0.683871	0.579318	0.028702
	N234	N	0.325599	0.576287	0.955139
	N235	N	0.325248	0.406360	0.029679
	N236	N	0.966333	0.670935	0.406176
	N237	N	0.039876	0.669872	0.579190
	N238	N	0.966376	0.311844	0.578732
	N239	N	0.040467	0.313396	0.407027
	N240	N	0.967007	0.402631	0.672803
	N241	N	0.041134	0.575147	0.670322
	N242	N	0.967742	0.579892	0.311961
	N243	N	0.041781	0.407691	0.315941
	N244	N	0.416312	0.671372	0.955197
	N245	N	0.590743	0.672222	0.029007
	N246	N	0.586031	0.315111	0.956363
	N247	N	0.412305	0.310835	0.027432
	N248	N	0.679764	0.954935	0.408133
	N249	N	0.683121	0.028014	0.581073
	N250	N	0.324966	0.954389	0.577673
	N251	N	0.322427	0.027995	0.405981
	N252	N	0.917602	0.454997	0.172298
	N253	N	0.091190	0.528983	0.172049
	N254	N	0.090079	0.454096	0.814298
	N255	N	0.916792	0.526829	0.812505
	N256	N	0.179505	0.905618	0.457587
	N257	N	0.181655	0.077948	0.530029
	N258	N	0.823419	0.077248	0.456257
	N259	N	0.824033	0.905119	0.530366
	N260	N	0.464889	0.170854	0.907240
	N261	N	0.539228	0.171180	0.078304
	N262	N	0.466521	0.812236	0.078452
	N263	N	0.538936	0.813668	0.905208
	N264	N	0.465679	0.905277	0.171056
	N265	N	0.539665	0.078242	0.171883
	N266	N	0.467047	0.081685	0.812324
	N267	N	0.541161	0.910399	0.817111
	N268	N	0.915781	0.170911	0.456678
	N269	N	0.089279	0.170327	0.530359
	N270	N	0.087575	0.813758	0.457685
	N271	N	0.914690	0.810522	0.529298
	N272	N	0.179823	0.453653	0.909655
	N273	N	0.184246	0.527813	0.080508
	N274	N	0.826290	0.453701	0.077270
	N275	N	0.823374	0.527335	0.905093
	O276	O	0.035982	-0.097346	-0.097601
	H277	H	0.049349	-0.103160	-0.100367
	H278	H	0.046530	-0.101081	-0.090612
	O279	O	0.863344	-0.160552	1.098616
	H280	H	0.847135	-0.159261	1.098106
	H281	H	0.870272	-0.164415	1.120753
	O282	O	0.973839	-0.067232	0.067964
	H283	H	0.978404	-0.069864	0.072936
	H284	H	0.968992	-0.077711	0.082943
	O285	O	-0.094757	1.031738	-0.042560
	H286	H	-0.100223	1.033143	-0.048982
	H287	H	-0.086042	1.014806	-0.038283
	O288	O	0.380113	0.543457	0.535245
	H289	H	0.388083	0.541620	0.528047
	H290	H	0.391289	0.542398	0.535383
	O291	O	0.450425	0.475101	0.456965
	H292	H	0.449110	0.464304	0.460596
	H293	H	0.459554	0.459647	0.451183
	O294	O	0.893453	0.886456	1.147064
	H295	H	0.885814	0.894880	1.145288
	H296	H	0.908781	0.876549	1.150876
	O297	O	0.064543	-0.127746	-0.008334
	H298	H	0.065121	-0.132355	-0.001459
	H299	H	0.083105	-0.125638	-0.013327
	O300	O	0.496304	0.450225	0.468092
	H301	H	0.489583	0.453922	0.467353
	H302	H	0.501141	0.456463	0.480263
	O303	O	-0.022955	0.955770	0.974252
	H304	H	-0.026572	0.953677	0.982400
	H305	H	-0.021236	0.968933	0.975091
	O306	O	0.480128	0.581098	0.402426
	H307	H	0.496533	0.583179	0.398855
	H308	H	0.493597	0.579322	0.392464
	O309	O	0.933466	-0.006268	0.029364
	H310	H	0.946558	-0.005053	0.033114
	H311	H	0.918694	0.000000	0.016123
	O312	O	0.128563	-0.075514	1.037415
	H313	H	0.126662	-0.088827	1.040108
	H314	H	0.130423	-0.059793	1.041919
	O315	O	0.595667	0.438793	0.512827
	H316	H	0.604453	0.430922	0.520360
	H317	H	0.592582	0.430253	0.513079
	O318	O	0.528006	0.527662	0.425887
	H319	H	0.526806	0.509157	0.447974
	H320	H	0.529714	0.508794	0.410626
	O321	O	0.487460	0.449446	0.562798
	H322	H	0.479083	0.452359	0.569739
	H323	H	0.481624	0.447567	0.565936
	O324	O	0.470731	0.402175	0.457902
	H325	H	0.477577	0.409901	0.460329
	H326	H	0.480478	0.404347	0.452871
	O327	O	0.011471	1.062797	1.087511
	H328	H	0.012935	1.068661	1.085935
	H329	H	0.026313	1.062963	1.091647
	O330	O	0.509161	0.366711	0.388143
	H331	H	0.521947	0.379686	0.380091
	H332	H	0.498773	0.366722	0.420131
	O333	O	0.071029	1.160209	0.997408
	H334	H	0.071897	1.167119	0.982014
	H335	H	0.065101	1.156978	0.996994
	O336	O	1.020861	1.113560	1.097376
	H337	H	1.032328	1.122868	1.092405
	H338	H	1.031154	1.130691	1.104585
	O339	O	0.607792	0.506522	0.618036
	H340	H	0.598519	0.522978	0.610807
	H341	H	0.594677	0.508355	0.623841
	O342	O	0.845637	-0.051340	-0.039469
	H343	H	0.843802	-0.052536	-0.028817
	H344	H	0.863158	-0.039927	-0.028821
	O345	O	0.503895	0.457842	0.328051
	H346	H	0.505720	0.436139	0.319455
	H347	H	0.514689	0.460977	0.321542
	O348	O	1.108435	1.011043	1.102668
	H349	H	1.109226	1.026856	1.084555
	H350	H	1.099610	1.011630	1.109172
	O351	O	1.063495	1.034349	-0.069609
	H352	H	1.058827	1.019100	-0.065306
	H353	H	1.065136	1.031997	-0.066531
	O354	O	0.557525	0.525850	0.549454
	H355	H	0.568729	0.524330	0.556332
	H356	H	0.545813	0.528975	0.550254
	O357	O	0.595537	0.484464	0.622805
	H358	H	0.604306	0.486525	0.629174
	H359	H	0.593289	0.504597	0.635423
	O360	O	-0.347799	0.639488	-0.352260
	H361	H	-0.360072	0.641251	-0.362928
	H362	H	-0.332939	0.645866	-0.372007
	O363	O	0.449615	0.366789	0.464160
	H364	H	0.455265	0.371040	0.466049
	H365	H	0.447072	0.359368	0.461908
	O366	O	0.434786	0.674741	0.382013
	H367	H	0.432566	0.662140	0.372431
	H368	H	0.434276	0.690564	0.360367
	O369	O	0.516057	0.460026	0.576909
	H370	H	0.527306	0.471976	0.578973
	H371	H	0.509562	0.472681	0.579720
	O372	O	0.596483	0.422350	0.331346
	H373	H	0.606403	0.407172	0.330375
	H374	H	0.596353	0.407245	0.348117
	O375	O	-0.063588	1.125783	0.921635
	H376	H	-0.076432	1.112797	0.917786
	H377	H	-0.072226	1.118405	0.925560
	O378	O	0.600473	0.341563	0.490707
	H379	H	0.597062	0.348007	0.487276
	H380	H	0.601823	0.342808	0.498402
	O381	O	0.364042	0.634115	0.513430
	H382	H	0.367888	0.639589	0.511945
	H383	H	0.359567	0.632261	0.521590
	O384	O	-0.036622	1.124384	-0.088579
	H385	H	-0.059033	1.123697	-0.095998
	H386	H	-0.045630	1.131165	-0.093920
	O387	O	1.033388	-0.073523	0.821004
	H388	H	1.026583	-0.079170	0.826257
	H389	H	1.043237	-0.069494	0.818942
	O390	O	-0.670138	0.557295	0.364609
	H391	H	-0.673951	0.562809	0.366758
	H392	H	-0.674516	0.553202	0.363565
	O393	O	1.038054	0.984615	-0.127939
	H394	H	1.044214	0.984837	-0.140096
	H395	H	1.028185	0.990600	-0.123536
	O396	O	0.470772	0.489153	0.479452
	H397	H	0.478244	0.480660	0.482460
	H398	H	0.459440	0.498781	0.468386
	O399	O	0.013811	0.939198	0.982948
	H400	H	0.006466	0.946066	0.979939
	H401	H	0.019957	0.948392	0.986214
	O402	O	1.168686	1.114471	1.112649
	H403	H	1.185946	1.128469	1.112905
	H404	H	1.161515	1.115722	1.092324
	O405	O	0.682014	1.631980	0.585139
	H406	H	0.692613	1.623803	0.574976
	H407	H	0.687898	1.645467	0.584168
