data_Molecule from HDF5

_cell_length_a		16.117749
_cell_length_b		16.377239
_cell_length_c		16.146327
_cell_angle_alpha	89.766680
_cell_angle_beta	90.109673
_cell_angle_gamma	89.887970
_symmetry_space_group_name_H-M	'P 1'
_symmetry_Int_Tables_number		1

loop_
	_symmetry_equiv_pos_as_xyz
	x,y,z

loop_
	_atom_site_label
	_atom_site_type_symbol
	_atom_site_fract_x
	_atom_site_fract_y
	_atom_site_fract_z
	H0	H	0.409582	0.846294	0.716338
	H1	H	0.604669	0.173616	0.716859
	H2	H	0.605862	0.846412	0.289055
	H3	H	0.405899	0.172106	0.284603
	H4	H	0.718308	0.413428	0.837875
	H5	H	0.714860	0.604696	0.168493
	H6	H	0.290681	0.609378	0.837038
	H7	H	0.295315	0.415228	0.168671
	H8	H	0.840941	0.728153	0.401752
	H9	H	0.171422	0.724896	0.603031
	H10	H	0.841094	0.294409	0.604531
	H11	H	0.169482	0.295179	0.401099
	H12	H	0.839008	0.414266	0.715870
	H13	H	0.171199	0.607149	0.716361
	H14	H	0.839047	0.609481	0.290216
	H15	H	0.171026	0.415713	0.291557
	H16	H	0.403857	0.726593	0.837787
	H17	H	0.607719	0.725571	0.165588
	H18	H	0.606172	0.295680	0.838316
	H19	H	0.400991	0.291587	0.164867
	H20	H	0.721374	0.847781	0.406815
	H21	H	0.718290	0.175246	0.599162
	H22	H	0.292005	0.847189	0.601986
	H23	H	0.290651	0.172468	0.401766
	H24	H	0.905680	0.348535	0.219314
	H25	H	0.101954	0.675207	0.215568
	H26	H	0.105609	0.348675	0.787240
	H27	H	0.904716	0.674090	0.786662
	H28	H	0.218206	0.913262	0.336761
	H29	H	0.218378	0.105067	0.668372
	H30	H	0.792987	0.110376	0.337044
	H31	H	0.795891	0.915938	0.668736
	H32	H	0.340375	0.226620	0.898778
	H33	H	0.668916	0.226438	0.102959
	H34	H	0.341177	0.795176	0.101821
	H35	H	0.670629	0.794009	0.901409
	H36	H	0.340380	0.912103	0.214376
	H37	H	0.671408	0.107098	0.214491
	H38	H	0.339834	0.106469	0.787770
	H39	H	0.672989	0.914360	0.791137
	H40	H	0.902372	0.229598	0.339245
	H41	H	0.109089	0.226980	0.666775
	H42	H	0.106819	0.795942	0.338429
	H43	H	0.905166	0.795267	0.667341
	H44	H	0.220252	0.347590	0.903797
	H45	H	0.220613	0.673647	0.101711
	H46	H	0.791499	0.347811	0.101878
	H47	H	0.789082	0.674084	0.902936
	H48	H	0.413950	0.124294	0.591343
	H49	H	0.600282	0.897210	0.587761
	H50	H	0.612570	0.131207	0.405936
	H51	H	0.414526	0.892060	0.404481
	H52	H	0.603896	0.418574	0.121938
	H53	H	0.595701	0.599290	0.886819
	H54	H	0.412434	0.597298	0.118263
	H55	H	0.412686	0.415358	0.883679
	H56	H	0.125400	0.600785	0.398577
	H57	H	0.887614	0.604561	0.596369
	H58	H	0.126072	0.409630	0.594559
	H59	H	0.890618	0.421887	0.419318
	H60	H	0.119059	0.421572	0.586826
	H61	H	0.886901	0.607457	0.594941
	H62	H	0.126690	0.616730	0.411766
	H63	H	0.886594	0.424470	0.404861
	H64	H	0.420552	0.606754	0.118235
	H65	H	0.592474	0.607732	0.883819
	H66	H	0.590846	0.420620	0.116997
	H67	H	0.409812	0.418637	0.883268
	H68	H	0.590441	0.127545	0.394893
	H69	H	0.610673	0.891158	0.599627
	H70	H	0.408733	0.127364	0.595124
	H71	H	0.416773	0.895646	0.412710
	H72	H	0.906727	0.628093	0.096492
	H73	H	0.101623	0.394072	0.098544
	H74	H	0.105869	0.631866	0.898593
	H75	H	0.913307	0.391554	0.895347
	H76	H	0.101882	0.904477	0.624465
	H77	H	0.092750	0.100320	0.387348
	H78	H	0.917982	0.107579	0.620218
	H79	H	0.916820	0.928893	0.389413
	H80	H	0.621370	0.102091	0.913596
	H81	H	0.391259	0.093895	0.089800
	H82	H	0.625348	0.919509	0.099034
	H83	H	0.387310	0.923209	0.901420
	H84	H	0.626209	0.909259	0.094569
	H85	H	0.384486	0.103652	0.101334
	H86	H	0.623734	0.102700	0.906604
	H87	H	0.385449	0.906472	0.907408
	H88	H	0.910725	0.106170	0.621737
	H89	H	0.093895	0.112015	0.384017
	H90	H	0.107817	0.925139	0.620355
	H91	H	0.922200	0.911454	0.384421
	H92	H	0.083034	0.623157	0.908262
	H93	H	0.096632	0.394549	0.100646
	H94	H	0.910450	0.628770	0.100025
	H95	H	0.922254	0.400110	0.917270
	H96	H	0.414558	0.126466	0.598142
	H97	H	0.595492	0.894871	0.602884
	H98	H	0.593407	0.121278	0.419117
	H99	H	0.407971	0.892986	0.410485
	H100	H	0.594871	0.408697	0.121964
	H101	H	0.601020	0.605993	0.882108
	H102	H	0.408488	0.608135	0.123117
	H103	H	0.414686	0.419516	0.885590
	H104	H	0.119160	0.598384	0.418556
	H105	H	0.888429	0.605616	0.591976
	H106	H	0.123217	0.423201	0.602565
	H107	H	0.884279	0.411322	0.411035
	H108	H	0.912003	0.626837	0.094155
	H109	H	0.098507	0.395797	0.094513
	H110	H	0.103152	0.624228	0.923946
	H111	H	0.899118	0.393899	0.916367
	H112	H	0.086829	0.919887	0.616546
	H113	H	0.103761	0.104366	0.383219
	H114	H	0.915382	0.100516	0.619517
	H115	H	0.904850	0.917544	0.381867
	H116	H	0.623729	0.108018	0.910806
	H117	H	0.387300	0.109226	0.084669
	H118	H	0.621426	0.917781	0.088621
	H119	H	0.391871	0.919247	0.917996
	C120	C	0.384127	0.018228	0.624232
	C121	C	0.629421	1.002572	0.624578
	C122	C	0.628598	0.018886	0.379157
	C123	C	0.383897	1.001017	0.379587
	C124	C	0.626247	0.388455	0.011382
	C125	C	0.626068	0.631948	0.993049
	C126	C	0.383932	0.632594	0.010699
	C127	C	0.383214	0.388678	0.993005
	C128	C	0.014236	0.633607	0.381230
	C129	C	0.997060	0.633052	0.623858
	C130	C	0.013867	0.389481	0.624198
	C131	C	0.996445	0.390589	0.382622
	C132	C	0.881668	0.519929	0.125547
	C133	C	0.127166	0.502955	0.125636
	C134	C	0.126890	0.519040	0.881591
	C135	C	0.882523	0.502852	0.880791
	C136	C	0.127635	0.888716	0.511209
	C137	C	0.126958	0.132998	0.494186
	C138	C	0.884657	0.133838	0.511607
	C139	C	0.885686	0.890550	0.494313
	C140	C	0.514151	0.132458	0.880091
	C141	C	0.496690	0.130839	0.121782
	C142	C	0.514726	0.887849	0.122688
	C143	C	0.497614	0.888362	0.880565
	C144	C	0.388395	0.895192	0.678889
	C145	C	0.624939	0.125360	0.678653
	C146	C	0.626586	0.895540	0.325856
	C147	C	0.385778	0.123625	0.323337
	C148	C	0.681022	0.392686	0.887154
	C149	C	0.679616	0.627097	0.118197
	C150	C	0.328686	0.629582	0.886377
	C151	C	0.330327	0.392676	0.118299
	C152	C	0.889951	0.689410	0.382404
	C153	C	0.121900	0.687430	0.622922
	C154	C	0.889925	0.333268	0.623813
	C155	C	0.120500	0.334528	0.383024
	C156	C	0.888922	0.393002	0.679023
	C157	C	0.121753	0.629053	0.679365
	C158	C	0.888919	0.630583	0.326846
	C159	C	0.121135	0.393909	0.327810
	C160	C	0.384536	0.688349	0.886838
	C161	C	0.625813	0.686840	0.116952
	C162	C	0.625170	0.333996	0.887318
	C163	C	0.383076	0.331595	0.116560
	C164	C	0.683965	0.896368	0.384512
	C165	C	0.681896	0.126038	0.620409
	C166	C	0.330135	0.895523	0.621900
	C167	C	0.328642	0.123670	0.381714
	C168	C	0.885109	0.397165	0.180926
	C169	C	0.123220	0.625992	0.178784
	C170	C	0.125216	0.396893	0.825781
	C171	C	0.884687	0.625584	0.825314
	C172	C	0.181701	0.892570	0.386634
	C173	C	0.181891	0.127625	0.618580
	C174	C	0.829618	0.131235	0.386864
	C175	C	0.831841	0.894085	0.618970
	C176	C	0.389805	0.187864	0.879953
	C177	C	0.620258	0.187608	0.121887
	C178	C	0.390333	0.833180	0.121250
	C179	C	0.621692	0.832710	0.882034
	C180	C	0.390143	0.891171	0.177461
	C181	C	0.621486	0.127940	0.177003
	C182	C	0.389531	0.128332	0.824721
	C183	C	0.622861	0.892598	0.827258
	C184	C	0.884427	0.190184	0.387684
	C185	C	0.127461	0.188193	0.617771
	C186	C	0.126442	0.833819	0.387485
	C187	C	0.886594	0.834280	0.618212
	C188	C	0.182506	0.396465	0.883726
	C189	C	0.182382	0.625293	0.122301
	C190	C	0.827980	0.397017	0.122884
	C191	C	0.826991	0.625475	0.882838
	C192	C	0.405950	0.103822	0.601699
	C193	C	0.608281	0.916638	0.603110
	C194	C	0.605700	0.104485	0.400184
	C195	C	0.406513	0.915791	0.402354
	C196	C	0.603273	0.409617	0.097882
	C197	C	0.603151	0.610831	0.906485
	C198	C	0.407158	0.610839	0.097494
	C199	C	0.405852	0.411056	0.906688
	C200	C	0.101156	0.611785	0.403240
	C201	C	0.910242	0.612196	0.601123
	C202	C	0.100401	0.411616	0.601417
	C203	C	0.909684	0.412613	0.405175
	C204	C	0.903293	0.605748	0.103460
	C205	C	0.105361	0.417050	0.104316
	C206	C	0.104202	0.604408	0.903826
	C207	C	0.904981	0.417460	0.903187
	C208	C	0.105343	0.910280	0.598125
	C209	C	0.103558	0.111863	0.407231
	C210	C	0.908048	0.111421	0.598052
	C211	C	0.908073	0.912654	0.407647
	C212	C	0.600660	0.110726	0.903480
	C213	C	0.410122	0.108704	0.098886
	C214	C	0.601774	0.909212	0.100634
	C215	C	0.410713	0.909984	0.902466
	Zn216	Zn	0.506578	0.010103	0.752680
	Zn217	Zn	0.505986	0.009167	0.250045
	Zn218	Zn	0.753603	0.511115	0.002804
	Zn219	Zn	0.256232	0.510673	0.002886
	Zn220	Zn	0.006359	0.761215	0.502407
	Zn221	Zn	0.005398	0.261389	0.502881
	Zn222	Zn	0.004785	0.511306	0.752197
	Zn223	Zn	0.004425	0.511309	0.254039
	Zn224	Zn	0.505978	0.759970	0.001997
	Zn225	Zn	0.504344	0.260542	0.001620
	Zn226	Zn	0.757911	0.012062	0.502592
	Zn227	Zn	0.254949	0.009685	0.502150
	N228	N	0.421062	0.972637	0.680644
	N229	N	0.593256	0.047405	0.681634
	N230	N	0.593065	0.972838	0.322270
	N231	N	0.419705	0.046328	0.321851
	N232	N	0.682038	0.425489	0.965354
	N233	N	0.679832	0.593589	0.040258
	N234	N	0.328008	0.595910	0.964578
	N235	N	0.330193	0.427447	0.040608
	N236	N	0.968800	0.691425	0.415384
	N237	N	0.043518	0.690036	0.589065
	N238	N	0.968468	0.330792	0.590559
	N239	N	0.041924	0.332398	0.416248
	N240	N	0.967019	0.427219	0.679490
	N241	N	0.043295	0.595822	0.680133
	N242	N	0.967058	0.596459	0.325878
	N243	N	0.043092	0.428395	0.327497
	N244	N	0.418489	0.690129	0.965222
	N245	N	0.593326	0.690261	0.037954
	N246	N	0.591379	0.331275	0.965526
	N247	N	0.415393	0.328879	0.037744
	N248	N	0.685677	0.974060	0.416612
	N249	N	0.684736	0.048689	0.587604
	N250	N	0.327444	0.972954	0.588594
	N251	N	0.327159	0.046543	0.415774
	N252	N	0.917847	0.474799	0.182924
	N253	N	0.089836	0.548606	0.181233
	N254	N	0.091178	0.473984	0.824362
	N255	N	0.918231	0.548392	0.823641
	N256	N	0.182669	0.925893	0.464912
	N257	N	0.181649	0.093834	0.540761
	N258	N	0.829569	0.096855	0.464847
	N259	N	0.831257	0.928594	0.541067
	N260	N	0.468302	0.190805	0.913536
	N261	N	0.541665	0.189586	0.088298
	N262	N	0.469011	0.830874	0.087925
	N263	N	0.542820	0.829994	0.914452
	N264	N	0.468431	0.924478	0.178403
	N265	N	0.543763	0.093326	0.177063
	N266	N	0.467944	0.094649	0.824456
	N267	N	0.544604	0.926476	0.826000
	N268	N	0.917929	0.191857	0.466181
	N269	N	0.093813	0.191386	0.539289
	N270	N	0.093191	0.831670	0.465741
	N271	N	0.919417	0.832134	0.539578
	N272	N	0.183646	0.473484	0.917722
	N273	N	0.184677	0.547778	0.089905
	N274	N	0.825859	0.474210	0.089254
	N275	N	0.825697	0.548220	0.916993
	O276	O	0.033649	0.019798	0.084083
	H277	H	0.051015	0.031454	0.085054
	H278	H	0.033944	0.023521	0.087017
	O279	O	0.491807	0.403628	0.475858
	H280	H	0.484677	0.409753	0.468572
	H281	H	0.492717	0.400245	0.481035
	O282	O	0.473238	0.502509	0.512208
	H283	H	0.466675	0.501292	0.499841
	H284	H	0.474180	0.499429	0.518943
	O285	O	0.961220	-0.082592	1.074192
	H286	H	0.974702	-0.085456	1.082112
	H287	H	0.948877	-0.085180	1.087507
	O288	O	1.018675	0.168967	0.057604
	H289	H	1.016761	0.177588	0.050554
	H290	H	1.015391	0.164882	0.062736
	O291	O	0.494354	0.532880	0.498047
	H292	H	0.500250	0.541206	0.486851
	H293	H	0.496291	0.529197	0.494040
	O294	O	1.004900	0.126242	0.921964
	H295	H	0.995764	0.126860	0.914245
	H296	H	0.994981	0.134524	0.908819
	O297	O	-0.011073	0.103126	0.004470
	H298	H	-0.009952	0.097910	0.002940
	H299	H	-0.001311	0.102732	0.021125
	O300	O	0.458376	0.579153	0.515873
	H301	H	0.459082	0.577115	0.507303
	H302	H	0.458638	0.581904	0.525155
	O303	O	1.057226	-0.047991	-0.029893
	H304	H	1.051462	-0.036472	-0.030823
	H305	H	1.059403	-0.052095	-0.031518
	O306	O	1.013758	0.038326	-0.022059
	H307	H	1.020606	0.024074	-0.028577
	H308	H	1.002857	0.038853	-0.018935
	O309	O	0.044670	0.046802	0.976095
	H310	H	0.049012	0.053013	0.980143
	H311	H	0.050276	0.048373	0.976815
	O312	O	1.056426	1.016092	1.049229
	H313	H	1.056972	1.027277	1.044332
	H314	H	1.053292	1.010856	1.039242
	O315	O	0.450769	0.525367	0.487533
	H316	H	0.453293	0.525656	0.492885
	H317	H	0.439641	0.519219	0.491448
	O318	O	0.530598	0.505189	0.509379
	H319	H	0.538847	0.508690	0.510106
	H320	H	0.527325	0.501363	0.516240
	O321	O	-0.124299	0.935443	0.968298
	H322	H	-0.110700	0.927499	0.968192
	H323	H	-0.122897	0.935526	0.968094
	O324	O	0.090549	-0.042873	0.025607
	H325	H	0.093432	-0.044122	0.019878
	H326	H	0.084027	-0.048135	0.025174
	O327	O	-0.045677	0.048441	1.027865
	H328	H	-0.050579	0.052336	1.032102
	H329	H	-0.045788	0.038962	1.029054
	O330	O	0.903457	1.023328	-0.114882
	H331	H	0.906540	1.006431	-0.113435
	H332	H	0.891375	1.016546	-0.125156
	O333	O	0.488805	0.443671	0.509363
	H334	H	0.489864	0.445539	0.508970
	H335	H	0.504527	0.444131	0.509066
	O336	O	0.557477	0.468091	0.496370
	H337	H	0.562835	0.468704	0.493056
	H338	H	0.561415	0.465861	0.487639
	O339	O	0.899671	1.017260	0.034817
	H340	H	0.895537	1.015079	0.046928
	H341	H	0.901571	1.009127	0.018989
	O342	O	0.470492	0.447417	0.567036
	H343	H	0.467861	0.442156	0.575934
	H344	H	0.468109	0.440352	0.567925
	O345	O	0.514264	0.499881	0.543798
	H346	H	0.500533	0.504873	0.545492
	H347	H	0.515681	0.504803	0.544687
	O348	O	0.131486	-0.004952	0.094701
	H349	H	0.124095	-0.005259	0.086261
	H350	H	0.129216	0.009546	0.089052
	O351	O	0.063181	0.948041	0.942988
	H352	H	0.062146	0.955797	0.942123
	H353	H	0.074101	0.946483	0.935971
	O354	O	0.517296	0.451307	0.442019
	H355	H	0.505261	0.453729	0.443881
	H356	H	0.518244	0.450870	0.441054
	O357	O	-0.029630	1.012705	0.941155
	H358	H	-0.036100	1.015321	0.955082
	H359	H	-0.024167	1.018195	0.936463
