data_Molecule from HDF5

_cell_length_a		16.299038
_cell_length_b		16.169099
_cell_length_c		16.322617
_cell_angle_alpha	90.141825
_cell_angle_beta	90.321252
_cell_angle_gamma	90.022010
_symmetry_space_group_name_H-M	'P 1'
_symmetry_Int_Tables_number		1

loop_
	_symmetry_equiv_pos_as_xyz
	x,y,z

loop_
	_atom_site_label
	_atom_site_type_symbol
	_atom_site_fract_x
	_atom_site_fract_y
	_atom_site_fract_z
	H0	H	0.395917	0.824477	0.726711
	H1	H	0.596880	0.152044	0.731234
	H2	H	0.593418	0.824855	0.297824
	H3	H	0.389579	0.150225	0.293958
	H4	H	0.712145	0.386308	0.849972
	H5	H	0.713931	0.592271	0.174385
	H6	H	0.277692	0.590022	0.850343
	H7	H	0.278508	0.388248	0.174169
	H8	H	0.831880	0.702249	0.414635
	H9	H	0.159401	0.705875	0.613887
	H10	H	0.833001	0.273504	0.613674
	H11	H	0.157274	0.271993	0.413185
	H12	H	0.834037	0.387573	0.729389
	H13	H	0.157956	0.593037	0.733036
	H14	H	0.834487	0.593242	0.292551
	H15	H	0.157646	0.387053	0.296114
	H16	H	0.395852	0.702793	0.848880
	H17	H	0.594554	0.704165	0.175952
	H18	H	0.594938	0.270582	0.850369
	H19	H	0.394668	0.272626	0.174762
	H20	H	0.708114	0.824506	0.413846
	H21	H	0.712179	0.151720	0.616421
	H22	H	0.281485	0.824006	0.611073
	H23	H	0.275572	0.150442	0.408884
	H24	H	0.895819	0.325735	0.227912
	H25	H	0.097026	0.653774	0.229275
	H26	H	0.097780	0.325866	0.796677
	H27	H	0.897373	0.652943	0.797629
	H28	H	0.209438	0.887322	0.350066
	H29	H	0.212448	0.089827	0.675111
	H30	H	0.776792	0.089402	0.351325
	H31	H	0.779996	0.888522	0.675889
	H32	H	0.331565	0.203969	0.913127
	H33	H	0.657817	0.203916	0.113352
	H34	H	0.329943	0.776760	0.107283
	H35	H	0.657556	0.774959	0.915485
	H36	H	0.331262	0.887082	0.228072
	H37	H	0.655969	0.090908	0.232931
	H38	H	0.332644	0.091018	0.794778
	H39	H	0.657225	0.887465	0.797167
	H40	H	0.895300	0.203277	0.350001
	H41	H	0.095926	0.204851	0.675801
	H42	H	0.092070	0.774907	0.349335
	H43	H	0.898488	0.774638	0.676347
	H44	H	0.211041	0.326181	0.912477
	H45	H	0.210865	0.654021	0.112044
	H46	H	0.779787	0.325832	0.112389
	H47	H	0.780137	0.653489	0.911428
	H48	H	0.402022	0.107935	0.612598
	H49	H	0.581741	0.869557	0.616980
	H50	H	0.579631	0.102494	0.424612
	H51	H	0.398826	0.868607	0.417381
	H52	H	0.592526	0.397964	0.129021
	H53	H	0.592472	0.595030	0.891398
	H54	H	0.396892	0.580055	0.129929
	H55	H	0.405270	0.404825	0.899475
	H56	H	0.112543	0.586616	0.422618
	H57	H	0.882062	0.572059	0.608474
	H58	H	0.112288	0.396185	0.604566
	H59	H	0.882184	0.405157	0.419908
	H60	H	0.110705	0.399483	0.603773
	H61	H	0.877416	0.588028	0.610597
	H62	H	0.109474	0.577383	0.423443
	H63	H	0.876847	0.396039	0.414614
	H64	H	0.407309	0.577955	0.126170
	H65	H	0.597485	0.570552	0.896677
	H66	H	0.587337	0.403705	0.126252
	H67	H	0.407213	0.390621	0.896290
	H68	H	0.588781	0.105439	0.427164
	H69	H	0.579560	0.877189	0.596642
	H70	H	0.411213	0.102309	0.601612
	H71	H	0.407647	0.872602	0.418569
	H72	H	0.905059	0.606102	0.105539
	H73	H	0.089922	0.374390	0.097772
	H74	H	0.086980	0.606999	0.920079
	H75	H	0.904638	0.372774	0.920654
	H76	H	0.097746	0.901938	0.629762
	H77	H	0.088421	0.082307	0.395743
	H78	H	0.897548	0.084312	0.631668
	H79	H	0.898998	0.906006	0.400118
	H80	H	0.612946	0.077212	0.909778
	H81	H	0.374790	0.080940	0.116384
	H82	H	0.609721	0.901873	0.111562
	H83	H	0.376878	0.888851	0.921276
	H84	H	0.613288	0.890895	0.109976
	H85	H	0.377666	0.090592	0.095862
	H86	H	0.613260	0.091200	0.926285
	H87	H	0.380444	0.902255	0.920908
	H88	H	0.902417	0.072538	0.626617
	H89	H	0.087080	0.076381	0.398180
	H90	H	0.081250	0.902830	0.624013
	H91	H	0.909602	0.891494	0.397566
	H92	H	0.085087	0.605394	0.923128
	H93	H	0.092481	0.369452	0.109227
	H94	H	0.906912	0.605160	0.101564
	H95	H	0.902124	0.372359	0.922393
	H96	H	0.396569	0.106313	0.598543
	H97	H	0.599266	0.868983	0.603285
	H98	H	0.586565	0.107471	0.418835
	H99	H	0.401328	0.872906	0.426478
	H100	H	0.584461	0.396482	0.126820
	H101	H	0.574038	0.580326	0.901064
	H102	H	0.404158	0.588765	0.129849
	H103	H	0.394742	0.395853	0.893845
	H104	H	0.113729	0.580315	0.415237
	H105	H	0.882855	0.582773	0.596138
	H106	H	0.111771	0.398702	0.607731
	H107	H	0.880330	0.394272	0.425275
	H108	H	0.902381	0.607087	0.101749
	H109	H	0.080846	0.374669	0.106965
	H110	H	0.088079	0.606623	0.922588
	H111	H	0.902693	0.371513	0.919503
	H112	H	0.086773	0.888617	0.631504
	H113	H	0.082751	0.081172	0.397880
	H114	H	0.910223	0.083917	0.628064
	H115	H	0.891651	0.890620	0.393045
	H116	H	0.605196	0.070720	0.929253
	H117	H	0.383914	0.067753	0.099301
	H118	H	0.608811	0.898043	0.100807
	H119	H	0.374965	0.896567	0.909778
	C120	C	0.374057	-0.002856	0.633137
	C121	C	0.616888	0.979931	0.636043
	C122	C	0.614472	-0.002884	0.393315
	C123	C	0.371919	0.979090	0.390507
	C124	C	0.617418	0.367679	0.020490
	C125	C	0.617737	0.611992	1.003914
	C126	C	0.372979	0.611343	0.021152
	C127	C	0.373263	0.367825	1.003924
	C128	C	0.004261	0.611158	0.390763
	C129	C	0.988259	0.611209	0.635210
	C130	C	0.004255	0.367957	0.634700
	C131	C	0.986843	0.368093	0.390763
	C132	C	0.874975	0.498228	0.132810
	C133	C	0.117622	0.481227	0.134504
	C134	C	0.116346	0.498135	0.891973
	C135	C	0.873999	0.480442	0.890913
	C136	C	0.116931	0.867150	0.521245
	C137	C	0.116735	0.110341	0.504223
	C138	C	0.873290	0.109989	0.521591
	C139	C	0.872532	0.866827	0.504583
	C140	C	0.503299	0.110390	0.891605
	C141	C	0.485900	0.110280	0.135121
	C142	C	0.502533	0.867326	0.134571
	C143	C	0.485698	0.867363	0.890123
	C144	C	0.375876	0.873729	0.688892
	C145	C	0.616786	0.102964	0.692974
	C146	C	0.613062	0.873653	0.336842
	C147	C	0.371354	0.101553	0.332753
	C148	C	0.673694	0.367039	0.898502
	C149	C	0.674868	0.611291	0.125992
	C150	C	0.316224	0.609780	0.898786
	C151	C	0.317084	0.368740	0.125929
	C152	C	0.881146	0.666008	0.392954
	C153	C	0.110452	0.668171	0.634451
	C154	C	0.881956	0.311241	0.633616
	C155	C	0.108838	0.310582	0.392745
	C156	C	0.882562	0.368147	0.691413
	C157	C	0.109702	0.611762	0.693553
	C158	C	0.882513	0.611582	0.332533
	C159	C	0.108990	0.368004	0.334522
	C160	C	0.375233	0.665689	0.897896
	C161	C	0.615563	0.667320	0.126689
	C162	C	0.615528	0.309329	0.898810
	C163	C	0.374567	0.311152	0.126126
	C164	C	0.670121	0.873532	0.394387
	C165	C	0.673969	0.102854	0.635685
	C166	C	0.318922	0.873363	0.631141
	C167	C	0.314199	0.101573	0.389847
	C168	C	0.875842	0.374843	0.189589
	C169	C	0.116662	0.604579	0.190968
	C170	C	0.116388	0.374827	0.835327
	C171	C	0.876590	0.603945	0.835331
	C172	C	0.171841	0.867786	0.398695
	C173	C	0.173943	0.109742	0.626511
	C174	C	0.816064	0.108838	0.399691
	C175	C	0.818065	0.868748	0.627208
	C176	C	0.380547	0.166305	0.892733
	C177	C	0.608748	0.166357	0.134058
	C178	C	0.379128	0.813184	0.129378
	C179	C	0.608624	0.812207	0.894104
	C180	C	0.379711	0.868439	0.189127
	C181	C	0.607808	0.109939	0.193217
	C182	C	0.381046	0.110042	0.834036
	C183	C	0.608430	0.868371	0.835190
	C184	C	0.874967	0.165650	0.398936
	C185	C	0.116028	0.167129	0.626829
	C186	C	0.113822	0.811517	0.398422
	C187	C	0.877097	0.812322	0.627441
	C188	C	0.172716	0.374935	0.892991
	C189	C	0.173253	0.604786	0.132584
	C190	C	0.818209	0.374861	0.132115
	C191	C	0.818346	0.604247	0.891875
	C192	C	0.396715	0.083312	0.610816
	C193	C	0.593676	0.894171	0.612413
	C194	C	0.591708	0.082772	0.416639
	C195	C	0.395699	0.893584	0.414114
	C196	C	0.594728	0.392382	0.105350
	C197	C	0.594839	0.588774	0.918424
	C198	C	0.396033	0.589027	0.106490
	C199	C	0.395721	0.390452	0.918792
	C200	C	0.089669	0.588311	0.413815
	C201	C	0.902808	0.587795	0.611866
	C202	C	0.089455	0.391366	0.611848
	C203	C	0.901737	0.391696	0.413440
	C204	C	0.898036	0.583799	0.109619
	C205	C	0.094620	0.395162	0.111426
	C206	C	0.093444	0.583918	0.915191
	C207	C	0.896394	0.394524	0.914105
	C208	C	0.094892	0.890685	0.606295
	C209	C	0.092961	0.086968	0.419353
	C210	C	0.896702	0.087062	0.606854
	C211	C	0.893887	0.889340	0.419012
	C212	C	0.588412	0.086786	0.914981
	C213	C	0.400933	0.086809	0.111040
	C214	C	0.588403	0.890001	0.113577
	C215	C	0.399760	0.889431	0.911190
	Zn216	Zn	0.494662	-0.010736	0.762229
	Zn217	Zn	0.493667	-0.011874	0.263738
	Zn218	Zn	0.746217	0.489862	0.011971
	Zn219	Zn	0.245102	0.489406	0.012463
	Zn220	Zn	-0.003899	0.739194	0.512609
	Zn221	Zn	-0.005056	0.239548	0.513301
	Zn222	Zn	-0.003780	0.488600	0.763509
	Zn223	Zn	-0.004152	0.489787	0.262099
	Zn224	Zn	0.494318	0.739307	0.012542
	Zn225	Zn	0.494668	0.238895	0.012847
	Zn226	Zn	0.743683	-0.011628	0.513599
	Zn227	Zn	0.245433	-0.011764	0.512252
	N228	N	0.409738	0.951759	0.690087
	N229	N	0.582040	0.025579	0.693246
	N230	N	0.578863	0.951434	0.335908
	N231	N	0.406534	0.024322	0.333093
	N232	N	0.674920	0.402724	0.975089
	N233	N	0.676176	0.577496	0.048628
	N234	N	0.314856	0.576547	0.976244
	N235	N	0.316108	0.403269	0.048984
	N236	N	0.957975	0.666066	0.428407
	N237	N	0.033852	0.667971	0.598920
	N238	N	0.958624	0.310968	0.598991
	N239	N	0.031956	0.310524	0.427139
	N240	N	0.959795	0.402615	0.692345
	N241	N	0.032627	0.577012	0.694107
	N242	N	0.960104	0.578239	0.331118
	N243	N	0.031986	0.402896	0.333099
	N244	N	0.410016	0.666686	0.974865
	N245	N	0.580629	0.668019	0.049713
	N246	N	0.581204	0.309621	0.975704
	N247	N	0.409006	0.310449	0.049421
	N248	N	0.671049	0.951029	0.429060
	N249	N	0.674422	0.025151	0.601106
	N250	N	0.317451	0.951198	0.597363
	N251	N	0.314307	0.024458	0.425050
	N252	N	0.910282	0.452561	0.190402
	N253	N	0.083007	0.526692	0.192290
	N254	N	0.081981	0.452408	0.834531
	N255	N	0.910514	0.526044	0.834589
	N256	N	0.174192	0.901572	0.476124
	N257	N	0.174632	0.075079	0.549457
	N258	N	0.814453	0.075541	0.477098
	N259	N	0.815174	0.901814	0.549733
	N260	N	0.457337	0.166413	0.928098
	N261	N	0.531920	0.166774	0.098618
	N262	N	0.456493	0.812556	0.096021
	N263	N	0.531381	0.811252	0.927619
	N264	N	0.457411	0.901612	0.192323
	N265	N	0.530430	0.076076	0.194010
	N266	N	0.458409	0.076054	0.833114
	N267	N	0.530873	0.901807	0.832650
	N268	N	0.909879	0.166524	0.475844
	N269	N	0.081286	0.167768	0.549850
	N270	N	0.080268	0.811068	0.475442
	N271	N	0.910055	0.810757	0.550061
	N272	N	0.172902	0.452586	0.927456
	N273	N	0.173936	0.527045	0.097977
	N274	N	0.817412	0.452519	0.097620
	N275	N	0.816628	0.526306	0.925586
	O276	O	0.942750	-0.046873	1.083942
	H277	H	0.942289	-0.052961	1.087152
	H278	H	0.943604	-0.032306	1.075213
	O279	O	0.337281	0.413190	0.528221
	H280	H	0.337973	0.413614	0.517802
	H281	H	0.340378	0.433966	0.530764
	O282	O	0.587160	0.358468	0.472280
	H283	H	0.596847	0.361986	0.477410
	H284	H	0.582814	0.356556	0.460444
	O285	O	0.348470	0.398710	0.619081
	H286	H	0.354379	0.408039	0.614775
	H287	H	0.350480	0.394597	0.630188
	O288	O	0.534758	0.500731	0.494354
	H289	H	0.529830	0.489099	0.496677
	H290	H	0.538172	0.507452	0.510285
	O291	O	-0.079985	-0.022782	0.985748
	H292	H	-0.066830	-0.036910	0.987098
	H293	H	-0.076928	-0.020689	0.981044
	O294	O	0.952215	1.036499	-0.042619
	H295	H	0.947511	1.035143	-0.034992
	H296	H	0.961063	1.036528	-0.037651
	O297	O	1.580621	0.353155	0.392035
	H298	H	1.583216	0.365126	0.398161
	H299	H	1.581268	0.364012	0.384194
	O300	O	0.442685	0.574349	0.390222
	H301	H	0.448840	0.561498	0.389955
	H302	H	0.450420	0.578785	0.395378
	O303	O	0.496503	0.449187	0.572568
	H304	H	0.500258	0.454423	0.594749
	H305	H	0.482422	0.436094	0.567501
	O306	O	0.432584	0.517266	0.427133
	H307	H	0.430789	0.513728	0.410943
	H308	H	0.428204	0.511755	0.438173
	O309	O	0.536005	0.351780	0.488331
	H310	H	0.536538	0.342186	0.491991
	H311	H	0.537871	0.358896	0.479209
	O312	O	1.036960	1.034426	1.103119
	H313	H	1.049526	1.039297	1.105296
	H314	H	1.032556	1.038653	1.088730
	O315	O	0.957170	0.970092	0.017459
	H316	H	0.944060	0.968124	0.016574
	H317	H	0.953981	0.978427	0.016848
	O318	O	0.454728	0.501920	0.553337
	H319	H	0.449350	0.504799	0.545446
	H320	H	0.459951	0.496708	0.542330
	O321	O	1.080797	0.987223	0.084485
	H322	H	1.097594	0.985307	0.089354
	H323	H	1.074712	0.977687	0.082064
	O324	O	-0.618095	1.603212	0.479116
	H325	H	-0.613645	1.607054	0.472872
	H326	H	-0.611463	1.597700	0.475401
	O327	O	-0.518724	1.397837	1.589471
	H328	H	-0.518609	1.396243	1.597161
	H329	H	-0.515115	1.404759	1.584563
	O330	O	-0.000975	0.005002	0.037063
	H331	H	0.013638	0.002223	0.032821
	H332	H	0.001660	0.009368	0.040395
	O333	O	0.979901	1.105834	0.045823
	H334	H	0.975630	1.104942	0.043171
	H335	H	0.980062	1.102566	0.048633
	O336	O	0.044337	-0.154354	-0.061090
	H337	H	0.044698	-0.154269	-0.062228
	H338	H	0.035520	-0.152330	-0.060066
	O339	O	-0.067549	-0.050311	0.032235
	H340	H	-0.066210	-0.058883	0.046659
	H341	H	-0.063979	-0.059474	0.035816
	O342	O	0.404554	0.518547	0.349424
	H343	H	0.412353	0.509922	0.338459
	H344	H	0.414032	0.513515	0.363859
	O345	O	-0.112046	1.176112	1.199359
	H346	H	-0.109589	1.179201	1.195880
	H347	H	-0.116834	1.179970	1.205170
	O348	O	0.554280	0.492412	0.653418
	H349	H	0.551499	0.483995	0.654110
	H350	H	0.554666	0.494088	0.662931
	O351	O	0.530508	0.490689	0.394153
	H352	H	0.528764	0.497583	0.374972
	H353	H	0.513362	0.488770	0.396637
	O354	O	0.693741	0.648745	-0.418326
	H355	H	0.698109	0.669087	-0.408322
	H356	H	0.698476	0.651967	-0.393913
	O357	O	0.660849	0.527425	0.563880
	H358	H	0.660621	0.529424	0.566488
	H359	H	0.657224	0.517877	0.575460
	O360	O	0.613221	0.302159	0.392682
	H361	H	0.625468	0.298304	0.378604
	H362	H	0.626953	0.298059	0.376360
	O363	O	0.597423	0.625476	0.607384
	H364	H	0.597013	0.623004	0.618412
	H365	H	0.594250	0.632416	0.609696
	O366	O	0.912229	0.997800	-0.082506
	H367	H	0.910818	1.001025	-0.087555
	H368	H	0.907735	1.005061	-0.084796
	O369	O	0.926036	0.023077	-0.087503
	H370	H	0.921702	0.019845	-0.095841
	H371	H	0.922009	0.020423	-0.087383
	O372	O	0.525984	0.511278	0.599569
	H373	H	0.514107	0.524529	0.599327
	H374	H	0.536134	0.512723	0.590391
	O375	O	0.976332	0.017058	1.016534
	H376	H	0.976434	0.011049	1.023885
	H377	H	0.970842	0.009458	1.023107
	O378	O	-0.058225	0.933109	-0.026145
	H379	H	-0.057607	0.928067	-0.031330
	H380	H	-0.052201	0.943078	-0.029712
	O381	O	0.430841	0.483214	0.487208
	H382	H	0.434009	0.479527	0.472094
	H383	H	0.431853	0.472498	0.484133
	O384	O	0.901444	0.977901	-0.006272
	H385	H	0.900572	0.980103	0.000187
	H386	H	0.907818	0.984116	-0.014628
	O387	O	1.028222	0.034435	1.066386
	H388	H	1.028659	0.051837	1.063854
	H389	H	1.030614	0.036436	1.082066
	O390	O	0.376560	1.431280	-0.373196
	H391	H	0.358261	1.420412	-0.374296
	H392	H	0.383149	1.439560	-0.372056
	O393	O	0.480251	0.577358	0.478065
	H394	H	0.471971	0.576605	0.487899
	H395	H	0.481448	0.567719	0.478760
