data_Molecule from HDF5

_cell_length_a		16.499633
_cell_length_b		16.389775
_cell_length_c		16.702094
_cell_angle_alpha	90.060542
_cell_angle_beta	89.971145
_cell_angle_gamma	89.984272
_symmetry_space_group_name_H-M	'P 1'
_symmetry_Int_Tables_number		1

loop_
	_symmetry_equiv_pos_as_xyz
	x,y,z

loop_
	_atom_site_label
	_atom_site_type_symbol
	_atom_site_fract_x
	_atom_site_fract_y
	_atom_site_fract_z
	H0	H	0.391430	0.859320	0.743383
	H1	H	0.607450	0.172489	0.742042
	H2	H	0.606675	0.859189	0.298183
	H3	H	0.395819	0.175087	0.299258
	H4	H	0.723207	0.414202	0.864137
	H5	H	0.723565	0.623763	0.175292
	H6	H	0.279238	0.621771	0.864413
	H7	H	0.280118	0.411582	0.176026
	H8	H	0.843951	0.737146	0.416590
	H9	H	0.159726	0.737875	0.624190
	H10	H	0.841418	0.301283	0.620361
	H11	H	0.159183	0.295240	0.416064
	H12	H	0.843175	0.414770	0.739493
	H13	H	0.159050	0.622973	0.741707
	H14	H	0.846520	0.625216	0.296571
	H15	H	0.156262	0.405305	0.295093
	H16	H	0.395984	0.738506	0.864125
	H17	H	0.604081	0.739205	0.175758
	H18	H	0.605339	0.297662	0.863202
	H19	H	0.399089	0.295958	0.175977
	H20	H	0.718928	0.856229	0.417963
	H21	H	0.718746	0.175281	0.622103
	H22	H	0.278162	0.858926	0.625442
	H23	H	0.280784	0.174691	0.415944
	H24	H	0.892451	0.360836	0.242528
	H25	H	0.112754	0.670618	0.246907
	H26	H	0.104693	0.358985	0.801000
	H27	H	0.892725	0.675771	0.796666
	H28	H	0.227378	0.906588	0.366551
	H29	H	0.224604	0.121811	0.674429
	H30	H	0.781015	0.119200	0.364177
	H31	H	0.779677	0.911431	0.677590
	H32	H	0.344595	0.236396	0.915902
	H33	H	0.661456	0.233435	0.119094
	H34	H	0.343759	0.797139	0.123584
	H35	H	0.659402	0.795453	0.916450
	H36	H	0.346972	0.908383	0.244328
	H37	H	0.658806	0.122849	0.240710
	H38	H	0.346655	0.122106	0.797178
	H39	H	0.657941	0.906183	0.795551
	H40	H	0.896388	0.237965	0.365129
	H41	H	0.102619	0.234148	0.676930
	H42	H	0.108849	0.791428	0.366110
	H43	H	0.897174	0.794812	0.677651
	H44	H	0.218800	0.357650	0.918738
	H45	H	0.223083	0.674395	0.126454
	H46	H	0.780498	0.359921	0.123932
	H47	H	0.779834	0.677236	0.915361
	H48	H	0.410063	0.131558	0.612681
	H49	H	0.596218	0.899076	0.610211
	H50	H	0.590478	0.130642	0.426780
	H51	H	0.415920	0.907465	0.441826
	H52	H	0.588396	0.423780	0.131261
	H53	H	0.589591	0.602911	0.911107
	H54	H	0.414914	0.603749	0.128954
	H55	H	0.406189	0.418202	0.903947
	H56	H	0.110637	0.599718	0.438454
	H57	H	0.889836	0.604326	0.610900
	H58	H	0.113452	0.428890	0.609392
	H59	H	0.891586	0.431165	0.435695
	H60	H	0.116306	0.428872	0.618237
	H61	H	0.889307	0.604262	0.609932
	H62	H	0.112728	0.597289	0.427983
	H63	H	0.889020	0.432560	0.425597
	H64	H	0.412794	0.609875	0.131698
	H65	H	0.588269	0.607985	0.908819
	H66	H	0.596526	0.427367	0.132909
	H67	H	0.404495	0.434927	0.909092
	H68	H	0.591055	0.130170	0.429813
	H69	H	0.584510	0.902099	0.613662
	H70	H	0.421900	0.126515	0.610757
	H71	H	0.405778	0.898844	0.426738
	H72	H	0.920271	0.627107	0.104450
	H73	H	0.086106	0.407515	0.100161
	H74	H	0.088563	0.630753	0.929149
	H75	H	0.914740	0.406119	0.928611
	H76	H	0.092222	0.933303	0.629111
	H77	H	0.089725	0.106561	0.408797
	H78	H	0.903805	0.105075	0.632951
	H79	H	0.909613	0.927990	0.410446
	H80	H	0.615826	0.107473	0.928233
	H81	H	0.388710	0.108618	0.106148
	H82	H	0.611389	0.931651	0.103229
	H83	H	0.389312	0.931804	0.924983
	H84	H	0.613318	0.934226	0.113125
	H85	H	0.390477	0.100577	0.110107
	H86	H	0.614846	0.104345	0.931938
	H87	H	0.388516	0.925157	0.930930
	H88	H	0.913353	0.104976	0.631746
	H89	H	0.092898	0.105262	0.407735
	H90	H	0.084957	0.930223	0.628646
	H91	H	0.912879	0.926509	0.410763
	H92	H	0.088764	0.630212	0.933302
	H93	H	0.097480	0.400649	0.108419
	H94	H	0.907295	0.632491	0.106489
	H95	H	0.912722	0.406486	0.932222
	H96	H	0.413557	0.126857	0.601100
	H97	H	0.588427	0.904878	0.602417
	H98	H	0.593427	0.131410	0.428508
	H99	H	0.424569	0.904473	0.424229
	H100	H	0.590355	0.431960	0.128827
	H101	H	0.593915	0.605734	0.908131
	H102	H	0.408525	0.604007	0.132122
	H103	H	0.419660	0.427135	0.911233
	H104	H	0.115034	0.607173	0.432211
	H105	H	0.889930	0.603751	0.610356
	H106	H	0.116984	0.420846	0.612807
	H107	H	0.887227	0.422958	0.430365
	H108	H	0.917052	0.632499	0.117143
	H109	H	0.083265	0.402959	0.115182
	H110	H	0.092358	0.631546	0.931111
	H111	H	0.910891	0.404474	0.929262
	H112	H	0.090757	0.925966	0.631730
	H113	H	0.090468	0.103015	0.409095
	H114	H	0.909044	0.113069	0.634660
	H115	H	0.910063	0.924888	0.409340
	H116	H	0.614750	0.102459	0.927803
	H117	H	0.387168	0.107372	0.115321
	H118	H	0.615283	0.924052	0.109515
	H119	H	0.392377	0.932795	0.933657
	C120	C	0.381199	0.024397	0.640707
	C121	C	0.621870	1.006719	0.640542
	C122	C	0.623196	0.025569	0.397612
	C123	C	0.381751	1.007990	0.398855
	C124	C	0.623246	0.396424	0.027807
	C125	C	0.622840	0.638944	1.011912
	C126	C	0.379298	0.638600	0.028462
	C127	C	0.379068	0.394403	1.011340
	C128	C	0.010139	0.636388	0.399828
	C129	C	0.993882	0.637287	0.641959
	C130	C	0.010172	0.395836	0.642658
	C131	C	0.992754	0.395016	0.398453
	C132	C	0.881469	0.526281	0.140862
	C133	C	0.122741	0.507292	0.141512
	C134	C	0.121808	0.526018	0.899668
	C135	C	0.880174	0.510318	0.898477
	C136	C	0.123217	0.895195	0.528420
	C137	C	0.122917	0.137357	0.511485
	C138	C	0.878198	0.138705	0.529487
	C139	C	0.879071	0.894088	0.513084
	C140	C	0.511219	0.137159	0.897913
	C141	C	0.493254	0.137604	0.140878
	C142	C	0.509821	0.896978	0.140765
	C143	C	0.493365	0.895030	0.897097
	C144	C	0.375268	0.906510	0.702534
	C145	C	0.624927	0.125580	0.701034
	C146	C	0.624794	0.906114	0.338553
	C147	C	0.378287	0.127247	0.339160
	C148	C	0.682960	0.395184	0.910672
	C149	C	0.682945	0.642097	0.128895
	C150	C	0.319100	0.640460	0.911169
	C151	C	0.320056	0.392626	0.129093
	C152	C	0.891935	0.697656	0.397557
	C153	C	0.112587	0.697438	0.642895
	C154	C	0.889877	0.339203	0.640777
	C155	C	0.111229	0.334210	0.396913
	C156	C	0.890768	0.395432	0.700290
	C157	C	0.112085	0.640844	0.701745
	C158	C	0.893049	0.641585	0.337973
	C159	C	0.109860	0.389310	0.336834
	C160	C	0.377423	0.698444	0.911082
	C161	C	0.623629	0.699069	0.129273
	C162	C	0.624442	0.337354	0.910240
	C163	C	0.379072	0.335100	0.128981
	C164	C	0.680643	0.904821	0.397924
	C165	C	0.680141	0.127022	0.641397
	C166	C	0.318773	0.906149	0.643828
	C167	C	0.321022	0.127175	0.397255
	C168	C	0.876296	0.408004	0.201697
	C169	C	0.128324	0.624675	0.204404
	C170	C	0.123360	0.406537	0.840668
	C171	C	0.875920	0.628795	0.837600
	C172	C	0.185654	0.889830	0.412724
	C173	C	0.183409	0.139595	0.628342
	C174	C	0.820127	0.139118	0.411414
	C175	C	0.819166	0.892290	0.630455
	C176	C	0.392435	0.196906	0.896757
	C177	C	0.613124	0.195501	0.139783
	C178	C	0.391403	0.836693	0.142584
	C179	C	0.611757	0.834554	0.896673
	C180	C	0.393066	0.891951	0.202783
	C181	C	0.611973	0.140245	0.199923
	C182	C	0.393117	0.140104	0.837901
	C183	C	0.611062	0.889758	0.836534
	C184	C	0.877642	0.197891	0.411740
	C185	C	0.123115	0.195646	0.629552
	C186	C	0.126664	0.832575	0.412415
	C187	C	0.877947	0.834601	0.630762
	C188	C	0.180013	0.405780	0.899298
	C189	C	0.183795	0.626165	0.144906
	C190	C	0.820303	0.407598	0.142729
	C191	C	0.819639	0.629429	0.896598
	C192	C	0.407499	0.106848	0.615286
	C193	C	0.596701	0.923568	0.615854
	C194	C	0.598932	0.109031	0.421467
	C195	C	0.407837	0.925374	0.423800
	C196	C	0.598772	0.420738	0.109680
	C197	C	0.597659	0.613073	0.930326
	C198	C	0.404599	0.613185	0.109516
	C199	C	0.403034	0.419637	0.929315
	C200	C	0.091609	0.609250	0.425651
	C201	C	0.911302	0.611592	0.617484
	C202	C	0.093830	0.419321	0.620040
	C203	C	0.910675	0.421279	0.423431
	C204	C	0.907610	0.609073	0.116347
	C205	C	0.096425	0.425047	0.115388
	C206	C	0.096968	0.609172	0.924175
	C207	C	0.905756	0.427303	0.923033
	C208	C	0.096783	0.922298	0.609029
	C209	C	0.098155	0.112268	0.429745
	C210	C	0.902034	0.114512	0.611580
	C211	C	0.903944	0.919189	0.431482
	C212	C	0.593545	0.111873	0.922252
	C213	C	0.410357	0.112676	0.117357
	C214	C	0.592000	0.922620	0.115448
	C215	C	0.411366	0.922088	0.922474
	Zn216	Zn	0.501842	0.015432	0.768902
	Zn217	Zn	0.501797	0.016943	0.270220
	Zn218	Zn	0.752878	0.518592	0.020193
	Zn219	Zn	0.250494	0.516887	0.020713
	Zn220	Zn	0.001796	0.765608	0.520916
	Zn221	Zn	0.001195	0.267190	0.520401
	Zn222	Zn	0.001318	0.518211	0.771180
	Zn223	Zn	0.002098	0.516112	0.269674
	Zn224	Zn	0.500872	0.768301	0.020331
	Zn225	Zn	0.502452	0.266196	0.019412
	Zn226	Zn	0.749751	0.015703	0.520432
	Zn227	Zn	0.253306	0.016321	0.519496
	N228	N	0.413688	0.980919	0.700496
	N229	N	0.589682	0.049670	0.700810
	N230	N	0.590257	0.982369	0.337827
	N231	N	0.414898	0.051914	0.339751
	N232	N	0.682416	0.431210	0.984837
	N233	N	0.682532	0.605617	0.054859
	N234	N	0.319937	0.604142	0.985335
	N235	N	0.319858	0.428488	0.054776
	N236	N	0.965866	0.694762	0.435250
	N237	N	0.037990	0.695294	0.606437
	N238	N	0.965329	0.339113	0.605805
	N239	N	0.037237	0.337307	0.434459
	N240	N	0.966702	0.429731	0.701818
	N241	N	0.037005	0.604746	0.701583
	N242	N	0.967619	0.604415	0.338972
	N243	N	0.035257	0.426435	0.337551
	N244	N	0.413987	0.697716	0.984818
	N245	N	0.587104	0.697317	0.055441
	N246	N	0.588086	0.338028	0.984142
	N247	N	0.414738	0.335893	0.054626
	N248	N	0.679826	0.980148	0.433999
	N249	N	0.678480	0.052008	0.604548
	N250	N	0.322232	0.980433	0.606057
	N251	N	0.322783	0.051966	0.433603
	N252	N	0.913585	0.482945	0.200873
	N253	N	0.091065	0.549724	0.202527
	N254	N	0.087869	0.482401	0.840765
	N255	N	0.912873	0.553637	0.838702
	N256	N	0.183457	0.928209	0.485762
	N257	N	0.183212	0.104138	0.554023
	N258	N	0.819996	0.103344	0.485763
	N259	N	0.819514	0.928246	0.556070
	N260	N	0.466810	0.195297	0.933514
	N261	N	0.538272	0.194063	0.103809
	N262	N	0.464814	0.840054	0.104461
	N263	N	0.537296	0.837367	0.933365
	N264	N	0.467755	0.928809	0.201611
	N265	N	0.536392	0.105073	0.200931
	N266	N	0.468004	0.103707	0.838377
	N267	N	0.536065	0.926212	0.836518
	N268	N	0.912952	0.197892	0.486114
	N269	N	0.086340	0.194716	0.555682
	N270	N	0.088542	0.835748	0.485448
	N271	N	0.914149	0.835354	0.556707
	N272	N	0.179377	0.481135	0.935237
	N273	N	0.180325	0.552268	0.106348
	N274	N	0.823242	0.482230	0.105521
	N275	N	0.822225	0.554857	0.933998
	O276	O	0.866122	0.873008	0.045285
	H277	H	0.871689	0.870685	0.031285
	H278	H	0.856783	0.859702	0.034174
	O279	O	-0.017487	-0.196012	0.995920
	H280	H	-0.029758	-0.202068	0.985517
	H281	H	-0.024178	-0.191162	0.999389
	O282	O	0.081980	0.989244	-0.193188
	H283	H	0.088482	0.994069	-0.202732
	H284	H	0.073673	1.000741	-0.201906
	O285	O	0.366065	0.501778	0.388320
	H286	H	0.359537	0.510371	0.385213
	H287	H	0.356904	0.507331	0.383225
	O288	O	0.772470	0.111533	0.859557
	H289	H	0.762288	0.097260	0.851223
	H290	H	0.758623	0.137561	0.839621
	O291	O	0.652192	0.673434	0.346922
	H292	H	0.637562	0.659939	0.357958
	H293	H	0.647553	0.673681	0.343311
	O294	O	-0.279915	0.396621	0.537951
	H295	H	-0.280473	0.386310	0.532635
	H296	H	-0.279702	0.392281	0.529706
	O297	O	1.212545	0.040192	0.237444
	H298	H	1.196900	0.036773	0.241785
	H299	H	1.226938	0.036655	0.254968
	O300	O	-0.203571	-0.150768	0.225536
	H301	H	-0.197879	-0.110783	0.224838
	H302	H	-0.229918	-0.163119	0.229305
	O303	O	-0.018199	0.009979	0.177912
	H304	H	-0.001376	0.000016	0.165752
	H305	H	-0.015654	-0.001287	0.184463
	O306	O	0.830640	0.085482	0.057989
	H307	H	0.828990	0.073176	0.047935
	H308	H	0.820343	0.117602	0.048700
	O309	O	0.793227	0.025070	0.231074
	H310	H	0.791600	0.035593	0.217473
	H311	H	0.781279	0.032640	0.240068
	O312	O	0.320554	0.494105	0.418154
	H313	H	0.317823	0.487816	0.420853
	H314	H	0.334781	0.480732	0.412946
	O315	O	0.707279	0.312108	0.421433
	H316	H	0.719297	0.316612	0.429484
	H317	H	0.704902	0.303967	0.428861
	O318	O	1.212730	1.226373	0.055394
	H319	H	1.223947	1.208771	0.036327
	H320	H	1.231968	1.239452	0.061175
	O321	O	0.202703	0.213275	0.218885
	H322	H	0.190344	0.198000	0.201603
	H323	H	0.191676	0.200985	0.206558
	O324	O	0.473862	0.457943	1.487666
	H325	H	0.464167	0.453671	1.487563
	H326	H	0.474973	0.449676	1.489913
	O327	O	0.612200	0.394549	0.484018
	H328	H	0.606606	0.391094	0.463140
	H329	H	0.593805	0.396713	0.488222
	O330	O	-0.071416	1.031144	-0.050959
	H331	H	-0.048040	1.039740	-0.049312
	H332	H	-0.078654	1.039917	-0.052305
	O333	O	0.720348	0.298400	-0.226109
	H334	H	0.716046	0.311083	-0.233582
	H335	H	0.709650	0.304782	-0.223887
	O336	O	0.713979	0.490222	0.321535
	H337	H	0.735933	0.479493	0.302874
	H338	H	0.709163	0.476102	0.335897
	O339	O	0.422893	0.316068	0.550665
	H340	H	0.413599	0.306596	0.551514
	H341	H	0.410052	0.306600	0.553250
	O342	O	0.006922	0.914286	0.088372
	H343	H	0.014090	0.910975	0.074828
	H344	H	-0.012349	0.908766	0.090779
	O345	O	0.483152	0.328783	0.725978
	H346	H	0.466680	0.308283	0.737274
	H347	H	0.451284	0.327198	0.724430
	O348	O	0.866611	-0.077229	-0.001753
	H349	H	0.852940	-0.083295	0.004571
	H350	H	0.867906	-0.077847	0.005167
	O351	O	0.227647	0.068993	0.975640
	H352	H	0.229076	0.056278	0.960115
	H353	H	0.230825	0.052352	0.987141
	O354	O	1.414443	-0.587577	1.461354
	H355	H	1.404923	-0.607177	1.469779
	H356	H	1.404493	-0.585223	1.448290
	O357	O	0.294289	0.405610	0.587118
	H358	H	0.287137	0.391996	0.593534
	H359	H	0.277924	0.410438	0.592863
	O360	O	0.437678	0.437231	0.320822
	H361	H	0.442226	0.451848	0.319477
	H362	H	0.452668	0.408770	0.310915
	O363	O	0.489407	0.689575	-0.679005
	H364	H	0.508734	0.697663	-0.676075
	H365	H	0.507380	0.672356	-0.672958
	O366	O	1.127800	-0.142108	1.178887
	H367	H	1.093994	-0.139862	1.173506
	H368	H	1.124457	-0.153781	1.183721
	O369	O	0.292555	0.303970	0.733460
	H370	H	0.281494	0.353547	0.740980
	H371	H	0.260681	0.274777	0.766670
	O372	O	-0.022162	0.799919	1.238119
	H373	H	-0.040075	0.793348	1.241363
	H374	H	-0.042913	0.792687	1.253030
	O375	O	0.845479	0.196365	0.025625
	H376	H	0.864885	0.200688	0.024378
	H377	H	0.849933	0.201815	0.020284
	O378	O	0.983952	0.873359	0.803740
	H379	H	0.992087	0.879819	0.803645
	H380	H	1.002443	0.850487	0.795023
	O381	O	0.228973	0.912803	0.043314
	H382	H	0.222029	0.897948	0.060956
	H383	H	0.231492	0.911022	0.065815
	O384	O	0.491608	0.733971	0.527760
	H385	H	0.487368	0.729898	0.523251
	H386	H	0.494300	0.728972	0.526445
	O387	O	-0.139047	1.043239	0.880079
	H388	H	-0.141964	1.032085	0.875273
	H389	H	-0.132139	1.046661	0.893352
	O390	O	0.192632	0.919415	0.823221
	H391	H	0.195471	0.904100	0.846319
	H392	H	0.204367	0.931181	0.812453
	O393	O	0.840494	0.207989	0.181837
	H394	H	0.860713	0.184106	0.174513
	H395	H	0.858348	0.202898	0.172880
	O396	O	0.386945	0.674851	0.661027
	H397	H	0.389475	0.676171	0.649338
	H398	H	0.403631	0.677956	0.666188
	O399	O	1.156728	0.769135	-0.239841
	H400	H	1.175347	0.767250	-0.242594
	H401	H	1.183143	0.748060	-0.256647
	O402	O	0.292039	-0.560662	1.452773
	H403	H	0.279051	-0.579149	1.432926
	H404	H	0.295637	-0.548784	1.444354
	O405	O	0.496038	0.462159	0.663918
	H406	H	0.478691	0.441021	0.659531
	H407	H	0.483931	0.467599	0.658496
	O408	O	0.976239	1.038549	0.968217
	H409	H	0.969190	1.031493	0.956706
	H410	H	0.977670	1.053002	0.958009
	O411	O	0.967726	1.231751	-0.197930
	H412	H	0.940721	1.237782	-0.193264
	H413	H	0.956406	1.251507	-0.210956
	O414	O	0.194805	0.197053	-0.166972
	H415	H	0.171109	0.180988	-0.153790
	H416	H	0.180644	0.172597	-0.153090
	O417	O	0.723224	0.736526	0.550642
	H418	H	0.748956	0.756382	0.562664
	H419	H	0.727354	0.736214	0.585678
	O420	O	0.698764	-0.463925	0.723562
	H421	H	0.693348	-0.479215	0.711062
	H422	H	0.695585	-0.474192	0.730181
	O423	O	1.060391	1.223463	-0.061086
	H424	H	1.053670	1.232539	-0.059348
	H425	H	1.046867	1.231194	-0.044093
	O426	O	0.030492	1.041505	0.188491
	H427	H	0.042997	1.017736	0.184877
	H428	H	0.021239	1.017057	0.182761
	O429	O	0.514818	0.734281	0.706653
	H430	H	0.497938	0.742291	0.686557
	H431	H	0.516478	0.763795	0.728553
	O432	O	0.522200	0.505019	0.365879
	H433	H	0.526047	0.489487	0.360093
	H434	H	0.514715	0.496825	0.368123
	O435	O	1.265156	-0.242807	0.282008
	H436	H	1.272159	-0.255433	0.289005
	H437	H	1.287000	-0.245862	0.280251
	O438	O	0.598220	0.668337	0.493513
	H439	H	0.613804	0.669111	0.508006
	H440	H	0.606484	0.658932	0.506265
	O441	O	0.411240	0.540552	0.596774
	H442	H	0.395425	0.545853	0.589424
	H443	H	0.411608	0.529147	0.597714
	O444	O	0.296922	0.723358	0.441861
	H445	H	0.311735	0.715519	0.422766
	H446	H	0.288228	0.733091	0.437032
	O447	O	0.550473	0.491081	0.697529
	H448	H	0.554718	0.505679	0.700989
	H449	H	0.554987	0.489712	0.690892
	O450	O	0.960252	0.041366	-0.147919
	H451	H	0.952621	0.040567	-0.155971
	H452	H	0.948080	0.051871	-0.140529
	O453	O	0.662640	0.405233	0.305159
	H454	H	0.655014	0.401386	0.316622
	H455	H	0.687907	0.383235	0.293413
	O456	O	0.019297	1.233277	1.236042
	H457	H	0.028029	1.206041	1.237252
	H458	H	0.027164	1.256328	1.261025
	O459	O	0.693632	-0.295451	0.711521
	H460	H	0.698033	-0.325936	0.723811
	H461	H	0.661592	-0.300142	0.719921
	O462	O	0.486221	0.402270	0.332033
	H463	H	0.497265	0.386701	0.319063
	H464	H	0.509288	0.398930	0.337167
	O465	O	0.985736	0.152819	0.059127
	H466	H	1.002827	0.138067	0.070962
	H467	H	0.985967	0.152358	0.060143
	O468	O	-0.134675	0.904400	0.005703
	H469	H	-0.134553	0.900134	-0.017764
	H470	H	-0.135335	0.912085	-0.003851
	O471	O	0.684010	0.492804	0.505677
	H472	H	0.680691	0.511979	0.499303
	H473	H	0.675530	0.488794	0.487606
	O474	O	0.291978	0.480550	0.731697
	H475	H	0.285962	0.502903	0.732235
	H476	H	0.292264	0.501354	0.726308
	O477	O	0.222197	-0.200346	0.922606
	H478	H	0.247669	-0.222099	0.922516
	H479	H	0.215011	-0.213005	0.947097
