data_Molecule from HDF5

_cell_length_a		16.544939
_cell_length_b		16.517600
_cell_length_c		16.374942
_cell_angle_alpha	89.896748
_cell_angle_beta	90.009735
_cell_angle_gamma	90.053188
_symmetry_space_group_name_H-M	'P 1'
_symmetry_Int_Tables_number		1

loop_
	_symmetry_equiv_pos_as_xyz
	x,y,z

loop_
	_atom_site_label
	_atom_site_type_symbol
	_atom_site_fract_x
	_atom_site_fract_y
	_atom_site_fract_z
	H0	H	0.390457	0.840351	0.723606
	H1	H	0.606441	0.151701	0.718737
	H2	H	0.607242	0.836757	0.274582
	H3	H	0.395654	0.151613	0.273357
	H4	H	0.725165	0.389288	0.838974
	H5	H	0.727535	0.604857	0.152546
	H6	H	0.276868	0.606907	0.839857
	H7	H	0.277204	0.385822	0.152946
	H8	H	0.845410	0.721288	0.386640
	H9	H	0.155747	0.724998	0.607180
	H10	H	0.845792	0.272460	0.604008
	H11	H	0.157832	0.272771	0.388691
	H12	H	0.846743	0.389302	0.720251
	H13	H	0.159055	0.605043	0.719693
	H14	H	0.845431	0.603549	0.272435
	H15	H	0.159491	0.392580	0.275365
	H16	H	0.391390	0.723415	0.841034
	H17	H	0.611240	0.718549	0.153634
	H18	H	0.609131	0.272738	0.838992
	H19	H	0.394259	0.271831	0.153507
	H20	H	0.727322	0.839498	0.386693
	H21	H	0.725405	0.151109	0.605098
	H22	H	0.271922	0.841838	0.610119
	H23	H	0.278551	0.152312	0.388094
	H24	H	0.898848	0.340453	0.217847
	H25	H	0.109190	0.654559	0.218247
	H26	H	0.107193	0.339347	0.774735
	H27	H	0.895303	0.652569	0.771748
	H28	H	0.223955	0.889400	0.339301
	H29	H	0.225848	0.105548	0.653396
	H30	H	0.779317	0.101454	0.339199
	H31	H	0.779064	0.889952	0.655112
	H32	H	0.344997	0.219999	0.888624
	H33	H	0.657221	0.216932	0.102512
	H34	H	0.347184	0.767730	0.106871
	H35	H	0.657246	0.772035	0.887874
	H36	H	0.343780	0.888339	0.218814
	H37	H	0.658149	0.097447	0.216888
	H38	H	0.343904	0.102261	0.773206
	H39	H	0.657638	0.890193	0.773263
	H40	H	0.898301	0.214972	0.338058
	H41	H	0.108526	0.219448	0.654316
	H42	H	0.107848	0.774575	0.339295
	H43	H	0.892646	0.771757	0.653873
	H44	H	0.223885	0.339088	0.890132
	H45	H	0.227457	0.652451	0.103995
	H46	H	0.779559	0.341289	0.102864
	H47	H	0.775050	0.650531	0.884122
	H48	H	0.417588	0.105786	0.586706
	H49	H	0.593931	0.883257	0.581037
	H50	H	0.592531	0.105675	0.410531
	H51	H	0.414907	0.885830	0.413714
	H52	H	0.596058	0.409446	0.110642
	H53	H	0.590648	0.581825	0.883191
	H54	H	0.423463	0.579820	0.103806
	H55	H	0.412253	0.407966	0.882644
	H56	H	0.114654	0.586765	0.405387
	H57	H	0.895898	0.577751	0.577786
	H58	H	0.113489	0.404092	0.576381
	H59	H	0.893194	0.408831	0.415364
	H60	H	0.111952	0.414802	0.584498
	H61	H	0.889266	0.581284	0.591657
	H62	H	0.113007	0.589200	0.412320
	H63	H	0.889382	0.412314	0.400261
	H64	H	0.414048	0.587351	0.110392
	H65	H	0.587296	0.580122	0.885188
	H66	H	0.586852	0.409336	0.107735
	H67	H	0.413846	0.410063	0.883944
	H68	H	0.592371	0.108693	0.403760
	H69	H	0.587528	0.882705	0.588841
	H70	H	0.414131	0.105063	0.577882
	H71	H	0.407492	0.882487	0.411767
	H72	H	0.916671	0.608371	0.081114
	H73	H	0.087509	0.386027	0.084840
	H74	H	0.095356	0.610826	0.906346
	H75	H	0.918669	0.387391	0.911590
	H76	H	0.084456	0.905744	0.609262
	H77	H	0.090423	0.083320	0.383961
	H78	H	0.917504	0.088378	0.611387
	H79	H	0.913582	0.913481	0.386030
	H80	H	0.613948	0.088669	0.907995
	H81	H	0.388368	0.089665	0.079528
	H82	H	0.613840	0.905995	0.084974
	H83	H	0.388212	0.903732	0.909871
	H84	H	0.613468	0.906104	0.085147
	H85	H	0.391840	0.077667	0.081893
	H86	H	0.611258	0.082646	0.911381
	H87	H	0.393251	0.908859	0.917985
	H88	H	0.907170	0.085271	0.613362
	H89	H	0.088800	0.085016	0.383898
	H90	H	0.091317	0.913328	0.609908
	H91	H	0.917148	0.907438	0.384415
	H92	H	0.086343	0.608409	0.906168
	H93	H	0.093264	0.385408	0.081958
	H94	H	0.911193	0.610334	0.080842
	H95	H	0.910523	0.384848	0.912092
	H96	H	0.408397	0.108466	0.585108
	H97	H	0.584293	0.886335	0.579208
	H98	H	0.586439	0.104719	0.407050
	H99	H	0.413636	0.882611	0.405808
	H100	H	0.590946	0.401606	0.111340
	H101	H	0.587495	0.584084	0.884665
	H102	H	0.411077	0.574213	0.107473
	H103	H	0.414742	0.407436	0.883509
	H104	H	0.110767	0.582320	0.410583
	H105	H	0.889408	0.591730	0.579443
	H106	H	0.117302	0.403204	0.589372
	H107	H	0.886728	0.398363	0.406284
	H108	H	0.914068	0.609992	0.085930
	H109	H	0.092300	0.383167	0.087891
	H110	H	0.091168	0.606818	0.913685
	H111	H	0.914855	0.383418	0.905490
	H112	H	0.082464	0.915078	0.605201
	H113	H	0.090137	0.085269	0.383282
	H114	H	0.913232	0.078988	0.607798
	H115	H	0.909656	0.908022	0.382393
	H116	H	0.613449	0.082715	0.904557
	H117	H	0.386039	0.084133	0.090714
	H118	H	0.613247	0.905723	0.085657
	H119	H	0.391713	0.913343	0.907916
	C120	C	0.378561	0.003998	0.618380
	C121	C	0.621599	0.987129	0.616741
	C122	C	0.623397	0.002867	0.374238
	C123	C	0.379494	0.986829	0.375915
	C124	C	0.624053	0.373860	0.005498
	C125	C	0.623191	0.616326	0.987577
	C126	C	0.381498	0.616488	0.004484
	C127	C	0.380594	0.374880	0.987913
	C128	C	0.009863	0.618796	0.375121
	C129	C	0.993962	0.618441	0.617745
	C130	C	0.011073	0.374319	0.617550
	C131	C	0.993424	0.374565	0.374356
	C132	C	0.881632	0.505780	0.116255
	C133	C	0.124773	0.488260	0.118019
	C134	C	0.123426	0.504953	0.875567
	C135	C	0.880813	0.487872	0.874654
	C136	C	0.120798	0.876859	0.504923
	C137	C	0.123026	0.118082	0.487846
	C138	C	0.879835	0.117168	0.506267
	C139	C	0.879713	0.875149	0.488245
	C140	C	0.509290	0.117684	0.874640
	C141	C	0.492177	0.115891	0.117046
	C142	C	0.509812	0.872596	0.118480
	C143	C	0.493204	0.874274	0.876068
	C144	C	0.372906	0.887299	0.682509
	C145	C	0.624543	0.104821	0.678274
	C146	C	0.625437	0.884384	0.314180
	C147	C	0.377153	0.104619	0.313796
	C148	C	0.685162	0.370849	0.886673
	C149	C	0.686328	0.621447	0.105557
	C150	C	0.317745	0.623491	0.887141
	C151	C	0.318499	0.369586	0.105728
	C152	C	0.892406	0.680258	0.369919
	C153	C	0.109946	0.682687	0.623284
	C154	C	0.893049	0.313153	0.621655
	C155	C	0.111050	0.313751	0.371234
	C156	C	0.893508	0.371355	0.679425
	C157	C	0.111458	0.622729	0.679462
	C158	C	0.892492	0.621765	0.312675
	C159	C	0.111760	0.373469	0.314797
	C160	C	0.375292	0.681303	0.887578
	C161	C	0.628036	0.678082	0.105973
	C162	C	0.627403	0.312978	0.886575
	C163	C	0.376824	0.312597	0.106054
	C164	C	0.685623	0.885909	0.369955
	C165	C	0.683924	0.104325	0.621734
	C166	C	0.314022	0.888067	0.625810
	C167	C	0.318746	0.104866	0.370956
	C168	C	0.879770	0.387691	0.177650
	C169	C	0.127810	0.606856	0.178434
	C170	C	0.125578	0.386515	0.814821
	C171	C	0.876818	0.605303	0.812074
	C172	C	0.183171	0.872290	0.386886
	C173	C	0.184503	0.122369	0.606452
	C174	C	0.819416	0.119823	0.386870
	C175	C	0.819129	0.871718	0.607524
	C176	C	0.391729	0.179266	0.870819
	C177	C	0.610443	0.176371	0.120308
	C178	C	0.393234	0.809618	0.123073
	C179	C	0.610637	0.813041	0.870688
	C180	C	0.391679	0.869662	0.179036
	C181	C	0.610791	0.117187	0.177368
	C182	C	0.391159	0.120236	0.813814
	C183	C	0.610529	0.871812	0.813666
	C184	C	0.878486	0.176315	0.386230
	C185	C	0.126218	0.179268	0.606701
	C186	C	0.125074	0.815170	0.386439
	C187	C	0.875563	0.812944	0.606828
	C188	C	0.183558	0.386489	0.872453
	C189	C	0.186677	0.605783	0.121581
	C190	C	0.820928	0.387845	0.120390
	C191	C	0.817121	0.604306	0.868242
	C192	C	0.405585	0.085221	0.590840
	C193	C	0.595858	0.905352	0.590394
	C194	C	0.597755	0.085065	0.399790
	C195	C	0.404765	0.905045	0.402899
	C196	C	0.598520	0.399344	0.088196
	C197	C	0.596284	0.589544	0.905594
	C198	C	0.408601	0.588555	0.086078
	C199	C	0.406320	0.401163	0.905032
	C200	C	0.091508	0.593423	0.401786
	C201	C	0.912786	0.591324	0.590655
	C202	C	0.092753	0.399980	0.591047
	C203	C	0.911031	0.399428	0.399974
	C204	C	0.906667	0.588061	0.089996
	C205	C	0.098549	0.406321	0.092280
	C206	C	0.098243	0.587301	0.901214
	C207	C	0.907302	0.406416	0.901918
	C208	C	0.093875	0.903587	0.586886
	C209	C	0.097163	0.092116	0.405385
	C210	C	0.905239	0.091680	0.589074
	C211	C	0.905973	0.901746	0.406035
	C212	C	0.591386	0.092108	0.900577
	C213	C	0.410280	0.090892	0.091456
	C214	C	0.592105	0.898580	0.092575
	C215	C	0.412034	0.900722	0.903967
	Zn216	Zn	0.500510	-0.004820	0.746466
	Zn217	Zn	0.500569	-0.005557	0.246934
	Zn218	Zn	0.751807	0.496698	-0.004385
	Zn219	Zn	0.252743	0.496092	-0.004005
	Zn220	Zn	0.000614	0.747744	0.496531
	Zn221	Zn	0.001930	0.245571	0.496089
	Zn222	Zn	0.002617	0.496768	0.746628
	Zn223	Zn	0.002469	0.497693	0.246167
	Zn224	Zn	0.502786	0.744666	-0.003667
	Zn225	Zn	0.501367	0.246340	-0.003934
	Zn226	Zn	0.751846	-0.004923	0.496878
	Zn227	Zn	0.250188	-0.003407	0.496821
	N228	N	0.412292	0.960497	0.678172
	N229	N	0.586186	0.031121	0.675100
	N230	N	0.587473	0.958407	0.316795
	N231	N	0.414155	0.030356	0.316658
	N232	N	0.683240	0.408020	0.961604
	N233	N	0.683506	0.583681	0.030850
	N234	N	0.321481	0.583616	0.960785
	N235	N	0.321072	0.407999	0.031278
	N236	N	0.966360	0.678568	0.408084
	N237	N	0.035775	0.680027	0.585651
	N238	N	0.967160	0.314797	0.583881
	N239	N	0.036140	0.314368	0.407490
	N240	N	0.967726	0.408664	0.676985
	N241	N	0.038345	0.583418	0.676012
	N242	N	0.966536	0.584315	0.315775
	N243	N	0.037561	0.410657	0.316700
	N244	N	0.414185	0.677035	0.961573
	N245	N	0.589447	0.675008	0.031678
	N246	N	0.590089	0.314646	0.961523
	N247	N	0.414877	0.315871	0.031487
	N248	N	0.684583	0.960617	0.406649
	N249	N	0.682121	0.030102	0.584027
	N250	N	0.317112	0.961854	0.587119
	N251	N	0.319921	0.030555	0.408806
	N252	N	0.916586	0.462209	0.175339
	N253	N	0.090301	0.532606	0.176735
	N254	N	0.089233	0.461226	0.816349
	N255	N	0.915849	0.531942	0.816139
	N256	N	0.180533	0.909908	0.461570
	N257	N	0.182594	0.085025	0.531626
	N258	N	0.819908	0.083939	0.462690
	N259	N	0.821501	0.909500	0.532836
	N260	N	0.466510	0.177970	0.907657
	N261	N	0.535864	0.175856	0.083650
	N262	N	0.468020	0.811192	0.086499
	N263	N	0.536574	0.814333	0.908538
	N264	N	0.465430	0.907890	0.176400
	N265	N	0.536186	0.080553	0.175776
	N266	N	0.465294	0.083008	0.815887
	N267	N	0.536169	0.908983	0.816749
	N268	N	0.914925	0.175059	0.461634
	N269	N	0.088624	0.176639	0.531980
	N270	N	0.087118	0.817575	0.461127
	N271	N	0.912300	0.814934	0.531524
	N272	N	0.182618	0.461267	0.909102
	N273	N	0.185074	0.530921	0.085121
	N274	N	0.821790	0.462428	0.083350
	N275	N	0.819501	0.530093	0.906377
	O276	O	0.463190	0.323157	0.347005
	H277	H	0.476773	0.326017	0.343185
	H278	H	0.463240	0.328877	0.368472
	O279	O	0.311806	0.690914	0.310714
	H280	H	0.338196	0.688225	0.318082
	H281	H	0.304540	0.654151	0.313726
	O282	O	0.773989	0.780373	0.220913
	H283	H	0.765478	0.766928	0.187484
	H284	H	0.762896	0.819122	0.229953
	O285	O	0.477130	0.712146	0.279422
	H286	H	0.482492	0.702077	0.264779
	H287	H	0.470410	0.728339	0.261725
	O288	O	0.191308	0.000020	-0.012378
	H289	H	0.189151	0.016594	-0.017497
	H290	H	0.183452	0.000530	-0.001276
	O291	O	0.794148	0.912348	-0.038136
	H292	H	0.784923	0.909769	-0.066866
	H293	H	0.799642	0.894210	-0.050301
	O294	O	0.080636	0.788437	0.078739
	H295	H	0.110384	0.786316	0.092416
	H296	H	0.067488	0.792484	0.109741
	O297	O	0.610216	0.523185	0.360868
	H298	H	0.623741	0.511522	0.374928
	H299	H	0.590653	0.522377	0.362356
	O300	O	0.398902	0.507417	0.545037
	H301	H	0.393175	0.510093	0.536522
	H302	H	0.407264	0.501747	0.531072
	O303	O	0.454556	0.457123	0.587310
	H304	H	0.458213	0.455575	0.586689
	H305	H	0.457331	0.479768	0.574789
	O306	O	0.030704	1.085663	1.086702
	H307	H	0.020008	1.102143	1.089974
	H308	H	0.056219	1.069134	1.079806
	O309	O	0.715290	0.708714	0.515774
	H310	H	0.738525	0.726230	0.513108
	H311	H	0.719599	0.687949	0.516050
	O312	O	0.124697	0.949846	0.134758
	H313	H	0.119989	0.971713	0.142107
	H314	H	0.117711	0.953082	0.146469
	O315	O	-0.056790	0.038968	1.152203
	H316	H	-0.039450	0.038458	1.139676
	H317	H	-0.050398	0.040722	1.161122
	O318	O	0.216203	1.019529	0.194068
	H319	H	0.215737	1.035129	0.195790
	H320	H	0.223358	1.013584	0.213412
	O321	O	0.367453	0.560007	0.629526
	H322	H	0.371436	0.544937	0.614215
	H323	H	0.353703	0.576005	0.620779
	O324	O	0.811294	0.187742	0.800425
	H325	H	0.793702	0.191784	0.800254
	H326	H	0.800905	0.177802	0.836041
	O327	O	0.978929	0.210859	0.783737
	H328	H	0.956843	0.227866	0.765476
	H329	H	0.952696	0.208892	0.775849
	O330	O	0.980246	-0.218698	0.213891
	H331	H	0.959693	-0.235905	0.235566
	H332	H	0.944043	-0.218460	0.214883
	O333	O	0.920919	1.164571	1.116412
	H334	H	0.953823	1.158883	1.117600
	H335	H	0.922354	1.182248	1.121784
	O336	O	1.020202	-0.217934	0.787775
	H337	H	1.026002	-0.250554	0.759868
	H338	H	1.070400	-0.207277	0.796797
	O339	O	0.316072	0.302828	0.683648
	H340	H	0.320760	0.339016	0.694616
	H341	H	0.329765	0.310800	0.668519
	O342	O	0.555814	0.277316	0.536246
	H343	H	0.544438	0.275365	0.539298
	H344	H	0.535462	0.289383	0.548034
	O345	O	0.284358	0.483558	0.488657
	H346	H	0.287202	0.486153	0.480793
	H347	H	0.289787	0.480659	0.490454
	O348	O	1.200527	0.186268	1.020197
	H349	H	1.186815	0.179705	1.015123
	H350	H	1.200219	0.201026	1.000950
	O351	O	1.027004	1.098699	-0.024263
	H352	H	1.024835	1.092862	-0.031837
	H353	H	1.017748	1.098719	-0.043780
	O354	O	0.655859	0.342530	0.638164
	H355	H	0.642246	0.364289	0.638503
	H356	H	0.646160	0.335376	0.640294
	O357	O	0.713558	1.284927	1.279741
	H358	H	0.727417	1.282353	1.264990
	H359	H	0.718127	1.280582	1.323237
	O360	O	0.476839	0.278757	0.712613
	H361	H	0.480929	0.258868	0.746941
	H362	H	0.466056	0.297397	0.702769
	O363	O	0.720702	0.473854	0.277222
	H364	H	0.749977	0.456575	0.252730
	H365	H	0.719129	0.471848	0.289948
	O366	O	0.954752	-0.048523	0.797802
	H367	H	0.965219	-0.083645	0.790430
	H368	H	0.965813	-0.040028	0.820905
	O369	O	0.474754	0.503796	0.471268
	H370	H	0.481044	0.520541	0.460311
	H371	H	0.473332	0.492514	0.477446
	O372	O	0.719613	0.278326	0.465069
	H373	H	0.680789	0.271715	0.493233
	H374	H	0.750145	0.242985	0.471761
	O375	O	0.212270	0.974115	0.784005
	H376	H	0.232516	0.982594	0.776500
	H377	H	0.204935	0.991200	0.774503
	O378	O	0.723345	0.430642	0.542169
	H379	H	0.727026	0.432598	0.554725
	H380	H	0.730177	0.411214	0.533620
	O381	O	0.792484	0.050428	0.095435
	H382	H	0.816894	0.039303	0.107346
	H383	H	0.787906	0.031832	0.072745
	O384	O	0.070549	0.062753	0.778966
	H385	H	0.078295	0.070117	0.776884
	H386	H	0.049069	0.062854	0.782051
	O387	O	-0.052051	0.776949	0.943428
	H388	H	-0.030315	0.773032	0.914005
	H389	H	-0.027604	0.777429	0.966155
	O390	O	0.177865	-0.187645	0.816429
	H391	H	0.192286	-0.137912	0.805052
	H392	H	0.189508	-0.196187	0.870040
	O393	O	0.795594	0.792967	-0.041289
	H394	H	0.820289	0.775568	-0.051284
	H395	H	0.783772	0.768322	-0.058734
	O396	O	0.613701	0.569207	0.416790
	H397	H	0.620174	0.584970	0.421078
	H398	H	0.624508	0.568583	0.414193
	O399	O	0.437808	0.727363	0.556639
	H400	H	0.424082	0.737661	0.541428
	H401	H	0.460694	0.725043	0.543718
	O402	O	-0.121647	0.201633	1.098255
	H403	H	-0.127627	0.188677	1.077676
	H404	H	-0.122429	0.201863	1.095953
	O405	O	-0.010017	0.049112	0.028472
	H406	H	-0.013139	0.027934	0.035973
	H407	H	-0.038093	0.053046	0.027927
	O408	O	0.527286	0.710124	0.709487
	H409	H	0.502241	0.704158	0.707151
	H410	H	0.518250	0.732564	0.724505
	O411	O	0.285914	0.713459	0.474672
	H412	H	0.279133	0.729863	0.479980
	H413	H	0.285794	0.716845	0.451088
	O414	O	0.289204	0.503831	0.281258
	H415	H	0.289557	0.491403	0.276281
	H416	H	0.277748	0.490261	0.256028
	O417	O	0.530819	0.458302	0.687243
	H418	H	0.530038	0.468946	0.688688
	H419	H	0.529756	0.466014	0.673745
	O420	O	0.527885	0.283958	0.281599
	H421	H	0.534027	0.258405	0.264837
	H422	H	0.557925	0.290138	0.289533
	O423	O	0.020834	1.033259	0.129398
	H424	H	0.033056	1.017459	0.127961
	H425	H	0.024314	1.020240	0.113505
	O426	O	0.793255	1.017509	0.795707
	H427	H	0.815652	1.009804	0.780478
	H428	H	0.791144	1.015392	0.781245
	O429	O	0.477619	0.595940	0.425538
	H430	H	0.482930	0.583626	0.428411
	H431	H	0.469545	0.588233	0.424350
	O432	O	0.290706	0.283193	0.516773
	H433	H	0.295379	0.290032	0.533419
	H434	H	0.274020	0.259173	0.525847
	O435	O	0.193858	0.188113	0.186123
	H436	H	0.203086	0.180975	0.195731
	H437	H	0.191980	0.187381	0.148105
	O438	O	1.156492	0.126581	-0.083013
	H439	H	1.132563	0.124062	-0.089000
	H440	H	1.156190	0.139445	-0.106312
	O441	O	0.513261	0.478915	0.338266
	H442	H	0.513431	0.467676	0.349610
	H443	H	0.523687	0.465127	0.329125
	O444	O	0.205411	0.793506	0.979893
	H445	H	0.208139	0.806319	1.004403
	H446	H	0.222179	0.785025	0.992895
	O447	O	0.427047	0.362520	0.455554
	H448	H	0.418668	0.349516	0.448946
	H449	H	0.435553	0.369643	0.443660
	O450	O	0.557965	0.697074	0.469938
	H451	H	0.564604	0.704165	0.460555
	H452	H	0.565551	0.690106	0.444952
	O453	O	0.690328	0.680866	0.682746
	H454	H	0.646850	0.688911	0.685938
	H455	H	0.692401	0.670353	0.658999
	O456	O	0.792195	0.152208	-0.027539
	H457	H	0.784766	0.134310	-0.010997
	H458	H	0.774146	0.172700	-0.025988
	O459	O	0.707167	0.510070	0.701377
	H460	H	0.696530	0.527408	0.704999
	H461	H	0.718666	0.514686	0.711894
	O462	O	0.285463	0.464877	0.714774
	H463	H	0.295176	0.493757	0.688773
	H464	H	0.248123	0.467205	0.748687
	O465	O	0.792424	-0.069853	0.197857
	H466	H	0.796292	-0.039635	0.209090
	H467	H	0.785866	-0.063509	0.201709
