data_Molecule from HDF5

_cell_length_a		16.377579
_cell_length_b		16.161333
_cell_length_c		16.120086
_cell_angle_alpha	90.263480
_cell_angle_beta	89.704099
_cell_angle_gamma	89.480529
_symmetry_space_group_name_H-M	'P 1'
_symmetry_Int_Tables_number		1

loop_
	_symmetry_equiv_pos_as_xyz
	x,y,z

loop_
	_atom_site_label
	_atom_site_type_symbol
	_atom_site_fract_x
	_atom_site_fract_y
	_atom_site_fract_z
	H0	H	0.409186	0.845256	0.716999
	H1	H	0.599647	0.176158	0.717237
	H2	H	0.604096	0.846206	0.291214
	H3	H	0.408786	0.177400	0.297548
	H4	H	0.719133	0.409992	0.838009
	H5	H	0.718410	0.612823	0.167331
	H6	H	0.290364	0.611069	0.837294
	H7	H	0.287178	0.411490	0.166520
	H8	H	0.842788	0.728986	0.405023
	H9	H	0.168880	0.723363	0.599021
	H10	H	0.841800	0.298259	0.601457
	H11	H	0.167713	0.291646	0.400861
	H12	H	0.842023	0.414678	0.717825
	H13	H	0.168216	0.607934	0.717043
	H14	H	0.841026	0.610804	0.290199
	H15	H	0.168013	0.409946	0.285703
	H16	H	0.405627	0.726379	0.838628
	H17	H	0.596590	0.720253	0.170703
	H18	H	0.603618	0.295620	0.838763
	H19	H	0.410126	0.305029	0.171288
	H20	H	0.722889	0.847285	0.402186
	H21	H	0.718343	0.174395	0.605975
	H22	H	0.291168	0.845862	0.606281
	H23	H	0.287260	0.172978	0.404390
	H24	H	0.908357	0.345881	0.213651
	H25	H	0.099375	0.675995	0.215034
	H26	H	0.103821	0.345693	0.789111
	H27	H	0.907732	0.676732	0.791956
	H28	H	0.224803	0.905824	0.339744
	H29	H	0.217496	0.110189	0.668962
	H30	H	0.788665	0.112263	0.339818
	H31	H	0.791410	0.910981	0.668058
	H32	H	0.341635	0.227955	0.907856
	H33	H	0.668810	0.225053	0.103155
	H34	H	0.340549	0.798527	0.105788
	H35	H	0.666627	0.792635	0.905063
	H36	H	0.341063	0.916678	0.221101
	H37	H	0.668840	0.107179	0.218933
	H38	H	0.341389	0.111789	0.790646
	H39	H	0.667248	0.908252	0.787684
	H40	H	0.908261	0.221792	0.337509
	H41	H	0.100386	0.223704	0.668566
	H42	H	0.104263	0.796909	0.336695
	H43	H	0.911127	0.801728	0.669885
	H44	H	0.222251	0.347399	0.898908
	H45	H	0.216993	0.675878	0.102660
	H46	H	0.790157	0.347155	0.102521
	H47	H	0.786383	0.674853	0.900731
	H48	H	0.408913	0.127819	0.596601
	H49	H	0.609670	0.889551	0.596282
	H50	H	0.598614	0.129436	0.415379
	H51	H	0.416844	0.893937	0.414939
	H52	H	0.599885	0.414759	0.122964
	H53	H	0.595014	0.606877	0.884552
	H54	H	0.405451	0.597635	0.120457
	H55	H	0.409507	0.416986	0.883244
	H56	H	0.121200	0.608720	0.413714
	H57	H	0.888044	0.604961	0.602726
	H58	H	0.120753	0.418388	0.596417
	H59	H	0.888278	0.418340	0.405985
	H60	H	0.121754	0.413602	0.595047
	H61	H	0.888235	0.611750	0.596510
	H62	H	0.117996	0.595357	0.409874
	H63	H	0.887856	0.413458	0.408011
	H64	H	0.414731	0.604552	0.119461
	H65	H	0.600916	0.601494	0.884339
	H66	H	0.602893	0.420836	0.123387
	H67	H	0.412971	0.422233	0.886380
	H68	H	0.600242	0.129408	0.414398
	H69	H	0.595188	0.891517	0.603668
	H70	H	0.408683	0.128501	0.597749
	H71	H	0.411871	0.892274	0.415296
	H72	H	0.908413	0.628816	0.095502
	H73	H	0.092596	0.397885	0.084257
	H74	H	0.107595	0.631076	0.912055
	H75	H	0.912330	0.392161	0.904723
	H76	H	0.102254	0.912628	0.623297
	H77	H	0.094543	0.102231	0.386271
	H78	H	0.925352	0.109329	0.618675
	H79	H	0.914121	0.923733	0.387491
	H80	H	0.621237	0.106587	0.912741
	H81	H	0.388313	0.112447	0.101167
	H82	H	0.624668	0.901318	0.100598
	H83	H	0.388241	0.924677	0.908613
	H84	H	0.615794	0.918999	0.084834
	H85	H	0.390581	0.106351	0.099954
	H86	H	0.617912	0.099381	0.915366
	H87	H	0.387079	0.915001	0.910876
	H88	H	0.899319	0.115150	0.628103
	H89	H	0.103295	0.102236	0.383606
	H90	H	0.101741	0.922631	0.620539
	H91	H	0.916329	0.915290	0.385135
	H92	H	0.093093	0.630862	0.901033
	H93	H	0.107768	0.390998	0.090876
	H94	H	0.909181	0.629744	0.095671
	H95	H	0.915776	0.395825	0.913059
	H96	H	0.409827	0.128487	0.597543
	H97	H	0.597563	0.895395	0.588183
	H98	H	0.597972	0.128649	0.412902
	H99	H	0.414727	0.891849	0.410456
	H100	H	0.596406	0.420615	0.120652
	H101	H	0.593630	0.598549	0.887454
	H102	H	0.404168	0.609662	0.123581
	H103	H	0.415734	0.416390	0.885188
	H104	H	0.124149	0.604457	0.399711
	H105	H	0.890841	0.603462	0.594058
	H106	H	0.119591	0.417333	0.591146
	H107	H	0.890160	0.418102	0.410667
	H108	H	0.908942	0.628982	0.093652
	H109	H	0.093451	0.392232	0.100834
	H110	H	0.092086	0.625229	0.918208
	H111	H	0.906840	0.392006	0.911798
	H112	H	0.093128	0.916624	0.620300
	H113	H	0.099445	0.094200	0.386785
	H114	H	0.905744	0.089381	0.618779
	H115	H	0.908246	0.918532	0.383377
	H116	H	0.620808	0.100128	0.906849
	H117	H	0.387734	0.107670	0.106229
	H118	H	0.620673	0.925313	0.109387
	H119	H	0.390906	0.920875	0.918349
	C120	C	0.382517	0.019230	0.626365
	C121	C	0.626825	1.001498	0.625722
	C122	C	0.627563	0.020102	0.383822
	C123	C	0.384589	1.001692	0.384635
	C124	C	0.627661	0.389169	0.012549
	C125	C	0.624284	0.631571	0.994662
	C126	C	0.380824	0.633062	0.011704
	C127	C	0.384355	0.391045	0.994673
	C128	C	0.013322	0.632376	0.380862
	C129	C	0.996882	0.633956	0.625101
	C130	C	0.013189	0.389145	0.623743
	C131	C	0.996756	0.387255	0.379043
	C132	C	0.882041	0.520092	0.123260
	C133	C	0.125316	0.502354	0.122053
	C134	C	0.126841	0.520074	0.880422
	C135	C	0.882991	0.502534	0.881572
	C136	C	0.128108	0.887986	0.511939
	C137	C	0.126446	0.129865	0.494856
	C138	C	0.882318	0.132636	0.512461
	C139	C	0.884957	0.890726	0.494820
	C140	C	0.512771	0.132301	0.883362
	C141	C	0.496847	0.135058	0.129079
	C142	C	0.512350	0.889038	0.127438
	C143	C	0.496088	0.889197	0.882747
	C144	C	0.387822	0.894688	0.680357
	C145	C	0.621171	0.126418	0.680206
	C146	C	0.625007	0.895751	0.328113
	C147	C	0.387292	0.126853	0.332420
	C148	C	0.681886	0.390237	0.887700
	C149	C	0.679641	0.631148	0.118546
	C150	C	0.327436	0.631191	0.886912
	C151	C	0.327267	0.392659	0.118238
	C152	C	0.890804	0.689601	0.384222
	C153	C	0.119859	0.686891	0.620936
	C154	C	0.890494	0.335649	0.621762
	C155	C	0.118922	0.330293	0.380777
	C156	C	0.890477	0.393636	0.679588
	C157	C	0.119520	0.629700	0.679639
	C158	C	0.889927	0.630730	0.327499
	C159	C	0.119274	0.389542	0.323676
	C160	C	0.384530	0.688643	0.887636
	C161	C	0.619224	0.684629	0.120377
	C162	C	0.624463	0.333203	0.888098
	C163	C	0.388253	0.339658	0.120506
	C164	C	0.683906	0.896179	0.383367
	C165	C	0.680500	0.125431	0.625279
	C166	C	0.328880	0.895045	0.625360
	C167	C	0.326935	0.124796	0.385625
	C168	C	0.887020	0.395487	0.177143
	C169	C	0.121040	0.626754	0.177760
	C170	C	0.124478	0.395497	0.825730
	C171	C	0.886096	0.627098	0.828092
	C172	C	0.185412	0.887648	0.388493
	C173	C	0.180094	0.129544	0.619533
	C174	C	0.827275	0.130890	0.388781
	C175	C	0.829860	0.891922	0.618929
	C176	C	0.390172	0.189278	0.886806
	C177	C	0.620017	0.187762	0.124267
	C178	C	0.389401	0.836094	0.125506
	C179	C	0.618185	0.831452	0.884371
	C180	C	0.389825	0.894518	0.183304
	C181	C	0.620260	0.129162	0.181693
	C182	C	0.390002	0.131252	0.828668
	C183	C	0.618501	0.889023	0.826262
	C184	C	0.886673	0.185660	0.387531
	C185	C	0.121754	0.185999	0.619171
	C186	C	0.125429	0.833417	0.386875
	C187	C	0.889151	0.837305	0.619836
	C188	C	0.183495	0.396442	0.880246
	C189	C	0.179413	0.626548	0.121851
	C190	C	0.828140	0.396093	0.121753
	C191	C	0.826211	0.626195	0.882565
	C192	C	0.402962	0.105645	0.603799
	C193	C	0.606706	0.914724	0.602890
	C194	C	0.605349	0.106744	0.407262
	C195	C	0.407758	0.915097	0.406986
	C196	C	0.606165	0.412178	0.099753
	C197	C	0.602771	0.609058	0.907833
	C198	C	0.402070	0.610630	0.098533
	C199	C	0.406388	0.412210	0.907473
	C200	C	0.098921	0.609599	0.401579
	C201	C	0.911214	0.612810	0.603989
	C202	C	0.098701	0.410307	0.600934
	C203	C	0.910949	0.409862	0.401618
	C204	C	0.902620	0.606776	0.101396
	C205	C	0.104330	0.416105	0.098731
	C206	C	0.104226	0.606636	0.903497
	C207	C	0.905212	0.415775	0.903558
	C208	C	0.105752	0.910555	0.598978
	C209	C	0.105429	0.106489	0.407953
	C210	C	0.903842	0.111057	0.599455
	C211	C	0.906529	0.912679	0.407887
	C212	C	0.597928	0.108924	0.905153
	C213	C	0.410883	0.114968	0.108574
	C214	C	0.598185	0.909255	0.104881
	C215	C	0.410990	0.913129	0.905809
	Zn216	Zn	0.504510	0.010731	0.753192
	Zn217	Zn	0.505222	0.011721	0.257401
	Zn218	Zn	0.754087	0.511520	0.002185
	Zn219	Zn	0.254023	0.511088	0.001631
	Zn220	Zn	0.005042	0.762153	0.502466
	Zn221	Zn	0.004765	0.258648	0.502497
	Zn222	Zn	0.005177	0.511109	0.753869
	Zn223	Zn	0.004271	0.511408	0.250869
	Zn224	Zn	0.503265	0.759436	0.004724
	Zn225	Zn	0.505371	0.262927	0.005181
	Zn226	Zn	0.755570	0.010437	0.504269
	Zn227	Zn	0.255448	0.009066	0.504171
	N228	N	0.420418	0.972736	0.681181
	N229	N	0.588538	0.048330	0.680614
	N230	N	0.590559	0.973688	0.328409
	N231	N	0.422301	0.049186	0.331580
	N232	N	0.684300	0.423914	0.966269
	N233	N	0.682760	0.598640	0.039436
	N234	N	0.324729	0.597487	0.965063
	N235	N	0.324578	0.423957	0.038961
	N236	N	0.968354	0.690700	0.416679
	N237	N	0.042517	0.689800	0.587981
	N238	N	0.967782	0.332657	0.587874
	N239	N	0.041565	0.328956	0.414604
	N240	N	0.967904	0.426237	0.680955
	N241	N	0.042149	0.597308	0.682172
	N242	N	0.967047	0.595851	0.325200
	N243	N	0.042176	0.424111	0.322466
	N244	N	0.416889	0.689906	0.966257
	N245	N	0.585368	0.684986	0.042410
	N246	N	0.591545	0.332439	0.966736
	N247	N	0.423040	0.338640	0.042519
	N248	N	0.685802	0.974570	0.417087
	N249	N	0.684301	0.046823	0.592145
	N250	N	0.325105	0.973500	0.592543
	N251	N	0.325159	0.045940	0.417366
	N252	N	0.919729	0.473752	0.178574
	N253	N	0.087961	0.548713	0.177982
	N254	N	0.090019	0.473498	0.825526
	N255	N	0.920771	0.549315	0.827329
	N256	N	0.187048	0.920968	0.467271
	N257	N	0.183008	0.095290	0.541272
	N258	N	0.824591	0.098585	0.467591
	N259	N	0.827192	0.924293	0.540194
	N260	N	0.467391	0.190096	0.920017
	N261	N	0.542326	0.191535	0.092359
	N262	N	0.466666	0.832401	0.091601
	N263	N	0.541235	0.831464	0.919019
	N264	N	0.467332	0.926710	0.184557
	N265	N	0.542710	0.097293	0.185048
	N266	N	0.467163	0.096567	0.826315
	N267	N	0.541677	0.924244	0.825091
	N268	N	0.920207	0.186815	0.465480
	N269	N	0.089119	0.186439	0.540558
	N270	N	0.090644	0.833307	0.464676
	N271	N	0.922960	0.836409	0.541467
	N272	N	0.185144	0.474893	0.913584
	N273	N	0.182323	0.548182	0.087946
	N274	N	0.824866	0.474432	0.088956
	N275	N	0.824086	0.547472	0.914885
	O276	O	-0.041636	0.037865	0.023145
	H277	H	-0.046520	0.035694	0.032911
	H278	H	-0.040657	0.033445	0.032030
	O279	O	0.523013	0.411567	0.504127
	H280	H	0.525612	0.418824	0.504834
	H281	H	0.518469	0.411848	0.501121
	O282	O	0.515965	0.526462	0.467911
	H283	H	0.513278	0.522855	0.479313
	H284	H	0.518280	0.525534	0.457930
	O285	O	0.984176	-0.036382	1.048781
	H286	H	0.984028	-0.035226	1.048685
	H287	H	0.983368	-0.027765	1.052519
	O288	O	0.958792	0.015071	-0.042476
	H289	H	0.948550	0.016746	-0.043890
	H290	H	0.955513	0.025231	-0.043338
	O291	O	0.458996	0.492061	0.433783
	H292	H	0.458309	0.490588	0.440982
	H293	H	0.457681	0.500545	0.443793
	O294	O	0.960834	0.068733	0.962506
	H295	H	0.967892	0.073518	0.963695
	H296	H	0.954229	0.078708	0.967499
	O297	O	0.079417	0.098748	0.088280
	H298	H	0.082646	0.105130	0.083005
	H299	H	0.082613	0.089197	0.094158
	O300	O	0.505913	0.418147	0.460713
	H301	H	0.511808	0.424443	0.467504
	H302	H	0.509088	0.411423	0.447865
	O303	O	1.102827	0.062457	0.114452
	H304	H	1.107603	0.058728	0.115399
	H305	H	1.106391	0.058741	0.111818
	O306	O	1.006946	-0.056678	-0.030466
	H307	H	1.002876	-0.061128	-0.044463
	H308	H	1.005913	-0.064583	-0.022425
	O309	O	0.068443	0.082443	1.034294
	H310	H	0.076930	0.078005	1.034991
	H311	H	0.084896	0.088338	1.043586
	O312	O	0.906814	1.090321	0.998579
	H313	H	0.899452	1.084941	1.004175
	H314	H	0.894355	1.090858	1.006702
	O315	O	0.479941	0.495006	0.491215
	H316	H	0.481843	0.492619	0.487004
	H317	H	0.479249	0.496872	0.491831
	O318	O	0.564282	0.507601	0.450917
	H319	H	0.558887	0.501312	0.456809
	H320	H	0.571920	0.509573	0.453708
	O321	O	0.047391	1.037999	1.003139
	H322	H	0.057543	1.035767	1.002655
	H323	H	0.051356	1.038720	1.005516
	O324	O	0.007968	-0.065089	-0.098735
	H325	H	-0.002576	-0.058648	-0.101618
	H326	H	0.001475	-0.065098	-0.112572
	O327	O	0.066528	-0.081233	0.980794
	H328	H	0.071359	-0.078185	0.979318
	H329	H	0.062323	-0.090509	0.972180
	O330	O	0.991082	0.988023	-0.079586
	H331	H	0.993340	0.991104	-0.077991
	H332	H	0.994735	0.995440	-0.082462
	O333	O	0.477559	0.476713	0.543786
	H334	H	0.485923	0.481430	0.534188
	H335	H	0.480266	0.472123	0.544926
	O336	O	0.483129	0.480429	0.527691
	H337	H	0.470876	0.481091	0.525543
	H338	H	0.485967	0.480602	0.532589
	O339	O	1.018575	1.046065	-0.029781
	H340	H	1.005172	1.053388	-0.015428
	H341	H	1.020041	1.053734	-0.037683
	O342	O	0.467115	0.559607	0.566366
	H343	H	0.461454	0.556890	0.573708
	H344	H	0.472242	0.551512	0.568340
	O345	O	0.508931	0.439660	0.479401
	H346	H	0.509173	0.441846	0.473320
	H347	H	0.494893	0.440515	0.474607
	O348	O	-0.031963	0.090265	0.074911
	H349	H	-0.020355	0.087576	0.071944
	H350	H	-0.023914	0.078527	0.075977
	O351	O	0.018796	0.925248	0.997675
	H352	H	0.017226	0.920552	0.992936
	H353	H	0.020289	0.938292	0.986903
	O354	O	0.531081	0.546116	0.490038
	H355	H	0.528042	0.553519	0.498000
	H356	H	0.529700	0.537426	0.493192
	O357	O	-0.030862	1.012095	0.945783
	H358	H	-0.029614	1.008297	0.942062
	H359	H	-0.036298	1.008054	0.943828
