data_Molecule from HDF5

_cell_length_a		16.654390
_cell_length_b		16.458519
_cell_length_c		16.331714
_cell_angle_alpha	89.929159
_cell_angle_beta	89.951744
_cell_angle_gamma	89.969927
_symmetry_space_group_name_H-M	'P 1'
_symmetry_Int_Tables_number		1

loop_
	_symmetry_equiv_pos_as_xyz
	x,y,z

loop_
	_atom_site_label
	_atom_site_type_symbol
	_atom_site_fract_x
	_atom_site_fract_y
	_atom_site_fract_z
	H0	H	0.391827	0.848711	0.722258
	H1	H	0.599820	0.165583	0.725893
	H2	H	0.598574	0.848482	0.284602
	H3	H	0.392982	0.166104	0.285171
	H4	H	0.719127	0.394852	0.847609
	H5	H	0.715849	0.613192	0.161737
	H6	H	0.271993	0.613040	0.845204
	H7	H	0.273750	0.401071	0.163627
	H8	H	0.836142	0.728701	0.400681
	H9	H	0.149438	0.728074	0.608497
	H10	H	0.838978	0.281670	0.612273
	H11	H	0.147945	0.280640	0.392999
	H12	H	0.838831	0.399665	0.728357
	H13	H	0.151353	0.608042	0.722234
	H14	H	0.836101	0.611908	0.282941
	H15	H	0.150878	0.403370	0.283041
	H16	H	0.389578	0.726672	0.844308
	H17	H	0.596575	0.724998	0.163386
	H18	H	0.600036	0.282983	0.846382
	H19	H	0.390942	0.287357	0.164674
	H20	H	0.719058	0.851571	0.394210
	H21	H	0.719452	0.162994	0.613449
	H22	H	0.271411	0.851213	0.611154
	H23	H	0.270159	0.163284	0.393748
	H24	H	0.889454	0.348172	0.225986
	H25	H	0.095505	0.664862	0.222196
	H26	H	0.099024	0.347758	0.782653
	H27	H	0.892455	0.665077	0.786384
	H28	H	0.215255	0.900960	0.346756
	H29	H	0.217765	0.116288	0.661277
	H30	H	0.768752	0.117326	0.347215
	H31	H	0.768908	0.898541	0.661637
	H32	H	0.338762	0.231047	0.896385
	H33	H	0.649863	0.229748	0.111307
	H34	H	0.338017	0.785707	0.108289
	H35	H	0.648955	0.783209	0.896642
	H36	H	0.338550	0.903427	0.225075
	H37	H	0.651281	0.110559	0.225258
	H38	H	0.339011	0.115547	0.779057
	H39	H	0.648886	0.900718	0.779818
	H40	H	0.885974	0.231635	0.346467
	H41	H	0.099202	0.228124	0.662494
	H42	H	0.094726	0.789957	0.345020
	H43	H	0.888591	0.787108	0.663619
	H44	H	0.219005	0.349403	0.894438
	H45	H	0.215804	0.662062	0.109835
	H46	H	0.770270	0.349060	0.113025
	H47	H	0.769611	0.661017	0.895354
	H48	H	0.403331	0.119118	0.584072
	H49	H	0.577726	0.898995	0.586411
	H50	H	0.578285	0.121123	0.409752
	H51	H	0.405463	0.893479	0.412939
	H52	H	0.584352	0.421267	0.117024
	H53	H	0.583777	0.590167	0.891129
	H54	H	0.398288	0.586594	0.117185
	H55	H	0.404086	0.420461	0.890194
	H56	H	0.104517	0.594710	0.412237
	H57	H	0.882566	0.596239	0.591609
	H58	H	0.105140	0.419047	0.594237
	H59	H	0.882289	0.412357	0.420008
	H60	H	0.105332	0.415120	0.590856
	H61	H	0.881310	0.594200	0.597486
	H62	H	0.106656	0.602449	0.410420
	H63	H	0.886428	0.423276	0.421747
	H64	H	0.412230	0.595356	0.115268
	H65	H	0.579587	0.592625	0.892167
	H66	H	0.578524	0.418651	0.115857
	H67	H	0.407141	0.418529	0.891271
	H68	H	0.581086	0.115862	0.424149
	H69	H	0.587687	0.894622	0.587329
	H70	H	0.400777	0.122756	0.593219
	H71	H	0.403653	0.895131	0.419379
	H72	H	0.897892	0.621907	0.096033
	H73	H	0.079097	0.393703	0.091790
	H74	H	0.090980	0.619894	0.917838
	H75	H	0.906507	0.392860	0.916133
	H76	H	0.086640	0.920314	0.619234
	H77	H	0.078012	0.091737	0.392963
	H78	H	0.908149	0.094340	0.616012
	H79	H	0.903070	0.916560	0.389434
	H80	H	0.605353	0.096614	0.913865
	H81	H	0.383442	0.095728	0.092889
	H82	H	0.607903	0.912924	0.094348
	H83	H	0.383608	0.921672	0.914428
	H84	H	0.606100	0.915816	0.091474
	H85	H	0.382684	0.095629	0.093476
	H86	H	0.604397	0.096042	0.918664
	H87	H	0.381047	0.914699	0.910769
	H88	H	0.904397	0.091768	0.616597
	H89	H	0.081823	0.096241	0.390126
	H90	H	0.081706	0.920344	0.618216
	H91	H	0.902622	0.921487	0.391018
	H92	H	0.083005	0.619693	0.909176
	H93	H	0.086429	0.393395	0.088944
	H94	H	0.909372	0.617451	0.093863
	H95	H	0.907454	0.394770	0.920147
	H96	H	0.410424	0.119530	0.591881
	H97	H	0.580945	0.894219	0.595918
	H98	H	0.591837	0.122777	0.415876
	H99	H	0.399526	0.892370	0.414876
	H100	H	0.583225	0.415017	0.119258
	H101	H	0.583088	0.594625	0.889274
	H102	H	0.398630	0.602873	0.121447
	H103	H	0.404250	0.416164	0.890217
	H104	H	0.104481	0.600415	0.418363
	H105	H	0.880097	0.600175	0.595836
	H106	H	0.103275	0.419501	0.589303
	H107	H	0.882446	0.420648	0.410924
	H108	H	0.901209	0.616872	0.084680
	H109	H	0.084737	0.390754	0.095808
	H110	H	0.080315	0.615574	0.920047
	H111	H	0.903668	0.392580	0.918927
	H112	H	0.083705	0.915978	0.619742
	H113	H	0.084576	0.090551	0.391244
	H114	H	0.908014	0.090484	0.614499
	H115	H	0.907136	0.919210	0.391614
	H116	H	0.603984	0.092614	0.915861
	H117	H	0.383133	0.096788	0.093280
	H118	H	0.607024	0.917219	0.095284
	H119	H	0.382441	0.915219	0.919252
	C120	C	0.372665	0.016452	0.624105
	C121	C	0.615536	0.999243	0.624596
	C122	C	0.616068	0.015841	0.383076
	C123	C	0.372206	0.998269	0.382818
	C124	C	0.615293	0.384609	0.012865
	C125	C	0.614243	0.625797	0.995624
	C126	C	0.371790	0.627381	0.012557
	C127	C	0.372967	0.385440	0.995552
	C128	C	0.001423	0.630317	0.381819
	C129	C	0.984950	0.628543	0.626361
	C130	C	0.002269	0.384344	0.625742
	C131	C	0.986028	0.385432	0.383016
	C132	C	0.871098	0.514779	0.125779
	C133	C	0.114860	0.497038	0.124621
	C134	C	0.117037	0.514355	0.882184
	C135	C	0.873217	0.497208	0.884354
	C136	C	0.114781	0.886725	0.513649
	C137	C	0.115063	0.127532	0.495305
	C138	C	0.873153	0.126979	0.511949
	C139	C	0.871932	0.886423	0.495772
	C140	C	0.502229	0.128864	0.882233
	C141	C	0.486257	0.127988	0.125743
	C142	C	0.503361	0.884105	0.125855
	C143	C	0.485140	0.884691	0.881830
	C144	C	0.372078	0.896883	0.683704
	C145	C	0.618232	0.117689	0.686234
	C146	C	0.617346	0.896412	0.323936
	C147	C	0.372895	0.117979	0.323765
	C148	C	0.677576	0.379076	0.894695
	C149	C	0.674643	0.629667	0.114596
	C150	C	0.312098	0.630380	0.893143
	C151	C	0.313555	0.382975	0.115737
	C152	C	0.883426	0.689347	0.381087
	C153	C	0.102727	0.687942	0.627130
	C154	C	0.885540	0.322693	0.629820
	C155	C	0.101921	0.322508	0.376895
	C156	C	0.885380	0.381496	0.687478
	C157	C	0.103961	0.628105	0.683587
	C158	C	0.883255	0.630945	0.322780
	C159	C	0.103167	0.383405	0.321765
	C160	C	0.370491	0.687241	0.892576
	C161	C	0.615677	0.685749	0.115242
	C162	C	0.618264	0.323359	0.893868
	C163	C	0.371781	0.326168	0.116267
	C164	C	0.677517	0.898066	0.378758
	C165	C	0.677756	0.116709	0.630117
	C166	C	0.312265	0.897954	0.628240
	C167	C	0.311657	0.116542	0.377867
	C168	C	0.870004	0.395789	0.186521
	C169	C	0.115183	0.616832	0.183168
	C170	C	0.118276	0.395440	0.821966
	C171	C	0.872470	0.616765	0.825007
	C172	C	0.174555	0.883547	0.394142
	C173	C	0.176400	0.132518	0.613946
	C174	C	0.810632	0.133111	0.393951
	C175	C	0.810462	0.882020	0.614666
	C176	C	0.385638	0.190798	0.878350
	C177	C	0.603554	0.188732	0.128656
	C178	C	0.385149	0.825432	0.127494
	C179	C	0.602289	0.823696	0.878556
	C180	C	0.385401	0.883745	0.185556
	C181	C	0.604162	0.129472	0.185574
	C182	C	0.385584	0.132852	0.820230
	C183	C	0.602435	0.882239	0.820647
	C184	C	0.868882	0.190118	0.393671
	C185	C	0.117351	0.188441	0.614609
	C186	C	0.114573	0.828380	0.393318
	C187	C	0.869655	0.826233	0.615665
	C188	C	0.177909	0.396318	0.877792
	C189	C	0.175001	0.615391	0.127296
	C190	C	0.810646	0.396345	0.130395
	C191	C	0.811546	0.614863	0.879211
	C192	C	0.397615	0.098810	0.597585
	C193	C	0.589692	0.917276	0.597815
	C194	C	0.591051	0.098460	0.409008
	C195	C	0.396003	0.915234	0.408331
	C196	C	0.589440	0.410664	0.095664
	C197	C	0.589197	0.599813	0.912546
	C198	C	0.396197	0.602186	0.096091
	C199	C	0.397912	0.410881	0.912300
	C200	C	0.083752	0.605939	0.406476
	C201	C	0.902742	0.603959	0.602096
	C202	C	0.083389	0.410426	0.598978
	C203	C	0.904830	0.411496	0.409826
	C204	C	0.895705	0.597144	0.099282
	C205	C	0.090236	0.414199	0.099326
	C206	C	0.091846	0.597026	0.908197
	C207	C	0.898507	0.414895	0.910794
	C208	C	0.090741	0.911851	0.597268
	C209	C	0.088926	0.100610	0.412991
	C210	C	0.899439	0.099885	0.594202
	C211	C	0.897012	0.911880	0.412560
	C212	C	0.583449	0.102559	0.908657
	C213	C	0.404533	0.103137	0.100515
	C214	C	0.585471	0.908220	0.100617
	C215	C	0.403586	0.909960	0.907475
	Zn216	Zn	0.493810	0.007491	0.752854
	Zn217	Zn	0.494594	0.006759	0.255303
	Zn218	Zn	0.743123	0.505481	0.004219
	Zn219	Zn	0.244404	0.504903	0.003979
	Zn220	Zn	-0.006920	0.758786	0.505120
	Zn221	Zn	-0.005980	0.255391	0.503764
	Zn222	Zn	-0.005720	0.506024	0.755565
	Zn223	Zn	-0.006585	0.506430	0.253337
	Zn224	Zn	0.493756	0.754815	0.003651
	Zn225	Zn	0.493779	0.257496	0.004517
	Zn226	Zn	0.744111	0.007401	0.503944
	Zn227	Zn	0.243568	0.007168	0.503649
	N228	N	0.408696	0.971631	0.681482
	N229	N	0.580233	0.043572	0.683029
	N230	N	0.579758	0.970642	0.326518
	N231	N	0.409650	0.043278	0.326503
	N232	N	0.675849	0.416493	0.969950
	N233	N	0.673901	0.593147	0.039073
	N234	N	0.312415	0.594107	0.968945
	N235	N	0.313965	0.418673	0.039630
	N236	N	0.958036	0.689196	0.416869
	N237	N	0.027657	0.688475	0.592500
	N238	N	0.959277	0.324460	0.592138
	N239	N	0.027959	0.323543	0.414216
	N240	N	0.959019	0.418963	0.685179
	N241	N	0.029577	0.591955	0.683399
	N242	N	0.957815	0.595302	0.322784
	N243	N	0.029947	0.421659	0.325290
	N244	N	0.406820	0.685628	0.968013
	N245	N	0.578570	0.683438	0.040143
	N246	N	0.580335	0.326647	0.968343
	N247	N	0.408097	0.327554	0.040646
	N248	N	0.676977	0.973568	0.414593
	N249	N	0.676213	0.042081	0.592800
	N250	N	0.312201	0.973491	0.592284
	N251	N	0.310993	0.040971	0.413759
	N252	N	0.906538	0.470522	0.184052
	N253	N	0.078295	0.542187	0.181478
	N254	N	0.081083	0.470006	0.824667
	N255	N	0.910301	0.542630	0.828177
	N256	N	0.174715	0.919119	0.470054
	N257	N	0.175323	0.095566	0.538592
	N258	N	0.813494	0.094456	0.468416
	N259	N	0.811722	0.918589	0.539106
	N260	N	0.459219	0.188360	0.916262
	N261	N	0.529268	0.187929	0.092215
	N262	N	0.459532	0.825256	0.091438
	N263	N	0.528305	0.824947	0.915751
	N264	N	0.460069	0.919269	0.184908
	N265	N	0.530269	0.092553	0.183975
	N266	N	0.459227	0.095349	0.822275
	N267	N	0.528662	0.919439	0.822479
	N268	N	0.907322	0.186342	0.467980
	N269	N	0.079897	0.185565	0.539674
	N270	N	0.078038	0.830127	0.468715
	N271	N	0.907174	0.828745	0.540832
	N272	N	0.177395	0.471397	0.914365
	N273	N	0.174931	0.539877	0.091720
	N274	N	0.810949	0.471488	0.093621
	N275	N	0.811805	0.539500	0.915506
	O276	O	0.174015	0.185424	0.187859
	H277	H	0.135481	0.190204	0.201979
	H278	H	0.191784	0.199662	0.163652
	O279	O	0.520349	0.319952	0.298445
	H280	H	0.518905	0.339239	0.287602
	H281	H	0.524324	0.301906	0.287729
	O282	O	0.278554	0.512420	0.517140
	H283	H	0.285793	0.504025	0.523655
	H284	H	0.274130	0.506627	0.516773
	O285	O	0.319253	0.297871	0.501974
	H286	H	0.326838	0.305457	0.524229
	H287	H	0.310896	0.274466	0.500291
	O288	O	0.005567	0.023421	-0.158006
	H289	H	-0.000740	0.020125	-0.147159
	H290	H	0.004024	0.027248	-0.161369
	O291	O	1.207219	1.052040	-0.003294
	H292	H	1.206771	1.032139	-0.013736
	H293	H	1.204337	1.042487	-0.016771
	O294	O	-0.042964	0.789457	0.220939
	H295	H	-0.070780	0.787913	0.224508
	H296	H	-0.033927	0.772128	0.242172
	O297	O	0.375467	0.485138	0.466459
	H298	H	0.375350	0.482296	0.483390
	H299	H	0.387057	0.480808	0.460264
	O300	O	0.412153	0.424299	0.343787
	H301	H	0.429565	0.433605	0.356772
	H302	H	0.406812	0.432298	0.342254
	O303	O	0.642889	0.367934	0.510242
	H304	H	0.660788	0.371803	0.514347
	H305	H	0.635443	0.385520	0.520600
	O306	O	0.075326	1.057289	1.015817
	H307	H	0.085250	1.054570	1.014847
	H308	H	0.093190	1.054841	1.006040
	O309	O	0.520033	0.719321	0.713634
	H310	H	0.538895	0.714965	0.717004
	H311	H	0.525087	0.738266	0.724439
	O312	O	-0.227321	0.952378	-0.060229
	H313	H	-0.241988	0.958144	-0.057423
	H314	H	-0.234550	0.950933	-0.071974
	O315	O	0.028949	-0.013141	1.114321
	H316	H	0.036142	-0.039699	1.108887
	H317	H	0.052168	-0.009320	1.113086
	O318	O	0.287341	0.715190	0.476435
	H319	H	0.284094	0.696856	0.454809
	H320	H	0.266013	0.736892	0.448351
	O321	O	0.394373	0.613160	0.696885
	H322	H	0.400682	0.601205	0.696030
	H323	H	0.403100	0.609678	0.687235
	O324	O	0.954260	0.210157	0.803701
	H325	H	0.952246	0.237401	0.774398
	H326	H	0.951842	0.194068	0.809784
	O327	O	0.971124	0.064950	0.869126
	H328	H	0.970288	0.063844	0.874510
	H329	H	0.960133	0.067955	0.865583
	O330	O	0.841667	-0.181231	0.026687
	H331	H	0.838656	-0.182738	0.022534
	H332	H	0.840137	-0.177314	0.026714
	O333	O	0.911317	1.178242	1.087707
	H334	H	0.914762	1.183520	1.078015
	H335	H	0.919626	1.160209	1.064568
	O336	O	0.866173	-0.171826	0.832177
	H337	H	0.873886	-0.180467	0.831644
	H338	H	0.873472	-0.173423	0.838137
	O339	O	0.310132	0.598559	0.675073
	H340	H	0.338692	0.599964	0.672039
	H341	H	0.307932	0.598154	0.670630
	O342	O	0.679747	0.321138	0.316531
	H343	H	0.662312	0.308488	0.316072
	H344	H	0.690040	0.304179	0.348991
	O345	O	0.610322	0.684777	0.419717
	H346	H	0.598950	0.689279	0.407155
	H347	H	0.604615	0.684642	0.420089
	O348	O	1.192033	-0.189691	0.809013
	H349	H	1.215299	-0.204153	0.798920
	H350	H	1.157997	-0.187445	0.807028
	O351	O	0.904309	1.087004	0.218143
	H352	H	0.913180	1.085779	0.197861
	H353	H	0.926891	1.070100	0.220990
	O354	O	0.433771	0.410784	0.355379
	H355	H	0.444804	0.425482	0.341377
	H356	H	0.419634	0.408910	0.370047
	O357	O	1.187446	1.050729	1.219604
	H358	H	1.213947	1.056309	1.227129
	H359	H	1.191158	1.090277	1.225838
	O360	O	0.381494	0.503842	0.526484
	H361	H	0.405017	0.503067	0.539383
	H362	H	0.387249	0.496080	0.532780
	O363	O	1.042168	0.181477	0.004523
	H364	H	1.055995	0.175120	-0.003545
	H365	H	1.061680	0.183543	-0.001166
	O366	O	1.209806	0.211311	1.018823
	H367	H	1.234272	0.223217	1.030755
	H368	H	1.219761	0.188182	0.998023
	O369	O	0.777853	0.793445	0.153185
	H370	H	0.761243	0.810177	0.158757
	H371	H	0.778565	0.784798	0.144045
	O372	O	0.297669	0.531136	0.320926
	H373	H	0.293904	0.515092	0.328440
	H374	H	0.295942	0.505799	0.326373
	O375	O	-0.027302	1.015524	1.038880
	H376	H	-0.029479	1.014625	1.037258
	H377	H	-0.015382	1.013287	1.048315
	O378	O	0.431776	0.692752	0.302138
	H379	H	0.407343	0.697276	0.299696
	H380	H	0.422707	0.701196	0.279882
	O381	O	1.215029	-0.018136	-0.212649
	H382	H	1.219466	-0.022990	-0.234315
	H383	H	1.214242	-0.043206	-0.225260
	O384	O	0.158225	-0.184518	1.161113
	H385	H	0.138326	-0.179770	1.141195
	H386	H	0.160323	-0.164200	1.154462
	O387	O	-0.026751	0.827173	0.902968
	H388	H	-0.033520	0.834392	0.904861
	H389	H	-0.020992	0.823944	0.893625
	O390	O	-0.221518	-0.017197	1.189300
	H391	H	-0.199365	-0.003522	1.194963
	H392	H	-0.229334	-0.016573	1.215071
	O393	O	0.825948	0.985183	-0.187249
	H394	H	0.836130	1.002625	-0.175945
	H395	H	0.803607	0.977886	-0.213725
	O396	O	0.714490	0.482960	0.300860
	H397	H	0.713039	0.448719	0.297223
	H398	H	0.733091	0.468148	0.278175
	O399	O	0.523489	0.328675	0.495222
	H400	H	0.515792	0.330839	0.483302
	H401	H	0.515098	0.340279	0.505763
	O402	O	0.039098	-0.078293	0.842500
	H403	H	0.033393	-0.066701	0.840899
	H404	H	0.033246	-0.082006	0.828359
	O405	O	0.079166	-0.188229	0.059318
	H406	H	0.078538	-0.201661	0.054203
	H407	H	0.065508	-0.192522	0.074800
	O408	O	0.566062	0.686305	0.427967
	H409	H	0.568085	0.699385	0.420332
	H410	H	0.549942	0.698905	0.426526
	O411	O	0.269535	0.734151	0.283573
	H412	H	0.263090	0.692206	0.278201
	H413	H	0.249005	0.756605	0.257755
	O414	O	0.465267	0.296952	0.707892
	H415	H	0.484314	0.294198	0.698733
	H416	H	0.475684	0.281046	0.724617
	O417	O	0.704047	0.665684	0.583888
	H418	H	0.702536	0.673148	0.585615
	H419	H	0.707484	0.672988	0.572423
	O420	O	0.691421	0.535207	0.474100
	H421	H	0.689260	0.543641	0.452169
	H422	H	0.692319	0.551710	0.464883
	O423	O	0.158775	1.008744	-0.022266
	H424	H	0.162931	1.003068	-0.031394
	H425	H	0.159441	1.003464	-0.018697
	O426	O	0.788967	1.206508	0.971832
	H427	H	0.784525	1.207263	0.982244
	H428	H	0.795248	1.210695	0.983957
	O429	O	0.452561	0.715776	0.522970
	H430	H	0.449250	0.712551	0.533130
	H431	H	0.424763	0.718752	0.519272
	O432	O	0.295094	0.315664	0.645645
	H433	H	0.336313	0.309889	0.666405
	H434	H	0.282497	0.336073	0.648585
	O435	O	0.014366	0.214666	0.192760
	H436	H	-0.004664	0.209296	0.195112
	H437	H	0.014185	0.228971	0.203204
	O438	O	1.205239	-0.207117	-0.023522
	H439	H	1.212662	-0.235244	-0.028805
	H440	H	1.201865	-0.200494	-0.037087
	O441	O	0.636611	0.656304	0.288259
	H442	H	0.661077	0.645892	0.271297
	H443	H	0.633259	0.668710	0.292467
	O444	O	0.632426	0.361229	0.608603
	H445	H	0.637607	0.365334	0.579381
	H446	H	0.642567	0.361829	0.612175
	O447	O	0.628320	0.402508	0.519054
	H448	H	0.640591	0.424443	0.517739
	H449	H	0.631255	0.396724	0.516288
	O450	O	0.551399	0.446741	0.723255
	H451	H	0.551735	0.439797	0.721111
	H452	H	0.565498	0.437811	0.712999
	O453	O	0.685784	0.695417	0.695193
	H454	H	0.690891	0.675025	0.685171
	H455	H	0.680701	0.702224	0.670195
	O456	O	0.808604	-0.003978	0.073559
	H457	H	0.825745	0.015222	0.066035
	H458	H	0.808605	-0.021225	0.101981
	O459	O	0.314942	0.444849	0.668349
	H460	H	0.314148	0.464781	0.671285
	H461	H	0.315264	0.445607	0.679864
	O462	O	0.704900	0.502152	0.675579
	H463	H	0.698070	0.504903	0.688635
	H464	H	0.704824	0.512800	0.680926
	O465	O	0.804662	0.172413	-0.186085
	H466	H	0.823713	0.182902	-0.163940
	H467	H	0.801648	0.158932	-0.166711
