data_Molecule from HDF5

_cell_length_a		16.244530
_cell_length_b		16.589674
_cell_length_c		16.169713
_cell_angle_alpha	90.040613
_cell_angle_beta	89.846395
_cell_angle_gamma	89.990713
_symmetry_space_group_name_H-M	'P 1'
_symmetry_Int_Tables_number		1

loop_
	_symmetry_equiv_pos_as_xyz
	x,y,z

loop_
	_atom_site_label
	_atom_site_type_symbol
	_atom_site_fract_x
	_atom_site_fract_y
	_atom_site_fract_z
	H0	H	0.388107	0.844158	0.710940
	H1	H	0.593974	0.162269	0.707612
	H2	H	0.596099	0.843357	0.269036
	H3	H	0.392078	0.162427	0.271674
	H4	H	0.705855	0.406292	0.823698
	H5	H	0.706953	0.600089	0.152605
	H6	H	0.276947	0.603234	0.825272
	H7	H	0.272276	0.400465	0.149887
	H8	H	0.831637	0.725105	0.380328
	H9	H	0.150067	0.726216	0.595630
	H10	H	0.829241	0.285229	0.591438
	H11	H	0.149616	0.280731	0.379114
	H12	H	0.826717	0.407697	0.700305
	H13	H	0.154295	0.603046	0.701671
	H14	H	0.827338	0.600478	0.274673
	H15	H	0.153683	0.405218	0.273116
	H16	H	0.386896	0.723772	0.828098
	H17	H	0.599579	0.722740	0.150550
	H18	H	0.600149	0.281955	0.828681
	H19	H	0.389697	0.286232	0.151391
	H20	H	0.712691	0.843883	0.384822
	H21	H	0.709223	0.162278	0.588741
	H22	H	0.268147	0.845926	0.596698
	H23	H	0.272867	0.161642	0.386766
	H24	H	0.887457	0.343796	0.207059
	H25	H	0.095260	0.661335	0.209385
	H26	H	0.092898	0.343217	0.767513
	H27	H	0.889768	0.663311	0.769359
	H28	H	0.213158	0.900449	0.327456
	H29	H	0.208420	0.106788	0.652183
	H30	H	0.778967	0.098298	0.323179
	H31	H	0.776637	0.905205	0.652162
	H32	H	0.332976	0.226190	0.883075
	H33	H	0.654482	0.221972	0.093622
	H34	H	0.333471	0.777750	0.101325
	H35	H	0.653535	0.783202	0.883334
	H36	H	0.330175	0.902423	0.207388
	H37	H	0.656861	0.099197	0.202494
	H38	H	0.329649	0.105271	0.773192
	H39	H	0.655844	0.906064	0.774821
	H40	H	0.884545	0.221686	0.326113
	H41	H	0.096546	0.226009	0.648310
	H42	H	0.101035	0.780746	0.328141
	H43	H	0.883287	0.781857	0.648450
	H44	H	0.211613	0.343244	0.883314
	H45	H	0.214828	0.660020	0.094209
	H46	H	0.775068	0.343036	0.087358
	H47	H	0.772842	0.662750	0.886009
	H48	H	0.400678	0.116087	0.583260
	H49	H	0.578446	0.887841	0.592056
	H50	H	0.583769	0.114529	0.400053
	H51	H	0.404912	0.890504	0.396475
	H52	H	0.586361	0.410477	0.106902
	H53	H	0.582707	0.595019	0.872247
	H54	H	0.405842	0.593175	0.103079
	H55	H	0.409960	0.413144	0.875614
	H56	H	0.104443	0.589123	0.401611
	H57	H	0.876496	0.590809	0.577677
	H58	H	0.107616	0.409668	0.576269
	H59	H	0.874970	0.409196	0.401758
	H60	H	0.104576	0.411177	0.571126
	H61	H	0.874231	0.597878	0.577405
	H62	H	0.108407	0.594264	0.394161
	H63	H	0.874026	0.413035	0.396194
	H64	H	0.403257	0.590801	0.104570
	H65	H	0.580563	0.594109	0.873967
	H66	H	0.582278	0.414061	0.104057
	H67	H	0.404674	0.408324	0.871320
	H68	H	0.587892	0.116339	0.396633
	H69	H	0.577438	0.893614	0.571655
	H70	H	0.402422	0.115001	0.580409
	H71	H	0.405237	0.892180	0.404980
	H72	H	0.896087	0.617274	0.076298
	H73	H	0.080091	0.392298	0.074559
	H74	H	0.081796	0.613743	0.899867
	H75	H	0.891248	0.387058	0.893118
	H76	H	0.080128	0.914706	0.603566
	H77	H	0.076274	0.097477	0.373182
	H78	H	0.903961	0.098045	0.603622
	H79	H	0.893486	0.906526	0.367385
	H80	H	0.605986	0.094461	0.904859
	H81	H	0.377713	0.097086	0.076475
	H82	H	0.608260	0.910093	0.080078
	H83	H	0.378513	0.909352	0.906144
	H84	H	0.606415	0.908341	0.073841
	H85	H	0.376803	0.093509	0.081378
	H86	H	0.607122	0.091878	0.898149
	H87	H	0.379091	0.915861	0.903466
	H88	H	0.898678	0.098701	0.606387
	H89	H	0.084924	0.092525	0.371576
	H90	H	0.075457	0.916094	0.601390
	H91	H	0.902881	0.923031	0.376122
	H92	H	0.087493	0.615546	0.896041
	H93	H	0.083695	0.390262	0.077833
	H94	H	0.898645	0.617600	0.084421
	H95	H	0.903710	0.389425	0.887393
	H96	H	0.399485	0.115664	0.580226
	H97	H	0.595477	0.886647	0.579610
	H98	H	0.583344	0.116047	0.394864
	H99	H	0.397606	0.889242	0.401144
	H100	H	0.581012	0.409103	0.106419
	H101	H	0.581116	0.597144	0.872350
	H102	H	0.406084	0.589498	0.102574
	H103	H	0.402406	0.416475	0.873220
	H104	H	0.106209	0.598951	0.402706
	H105	H	0.877419	0.594413	0.571367
	H106	H	0.105519	0.414842	0.575634
	H107	H	0.872448	0.406537	0.395677
	H108	H	0.903677	0.614481	0.078371
	H109	H	0.079154	0.391770	0.079630
	H110	H	0.081220	0.615827	0.893270
	H111	H	0.900988	0.392462	0.900168
	H112	H	0.076343	0.911264	0.603295
	H113	H	0.077875	0.088078	0.377221
	H114	H	0.900267	0.093411	0.603034
	H115	H	0.913775	0.905521	0.372970
	H116	H	0.609118	0.098036	0.899499
	H117	H	0.375786	0.099809	0.081487
	H118	H	0.605336	0.914443	0.076158
	H119	H	0.376392	0.910915	0.899701
	C120	C	0.368883	0.011251	0.613413
	C121	C	0.614107	0.994937	0.611201
	C122	C	0.615524	0.010708	0.366255
	C123	C	0.371136	0.994820	0.368762
	C124	C	0.614052	0.381744	-0.002151
	C125	C	0.613240	0.624562	0.980337
	C126	C	0.372386	0.623298	-0.003077
	C127	C	0.372768	0.381799	0.980237
	C128	C	-0.000170	0.624134	0.367603
	C129	C	0.982439	0.625313	0.607871
	C130	C	-0.001056	0.382475	0.606507
	C131	C	0.980785	0.380204	0.366268
	C132	C	0.869635	0.510825	0.109620
	C133	C	0.113434	0.494792	0.110184
	C134	C	0.113908	0.510517	0.864575
	C135	C	0.868789	0.495408	0.864189
	C136	C	0.111604	0.882388	0.496731
	C137	C	0.111565	0.124853	0.480525
	C138	C	0.870155	0.124620	0.496306
	C139	C	0.871101	0.881947	0.479423
	C140	C	0.500886	0.125638	0.868897
	C141	C	0.484356	0.125242	0.110519
	C142	C	0.500913	0.880192	0.110547
	C143	C	0.484262	0.881396	0.870034
	C144	C	0.368260	0.892156	0.672123
	C145	C	0.613305	0.114593	0.668340
	C146	C	0.615452	0.891176	0.307930
	C147	C	0.371839	0.114505	0.310401
	C148	C	0.669541	0.384453	0.873782
	C149	C	0.670024	0.621689	0.103238
	C150	C	0.314969	0.623260	0.874493
	C151	C	0.312618	0.381617	0.101844
	C152	C	0.879137	0.684124	0.363690
	C153	C	0.102735	0.685239	0.611789
	C154	C	0.877229	0.325143	0.608917
	C155	C	0.102056	0.321535	0.362698
	C156	C	0.876048	0.385674	0.663405
	C157	C	0.104606	0.623990	0.665053
	C158	C	0.877028	0.622270	0.310986
	C159	C	0.104090	0.383053	0.309734
	C160	C	0.369767	0.683328	0.875990
	C161	C	0.616258	0.682542	0.102343
	C162	C	0.616750	0.323087	0.876167
	C163	C	0.370948	0.324902	0.102526
	C164	C	0.673405	0.891204	0.365881
	C165	C	0.671224	0.114448	0.609693
	C166	C	0.308566	0.892768	0.615159
	C167	C	0.312682	0.114347	0.367748
	C168	C	0.869252	0.391366	0.167513
	C169	C	0.114725	0.613724	0.170014
	C170	C	0.113224	0.390869	0.806440
	C171	C	0.869783	0.615347	0.807597
	C172	C	0.173194	0.881205	0.375738
	C173	C	0.169493	0.125728	0.602882
	C174	C	0.815014	0.120562	0.372887
	C175	C	0.814065	0.884128	0.602621
	C176	C	0.380406	0.185499	0.865802
	C177	C	0.606194	0.182470	0.111926
	C178	C	0.380638	0.819797	0.116333
	C179	C	0.605413	0.823019	0.866214
	C180	C	0.379142	0.881332	0.169748
	C181	C	0.607435	0.121254	0.165851
	C182	C	0.378939	0.125205	0.811114
	C183	C	0.606799	0.884378	0.812395
	C184	C	0.868238	0.181422	0.374179
	C185	C	0.113876	0.185295	0.600932
	C186	C	0.117196	0.821773	0.376049
	C187	C	0.867308	0.822818	0.600747
	C188	C	0.172380	0.391043	0.864018
	C189	C	0.174005	0.613219	0.112370
	C190	C	0.812796	0.390994	0.108001
	C191	C	0.811566	0.615144	0.865663
	C192	C	0.393426	0.094118	0.588553
	C193	C	0.590669	0.911018	0.587739
	C194	C	0.591809	0.093916	0.390302
	C195	C	0.395269	0.912260	0.393552
	C196	C	0.590106	0.404519	0.083350
	C197	C	0.588641	0.601880	0.894963
	C198	C	0.397905	0.598335	0.081418
	C199	C	0.398310	0.405648	0.895395
	C200	C	0.084307	0.600836	0.392385
	C201	C	0.897937	0.601377	0.582644
	C202	C	0.083890	0.405315	0.581553
	C203	C	0.895958	0.402967	0.390753
	C204	C	0.892916	0.594674	0.086532
	C205	C	0.088177	0.412678	0.084675
	C206	C	0.090378	0.593341	0.889196
	C207	C	0.891866	0.411428	0.887094
	C208	C	0.084928	0.907053	0.580709
	C209	C	0.086879	0.099812	0.396017
	C210	C	0.894071	0.102840	0.582093
	C211	C	0.896102	0.904957	0.394317
	C212	C	0.585606	0.101797	0.893630
	C213	C	0.398985	0.103201	0.086584
	C214	C	0.584805	0.904127	0.084348
	C215	C	0.399897	0.905050	0.895668
	Zn216	Zn	0.492138	0.003180	0.742104
	Zn217	Zn	0.492823	0.002312	0.237949
	Zn218	Zn	0.740322	0.503139	-0.012345
	Zn219	Zn	0.243871	0.502303	-0.012284
	Zn220	Zn	-0.009072	0.753125	0.487837
	Zn221	Zn	-0.010028	0.252950	0.487258
	Zn222	Zn	-0.008956	0.503535	0.734970
	Zn223	Zn	-0.009272	0.502699	0.239550
	Zn224	Zn	0.492542	0.752108	-0.009988
	Zn225	Zn	0.493584	0.253558	-0.010585
	Zn226	Zn	0.743802	0.002552	0.488405
	Zn227	Zn	0.240187	0.003624	0.490292
	N228	N	0.404912	0.966859	0.671186
	N229	N	0.578570	0.039177	0.669350
	N230	N	0.580082	0.966400	0.308180
	N231	N	0.407242	0.039190	0.310564
	N232	N	0.668026	0.420080	0.950412
	N233	N	0.668462	0.586616	0.026183
	N234	N	0.316342	0.586779	0.950710
	N235	N	0.313682	0.416288	0.024741
	N236	N	0.956476	0.685541	0.398148
	N237	N	0.025612	0.686116	0.577199
	N238	N	0.954771	0.322904	0.574569
	N239	N	0.024435	0.319411	0.396798
	N240	N	0.952743	0.420591	0.662044
	N241	N	0.028778	0.587311	0.662720
	N242	N	0.953003	0.585896	0.313095
	N243	N	0.027801	0.418703	0.311702
	N244	N	0.404195	0.683859	0.953715
	N245	N	0.581648	0.684332	0.024859
	N246	N	0.582961	0.321169	0.954214
	N247	N	0.407850	0.325013	0.025871
	N248	N	0.673552	0.966552	0.401400
	N249	N	0.671813	0.038779	0.574903
	N250	N	0.308821	0.967951	0.579504
	N251	N	0.311946	0.039118	0.403126
	N252	N	0.903678	0.466997	0.168598
	N253	N	0.077541	0.539336	0.168523
	N254	N	0.077892	0.466142	0.806275
	N255	N	0.904736	0.539881	0.806831
	N256	N	0.169717	0.918340	0.451568
	N257	N	0.168086	0.088701	0.526937
	N258	N	0.816004	0.085887	0.450076
	N259	N	0.816337	0.920167	0.526168
	N260	N	0.457290	0.185722	0.901003
	N261	N	0.528385	0.185133	0.078560
	N262	N	0.457298	0.818820	0.080285
	N263	N	0.528172	0.820884	0.901138
	N264	N	0.454757	0.918308	0.166125
	N265	N	0.530601	0.086529	0.165405
	N266	N	0.454931	0.088597	0.813038
	N267	N	0.530352	0.919926	0.814506
	N268	N	0.901824	0.184125	0.452094
	N269	N	0.078467	0.184600	0.523823
	N270	N	0.079493	0.822395	0.452314
	N271	N	0.901951	0.821378	0.523136
	N272	N	0.173190	0.466526	0.899373
	N273	N	0.173306	0.538406	0.075773
	N274	N	0.812847	0.466321	0.072585
	N275	N	0.810782	0.539438	0.900126
	O276	O	0.363254	0.618742	0.569426
	H277	H	0.379714	0.614786	0.569730
	H278	H	0.372293	0.621795	0.555236
	O279	O	0.311733	0.545589	0.418259
	H280	H	0.296908	0.557421	0.417830
	H281	H	0.320977	0.532242	0.404575
	O282	O	0.551113	0.484810	0.651212
	H283	H	0.537082	0.470194	0.638219
	H284	H	0.546141	0.466563	0.663638
	O285	O	0.884364	0.120027	-0.077581
	H286	H	0.906342	0.114253	-0.082799
	H287	H	0.891468	0.132549	-0.068849
	O288	O	0.127393	0.023543	0.818490
	H289	H	0.126037	0.031538	0.799066
	H290	H	0.129944	0.038458	0.845731
	O291	O	0.575061	0.328059	0.382993
	H292	H	0.560848	0.322395	0.383586
	H293	H	0.572092	0.338058	0.368498
	O294	O	0.458278	0.556803	0.602818
	H295	H	0.444127	0.548164	0.606344
	H296	H	0.471257	0.560778	0.600172
	O297	O	1.183302	1.120411	0.956340
	H298	H	1.185353	1.122550	0.960367
	H299	H	1.181441	1.118276	0.976310
	O300	O	-0.033326	0.101785	-0.199303
	H301	H	-0.034936	0.099706	-0.202298
	H302	H	-0.039464	0.105205	-0.185748
	O303	O	0.437424	0.486610	0.598638
	H304	H	0.439607	0.490477	0.593017
	H305	H	0.440486	0.490331	0.596434
	O306	O	1.053212	0.155394	-0.130545
	H307	H	1.052905	0.166278	-0.123343
	H308	H	1.039410	0.156505	-0.127202
	O309	O	0.520822	0.577558	0.437088
	H310	H	0.507553	0.581764	0.444662
	H311	H	0.529439	0.575182	0.442186
	O312	O	1.080465	0.808893	-0.208855
	H313	H	1.088631	0.819171	-0.227981
	H314	H	1.093233	0.809226	-0.210441
	O315	O	0.941914	-0.030513	-0.004989
	H316	H	0.933381	-0.030428	-0.011975
	H317	H	0.953467	-0.026883	-0.018905
	O318	O	0.422000	0.572190	0.325572
	H319	H	0.413571	0.565082	0.329684
	H320	H	0.420909	0.588471	0.341593
	O321	O	1.086812	-0.114045	1.060752
	H322	H	1.085365	-0.122852	1.039639
	H323	H	1.087658	-0.123288	1.061116
	O324	O	-0.098765	0.110177	0.960709
	H325	H	-0.098564	0.106377	0.976437
	H326	H	-0.096774	0.122419	0.965482
	O327	O	0.639996	0.680874	0.672770
	H328	H	0.654002	0.663937	0.692882
	H329	H	0.642125	0.672063	0.663992
	O330	O	0.548951	0.586846	0.426350
	H331	H	0.557195	0.573641	0.425103
	H332	H	0.564477	0.596993	0.426117
	O333	O	0.877006	0.857693	0.994506
	H334	H	0.861754	0.872469	0.995033
	H335	H	0.883407	0.856151	0.974176
	O336	O	0.629181	0.390342	0.423590
	H337	H	0.636397	0.393309	0.417177
	H338	H	0.629366	0.372745	0.424508
	O339	O	1.027180	-0.042892	1.152804
	H340	H	1.017320	-0.064498	1.149817
	H341	H	1.022364	-0.038672	1.159029
	O342	O	-0.107469	0.839231	1.083305
	H343	H	-0.112564	0.827489	1.086683
	H344	H	-0.120346	0.840282	1.108841
	O345	O	-0.185745	0.970585	1.001822
	H346	H	-0.183225	0.971701	1.007415
	H347	H	-0.188476	0.968685	0.984794
	O348	O	0.302565	0.436827	0.556848
	H349	H	0.303070	0.450373	0.571818
	H350	H	0.300106	0.439531	0.563786
	O351	O	0.098990	0.164754	0.042259
	H352	H	0.098499	0.173061	0.047924
	H353	H	0.103325	0.156462	0.053346
	O354	O	0.838735	1.049174	-0.026484
	H355	H	0.856393	1.042952	-0.016458
	H356	H	0.842033	1.068306	-0.023563
	O357	O	0.076383	1.011527	-0.069337
	H358	H	0.081728	1.028592	-0.055594
	H359	H	0.082639	0.989510	-0.052450
	O360	O	0.560747	0.600308	0.593128
	H361	H	0.571187	0.585422	0.592586
	H362	H	0.575236	0.597606	0.599704
	O363	O	0.342633	0.308268	0.637471
	H364	H	0.369570	0.306435	0.646215
	H365	H	0.330195	0.299971	0.631765
	O366	O	0.463476	0.673887	0.371373
	H367	H	0.468626	0.678733	0.356618
	H368	H	0.464206	0.682758	0.382127
	O369	O	0.552029	0.591168	0.369679
	H370	H	0.563433	0.594530	0.378074
	H371	H	0.555187	0.586109	0.374892
	O372	O	0.447201	0.665958	0.473110
	H373	H	0.454076	0.663425	0.475345
	H374	H	0.463165	0.677461	0.470038
	O375	O	0.627391	0.394090	0.642182
	H376	H	0.619217	0.394144	0.642757
	H377	H	0.638829	0.378578	0.625420
	O378	O	0.566173	0.410323	0.466707
	H379	H	0.569655	0.412750	0.469147
	H380	H	0.554698	0.410372	0.455804
	O381	O	0.489304	0.375748	0.530665
	H382	H	0.490332	0.370595	0.534426
	H383	H	0.503220	0.374907	0.522740
	O384	O	-0.126508	0.939272	0.966708
	H385	H	-0.115701	0.955159	0.967101
	H386	H	-0.124981	0.946883	0.953335
	O387	O	0.830821	1.092663	0.005667
	H388	H	0.837818	1.078623	0.017028
	H389	H	0.849708	1.093175	-0.006023
	O390	O	0.316446	0.323406	0.455183
	H391	H	0.296234	0.321655	0.455302
	H392	H	0.325738	0.329412	0.471816
	O393	O	1.103168	-0.197803	0.980812
	H394	H	1.105603	-0.199138	0.968255
	H395	H	1.105761	-0.206510	0.991094
	O396	O	0.181216	0.850024	0.877779
	H397	H	0.182599	0.844956	0.853878
	H398	H	0.187097	0.856923	0.870145
	O399	O	0.313290	0.486461	1.575694
	H400	H	0.301989	0.492086	1.583327
	H401	H	0.306367	0.477076	1.591764
	O402	O	0.995167	0.131351	1.171287
	H403	H	1.019996	0.135764	1.183695
	H404	H	1.015411	0.137098	1.163613
	O405	O	-0.108561	0.027425	-0.158087
	H406	H	-0.109456	0.031546	-0.173843
	H407	H	-0.102024	0.035035	-0.136332
	O408	O	1.116589	0.982503	0.992684
	H409	H	1.107037	0.967456	0.989957
	H410	H	1.122186	0.976844	0.978468
	O411	O	0.930646	0.812855	0.180116
	H412	H	0.929826	0.799564	0.166787
	H413	H	0.925068	0.797201	0.183935
	O414	O	0.594431	-0.332130	1.527101
	H415	H	0.601807	-0.330998	1.536703
	H416	H	0.596951	-0.328075	1.548822
	O417	O	0.630679	0.322654	0.396523
	H418	H	0.614336	0.330924	0.395153
	H419	H	0.627810	0.305293	0.384140
	O420	O	0.110002	1.164469	0.190463
	H421	H	0.120424	1.157299	0.201750
	H422	H	0.120524	1.151642	0.205304
	O423	O	1.153176	0.091549	0.191538
	H424	H	1.143443	0.080343	0.175021
	H425	H	1.154328	0.062135	0.198391
	O426	O	0.364763	0.280130	1.331922
	H427	H	0.367740	0.272410	1.340747
	H428	H	0.368781	0.292204	1.322933
	O429	O	0.512577	0.537001	0.292731
	H430	H	0.491397	0.542803	0.286778
	H431	H	0.498018	0.552270	0.281884
