data_Molecule from HDF5

_cell_length_a		16.244218
_cell_length_b		16.239279
_cell_length_c		16.283152
_cell_angle_alpha	90.104483
_cell_angle_beta	89.971591
_cell_angle_gamma	89.814610
_symmetry_space_group_name_H-M	'P 1'
_symmetry_Int_Tables_number		1

loop_
	_symmetry_equiv_pos_as_xyz
	x,y,z

loop_
	_atom_site_label
	_atom_site_type_symbol
	_atom_site_fract_x
	_atom_site_fract_y
	_atom_site_fract_z
	H0	H	0.406802	0.841140	0.718577
	H1	H	0.602990	0.169733	0.717895
	H2	H	0.604590	0.841807	0.288280
	H3	H	0.406264	0.169859	0.290892
	H4	H	0.721420	0.406463	0.840778
	H5	H	0.719448	0.602892	0.168065
	H6	H	0.291674	0.604604	0.840455
	H7	H	0.292529	0.409465	0.168617
	H8	H	0.840590	0.718605	0.406819
	H9	H	0.169639	0.718963	0.600598
	H10	H	0.839804	0.293101	0.601222
	H11	H	0.168947	0.291217	0.406207
	H12	H	0.840844	0.408407	0.717971
	H13	H	0.170193	0.602547	0.716981
	H14	H	0.841018	0.605221	0.289258
	H15	H	0.168872	0.406230	0.289811
	H16	H	0.408306	0.719302	0.840578
	H17	H	0.604116	0.719529	0.167772
	H18	H	0.604883	0.291150	0.840465
	H19	H	0.407768	0.292125	0.168557
	H20	H	0.717594	0.840683	0.406220
	H21	H	0.718008	0.168975	0.601121
	H22	H	0.292063	0.840636	0.601680
	H23	H	0.291022	0.169801	0.407458
	H24	H	0.907808	0.341288	0.217799
	H25	H	0.103638	0.669355	0.218690
	H26	H	0.105066	0.341101	0.789202
	H27	H	0.906693	0.669124	0.790657
	H28	H	0.220540	0.906086	0.340073
	H29	H	0.218326	0.102917	0.668502
	H30	H	0.788629	0.104986	0.340417
	H31	H	0.791208	0.907061	0.667075
	H32	H	0.341409	0.220023	0.907200
	H33	H	0.670631	0.217955	0.101152
	H34	H	0.341324	0.790627	0.103195
	H35	H	0.669982	0.791433	0.907024
	H36	H	0.340807	0.908183	0.217540
	H37	H	0.669470	0.104188	0.219266
	H38	H	0.340951	0.103391	0.791633
	H39	H	0.669730	0.905631	0.790347
	H40	H	0.907099	0.218862	0.339306
	H41	H	0.102307	0.219209	0.668261
	H42	H	0.102970	0.790793	0.339166
	H43	H	0.907777	0.793465	0.667483
	H44	H	0.219618	0.341119	0.907021
	H45	H	0.217274	0.670117	0.100721
	H46	H	0.792589	0.341332	0.101255
	H47	H	0.792245	0.669401	0.907425
	H48	H	0.412105	0.122670	0.600886
	H49	H	0.602843	0.886675	0.596626
	H50	H	0.594573	0.120165	0.416354
	H51	H	0.414425	0.886100	0.401312
	H52	H	0.595906	0.414311	0.119562
	H53	H	0.597141	0.608235	0.885194
	H54	H	0.424326	0.590472	0.115118
	H55	H	0.408970	0.416968	0.887868
	H56	H	0.122373	0.600894	0.412644
	H57	H	0.888533	0.599645	0.598761
	H58	H	0.122317	0.409467	0.595909
	H59	H	0.890457	0.414479	0.416298
	H60	H	0.121391	0.412986	0.595256
	H61	H	0.887865	0.600471	0.598432
	H62	H	0.121593	0.595010	0.411584
	H63	H	0.887201	0.417319	0.405013
	H64	H	0.413501	0.614314	0.124844
	H65	H	0.608065	0.595057	0.885742
	H66	H	0.599333	0.407056	0.122089
	H67	H	0.418700	0.411612	0.889884
	H68	H	0.603457	0.123176	0.411796
	H69	H	0.596713	0.887192	0.602102
	H70	H	0.411622	0.120988	0.596386
	H71	H	0.421195	0.892099	0.415677
	H72	H	0.916978	0.620604	0.095819
	H73	H	0.102164	0.387696	0.097232
	H74	H	0.098626	0.621128	0.915423
	H75	H	0.923791	0.392343	0.914336
	H76	H	0.111856	0.915200	0.622879
	H77	H	0.103756	0.103309	0.384275
	H78	H	0.911650	0.098053	0.619940
	H79	H	0.910658	0.921564	0.389277
	H80	H	0.622559	0.104510	0.915701
	H81	H	0.387878	0.097424	0.101290
	H82	H	0.623144	0.912869	0.104206
	H83	H	0.388290	0.909941	0.912387
	H84	H	0.622325	0.906338	0.093742
	H85	H	0.387578	0.103247	0.097668
	H86	H	0.619831	0.090559	0.912453
	H87	H	0.390048	0.914570	0.912467
	H88	H	0.911993	0.100165	0.619879
	H89	H	0.100499	0.090381	0.389212
	H90	H	0.089508	0.922294	0.613969
	H91	H	0.920459	0.906451	0.386974
	H92	H	0.103328	0.624795	0.908036
	H93	H	0.098492	0.387596	0.099741
	H94	H	0.908974	0.621904	0.094293
	H95	H	0.904502	0.387368	0.918488
	H96	H	0.408865	0.122788	0.598676
	H97	H	0.595282	0.890449	0.594310
	H98	H	0.594863	0.123093	0.406999
	H99	H	0.404193	0.887622	0.414587
	H100	H	0.604233	0.413853	0.122281
	H101	H	0.591692	0.593098	0.891202
	H102	H	0.398046	0.591465	0.122550
	H103	H	0.409736	0.406127	0.885448
	H104	H	0.123496	0.598410	0.407044
	H105	H	0.888448	0.600054	0.597418
	H106	H	0.121427	0.412679	0.598479
	H107	H	0.885297	0.406135	0.408537
	H108	H	0.911562	0.624330	0.102072
	H109	H	0.098442	0.389332	0.095363
	H110	H	0.094072	0.622532	0.906899
	H111	H	0.912771	0.384696	0.899977
	H112	H	0.092141	0.898950	0.622089
	H113	H	0.091271	0.100858	0.389205
	H114	H	0.909927	0.099645	0.620495
	H115	H	0.902795	0.906838	0.381990
	H116	H	0.625442	0.099483	0.902420
	H117	H	0.389743	0.097634	0.094672
	H118	H	0.619489	0.918154	0.093871
	H119	H	0.388398	0.912790	0.909031
	C120	C	0.382694	0.013743	0.626852
	C121	C	0.626385	0.996615	0.625898
	C122	C	0.626139	0.013706	0.382912
	C123	C	0.383874	0.996994	0.382631
	C124	C	0.628206	0.383448	0.012647
	C125	C	0.627289	0.626744	0.995717
	C126	C	0.383998	0.627359	0.012610
	C127	C	0.384528	0.384008	0.996211
	C128	C	0.013689	0.626609	0.382270
	C129	C	0.997056	0.627400	0.625588
	C130	C	0.013074	0.383704	0.625265
	C131	C	0.996242	0.384184	0.382186
	C132	C	0.884529	0.513991	0.125594
	C133	C	0.127435	0.496640	0.125767
	C134	C	0.127630	0.514198	0.881617
	C135	C	0.884529	0.496660	0.882566
	C136	C	0.127039	0.883050	0.511757
	C137	C	0.126553	0.126689	0.496009
	C138	C	0.882785	0.127104	0.511717
	C139	C	0.883544	0.883879	0.494781
	C140	C	0.514045	0.126840	0.882569
	C141	C	0.497195	0.127180	0.126120
	C142	C	0.513563	0.883929	0.125935
	C143	C	0.497189	0.883912	0.882860
	C144	C	0.385665	0.890361	0.681596
	C145	C	0.623483	0.120343	0.680479
	C146	C	0.623930	0.890274	0.327143
	C147	C	0.385587	0.120763	0.328305
	C148	C	0.683068	0.386027	0.889393
	C149	C	0.681891	0.623661	0.119074
	C150	C	0.329132	0.625118	0.889575
	C151	C	0.329820	0.387775	0.119590
	C152	C	0.889744	0.681212	0.385773
	C153	C	0.120779	0.681281	0.621582
	C154	C	0.889251	0.329974	0.622225
	C155	C	0.119922	0.328830	0.385307
	C156	C	0.889893	0.386885	0.680642
	C157	C	0.121009	0.623542	0.679525
	C158	C	0.890049	0.624791	0.327286
	C159	C	0.120069	0.386230	0.327693
	C160	C	0.386967	0.682253	0.889522
	C161	C	0.624588	0.681661	0.118947
	C162	C	0.625358	0.328572	0.889527
	C163	C	0.387661	0.330049	0.119751
	C164	C	0.680698	0.889877	0.385134
	C165	C	0.680629	0.120053	0.622461
	C166	C	0.328998	0.890038	0.623247
	C167	C	0.328719	0.120690	0.386438
	C168	C	0.887436	0.390227	0.180201
	C169	C	0.124141	0.620328	0.180698
	C170	C	0.125110	0.389994	0.827365
	C171	C	0.886819	0.620306	0.828431
	C172	C	0.182323	0.885437	0.388679
	C173	C	0.180760	0.123517	0.619516
	C174	C	0.827265	0.124701	0.388828
	C175	C	0.829047	0.887062	0.618321
	C176	C	0.390334	0.182121	0.886327
	C177	C	0.621241	0.180997	0.122581
	C178	C	0.390159	0.828853	0.123158
	C179	C	0.620809	0.828583	0.885882
	C180	C	0.389875	0.887119	0.180178
	C181	C	0.620645	0.124676	0.181334
	C182	C	0.390092	0.124289	0.828845
	C183	C	0.620442	0.885410	0.827749
	C184	C	0.886206	0.181339	0.388283
	C185	C	0.123503	0.181658	0.619277
	C186	C	0.123809	0.828385	0.388148
	C187	C	0.886768	0.830229	0.618372
	C188	C	0.182103	0.390113	0.885661
	C189	C	0.180700	0.620860	0.122410
	C190	C	0.830296	0.390092	0.122358
	C191	C	0.829714	0.620346	0.886344
	C192	C	0.404350	0.099799	0.605095
	C193	C	0.604658	0.910302	0.604168
	C194	C	0.604181	0.099879	0.405206
	C195	C	0.406610	0.910982	0.404027
	C196	C	0.606261	0.405235	0.099025
	C197	C	0.605416	0.604929	0.909360
	C198	C	0.405713	0.605214	0.098707
	C199	C	0.406075	0.405332	0.910078
	C200	C	0.100192	0.604605	0.404040
	C201	C	0.910357	0.606177	0.604683
	C202	C	0.099572	0.405292	0.603034
	C203	C	0.910015	0.406109	0.403681
	C204	C	0.906216	0.600057	0.103958
	C205	C	0.106138	0.410579	0.103785
	C206	C	0.105278	0.600407	0.903414
	C207	C	0.907033	0.410379	0.904422
	C208	C	0.104467	0.905665	0.597719
	C209	C	0.104910	0.104701	0.409986
	C210	C	0.904559	0.105432	0.597908
	C211	C	0.904961	0.905310	0.408380
	C212	C	0.600304	0.104760	0.903825
	C213	C	0.410828	0.105638	0.104309
	C214	C	0.599525	0.905968	0.103867
	C215	C	0.411055	0.906089	0.904890
	Zn216	Zn	0.505237	0.005216	0.754072
	Zn217	Zn	0.504959	0.005644	0.254306
	Zn218	Zn	0.756288	0.505036	0.004460
	Zn219	Zn	0.255545	0.505904	0.003983
	Zn220	Zn	0.004843	0.755120	0.503199
	Zn221	Zn	0.004413	0.255594	0.503929
	Zn222	Zn	0.005419	0.505047	0.753984
	Zn223	Zn	0.005316	0.505579	0.254087
	Zn224	Zn	0.505713	0.755139	0.004479
	Zn225	Zn	0.506123	0.255093	0.004447
	Zn226	Zn	0.754804	0.004742	0.503586
	Zn227	Zn	0.255242	0.005010	0.503848
	N228	N	0.418494	0.968262	0.683775
	N229	N	0.590445	0.042489	0.682617
	N230	N	0.590712	0.968293	0.325494
	N231	N	0.419253	0.042931	0.325878
	N232	N	0.684920	0.419237	0.967078
	N233	N	0.683866	0.590551	0.041362
	N234	N	0.327009	0.591865	0.967228
	N235	N	0.327760	0.420679	0.041730
	N236	N	0.967546	0.682308	0.419374
	N237	N	0.042716	0.683847	0.588988
	N238	N	0.967016	0.327948	0.588847
	N239	N	0.041959	0.327264	0.418375
	N240	N	0.967964	0.419514	0.682485
	N241	N	0.043008	0.590733	0.682082
	N242	N	0.968155	0.591652	0.324987
	N243	N	0.042300	0.419873	0.325621
	N244	N	0.420496	0.683448	0.966946
	N245	N	0.591382	0.683579	0.041248
	N246	N	0.591967	0.326945	0.967278
	N247	N	0.420745	0.327637	0.042058
	N248	N	0.681809	0.967300	0.419513
	N249	N	0.682653	0.042174	0.589280
	N250	N	0.326944	0.967744	0.589732
	N251	N	0.327486	0.042788	0.419441
	N252	N	0.920445	0.468263	0.182152
	N253	N	0.091879	0.542187	0.183004
	N254	N	0.091958	0.468034	0.824764
	N255	N	0.920227	0.542371	0.826163
	N256	N	0.184469	0.918560	0.466430
	N257	N	0.182895	0.090277	0.541767
	N258	N	0.825045	0.091754	0.466644
	N259	N	0.827099	0.919924	0.540475
	N260	N	0.468513	0.184047	0.918880
	N261	N	0.543421	0.182976	0.089362
	N262	N	0.468146	0.826779	0.090315
	N263	N	0.543108	0.827448	0.919703
	N264	N	0.467433	0.920797	0.181939
	N265	N	0.542493	0.091914	0.183648
	N266	N	0.467913	0.090845	0.826375
	N267	N	0.542700	0.919109	0.825792
	N268	N	0.920009	0.182836	0.465631
	N269	N	0.090199	0.183515	0.541627
	N270	N	0.090268	0.826872	0.465817
	N271	N	0.919897	0.828206	0.540677
	N272	N	0.183786	0.468160	0.918660
	N273	N	0.182818	0.543135	0.088688
	N274	N	0.828340	0.467862	0.089171
	N275	N	0.828151	0.542331	0.919145
	O276	O	0.453386	0.484161	0.495173
	H277	H	0.456234	0.484431	0.497555
	H278	H	0.461280	0.476457	0.489469
	O279	O	0.053391	0.007219	-0.041509
	H280	H	0.058063	0.011298	-0.039211
	H281	H	0.053714	0.010956	-0.046281
	O282	O	0.465449	0.492506	0.521626
	H283	H	0.460834	0.496496	0.515817
	H284	H	0.460532	0.498124	0.525629
	O285	O	0.483772	0.499003	0.517709
	H286	H	0.482846	0.492594	0.522279
	H287	H	0.479809	0.493195	0.515133
	O288	O	1.075618	0.040314	-0.067428
	H289	H	1.070636	0.044850	-0.061413
	H290	H	1.082048	0.037032	-0.070592
	O291	O	-0.520222	0.489648	-0.468970
	H292	H	-0.525635	0.490470	-0.468897
	H293	H	-0.521911	0.499236	-0.467175
	O294	O	0.501226	0.477677	0.539745
	H295	H	0.494036	0.471477	0.539571
	H296	H	0.496954	0.479400	0.551738
	O297	O	0.038461	1.052465	-0.097195
	H298	H	0.046266	1.045356	-0.091043
	H299	H	0.049911	1.057462	-0.104269
	O300	O	0.995090	0.044834	0.896591
	H301	H	0.990878	0.039267	0.890034
	H302	H	0.998801	0.048127	0.892627
	O303	O	0.446156	0.455943	0.547684
	H304	H	0.445927	0.452478	0.540966
	H305	H	0.442046	0.464994	0.549471
	O306	O	0.051841	1.029705	0.944589
	H307	H	0.044761	1.030996	0.941393
	H308	H	0.042593	1.031257	0.942281
	O309	O	0.505980	0.490587	0.548220
	H310	H	0.508340	0.490574	0.548934
	H311	H	0.514904	0.484160	0.551403
