data_Molecule from HDF5

_cell_length_a		16.459619
_cell_length_b		16.479590
_cell_length_c		16.233651
_cell_angle_alpha	89.970374
_cell_angle_beta	89.776276
_cell_angle_gamma	89.892290
_symmetry_space_group_name_H-M	'P 1'
_symmetry_Int_Tables_number		1

loop_
	_symmetry_equiv_pos_as_xyz
	x,y,z

loop_
	_atom_site_label
	_atom_site_type_symbol
	_atom_site_fract_x
	_atom_site_fract_y
	_atom_site_fract_z
	H0	H	0.385293	0.844146	0.720444
	H1	H	0.598919	0.158487	0.718636
	H2	H	0.598212	0.842659	0.272874
	H3	H	0.389520	0.159880	0.275228
	H4	H	0.715519	0.394858	0.835071
	H5	H	0.713650	0.608178	0.153036
	H6	H	0.269262	0.610851	0.835144
	H7	H	0.270212	0.396374	0.153794
	H8	H	0.835193	0.727331	0.384366
	H9	H	0.149557	0.726412	0.601395
	H10	H	0.837902	0.272498	0.610067
	H11	H	0.147373	0.276126	0.383357
	H12	H	0.835338	0.394223	0.720237
	H13	H	0.151990	0.606273	0.713416
	H14	H	0.832189	0.605743	0.274746
	H15	H	0.149903	0.398876	0.272943
	H16	H	0.383662	0.726311	0.836106
	H17	H	0.599118	0.723183	0.153275
	H18	H	0.602859	0.277682	0.836492
	H19	H	0.386175	0.281909	0.154956
	H20	H	0.717360	0.844141	0.384890
	H21	H	0.719389	0.155843	0.606077
	H22	H	0.266727	0.844824	0.606382
	H23	H	0.267617	0.156664	0.384890
	H24	H	0.887249	0.343332	0.216126
	H25	H	0.092479	0.661058	0.211699
	H26	H	0.097428	0.342819	0.772346
	H27	H	0.889173	0.661319	0.774389
	H28	H	0.214855	0.896382	0.335027
	H29	H	0.213909	0.108912	0.654604
	H30	H	0.771163	0.107467	0.334862
	H31	H	0.769898	0.893935	0.653529
	H32	H	0.335313	0.226383	0.888046
	H33	H	0.650245	0.224656	0.103073
	H34	H	0.334858	0.778477	0.104047
	H35	H	0.648458	0.776285	0.885196
	H36	H	0.332801	0.900958	0.213928
	H37	H	0.652481	0.102275	0.212449
	H38	H	0.333042	0.106567	0.775716
	H39	H	0.651015	0.896376	0.773521
	H40	H	0.885269	0.223651	0.335493
	H41	H	0.098819	0.224524	0.653699
	H42	H	0.097991	0.783148	0.333093
	H43	H	0.884277	0.778668	0.652526
	H44	H	0.217365	0.344449	0.884748
	H45	H	0.213664	0.658984	0.101016
	H46	H	0.767975	0.344394	0.102525
	H47	H	0.767582	0.658590	0.886202
	H48	H	0.407449	0.113538	0.587086
	H49	H	0.583452	0.888209	0.581305
	H50	H	0.581733	0.115069	0.401141
	H51	H	0.407778	0.888071	0.402225
	H52	H	0.581431	0.415438	0.108463
	H53	H	0.572710	0.592130	0.881279
	H54	H	0.397439	0.589881	0.111119
	H55	H	0.404172	0.420386	0.881477
	H56	H	0.104577	0.593721	0.406342
	H57	H	0.879377	0.595985	0.580844
	H58	H	0.105506	0.410005	0.580617
	H59	H	0.875315	0.406655	0.403531
	H60	H	0.101560	0.413409	0.575769
	H61	H	0.882485	0.588458	0.578195
	H62	H	0.104641	0.590441	0.401474
	H63	H	0.880989	0.411340	0.415903
	H64	H	0.404461	0.584482	0.105659
	H65	H	0.584276	0.590870	0.876955
	H66	H	0.577604	0.414396	0.107616
	H67	H	0.411429	0.411624	0.881487
	H68	H	0.578643	0.111079	0.409196
	H69	H	0.579623	0.889375	0.584495
	H70	H	0.403287	0.111358	0.577483
	H71	H	0.404478	0.890296	0.412574
	H72	H	0.889312	0.619271	0.086514
	H73	H	0.084504	0.388446	0.079820
	H74	H	0.082472	0.620434	0.888086
	H75	H	0.913031	0.390188	0.900333
	H76	H	0.076496	0.917175	0.606193
	H77	H	0.080675	0.089937	0.380344
	H78	H	0.907672	0.090663	0.607909
	H79	H	0.896485	0.914314	0.377049
	H80	H	0.603377	0.087843	0.910942
	H81	H	0.377450	0.093434	0.088844
	H82	H	0.607769	0.908465	0.086252
	H83	H	0.380007	0.914980	0.909952
	H84	H	0.605361	0.908229	0.078038
	H85	H	0.378920	0.096743	0.081085
	H86	H	0.605482	0.088683	0.904421
	H87	H	0.379785	0.913525	0.908699
	H88	H	0.902282	0.086563	0.609034
	H89	H	0.081473	0.086770	0.381254
	H90	H	0.077627	0.909294	0.609436
	H91	H	0.908235	0.921913	0.383906
	H92	H	0.067764	0.606674	0.912253
	H93	H	0.081422	0.387793	0.083702
	H94	H	0.910155	0.614960	0.090356
	H95	H	0.907060	0.394990	0.919261
	H96	H	0.397228	0.115016	0.585108
	H97	H	0.578678	0.890630	0.579530
	H98	H	0.587203	0.114201	0.408637
	H99	H	0.397196	0.885581	0.405424
	H100	H	0.580316	0.412139	0.109802
	H101	H	0.578821	0.581230	0.882437
	H102	H	0.406632	0.594371	0.109045
	H103	H	0.401103	0.410240	0.877237
	H104	H	0.107386	0.595473	0.401643
	H105	H	0.879368	0.589114	0.585931
	H106	H	0.102899	0.416408	0.581449
	H107	H	0.881288	0.419523	0.403823
	H108	H	0.901653	0.610651	0.070995
	H109	H	0.080166	0.389592	0.079803
	H110	H	0.097222	0.615781	0.915402
	H111	H	0.894127	0.386137	0.906239
	H112	H	0.083466	0.914892	0.609607
	H113	H	0.078200	0.088230	0.381801
	H114	H	0.907557	0.084706	0.606011
	H115	H	0.909795	0.906942	0.379467
	H116	H	0.604910	0.094613	0.908458
	H117	H	0.380728	0.088588	0.082617
	H118	H	0.604788	0.915202	0.082859
	H119	H	0.380343	0.912899	0.909777
	C120	C	0.370066	0.009378	0.616970
	C121	C	0.614007	0.992752	0.616123
	C122	C	0.614880	0.009079	0.373164
	C123	C	0.371181	0.992548	0.373661
	C124	C	0.613862	0.380352	0.003541
	C125	C	0.611818	0.621260	0.985441
	C126	C	0.370172	0.623234	0.003238
	C127	C	0.372092	0.381077	0.985708
	C128	C	0.000504	0.624755	0.371429
	C129	C	0.984477	0.624042	0.614680
	C130	C	0.000513	0.379498	0.615723
	C131	C	0.982892	0.379734	0.373221
	C132	C	0.868523	0.510485	0.116326
	C133	C	0.112765	0.493459	0.113853
	C134	C	0.115785	0.510118	0.871488
	C135	C	0.871599	0.494245	0.874184
	C136	C	0.112975	0.880977	0.502798
	C137	C	0.113397	0.122290	0.486134
	C138	C	0.871897	0.121754	0.502939
	C139	C	0.871290	0.880482	0.485275
	C140	C	0.501024	0.123924	0.874014
	C141	C	0.484008	0.124140	0.116861
	C142	C	0.501090	0.879189	0.116122
	C143	C	0.483744	0.880148	0.874587
	C144	C	0.367296	0.891238	0.679302
	C145	C	0.617643	0.110707	0.678782
	C146	C	0.616748	0.890276	0.312611
	C147	C	0.369686	0.111461	0.313515
	C148	C	0.675615	0.376729	0.883323
	C149	C	0.673259	0.625416	0.105291
	C150	C	0.309352	0.627572	0.883337
	C151	C	0.310835	0.378500	0.106178
	C152	C	0.882174	0.686017	0.367775
	C153	C	0.102457	0.685864	0.618810
	C154	C	0.883953	0.315415	0.624392
	C155	C	0.100700	0.317765	0.367184
	C156	C	0.882691	0.376006	0.679543
	C157	C	0.103594	0.625877	0.674710
	C158	C	0.880633	0.625464	0.312818
	C159	C	0.102063	0.378615	0.312001
	C160	C	0.366358	0.685452	0.883656
	C161	C	0.616140	0.682700	0.105421
	C162	C	0.618846	0.318707	0.883884
	C163	C	0.368596	0.321505	0.106586
	C164	C	0.676168	0.890957	0.368729
	C165	C	0.677228	0.109743	0.622069
	C166	C	0.308159	0.891689	0.622502
	C167	C	0.309412	0.110152	0.368973
	C168	C	0.867779	0.391125	0.176851
	C169	C	0.112458	0.613028	0.172846
	C170	C	0.117139	0.390878	0.811124
	C171	C	0.869710	0.613250	0.813633
	C172	C	0.174147	0.878721	0.382501
	C173	C	0.174008	0.126429	0.606379
	C174	C	0.811088	0.125203	0.382948
	C175	C	0.809887	0.876261	0.605287
	C176	C	0.382555	0.185680	0.870084
	C177	C	0.603110	0.183834	0.119865
	C178	C	0.381906	0.819746	0.120137
	C179	C	0.601677	0.817512	0.868662
	C180	C	0.381077	0.880016	0.175647
	C181	C	0.604194	0.123215	0.174847
	C182	C	0.381364	0.126089	0.814129
	C183	C	0.602959	0.877587	0.813189
	C184	C	0.868028	0.183077	0.383192
	C185	C	0.116455	0.183832	0.605937
	C186	C	0.116004	0.822221	0.381790
	C187	C	0.867165	0.818974	0.604928
	C188	C	0.176885	0.391727	0.867203
	C189	C	0.172895	0.612185	0.117525
	C190	C	0.808505	0.391510	0.120202
	C191	C	0.809227	0.611978	0.869360
	C192	C	0.395448	0.091659	0.590578
	C193	C	0.587838	0.910820	0.589400
	C194	C	0.589671	0.091821	0.399059
	C195	C	0.396247	0.909592	0.399240
	C196	C	0.587428	0.406550	0.086663
	C197	C	0.585963	0.595535	0.902080
	C198	C	0.395692	0.597027	0.086722
	C199	C	0.398043	0.406617	0.901965
	C200	C	0.083674	0.600147	0.395901
	C201	C	0.902058	0.598649	0.588870
	C202	C	0.082022	0.405843	0.587282
	C203	C	0.900748	0.405070	0.399928
	C204	C	0.893231	0.593139	0.090324
	C205	C	0.088758	0.410251	0.088399
	C206	C	0.090029	0.592791	0.897598
	C207	C	0.897354	0.411994	0.900952
	C208	C	0.086873	0.906390	0.586649
	C209	C	0.087561	0.096103	0.402846
	C210	C	0.898252	0.095103	0.586137
	C211	C	0.897353	0.906849	0.401725
	C212	C	0.582923	0.097959	0.900342
	C213	C	0.400757	0.099930	0.091386
	C214	C	0.584275	0.903520	0.090007
	C215	C	0.401595	0.906178	0.901653
	Zn216	Zn	0.491759	0.001507	0.745794
	Zn217	Zn	0.493370	0.001060	0.244163
	Zn218	Zn	0.740679	0.501701	-0.005653
	Zn219	Zn	0.243348	0.501229	-0.005547
	Zn220	Zn	-0.007894	0.753233	0.493337
	Zn221	Zn	-0.008060	0.250402	0.494585
	Zn222	Zn	-0.007428	0.502159	0.743753
	Zn223	Zn	-0.008385	0.501909	0.243747
	Zn224	Zn	0.492050	0.750113	-0.004957
	Zn225	Zn	0.492660	0.252959	-0.004443
	Zn226	Zn	0.743679	0.000653	0.494217
	Zn227	Zn	0.241349	0.001050	0.495219
	N228	N	0.405014	0.965459	0.676146
	N229	N	0.578897	0.037002	0.675072
	N230	N	0.579184	0.964764	0.315246
	N231	N	0.407523	0.037031	0.316196
	N232	N	0.672512	0.414411	0.958700
	N233	N	0.670780	0.587752	0.029838
	N234	N	0.311709	0.589456	0.958671
	N235	N	0.312859	0.414843	0.030056
	N236	N	0.957878	0.685813	0.403445
	N237	N	0.027238	0.684963	0.582234
	N238	N	0.958104	0.317554	0.585159
	N239	N	0.025607	0.318291	0.404342
	N240	N	0.956117	0.415175	0.674166
	N241	N	0.029405	0.588045	0.672240
	N242	N	0.955234	0.588107	0.314848
	N243	N	0.027881	0.416525	0.315507
	N244	N	0.403399	0.682827	0.959285
	N245	N	0.578519	0.680216	0.029967
	N246	N	0.581380	0.320637	0.959670
	N247	N	0.406008	0.323029	0.030668
	N248	N	0.675129	0.965950	0.405681
	N249	N	0.675123	0.035500	0.583791
	N250	N	0.309855	0.966191	0.584452
	N251	N	0.310153	0.035090	0.405575
	N252	N	0.903949	0.466285	0.174883
	N253	N	0.075715	0.538235	0.170677
	N254	N	0.080101	0.465731	0.813614
	N255	N	0.907721	0.538999	0.816455
	N256	N	0.172834	0.914049	0.459191
	N257	N	0.172447	0.088912	0.530859
	N258	N	0.813113	0.088023	0.458724
	N259	N	0.812579	0.913875	0.529728
	N260	N	0.457941	0.184877	0.906268
	N261	N	0.527086	0.184890	0.084988
	N262	N	0.457801	0.818762	0.084428
	N263	N	0.526570	0.818992	0.906124
	N264	N	0.456219	0.916201	0.173149
	N265	N	0.529109	0.086951	0.173064
	N266	N	0.455921	0.088482	0.816124
	N267	N	0.528549	0.915630	0.816490
	N268	N	0.904787	0.181212	0.459034
	N269	N	0.079682	0.181612	0.530064
	N270	N	0.078844	0.823453	0.457719
	N271	N	0.904413	0.821411	0.529108
	N272	N	0.176477	0.467096	0.903511
	N273	N	0.173071	0.536684	0.081547
	N274	N	0.808795	0.466576	0.083379
	N275	N	0.810373	0.536834	0.906156
	O276	O	0.462939	0.299689	0.695558
	H277	H	0.475857	0.307215	0.696275
	H278	H	0.465878	0.287658	0.720482
	O279	O	0.457455	0.688728	0.534918
	H280	H	0.480328	0.693988	0.551772
	H281	H	0.470099	0.663804	0.525375
	O282	O	0.666564	0.709650	0.497318
	H283	H	0.654886	0.712665	0.483197
	H284	H	0.682115	0.714347	0.481121
	O285	O	1.095862	0.964021	-0.201887
	H286	H	1.090757	0.982256	-0.188517
	H287	H	1.109837	0.980414	-0.207940
	O288	O	0.300359	0.487361	0.705555
	H289	H	0.297481	0.491153	0.727705
	H290	H	0.304434	0.500542	0.718273
	O291	O	0.415040	0.634466	0.425106
	H292	H	0.421509	0.629351	0.426203
	H293	H	0.417316	0.643430	0.420753
	O294	O	0.881572	0.885580	1.096890
	H295	H	0.884195	0.906665	1.092966
	H296	H	0.885762	0.891031	1.090337
	O297	O	0.713549	0.495869	0.500757
	H298	H	0.704905	0.480616	0.498689
	H299	H	0.713610	0.486442	0.507500
	O300	O	1.195448	-0.073583	1.014435
	H301	H	1.183008	-0.082345	1.021980
	H302	H	1.193811	-0.086044	1.015578
	O303	O	0.509387	0.473291	0.702056
	H304	H	0.524881	0.467943	0.688819
	H305	H	0.503817	0.484877	0.683117
	O306	O	-0.086216	0.116561	0.800606
	H307	H	-0.097267	0.116446	0.783830
	H308	H	-0.079047	0.113644	0.811934
	O309	O	1.004928	0.023088	0.162650
	H310	H	1.004215	0.014505	0.155663
	H311	H	1.001625	0.028125	0.155929
	O312	O	0.481243	0.388856	0.288126
	H313	H	0.468328	0.375694	0.283487
	H314	H	0.458321	0.382979	0.295785
	O315	O	0.539411	0.402732	0.512878
	H316	H	0.543687	0.404783	0.497395
	H317	H	0.535485	0.387389	0.490075
	O318	O	0.179081	-0.138175	-0.101504
	H319	H	0.185101	-0.114029	-0.094492
	H320	H	0.136117	-0.151988	-0.109184
	O321	O	0.642539	0.403710	0.628547
	H322	H	0.640603	0.385924	0.619410
	H323	H	0.633626	0.399294	0.611861
	O324	O	1.111326	0.159610	0.966070
	H325	H	1.118354	0.157621	0.970687
	H326	H	1.126813	0.165127	0.966082
	O327	O	0.502544	0.589577	0.359702
	H328	H	0.488879	0.572705	0.354884
	H329	H	0.488552	0.585194	0.357558
	O330	O	0.004733	1.072094	0.933632
	H331	H	0.018344	1.065902	0.921988
	H332	H	0.009905	1.068327	0.958319
	O333	O	-0.204437	1.175431	-0.124644
	H334	H	-0.218178	1.190869	-0.115317
	H335	H	-0.173284	1.183236	-0.147888
	O336	O	0.858561	0.939811	-0.157712
	H337	H	0.867333	0.947543	-0.139132
	H338	H	0.852162	0.948095	-0.160459
	O339	O	0.032837	0.927048	0.789823
	H340	H	0.035714	0.905158	0.783303
	H341	H	0.018781	0.934386	0.786059
	O342	O	0.306901	0.675558	0.308898
	H343	H	0.296445	0.668579	0.340971
	H344	H	0.309955	0.688186	0.313163
	O345	O	-0.102574	0.044118	1.109208
	H346	H	-0.108578	0.047775	1.103094
	H347	H	-0.098744	0.051855	1.102963
	O348	O	0.276156	0.283925	0.517344
	H349	H	0.284698	0.296226	0.555220
	H350	H	0.245202	0.255949	0.530939
	O351	O	1.061820	1.128892	0.014818
	H352	H	1.067787	1.100330	0.023421
	H353	H	1.039143	1.143219	0.025900
	O354	O	0.984382	0.861861	1.144996
	H355	H	0.963158	0.842064	1.156156
	H356	H	0.970832	0.860804	1.139192
	O357	O	0.192464	0.131977	0.033262
	H358	H	0.203535	0.134406	0.051321
	H359	H	0.193963	0.129519	0.031657
	O360	O	0.301510	0.517592	0.394779
	H361	H	0.285251	0.538212	0.394224
	H362	H	0.304862	0.528664	0.394076
	O363	O	0.706696	-0.716824	-0.523185
	H364	H	0.715151	-0.725541	-0.547004
	H365	H	0.725891	-0.717904	-0.527635
	O366	O	0.027022	-0.016026	1.064358
	H367	H	0.020580	-0.010423	1.068155
	H368	H	0.035428	-0.035793	1.058431
	O369	O	1.144496	-0.166990	1.041526
	H370	H	1.144414	-0.184632	1.031349
	H371	H	1.133845	-0.172940	1.023015
	O372	O	0.438679	0.547077	0.615880
	H373	H	0.439071	0.537223	0.617355
	H374	H	0.446436	0.561172	0.605485
	O375	O	0.700101	0.525734	1.704934
	H376	H	0.707927	0.515858	1.705104
	H377	H	0.706783	0.530269	1.713975
	O378	O	0.353874	0.321055	0.382449
	H379	H	0.377248	0.321163	0.402324
	H380	H	0.327744	0.327079	0.402887
	O381	O	-0.183580	1.198965	-0.112669
	H382	H	-0.185420	1.189805	-0.120922
	H383	H	-0.177279	1.209666	-0.102830
	O384	O	0.496956	0.676319	0.284858
	H385	H	0.476426	0.677427	0.272730
	H386	H	0.484531	0.674535	0.285170
	O387	O	0.503359	0.474947	0.507774
	H388	H	0.495225	0.479190	0.506238
	H389	H	0.498532	0.462245	0.492149
	O390	O	0.651702	0.576164	0.359289
	H391	H	0.621888	0.583544	0.358942
	H392	H	0.649654	0.581596	0.382673
	O393	O	0.930495	-0.118986	0.976158
	H394	H	0.922647	-0.119256	0.998359
	H395	H	0.933027	-0.105327	0.969592
	O396	O	0.670456	0.319502	0.317885
	H397	H	0.680495	0.367758	0.307947
	H398	H	0.641003	0.309769	0.324510
	O399	O	0.977478	1.001351	0.155556
	H400	H	0.987855	0.993710	0.152705
	H401	H	0.977702	1.015035	0.154148
	O402	O	0.861940	0.833298	-0.072693
	H403	H	0.853861	0.824479	-0.082448
	H404	H	0.855705	0.843873	-0.060000
	O405	O	0.507794	0.708934	0.703182
	H406	H	0.525094	0.720106	0.710940
	H407	H	0.516048	0.704782	0.718095
	O408	O	0.413780	0.387906	0.300254
	H409	H	0.422765	0.382740	0.302971
	H410	H	0.409045	0.379969	0.296847
	O411	O	1.015844	1.201992	1.185612
	H412	H	1.026429	1.196869	1.181051
	H413	H	1.022225	1.225985	1.202158
	O414	O	0.330375	0.720587	0.494065
	H415	H	0.335146	0.724627	0.498703
	H416	H	0.345970	0.733290	0.512283
	O417	O	-0.115701	0.810754	0.997188
	H418	H	-0.122867	0.806153	0.968861
	H419	H	-0.119735	0.818428	0.990714
	O420	O	-0.063772	0.996080	0.939094
	H421	H	-0.071579	1.008591	0.944333
	H422	H	-0.050697	0.989541	0.937870
	O423	O	0.072147	1.081001	0.157391
	H424	H	0.080034	1.079806	0.165633
	H425	H	0.091446	1.067875	0.164173
	O426	O	0.309787	0.342004	0.672021
	H427	H	0.349588	0.334913	0.683691
	H428	H	0.297046	0.388440	0.679745
	O429	O	0.671916	0.685310	0.676322
	H430	H	0.665341	0.691033	0.642967
	H431	H	0.679934	0.660229	0.666958
	O432	O	0.701346	0.477412	0.288688
	H433	H	0.720523	0.493556	0.284457
	H434	H	0.694466	0.487946	0.275762
	O435	O	0.489562	-0.719429	0.491332
	H436	H	0.474108	-0.723697	0.508306
	H437	H	0.512106	-0.727624	0.477225
	O438	O	-0.122730	1.018335	1.052088
	H439	H	-0.132386	1.040536	1.050598
	H440	H	-0.116823	1.025892	1.048040
	O441	O	0.274510	0.579802	0.495783
	H442	H	0.257708	0.598585	0.496995
	H443	H	0.294267	0.586931	0.514202
