data_Molecule from HDF5

_cell_length_a		16.249491
_cell_length_b		16.148763
_cell_length_c		16.403776
_cell_angle_alpha	90.136417
_cell_angle_beta	89.985158
_cell_angle_gamma	90.107030
_symmetry_space_group_name_H-M	'P 1'
_symmetry_Int_Tables_number		1

loop_
	_symmetry_equiv_pos_as_xyz
	x,y,z

loop_
	_atom_site_label
	_atom_site_type_symbol
	_atom_site_fract_x
	_atom_site_fract_y
	_atom_site_fract_z
	H0	H	0.399651	0.830835	0.713165
	H1	H	0.598858	0.160408	0.712462
	H2	H	0.599291	0.830548	0.283163
	H3	H	0.401296	0.159725	0.285064
	H4	H	0.715872	0.395182	0.836230
	H5	H	0.714718	0.593255	0.161718
	H6	H	0.285491	0.593042	0.835915
	H7	H	0.286017	0.397281	0.161906
	H8	H	0.835335	0.706353	0.403238
	H9	H	0.164919	0.708778	0.594932
	H10	H	0.834750	0.284167	0.593220
	H11	H	0.165372	0.283889	0.402963
	H12	H	0.837256	0.395153	0.715045
	H13	H	0.164481	0.594444	0.712802
	H14	H	0.837482	0.596130	0.282078
	H15	H	0.163598	0.395229	0.282852
	H16	H	0.404533	0.708036	0.835155
	H17	H	0.597361	0.708658	0.162028
	H18	H	0.597744	0.279416	0.836071
	H19	H	0.404391	0.281821	0.162177
	H20	H	0.710922	0.829371	0.402204
	H21	H	0.712916	0.160443	0.595340
	H22	H	0.287360	0.829575	0.594053
	H23	H	0.288990	0.161058	0.403153
	H24	H	0.902263	0.330768	0.211871
	H25	H	0.099599	0.659627	0.212999
	H26	H	0.100351	0.331072	0.783394
	H27	H	0.902246	0.660322	0.786319
	H28	H	0.214690	0.895949	0.334664
	H29	H	0.215127	0.094594	0.660886
	H30	H	0.784748	0.092960	0.335099
	H31	H	0.783391	0.895662	0.660023
	H32	H	0.335585	0.206840	0.903503
	H33	H	0.665624	0.206003	0.093767
	H34	H	0.335654	0.782988	0.093435
	H35	H	0.665978	0.784624	0.903255
	H36	H	0.336370	0.895090	0.212990
	H37	H	0.663175	0.096246	0.215115
	H38	H	0.337012	0.095975	0.782824
	H39	H	0.662482	0.894519	0.781359
	H40	H	0.903972	0.207618	0.334283
	H41	H	0.096819	0.209361	0.661386
	H42	H	0.096618	0.780367	0.335024
	H43	H	0.901724	0.781578	0.661074
	H44	H	0.212701	0.329795	0.901456
	H45	H	0.213864	0.659945	0.096756
	H46	H	0.788344	0.329828	0.096128
	H47	H	0.788007	0.659990	0.902414
	H48	H	0.402065	0.114447	0.592901
	H49	H	0.595982	0.876757	0.592422
	H50	H	0.591781	0.113131	0.403029
	H51	H	0.406669	0.877544	0.405375
	H52	H	0.588548	0.405897	0.111624
	H53	H	0.592300	0.581779	0.885885
	H54	H	0.404586	0.586295	0.113792
	H55	H	0.406133	0.397306	0.882569
	H56	H	0.116222	0.584833	0.404895
	H57	H	0.879540	0.592753	0.600874
	H58	H	0.114959	0.400702	0.583415
	H59	H	0.886059	0.416450	0.400464
	H60	H	0.115873	0.411964	0.596093
	H61	H	0.884574	0.591672	0.585647
	H62	H	0.117452	0.588143	0.402729
	H63	H	0.877694	0.393548	0.394075
	H64	H	0.410122	0.587943	0.113453
	H65	H	0.591904	0.595485	0.881394
	H66	H	0.594193	0.391624	0.117113
	H67	H	0.403351	0.401812	0.882612
	H68	H	0.591091	0.112016	0.406758
	H69	H	0.588227	0.876897	0.595128
	H70	H	0.411867	0.112916	0.596352
	H71	H	0.405192	0.876087	0.403529
	H72	H	0.903240	0.613580	0.090232
	H73	H	0.095107	0.378333	0.084443
	H74	H	0.087019	0.612218	0.904300
	H75	H	0.905806	0.375762	0.901854
	H76	H	0.093110	0.896507	0.614959
	H77	H	0.098630	0.091483	0.380193
	H78	H	0.905039	0.086764	0.612983
	H79	H	0.901838	0.904023	0.381902
	H80	H	0.619146	0.093732	0.905495
	H81	H	0.383295	0.089380	0.090622
	H82	H	0.618423	0.896937	0.091002
	H83	H	0.386812	0.904600	0.914525
	H84	H	0.615230	0.906923	0.089602
	H85	H	0.384807	0.084215	0.091548
	H86	H	0.614030	0.082269	0.909955
	H87	H	0.384058	0.909402	0.897308
	H88	H	0.906594	0.090310	0.613359
	H89	H	0.096149	0.084606	0.382920
	H90	H	0.098949	0.906228	0.613637
	H91	H	0.909533	0.901383	0.383289
	H92	H	0.097131	0.612121	0.912459
	H93	H	0.097719	0.374420	0.097420
	H94	H	0.908551	0.615116	0.096909
	H95	H	0.913025	0.378178	0.904652
	H96	H	0.409494	0.110659	0.586615
	H97	H	0.590545	0.879461	0.587376
	H98	H	0.594231	0.112846	0.405697
	H99	H	0.407894	0.876894	0.402878
	H100	H	0.604144	0.404166	0.116232
	H101	H	0.603979	0.587967	0.880547
	H102	H	0.406138	0.592129	0.115956
	H103	H	0.408594	0.401788	0.884078
	H104	H	0.117117	0.589030	0.406523
	H105	H	0.885018	0.579290	0.595729
	H106	H	0.120848	0.395959	0.597924
	H107	H	0.885827	0.397973	0.417494
	H108	H	0.911978	0.611513	0.090134
	H109	H	0.085017	0.379089	0.093500
	H110	H	0.098858	0.615346	0.900302
	H111	H	0.906407	0.378366	0.909593
	H112	H	0.088912	0.905457	0.610256
	H113	H	0.091539	0.091038	0.382627
	H114	H	0.903454	0.089243	0.614397
	H115	H	0.903727	0.896259	0.380468
	H116	H	0.618162	0.083049	0.897341
	H117	H	0.382387	0.087586	0.095768
	H118	H	0.618701	0.903737	0.098797
	H119	H	0.380176	0.892405	0.902920
	C120	C	0.378898	0.003492	0.619777
	C121	C	0.620727	0.986789	0.619947
	C122	C	0.620572	0.003501	0.376892
	C123	C	0.378582	0.986328	0.376639
	C124	C	0.623192	0.372227	0.007182
	C125	C	0.623238	0.616795	0.990497
	C126	C	0.378799	0.617130	0.006814
	C127	C	0.378329	0.372380	0.990801
	C128	C	0.008750	0.615940	0.377180
	C129	C	0.991663	0.617160	0.621336
	C130	C	0.008471	0.374140	0.620225
	C131	C	0.991929	0.374065	0.376604
	C132	C	0.879752	0.503969	0.120244
	C133	C	0.121821	0.486179	0.120383
	C134	C	0.121771	0.503889	0.877619
	C135	C	0.880120	0.486659	0.877811
	C136	C	0.121765	0.873476	0.505792
	C137	C	0.122844	0.117414	0.489787
	C138	C	0.877437	0.117137	0.506000
	C139	C	0.877223	0.872656	0.489444
	C140	C	0.508514	0.115563	0.876866
	C141	C	0.492000	0.116223	0.120692
	C142	C	0.508984	0.874106	0.120328
	C143	C	0.491836	0.873905	0.877313
	C144	C	0.380383	0.879568	0.674503
	C145	C	0.618644	0.111118	0.674488
	C146	C	0.618637	0.879543	0.321690
	C147	C	0.381085	0.110643	0.322664
	C148	C	0.677905	0.374837	0.884777
	C149	C	0.676706	0.613576	0.113219
	C150	C	0.323830	0.613641	0.884367
	C151	C	0.323944	0.376080	0.113320
	C152	C	0.884568	0.669550	0.381584
	C153	C	0.115681	0.671643	0.616505
	C154	C	0.884332	0.320524	0.615460
	C155	C	0.115835	0.320199	0.380854
	C156	C	0.885578	0.375507	0.675918
	C157	C	0.115520	0.615193	0.675393
	C158	C	0.885674	0.614910	0.321335
	C159	C	0.115016	0.375668	0.321272
	C160	C	0.382576	0.670990	0.884018
	C161	C	0.618465	0.670930	0.113452
	C162	C	0.618955	0.317681	0.884441
	C163	C	0.382589	0.318764	0.113484
	C164	C	0.674453	0.879064	0.380528
	C165	C	0.675368	0.111282	0.616440
	C166	C	0.324038	0.879125	0.616002
	C167	C	0.325226	0.111234	0.381261
	C168	C	0.881420	0.380046	0.174846
	C169	C	0.119726	0.610406	0.175097
	C170	C	0.120035	0.379863	0.821833
	C171	C	0.882301	0.610905	0.823794
	C172	C	0.176516	0.875798	0.383178
	C173	C	0.177406	0.115092	0.612387
	C174	C	0.822420	0.114125	0.383505
	C175	C	0.821930	0.875643	0.611827
	C176	C	0.384942	0.169933	0.881347
	C177	C	0.615872	0.170231	0.116475
	C178	C	0.384888	0.819604	0.115848
	C179	C	0.616392	0.820606	0.881370
	C180	C	0.385268	0.875567	0.174738
	C181	C	0.614760	0.115232	0.176187
	C182	C	0.385526	0.114726	0.821635
	C183	C	0.614560	0.874993	0.820786
	C184	C	0.882421	0.170272	0.382864
	C185	C	0.118537	0.172012	0.612547
	C186	C	0.118128	0.818010	0.383452
	C187	C	0.880488	0.818623	0.612254
	C188	C	0.175993	0.379242	0.880432
	C189	C	0.176345	0.610674	0.117254
	C190	C	0.825392	0.379479	0.116752
	C191	C	0.825552	0.610829	0.881611
	C192	C	0.401090	0.090257	0.598268
	C193	C	0.598257	0.900079	0.598050
	C194	C	0.598728	0.090398	0.398808
	C195	C	0.400332	0.899272	0.397708
	C196	C	0.601914	0.394018	0.092945
	C197	C	0.602189	0.595020	0.904768
	C198	C	0.400475	0.595282	0.092338
	C199	C	0.399798	0.393706	0.905160
	C200	C	0.094749	0.593831	0.398587
	C201	C	0.905345	0.594666	0.600372
	C202	C	0.094814	0.396485	0.598856
	C203	C	0.905549	0.396058	0.397892
	C204	C	0.901410	0.590948	0.098790
	C205	C	0.099325	0.399583	0.098219
	C206	C	0.100594	0.590659	0.899100
	C207	C	0.901860	0.399718	0.899170
	C208	C	0.099973	0.896135	0.590951
	C209	C	0.101755	0.095540	0.403960
	C210	C	0.898658	0.095320	0.591450
	C211	C	0.898574	0.894166	0.403982
	C212	C	0.594734	0.093005	0.898145
	C213	C	0.405576	0.093671	0.098988
	C214	C	0.595183	0.895889	0.099194
	C215	C	0.405939	0.895682	0.898692
	Zn216	Zn	0.499664	-0.004955	0.748293
	Zn217	Zn	0.499987	-0.004756	0.248924
	Zn218	Zn	0.752387	0.494745	-0.000908
	Zn219	Zn	0.249452	0.494855	-0.000804
	Zn220	Zn	-0.000201	0.744164	0.498297
	Zn221	Zn	0.000104	0.245706	0.497979
	Zn222	Zn	0.000686	0.495364	0.749637
	Zn223	Zn	0.000502	0.495379	0.247894
	Zn224	Zn	0.501425	0.745804	-0.001472
	Zn225	Zn	0.500667	0.243374	-0.001364
	Zn226	Zn	0.748437	-0.005152	0.498033
	Zn227	Zn	0.251376	-0.004628	0.498021
	N228	N	0.413468	0.958055	0.677114
	N229	N	0.585279	0.032758	0.676648
	N230	N	0.586016	0.958111	0.319394
	N231	N	0.413384	0.031934	0.319626
	N232	N	0.680362	0.408262	0.962156
	N233	N	0.679767	0.580731	0.035913
	N234	N	0.321461	0.580885	0.961788
	N235	N	0.321324	0.408676	0.036022
	N236	N	0.961897	0.670127	0.415578
	N237	N	0.037617	0.672963	0.583754
	N238	N	0.961900	0.319332	0.581760
	N239	N	0.038307	0.319109	0.414390
	N240	N	0.963741	0.408289	0.678758
	N241	N	0.037489	0.582100	0.678583
	N242	N	0.963853	0.582274	0.318415
	N243	N	0.036894	0.408581	0.318585
	N244	N	0.416228	0.673100	0.960929
	N245	N	0.586002	0.673165	0.035864
	N246	N	0.585576	0.316207	0.961394
	N247	N	0.415777	0.316448	0.036253
	N248	N	0.675695	0.957087	0.414194
	N249	N	0.676846	0.033013	0.583121
	N250	N	0.323130	0.957146	0.582597
	N251	N	0.323578	0.032925	0.414056
	N252	N	0.914654	0.458364	0.176942
	N253	N	0.086376	0.531973	0.176975
	N254	N	0.086979	0.458326	0.820112
	N255	N	0.915588	0.532643	0.821330
	N256	N	0.178894	0.909555	0.460260
	N257	N	0.180143	0.081893	0.534983
	N258	N	0.819566	0.081412	0.460915
	N259	N	0.819733	0.908692	0.534610
	N260	N	0.462511	0.170621	0.914945
	N261	N	0.538521	0.170751	0.082567
	N262	N	0.462704	0.818471	0.082505
	N263	N	0.539043	0.819610	0.915634
	N264	N	0.463243	0.908793	0.177727
	N265	N	0.536525	0.082390	0.178787
	N266	N	0.463433	0.081551	0.819044
	N267	N	0.536536	0.907502	0.818204
	N268	N	0.915634	0.172366	0.459926
	N269	N	0.085255	0.173382	0.535505
	N270	N	0.084802	0.816568	0.460528
	N271	N	0.914069	0.816675	0.535282
	N272	N	0.177161	0.457108	0.914610
	N273	N	0.177917	0.532344	0.084105
	N274	N	0.824191	0.457639	0.083450
	N275	N	0.824333	0.532546	0.914556
	O276	O	1.051126	-0.028110	0.904551
	H277	H	1.053798	-0.035666	0.906455
	H278	H	1.049743	-0.029654	0.899228
	O279	O	0.167556	0.897045	0.772044
	H280	H	0.170431	0.899202	0.760886
	H281	H	0.173401	0.897847	0.781175
	O282	O	1.085571	0.971178	-0.090186
	H283	H	1.081900	0.971434	-0.093713
	H284	H	1.091731	0.971020	-0.089391
	O285	O	0.160431	0.863020	0.782000
	H286	H	0.157550	0.872918	0.781642
	H287	H	0.157254	0.868433	0.777774
