data_Molecule from HDF5

_cell_length_a		16.366818
_cell_length_b		15.989956
_cell_length_c		16.303899
_cell_angle_alpha	89.996613
_cell_angle_beta	90.521832
_cell_angle_gamma	90.014431
_symmetry_space_group_name_H-M	'P 1'
_symmetry_Int_Tables_number		1

loop_
	_symmetry_equiv_pos_as_xyz
	x,y,z

loop_
	_atom_site_label
	_atom_site_type_symbol
	_atom_site_fract_x
	_atom_site_fract_y
	_atom_site_fract_z
	H0	H	0.404204	0.842680	0.712231
	H1	H	0.603103	0.174247	0.714104
	H2	H	0.599119	0.843677	0.287963
	H3	H	0.402172	0.175551	0.284198
	H4	H	0.718783	0.405702	0.837566
	H5	H	0.721336	0.610091	0.162537
	H6	H	0.282448	0.609326	0.837671
	H7	H	0.287890	0.406380	0.163693
	H8	H	0.838001	0.721550	0.403591
	H9	H	0.166719	0.721565	0.599050
	H10	H	0.839140	0.294510	0.596835
	H11	H	0.166601	0.296664	0.407528
	H12	H	0.839579	0.408735	0.715345
	H13	H	0.163867	0.610052	0.720344
	H14	H	0.841139	0.612579	0.281217
	H15	H	0.164145	0.406703	0.285865
	H16	H	0.404352	0.721299	0.835293
	H17	H	0.599288	0.720293	0.164501
	H18	H	0.594342	0.298508	0.834319
	H19	H	0.410286	0.296542	0.165182
	H20	H	0.715080	0.844686	0.400954
	H21	H	0.716802	0.175083	0.600800
	H22	H	0.289982	0.843152	0.596873
	H23	H	0.288417	0.175639	0.398628
	H24	H	0.903580	0.342651	0.214703
	H25	H	0.102992	0.674731	0.215671
	H26	H	0.099827	0.342793	0.789140
	H27	H	0.901908	0.674239	0.786756
	H28	H	0.217127	0.907314	0.336198
	H29	H	0.223994	0.113179	0.661973
	H30	H	0.782584	0.113737	0.338375
	H31	H	0.784225	0.906621	0.662577
	H32	H	0.338600	0.221172	0.900141
	H33	H	0.666988	0.219711	0.095620
	H34	H	0.338470	0.794941	0.095461
	H35	H	0.666578	0.793806	0.903862
	H36	H	0.340129	0.906663	0.215198
	H37	H	0.663995	0.110427	0.217597
	H38	H	0.341533	0.109687	0.779277
	H39	H	0.665496	0.905921	0.784520
	H40	H	0.905309	0.222097	0.336115
	H41	H	0.099340	0.220472	0.665826
	H42	H	0.096806	0.796022	0.335721
	H43	H	0.908300	0.798300	0.666397
	H44	H	0.212689	0.342312	0.903959
	H45	H	0.219005	0.673516	0.103718
	H46	H	0.788384	0.342678	0.100838
	H47	H	0.786061	0.673758	0.899275
	H48	H	0.414461	0.126427	0.588734
	H49	H	0.595770	0.889842	0.590898
	H50	H	0.589574	0.129479	0.404135
	H51	H	0.401160	0.888412	0.405852
	H52	H	0.598053	0.420867	0.114747
	H53	H	0.588832	0.608096	0.882024
	H54	H	0.411234	0.610060	0.118510
	H55	H	0.398522	0.421316	0.882779
	H56	H	0.119838	0.597118	0.399021
	H57	H	0.883452	0.608971	0.598364
	H58	H	0.123147	0.410461	0.607120
	H59	H	0.884875	0.412143	0.404879
	H60	H	0.116973	0.410746	0.587405
	H61	H	0.886953	0.603498	0.590522
	H62	H	0.120835	0.612081	0.410762
	H63	H	0.888935	0.418776	0.412710
	H64	H	0.400566	0.595402	0.118166
	H65	H	0.605579	0.599540	0.881215
	H66	H	0.593701	0.411980	0.116773
	H67	H	0.411391	0.418286	0.885056
	H68	H	0.591583	0.127446	0.412785
	H69	H	0.595534	0.889850	0.592273
	H70	H	0.409970	0.127546	0.589336
	H71	H	0.412771	0.889596	0.399533
	H72	H	0.910317	0.628610	0.095559
	H73	H	0.087939	0.393342	0.089659
	H74	H	0.092856	0.628984	0.908279
	H75	H	0.916043	0.392889	0.914231
	H76	H	0.104491	0.920180	0.617270
	H77	H	0.093749	0.100514	0.384725
	H78	H	0.909014	0.104908	0.618350
	H79	H	0.903522	0.917165	0.382407
	H80	H	0.621048	0.108268	0.906938
	H81	H	0.385010	0.101064	0.095513
	H82	H	0.621388	0.903991	0.091195
	H83	H	0.392825	0.926057	0.911531
	H84	H	0.613378	0.925601	0.087277
	H85	H	0.384639	0.104184	0.090218
	H86	H	0.616268	0.097619	0.910759
	H87	H	0.385411	0.921333	0.892026
	H88	H	0.905687	0.099707	0.617767
	H89	H	0.095592	0.104083	0.383234
	H90	H	0.096294	0.920852	0.613486
	H91	H	0.907157	0.922597	0.386188
	H92	H	0.090119	0.626888	0.912608
	H93	H	0.103801	0.388581	0.089957
	H94	H	0.914469	0.626255	0.090951
	H95	H	0.900506	0.387728	0.911172
	H96	H	0.413175	0.128624	0.592921
	H97	H	0.594080	0.890215	0.591811
	H98	H	0.598246	0.131513	0.407217
	H99	H	0.412081	0.893428	0.412980
	H100	H	0.602620	0.413473	0.119200
	H101	H	0.590735	0.590135	0.888047
	H102	H	0.417375	0.594678	0.111823
	H103	H	0.402563	0.408387	0.880914
	H104	H	0.113930	0.595688	0.416597
	H105	H	0.885711	0.598612	0.599177
	H106	H	0.115383	0.428259	0.598799
	H107	H	0.886169	0.422537	0.402287
	H108	H	0.908085	0.626543	0.089075
	H109	H	0.094588	0.386677	0.103593
	H110	H	0.095416	0.627788	0.912724
	H111	H	0.911127	0.387312	0.899615
	H112	H	0.099148	0.912793	0.617691
	H113	H	0.098225	0.100709	0.383285
	H114	H	0.911366	0.099360	0.615967
	H115	H	0.910125	0.915796	0.384743
	H116	H	0.620429	0.098431	0.899233
	H117	H	0.387675	0.098637	0.090486
	H118	H	0.620442	0.919425	0.107746
	H119	H	0.384771	0.905789	0.908148
	C120	C	0.383259	0.017847	0.619024
	C121	C	0.624067	0.999752	0.621227
	C122	C	0.621837	0.019251	0.379642
	C123	C	0.379974	1.000399	0.376864
	C124	C	0.624797	0.386710	0.008424
	C125	C	0.624312	0.629312	0.991506
	C126	C	0.379704	0.629734	0.008393
	C127	C	0.378790	0.386497	0.991593
	C128	C	0.010874	0.631042	0.379277
	C129	C	0.993560	0.632135	0.624735
	C130	C	0.010654	0.387350	0.624019
	C131	C	0.993920	0.387647	0.379256
	C132	C	0.882056	0.517233	0.121134
	C133	C	0.124476	0.499330	0.123367
	C134	C	0.121278	0.517688	0.882018
	C135	C	0.880340	0.499451	0.879374
	C136	C	0.125481	0.888191	0.508060
	C137	C	0.125296	0.131160	0.492024
	C138	C	0.879683	0.131518	0.509200
	C139	C	0.880002	0.888786	0.492377
	C140	C	0.511696	0.130667	0.876266
	C141	C	0.493573	0.130286	0.121077
	C142	C	0.510546	0.887249	0.122277
	C143	C	0.495044	0.887116	0.876790
	C144	C	0.384686	0.892176	0.674145
	C145	C	0.622644	0.124923	0.676663
	C146	C	0.619585	0.893842	0.324995
	C147	C	0.382154	0.125858	0.321839
	C148	C	0.679610	0.387325	0.885812
	C149	C	0.681640	0.628887	0.114202
	C150	C	0.321908	0.629315	0.886032
	C151	C	0.325438	0.387174	0.114770
	C152	C	0.887531	0.685304	0.382054
	C153	C	0.117106	0.685594	0.620892
	C154	C	0.887826	0.332145	0.618719
	C155	C	0.117230	0.333163	0.384908
	C156	C	0.888136	0.388761	0.677660
	C157	C	0.115790	0.630122	0.681229
	C158	C	0.889011	0.630768	0.321419
	C159	C	0.116078	0.388065	0.324414
	C160	C	0.382351	0.684760	0.884649
	C161	C	0.620999	0.683689	0.115340
	C162	C	0.617697	0.334094	0.884088
	C163	C	0.386355	0.332487	0.115588
	C164	C	0.677133	0.894303	0.381511
	C165	C	0.679102	0.125447	0.620178
	C166	C	0.327623	0.892692	0.617186
	C167	C	0.325597	0.125867	0.378777
	C168	C	0.883827	0.392296	0.176933
	C169	C	0.122889	0.624659	0.178412
	C170	C	0.119502	0.392538	0.826531
	C171	C	0.882026	0.624583	0.824355
	C172	C	0.178686	0.889019	0.384862
	C173	C	0.183771	0.131455	0.613881
	C174	C	0.822278	0.131913	0.386786
	C175	C	0.824143	0.888523	0.614650
	C176	C	0.388070	0.184568	0.879084
	C177	C	0.617405	0.184106	0.117763
	C178	C	0.387488	0.832279	0.117212
	C179	C	0.617726	0.831315	0.882219
	C180	C	0.388332	0.887872	0.176817
	C181	C	0.615935	0.129345	0.178146
	C182	C	0.389351	0.128958	0.819147
	C183	C	0.617253	0.887128	0.822672
	C184	C	0.883479	0.186015	0.385578
	C185	C	0.121758	0.184663	0.615968
	C186	C	0.119036	0.833296	0.384588
	C187	C	0.885560	0.834400	0.616385
	C188	C	0.175654	0.392369	0.883742
	C189	C	0.180783	0.623920	0.122765
	C190	C	0.826703	0.392231	0.120032
	C191	C	0.824624	0.624353	0.880477
	C192	C	0.405756	0.104877	0.596874
	C193	C	0.601559	0.912611	0.598375
	C194	C	0.599626	0.107017	0.401678
	C195	C	0.402160	0.913099	0.399199
	C196	C	0.604165	0.408862	0.094719
	C197	C	0.601699	0.606102	0.905895
	C198	C	0.402919	0.606892	0.093941
	C199	C	0.398433	0.409308	0.905180
	C200	C	0.096207	0.608211	0.402041
	C201	C	0.907513	0.610214	0.602446
	C202	C	0.096384	0.409777	0.603840
	C203	C	0.908691	0.411037	0.400317
	C204	C	0.904418	0.604450	0.098467
	C205	C	0.101959	0.412166	0.101225
	C206	C	0.099126	0.605143	0.904440
	C207	C	0.902733	0.412049	0.901667
	C208	C	0.105895	0.911044	0.593884
	C209	C	0.102454	0.108678	0.406038
	C210	C	0.902079	0.108174	0.595220
	C211	C	0.900779	0.911803	0.406565
	C212	C	0.596924	0.108210	0.899108
	C213	C	0.407969	0.107870	0.098706
	C214	C	0.596251	0.909760	0.101450
	C215	C	0.409803	0.910805	0.897665
	Zn216	Zn	0.504003	0.008516	0.747173
	Zn217	Zn	0.501364	0.009439	0.250964
	Zn218	Zn	0.753750	0.508108	0.000403
	Zn219	Zn	0.249721	0.508533	0.001131
	Zn220	Zn	0.002375	0.760048	0.501117
	Zn221	Zn	0.002333	0.258762	0.501101
	Zn222	Zn	0.001843	0.509079	0.753428
	Zn223	Zn	0.002577	0.509322	0.249542
	Zn224	Zn	0.502374	0.758748	-0.000275
	Zn225	Zn	0.502404	0.258666	-0.000101
	Zn226	Zn	0.750234	0.010431	0.500317
	Zn227	Zn	0.254802	0.009826	0.498957
	N228	N	0.418522	0.970916	0.675571
	N229	N	0.589587	0.045757	0.677572
	N230	N	0.585796	0.972593	0.323930
	N231	N	0.415269	0.046777	0.320521
	N232	N	0.683842	0.419372	0.964167
	N233	N	0.683786	0.596041	0.036269
	N234	N	0.319973	0.596165	0.963958
	N235	N	0.320710	0.419962	0.036704
	N236	N	0.964281	0.685590	0.417358
	N237	N	0.039964	0.687001	0.586779
	N238	N	0.964975	0.331314	0.586114
	N239	N	0.040361	0.332868	0.418383
	N240	N	0.965453	0.422587	0.680877
	N241	N	0.037793	0.598025	0.684145
	N242	N	0.966615	0.597750	0.319307
	N243	N	0.038455	0.421233	0.320717
	N244	N	0.417739	0.685176	0.961688
	N245	N	0.585949	0.684138	0.038216
	N246	N	0.584373	0.333509	0.961332
	N247	N	0.418659	0.331780	0.037920
	N248	N	0.678489	0.973375	0.414862
	N249	N	0.680422	0.046579	0.586524
	N250	N	0.326259	0.971780	0.583897
	N251	N	0.324162	0.046982	0.412321
	N252	N	0.917748	0.471129	0.177722
	N253	N	0.088626	0.546070	0.179233
	N254	N	0.086161	0.471738	0.825500
	N255	N	0.915967	0.546009	0.823448
	N256	N	0.182994	0.922433	0.462647
	N257	N	0.186029	0.098935	0.535698
	N258	N	0.820042	0.098641	0.464596
	N259	N	0.820495	0.921654	0.536605
	N260	N	0.464925	0.185803	0.914009
	N261	N	0.540410	0.184694	0.082895
	N262	N	0.464628	0.831564	0.084101
	N263	N	0.540629	0.831203	0.915327
	N264	N	0.465890	0.921182	0.180170
	N265	N	0.538045	0.096789	0.180531
	N266	N	0.467079	0.096115	0.817178
	N267	N	0.540079	0.921113	0.819207
	N268	N	0.918475	0.185641	0.462798
	N269	N	0.085990	0.184490	0.539177
	N270	N	0.086558	0.832677	0.462091
	N271	N	0.919632	0.834474	0.539410
	N272	N	0.176776	0.471072	0.917417
	N273	N	0.181849	0.545061	0.089137
	N274	N	0.825517	0.470952	0.086091
	N275	N	0.823511	0.545478	0.913964
	O276	O	0.055230	0.059778	-0.015812
	H277	H	0.061527	0.061734	-0.017978
	H278	H	0.057617	0.053189	-0.009788
	O279	O	0.451564	0.557166	0.467917
	H280	H	0.453359	0.550623	0.469744
	H281	H	0.454752	0.551580	0.469426
	O282	O	0.953048	0.974505	0.906091
	H283	H	0.946679	0.980338	0.913082
	H284	H	0.949299	0.969610	0.899463
	O285	O	0.935107	0.037645	0.997718
	H286	H	0.946406	0.050050	1.005962
	H287	H	0.934923	0.039384	1.014742
	O288	O	1.128995	-0.046459	0.006873
	H289	H	1.130322	-0.044167	-0.003587
	H290	H	1.136549	-0.056868	-0.017632
	O291	O	0.502514	0.552240	0.499675
	H292	H	0.514421	0.560844	0.499510
	H293	H	0.501828	0.546731	0.503836
	O294	O	0.921671	-0.023964	0.961242
	H295	H	0.913050	-0.029155	0.959914
	H296	H	0.922979	-0.013963	0.953573
	O297	O	-0.187543	-0.095390	0.146366
	H298	H	-0.189148	-0.099870	0.141472
	H299	H	-0.184113	-0.107811	0.140188
	O300	O	0.521484	0.471213	0.540366
	H301	H	0.514997	0.474062	0.542987
	H302	H	0.517294	0.461660	0.545369
	O303	O	1.025539	-0.025560	-0.052745
	H304	H	1.029195	-0.016355	-0.038493
	H305	H	1.033042	-0.028197	-0.047040
	O306	O	1.069368	-0.010375	0.103256
	H307	H	1.059373	-0.007644	0.095326
	H308	H	1.070053	-0.004948	0.111037
	O309	O	-0.005393	0.017331	0.989396
	H310	H	-0.004858	0.024142	0.985764
	H311	H	-0.002487	0.015030	0.982598
	O312	O	0.996392	1.021242	1.091413
	H313	H	1.004250	1.015586	1.092419
	H314	H	0.999609	1.012884	1.097941
	O315	O	0.469228	0.536473	0.445251
	H316	H	0.467206	0.541956	0.442152
	H317	H	0.464983	0.532749	0.446448
	O318	O	0.537708	0.513398	0.442712
	H319	H	0.545752	0.517415	0.447060
	H320	H	0.540129	0.524971	0.442017
	O321	O	0.107353	1.001644	1.155829
	H322	H	0.125908	0.997464	1.166141
	H323	H	0.110598	1.000678	1.145504
	O324	O	0.070945	0.047805	0.042949
	H325	H	0.068964	0.046758	0.035851
	H326	H	0.081048	0.044273	0.041438
	O327	O	0.071233	0.035422	0.918394
	H328	H	0.078056	0.044791	0.927816
	H329	H	0.067890	0.041065	0.920825
	O330	O	0.944936	0.885251	-0.063268
	H331	H	0.938222	0.893366	-0.055436
	H332	H	0.951323	0.884244	-0.071467
	O333	O	0.478948	0.570716	0.463729
	H334	H	0.474114	0.577445	0.456472
	H335	H	0.473023	0.571845	0.461458
	O336	O	0.428446	0.499560	0.405823
	H337	H	0.428884	0.517244	0.406926
	H338	H	0.417379	0.496154	0.397874
	O339	O	0.834578	0.869611	0.114808
	H340	H	0.827394	0.875781	0.112247
	H341	H	0.836363	0.876574	0.104026
	O342	O	0.506560	0.497091	0.483407
	H343	H	0.510237	0.497648	0.478853
	H344	H	0.511914	0.491886	0.476462
	O345	O	0.486343	0.518058	0.488473
	H346	H	0.487959	0.515594	0.484637
	H347	H	0.482266	0.523633	0.492016
	O348	O	0.103022	-0.029546	-0.119245
	H349	H	0.090451	-0.043189	-0.125992
	H350	H	0.102648	-0.031978	-0.129914
	O351	O	-0.036157	1.064909	1.040718
	H352	H	-0.041307	1.064361	1.043622
	H353	H	-0.028228	1.066423	1.044519
	O354	O	0.555606	0.485261	0.468035
	H355	H	0.547848	0.478474	0.464262
	H356	H	0.569625	0.478468	0.461321
	O357	O	0.078807	0.965857	0.975757
	H358	H	0.069108	0.970701	0.980446
	H359	H	0.084870	0.954291	0.960742
