data_Molecule from HDF5

_cell_length_a		16.243060
_cell_length_b		16.266358
_cell_length_c		16.265778
_cell_angle_alpha	89.843524
_cell_angle_beta	90.263295
_cell_angle_gamma	89.804889
_symmetry_space_group_name_H-M	'P 1'
_symmetry_Int_Tables_number		1

loop_
	_symmetry_equiv_pos_as_xyz
	x,y,z

loop_
	_atom_site_label
	_atom_site_type_symbol
	_atom_site_fract_x
	_atom_site_fract_y
	_atom_site_fract_z
	H0	H	0.401049	0.836669	0.718650
	H1	H	0.594963	0.164816	0.719479
	H2	H	0.595957	0.836159	0.293301
	H3	H	0.398950	0.164941	0.288573
	H4	H	0.713989	0.402809	0.839854
	H5	H	0.713159	0.596947	0.168183
	H6	H	0.284037	0.600085	0.840204
	H7	H	0.286200	0.401993	0.168170
	H8	H	0.834517	0.716795	0.403485
	H9	H	0.163109	0.714974	0.602118
	H10	H	0.832888	0.289446	0.600400
	H11	H	0.161736	0.286026	0.406944
	H12	H	0.834087	0.405138	0.716521
	H13	H	0.163306	0.598016	0.717496
	H14	H	0.834954	0.600500	0.288123
	H15	H	0.163342	0.404193	0.293667
	H16	H	0.399728	0.716319	0.840376
	H17	H	0.597939	0.712341	0.168704
	H18	H	0.597894	0.286475	0.840088
	H19	H	0.403420	0.287097	0.168769
	H20	H	0.712698	0.837544	0.408148
	H21	H	0.711132	0.166713	0.603419
	H22	H	0.285582	0.836908	0.601944
	H23	H	0.284026	0.165653	0.405553
	H24	H	0.902056	0.337505	0.218130
	H25	H	0.098423	0.665231	0.218461
	H26	H	0.097349	0.337190	0.790442
	H27	H	0.900062	0.666202	0.788616
	H28	H	0.211689	0.903739	0.339503
	H29	H	0.212314	0.099156	0.668293
	H30	H	0.782644	0.100880	0.340585
	H31	H	0.785947	0.903435	0.668402
	H32	H	0.335286	0.216620	0.904527
	H33	H	0.663603	0.213151	0.103204
	H34	H	0.334343	0.785127	0.101823
	H35	H	0.664085	0.786915	0.908281
	H36	H	0.332811	0.904197	0.216076
	H37	H	0.662818	0.097974	0.219664
	H38	H	0.333714	0.097876	0.791771
	H39	H	0.662938	0.901202	0.790897
	H40	H	0.897955	0.216292	0.339790
	H41	H	0.095494	0.213893	0.668228
	H42	H	0.094310	0.788726	0.339631
	H43	H	0.901689	0.787473	0.667725
	H44	H	0.212967	0.337074	0.907113
	H45	H	0.213569	0.665107	0.101814
	H46	H	0.788096	0.337168	0.101239
	H47	H	0.784994	0.666584	0.905833
	H48	H	0.398982	0.120094	0.599997
	H49	H	0.596353	0.885761	0.593202
	H50	H	0.588974	0.117614	0.411351
	H51	H	0.404219	0.885473	0.417060
	H52	H	0.600666	0.407960	0.122823
	H53	H	0.588035	0.602890	0.886235
	H54	H	0.408996	0.587509	0.118855
	H55	H	0.398589	0.419689	0.889180
	H56	H	0.113782	0.594960	0.418547
	H57	H	0.878978	0.588214	0.612124
	H58	H	0.117526	0.397069	0.596326
	H59	H	0.884577	0.416752	0.414542
	H60	H	0.111717	0.412271	0.589821
	H61	H	0.877691	0.612376	0.593426
	H62	H	0.114167	0.588521	0.407570
	H63	H	0.878302	0.409995	0.400110
	H64	H	0.410708	0.598266	0.120526
	H65	H	0.601216	0.594198	0.884398
	H66	H	0.591033	0.410685	0.118044
	H67	H	0.419551	0.407695	0.891229
	H68	H	0.591368	0.118005	0.411638
	H69	H	0.596060	0.882625	0.603617
	H70	H	0.410288	0.117721	0.602226
	H71	H	0.399256	0.882354	0.407174
	H72	H	0.916718	0.615573	0.097628
	H73	H	0.096329	0.378700	0.113474
	H74	H	0.093766	0.617330	0.915466
	H75	H	0.885709	0.381348	0.920211
	H76	H	0.091773	0.915671	0.618531
	H77	H	0.095929	0.093936	0.385853
	H78	H	0.907453	0.097494	0.620837
	H79	H	0.906482	0.911212	0.387973
	H80	H	0.614456	0.083751	0.906647
	H81	H	0.385684	0.082972	0.095333
	H82	H	0.618060	0.908163	0.109998
	H83	H	0.382861	0.906597	0.912414
	H84	H	0.617167	0.896180	0.096256
	H85	H	0.377060	0.098754	0.106177
	H86	H	0.619635	0.101794	0.905781
	H87	H	0.383094	0.909648	0.912597
	H88	H	0.901275	0.097709	0.623037
	H89	H	0.087447	0.089252	0.389362
	H90	H	0.085289	0.902730	0.620184
	H91	H	0.904920	0.905855	0.386282
	H92	H	0.095387	0.620025	0.906477
	H93	H	0.078573	0.389542	0.095657
	H94	H	0.900375	0.617521	0.087854
	H95	H	0.909946	0.379433	0.886688
	H96	H	0.406684	0.115007	0.591289
	H97	H	0.586540	0.886612	0.599032
	H98	H	0.589969	0.119005	0.409581
	H99	H	0.410573	0.884977	0.407632
	H100	H	0.593107	0.400294	0.121468
	H101	H	0.588039	0.587764	0.889744
	H102	H	0.401059	0.594089	0.122443
	H103	H	0.400191	0.397306	0.882691
	H104	H	0.118119	0.600622	0.407746
	H105	H	0.888620	0.585499	0.582911
	H106	H	0.116377	0.410718	0.606544
	H107	H	0.880270	0.399998	0.414236
	H108	H	0.900700	0.622665	0.105695
	H109	H	0.104603	0.383863	0.087699
	H110	H	0.086211	0.616910	0.908506
	H111	H	0.924735	0.394862	0.922197
	H112	H	0.099393	0.904074	0.623195
	H113	H	0.087746	0.098706	0.386403
	H114	H	0.904374	0.092530	0.619308
	H115	H	0.900860	0.909684	0.386125
	H116	H	0.612759	0.094215	0.921396
	H117	H	0.382904	0.101324	0.086438
	H118	H	0.611271	0.912848	0.093925
	H119	H	0.381750	0.907527	0.909988
	C120	C	0.377015	0.009451	0.626138
	C121	C	0.620413	0.993046	0.627225
	C122	C	0.618991	0.009308	0.383677
	C123	C	0.375998	0.992795	0.382021
	C124	C	0.622853	0.378076	0.012310
	C125	C	0.620701	0.621882	0.995588
	C126	C	0.377942	0.622318	0.012231
	C127	C	0.378441	0.379558	0.996206
	C128	C	0.007126	0.623565	0.381983
	C129	C	0.990515	0.623099	0.624838
	C130	C	0.006748	0.379403	0.625222
	C131	C	0.989703	0.380207	0.382546
	C132	C	0.878259	0.509862	0.125202
	C133	C	0.121252	0.492841	0.126424
	C134	C	0.120413	0.509554	0.882364
	C135	C	0.877579	0.493874	0.881423
	C136	C	0.120299	0.879496	0.512202
	C137	C	0.118765	0.122092	0.496007
	C138	C	0.875914	0.123734	0.512541
	C139	C	0.876938	0.880479	0.495608
	C140	C	0.507399	0.122528	0.882474
	C141	C	0.490645	0.121477	0.125130
	C142	C	0.506688	0.877920	0.126849
	C143	C	0.491166	0.879301	0.883734
	C144	C	0.380591	0.885623	0.680738
	C145	C	0.616589	0.116593	0.681707
	C146	C	0.616434	0.885493	0.330122
	C147	C	0.378803	0.116303	0.326956
	C148	C	0.676900	0.381760	0.888990
	C149	C	0.675191	0.617695	0.119342
	C150	C	0.321919	0.620611	0.889284
	C151	C	0.324030	0.381886	0.119340
	C152	C	0.883488	0.678527	0.383658
	C153	C	0.114239	0.677355	0.622219
	C154	C	0.882420	0.326316	0.621467
	C155	C	0.113078	0.324312	0.386153
	C156	C	0.882871	0.383785	0.678982
	C157	C	0.114494	0.619263	0.679577
	C158	C	0.883692	0.621006	0.326242
	C159	C	0.113974	0.382894	0.329729
	C160	C	0.379571	0.678093	0.889139
	C161	C	0.618083	0.675216	0.119416
	C162	C	0.618903	0.324050	0.888985
	C163	C	0.382009	0.324500	0.119597
	C164	C	0.674504	0.886253	0.387314
	C165	C	0.674065	0.117147	0.623935
	C166	C	0.323047	0.885781	0.623170
	C167	C	0.321444	0.116503	0.384970
	C168	C	0.881736	0.386566	0.180194
	C169	C	0.118602	0.616311	0.180635
	C170	C	0.117901	0.386081	0.828192
	C171	C	0.879809	0.617240	0.826494
	C172	C	0.174560	0.882875	0.388729
	C173	C	0.174148	0.119265	0.619363
	C174	C	0.820635	0.121139	0.389145
	C175	C	0.823720	0.883447	0.619541
	C176	C	0.383998	0.178063	0.884545
	C177	C	0.614571	0.175416	0.123365
	C178	C	0.383187	0.823203	0.122797
	C179	C	0.614878	0.824453	0.887390
	C180	C	0.382259	0.882376	0.179390
	C181	C	0.614021	0.118314	0.181219
	C182	C	0.383241	0.119452	0.828158
	C183	C	0.614253	0.881297	0.828926
	C184	C	0.878123	0.178372	0.388938
	C185	C	0.116431	0.176776	0.619257
	C186	C	0.116181	0.825852	0.388495
	C187	C	0.880762	0.825296	0.618980
	C188	C	0.175370	0.386073	0.886038
	C189	C	0.175897	0.616138	0.122746
	C190	C	0.824826	0.386346	0.122270
	C191	C	0.822623	0.617445	0.884679
	C192	C	0.398815	0.095402	0.604467
	C193	C	0.599151	0.907281	0.605254
	C194	C	0.596716	0.095884	0.404722
	C195	C	0.398074	0.906422	0.404051
	C196	C	0.601341	0.399885	0.098687
	C197	C	0.598938	0.601006	0.909057
	C198	C	0.400451	0.599972	0.098399
	C199	C	0.399858	0.401697	0.909932
	C200	C	0.093026	0.601177	0.404704
	C201	C	0.904189	0.601740	0.602852
	C202	C	0.092918	0.400340	0.604003
	C203	C	0.903387	0.402358	0.403401
	C204	C	0.899646	0.596368	0.103404
	C205	C	0.099622	0.406443	0.105241
	C206	C	0.098220	0.595730	0.903575
	C207	C	0.900054	0.407714	0.903289
	C208	C	0.098594	0.901197	0.598489
	C209	C	0.096750	0.100411	0.409659
	C210	C	0.897814	0.102175	0.598811
	C211	C	0.897786	0.902414	0.409163
	C212	C	0.593326	0.099948	0.904763
	C213	C	0.404384	0.100670	0.102596
	C214	C	0.593144	0.899393	0.106190
	C215	C	0.404786	0.901385	0.905420
	Zn216	Zn	0.498505	0.000512	0.754802
	Zn217	Zn	0.498147	0.000759	0.254462
	Zn218	Zn	0.749806	0.501441	0.003836
	Zn219	Zn	0.249050	0.500849	0.003954
	Zn220	Zn	-0.001748	0.751697	0.503225
	Zn221	Zn	-0.002440	0.251277	0.503822
	Zn222	Zn	-0.001103	0.501536	0.753340
	Zn223	Zn	-0.000789	0.501627	0.254345
	Zn224	Zn	0.499574	0.750168	0.004250
	Zn225	Zn	0.499696	0.250286	0.004110
	Zn226	Zn	0.748192	0.002066	0.504564
	Zn227	Zn	0.248741	0.001194	0.504392
	N228	N	0.413488	0.963548	0.682835
	N229	N	0.584211	0.038704	0.684100
	N230	N	0.582522	0.963204	0.327867
	N231	N	0.411768	0.038243	0.324857
	N232	N	0.679243	0.414563	0.966772
	N233	N	0.676977	0.585320	0.041307
	N234	N	0.320946	0.586545	0.966762
	N235	N	0.321686	0.415318	0.041586
	N236	N	0.961269	0.680479	0.417283
	N237	N	0.036134	0.679795	0.588906
	N238	N	0.960209	0.323548	0.588775
	N239	N	0.034873	0.322598	0.418255
	N240	N	0.961024	0.416079	0.681785
	N241	N	0.036788	0.586067	0.680964
	N242	N	0.961682	0.587703	0.325048
	N243	N	0.036312	0.416821	0.327278
	N244	N	0.413727	0.679126	0.966674
	N245	N	0.584836	0.677942	0.041460
	N246	N	0.586175	0.321539	0.966841
	N247	N	0.415271	0.322934	0.041928
	N248	N	0.676002	0.964234	0.419840
	N249	N	0.676848	0.039241	0.590851
	N250	N	0.320887	0.963399	0.589916
	N251	N	0.319937	0.038761	0.418597
	N252	N	0.914368	0.464387	0.181897
	N253	N	0.085628	0.538605	0.183361
	N254	N	0.084758	0.463978	0.825622
	N255	N	0.913112	0.539357	0.824348
	N256	N	0.177201	0.915321	0.466810
	N257	N	0.175843	0.086220	0.541570
	N258	N	0.819186	0.087697	0.466928
	N259	N	0.821104	0.916844	0.541844
	N260	N	0.462072	0.180353	0.917404
	N261	N	0.536979	0.177453	0.089237
	N262	N	0.461556	0.820280	0.091106
	N263	N	0.537259	0.823326	0.920781
	N264	N	0.459933	0.915734	0.182100
	N265	N	0.536103	0.085517	0.182446
	N266	N	0.460822	0.085343	0.827055
	N267	N	0.536300	0.914608	0.826589
	N268	N	0.911914	0.179932	0.466609
	N269	N	0.082698	0.178623	0.541556
	N270	N	0.083299	0.823648	0.466269
	N271	N	0.913056	0.823335	0.540820
	N272	N	0.176757	0.463722	0.919308
	N273	N	0.177503	0.538358	0.089682
	N274	N	0.822701	0.464079	0.088595
	N275	N	0.821396	0.539712	0.918231
	O276	O	-0.010430	0.037452	0.955658
	H277	H	-0.018267	0.046715	0.951802
	H278	H	-0.010530	0.039338	0.959496
	O279	O	0.448858	0.570468	0.435080
	H280	H	0.440664	0.575562	0.422923
	H281	H	0.450376	0.577535	0.442455
	O282	O	0.994633	0.095996	-0.062684
	H283	H	1.000681	0.093707	-0.061713
	H284	H	0.993934	0.092655	-0.073868
	O285	O	0.461937	0.579119	0.489814
	H286	H	0.462925	0.573442	0.491046
	H287	H	0.454170	0.577282	0.481172
	O288	O	0.501291	0.623207	0.479423
	H289	H	0.500743	0.620174	0.475558
	H290	H	0.501889	0.622249	0.468885
	O291	O	-0.018765	1.082134	0.958473
	H292	H	-0.019180	1.087703	0.951586
	H293	H	-0.016531	1.091244	0.963025
	O294	O	0.457561	0.603098	0.472243
	H295	H	0.453864	0.616097	0.481492
	H296	H	0.468960	0.605089	0.484167
	O297	O	1.009925	0.050050	-0.060571
	H298	H	1.011834	0.045023	-0.057420
	H299	H	1.008321	0.045397	-0.058463
