data_Molecule from HDF5

_cell_length_a		16.595026
_cell_length_b		16.597212
_cell_length_c		16.553320
_cell_angle_alpha	89.921252
_cell_angle_beta	89.823297
_cell_angle_gamma	89.908035
_symmetry_space_group_name_H-M	'P 1'
_symmetry_Int_Tables_number		1

loop_
	_symmetry_equiv_pos_as_xyz
	x,y,z

loop_
	_atom_site_label
	_atom_site_type_symbol
	_atom_site_fract_x
	_atom_site_fract_y
	_atom_site_fract_z
	H0	H	0.398942	0.847164	0.724215
	H1	H	0.611926	0.158943	0.723484
	H2	H	0.609044	0.845647	0.279908
	H3	H	0.399421	0.157933	0.279978
	H4	H	0.727270	0.396774	0.845796
	H5	H	0.725635	0.609506	0.156450
	H6	H	0.281440	0.608881	0.844205
	H7	H	0.282691	0.397049	0.157422
	H8	H	0.849938	0.726592	0.394154
	H9	H	0.158230	0.726412	0.609892
	H10	H	0.846234	0.284081	0.603101
	H11	H	0.159187	0.277683	0.392190
	H12	H	0.846477	0.400136	0.719855
	H13	H	0.159602	0.607232	0.722726
	H14	H	0.849831	0.609651	0.278632
	H15	H	0.158941	0.394842	0.277508
	H16	H	0.397409	0.726097	0.844368
	H17	H	0.608175	0.723792	0.156860
	H18	H	0.611261	0.281072	0.844705
	H19	H	0.400679	0.282671	0.158021
	H20	H	0.724977	0.845787	0.396339
	H21	H	0.725127	0.159546	0.603986
	H22	H	0.280248	0.847919	0.611303
	H23	H	0.281125	0.156368	0.393886
	H24	H	0.898453	0.347067	0.223053
	H25	H	0.109328	0.657342	0.223532
	H26	H	0.109260	0.345571	0.780552
	H27	H	0.899170	0.657416	0.779476
	H28	H	0.230858	0.891601	0.348123
	H29	H	0.227707	0.109082	0.657000
	H30	H	0.785202	0.105755	0.344012
	H31	H	0.780133	0.896227	0.656056
	H32	H	0.349493	0.227814	0.892554
	H33	H	0.659197	0.224587	0.106063
	H34	H	0.348350	0.780627	0.106400
	H35	H	0.658236	0.778395	0.892508
	H36	H	0.348649	0.897357	0.223011
	H37	H	0.659766	0.106994	0.220796
	H38	H	0.349380	0.111229	0.777677
	H39	H	0.659762	0.896809	0.778741
	H40	H	0.899877	0.223833	0.345435
	H41	H	0.112390	0.225620	0.656551
	H42	H	0.113339	0.777008	0.348169
	H43	H	0.897173	0.780671	0.657113
	H44	H	0.225296	0.346239	0.895970
	H45	H	0.224869	0.658313	0.106402
	H46	H	0.780907	0.347939	0.108709
	H47	H	0.780958	0.657236	0.894627
	H48	H	0.415616	0.113501	0.588545
	H49	H	0.588889	0.893287	0.590323
	H50	H	0.591806	0.111617	0.416862
	H51	H	0.415902	0.888979	0.408762
	H52	H	0.597006	0.416340	0.113112
	H53	H	0.591197	0.589425	0.889998
	H54	H	0.411533	0.592974	0.113262
	H55	H	0.417279	0.414214	0.889082
	H56	H	0.113405	0.582453	0.411212
	H57	H	0.892951	0.594802	0.586369
	H58	H	0.116547	0.411062	0.591782
	H59	H	0.891941	0.411756	0.411837
	H60	H	0.116801	0.411054	0.590011
	H61	H	0.895178	0.585562	0.586842
	H62	H	0.117351	0.593549	0.412198
	H63	H	0.892505	0.411695	0.413696
	H64	H	0.413308	0.588481	0.110967
	H65	H	0.591052	0.590688	0.888854
	H66	H	0.587571	0.416631	0.110556
	H67	H	0.414516	0.413582	0.887907
	H68	H	0.601614	0.116590	0.409669
	H69	H	0.594870	0.892825	0.585986
	H70	H	0.417857	0.112312	0.587780
	H71	H	0.421452	0.891502	0.413394
	H72	H	0.915700	0.615154	0.093451
	H73	H	0.095814	0.387931	0.093776
	H74	H	0.101102	0.616803	0.910124
	H75	H	0.918591	0.390374	0.910255
	H76	H	0.085228	0.914655	0.610656
	H77	H	0.089642	0.087054	0.392259
	H78	H	0.919176	0.089841	0.611281
	H79	H	0.918519	0.916099	0.390714
	H80	H	0.617675	0.098818	0.914475
	H81	H	0.390479	0.096843	0.089296
	H82	H	0.615735	0.916056	0.089751
	H83	H	0.393671	0.917796	0.914697
	H84	H	0.617488	0.910496	0.091205
	H85	H	0.394190	0.089946	0.084410
	H86	H	0.611804	0.086746	0.918298
	H87	H	0.391400	0.915503	0.910676
	H88	H	0.913222	0.097980	0.616257
	H89	H	0.092085	0.093126	0.389091
	H90	H	0.093681	0.911530	0.615431
	H91	H	0.917223	0.910270	0.388824
	H92	H	0.087839	0.615502	0.904664
	H93	H	0.088627	0.391829	0.090669
	H94	H	0.919025	0.612189	0.087740
	H95	H	0.916080	0.392134	0.917547
	H96	H	0.415696	0.112670	0.586055
	H97	H	0.594671	0.890140	0.592462
	H98	H	0.590390	0.114547	0.404197
	H99	H	0.414082	0.890529	0.415630
	H100	H	0.591418	0.408109	0.114862
	H101	H	0.592823	0.589729	0.889018
	H102	H	0.416858	0.593347	0.110997
	H103	H	0.415056	0.416152	0.889814
	H104	H	0.112967	0.588404	0.421755
	H105	H	0.891160	0.590195	0.594057
	H106	H	0.115992	0.412569	0.590769
	H107	H	0.892707	0.413229	0.412974
	H108	H	0.912627	0.614761	0.086859
	H109	H	0.095373	0.390613	0.085057
	H110	H	0.090427	0.611019	0.918109
	H111	H	0.911192	0.388583	0.912359
	H112	H	0.092940	0.920937	0.611251
	H113	H	0.095879	0.087549	0.390205
	H114	H	0.909027	0.088172	0.614413
	H115	H	0.913679	0.914628	0.388329
	H116	H	0.616615	0.088395	0.905398
	H117	H	0.391428	0.087986	0.093577
	H118	H	0.615184	0.911945	0.085771
	H119	H	0.393010	0.912839	0.915187
	C120	C	0.383425	0.010663	0.621795
	C121	C	0.625573	0.995160	0.621619
	C122	C	0.626254	0.010782	0.378801
	C123	C	0.384017	0.993319	0.379985
	C124	C	0.625126	0.381380	0.009563
	C125	C	0.624077	0.622887	0.992531
	C126	C	0.381688	0.624547	0.008650
	C127	C	0.383013	0.381724	0.992217
	C128	C	0.012608	0.622394	0.381403
	C129	C	0.995556	0.623286	0.622719
	C130	C	0.012569	0.380485	0.622316
	C131	C	0.995308	0.379986	0.379468
	C132	C	0.882633	0.511591	0.122872
	C133	C	0.125425	0.493344	0.122485
	C134	C	0.125345	0.511102	0.878967
	C135	C	0.882440	0.493193	0.880420
	C136	C	0.125685	0.880629	0.510697
	C137	C	0.125498	0.122565	0.493511
	C138	C	0.882851	0.123482	0.510144
	C139	C	0.882679	0.881222	0.492317
	C140	C	0.512900	0.124997	0.879117
	C141	C	0.495185	0.123860	0.121653
	C142	C	0.512739	0.880427	0.121819
	C143	C	0.495255	0.882049	0.879925
	C144	C	0.380935	0.893880	0.683618
	C145	C	0.628729	0.112336	0.682108
	C146	C	0.627888	0.892791	0.319676
	C147	C	0.381075	0.110603	0.319577
	C148	C	0.686373	0.378837	0.892219
	C149	C	0.684789	0.626649	0.109721
	C150	C	0.321480	0.627218	0.891112
	C151	C	0.323284	0.379574	0.110554
	C152	C	0.896454	0.685169	0.376850
	C153	C	0.112085	0.684629	0.626651
	C154	C	0.893749	0.323035	0.622421
	C155	C	0.112206	0.318363	0.375191
	C156	C	0.893654	0.380860	0.680414
	C157	C	0.112628	0.625679	0.683117
	C158	C	0.896128	0.626881	0.319651
	C159	C	0.112356	0.377033	0.318198
	C160	C	0.379056	0.685343	0.891192
	C161	C	0.626244	0.683596	0.109799
	C162	C	0.628631	0.321401	0.891729
	C163	C	0.381362	0.322041	0.110559
	C164	C	0.685435	0.892677	0.377568
	C165	C	0.685256	0.112648	0.622752
	C166	C	0.321992	0.894065	0.627206
	C167	C	0.322323	0.110029	0.376597
	C168	C	0.879741	0.394331	0.183846
	C169	C	0.127755	0.610700	0.183082
	C170	C	0.127617	0.392923	0.819952
	C171	C	0.880117	0.610731	0.819720
	C172	C	0.189375	0.874674	0.394731
	C173	C	0.187152	0.126686	0.610089
	C174	C	0.824590	0.124926	0.391307
	C175	C	0.820757	0.877779	0.609458
	C176	C	0.396239	0.187159	0.874880
	C177	C	0.612452	0.184181	0.124180
	C178	C	0.395191	0.820785	0.124661
	C179	C	0.611999	0.819920	0.875452
	C180	C	0.395488	0.878399	0.182777
	C181	C	0.612628	0.125907	0.181354
	C182	C	0.396380	0.129034	0.817713
	C183	C	0.612650	0.878655	0.818713
	C184	C	0.881366	0.183423	0.391952
	C185	C	0.129529	0.184606	0.609963
	C186	C	0.131093	0.817683	0.394654
	C187	C	0.879160	0.820699	0.610088
	C188	C	0.185479	0.393308	0.877402
	C189	C	0.185405	0.610993	0.125095
	C190	C	0.821582	0.394592	0.126706
	C191	C	0.821519	0.610420	0.876889
	C192	C	0.409035	0.091830	0.594907
	C193	C	0.600240	0.913261	0.596793
	C194	C	0.601636	0.092839	0.403218
	C195	C	0.409756	0.911519	0.405401
	C196	C	0.599132	0.406404	0.091499
	C197	C	0.598960	0.597084	0.910556
	C198	C	0.406712	0.598981	0.090548
	C199	C	0.408256	0.407292	0.910434
	C200	C	0.093526	0.595718	0.407677
	C201	C	0.914165	0.597525	0.596564
	C202	C	0.095034	0.404577	0.597876
	C203	C	0.913589	0.405343	0.405131
	C204	C	0.908311	0.592827	0.096539
	C205	C	0.100434	0.411626	0.097165
	C206	C	0.100164	0.593145	0.903768
	C207	C	0.908095	0.411696	0.906058
	C208	C	0.098430	0.908060	0.591385
	C209	C	0.099782	0.096591	0.411792
	C210	C	0.907185	0.099011	0.592374
	C211	C	0.908898	0.906570	0.410847
	C212	C	0.594261	0.098851	0.905431
	C213	C	0.413524	0.098794	0.096412
	C214	C	0.594637	0.905594	0.096136
	C215	C	0.413908	0.907976	0.906033
	Zn216	Zn	0.504428	0.003521	0.750889
	Zn217	Zn	0.504626	0.001988	0.250207
	Zn218	Zn	0.753805	0.502423	0.001722
	Zn219	Zn	0.253545	0.502483	0.000674
	Zn220	Zn	0.004058	0.752575	0.501901
	Zn221	Zn	0.004076	0.251569	0.501074
	Zn222	Zn	0.003704	0.501727	0.751323
	Zn223	Zn	0.004155	0.502483	0.251358
	Zn224	Zn	0.503773	0.752465	0.000336
	Zn225	Zn	0.503843	0.252987	0.000820
	Zn226	Zn	0.754868	0.002383	0.499842
	Zn227	Zn	0.254460	0.001397	0.501305
	N228	N	0.418450	0.967528	0.680527
	N229	N	0.592306	0.038217	0.681548
	N230	N	0.591942	0.967312	0.320016
	N231	N	0.418619	0.036980	0.321649
	N232	N	0.684548	0.415404	0.966578
	N233	N	0.683592	0.589652	0.035689
	N234	N	0.322952	0.589821	0.965174
	N235	N	0.323910	0.415964	0.035859
	N236	N	0.969902	0.682613	0.414740
	N237	N	0.038136	0.683308	0.589774
	N238	N	0.968786	0.322518	0.587142
	N239	N	0.038359	0.320141	0.412876
	N240	N	0.968526	0.415866	0.680462
	N241	N	0.039013	0.588097	0.680845
	N242	N	0.969346	0.588422	0.322372
	N243	N	0.038660	0.414524	0.320574
	N244	N	0.415755	0.683618	0.965339
	N245	N	0.589235	0.681471	0.035716
	N246	N	0.591377	0.322653	0.965878
	N247	N	0.417632	0.323210	0.036052
	N248	N	0.684859	0.967155	0.413365
	N249	N	0.683545	0.038651	0.585949
	N250	N	0.323362	0.967675	0.589467
	N251	N	0.323711	0.035915	0.413453
	N252	N	0.916975	0.468083	0.181626
	N253	N	0.091478	0.536440	0.181750
	N254	N	0.091348	0.467348	0.820406
	N255	N	0.917305	0.536828	0.821790
	N256	N	0.186361	0.913053	0.468138
	N257	N	0.184612	0.088642	0.536661
	N258	N	0.825150	0.088526	0.465735
	N259	N	0.822703	0.914459	0.535215
	N260	N	0.470119	0.185262	0.912110
	N261	N	0.538269	0.183173	0.087809
	N262	N	0.469326	0.821920	0.087726
	N263	N	0.537947	0.821539	0.912660
	N264	N	0.469920	0.914681	0.181351
	N265	N	0.538615	0.089093	0.180086
	N266	N	0.469894	0.091189	0.820121
	N267	N	0.538996	0.916346	0.820980
	N268	N	0.916806	0.182824	0.466728
	N269	N	0.091850	0.182302	0.536137
	N270	N	0.092263	0.821191	0.467879
	N271	N	0.917054	0.822516	0.536303
	N272	N	0.184540	0.467937	0.913236
	N273	N	0.184409	0.536809	0.088374
	N274	N	0.822957	0.468669	0.089591
	N275	N	0.822761	0.536345	0.913792
	O276	O	-0.048735	0.938038	0.086855
	H277	H	-0.037552	0.946591	0.093831
	H278	H	-0.035217	0.939533	0.088534
	O279	O	0.441100	0.482158	0.347100
	H280	H	0.444575	0.497587	0.348842
	H281	H	0.436792	0.494889	0.345771
	O282	O	1.224257	0.219373	1.035433
	H283	H	1.219310	0.200860	1.014654
	H284	H	1.245129	0.241259	1.025643
	O285	O	0.635179	0.411005	0.536993
	H286	H	0.623986	0.402745	0.520940
	H287	H	0.642276	0.421341	0.543401
	O288	O	0.395706	0.604667	0.703519
	H289	H	0.400900	0.615137	0.696810
	H290	H	0.382568	0.601775	0.701042
	O291	O	0.708213	0.313478	0.459651
	H292	H	0.723591	0.300964	0.463011
	H293	H	0.695841	0.304096	0.450665
	O294	O	0.947775	-0.054264	0.771925
	H295	H	0.955250	-0.055526	0.779253
	H296	H	0.947076	-0.035911	0.758846
	O297	O	0.469678	0.719919	0.286672
	H298	H	0.461113	0.720865	0.287697
	H299	H	0.466404	0.738583	0.272879
	O300	O	-0.031610	0.224445	0.779481
	H301	H	-0.054620	0.217868	0.788636
	H302	H	-0.027798	0.246420	0.745066
	O303	O	0.288244	0.721753	0.485958
	H304	H	0.287576	0.733936	0.481771
	H305	H	0.277406	0.729086	0.470224
	O306	O	0.715340	0.709635	0.621090
	H307	H	0.724951	0.715297	0.639513
	H308	H	0.718666	0.708229	0.614526
	O309	O	0.533060	0.601885	0.715048
	H310	H	0.521138	0.612836	0.716283
	H311	H	0.521584	0.604497	0.714519
	O312	O	0.449231	0.665271	0.532274
	H313	H	0.439456	0.661087	0.548505
	H314	H	0.446774	0.671236	0.529667
	O315	O	1.071552	1.132970	0.856081
	H316	H	1.075601	1.136243	0.854508
	H317	H	1.061963	1.136165	0.855533
	O318	O	0.368036	0.400322	0.452250
	H319	H	0.375017	0.399874	0.465323
	H320	H	0.369520	0.412788	0.461605
	O321	O	0.220472	0.879117	0.786435
	H322	H	0.214837	0.876227	0.777084
	H323	H	0.204951	0.884628	0.789019
	O324	O	0.990919	0.793303	0.208896
	H325	H	1.006402	0.818470	0.216426
	H326	H	0.993884	0.786059	0.203303
	O327	O	0.062213	0.035670	0.822059
	H328	H	0.066015	0.040031	0.824171
	H329	H	0.072710	0.039725	0.825168
	O330	O	0.797486	0.210636	0.205244
	H331	H	0.781764	0.206362	0.208407
	H332	H	0.815549	0.201471	0.198559
	O333	O	0.295801	0.453343	0.503458
	H334	H	0.292523	0.457956	0.498337
	H335	H	0.307247	0.472674	0.499729
	O336	O	0.374894	0.455553	0.566003
	H337	H	0.378967	0.451132	0.551465
	H338	H	0.377919	0.453548	0.569509
	O339	O	1.169603	0.023018	1.172858
	H340	H	1.162414	0.045118	1.157656
	H341	H	1.188784	0.029364	1.196801
	O342	O	0.072614	0.038382	0.090979
	H343	H	0.066551	0.050291	0.090858
	H344	H	0.079781	0.046800	0.093655
	O345	O	-0.029107	1.074587	1.106643
	H346	H	-0.043094	1.084526	1.116899
	H347	H	-0.015057	1.088831	1.110839
	O348	O	0.223599	-0.057536	0.041702
	H349	H	0.225752	-0.062358	0.052172
	H350	H	0.220193	-0.075259	0.048437
	O351	O	0.554715	0.473092	0.351709
	H352	H	0.562999	0.464107	0.346658
	H353	H	0.570905	0.466139	0.356911
	O354	O	0.037196	0.216166	1.217023
	H355	H	0.050607	0.207206	1.220118
	H356	H	0.046028	0.237097	1.231210
	O357	O	0.680496	0.292248	0.295869
	H358	H	0.687279	0.290747	0.286842
	H359	H	0.670963	0.315954	0.302904
	O360	O	0.275347	0.271736	0.730706
	H361	H	0.270510	0.272532	0.713080
	H362	H	0.303614	0.268973	0.716780
	O363	O	-0.213359	-0.214286	0.022891
	H364	H	-0.207877	-0.211236	0.043923
	H365	H	-0.234329	-0.227045	0.034245
	O366	O	0.618569	0.375750	0.707201
	H367	H	0.618294	0.395936	0.702940
	H368	H	0.607986	0.392204	0.703682
	O369	O	0.892440	0.130830	0.032552
	H370	H	0.899452	0.140199	0.037797
	H371	H	0.886964	0.142694	0.016581
	O372	O	0.822030	0.812677	-0.188270
	H373	H	0.846040	0.829054	-0.176491
	H374	H	0.823300	0.822010	-0.173459
	O375	O	0.784324	0.222435	-0.026404
	H376	H	0.777391	0.233566	-0.047456
	H377	H	0.770614	0.228449	-0.027424
	O378	O	0.506422	0.599649	0.448170
	H379	H	0.515588	0.594806	0.442127
	H380	H	0.520277	0.601996	0.449828
	O381	O	0.126995	0.855306	0.871651
	H382	H	0.115734	0.860409	0.875688
	H383	H	0.123878	0.848769	0.865486
	O384	O	0.807634	0.206330	0.804796
	H385	H	0.819631	0.192179	0.802478
	H386	H	0.786305	0.200082	0.792332
	O387	O	1.195461	0.812022	0.189439
	H388	H	1.197740	0.804305	0.183503
	H389	H	1.167648	0.831623	0.192092
	O390	O	0.512818	0.322111	0.285122
	H391	H	0.525564	0.325555	0.298887
	H392	H	0.509008	0.308629	0.263435
	O393	O	0.563071	0.670789	0.472596
	H394	H	0.569685	0.667689	0.485527
	H395	H	0.561303	0.659647	0.466747
	O396	O	0.050444	0.802049	1.043259
	H397	H	0.044801	0.802953	1.036478
	H398	H	0.053683	0.801461	1.043970
	O399	O	0.085343	0.217900	0.946892
	H400	H	0.093235	0.217904	0.926503
	H401	H	0.072976	0.219449	0.945685
	O402	O	0.287935	0.284339	0.524077
	H403	H	0.278737	0.310450	0.512636
	H404	H	0.264395	0.268362	0.517475
	O405	O	0.788341	0.023195	1.041745
	H406	H	0.791432	0.013812	1.037197
	H407	H	0.795137	0.041648	1.048641
	O408	O	-0.044080	-0.223162	-0.036832
	H409	H	-0.050964	-0.217224	-0.023768
	H410	H	-0.054638	-0.224048	-0.029185
	O411	O	0.616460	0.709732	0.707594
	H412	H	0.593774	0.715335	0.712044
	H413	H	0.636330	0.732957	0.730672
	O414	O	0.684024	0.528579	0.550709
	H415	H	0.681909	0.547341	0.547646
	H416	H	0.670958	0.533041	0.557449
	O417	O	0.579438	0.471587	0.607534
	H418	H	0.578540	0.477585	0.603664
	H419	H	0.571004	0.481419	0.623848
	O420	O	0.321773	0.624688	0.605677
	H421	H	0.303673	0.640021	0.618470
	H422	H	0.326752	0.639637	0.590653
	O423	O	-0.211198	0.044746	0.784215
	H424	H	-0.206998	0.031119	0.807987
	H425	H	-0.238994	0.035744	0.765054
	O426	O	0.541101	0.363881	0.494789
	H427	H	0.542112	0.361626	0.493160
	H428	H	0.531723	0.369944	0.510056
	O429	O	1.226447	1.070913	0.937291
	H430	H	1.224960	1.060046	0.927775
	H431	H	1.219483	1.055647	0.944138
	O432	O	0.622917	0.632711	0.489399
	H433	H	0.622131	0.628518	0.489449
	H434	H	0.616107	0.637565	0.493838
	O435	O	0.217735	0.786298	-0.031712
	H436	H	0.228901	0.775278	-0.033348
	H437	H	0.217020	0.778351	-0.040918
	O438	O	-0.050091	0.068676	0.037894
	H439	H	-0.051833	0.062433	0.051836
	H440	H	-0.067157	0.075122	0.035530
	O441	O	0.105473	-0.022380	0.214028
	H442	H	0.127978	-0.012477	0.220359
	H443	H	0.101888	0.004803	0.209290
	O444	O	0.210088	0.209686	0.206981
	H445	H	0.234569	0.231414	0.202405
	H446	H	0.194109	0.209459	0.182231
	O447	O	0.039934	0.793712	0.795587
	H448	H	0.028554	0.785290	0.788331
	H449	H	0.035959	0.796369	0.807308
	O450	O	-0.216277	0.947506	0.914652
	H451	H	-0.198208	0.946800	0.916791
	H452	H	-0.217265	0.936417	0.931782
	O453	O	0.479920	0.287690	0.716967
	H454	H	0.497047	0.307191	0.705691
	H455	H	0.476244	0.258671	0.751134
	O456	O	0.161489	-0.013000	0.857105
	H457	H	0.160677	-0.017041	0.845300
	H458	H	0.168158	0.000686	0.875772
	O459	O	0.768623	0.772369	0.223977
	H460	H	0.795938	0.777576	0.223187
	H461	H	0.751417	0.753004	0.253235
	O462	O	0.716249	0.480339	0.285058
	H463	H	0.735088	0.476450	0.274288
	H464	H	0.723142	0.477562	0.301268
	O465	O	0.792128	-0.016005	0.210842
	H466	H	0.783094	-0.025648	0.205264
	H467	H	0.778498	-0.037953	0.223850
	O468	O	0.656003	0.654115	0.316275
	H469	H	0.643963	0.652863	0.343133
	H470	H	0.658591	0.624078	0.325748
	O471	O	0.289936	0.482294	0.699183
	H472	H	0.282343	0.470474	0.712012
	H473	H	0.283630	0.463359	0.706146
	O474	O	0.281358	0.529051	0.283137
	H475	H	0.296724	0.515466	0.263528
	H476	H	0.265001	0.541738	0.265965
	O477	O	0.416077	0.320552	1.426638
	H478	H	0.413466	0.325096	1.435939
	H479	H	0.421721	0.322697	1.436121
	O480	O	0.581831	0.412063	0.501184
	H481	H	0.588546	0.414617	0.493434
	H482	H	0.577670	0.404932	0.509202
	O483	O	0.710340	0.518800	0.655306
	H484	H	0.711078	0.527241	0.649964
	H485	H	0.722475	0.518964	0.663176
	O486	O	0.299545	0.701260	0.301065
	H487	H	0.306158	0.683601	0.288108
	H488	H	0.294860	0.705814	0.316065
	O489	O	0.926916	1.065793	0.205721
	H490	H	0.917282	1.070472	0.211701
	H491	H	0.923884	1.073131	0.204596
