data_Molecule from HDF5

_cell_length_a		16.303663
_cell_length_b		16.155348
_cell_length_c		16.256972
_cell_angle_alpha	89.862002
_cell_angle_beta	89.906024
_cell_angle_gamma	89.935979
_symmetry_space_group_name_H-M	'P 1'
_symmetry_Int_Tables_number		1

loop_
	_symmetry_equiv_pos_as_xyz
	x,y,z

loop_
	_atom_site_label
	_atom_site_type_symbol
	_atom_site_fract_x
	_atom_site_fract_y
	_atom_site_fract_z
	H0	H	0.398380	0.819155	0.715211
	H1	H	0.594901	0.148554	0.711050
	H2	H	0.595540	0.818528	0.287413
	H3	H	0.397770	0.148253	0.285820
	H4	H	0.714382	0.383102	0.837426
	H5	H	0.712667	0.583803	0.163977
	H6	H	0.281493	0.585701	0.837477
	H7	H	0.281377	0.382744	0.163671
	H8	H	0.833013	0.697583	0.403631
	H9	H	0.160540	0.697002	0.597245
	H10	H	0.832900	0.269725	0.597761
	H11	H	0.161621	0.270700	0.402768
	H12	H	0.834012	0.383243	0.716555
	H13	H	0.160664	0.582604	0.714237
	H14	H	0.832689	0.582642	0.285646
	H15	H	0.159732	0.383894	0.284426
	H16	H	0.401625	0.696959	0.835854
	H17	H	0.594317	0.696252	0.164944
	H18	H	0.595997	0.270950	0.835927
	H19	H	0.400813	0.269488	0.165046
	H20	H	0.713525	0.819437	0.400308
	H21	H	0.711869	0.147080	0.599344
	H22	H	0.283116	0.818874	0.600822
	H23	H	0.282473	0.147144	0.400305
	H24	H	0.897468	0.319062	0.214671
	H25	H	0.094978	0.648318	0.213279
	H26	H	0.095626	0.318612	0.787476
	H27	H	0.899389	0.649169	0.787424
	H28	H	0.214560	0.881432	0.337231
	H29	H	0.212912	0.081952	0.663899
	H30	H	0.782246	0.084290	0.336358
	H31	H	0.781650	0.883407	0.662849
	H32	H	0.333883	0.198828	0.901216
	H33	H	0.662502	0.195512	0.096391
	H34	H	0.333805	0.769708	0.098109
	H35	H	0.661750	0.769395	0.902229
	H36	H	0.334606	0.883706	0.216067
	H37	H	0.660558	0.083189	0.215757
	H38	H	0.334631	0.084253	0.782985
	H39	H	0.661737	0.884746	0.785023
	H40	H	0.899058	0.197992	0.335815
	H41	H	0.094571	0.196413	0.664795
	H42	H	0.094666	0.769982	0.336055
	H43	H	0.898107	0.769184	0.664559
	H44	H	0.213562	0.320048	0.900056
	H45	H	0.211454	0.647664	0.099693
	H46	H	0.783141	0.319655	0.100908
	H47	H	0.783416	0.648510	0.901555
	H48	H	0.398980	0.100080	0.583143
	H49	H	0.597765	0.864375	0.590382
	H50	H	0.589629	0.100606	0.408799
	H51	H	0.409562	0.866553	0.406231
	H52	H	0.596708	0.401180	0.116094
	H53	H	0.586135	0.573788	0.886037
	H54	H	0.406423	0.581611	0.118048
	H55	H	0.408986	0.387368	0.883286
	H56	H	0.114595	0.578955	0.402389
	H57	H	0.882429	0.574413	0.589583
	H58	H	0.109442	0.391086	0.582755
	H59	H	0.878653	0.389696	0.402491
	H60	H	0.112949	0.399193	0.600827
	H61	H	0.879600	0.572470	0.597932
	H62	H	0.112846	0.578265	0.409929
	H63	H	0.880605	0.387456	0.410536
	H64	H	0.396826	0.576304	0.119796
	H65	H	0.592630	0.583438	0.881396
	H66	H	0.580066	0.389452	0.113924
	H67	H	0.398782	0.391307	0.881945
	H68	H	0.590873	0.101457	0.407094
	H69	H	0.589273	0.863004	0.599706
	H70	H	0.400033	0.104162	0.599830
	H71	H	0.403533	0.865913	0.412041
	H72	H	0.898066	0.602088	0.087782
	H73	H	0.094998	0.364688	0.091745
	H74	H	0.102270	0.602559	0.915781
	H75	H	0.904403	0.365457	0.906372
	H76	H	0.095300	0.879900	0.621101
	H77	H	0.091135	0.072240	0.385133
	H78	H	0.905487	0.075846	0.616510
	H79	H	0.900602	0.877197	0.377623
	H80	H	0.618149	0.090847	0.906743
	H81	H	0.379044	0.079125	0.099211
	H82	H	0.611081	0.890166	0.083403
	H83	H	0.380198	0.886499	0.905831
	H84	H	0.613765	0.898827	0.099423
	H85	H	0.382124	0.080470	0.086650
	H86	H	0.608588	0.069272	0.916990
	H87	H	0.382714	0.891811	0.911495
	H88	H	0.903118	0.075701	0.616814
	H89	H	0.087392	0.077912	0.383968
	H90	H	0.098111	0.900968	0.615746
	H91	H	0.894431	0.904186	0.384299
	H92	H	0.090994	0.605581	0.893014
	H93	H	0.087228	0.364829	0.096831
	H94	H	0.903422	0.604078	0.100359
	H95	H	0.908001	0.367398	0.909264
	H96	H	0.414418	0.098252	0.591639
	H97	H	0.585762	0.867358	0.588667
	H98	H	0.588915	0.101262	0.406824
	H99	H	0.401981	0.863436	0.404793
	H100	H	0.596707	0.381016	0.121452
	H101	H	0.598327	0.572218	0.883143
	H102	H	0.406154	0.571333	0.115972
	H103	H	0.407011	0.397975	0.886354
	H104	H	0.112659	0.571911	0.405083
	H105	H	0.878105	0.581038	0.594930
	H106	H	0.117721	0.379669	0.597885
	H107	H	0.881719	0.396002	0.407392
	H108	H	0.911343	0.598886	0.089851
	H109	H	0.087094	0.368398	0.088405
	H110	H	0.076748	0.596022	0.912892
	H111	H	0.903071	0.366342	0.910603
	H112	H	0.078288	0.891973	0.613248
	H113	H	0.094259	0.077855	0.382984
	H114	H	0.903511	0.073821	0.616227
	H115	H	0.920192	0.893922	0.387890
	H116	H	0.615635	0.070013	0.891950
	H117	H	0.384386	0.068857	0.092230
	H118	H	0.618300	0.881636	0.098194
	H119	H	0.381737	0.894309	0.903064
	C120	C	0.376192	-0.008008	0.620968
	C121	C	0.618880	0.973800	0.621141
	C122	C	0.618810	-0.007770	0.378992
	C123	C	0.376035	0.974329	0.378583
	C124	C	0.619899	0.362052	0.008876
	C125	C	0.619686	0.604894	0.991992
	C126	C	0.375517	0.605347	0.009064
	C127	C	0.376062	0.362270	0.992180
	C128	C	0.005111	0.605413	0.377598
	C129	C	0.988295	0.604684	0.621892
	C130	C	0.005431	0.361102	0.622538
	C131	C	0.988502	0.361932	0.378071
	C132	C	0.875963	0.492626	0.121639
	C133	C	0.118084	0.474612	0.121147
	C134	C	0.118829	0.492457	0.878789
	C135	C	0.876510	0.475446	0.879661
	C136	C	0.119108	0.861590	0.508823
	C137	C	0.119719	0.104678	0.492057
	C138	C	0.875532	0.104850	0.508226
	C139	C	0.875800	0.862273	0.491514
	C140	C	0.506039	0.106155	0.876587
	C141	C	0.489792	0.104912	0.121242
	C142	C	0.506262	0.861448	0.122429
	C143	C	0.489606	0.862046	0.878129
	C144	C	0.378392	0.868220	0.676909
	C145	C	0.615804	0.098984	0.674639
	C146	C	0.616415	0.867814	0.324670
	C147	C	0.378186	0.098751	0.323737
	C148	C	0.675657	0.363749	0.885958
	C149	C	0.674316	0.603217	0.115417
	C150	C	0.320265	0.604204	0.885973
	C151	C	0.319966	0.363147	0.114982
	C152	C	0.881778	0.660077	0.382196
	C153	C	0.111732	0.659740	0.618689
	C154	C	0.882199	0.306453	0.619458
	C155	C	0.112042	0.307764	0.381810
	C156	C	0.882741	0.363033	0.678350
	C157	C	0.111710	0.602744	0.676530
	C158	C	0.881669	0.602852	0.323466
	C159	C	0.111309	0.363729	0.322838
	C160	C	0.379591	0.659964	0.885333
	C161	C	0.615449	0.658978	0.115945
	C162	C	0.616865	0.307908	0.885202
	C163	C	0.379202	0.306873	0.115739
	C164	C	0.674858	0.868380	0.380767
	C165	C	0.673873	0.098294	0.619184
	C166	C	0.321258	0.867835	0.619972
	C167	C	0.320383	0.098106	0.380174
	C168	C	0.877641	0.368301	0.176736
	C169	C	0.115399	0.599116	0.175839
	C170	C	0.116407	0.367997	0.824514
	C171	C	0.879061	0.599691	0.825036
	C172	C	0.175197	0.862736	0.385776
	C173	C	0.174833	0.102195	0.615187
	C174	C	0.820464	0.103641	0.385144
	C175	C	0.820388	0.863593	0.614647
	C176	C	0.383008	0.161498	0.879725
	C177	C	0.613128	0.158935	0.117559
	C178	C	0.382838	0.807118	0.119079
	C179	C	0.612843	0.807277	0.881487
	C180	C	0.383269	0.863727	0.177688
	C181	C	0.612448	0.102549	0.176640
	C182	C	0.383328	0.104265	0.821249
	C183	C	0.612740	0.864631	0.823221
	C184	C	0.878563	0.160291	0.385014
	C185	C	0.116160	0.159168	0.615550
	C186	C	0.116265	0.806718	0.385172
	C187	C	0.878135	0.806630	0.615145
	C188	C	0.174815	0.368683	0.880763
	C189	C	0.173102	0.598789	0.119266
	C190	C	0.820762	0.368703	0.120340
	C191	C	0.821459	0.599477	0.881842
	C192	C	0.397970	0.078483	0.598075
	C193	C	0.597308	0.887454	0.599487
	C194	C	0.596435	0.078754	0.401229
	C195	C	0.398488	0.887633	0.401116
	C196	C	0.597752	0.384240	0.095020
	C197	C	0.598661	0.582951	0.905826
	C198	C	0.396835	0.582987	0.095619
	C199	C	0.398462	0.385385	0.906179
	C200	C	0.091359	0.582943	0.399187
	C201	C	0.902425	0.582654	0.600394
	C202	C	0.091175	0.383523	0.600374
	C203	C	0.902585	0.384366	0.400099
	C204	C	0.897822	0.579166	0.099311
	C205	C	0.096254	0.388312	0.098897
	C206	C	0.096721	0.578981	0.900840
	C207	C	0.898632	0.388659	0.902255
	C208	C	0.097164	0.884261	0.594574
	C209	C	0.097593	0.082472	0.406230
	C210	C	0.897469	0.081746	0.594344
	C211	C	0.898375	0.885090	0.405544
	C212	C	0.591882	0.083520	0.898624
	C213	C	0.403973	0.082671	0.099210
	C214	C	0.592177	0.883679	0.100329
	C215	C	0.403607	0.884373	0.900116
	Zn216	Zn	0.498230	-0.016526	0.748214
	Zn217	Zn	0.497717	-0.016690	0.250916
	Zn218	Zn	0.748500	0.483780	0.000865
	Zn219	Zn	0.246548	0.483856	0.000466
	Zn220	Zn	-0.002807	0.733648	0.500586
	Zn221	Zn	-0.002917	0.233385	0.500042
	Zn222	Zn	-0.002697	0.483915	0.750880
	Zn223	Zn	-0.003239	0.483357	0.248861
	Zn224	Zn	0.498000	0.732833	0.000445
	Zn225	Zn	0.498303	0.233908	-0.000081
	Zn226	Zn	0.746752	-0.016524	0.500271
	Zn227	Zn	0.248472	-0.017711	0.500157
	N228	N	0.411853	0.946360	0.677723
	N229	N	0.582135	0.020896	0.675804
	N230	N	0.582181	0.945679	0.323621
	N231	N	0.412054	0.020604	0.322554
	N232	N	0.677823	0.396759	0.963960
	N233	N	0.677014	0.569998	0.037589
	N234	N	0.317542	0.571023	0.964125
	N235	N	0.317927	0.396898	0.037165
	N236	N	0.959431	0.661517	0.415202
	N237	N	0.034078	0.661201	0.585479
	N238	N	0.959406	0.305146	0.585526
	N239	N	0.034431	0.306334	0.415274
	N240	N	0.960545	0.396242	0.680561
	N241	N	0.034036	0.569268	0.678709
	N242	N	0.959539	0.569638	0.320577
	N243	N	0.033548	0.396774	0.320439
	N244	N	0.413172	0.660648	0.962772
	N245	N	0.582252	0.660288	0.038180
	N246	N	0.582774	0.306916	0.962609
	N247	N	0.413315	0.306280	0.038237
	N248	N	0.676280	0.946657	0.414103
	N249	N	0.675940	0.019761	0.586356
	N250	N	0.319838	0.945857	0.585830
	N251	N	0.318902	0.019806	0.413515
	N252	N	0.911284	0.446367	0.177927
	N253	N	0.081852	0.520968	0.177274
	N254	N	0.082231	0.445947	0.823294
	N255	N	0.912656	0.521608	0.823577
	N256	N	0.176971	0.896322	0.463543
	N257	N	0.177063	0.068883	0.537349
	N258	N	0.818325	0.069934	0.462936
	N259	N	0.818841	0.897511	0.537011
	N260	N	0.460318	0.162573	0.913510
	N261	N	0.535718	0.160384	0.083737
	N262	N	0.460259	0.805618	0.085234
	N263	N	0.535349	0.805542	0.914938
	N264	N	0.461001	0.896933	0.179723
	N265	N	0.534627	0.069842	0.179231
	N266	N	0.460957	0.070593	0.819178
	N267	N	0.535001	0.898194	0.821165
	N268	N	0.912211	0.161199	0.462661
	N269	N	0.082764	0.161002	0.537974
	N270	N	0.081761	0.806169	0.462298
	N271	N	0.912090	0.805833	0.537448
	N272	N	0.176393	0.446980	0.913691
	N273	N	0.174876	0.520636	0.086078
	N274	N	0.819592	0.447039	0.086607
	N275	N	0.819932	0.521109	0.915192
	O276	O	1.051032	0.984510	0.045590
	H277	H	1.052270	0.985233	0.046210
	H278	H	1.064453	0.979817	0.045810
	O279	O	0.026764	-0.046664	0.021847
	H280	H	0.024795	-0.047975	0.009622
	H281	H	0.015393	-0.048411	0.022844
	O282	O	0.046774	-0.035518	1.023762
	H283	H	0.052063	-0.042805	1.020039
	H284	H	0.043349	-0.032702	1.027315
	O285	O	1.399939	1.474223	0.547148
	H286	H	1.396667	1.473524	0.547259
	H287	H	1.400021	1.473392	0.547967
	O288	O	-0.005398	1.006046	-0.018491
	H289	H	-0.000455	1.005084	-0.019502
	H290	H	0.001457	1.005099	-0.016977
	O291	O	0.426697	0.482205	0.567856
	H292	H	0.430397	0.478906	0.567369
	H293	H	0.427483	0.482168	0.575193
	O294	O	0.046047	-0.056171	0.003127
	H295	H	0.038994	-0.054872	0.006399
	H296	H	0.050553	-0.046339	0.003608
	O297	O	0.047159	0.953076	1.008409
	H298	H	0.054202	0.950024	1.003955
	H299	H	0.050944	0.946100	1.001727
	O300	O	0.091526	1.039339	1.028868
	H301	H	0.096013	1.045646	1.023971
	H302	H	0.086804	1.032602	1.041545
	O303	O	0.461160	0.473148	0.551386
	H304	H	0.465877	0.469194	0.555845
	H305	H	0.456117	0.472741	0.554482
	O306	O	0.003718	0.046611	1.015047
	H307	H	0.010239	0.048299	1.020605
	H308	H	0.002421	0.054062	1.014951
	O309	O	1.044260	0.982395	0.962612
	H310	H	1.038814	0.976147	0.969358
	H311	H	1.047272	0.984331	0.970048
	O312	O	0.410243	0.471774	0.584061
	H313	H	0.411513	0.467220	0.590308
	H314	H	0.413801	0.476626	0.593209
	O315	O	0.474315	0.478074	0.576492
	H316	H	0.468690	0.472399	0.571280
	H317	H	0.472844	0.472235	0.582465
	O318	O	0.444795	1.466246	-0.450040
	H319	H	0.441395	1.477287	-0.456558
	H320	H	0.444776	1.465973	-0.453592
	O321	O	1.069514	0.931390	-0.041694
	H322	H	1.076811	0.935303	-0.042290
	H323	H	1.069032	0.937650	-0.049081
