data_Molecule from HDF5

_cell_length_a		16.551230
_cell_length_b		16.688325
_cell_length_c		16.505935
_cell_angle_alpha	89.814315
_cell_angle_beta	90.061578
_cell_angle_gamma	89.931613
_symmetry_space_group_name_H-M	'P 1'
_symmetry_Int_Tables_number		1

loop_
	_symmetry_equiv_pos_as_xyz
	x,y,z

loop_
	_atom_site_label
	_atom_site_type_symbol
	_atom_site_fract_x
	_atom_site_fract_y
	_atom_site_fract_z
	H0	H	0.410611	0.835548	0.735304
	H1	H	0.619477	0.146974	0.738844
	H2	H	0.621163	0.838739	0.292192
	H3	H	0.408411	0.147736	0.292701
	H4	H	0.730009	0.393448	0.854861
	H5	H	0.732733	0.595029	0.173128
	H6	H	0.290575	0.599135	0.860163
	H7	H	0.290506	0.383601	0.169952
	H8	H	0.856401	0.713411	0.410276
	H9	H	0.168862	0.715589	0.622363
	H10	H	0.856880	0.272214	0.621528
	H11	H	0.170213	0.271158	0.410853
	H12	H	0.854442	0.392820	0.732725
	H13	H	0.168883	0.598463	0.738135
	H14	H	0.855062	0.593798	0.297839
	H15	H	0.170020	0.387993	0.295312
	H16	H	0.405972	0.715850	0.860617
	H17	H	0.619012	0.712834	0.172453
	H18	H	0.618777	0.273472	0.856544
	H19	H	0.407404	0.267661	0.169622
	H20	H	0.736895	0.838073	0.409500
	H21	H	0.738017	0.146388	0.623644
	H22	H	0.293238	0.836248	0.619863
	H23	H	0.291097	0.147511	0.408962
	H24	H	0.911977	0.335996	0.235116
	H25	H	0.121065	0.646807	0.239415
	H26	H	0.118884	0.337518	0.793757
	H27	H	0.914061	0.651069	0.798795
	H28	H	0.232857	0.890472	0.357492
	H29	H	0.232652	0.093320	0.674420
	H30	H	0.791920	0.098485	0.360099
	H31	H	0.797877	0.892612	0.674761
	H32	H	0.358355	0.214175	0.909265
	H33	H	0.670939	0.212480	0.120050
	H34	H	0.358222	0.769427	0.124347
	H35	H	0.669752	0.772390	0.912217
	H36	H	0.356625	0.889056	0.236156
	H37	H	0.670423	0.096583	0.236864
	H38	H	0.355898	0.095144	0.796827
	H39	H	0.670700	0.890406	0.797151
	H40	H	0.907663	0.215218	0.360418
	H41	H	0.118306	0.211624	0.674202
	H42	H	0.119361	0.772819	0.358066
	H43	H	0.913330	0.775569	0.673322
	H44	H	0.238768	0.339214	0.907188
	H45	H	0.239643	0.645039	0.125493
	H46	H	0.796373	0.334803	0.116174
	H47	H	0.797047	0.651297	0.915573
	H48	H	0.423669	0.103856	0.604840
	H49	H	0.609282	0.880467	0.603273
	H50	H	0.605392	0.103039	0.431336
	H51	H	0.424393	0.881877	0.427195
	H52	H	0.601913	0.404461	0.125873
	H53	H	0.604383	0.581000	0.902803
	H54	H	0.427706	0.585327	0.129193
	H55	H	0.431077	0.402327	0.904242
	H56	H	0.126138	0.580689	0.425099
	H57	H	0.900643	0.584922	0.607353
	H58	H	0.127117	0.400509	0.608151
	H59	H	0.902139	0.406163	0.424606
	H60	H	0.125314	0.401454	0.601239
	H61	H	0.900667	0.586369	0.602931
	H62	H	0.127380	0.585175	0.427287
	H63	H	0.899710	0.399388	0.426661
	H64	H	0.422055	0.575397	0.127229
	H65	H	0.599999	0.584727	0.902567
	H66	H	0.602504	0.394667	0.129084
	H67	H	0.422721	0.405385	0.901457
	H68	H	0.601408	0.104503	0.423218
	H69	H	0.601504	0.879859	0.612244
	H70	H	0.421416	0.104959	0.605182
	H71	H	0.422029	0.880923	0.426662
	H72	H	0.927075	0.602483	0.103243
	H73	H	0.095871	0.384870	0.103441
	H74	H	0.106738	0.601828	0.934958
	H75	H	0.913549	0.377620	0.920078
	H76	H	0.098890	0.907651	0.624650
	H77	H	0.104738	0.083499	0.403379
	H78	H	0.925189	0.083001	0.629707
	H79	H	0.926820	0.902210	0.402620
	H80	H	0.627440	0.084796	0.924489
	H81	H	0.402847	0.076876	0.105093
	H82	H	0.624608	0.903781	0.103391
	H83	H	0.403073	0.908872	0.925304
	H84	H	0.625662	0.901750	0.104248
	H85	H	0.400991	0.085154	0.103246
	H86	H	0.626443	0.083680	0.928434
	H87	H	0.397435	0.898650	0.921920
	H88	H	0.924841	0.080778	0.628592
	H89	H	0.100849	0.080012	0.405049
	H90	H	0.099218	0.897305	0.628542
	H91	H	0.921826	0.900363	0.400759
	H92	H	0.102580	0.605928	0.921146
	H93	H	0.103524	0.383284	0.099227
	H94	H	0.915256	0.605782	0.104374
	H95	H	0.926049	0.380590	0.918928
	H96	H	0.423053	0.104684	0.607142
	H97	H	0.598403	0.884123	0.602184
	H98	H	0.596549	0.100003	0.429599
	H99	H	0.423955	0.880589	0.424852
	H100	H	0.611297	0.401103	0.128691
	H101	H	0.605107	0.586235	0.901561
	H102	H	0.432965	0.576804	0.123716
	H103	H	0.428266	0.410249	0.906239
	H104	H	0.124785	0.582028	0.430127
	H105	H	0.901896	0.582273	0.604117
	H106	H	0.123996	0.406353	0.605576
	H107	H	0.903184	0.403944	0.431912
	H108	H	0.922474	0.606892	0.113749
	H109	H	0.102556	0.379722	0.107265
	H110	H	0.093085	0.598644	0.930485
	H111	H	0.920401	0.382067	0.929979
	H112	H	0.108671	0.904371	0.629079
	H113	H	0.099416	0.085733	0.404201
	H114	H	0.926971	0.082416	0.628320
	H115	H	0.922830	0.905975	0.401888
	H116	H	0.626227	0.080749	0.925568
	H117	H	0.404633	0.080356	0.096899
	H118	H	0.624648	0.901899	0.102349
	H119	H	0.401054	0.900206	0.933062
	C120	C	0.392019	0.000826	0.637054
	C121	C	0.635338	0.983970	0.638178
	C122	C	0.635071	0.000835	0.394578
	C123	C	0.391596	0.983900	0.393637
	C124	C	0.635454	0.370769	0.022883
	C125	C	0.634644	0.614186	1.006682
	C126	C	0.393216	0.613058	0.024213
	C127	C	0.393580	0.371633	1.006477
	C128	C	0.022023	0.613857	0.395029
	C129	C	1.004682	0.615304	0.636851
	C130	C	0.021637	0.371711	0.637122
	C131	C	1.005030	0.371237	0.395463
	C132	C	0.891340	0.500937	0.137274
	C133	C	0.134737	0.484223	0.137176
	C134	C	0.134603	0.500542	0.894808
	C135	C	0.891113	0.484485	0.893627
	C136	C	0.134641	0.871630	0.523325
	C137	C	0.134089	0.113871	0.508155
	C138	C	0.892778	0.114323	0.525317
	C139	C	0.893263	0.872464	0.506662
	C140	C	0.522813	0.114258	0.893665
	C141	C	0.505858	0.113365	0.135341
	C142	C	0.521875	0.870811	0.136826
	C143	C	0.504668	0.871546	0.895545
	C144	C	0.391555	0.882861	0.695894
	C145	C	0.637958	0.100644	0.698660
	C146	C	0.638743	0.884994	0.333103
	C147	C	0.389522	0.101005	0.332909
	C148	C	0.692559	0.372460	0.903148
	C149	C	0.693564	0.614054	0.125565
	C150	C	0.331095	0.617318	0.907219
	C151	C	0.331576	0.366471	0.123468
	C152	C	0.903443	0.673183	0.392565
	C153	C	0.122076	0.675399	0.640270
	C154	C	0.903714	0.312424	0.639372
	C155	C	0.122925	0.311310	0.392850
	C156	C	0.902604	0.372295	0.694711
	C157	C	0.122087	0.617097	0.697753
	C158	C	0.902853	0.613901	0.336509
	C159	C	0.123139	0.369603	0.335516
	C160	C	0.388249	0.675439	0.907367
	C161	C	0.636859	0.672605	0.125294
	C162	C	0.636608	0.313372	0.903592
	C163	C	0.389664	0.308959	0.123187
	C164	C	0.696433	0.884557	0.391452
	C165	C	0.696616	0.100286	0.641297
	C166	C	0.333174	0.883223	0.638278
	C167	C	0.331253	0.100810	0.390763
	C168	C	0.892191	0.382705	0.195298
	C169	C	0.138993	0.600006	0.198959
	C170	C	0.137637	0.384378	0.833687
	C171	C	0.893541	0.603747	0.837431
	C172	C	0.193561	0.871332	0.404872
	C173	C	0.193418	0.113335	0.626988
	C174	C	0.832509	0.116658	0.406952
	C175	C	0.836596	0.873147	0.626703
	C176	C	0.404715	0.173567	0.891592
	C177	C	0.623750	0.172933	0.138305
	C178	C	0.404827	0.810287	0.141182
	C179	C	0.622805	0.812352	0.893713
	C180	C	0.403864	0.869910	0.196665
	C181	C	0.623634	0.115056	0.196109
	C182	C	0.403746	0.114533	0.835540
	C183	C	0.623281	0.871086	0.836734
	C184	C	0.889732	0.174698	0.407228
	C185	C	0.136483	0.171986	0.626945
	C186	C	0.137168	0.812627	0.405215
	C187	C	0.893788	0.814873	0.626175
	C188	C	0.196986	0.385015	0.890428
	C189	C	0.197673	0.599462	0.141919
	C190	C	0.834898	0.382270	0.136308
	C191	C	0.835453	0.603812	0.895360
	C192	C	0.415835	0.083004	0.612623
	C193	C	0.610127	0.902692	0.613023
	C194	C	0.608739	0.081688	0.420713
	C195	C	0.416527	0.902419	0.418918
	C196	C	0.611962	0.393487	0.106180
	C197	C	0.610180	0.590796	0.923859
	C198	C	0.419927	0.586518	0.105482
	C199	C	0.419684	0.398407	0.925003
	C200	C	0.104500	0.589555	0.420254
	C201	C	0.922535	0.591206	0.611696
	C202	C	0.104095	0.395930	0.612179
	C203	C	0.922956	0.396064	0.420619
	C204	C	0.914816	0.583664	0.113844
	C205	C	0.108257	0.403594	0.110599
	C206	C	0.108287	0.581186	0.921376
	C207	C	0.913604	0.401576	0.916361
	C208	C	0.109510	0.896003	0.605957
	C209	C	0.108959	0.089991	0.425447
	C210	C	0.918353	0.089119	0.607414
	C211	C	0.916947	0.895980	0.423395
	C212	C	0.605302	0.090056	0.918697
	C213	C	0.424142	0.088207	0.109372
	C214	C	0.603724	0.895413	0.110879
	C215	C	0.422038	0.895660	0.919824
	Zn216	Zn	0.513038	-0.007826	0.766568
	Zn217	Zn	0.513706	-0.007682	0.264965
	Zn218	Zn	0.762571	0.492321	0.014854
	Zn219	Zn	0.264516	0.492324	0.016153
	Zn220	Zn	0.013753	0.743224	0.514691
	Zn221	Zn	0.013638	0.242855	0.516872
	Zn222	Zn	0.013147	0.493145	0.765130
	Zn223	Zn	0.013435	0.492421	0.266381
	Zn224	Zn	0.513056	0.742076	0.016333
	Zn225	Zn	0.514987	0.242804	0.014111
	Zn226	Zn	0.763963	-0.006892	0.516006
	Zn227	Zn	0.262746	-0.007473	0.515607
	N228	N	0.427327	0.957185	0.695378
	N229	N	0.600671	0.027345	0.696950
	N230	N	0.601159	0.958396	0.335009
	N231	N	0.426360	0.027213	0.334517
	N232	N	0.692133	0.407422	0.978366
	N233	N	0.692387	0.578428	0.050728
	N234	N	0.333948	0.579317	0.980871
	N235	N	0.334023	0.404768	0.049912
	N236	N	0.978704	0.673586	0.427939
	N237	N	0.047910	0.674650	0.603297
	N238	N	0.979023	0.311669	0.604653
	N239	N	0.048428	0.312035	0.429314
	N240	N	0.977265	0.408162	0.693857
	N241	N	0.048123	0.580243	0.695724
	N242	N	0.977635	0.578038	0.337479
	N243	N	0.048848	0.406361	0.337015
	N244	N	0.426024	0.673093	0.981359
	N245	N	0.601020	0.673101	0.050175
	N246	N	0.602000	0.312015	0.979204
	N247	N	0.427710	0.312140	0.049359
	N248	N	0.694226	0.957742	0.428895
	N249	N	0.695280	0.026643	0.604436
	N250	N	0.333082	0.957707	0.602634
	N251	N	0.332316	0.027126	0.427696
	N252	N	0.926508	0.457682	0.196054
	N253	N	0.100335	0.527416	0.196103
	N254	N	0.099537	0.457314	0.836217
	N255	N	0.927075	0.528472	0.835899
	N256	N	0.192197	0.907152	0.479524
	N257	N	0.192441	0.078046	0.551867
	N258	N	0.833945	0.079936	0.481497
	N259	N	0.835952	0.907898	0.551227
	N260	N	0.479716	0.173574	0.926966
	N261	N	0.549480	0.172132	0.101490
	N262	N	0.479047	0.810833	0.104451
	N263	N	0.547993	0.812519	0.929594
	N264	N	0.477840	0.906846	0.194333
	N265	N	0.549210	0.078629	0.194650
	N266	N	0.478385	0.078604	0.836406
	N267	N	0.548775	0.907100	0.837835
	N268	N	0.926351	0.173418	0.481787
	N269	N	0.100842	0.172620	0.551881
	N270	N	0.101094	0.812730	0.480031
	N271	N	0.928221	0.814191	0.550456
	N272	N	0.195501	0.458457	0.927529
	N273	N	0.195115	0.526358	0.103986
	N274	N	0.834076	0.456994	0.101217
	N275	N	0.833602	0.528572	0.929255
	O276	O	-0.017057	0.773413	0.235469
	H277	H	-0.016761	0.764530	0.247630
	H278	H	-0.017240	0.758345	0.231255
	O279	O	0.504516	0.345650	0.706998
	H280	H	0.521997	0.340430	0.690503
	H281	H	0.500331	0.329032	0.719495
	O282	O	1.496588	0.396418	0.491439
	H283	H	1.480393	0.397014	0.499597
	H284	H	1.502182	0.394798	0.504783
	O285	O	0.487927	0.707650	0.299073
	H286	H	0.469825	0.712577	0.305920
	H287	H	0.477335	0.728016	0.288472
	O288	O	0.059833	0.912663	0.039619
	H289	H	0.053164	0.934144	0.036986
	H290	H	0.063707	0.914323	0.045569
	O291	O	0.473872	0.598361	0.735498
	H292	H	0.488010	0.596659	0.731054
	H293	H	0.476606	0.580649	0.735805
	O294	O	1.115525	-0.087047	0.811645
	H295	H	1.125480	-0.073860	0.825936
	H296	H	1.119019	-0.097748	0.786509
	O297	O	0.450693	0.713573	0.571595
	H298	H	0.457660	0.701092	0.566366
	H299	H	0.448481	0.720159	0.559357
	O300	O	0.123747	0.046480	0.882512
	H301	H	0.127507	0.049047	0.894893
	H302	H	0.118530	0.053929	0.886811
	O303	O	0.581747	0.682583	0.689722
	H304	H	0.564568	0.696708	0.713113
	H305	H	0.569300	0.667885	0.671350
	O306	O	0.738985	0.723156	0.554304
	H307	H	0.765749	0.751970	0.562930
	H308	H	0.740521	0.719720	0.588329
	O309	O	0.741227	0.539367	0.739477
	H310	H	0.763320	0.554782	0.762143
	H311	H	0.747238	0.562612	0.742831
	O312	O	0.616592	0.703129	0.408243
	H313	H	0.607629	0.694611	0.397727
	H314	H	0.622801	0.704662	0.423471
	O315	O	0.933141	0.982121	1.142879
	H316	H	0.944122	0.978677	1.134190
	H317	H	0.926936	0.967856	1.145753
	O318	O	0.354121	0.517101	0.472122
	H319	H	0.355229	0.505018	0.464941
	H320	H	0.346215	0.509050	0.495446
	O321	O	0.116907	0.908964	1.077747
	H322	H	0.120443	0.899111	1.082693
	H323	H	0.112416	0.900962	1.056983
	O324	O	0.836506	0.958393	-0.047067
	H325	H	0.838153	0.961054	-0.040889
	H326	H	0.840313	0.971508	-0.032219
	O327	O	0.051243	-0.020209	0.991075
	H328	H	0.042491	-0.017014	0.993185
	H329	H	0.067977	-0.018336	0.986505
	O330	O	0.830325	0.178720	0.201282
	H331	H	0.842754	0.179810	0.188872
	H332	H	0.840386	0.150760	0.190191
	O333	O	0.598451	0.262905	0.543538
	H334	H	0.599277	0.260370	0.544273
	H335	H	0.625573	0.265307	0.521761
	O336	O	0.287162	0.345439	0.510857
	H337	H	0.288185	0.338366	0.505323
	H338	H	0.291013	0.326345	0.520316
	O339	O	1.139213	0.039810	1.199270
	H340	H	1.142728	0.043547	1.213723
	H341	H	1.136912	0.057138	1.203544
	O342	O	-0.236937	-0.254819	0.267943
	H343	H	-0.230836	-0.247596	0.264632
	H344	H	-0.241454	-0.256220	0.250466
	O345	O	0.305469	1.286381	0.716908
	H346	H	0.304166	1.301100	0.692439
	H347	H	0.303250	1.267533	0.731525
	O348	O	-0.089136	0.065347	0.231897
	H349	H	-0.072377	0.072661	0.246474
	H350	H	-0.094804	0.064089	0.228902
	O351	O	0.648710	0.457511	0.647631
	H352	H	0.656963	0.463628	0.621029
	H353	H	0.665006	0.480772	0.654859
	O354	O	-0.099750	0.095745	0.960660
	H355	H	-0.090885	0.098820	0.938166
	H356	H	-0.099548	0.114197	0.966241
	O357	O	0.721747	0.270049	0.525462
	H358	H	0.748237	0.253678	0.507906
	H359	H	0.722902	0.298954	0.511669
	O360	O	0.135872	-0.052808	0.902444
	H361	H	0.158729	-0.060777	0.896548
	H362	H	0.128783	-0.062066	0.901163
	O363	O	-0.214208	0.049364	0.065835
	H364	H	-0.214553	0.052033	0.066178
	H365	H	-0.213381	0.050789	0.080382
	O366	O	0.364791	0.543750	0.515109
	H367	H	0.353864	0.532912	0.522621
	H368	H	0.371422	0.550740	0.512667
	O369	O	0.962899	0.121739	0.036024
	H370	H	0.958838	0.123995	0.036343
	H371	H	0.977820	0.132083	0.032741
	O372	O	1.211385	1.074194	-0.182517
	H373	H	1.192727	1.061580	-0.171087
	H374	H	1.219142	1.071034	-0.185765
	O375	O	0.814855	0.192607	-0.183126
	H376	H	0.801609	0.202348	-0.169317
	H377	H	0.796996	0.190225	-0.195163
	O378	O	0.387068	0.367862	0.521218
	H379	H	0.379601	0.353311	0.528851
	H380	H	0.395506	0.363638	0.509346
	O381	O	0.327748	0.677755	0.698871
	H382	H	0.332988	0.660134	0.668518
	H383	H	0.356041	0.653442	0.698745
	O384	O	0.566231	0.457823	0.355484
	H385	H	0.556020	0.467670	0.351721
	H386	H	0.567883	0.468986	0.354912
	O387	O	0.943306	0.856390	0.147207
	H388	H	0.961071	0.855861	0.132074
	H389	H	0.935968	0.867234	0.133177
	O390	O	0.484108	0.456164	0.694187
	H391	H	0.484149	0.432907	0.695254
	H392	H	0.497492	0.457684	0.697464
	O393	O	0.726320	0.460375	0.501926
	H394	H	0.715195	0.468726	0.498149
	H395	H	0.726755	0.468896	0.493901
	O396	O	0.102379	1.128471	0.941091
	H397	H	0.085979	1.121652	0.935526
	H398	H	0.112545	1.129998	0.952441
	O399	O	0.223167	0.145315	1.228416
	H400	H	0.226115	0.149725	1.221368
	H401	H	0.249933	0.144169	1.238954
	O402	O	0.458819	0.266256	0.554984
	H403	H	0.471539	0.270318	0.571387
	H404	H	0.455514	0.260569	0.539634
	O405	O	1.077287	-0.152429	0.974285
	H406	H	1.079564	-0.150992	0.970263
	H407	H	1.097878	-0.157844	0.968329
	O408	O	-0.175274	-0.194418	-0.170816
	H409	H	-0.159721	-0.177954	-0.146085
	H410	H	-0.151681	-0.175512	-0.157691
	O411	O	0.210587	0.835375	0.034680
	H412	H	0.206475	0.849213	0.025734
	H413	H	0.213108	0.837599	0.031672
	O414	O	0.108171	0.203840	0.226743
	H415	H	0.128444	0.222942	0.243047
	H416	H	0.108521	0.192087	0.237299
	O417	O	0.294567	0.462439	0.732083
	H418	H	0.270354	0.454297	0.761802
	H419	H	0.306275	0.452509	0.726481
	O420	O	0.733559	0.450786	0.293988
	H421	H	0.731161	0.438947	0.298472
	H422	H	0.747452	0.462170	0.268176
	O423	O	-0.200156	-0.190398	1.036462
	H424	H	-0.204868	-0.204160	1.031041
	H425	H	-0.196593	-0.194777	1.036147
	O426	O	0.545592	0.271631	0.301432
	H427	H	0.558813	0.290179	0.300943
	H428	H	0.544740	0.252110	0.273928
	O429	O	0.929837	1.203812	0.851463
	H430	H	0.916897	1.222149	0.832342
	H431	H	0.896956	1.198284	0.845606
	O432	O	0.722188	0.281031	0.303678
	H433	H	0.715963	0.307285	0.313279
	H434	H	0.736015	0.255660	0.279256
	O435	O	0.067712	0.861266	0.155056
	H436	H	0.064593	0.855354	0.168930
	H437	H	0.073654	0.852588	0.156374
	O438	O	0.079906	-0.213024	-0.148409
	H439	H	0.072585	-0.216954	-0.146072
	H440	H	0.095172	-0.222190	-0.168873
	O441	O	0.224423	0.211300	0.045318
	H442	H	0.218822	0.201692	0.066712
	H443	H	0.248943	0.234529	0.052156
	O444	O	0.304625	0.512129	0.305848
	H445	H	0.299266	0.521986	0.295789
	H446	H	0.306768	0.521693	0.310683
	O447	O	-0.079973	0.926446	0.811093
	H448	H	-0.082746	0.933816	0.799965
	H449	H	-0.089756	0.920766	0.827256
	O450	O	0.024313	1.113627	0.887047
	H451	H	0.030057	1.131217	0.883882
	H452	H	0.026276	1.117353	0.861874
	O453	O	0.689951	0.615302	0.451564
	H454	H	0.693575	0.610982	0.452945
	H455	H	0.707618	0.646703	0.463814
	O456	O	-0.346446	0.291204	0.702213
	H457	H	-0.369930	0.294787	0.684834
	H458	H	-0.347520	0.312727	0.693206
	O459	O	0.448487	0.586831	0.391181
	H460	H	0.452295	0.606701	0.379219
	H461	H	0.466796	0.579431	0.395766
	O462	O	0.566517	0.525276	0.545092
	H463	H	0.578173	0.521980	0.536868
	H464	H	0.577083	0.529046	0.547121
	O465	O	0.938784	-0.034823	0.184955
	H466	H	0.947694	-0.023779	0.191664
	H467	H	0.948728	-0.049244	0.172248
	O468	O	0.301529	0.583795	0.382128
	H469	H	0.308436	0.574172	0.404146
	H470	H	0.292001	0.572860	0.370608
	O471	O	0.595869	0.480105	0.363339
	H472	H	0.604585	0.493703	0.363222
	H473	H	0.596143	0.476540	0.358309
	O474	O	0.313566	0.687908	0.472563
	H475	H	0.299349	0.694783	0.480494
	H476	H	0.309942	0.674424	0.487213
	O477	O	0.327716	0.308994	1.329354
	H478	H	0.358179	0.313900	1.342035
	H479	H	0.337713	0.337724	1.340208
	O480	O	0.243597	0.781479	0.201461
	H481	H	0.241917	0.793266	0.209834
	H482	H	0.233862	0.789498	0.194785
	O483	O	0.725777	0.707726	0.724675
	H484	H	0.685883	0.706507	0.726215
	H485	H	0.754987	0.740949	0.759786
	O486	O	0.184600	0.822807	-0.046013
	H487	H	0.210984	0.812226	-0.047485
	H488	H	0.186256	0.834926	-0.061743
	O489	O	0.850571	1.207614	-0.068845
	H490	H	0.851386	1.216812	-0.074451
	H491	H	0.848839	1.216102	-0.061139
