data_Molecule from HDF5

_cell_length_a		16.445997
_cell_length_b		16.458445
_cell_length_c		16.231842
_cell_angle_alpha	90.026996
_cell_angle_beta	89.981043
_cell_angle_gamma	89.758163
_symmetry_space_group_name_H-M	'P 1'
_symmetry_Int_Tables_number		1

loop_
	_symmetry_equiv_pos_as_xyz
	x,y,z

loop_
	_atom_site_label
	_atom_site_type_symbol
	_atom_site_fract_x
	_atom_site_fract_y
	_atom_site_fract_z
	H0	H	0.395431	0.840935	0.711351
	H1	H	0.599650	0.160058	0.714743
	H2	H	0.600771	0.840583	0.275335
	H3	H	0.395273	0.161233	0.273691
	H4	H	0.718278	0.392004	0.834418
	H5	H	0.717901	0.608573	0.152690
	H6	H	0.277794	0.601771	0.831205
	H7	H	0.278087	0.396685	0.154302
	H8	H	0.838732	0.725046	0.387063
	H9	H	0.156052	0.718786	0.599293
	H10	H	0.840172	0.276172	0.603279
	H11	H	0.155005	0.278922	0.388058
	H12	H	0.836404	0.396308	0.714083
	H13	H	0.156492	0.598833	0.711667
	H14	H	0.836351	0.605597	0.273586
	H15	H	0.155877	0.396650	0.273139
	H16	H	0.390329	0.720208	0.832195
	H17	H	0.599967	0.720461	0.154069
	H18	H	0.604034	0.275951	0.834741
	H19	H	0.393258	0.282542	0.155165
	H20	H	0.723001	0.843647	0.385141
	H21	H	0.722295	0.157406	0.604894
	H22	H	0.277084	0.842484	0.597369
	H23	H	0.273649	0.159190	0.385484
	H24	H	0.890491	0.341179	0.217158
	H25	H	0.095482	0.659722	0.210260
	H26	H	0.099061	0.339121	0.773678
	H27	H	0.894887	0.659214	0.776801
	H28	H	0.212838	0.901466	0.333021
	H29	H	0.216181	0.106623	0.654953
	H30	H	0.775403	0.108739	0.334001
	H31	H	0.778414	0.896787	0.653717
	H32	H	0.339242	0.224791	0.885547
	H33	H	0.654998	0.222313	0.100565
	H34	H	0.336926	0.783396	0.096793
	H35	H	0.653933	0.777080	0.887304
	H36	H	0.337746	0.901271	0.212675
	H37	H	0.658353	0.102959	0.213242
	H38	H	0.338003	0.106677	0.771161
	H39	H	0.656995	0.897740	0.774662
	H40	H	0.889636	0.224648	0.335518
	H41	H	0.101158	0.220920	0.654590
	H42	H	0.102152	0.781217	0.334590
	H43	H	0.894454	0.782669	0.654254
	H44	H	0.221644	0.341936	0.882305
	H45	H	0.213808	0.658456	0.094890
	H46	H	0.772036	0.341682	0.103590
	H47	H	0.773970	0.657430	0.887972
	H48	H	0.399224	0.117659	0.583787
	H49	H	0.587516	0.887459	0.583737
	H50	H	0.589802	0.112874	0.410254
	H51	H	0.410384	0.886428	0.394993
	H52	H	0.582159	0.417236	0.105416
	H53	H	0.594605	0.581202	0.877471
	H54	H	0.406579	0.592521	0.107550
	H55	H	0.414788	0.412710	0.880848
	H56	H	0.109735	0.590148	0.403413
	H57	H	0.881189	0.598440	0.581126
	H58	H	0.109531	0.410528	0.583883
	H59	H	0.886624	0.418009	0.409560
	H60	H	0.109355	0.409167	0.581191
	H61	H	0.884584	0.588835	0.580061
	H62	H	0.110065	0.591503	0.401827
	H63	H	0.881683	0.412319	0.401200
	H64	H	0.402625	0.593397	0.109944
	H65	H	0.573002	0.582053	0.885681
	H66	H	0.579612	0.408616	0.107106
	H67	H	0.408776	0.405625	0.876709
	H68	H	0.590120	0.116158	0.402402
	H69	H	0.584932	0.890444	0.579291
	H70	H	0.411191	0.114885	0.587404
	H71	H	0.410415	0.890977	0.411842
	H72	H	0.908903	0.610670	0.083231
	H73	H	0.088304	0.384838	0.080956
	H74	H	0.096438	0.613202	0.910336
	H75	H	0.905505	0.388011	0.909579
	H76	H	0.090665	0.915388	0.610307
	H77	H	0.088889	0.085625	0.380238
	H78	H	0.906259	0.087101	0.608520
	H79	H	0.911597	0.908001	0.377919
	H80	H	0.609681	0.082280	0.897057
	H81	H	0.384291	0.090469	0.083103
	H82	H	0.608535	0.911899	0.078663
	H83	H	0.380579	0.912859	0.893872
	H84	H	0.613082	0.908817	0.088287
	H85	H	0.384323	0.091345	0.084952
	H86	H	0.612041	0.098392	0.907919
	H87	H	0.380726	0.901625	0.906413
	H88	H	0.912461	0.083326	0.604517
	H89	H	0.080836	0.089345	0.381186
	H90	H	0.082483	0.909130	0.610186
	H91	H	0.905346	0.915075	0.377961
	H92	H	0.088449	0.616147	0.892293
	H93	H	0.087871	0.384513	0.083628
	H94	H	0.905033	0.611091	0.078045
	H95	H	0.903957	0.383587	0.904308
	H96	H	0.406956	0.111953	0.575620
	H97	H	0.590653	0.888055	0.578324
	H98	H	0.583343	0.112350	0.404868
	H99	H	0.395660	0.884938	0.404445
	H100	H	0.588273	0.410978	0.109917
	H101	H	0.582055	0.600337	0.875431
	H102	H	0.403742	0.589740	0.108610
	H103	H	0.404983	0.414955	0.878764
	H104	H	0.109841	0.592452	0.402945
	H105	H	0.881377	0.592143	0.589123
	H106	H	0.109016	0.411798	0.581661
	H107	H	0.884187	0.407263	0.410934
	H108	H	0.902725	0.612887	0.083768
	H109	H	0.085874	0.385756	0.082063
	H110	H	0.077264	0.608069	0.906749
	H111	H	0.909950	0.386605	0.904539
	H112	H	0.092004	0.904812	0.613816
	H113	H	0.087718	0.093941	0.377094
	H114	H	0.913856	0.091248	0.607575
	H115	H	0.914527	0.916483	0.380928
	H116	H	0.603709	0.083018	0.915641
	H117	H	0.384236	0.091944	0.083252
	H118	H	0.612458	0.901728	0.079929
	H119	H	0.386889	0.916468	0.909240
	C120	C	0.374666	0.009660	0.614643
	C121	C	0.619458	0.992670	0.614695
	C122	C	0.620015	0.009098	0.372915
	C123	C	0.375123	0.993206	0.371962
	C124	C	0.617543	0.378308	0.002551
	C125	C	0.615484	0.620492	0.985215
	C126	C	0.373631	0.622189	0.001664
	C127	C	0.376522	0.379062	0.984901
	C128	C	0.004802	0.623032	0.371576
	C129	C	0.987949	0.622194	0.615109
	C130	C	0.004996	0.378292	0.615712
	C131	C	0.988322	0.379397	0.373363
	C132	C	0.872895	0.507614	0.115810
	C133	C	0.116849	0.490983	0.113193
	C134	C	0.119044	0.507642	0.870573
	C135	C	0.874158	0.490521	0.872970
	C136	C	0.118592	0.879625	0.504225
	C137	C	0.117685	0.121883	0.485454
	C138	C	0.876656	0.121626	0.502158
	C139	C	0.877945	0.881007	0.485026
	C140	C	0.504441	0.121174	0.873210
	C141	C	0.489476	0.122363	0.115840
	C142	C	0.505882	0.878154	0.114629
	C143	C	0.487604	0.878239	0.871067
	C144	C	0.375249	0.889154	0.672803
	C145	C	0.619927	0.111917	0.675668
	C146	C	0.620776	0.888925	0.313785
	C147	C	0.375412	0.113038	0.312982
	C148	C	0.678476	0.374240	0.882502
	C149	C	0.676695	0.624560	0.105186
	C150	C	0.316176	0.621517	0.879835
	C151	C	0.316955	0.377979	0.105846
	C152	C	0.886063	0.684545	0.369071
	C153	C	0.108078	0.679434	0.617087
	C154	C	0.886670	0.317179	0.619819
	C155	C	0.107619	0.319151	0.370102
	C156	C	0.884942	0.377026	0.675159
	C157	C	0.108378	0.619833	0.673392
	C158	C	0.884659	0.624786	0.312612
	C159	C	0.107785	0.377522	0.312551
	C160	C	0.372113	0.680530	0.880417
	C161	C	0.618196	0.680949	0.105722
	C162	C	0.621461	0.316550	0.882545
	C163	C	0.374372	0.320978	0.106218
	C164	C	0.681405	0.890352	0.368600
	C165	C	0.680698	0.110753	0.620301
	C166	C	0.316552	0.889897	0.616011
	C167	C	0.314740	0.112085	0.368558
	C168	C	0.871136	0.388735	0.177311
	C169	C	0.115344	0.611541	0.170991
	C170	C	0.119178	0.387405	0.811850
	C171	C	0.874380	0.610938	0.814974
	C172	C	0.175433	0.880616	0.381815
	C173	C	0.176509	0.124191	0.606818
	C174	C	0.815710	0.125875	0.382213
	C175	C	0.818270	0.878959	0.605745
	C176	C	0.386126	0.183616	0.868508
	C177	C	0.608262	0.182240	0.118412
	C178	C	0.385184	0.821798	0.116016
	C179	C	0.606850	0.817748	0.869079
	C180	C	0.385596	0.880614	0.173398
	C181	C	0.609788	0.122549	0.174275
	C182	C	0.385613	0.124728	0.811407
	C183	C	0.608217	0.877658	0.812892
	C184	C	0.872650	0.183775	0.382722
	C185	C	0.119249	0.181162	0.606577
	C186	C	0.120360	0.821053	0.382685
	C187	C	0.876121	0.822289	0.606234
	C188	C	0.180096	0.388785	0.866244
	C189	C	0.174292	0.610949	0.113558
	C190	C	0.812226	0.389294	0.120562
	C191	C	0.814357	0.609919	0.870410
	C192	C	0.398730	0.093154	0.589664
	C193	C	0.594813	0.910131	0.588135
	C194	C	0.594964	0.091982	0.398416
	C195	C	0.398889	0.909323	0.396611
	C196	C	0.591044	0.404545	0.085663
	C197	C	0.590250	0.595141	0.901310
	C198	C	0.397446	0.598868	0.086474
	C199	C	0.401947	0.403894	0.900642
	C200	C	0.088315	0.598323	0.395758
	C201	C	0.904086	0.599602	0.590594
	C202	C	0.087844	0.403406	0.589774
	C203	C	0.905774	0.405060	0.399771
	C204	C	0.898251	0.589979	0.089310
	C205	C	0.093820	0.407063	0.089342
	C206	C	0.094444	0.590730	0.895739
	C207	C	0.899262	0.407795	0.898534
	C208	C	0.095164	0.902866	0.589303
	C209	C	0.092798	0.096896	0.401423
	C210	C	0.903144	0.094870	0.585381
	C211	C	0.903186	0.905857	0.400924
	C212	C	0.586906	0.095269	0.899448
	C213	C	0.406208	0.098259	0.090971
	C214	C	0.589652	0.900973	0.089597
	C215	C	0.404286	0.903176	0.896024
	Zn216	Zn	0.496519	0.000609	0.742745
	Zn217	Zn	0.498594	0.000969	0.243868
	Zn218	Zn	0.744171	0.499632	-0.005946
	Zn219	Zn	0.247634	0.498239	-0.007664
	Zn220	Zn	-0.002355	0.751697	0.494284
	Zn221	Zn	-0.002941	0.249855	0.494254
	Zn222	Zn	-0.004270	0.499217	0.743793
	Zn223	Zn	-0.004497	0.499966	0.243529
	Zn224	Zn	0.495576	0.748915	-0.006772
	Zn225	Zn	0.496529	0.250989	-0.005498
	Zn226	Zn	0.748969	0.000921	0.493580
	Zn227	Zn	0.245335	0.002196	0.494124
	N228	N	0.410578	0.964662	0.672140
	N229	N	0.582699	0.037425	0.672411
	N230	N	0.583485	0.963786	0.316082
	N231	N	0.412321	0.037961	0.315003
	N232	N	0.675943	0.411997	0.957921
	N233	N	0.674826	0.587297	0.029377
	N234	N	0.316945	0.585877	0.956202
	N235	N	0.318064	0.413180	0.029018
	N236	N	0.961926	0.683608	0.404979
	N237	N	0.032091	0.681128	0.581808
	N238	N	0.962287	0.317783	0.583574
	N239	N	0.032333	0.320033	0.406894
	N240	N	0.959557	0.414104	0.672803
	N241	N	0.032625	0.584980	0.672511
	N242	N	0.959343	0.587193	0.314055
	N243	N	0.032532	0.414342	0.314474
	N244	N	0.406854	0.681235	0.957428
	N245	N	0.580504	0.678195	0.030193
	N246	N	0.584370	0.318905	0.958391
	N247	N	0.410376	0.321466	0.029834
	N248	N	0.681185	0.966147	0.404364
	N249	N	0.680583	0.035593	0.583192
	N250	N	0.316103	0.965889	0.580637
	N251	N	0.314724	0.036552	0.404798
	N252	N	0.908258	0.463250	0.174590
	N253	N	0.080649	0.535708	0.171167
	N254	N	0.081729	0.462114	0.814488
	N255	N	0.910745	0.535710	0.816274
	N256	N	0.174531	0.916412	0.458320
	N257	N	0.175657	0.088058	0.530568
	N258	N	0.818209	0.088059	0.457441
	N259	N	0.819559	0.915069	0.529470
	N260	N	0.460906	0.181688	0.906192
	N261	N	0.532534	0.182190	0.082715
	N262	N	0.461040	0.820204	0.080373
	N263	N	0.530790	0.817763	0.904184
	N264	N	0.461828	0.914687	0.172916
	N265	N	0.534931	0.086119	0.172834
	N266	N	0.459960	0.086491	0.814346
	N267	N	0.533067	0.914465	0.814002
	N268	N	0.909940	0.181113	0.458544
	N269	N	0.083496	0.179961	0.530064
	N270	N	0.086140	0.820072	0.459945
	N271	N	0.912336	0.823285	0.530052
	N272	N	0.180123	0.464432	0.902268
	N273	N	0.175539	0.534881	0.078672
	N274	N	0.813111	0.464277	0.083190
	N275	N	0.814028	0.534102	0.905731
	O276	O	0.118083	-0.113610	0.897134
	H277	H	0.133580	-0.127326	0.899685
	H278	H	0.112417	-0.136672	0.873057
	O279	O	0.941468	0.157367	0.804369
	H280	H	0.964806	0.165752	0.817744
	H281	H	0.950846	0.152768	0.780266
	O282	O	0.476317	0.289429	0.535771
	H283	H	0.482111	0.304538	0.527833
	H284	H	0.470181	0.274817	0.550366
	O285	O	0.591061	1.390682	-0.698962
	H286	H	0.585938	1.382178	-0.696945
	H287	H	0.582842	1.396900	-0.702290
	O288	O	0.347755	0.318594	0.549730
	H289	H	0.355184	0.326671	0.549228
	H290	H	0.373021	0.314213	0.560252
	O291	O	0.297633	0.520896	0.470664
	H292	H	0.283714	0.534153	0.469605
	H293	H	0.294619	0.517574	0.446212
	O294	O	1.123677	1.189079	1.145135
	H295	H	1.092859	1.196998	1.149815
	H296	H	1.137284	1.146915	1.143723
	O297	O	0.524869	0.678514	0.415423
	H298	H	0.517954	0.667946	0.429181
	H299	H	0.533047	0.674312	0.412160
	O300	O	0.799951	0.184097	0.871877
	H301	H	0.779882	0.170537	0.861262
	H302	H	0.828884	0.186406	0.848653
	O303	O	0.460707	0.633025	0.623943
	H304	H	0.467631	0.641186	0.626741
	H305	H	0.466454	0.631711	0.615793
	O306	O	0.004221	-0.087780	1.076360
	H307	H	-0.000919	-0.096028	1.090374
	H308	H	-0.019929	-0.084856	1.073694
	O309	O	0.790428	-0.043072	0.022668
	H310	H	0.791814	-0.033259	0.028384
	H311	H	0.790079	-0.047459	0.041609
	O312	O	0.709203	0.528014	0.705431
	H313	H	0.719193	0.524049	0.731893
	H314	H	0.710448	0.527134	0.706797
	O315	O	0.326626	0.320546	0.443832
	H316	H	0.332496	0.327353	0.459574
	H317	H	0.313008	0.330561	0.447996
	O318	O	0.075576	0.104870	-0.082439
	H319	H	0.094681	0.110171	-0.076255
	H320	H	0.068725	0.091991	-0.079021
	O321	O	0.673102	0.673382	0.466901
	H322	H	0.678717	0.659642	0.468455
	H323	H	0.665115	0.671455	0.461543
	O324	O	0.973449	0.003981	1.006931
	H325	H	0.970568	0.002271	1.011547
	H326	H	0.984906	0.020360	1.001526
	O327	O	0.400431	0.457438	0.384964
	H328	H	0.408009	0.483248	0.377528
	H329	H	0.389392	0.463035	0.388095
	O330	O	-0.180055	0.918646	1.178749
	H331	H	-0.190039	0.949709	1.178347
	H332	H	-0.183886	0.927412	1.163899
	O333	O	0.150503	0.889459	-0.168595
	H334	H	0.152303	0.888061	-0.163589
	H335	H	0.149001	0.904851	-0.148964
	O336	O	1.004655	1.139568	-0.060982
	H337	H	1.021532	1.132708	-0.054666
	H338	H	1.013014	1.134385	-0.063895
	O339	O	0.119546	0.931530	1.185930
	H340	H	0.114167	0.944177	1.171382
	H341	H	0.098733	0.941305	1.175941
	O342	O	-0.059175	0.942912	-0.038469
	H343	H	-0.053755	0.937717	-0.047933
	H344	H	-0.051035	0.958427	-0.021673
	O345	O	-0.171058	-0.002304	0.804877
	H346	H	-0.165382	-0.015996	0.801472
	H347	H	-0.183600	-0.013727	0.803536
	O348	O	0.636757	0.498833	0.530074
	H349	H	0.620527	0.490166	0.528586
	H350	H	0.646410	0.509339	0.540446
	O351	O	1.214210	1.178966	-0.004748
	H352	H	1.218358	1.186370	0.026358
	H353	H	1.232441	1.187665	0.019710
	O354	O	0.907054	0.802606	1.092903
	H355	H	0.907000	0.826624	1.105878
	H356	H	0.908376	0.801301	1.094016
	O357	O	0.079016	-0.002511	0.183934
	H358	H	0.080254	-0.022040	0.174937
	H359	H	0.065576	0.002546	0.192315
	O360	O	0.399454	0.320160	0.687110
	H361	H	0.416988	0.322257	0.679182
	H362	H	0.409967	0.306085	0.693305
	O363	O	0.558818	-0.458108	-0.519988
	H364	H	0.544201	-0.447978	-0.511067
	H365	H	0.566770	-0.478068	-0.545913
	O366	O	-0.190243	-0.128949	0.869825
	H367	H	-0.205516	-0.119032	0.875311
	H368	H	-0.159316	-0.128971	0.868476
	O369	O	1.093000	0.117826	1.096507
	H370	H	1.090946	0.118475	1.091825
	H371	H	1.089174	0.107782	1.095133
	O372	O	0.288911	0.532975	0.283743
	H373	H	0.271568	0.545994	0.273393
	H374	H	0.288954	0.555953	0.279169
	O375	O	0.664858	0.518209	1.333710
	H376	H	0.673691	0.490477	1.337048
	H377	H	0.679656	0.503599	1.324344
	O378	O	0.691598	0.697972	0.687152
	H379	H	0.692838	0.675941	0.674705
	H380	H	0.691507	0.704193	0.685423
	O381	O	0.181299	0.903869	-0.078635
	H382	H	0.191348	0.895787	-0.096851
	H383	H	0.182419	0.889765	-0.094716
	O384	O	0.489734	0.357790	0.496047
	H385	H	0.497724	0.354413	0.496014
	H386	H	0.478618	0.352767	0.466356
	O387	O	0.632804	0.353246	0.355995
	H388	H	0.616590	0.350989	0.340143
	H389	H	0.622560	0.358138	0.380954
	O390	O	0.571287	0.547345	0.343737
	H391	H	0.575433	0.540028	0.353043
	H392	H	0.577239	0.567531	0.346769
	O393	O	0.893293	-0.124862	1.154458
	H394	H	0.898027	-0.119391	1.150669
	H395	H	0.858075	-0.121194	1.164310
	O396	O	0.472563	0.706326	0.292888
	H397	H	0.484572	0.720877	0.285575
	H398	H	0.476326	0.708080	0.296863
	O399	O	0.964922	1.081255	0.033320
	H400	H	0.994056	1.099986	0.031325
	H401	H	0.963161	1.082791	0.019086
	O402	O	1.064811	0.967197	-0.028645
	H403	H	1.072864	0.978345	-0.035634
	H404	H	1.056693	0.979813	-0.029744
	O405	O	0.546713	0.415449	0.676654
	H406	H	0.545059	0.415635	0.656604
	H407	H	0.549217	0.424650	0.671985
	O408	O	0.565195	0.712814	0.645291
	H409	H	0.583760	0.728792	0.639187
	H410	H	0.561334	0.717477	0.637189
	O411	O	0.929429	1.161756	1.148409
	H412	H	0.936418	1.175366	1.144361
	H413	H	0.944419	1.176069	1.141691
	O414	O	0.555580	0.492556	0.526348
	H415	H	0.549964	0.495810	0.518356
	H416	H	0.551413	0.497601	0.526663
	O417	O	0.190160	0.927425	1.057451
	H418	H	0.182161	0.913849	1.056055
	H419	H	0.184755	0.914036	1.054788
	O420	O	0.190093	0.808755	0.897808
	H421	H	0.186391	0.794918	0.897932
	H422	H	0.208575	0.828431	0.893922
	O423	O	-0.182813	1.187050	0.008194
	H424	H	-0.179793	1.169303	-0.014557
	H425	H	-0.201349	1.212997	-0.015833
	O426	O	0.626049	0.373739	0.545073
	H427	H	0.635359	0.381759	0.530835
	H428	H	0.614155	0.382277	0.527560
	O429	O	0.362961	0.582956	0.615375
	H430	H	0.366578	0.565165	0.629715
	H431	H	0.372336	0.570988	0.605307
	O432	O	0.456963	0.424250	0.599083
	H433	H	0.462380	0.416724	0.596074
	H434	H	0.469050	0.436839	0.603891
	O435	O	0.290858	-0.296319	0.297867
	H436	H	0.325151	-0.293237	0.306615
	H437	H	0.277412	-0.282374	0.293794
	O438	O	-0.084559	0.849070	0.895529
	H439	H	-0.086826	0.851643	0.895391
	H440	H	-0.077673	0.856935	0.909829
	O441	O	0.311959	0.662344	0.583859
	H442	H	0.299329	0.643575	0.592633
	H443	H	0.326078	0.664289	0.584985
