data_Molecule from HDF5

_cell_length_a		16.258944
_cell_length_b		16.315121
_cell_length_c		16.369133
_cell_angle_alpha	90.079492
_cell_angle_beta	89.804721
_cell_angle_gamma	89.819090
_symmetry_space_group_name_H-M	'P 1'
_symmetry_Int_Tables_number		1

loop_
	_symmetry_equiv_pos_as_xyz
	x,y,z

loop_
	_atom_site_label
	_atom_site_type_symbol
	_atom_site_fract_x
	_atom_site_fract_y
	_atom_site_fract_z
	H0	H	0.377636	0.832847	0.710164
	H1	H	0.587812	0.152810	0.704250
	H2	H	0.587222	0.828612	0.266266
	H3	H	0.383644	0.153030	0.270727
	H4	H	0.702963	0.388051	0.826745
	H5	H	0.697985	0.592623	0.148757
	H6	H	0.262072	0.596772	0.826094
	H7	H	0.264341	0.392038	0.148345
	H8	H	0.821991	0.708648	0.386742
	H9	H	0.145955	0.707807	0.590546
	H10	H	0.820426	0.275498	0.583082
	H11	H	0.146912	0.273486	0.384457
	H12	H	0.821191	0.387733	0.702374
	H13	H	0.145491	0.590642	0.704715
	H14	H	0.820366	0.590089	0.272130
	H15	H	0.145553	0.385883	0.266325
	H16	H	0.377077	0.713118	0.826717
	H17	H	0.580202	0.706466	0.149345
	H18	H	0.587343	0.272412	0.826310
	H19	H	0.380046	0.274481	0.147798
	H20	H	0.699984	0.826940	0.386046
	H21	H	0.700403	0.153263	0.585560
	H22	H	0.266307	0.829296	0.590997
	H23	H	0.266118	0.151383	0.384633
	H24	H	0.879716	0.329026	0.203910
	H25	H	0.086279	0.651175	0.207287
	H26	H	0.086228	0.328995	0.769246
	H27	H	0.878084	0.651038	0.765099
	H28	H	0.205108	0.884826	0.326174
	H29	H	0.199683	0.090089	0.647310
	H30	H	0.766952	0.091229	0.323643
	H31	H	0.764443	0.887480	0.647449
	H32	H	0.323503	0.213183	0.881871
	H33	H	0.646490	0.209499	0.088313
	H34	H	0.320303	0.775684	0.091227
	H35	H	0.644399	0.772364	0.884734
	H36	H	0.322247	0.890410	0.205438
	H37	H	0.647062	0.093531	0.202831
	H38	H	0.324200	0.099623	0.765504
	H39	H	0.644588	0.887708	0.766773
	H40	H	0.882365	0.208218	0.324139
	H41	H	0.085294	0.207585	0.646113
	H42	H	0.090056	0.769040	0.326543
	H43	H	0.881212	0.772576	0.647967
	H44	H	0.203613	0.331309	0.882881
	H45	H	0.198307	0.653565	0.088637
	H46	H	0.765764	0.329425	0.085898
	H47	H	0.766321	0.654206	0.886534
	H48	H	0.396111	0.107095	0.583489
	H49	H	0.569100	0.879566	0.573402
	H50	H	0.575976	0.103366	0.399369
	H51	H	0.392684	0.875820	0.398812
	H52	H	0.570418	0.407485	0.098615
	H53	H	0.575673	0.581154	0.872231
	H54	H	0.388986	0.586152	0.101790
	H55	H	0.396290	0.407574	0.875170
	H56	H	0.097797	0.581694	0.403091
	H57	H	0.873021	0.576192	0.567133
	H58	H	0.097703	0.400345	0.572260
	H59	H	0.865418	0.393423	0.393786
	H60	H	0.101087	0.401412	0.584204
	H61	H	0.868628	0.573356	0.583649
	H62	H	0.097608	0.571648	0.393289
	H63	H	0.870099	0.399638	0.399138
	H64	H	0.388763	0.582037	0.101263
	H65	H	0.571284	0.582301	0.872732
	H66	H	0.568510	0.395817	0.101551
	H67	H	0.396155	0.396326	0.871367
	H68	H	0.580719	0.107266	0.390937
	H69	H	0.578614	0.875319	0.574596
	H70	H	0.399014	0.101688	0.569677
	H71	H	0.395044	0.873628	0.389673
	H72	H	0.894156	0.604952	0.077764
	H73	H	0.076147	0.376856	0.073714
	H74	H	0.063172	0.602171	0.899839
	H75	H	0.895353	0.375703	0.891883
	H76	H	0.067807	0.901621	0.597726
	H77	H	0.082880	0.080392	0.368291
	H78	H	0.900179	0.073776	0.595615
	H79	H	0.897769	0.898928	0.372859
	H80	H	0.599113	0.079288	0.892950
	H81	H	0.366452	0.087860	0.082808
	H82	H	0.597843	0.902026	0.074078
	H83	H	0.367290	0.899047	0.899072
	H84	H	0.599189	0.900018	0.078944
	H85	H	0.369755	0.085908	0.073755
	H86	H	0.599851	0.084904	0.896377
	H87	H	0.371408	0.907322	0.902563
	H88	H	0.896484	0.093703	0.602391
	H89	H	0.073082	0.073196	0.373480
	H90	H	0.075902	0.892285	0.603131
	H91	H	0.893059	0.896037	0.371461
	H92	H	0.079197	0.606881	0.899249
	H93	H	0.073437	0.375102	0.078814
	H94	H	0.887255	0.607281	0.078165
	H95	H	0.891852	0.377082	0.898745
	H96	H	0.384921	0.107722	0.573531
	H97	H	0.571411	0.874937	0.582342
	H98	H	0.571377	0.105851	0.390728
	H99	H	0.401494	0.877245	0.395372
	H100	H	0.579710	0.400981	0.103688
	H101	H	0.574755	0.585369	0.871295
	H102	H	0.391315	0.583906	0.101033
	H103	H	0.386169	0.402857	0.870558
	H104	H	0.102018	0.584357	0.390558
	H105	H	0.866143	0.589557	0.576602
	H106	H	0.102491	0.390599	0.577636
	H107	H	0.867616	0.401494	0.390712
	H108	H	0.891532	0.607778	0.084519
	H109	H	0.070039	0.378322	0.074136
	H110	H	0.070286	0.608787	0.885937
	H111	H	0.888446	0.374828	0.892220
	H112	H	0.080501	0.904566	0.600860
	H113	H	0.071327	0.086205	0.370329
	H114	H	0.880846	0.079375	0.602577
	H115	H	0.893299	0.901435	0.372214
	H116	H	0.597546	0.079715	0.899776
	H117	H	0.369043	0.078977	0.079800
	H118	H	0.599916	0.896827	0.074560
	H119	H	0.368007	0.906616	0.892398
	C120	C	0.362352	-0.000441	0.608097
	C121	C	0.604591	0.983170	0.607145
	C122	C	0.606718	-0.001280	0.362911
	C123	C	0.364413	0.982257	0.364715
	C124	C	0.604385	0.370361	-0.004530
	C125	C	0.603395	0.612911	0.978689
	C126	C	0.359234	0.614738	-0.004991
	C127	C	0.361348	0.371075	0.978315
	C128	C	-0.007983	0.610567	0.366110
	C129	C	0.975772	0.610565	0.607406
	C130	C	-0.007313	0.368035	0.607287
	C131	C	0.975119	0.367750	0.363576
	C132	C	0.860767	0.499557	0.108900
	C133	C	0.103401	0.483090	0.107310
	C134	C	0.103351	0.499587	0.864558
	C135	C	0.860514	0.482330	0.863632
	C136	C	0.106916	0.867612	0.495057
	C137	C	0.105768	0.110894	0.477060
	C138	C	0.862456	0.111877	0.493478
	C139	C	0.863024	0.868520	0.478358
	C140	C	0.492781	0.114078	0.864829
	C141	C	0.475975	0.113751	0.108184
	C142	C	0.491680	0.870337	0.107321
	C143	C	0.474650	0.871405	0.865617
	C144	C	0.360442	0.879973	0.669159
	C145	C	0.606051	0.104417	0.665049
	C146	C	0.606379	0.876877	0.305588
	C147	C	0.364244	0.104304	0.308720
	C148	C	0.663585	0.369006	0.874588
	C149	C	0.659498	0.612262	0.100418
	C150	C	0.301090	0.615542	0.874246
	C151	C	0.303462	0.372309	0.099900
	C152	C	0.869989	0.668949	0.367374
	C153	C	0.097504	0.668465	0.608866
	C154	C	0.869522	0.312834	0.604212
	C155	C	0.097882	0.311401	0.364310
	C156	C	0.869966	0.368833	0.663477
	C157	C	0.097270	0.610272	0.665645
	C158	C	0.869194	0.610020	0.310567
	C159	C	0.097157	0.367611	0.305814
	C160	C	0.358471	0.673598	0.874610
	C161	C	0.600996	0.669231	0.100543
	C162	C	0.606009	0.311444	0.874553
	C163	C	0.360642	0.313380	0.099551
	C164	C	0.662742	0.876085	0.364812
	C165	C	0.662210	0.104693	0.605987
	C166	C	0.304759	0.877977	0.609693
	C167	C	0.305792	0.103384	0.365739
	C168	C	0.860777	0.377596	0.165131
	C169	C	0.104568	0.603512	0.167247
	C170	C	0.105074	0.377914	0.807454
	C171	C	0.859643	0.603303	0.805253
	C172	C	0.165865	0.866467	0.374307
	C173	C	0.161757	0.110306	0.598721
	C174	C	0.805580	0.110730	0.372001
	C175	C	0.804099	0.868472	0.599385
	C176	C	0.371738	0.173841	0.863445
	C177	C	0.597910	0.170808	0.107496
	C178	C	0.369442	0.813999	0.109387
	C179	C	0.596042	0.811587	0.865028
	C180	C	0.370284	0.871367	0.166356
	C181	C	0.598127	0.112862	0.164587
	C182	C	0.372293	0.116983	0.805413
	C183	C	0.596167	0.869114	0.806539
	C184	C	0.863059	0.169082	0.372205
	C185	C	0.104833	0.168740	0.598157
	C186	C	0.108566	0.808590	0.374552
	C187	C	0.862057	0.810832	0.599461
	C188	C	0.163226	0.379042	0.864312
	C189	C	0.160268	0.604834	0.107984
	C190	C	0.803669	0.377806	0.106695
	C191	C	0.803790	0.604836	0.865463
	C192	C	0.386366	0.083664	0.582937
	C193	C	0.580086	0.898782	0.583714
	C194	C	0.583054	0.083543	0.386717
	C195	C	0.389171	0.897592	0.387837
	C196	C	0.579899	0.394549	0.079388
	C197	C	0.580653	0.589590	0.893960
	C198	C	0.382717	0.590829	0.079440
	C199	C	0.385680	0.395173	0.894355
	C200	C	0.076999	0.586395	0.388891
	C201	C	0.891192	0.586637	0.583001
	C202	C	0.078261	0.390917	0.584782
	C203	C	0.889733	0.391191	0.387359
	C204	C	0.884323	0.584536	0.086611
	C205	C	0.080051	0.398651	0.082660
	C206	C	0.078127	0.583973	0.888108
	C207	C	0.884650	0.397913	0.887488
	C208	C	0.081850	0.892422	0.578876
	C209	C	0.082573	0.086935	0.392585
	C210	C	0.885652	0.088807	0.578267
	C211	C	0.887655	0.892021	0.393986
	C212	C	0.576861	0.088774	0.889399
	C213	C	0.390530	0.090882	0.085375
	C214	C	0.576791	0.892964	0.082961
	C215	C	0.390666	0.897118	0.890634
	Zn216	Zn	0.483650	-0.007312	0.736594
	Zn217	Zn	0.484677	-0.009020	0.234863
	Zn218	Zn	0.732675	0.492142	-0.013026
	Zn219	Zn	0.231635	0.492582	-0.014176
	Zn220	Zn	-0.015266	0.740009	0.487135
	Zn221	Zn	-0.015626	0.240354	0.485413
	Zn222	Zn	-0.016551	0.489694	0.735390
	Zn223	Zn	-0.016824	0.489812	0.236578
	Zn224	Zn	0.481618	0.742124	-0.012963
	Zn225	Zn	0.483673	0.241606	-0.012811
	Zn226	Zn	0.733883	-0.010130	0.486042
	Zn227	Zn	0.234963	-0.010275	0.486147
	N228	N	0.395553	0.956526	0.668203
	N229	N	0.570878	0.027780	0.665928
	N230	N	0.572425	0.954242	0.304154
	N231	N	0.399936	0.027917	0.308091
	N232	N	0.662651	0.404951	0.950556
	N233	N	0.661320	0.578243	0.023553
	N234	N	0.301365	0.579844	0.950220
	N235	N	0.303553	0.407145	0.023437
	N236	N	0.947393	0.669518	0.401015
	N237	N	0.020947	0.668802	0.573387
	N238	N	0.946868	0.312296	0.569902
	N239	N	0.020973	0.311400	0.399453
	N240	N	0.947511	0.402216	0.665621
	N241	N	0.020359	0.575433	0.665144
	N242	N	0.946032	0.574553	0.309515
	N243	N	0.019571	0.401657	0.304960
	N244	N	0.393742	0.673096	0.950662
	N245	N	0.567033	0.669909	0.023725
	N246	N	0.569803	0.312246	0.950540
	N247	N	0.395981	0.312474	0.023138
	N248	N	0.662972	0.952823	0.399724
	N249	N	0.661490	0.028237	0.570625
	N250	N	0.305927	0.953399	0.572297
	N251	N	0.305612	0.026325	0.399680
	N252	N	0.895150	0.454405	0.166985
	N253	N	0.069946	0.526869	0.166865
	N254	N	0.068412	0.453938	0.807672
	N255	N	0.894038	0.526141	0.803915
	N256	N	0.164971	0.902342	0.450343
	N257	N	0.162474	0.075000	0.522443
	N258	N	0.805383	0.075648	0.448524
	N259	N	0.804159	0.903207	0.522934
	N260	N	0.447783	0.172229	0.899835
	N261	N	0.520852	0.171564	0.073115
	N262	N	0.445747	0.813453	0.073299
	N263	N	0.519387	0.812584	0.900770
	N264	N	0.447426	0.905952	0.165015
	N265	N	0.521153	0.078320	0.165210
	N266	N	0.448395	0.080323	0.806358
	N267	N	0.519795	0.905386	0.806788
	N268	N	0.897710	0.169819	0.448639
	N269	N	0.070676	0.169246	0.521457
	N270	N	0.072601	0.809088	0.450553
	N271	N	0.897988	0.810965	0.523305
	N272	N	0.162198	0.455543	0.899259
	N273	N	0.159780	0.528864	0.071336
	N274	N	0.803615	0.454728	0.072595
	N275	N	0.804082	0.528508	0.900804
	O276	O	0.435075	0.425348	0.395272
	H277	H	0.428269	0.413011	0.404280
	H278	H	0.440200	0.419073	0.397914
	O279	O	1.007325	0.988301	1.028487
	H280	H	1.004274	0.989810	1.030340
	H281	H	1.001402	0.982307	1.029262
	O282	O	0.906294	-0.104028	1.125874
	H283	H	0.906244	-0.097760	1.133829
	H284	H	0.899887	-0.097737	1.133988
	O285	O	1.097884	-0.120254	0.801999
	H286	H	1.106640	-0.135783	0.779176
	H287	H	1.118347	-0.110433	0.815374
	O288	O	1.061569	0.823602	0.879999
	H289	H	1.069217	0.848084	0.874323
	H290	H	1.058211	0.819877	0.908861
	O291	O	0.051705	0.997683	-0.058764
	H292	H	0.051896	0.992366	-0.054045
	H293	H	0.060634	1.002455	-0.060295
	O294	O	0.451395	0.647046	0.633031
	H295	H	0.446221	0.663924	0.638781
	H296	H	0.452935	0.657428	0.618905
	O297	O	1.059075	0.966403	1.120426
	H298	H	1.043018	0.964408	1.116545
	H299	H	1.051361	0.959496	1.133362
	O300	O	0.421150	0.682325	0.515622
	H301	H	0.423173	0.689281	0.512184
	H302	H	0.413632	0.685496	0.509014
	O303	O	0.510530	0.387105	0.596783
	H304	H	0.495469	0.403467	0.589970
	H305	H	0.520468	0.405882	0.592092
	O306	O	0.389698	0.585656	0.324966
	H307	H	0.408053	0.570237	0.321458
	H308	H	0.388939	0.570601	0.313388
	O309	O	0.561228	0.362584	0.439100
	H310	H	0.560612	0.371958	0.458785
	H311	H	0.537024	0.357367	0.449547
	O312	O	-0.157415	0.157817	-0.004925
	H313	H	-0.161633	0.149219	-0.024064
	H314	H	-0.165940	0.168130	-0.004610
	O315	O	0.540162	0.439499	0.313304
	H316	H	0.534573	0.429658	0.325357
	H317	H	0.542283	0.422294	0.315033
	O318	O	0.110020	1.183166	1.121624
	H319	H	0.094840	1.167720	1.114037
	H320	H	0.113760	1.208387	1.139356
	O321	O	0.544417	0.324626	0.625279
	H322	H	0.541225	0.317772	0.630607
	H323	H	0.553005	0.337625	0.628708
	O324	O	-0.337647	1.684973	-0.395896
	H325	H	-0.339662	1.670736	-0.401456
	H326	H	-0.334639	1.707726	-0.395654
	O327	O	0.310558	0.415759	0.481043
	H328	H	0.306578	0.416421	0.496731
	H329	H	0.312720	0.414732	0.493768
	O330	O	-0.126092	0.171884	0.805804
	H331	H	-0.127830	0.156162	0.804665
	H332	H	-0.117988	0.180691	0.799050
	O333	O	-0.461271	0.568608	1.466058
	H334	H	-0.461872	0.563235	1.476525
	H335	H	-0.451736	0.567345	1.455760
	O336	O	0.448659	0.671408	0.421974
	H337	H	0.447616	0.671844	0.391583
	H338	H	0.444522	0.671171	0.412307
	O339	O	0.975243	0.042689	-0.153054
	H340	H	0.979524	0.034387	-0.146138
	H341	H	0.963158	0.041889	-0.146226
	O342	O	-0.208222	-0.093892	0.182961
	H343	H	-0.212666	-0.098212	0.177118
	H344	H	-0.224885	-0.093604	0.188660
	O345	O	0.950542	0.097282	1.093800
	H346	H	0.951218	0.094402	1.097191
	H347	H	0.953393	0.089090	1.097124
	O348	O	1.113183	1.134473	-0.081938
	H349	H	1.110452	1.148461	-0.073542
	H350	H	1.115707	1.133396	-0.067576
	O351	O	0.370203	0.549106	0.513156
	H352	H	0.357125	0.558273	0.517063
	H353	H	0.365722	0.542920	0.503427
	O354	O	1.009806	-0.074077	0.930661
	H355	H	1.019871	-0.072034	0.927342
	H356	H	1.010934	-0.060167	0.934599
	O357	O	-0.126240	0.003187	0.895676
	H358	H	-0.116692	-0.002844	0.897621
	H359	H	-0.118426	-0.004037	0.901071
	O360	O	0.554442	0.553870	0.370246
	H361	H	0.560699	0.531513	0.368692
	H362	H	0.544588	0.548560	0.351155
	O363	O	-0.159549	0.790227	1.055342
	H364	H	-0.156395	0.781194	1.059399
	H365	H	-0.161410	0.785927	1.048503
	O366	O	1.152094	0.981695	-0.072895
	H367	H	1.141779	0.977858	-0.056789
	H368	H	1.166141	1.005128	-0.066067
	O369	O	0.238721	0.365067	0.776950
	H370	H	0.254637	0.376405	0.783389
	H371	H	0.252878	0.371530	0.775241
	O372	O	0.344888	0.424463	0.591893
	H373	H	0.335862	0.431382	0.596867
	H374	H	0.357968	0.435529	0.601181
	O375	O	0.566440	0.323218	0.307171
	H376	H	0.562716	0.317480	0.317654
	H377	H	0.576594	0.309586	0.282858
	O378	O	0.950668	1.106401	0.006195
	H379	H	0.966757	1.097922	-0.014513
	H380	H	0.932276	1.110132	0.007985
	O381	O	1.098161	-0.108143	-0.188015
	H382	H	1.096607	-0.100729	-0.181261
	H383	H	1.109325	-0.106488	-0.184357
	O384	O	1.568683	0.537636	0.417461
	H385	H	1.573738	0.527754	0.420029
	H386	H	1.575604	0.534453	0.419035
	O387	O	-0.052173	-0.015575	-0.040472
	H388	H	-0.046474	-0.020023	-0.054220
	H389	H	-0.054118	-0.029414	-0.051737
	O390	O	0.502952	1.411774	0.503620
	H391	H	0.486180	1.413976	0.518491
	H392	H	0.498230	1.415625	0.516854
	O393	O	1.062283	0.982684	1.141524
	H394	H	1.063735	0.983760	1.145967
	H395	H	1.059729	1.002643	1.136021
	O396	O	0.344524	0.361383	0.584736
	H397	H	0.359924	0.350682	0.601691
	H398	H	0.346088	0.381894	0.592776
	O399	O	0.500843	0.500625	1.435715
	H400	H	0.498979	0.492284	1.438166
	H401	H	0.504516	0.496590	1.432849
	O402	O	0.617715	0.465009	0.574779
	H403	H	0.622802	0.479638	0.580259
	H404	H	0.612762	0.462487	0.578829
	O405	O	0.905313	0.804532	0.103223
	H406	H	0.886550	0.816704	0.092241
	H407	H	0.912445	0.789033	0.106544
	O408	O	1.104293	1.099518	0.119620
	H409	H	1.097139	1.102712	0.130126
	H410	H	1.088061	1.090585	0.129673
	O411	O	0.938403	-0.127011	1.001049
	H412	H	0.947820	-0.123513	0.996604
	H413	H	0.940979	-0.118472	1.011544
	O414	O	0.906425	-0.019627	-0.185404
	H415	H	0.910588	-0.009849	-0.195673
	H416	H	0.903525	-0.019632	-0.188155
	O417	O	0.615181	0.560553	0.677125
	H418	H	0.633692	0.552120	0.691767
	H419	H	0.613410	0.581615	0.682588
