data_Molecule from HDF5

_cell_length_a		16.271405
_cell_length_b		16.350965
_cell_length_c		16.284259
_cell_angle_alpha	89.998207
_cell_angle_beta	89.922084
_cell_angle_gamma	90.120681
_symmetry_space_group_name_H-M	'P 1'
_symmetry_Int_Tables_number		1

loop_
	_symmetry_equiv_pos_as_xyz
	x,y,z

loop_
	_atom_site_label
	_atom_site_type_symbol
	_atom_site_fract_x
	_atom_site_fract_y
	_atom_site_fract_z
	H0	H	0.406266	0.843264	0.708200
	H1	H	0.609393	0.166688	0.706163
	H2	H	0.610184	0.843010	0.271193
	H3	H	0.402998	0.164829	0.269557
	H4	H	0.724447	0.405756	0.827458
	H5	H	0.726536	0.606308	0.152652
	H6	H	0.292327	0.602665	0.828948
	H7	H	0.290457	0.399166	0.152764
	H8	H	0.846678	0.722286	0.387713
	H9	H	0.169474	0.722662	0.594773
	H10	H	0.846890	0.283311	0.595281
	H11	H	0.171343	0.287965	0.391805
	H12	H	0.845562	0.402253	0.708029
	H13	H	0.170760	0.602869	0.707502
	H14	H	0.847256	0.606938	0.272277
	H15	H	0.170086	0.399471	0.272552
	H16	H	0.406397	0.721354	0.828933
	H17	H	0.614605	0.724463	0.151421
	H18	H	0.609654	0.288703	0.827141
	H19	H	0.406308	0.283952	0.151795
	H20	H	0.727219	0.843035	0.385704
	H21	H	0.726493	0.165656	0.591550
	H22	H	0.288192	0.843950	0.594250
	H23	H	0.290314	0.166705	0.388311
	H24	H	0.905938	0.342026	0.209866
	H25	H	0.109116	0.665668	0.207894
	H26	H	0.106623	0.340363	0.776659
	H27	H	0.905238	0.664569	0.773249
	H28	H	0.224400	0.903531	0.328423
	H29	H	0.223309	0.104109	0.652989
	H30	H	0.794561	0.101863	0.326808
	H31	H	0.791432	0.904263	0.653050
	H32	H	0.346766	0.220930	0.888010
	H33	H	0.672145	0.218499	0.088616
	H34	H	0.347580	0.784458	0.094122
	H35	H	0.671956	0.786542	0.888309
	H36	H	0.345470	0.903737	0.205587
	H37	H	0.670682	0.105038	0.207006
	H38	H	0.345628	0.103689	0.774829
	H39	H	0.672456	0.905920	0.774255
	H40	H	0.906566	0.221488	0.329072
	H41	H	0.107958	0.218068	0.653148
	H42	H	0.111373	0.784183	0.329814
	H43	H	0.904731	0.786527	0.653562
	H44	H	0.225140	0.340900	0.890412
	H45	H	0.225626	0.665285	0.091634
	H46	H	0.791188	0.341850	0.092007
	H47	H	0.794227	0.666731	0.892450
	H48	H	0.415371	0.119995	0.581083
	H49	H	0.596640	0.888708	0.584688
	H50	H	0.600306	0.118834	0.402392
	H51	H	0.413665	0.888797	0.400004
	H52	H	0.596393	0.404413	0.107003
	H53	H	0.601642	0.595333	0.875844
	H54	H	0.416858	0.588005	0.104586
	H55	H	0.411442	0.414474	0.874659
	H56	H	0.124268	0.596774	0.401786
	H57	H	0.890969	0.592380	0.589944
	H58	H	0.127583	0.409451	0.594075
	H59	H	0.894971	0.416961	0.401335
	H60	H	0.124764	0.401704	0.578159
	H61	H	0.891424	0.601098	0.580382
	H62	H	0.121984	0.593450	0.405176
	H63	H	0.891594	0.409625	0.398187
	H64	H	0.425293	0.596400	0.104852
	H65	H	0.599677	0.592788	0.875855
	H66	H	0.607316	0.410927	0.108528
	H67	H	0.421794	0.416323	0.877409
	H68	H	0.601328	0.118952	0.397625
	H69	H	0.597893	0.890670	0.578546
	H70	H	0.415306	0.121471	0.583311
	H71	H	0.419209	0.890366	0.397667
	H72	H	0.918880	0.617938	0.083544
	H73	H	0.102554	0.386812	0.081717
	H74	H	0.105307	0.618719	0.904625
	H75	H	0.924030	0.387014	0.886603
	H76	H	0.090010	0.910765	0.604331
	H77	H	0.091112	0.090447	0.378809
	H78	H	0.921543	0.097973	0.605786
	H79	H	0.916055	0.913548	0.375050
	H80	H	0.624711	0.096393	0.897440
	H81	H	0.391158	0.101349	0.080691
	H82	H	0.626447	0.909534	0.082733
	H83	H	0.396098	0.915495	0.903151
	H84	H	0.622355	0.913845	0.075762
	H85	H	0.395219	0.092960	0.074445
	H86	H	0.624920	0.096656	0.898445
	H87	H	0.391893	0.912726	0.894343
	H88	H	0.910798	0.097180	0.609514
	H89	H	0.097699	0.106372	0.371118
	H90	H	0.103528	0.906943	0.609568
	H91	H	0.921390	0.912914	0.377389
	H92	H	0.101920	0.620281	0.893309
	H93	H	0.097230	0.388557	0.086845
	H94	H	0.918446	0.618317	0.081141
	H95	H	0.922377	0.394283	0.912927
	H96	H	0.416991	0.119332	0.582399
	H97	H	0.602528	0.888186	0.582195
	H98	H	0.596968	0.116965	0.398694
	H99	H	0.418260	0.891942	0.403286
	H100	H	0.597000	0.417152	0.102987
	H101	H	0.598246	0.596139	0.875967
	H102	H	0.414106	0.598687	0.108875
	H103	H	0.419442	0.406464	0.874240
	H104	H	0.123054	0.591428	0.399787
	H105	H	0.895340	0.589217	0.578058
	H106	H	0.120460	0.419276	0.580662
	H107	H	0.894011	0.410010	0.407074
	H108	H	0.916593	0.618985	0.083023
	H109	H	0.096935	0.389940	0.079733
	H110	H	0.094517	0.615635	0.901328
	H111	H	0.900393	0.383265	0.900232
	H112	H	0.101458	0.920996	0.604501
	H113	H	0.108729	0.091802	0.372575
	H114	H	0.916036	0.088409	0.604600
	H115	H	0.919037	0.907805	0.374534
	H116	H	0.623911	0.096069	0.898244
	H117	H	0.392694	0.091173	0.085382
	H118	H	0.623330	0.917997	0.083279
	H119	H	0.393922	0.906338	0.902157
	C120	C	0.385794	0.013467	0.612755
	C121	C	0.629322	0.996094	0.611278
	C122	C	0.629689	0.012034	0.368440
	C123	C	0.386371	0.996801	0.369287
	C124	C	0.630224	0.382144	-0.001397
	C125	C	0.630799	0.625557	0.982438
	C126	C	0.388152	0.624515	-0.000655
	C127	C	0.386900	0.381188	0.982231
	C128	C	0.016214	0.624412	0.371315
	C129	C	0.999332	0.624974	0.613534
	C130	C	0.017028	0.380209	0.614107
	C131	C	1.000274	0.381848	0.370849
	C132	C	0.886733	0.512072	0.113473
	C133	C	0.130081	0.494969	0.113140
	C134	C	0.130144	0.511318	0.869853
	C135	C	0.886431	0.495246	0.870133
	C136	C	0.129724	0.882153	0.499493
	C137	C	0.128760	0.124875	0.481811
	C138	C	0.886877	0.124775	0.499117
	C139	C	0.887225	0.881742	0.482557
	C140	C	0.517314	0.125839	0.868247
	C141	C	0.500236	0.125080	0.110562
	C142	C	0.517240	0.882723	0.111557
	C143	C	0.501155	0.882215	0.868926
	C144	C	0.386427	0.891890	0.670007
	C145	C	0.629062	0.117971	0.667920
	C146	C	0.629537	0.891040	0.310281
	C147	C	0.384853	0.117335	0.309920
	C148	C	0.686535	0.384879	0.876084
	C149	C	0.688438	0.626088	0.104066
	C150	C	0.330898	0.623151	0.877299
	C151	C	0.329242	0.380431	0.104137
	C152	C	0.895033	0.682771	0.369481
	C153	C	0.121293	0.682898	0.613470
	C154	C	0.895150	0.322720	0.614129
	C155	C	0.122370	0.325575	0.371482
	C156	C	0.894527	0.381657	0.670340
	C157	C	0.121882	0.623699	0.669866
	C158	C	0.895271	0.625172	0.311952
	C159	C	0.121764	0.381504	0.312400
	C160	C	0.387776	0.681873	0.877287
	C161	C	0.632172	0.684569	0.103387
	C162	C	0.629445	0.326808	0.875861
	C163	C	0.386770	0.322781	0.103468
	C164	C	0.687744	0.891181	0.367397
	C165	C	0.687245	0.117577	0.610917
	C166	C	0.327590	0.892177	0.613186
	C167	C	0.328646	0.118074	0.369036
	C168	C	0.886417	0.390475	0.170836
	C169	C	0.129179	0.616958	0.169611
	C170	C	0.127571	0.389258	0.814276
	C171	C	0.886728	0.616528	0.812513
	C172	C	0.186487	0.882998	0.377268
	C173	C	0.185061	0.123768	0.604362
	C174	C	0.831801	0.122728	0.375967
	C175	C	0.829481	0.883505	0.604500
	C176	C	0.395088	0.182208	0.869087
	C177	C	0.623067	0.181003	0.109448
	C178	C	0.395764	0.824171	0.112277
	C179	C	0.623420	0.825685	0.869080
	C180	C	0.394572	0.883225	0.168174
	C181	C	0.622389	0.124106	0.167833
	C182	C	0.394420	0.123984	0.812613
	C183	C	0.623568	0.884559	0.812236
	C184	C	0.887582	0.182178	0.377151
	C185	C	0.127823	0.180491	0.604610
	C186	C	0.130108	0.823745	0.378013
	C187	C	0.886084	0.825119	0.604751
	C188	C	0.186442	0.389443	0.870876
	C189	C	0.187191	0.616835	0.111991
	C190	C	0.829321	0.390449	0.112335
	C191	C	0.831097	0.617716	0.871687
	C192	C	0.409195	0.098100	0.589143
	C193	C	0.605782	0.911275	0.588573
	C194	C	0.606299	0.096457	0.392568
	C195	C	0.410222	0.912458	0.393285
	C196	C	0.606965	0.404329	0.084022
	C197	C	0.606760	0.601700	0.897867
	C198	C	0.411817	0.601181	0.084133
	C199	C	0.410705	0.405307	0.897418
	C200	C	0.100987	0.600801	0.395273
	C201	C	0.914585	0.601324	0.589853
	C202	C	0.102300	0.403405	0.590904
	C203	C	0.915402	0.405461	0.395250
	C204	C	0.910910	0.596444	0.089617
	C205	C	0.106319	0.410372	0.089625
	C206	C	0.107330	0.596388	0.893104
	C207	C	0.908891	0.410420	0.893468
	C208	C	0.105486	0.905831	0.584128
	C209	C	0.105822	0.102583	0.396464
	C210	C	0.909506	0.101433	0.584411
	C211	C	0.911758	0.904519	0.397766
	C212	C	0.602604	0.102918	0.891171
	C213	C	0.415176	0.101884	0.087159
	C214	C	0.602093	0.906820	0.087641
	C215	C	0.415916	0.904887	0.892818
	Zn216	Zn	0.508586	0.004769	0.740783
	Zn217	Zn	0.507666	0.004262	0.240289
	Zn218	Zn	0.758290	0.503999	-0.008958
	Zn219	Zn	0.259183	0.502686	-0.008530
	Zn220	Zn	0.007896	0.753154	0.491656
	Zn221	Zn	0.008552	0.252602	0.491104
	Zn222	Zn	0.008043	0.502866	0.741694
	Zn223	Zn	0.008831	0.503242	0.242472
	Zn224	Zn	0.509650	0.753656	-0.009252
	Zn225	Zn	0.508856	0.253428	-0.010581
	Zn226	Zn	0.758678	0.003723	0.490056
	Zn227	Zn	0.257350	0.005055	0.490381
	N228	N	0.421655	0.968344	0.670001
	N229	N	0.593981	0.041364	0.668638
	N230	N	0.593923	0.967200	0.310872
	N231	N	0.420147	0.041014	0.310061
	N232	N	0.687133	0.418688	0.953371
	N233	N	0.687294	0.589686	0.028156
	N234	N	0.330762	0.588511	0.954282
	N235	N	0.329403	0.416176	0.027776
	N236	N	0.971158	0.682078	0.406028
	N237	N	0.044079	0.683999	0.579513
	N238	N	0.972274	0.321832	0.579737
	N239	N	0.045732	0.325581	0.407011
	N240	N	0.971310	0.416923	0.670430
	N241	N	0.045118	0.588258	0.669992
	N242	N	0.971776	0.589753	0.312816
	N243	N	0.044796	0.416242	0.312091
	N244	N	0.422579	0.682930	0.954183
	N245	N	0.596962	0.684317	0.026802
	N246	N	0.595214	0.324975	0.953118
	N247	N	0.422026	0.323296	0.026722
	N248	N	0.687875	0.967431	0.402844
	N249	N	0.687664	0.040898	0.576341
	N250	N	0.326977	0.968676	0.578369
	N251	N	0.329615	0.042099	0.405355
	N252	N	0.921327	0.467016	0.171747
	N253	N	0.094762	0.540079	0.170614
	N254	N	0.093446	0.466137	0.813461
	N255	N	0.920276	0.539318	0.811181
	N256	N	0.186317	0.918500	0.453690
	N257	N	0.186019	0.090119	0.527029
	N258	N	0.831330	0.087767	0.452782
	N259	N	0.829636	0.917461	0.527281
	N260	N	0.472536	0.183567	0.902646
	N261	N	0.546243	0.181663	0.074564
	N262	N	0.472979	0.823565	0.078051
	N263	N	0.546212	0.824027	0.903401
	N264	N	0.471047	0.919195	0.167794
	N265	N	0.544934	0.090244	0.168963
	N266	N	0.471211	0.089252	0.812260
	N267	N	0.546424	0.918893	0.811938
	N268	N	0.920730	0.183716	0.454734
	N269	N	0.093561	0.181407	0.527473
	N270	N	0.095668	0.822840	0.455158
	N271	N	0.921307	0.823827	0.527943
	N272	N	0.188244	0.466508	0.904765
	N273	N	0.188020	0.539893	0.077733
	N274	N	0.828966	0.467149	0.077685
	N275	N	0.830715	0.541287	0.906667
	O276	O	0.083162	0.016273	0.017179
	H277	H	0.087432	0.020243	0.007070
	H278	H	0.086418	0.011440	0.011959
	O279	O	0.935228	-0.065993	0.975147
	H280	H	0.935699	-0.059156	0.981081
	H281	H	0.948019	-0.064183	0.967798
	O282	O	1.091468	0.018537	0.008679
	H283	H	1.085992	0.019909	0.010680
	H284	H	1.086009	0.026475	0.013813
	O285	O	0.099240	0.925247	-0.081800
	H286	H	0.093636	0.924783	-0.088964
	H287	H	0.097430	0.916721	-0.101649
	O288	O	0.412868	0.654485	0.346657
	H289	H	0.423080	0.678353	0.347626
	H290	H	0.424014	0.650812	0.346101
	O291	O	0.585562	0.645866	0.482151
	H292	H	0.587723	0.632360	0.463564
	H293	H	0.572323	0.651680	0.496664
	O294	O	0.865199	1.033695	0.957871
	H295	H	0.865524	1.033312	0.959894
	H296	H	0.859580	1.018939	0.954463
	O297	O	0.087857	-0.052698	-0.123063
	H298	H	0.079157	-0.051322	-0.109068
	H299	H	0.093296	-0.059008	-0.132710
	O300	O	0.422104	0.651186	0.505472
	H301	H	0.421282	0.640604	0.510344
	H302	H	0.414520	0.657276	0.501185
	O303	O	-0.066131	0.882631	1.008743
	H304	H	-0.066395	0.902791	1.006140
	H305	H	-0.058559	0.878217	1.011935
	O306	O	0.468960	0.359668	0.442861
	H307	H	0.480618	0.366691	0.431720
	H308	H	0.470753	0.348713	0.453268
	O309	O	0.967831	-0.058697	-0.111643
	H310	H	0.974263	-0.051948	-0.111115
	H311	H	0.959769	-0.064861	-0.092938
	O312	O	0.090431	-0.009221	1.048314
	H313	H	0.088536	-0.009091	1.040498
	H314	H	0.083185	-0.012320	1.037831
	O315	O	0.629762	0.325427	0.375857
	H316	H	0.631403	0.324778	0.384355
	H317	H	0.627626	0.319592	0.377487
	O318	O	0.410491	0.624685	0.517593
	H319	H	0.420644	0.610498	0.507537
	H320	H	0.393958	0.633428	0.523644
	O321	O	0.503684	0.543647	0.650413
	H322	H	0.509721	0.547623	0.647519
	H323	H	0.509035	0.540517	0.645469
	O324	O	0.528068	0.341249	0.583673
	H325	H	0.521927	0.344118	0.576235
	H326	H	0.513777	0.339177	0.583906
	O327	O	0.070281	0.999162	0.828967
	H328	H	0.068745	0.997657	0.827312
	H329	H	0.067658	0.999987	0.821657
	O330	O	0.469580	0.517182	0.367367
	H331	H	0.459994	0.509338	0.355844
	H332	H	0.475176	0.501531	0.356317
	O333	O	-0.346769	0.608547	1.486617
	H334	H	-0.342193	0.621926	1.482688
	H335	H	-0.357141	0.604822	1.486785
	O336	O	0.994776	1.070580	1.020787
	H337	H	0.990729	1.060288	1.034230
	H338	H	0.989075	1.072451	1.021630
	O339	O	0.692506	0.560815	0.472558
	H340	H	0.700941	0.579312	0.481442
	H341	H	0.681880	0.567269	0.458461
	O342	O	1.064221	0.102989	-0.032782
	H343	H	1.074745	0.104175	-0.031150
	H344	H	1.071825	0.102011	-0.037687
	O345	O	0.368692	0.392830	0.585104
	H346	H	0.357954	0.393978	0.586421
	H347	H	0.373097	0.385023	0.593839
	O348	O	1.001932	0.924877	0.838265
	H349	H	1.002691	0.922230	0.829175
	H350	H	0.997846	0.928267	0.831693
	O351	O	1.159036	1.015882	-0.000267
	H352	H	1.164683	1.015074	0.001259
	H353	H	1.146319	1.007842	0.001151
	O354	O	0.612346	0.328721	0.401958
	H355	H	0.606592	0.325351	0.415523
	H356	H	0.608954	0.343738	0.400627
	O357	O	0.538177	0.426723	0.342662
	H358	H	0.549136	0.419388	0.329359
	H359	H	0.530812	0.430962	0.373031
	O360	O	-0.513264	0.574248	-0.520427
	H361	H	-0.505096	0.575507	-0.538542
	H362	H	-0.507057	0.586322	-0.514340
	O363	O	0.542938	0.481489	0.543261
	H364	H	0.547779	0.479700	0.530876
	H365	H	0.558654	0.480778	0.544728
	O366	O	0.465202	0.565333	0.544250
	H367	H	0.450250	0.562071	0.548819
	H368	H	0.472341	0.565702	0.537745
	O369	O	0.480814	0.495779	0.638091
	H370	H	0.494381	0.484174	0.628361
	H371	H	0.487182	0.496457	0.650674
	O372	O	0.478692	0.511270	0.335359
	H373	H	0.485419	0.514320	0.310029
	H374	H	0.485798	0.530878	0.355780
	O375	O	-0.488138	0.642065	1.613633
	H376	H	-0.502908	0.655242	1.610642
	H377	H	-0.480880	0.641650	1.631373
	O378	O	0.682132	0.579287	0.548816
	H379	H	0.668830	0.589993	0.543412
	H380	H	0.686127	0.579975	0.557460
	O381	O	0.376234	0.547025	0.629115
	H382	H	0.380390	0.539625	0.624895
	H383	H	0.373667	0.545694	0.634172
	O384	O	0.412412	0.456218	-0.691869
	H385	H	0.427514	0.458600	-0.691514
	H386	H	0.403660	0.450769	-0.695351
	O387	O	1.047289	-0.096116	1.074233
	H388	H	1.047390	-0.090740	1.079184
	H389	H	1.055074	-0.106221	1.068773
	O390	O	-1.104670	0.096008	1.020570
	H391	H	-1.114025	0.106234	1.027680
	H392	H	-1.102880	0.097387	1.011133
	O393	O	0.906086	0.958839	-0.106692
	H394	H	0.915259	0.963966	-0.113720
	H395	H	0.898335	0.960605	-0.115800
	O396	O	0.671919	0.386427	0.456006
	H397	H	0.667592	0.399557	0.460520
	H398	H	0.689062	0.378845	0.439992
	O399	O	0.032156	1.071796	0.974265
	H400	H	0.045989	1.068990	0.976661
	H401	H	0.027808	1.073264	0.976002
	O402	O	0.888177	0.924396	1.099196
	H403	H	0.889835	0.935696	1.095870
	H404	H	0.894939	0.923181	1.101930
	O405	O	0.359234	1.536703	0.408445
	H406	H	0.356952	1.542196	0.402010
	H407	H	0.351547	1.539236	0.401154
