data_Molecule from HDF5

_cell_length_a		16.544924
_cell_length_b		16.338745
_cell_length_c		16.277550
_cell_angle_alpha	90.106034
_cell_angle_beta	90.331468
_cell_angle_gamma	89.952290
_symmetry_space_group_name_H-M	'P 1'
_symmetry_Int_Tables_number		1

loop_
	_symmetry_equiv_pos_as_xyz
	x,y,z

loop_
	_atom_site_label
	_atom_site_type_symbol
	_atom_site_fract_x
	_atom_site_fract_y
	_atom_site_fract_z
	H0	H	0.397341	0.835910	0.717354
	H1	H	0.598926	0.158648	0.719448
	H2	H	0.600262	0.838082	0.280703
	H3	H	0.390400	0.155968	0.278222
	H4	H	0.715329	0.390966	0.840076
	H5	H	0.720522	0.606414	0.157594
	H6	H	0.273245	0.601908	0.839771
	H7	H	0.272801	0.387617	0.158157
	H8	H	0.840282	0.719446	0.394662
	H9	H	0.154122	0.720431	0.610820
	H10	H	0.840261	0.274091	0.605322
	H11	H	0.153406	0.271666	0.393189
	H12	H	0.837211	0.394245	0.716640
	H13	H	0.154233	0.599802	0.724057
	H14	H	0.839637	0.602554	0.277841
	H15	H	0.153251	0.387335	0.276201
	H16	H	0.392440	0.713706	0.837342
	H17	H	0.601091	0.718362	0.158390
	H18	H	0.596220	0.278949	0.839350
	H19	H	0.389045	0.274605	0.158827
	H20	H	0.716594	0.837573	0.395940
	H21	H	0.719932	0.156187	0.609068
	H22	H	0.275793	0.838533	0.607507
	H23	H	0.272705	0.154581	0.390601
	H24	H	0.892567	0.337190	0.219209
	H25	H	0.104306	0.654616	0.224604
	H26	H	0.095310	0.334613	0.783374
	H27	H	0.892320	0.655704	0.780737
	H28	H	0.219674	0.887260	0.341295
	H29	H	0.223316	0.106235	0.657566
	H30	H	0.773539	0.104801	0.342423
	H31	H	0.779184	0.893360	0.660481
	H32	H	0.338943	0.218889	0.893226
	H33	H	0.653165	0.221212	0.108818
	H34	H	0.338363	0.774437	0.105972
	H35	H	0.652028	0.772996	0.892964
	H36	H	0.339976	0.890416	0.223679
	H37	H	0.653858	0.104253	0.224158
	H38	H	0.339742	0.103342	0.776777
	H39	H	0.655182	0.893005	0.781893
	H40	H	0.892253	0.216291	0.340209
	H41	H	0.103209	0.217475	0.660221
	H42	H	0.103690	0.772861	0.341781
	H43	H	0.898822	0.781006	0.662113
	H44	H	0.216927	0.336886	0.892940
	H45	H	0.220523	0.654338	0.109544
	H46	H	0.773712	0.339289	0.107138
	H47	H	0.774062	0.654556	0.892110
	H48	H	0.411519	0.108056	0.583452
	H49	H	0.582215	0.888218	0.584205
	H50	H	0.588975	0.115447	0.405910
	H51	H	0.412177	0.885404	0.413740
	H52	H	0.582612	0.411154	0.112531
	H53	H	0.592791	0.586972	0.881652
	H54	H	0.415090	0.582959	0.110217
	H55	H	0.408929	0.410661	0.887339
	H56	H	0.104914	0.583207	0.424890
	H57	H	0.883489	0.593933	0.585535
	H58	H	0.107350	0.411371	0.587687
	H59	H	0.884221	0.406838	0.410815
	H60	H	0.110581	0.408348	0.594991
	H61	H	0.885835	0.583831	0.588462
	H62	H	0.107786	0.575381	0.408850
	H63	H	0.885418	0.407492	0.411690
	H64	H	0.406611	0.592514	0.116784
	H65	H	0.583770	0.576158	0.888050
	H66	H	0.586717	0.407058	0.115749
	H67	H	0.405811	0.406628	0.885364
	H68	H	0.578785	0.108839	0.414643
	H69	H	0.599940	0.880590	0.587183
	H70	H	0.404443	0.111747	0.585908
	H71	H	0.407221	0.884113	0.415873
	H72	H	0.907795	0.610024	0.085143
	H73	H	0.093758	0.379549	0.090018
	H74	H	0.082296	0.608708	0.914174
	H75	H	0.898460	0.378764	0.911242
	H76	H	0.089786	0.910130	0.614904
	H77	H	0.078732	0.083995	0.388420
	H78	H	0.915630	0.083401	0.612053
	H79	H	0.913927	0.908926	0.388249
	H80	H	0.606192	0.087148	0.920106
	H81	H	0.385295	0.083786	0.088013
	H82	H	0.607009	0.908617	0.085414
	H83	H	0.380535	0.903279	0.906369
	H84	H	0.607444	0.909878	0.090342
	H85	H	0.384124	0.087637	0.089125
	H86	H	0.608903	0.081242	0.905940
	H87	H	0.384679	0.906871	0.913803
	H88	H	0.907534	0.091229	0.617517
	H89	H	0.088159	0.089023	0.384046
	H90	H	0.087161	0.912297	0.612834
	H91	H	0.903624	0.901897	0.382385
	H92	H	0.088578	0.610183	0.914308
	H93	H	0.077476	0.384209	0.093215
	H94	H	0.906443	0.611729	0.088236
	H95	H	0.905792	0.379101	0.903911
	H96	H	0.410476	0.110981	0.591570
	H97	H	0.586970	0.878986	0.601973
	H98	H	0.592564	0.111024	0.419608
	H99	H	0.408514	0.882227	0.410831
	H100	H	0.588779	0.412960	0.114542
	H101	H	0.578256	0.590219	0.884844
	H102	H	0.401197	0.579366	0.112812
	H103	H	0.404081	0.411637	0.886055
	H104	H	0.112526	0.592517	0.411461
	H105	H	0.881338	0.590720	0.596051
	H106	H	0.110321	0.403113	0.588394
	H107	H	0.884738	0.408074	0.410566
	H108	H	0.909675	0.609818	0.088114
	H109	H	0.083688	0.387116	0.077403
	H110	H	0.085153	0.611192	0.908667
	H111	H	0.907040	0.383325	0.913181
	H112	H	0.086380	0.908939	0.614061
	H113	H	0.088292	0.077749	0.387121
	H114	H	0.904090	0.079424	0.614969
	H115	H	0.901583	0.915237	0.385817
	H116	H	0.612795	0.095886	0.909369
	H117	H	0.385503	0.086667	0.084998
	H118	H	0.608814	0.905383	0.088848
	H119	H	0.383579	0.911963	0.905946
	C120	C	0.376696	0.005329	0.620254
	C121	C	0.620156	0.988664	0.623106
	C122	C	0.618525	0.006277	0.380180
	C123	C	0.375552	0.988484	0.379219
	C124	C	0.617142	0.376970	0.008650
	C125	C	0.617652	0.618402	0.990155
	C126	C	0.374450	0.617384	0.007927
	C127	C	0.374218	0.376158	0.991280
	C128	C	0.005168	0.617596	0.380190
	C129	C	0.987985	0.620010	0.623460
	C130	C	0.004761	0.375419	0.621212
	C131	C	0.988364	0.374182	0.377944
	C132	C	0.875192	0.505832	0.120193
	C133	C	0.118589	0.487956	0.121672
	C134	C	0.116351	0.504353	0.879886
	C135	C	0.873302	0.486541	0.877780
	C136	C	0.119763	0.875673	0.509047
	C137	C	0.118735	0.117355	0.491550
	C138	C	0.876294	0.117625	0.509395
	C139	C	0.876345	0.876747	0.491890
	C140	C	0.505034	0.120023	0.878520
	C141	C	0.488167	0.119612	0.122164
	C142	C	0.503978	0.875384	0.121028
	C143	C	0.487536	0.875599	0.877851
	C144	C	0.376969	0.884574	0.679170
	C145	C	0.619438	0.110005	0.681309
	C146	C	0.619448	0.886178	0.320115
	C147	C	0.372515	0.108118	0.318369
	C148	C	0.675617	0.373586	0.888167
	C149	C	0.679112	0.623087	0.109906
	C150	C	0.313707	0.620063	0.887552
	C151	C	0.313174	0.371118	0.110638
	C152	C	0.887195	0.679070	0.376356
	C153	C	0.106774	0.679727	0.627565
	C154	C	0.886790	0.314773	0.623090
	C155	C	0.106437	0.312672	0.375286
	C156	C	0.885131	0.374796	0.678384
	C157	C	0.106758	0.619897	0.684291
	C158	C	0.887178	0.620998	0.318122
	C159	C	0.106374	0.370304	0.316764
	C160	C	0.372764	0.675941	0.886382
	C161	C	0.619761	0.678946	0.110411
	C162	C	0.616357	0.317917	0.887771
	C163	C	0.371336	0.314718	0.110912
	C164	C	0.677217	0.885973	0.377715
	C165	C	0.679534	0.108720	0.626260
	C166	C	0.316536	0.885815	0.624251
	C167	C	0.313556	0.107295	0.374359
	C168	C	0.873557	0.385631	0.180086
	C169	C	0.122016	0.607036	0.184079
	C170	C	0.115777	0.383203	0.821435
	C171	C	0.873039	0.607365	0.819288
	C172	C	0.179898	0.870527	0.389212
	C173	C	0.181551	0.122594	0.610631
	C174	C	0.814614	0.121518	0.389701
	C175	C	0.818892	0.875140	0.612756
	C176	C	0.386335	0.179493	0.875200
	C177	C	0.605840	0.180908	0.126333
	C178	C	0.385877	0.814588	0.124277
	C179	C	0.605301	0.813928	0.875306
	C180	C	0.386593	0.872724	0.182677
	C181	C	0.606403	0.122636	0.183947
	C182	C	0.386756	0.121636	0.817200
	C183	C	0.607004	0.873922	0.820083
	C184	C	0.873953	0.177098	0.388640
	C185	C	0.122033	0.178232	0.611762
	C186	C	0.121876	0.813664	0.389358
	C187	C	0.878209	0.819308	0.613420
	C188	C	0.176068	0.384269	0.876380
	C189	C	0.179940	0.606878	0.126589
	C190	C	0.814146	0.386636	0.124372
	C191	C	0.814197	0.606831	0.874862
	C192	C	0.401515	0.088674	0.594539
	C193	C	0.596587	0.904659	0.598309
	C194	C	0.593807	0.089931	0.405839
	C195	C	0.401824	0.905604	0.405774
	C196	C	0.593056	0.402765	0.092568
	C197	C	0.592339	0.592159	0.906730
	C198	C	0.400149	0.592225	0.091427
	C199	C	0.399106	0.402320	0.907942
	C200	C	0.087046	0.591496	0.407224
	C201	C	0.905134	0.596280	0.597556
	C202	C	0.087835	0.400266	0.597035
	C203	C	0.906348	0.400036	0.403442
	C204	C	0.900569	0.589007	0.094373
	C205	C	0.092534	0.405147	0.094563
	C206	C	0.092473	0.588257	0.905163
	C207	C	0.897000	0.402306	0.902254
	C208	C	0.095021	0.902794	0.592432
	C209	C	0.092580	0.091096	0.408294
	C210	C	0.902054	0.092062	0.593086
	C211	C	0.899668	0.901444	0.407381
	C212	C	0.587713	0.095322	0.904439
	C213	C	0.406329	0.093366	0.095287
	C214	C	0.586149	0.900501	0.095523
	C215	C	0.404542	0.900338	0.901922
	Zn216	Zn	0.497507	-0.002236	0.749984
	Zn217	Zn	0.496796	-0.002696	0.251063
	Zn218	Zn	0.746290	0.497180	-0.000810
	Zn219	Zn	0.246383	0.496031	-0.000473
	Zn220	Zn	-0.002232	0.748749	0.500783
	Zn221	Zn	-0.002840	0.245590	0.500884
	Zn222	Zn	-0.004665	0.495785	0.750817
	Zn223	Zn	-0.003327	0.496384	0.249128
	Zn224	Zn	0.495212	0.746087	-0.001364
	Zn225	Zn	0.495714	0.249139	0.000447
	Zn226	Zn	0.747596	-0.002740	0.501177
	Zn227	Zn	0.247365	-0.003756	0.499704
	N228	N	0.413522	0.960017	0.677038
	N229	N	0.583554	0.034279	0.679858
	N230	N	0.583768	0.962133	0.321245
	N231	N	0.410382	0.033214	0.321161
	N232	N	0.676342	0.409605	0.964574
	N233	N	0.677825	0.586002	0.034184
	N234	N	0.314333	0.584703	0.964073
	N235	N	0.315078	0.408647	0.035271
	N236	N	0.961723	0.677360	0.413978
	N237	N	0.031880	0.680131	0.590593
	N238	N	0.962283	0.315018	0.588222
	N239	N	0.032173	0.314724	0.412593
	N240	N	0.959506	0.411805	0.677262
	N241	N	0.031817	0.583815	0.682085
	N242	N	0.961562	0.583454	0.320388
	N243	N	0.032084	0.407864	0.318408
	N244	N	0.409964	0.674448	0.962161
	N245	N	0.582057	0.676023	0.035001
	N246	N	0.580991	0.319751	0.963836
	N247	N	0.408650	0.317741	0.035703
	N248	N	0.676760	0.961687	0.414327
	N249	N	0.680096	0.032233	0.590771
	N250	N	0.316144	0.961961	0.588538
	N251	N	0.315413	0.031796	0.411430
	N252	N	0.910776	0.460813	0.177674
	N253	N	0.084692	0.531963	0.181358
	N254	N	0.079446	0.458871	0.823395
	N255	N	0.909314	0.531604	0.821124
	N256	N	0.178433	0.908346	0.464683
	N257	N	0.179815	0.085585	0.534708
	N258	N	0.815939	0.085333	0.465836
	N259	N	0.817575	0.909906	0.535957
	N260	N	0.460847	0.178292	0.912670
	N261	N	0.531180	0.179432	0.088881
	N262	N	0.459919	0.816167	0.086520
	N263	N	0.529920	0.814804	0.910494
	N264	N	0.461126	0.909642	0.180845
	N265	N	0.532086	0.085470	0.181741
	N266	N	0.461544	0.085204	0.819096
	N267	N	0.532743	0.911580	0.821429
	N268	N	0.911801	0.174543	0.464055
	N269	N	0.083814	0.175193	0.536718
	N270	N	0.085223	0.816600	0.464878
	N271	N	0.913385	0.820406	0.537179
	N272	N	0.176666	0.460713	0.911785
	N273	N	0.178053	0.531733	0.088864
	N274	N	0.815041	0.462471	0.087879
	N275	N	0.814228	0.530725	0.910497
	O276	O	0.519884	0.282950	0.286119
	H277	H	0.510642	0.279832	0.284793
	H278	H	0.537358	0.263007	0.266155
	O279	O	0.646754	0.293989	0.549360
	H280	H	0.671086	0.289123	0.551053
	H281	H	0.652336	0.288890	0.552400
	O282	O	0.288976	0.705062	0.485736
	H283	H	0.268109	0.726176	0.471709
	H284	H	0.286242	0.687524	0.494683
	O285	O	0.804054	1.034638	-0.144378
	H286	H	0.811884	1.041526	-0.149227
	H287	H	0.796265	1.035517	-0.120980
	O288	O	0.423565	0.603830	0.663076
	H289	H	0.426599	0.610920	0.664469
	H290	H	0.417909	0.595911	0.658144
	O291	O	0.373414	0.524874	0.633087
	H292	H	0.360755	0.521468	0.633684
	H293	H	0.374078	0.523142	0.632955
	O294	O	0.969141	0.808936	0.900409
	H295	H	0.966977	0.790344	0.877486
	H296	H	0.956550	0.809387	0.912919
	O297	O	0.389239	0.356422	0.620547
	H298	H	0.378613	0.353034	0.621376
	H299	H	0.391444	0.361001	0.616860
	O300	O	0.681843	0.591001	0.344792
	H301	H	0.683061	0.584492	0.342284
	H302	H	0.673480	0.599597	0.345446
	O303	O	0.578239	0.544199	0.401024
	H304	H	0.568319	0.531604	0.400859
	H305	H	0.568206	0.554435	0.409196
	O306	O	0.180556	0.161349	0.956093
	H307	H	0.196922	0.143950	0.932607
	H308	H	0.173033	0.167289	0.949151
	O309	O	0.868803	-0.093821	0.153838
	H310	H	0.871227	-0.095391	0.154298
	H311	H	0.864966	-0.108669	0.157278
	O312	O	0.301506	0.539000	0.558031
	H313	H	0.314924	0.529177	0.562003
	H314	H	0.303626	0.550354	0.571504
	O315	O	0.682678	0.485703	0.508162
	H316	H	0.678981	0.498559	0.501244
	H317	H	0.672983	0.462717	0.508137
	O318	O	0.049484	0.089137	-0.185713
	H319	H	0.045966	0.101233	-0.173913
	H320	H	0.060806	0.070226	-0.196521
	O321	O	0.691694	0.304131	0.416090
	H322	H	0.693610	0.310941	0.401578
	H323	H	0.703130	0.305146	0.406013
	O324	O	1.131915	0.081703	0.955859
	H325	H	1.130531	0.064784	0.963129
	H326	H	1.140622	0.071082	0.935966
	O327	O	0.473791	0.537585	0.655504
	H328	H	0.463795	0.536073	0.649387
	H329	H	0.488056	0.535269	0.669526
	O330	O	0.042137	1.115852	0.812982
	H331	H	0.048339	1.111297	0.814687
	H332	H	0.046866	1.093111	0.819006
	O333	O	0.205934	1.009419	0.210477
	H334	H	0.220366	1.030767	0.222390
	H335	H	0.214836	1.018142	0.205366
	O336	O	0.848026	0.871132	-0.081114
	H337	H	0.837152	0.879112	-0.065756
	H338	H	0.855427	0.868749	-0.083974
	O339	O	-0.001478	1.027709	1.208235
	H340	H	-0.002158	1.025287	1.209912
	H341	H	0.020863	1.009668	1.213746
	O342	O	0.330490	0.672154	0.332987
	H343	H	0.333822	0.674403	0.362831
	H344	H	0.312836	0.624062	0.317824
	O345	O	-0.183734	0.067795	1.108191
	H346	H	-0.173784	0.054610	1.122167
	H347	H	-0.190166	0.063461	1.107519
	O348	O	0.295057	0.340118	0.584819
	H349	H	0.281104	0.333358	0.576116
	H350	H	0.328020	0.348368	0.579285
	O351	O	0.805499	1.010957	0.066848
	H352	H	0.805188	1.015920	0.048941
	H353	H	0.797653	1.024325	0.077820
	O354	O	1.002638	1.126787	0.911094
	H355	H	0.993142	1.130885	0.909831
	H356	H	1.008938	1.126126	0.912360
	O357	O	-0.033460	-0.138871	0.189984
	H358	H	-0.036851	-0.132272	0.186773
	H359	H	-0.037567	-0.156312	0.199402
	O360	O	0.383111	0.318519	0.658158
	H361	H	0.384033	0.317927	0.646183
	H362	H	0.390284	0.314363	0.636383
	O363	O	0.799372	0.093056	-0.118301
	H364	H	0.796961	0.117868	-0.123101
	H365	H	0.815646	0.078439	-0.110723
	O366	O	-0.030921	0.082611	1.127548
	H367	H	-0.024674	0.082751	1.130737
	H368	H	-0.029501	0.090411	1.144266
	O369	O	0.880893	-0.038350	0.808007
	H370	H	0.877477	-0.013096	0.815863
	H371	H	0.867674	-0.042797	0.792602
	O372	O	0.550217	0.363530	0.664467
	H373	H	0.538688	0.363251	0.675361
	H374	H	0.568963	0.363748	0.670769
	O375	O	0.164511	-0.080092	1.071156
	H376	H	0.164751	-0.063889	1.074287
	H377	H	0.158296	-0.095108	1.060505
	O378	O	0.401915	0.475562	0.373800
	H379	H	0.407325	0.450851	0.382520
	H380	H	0.421165	0.494826	0.378218
	O381	O	0.169080	1.174202	0.122633
	H382	H	0.154247	1.168810	0.125803
	H383	H	0.173012	1.182511	0.081487
	O384	O	0.613571	0.654719	0.493643
	H385	H	0.611414	0.664760	0.512003
	H386	H	0.616247	0.654589	0.490981
	O387	O	0.650636	0.531525	0.689570
	H388	H	0.654151	0.523216	0.694058
	H389	H	0.657460	0.528366	0.691679
	O390	O	0.809038	0.816602	0.079871
	H391	H	0.802000	0.811663	0.086582
	H392	H	0.801668	0.836181	0.073193
	O393	O	0.903294	0.198087	1.060134
	H394	H	0.915914	0.209456	1.055905
	H395	H	0.907235	0.186791	1.061081
	O396	O	0.459156	0.364930	0.385013
	H397	H	0.456679	0.360882	0.393915
	H398	H	0.459666	0.366649	0.387122
	O399	O	0.690999	0.388198	0.317946
	H400	H	0.677432	0.426472	0.304418
	H401	H	0.673102	0.385737	0.306698
	O402	O	0.899399	0.799925	0.030531
	H403	H	0.889644	0.809313	0.031928
	H404	H	0.896175	0.794787	0.052917
	O405	O	0.280670	0.519301	0.294170
	H406	H	0.269400	0.508361	0.289384
	H407	H	0.262615	0.503186	0.296563
	O408	O	0.649934	0.648509	0.682582
	H409	H	0.632504	0.663042	0.676790
	H410	H	0.659660	0.622125	0.684349
	O411	O	1.173068	0.787495	0.938780
	H412	H	1.173600	0.791605	0.946733
	H413	H	1.185648	0.766602	0.932128
	O414	O	0.457471	0.542386	0.484378
	H415	H	0.450802	0.524706	0.465069
	H416	H	0.461139	0.552614	0.483799
	O417	O	0.179578	0.835636	0.810593
	H418	H	0.175722	0.824335	0.829480
	H419	H	0.153052	0.838537	0.806585
	O420	O	0.053525	0.845295	1.087861
	H421	H	0.051123	0.854874	1.084759
	H422	H	0.045299	0.852990	1.091158
	O423	O	0.048263	0.994473	-0.018850
	H424	H	0.044813	0.995837	-0.009067
	H425	H	0.044133	0.994254	-0.015433
	O426	O	0.483953	0.702389	0.294283
	H427	H	0.446082	0.697748	0.305064
	H428	H	0.481063	0.722160	0.274822
	O429	O	0.699128	0.707742	0.581270
	H430	H	0.694203	0.714358	0.602958
	H431	H	0.720159	0.726609	0.584441
	O432	O	0.498134	0.404405	0.382679
	H433	H	0.500991	0.410237	0.367927
	H434	H	0.506200	0.418023	0.388925
	O435	O	-0.045915	0.173468	0.106021
	H436	H	-0.049370	0.176822	0.124809
	H437	H	-0.054310	0.173202	0.101030
	O438	O	0.211869	0.946209	0.863862
	H439	H	0.204223	0.912796	0.862779
	H440	H	0.236472	0.938491	0.840392
	O441	O	0.484358	0.529030	0.478998
	H442	H	0.483447	0.528775	0.479458
	H443	H	0.482765	0.530488	0.470737
