data_Molecule from HDF5

_cell_length_a		16.341522
_cell_length_b		16.271264
_cell_length_c		16.218286
_cell_angle_alpha	89.838362
_cell_angle_beta	89.573646
_cell_angle_gamma	89.910949
_symmetry_space_group_name_H-M	'P 1'
_symmetry_Int_Tables_number		1

loop_
	_symmetry_equiv_pos_as_xyz
	x,y,z

loop_
	_atom_site_label
	_atom_site_type_symbol
	_atom_site_fract_x
	_atom_site_fract_y
	_atom_site_fract_z
	H0	H	0.398134	0.832923	0.713113
	H1	H	0.595559	0.158732	0.711966
	H2	H	0.601678	0.833319	0.281561
	H3	H	0.398656	0.157509	0.277904
	H4	H	0.720750	0.396287	0.834230
	H5	H	0.716291	0.595316	0.160993
	H6	H	0.286736	0.597567	0.833787
	H7	H	0.282331	0.391257	0.158349
	H8	H	0.836816	0.714843	0.400291
	H9	H	0.160480	0.717026	0.600550
	H10	H	0.836059	0.283314	0.601845
	H11	H	0.159760	0.278853	0.395314
	H12	H	0.838096	0.400618	0.716910
	H13	H	0.163755	0.597739	0.710871
	H14	H	0.838316	0.601360	0.281089
	H15	H	0.161582	0.397702	0.280520
	H16	H	0.404756	0.710788	0.832815
	H17	H	0.605382	0.715550	0.158397
	H18	H	0.603752	0.281361	0.831605
	H19	H	0.400428	0.277191	0.158509
	H20	H	0.720599	0.836937	0.393433
	H21	H	0.713318	0.160182	0.597118
	H22	H	0.279563	0.834831	0.602843
	H23	H	0.282140	0.157979	0.394105
	H24	H	0.898578	0.336392	0.218712
	H25	H	0.101128	0.660974	0.211784
	H26	H	0.102999	0.335383	0.780104
	H27	H	0.905387	0.662383	0.786551
	H28	H	0.218779	0.893062	0.337033
	H29	H	0.213837	0.097004	0.661725
	H30	H	0.783644	0.102443	0.334590
	H31	H	0.779733	0.896660	0.659246
	H32	H	0.341927	0.217470	0.889629
	H33	H	0.663287	0.211161	0.095448
	H34	H	0.340727	0.775996	0.100411
	H35	H	0.662872	0.778896	0.892538
	H36	H	0.340731	0.888922	0.218238
	H37	H	0.661454	0.098361	0.214415
	H38	H	0.336874	0.093273	0.784337
	H39	H	0.660666	0.893153	0.776137
	H40	H	0.897615	0.216976	0.336089
	H41	H	0.096104	0.211684	0.662612
	H42	H	0.100693	0.781544	0.336695
	H43	H	0.896392	0.782493	0.662263
	H44	H	0.219355	0.334208	0.893456
	H45	H	0.220653	0.657533	0.098500
	H46	H	0.783718	0.334582	0.103379
	H47	H	0.784046	0.658837	0.895824
	H48	H	0.405126	0.111873	0.587938
	H49	H	0.586849	0.885576	0.575694
	H50	H	0.594229	0.113463	0.408356
	H51	H	0.393618	0.875775	0.407499
	H52	H	0.588696	0.397027	0.112899
	H53	H	0.593332	0.587957	0.880808
	H54	H	0.411541	0.585405	0.111431
	H55	H	0.417113	0.401426	0.881390
	H56	H	0.116424	0.594750	0.403731
	H57	H	0.884229	0.591335	0.593787
	H58	H	0.114463	0.405114	0.589277
	H59	H	0.885624	0.407416	0.411972
	H60	H	0.115699	0.403393	0.588371
	H61	H	0.883272	0.591322	0.593186
	H62	H	0.112831	0.590645	0.412209
	H63	H	0.885987	0.412575	0.408750
	H64	H	0.409268	0.585700	0.112967
	H65	H	0.595886	0.585441	0.881568
	H66	H	0.597281	0.401800	0.115122
	H67	H	0.405419	0.401653	0.877191
	H68	H	0.591215	0.114856	0.399572
	H69	H	0.602948	0.876995	0.586317
	H70	H	0.406179	0.112115	0.591140
	H71	H	0.418537	0.879665	0.395788
	H72	H	0.902616	0.613757	0.085149
	H73	H	0.093895	0.381293	0.085026
	H74	H	0.098429	0.613110	0.908243
	H75	H	0.912688	0.383307	0.911097
	H76	H	0.087035	0.913305	0.612499
	H77	H	0.091711	0.087417	0.382318
	H78	H	0.903772	0.084495	0.612754
	H79	H	0.910304	0.907769	0.382516
	H80	H	0.616282	0.079545	0.897457
	H81	H	0.386448	0.087969	0.083908
	H82	H	0.617426	0.902570	0.087851
	H83	H	0.386265	0.908105	0.906601
	H84	H	0.615300	0.904394	0.083974
	H85	H	0.387891	0.082473	0.082605
	H86	H	0.620067	0.093824	0.898558
	H87	H	0.382426	0.899829	0.900136
	H88	H	0.908655	0.090256	0.614117
	H89	H	0.089223	0.087822	0.383349
	H90	H	0.084887	0.901542	0.615815
	H91	H	0.910434	0.907479	0.382052
	H92	H	0.095309	0.614630	0.902964
	H93	H	0.092703	0.380339	0.092779
	H94	H	0.908242	0.614657	0.094290
	H95	H	0.906962	0.380138	0.906929
	H96	H	0.408417	0.111572	0.588547
	H97	H	0.584529	0.878993	0.595205
	H98	H	0.584726	0.110442	0.406313
	H99	H	0.414078	0.887135	0.422182
	H100	H	0.589752	0.406362	0.110983
	H101	H	0.593328	0.584989	0.882548
	H102	H	0.410228	0.583730	0.112747
	H103	H	0.410659	0.411779	0.881641
	H104	H	0.114031	0.585701	0.403984
	H105	H	0.883906	0.590718	0.594157
	H106	H	0.114815	0.405046	0.586894
	H107	H	0.883133	0.407590	0.406000
	H108	H	0.912256	0.610594	0.085837
	H109	H	0.086820	0.383492	0.087883
	H110	H	0.092007	0.611453	0.907661
	H111	H	0.913899	0.381368	0.904767
	H112	H	0.096149	0.906050	0.617676
	H113	H	0.090540	0.089915	0.381946
	H114	H	0.901296	0.091043	0.615978
	H115	H	0.909751	0.907036	0.381247
	H116	H	0.613962	0.086368	0.910123
	H117	H	0.386516	0.084375	0.089306
	H118	H	0.614921	0.907099	0.087426
	H119	H	0.384956	0.897519	0.910942
	C120	C	0.376875	0.004545	0.619512
	C121	C	0.620050	0.988095	0.616827
	C122	C	0.621694	0.005658	0.374452
	C123	C	0.378450	0.987653	0.376428
	C124	C	0.623697	0.372934	0.005034
	C125	C	0.623415	0.616321	0.988967
	C126	C	0.381419	0.615844	0.004836
	C127	C	0.379973	0.373282	0.987347
	C128	C	0.007880	0.620825	0.376999
	C129	C	0.991602	0.620398	0.621282
	C130	C	0.007794	0.375833	0.620350
	C131	C	0.990953	0.377641	0.377355
	C132	C	0.878564	0.506067	0.120159
	C133	C	0.121533	0.488780	0.117964
	C134	C	0.124558	0.505966	0.875163
	C135	C	0.881264	0.489191	0.877866
	C136	C	0.120659	0.875854	0.508236
	C137	C	0.120098	0.118193	0.490145
	C138	C	0.876282	0.120054	0.506583
	C139	C	0.878246	0.877383	0.489580
	C140	C	0.509699	0.116921	0.873239
	C141	C	0.492894	0.115711	0.116112
	C142	C	0.509754	0.873106	0.118190
	C143	C	0.491604	0.872800	0.874667
	C144	C	0.377955	0.881906	0.675818
	C145	C	0.616935	0.110230	0.673925
	C146	C	0.621772	0.883042	0.318583
	C147	C	0.378578	0.109144	0.317064
	C148	C	0.681703	0.375754	0.882690
	C149	C	0.678592	0.615279	0.111969
	C150	C	0.325417	0.616526	0.882351
	C151	C	0.321558	0.372340	0.109719
	C152	C	0.885614	0.676977	0.379265
	C153	C	0.112577	0.677966	0.619657
	C154	C	0.885324	0.320832	0.621060
	C155	C	0.111838	0.318646	0.376307
	C156	C	0.886332	0.379193	0.678531
	C157	C	0.114234	0.618543	0.674983
	C158	C	0.886459	0.620328	0.320165
	C159	C	0.112763	0.377764	0.319230
	C160	C	0.384178	0.672888	0.881989
	C161	C	0.623193	0.674800	0.110704
	C162	C	0.623126	0.318908	0.881183
	C163	C	0.380146	0.315293	0.109548
	C164	C	0.680696	0.884631	0.374662
	C165	C	0.675505	0.110924	0.616738
	C166	C	0.319261	0.882788	0.620399
	C167	C	0.320914	0.109467	0.374914
	C168	C	0.878929	0.384600	0.179465
	C169	C	0.121124	0.611707	0.173889
	C170	C	0.123337	0.383902	0.817736
	C171	C	0.884046	0.612623	0.822986
	C172	C	0.179427	0.874703	0.385949
	C173	C	0.176151	0.117363	0.612666
	C174	C	0.821244	0.120873	0.383675
	C175	C	0.818997	0.877495	0.611389
	C176	C	0.388934	0.176197	0.872750
	C177	C	0.614580	0.173028	0.115707
	C178	C	0.388784	0.814673	0.119474
	C179	C	0.613837	0.816915	0.873838
	C180	C	0.388970	0.871304	0.177944
	C181	C	0.613587	0.116454	0.174621
	C182	C	0.386555	0.114790	0.819739
	C183	C	0.612649	0.873322	0.815521
	C184	C	0.878264	0.178019	0.384462
	C185	C	0.117265	0.174022	0.613289
	C186	C	0.120403	0.819223	0.385569
	C187	C	0.877333	0.821048	0.612718
	C188	C	0.181164	0.383371	0.874568
	C189	C	0.180428	0.610014	0.117464
	C190	C	0.822051	0.383556	0.121720
	C191	C	0.823422	0.610834	0.877487
	C192	C	0.399913	0.089760	0.596023
	C193	C	0.597877	0.902564	0.592885
	C194	C	0.597234	0.090804	0.397952
	C195	C	0.401902	0.902975	0.401293
	C196	C	0.599148	0.394973	0.090848
	C197	C	0.600938	0.592987	0.903679
	C198	C	0.403754	0.591814	0.090261
	C199	C	0.404023	0.397857	0.902036
	C200	C	0.092448	0.597325	0.400120
	C201	C	0.905760	0.597666	0.599987
	C202	C	0.092857	0.398082	0.595358
	C203	C	0.906625	0.402154	0.401808
	C204	C	0.901274	0.590991	0.095718
	C205	C	0.098052	0.403989	0.095193
	C206	C	0.101745	0.591014	0.899195
	C207	C	0.904513	0.403710	0.900797
	C208	C	0.096615	0.899936	0.593360
	C209	C	0.097504	0.095136	0.404747
	C210	C	0.898294	0.095980	0.592223
	C211	C	0.902818	0.900740	0.404081
	C212	C	0.594704	0.093404	0.895556
	C213	C	0.408775	0.091920	0.092240
	C214	C	0.594135	0.897719	0.093636
	C215	C	0.406549	0.895264	0.898811
	Zn216	Zn	0.498830	-0.005504	0.746371
	Zn217	Zn	0.500134	-0.004689	0.246686
	Zn218	Zn	0.751460	0.495496	-0.001996
	Zn219	Zn	0.251838	0.495453	-0.003589
	Zn220	Zn	-0.001273	0.748975	0.499877
	Zn221	Zn	-0.002256	0.246818	0.498821
	Zn222	Zn	0.002274	0.498343	0.748554
	Zn223	Zn	0.000162	0.499353	0.247674
	Zn224	Zn	0.502170	0.744956	-0.003570
	Zn225	Zn	0.502029	0.244736	-0.005149
	Zn226	Zn	0.749874	-0.001288	0.496189
	Zn227	Zn	0.248995	-0.003191	0.498668
	N228	N	0.413165	0.958608	0.675306
	N229	N	0.583032	0.032875	0.673871
	N230	N	0.585804	0.959498	0.318335
	N231	N	0.413617	0.032220	0.317890
	N232	N	0.682209	0.408376	0.960757
	N233	N	0.678981	0.579795	0.035166
	N234	N	0.323662	0.581594	0.959593
	N235	N	0.321151	0.407466	0.032448
	N236	N	0.962122	0.677341	0.413850
	N237	N	0.035172	0.679129	0.587065
	N238	N	0.961954	0.318678	0.585623
	N239	N	0.035126	0.318474	0.411786
	N240	N	0.963667	0.412516	0.678177
	N241	N	0.037666	0.583468	0.675962
	N242	N	0.963509	0.586309	0.318466
	N243	N	0.036628	0.413577	0.319926
	N244	N	0.418461	0.672374	0.959178
	N245	N	0.589474	0.675456	0.033336
	N246	N	0.587843	0.317028	0.958491
	N247	N	0.415664	0.315905	0.032482
	N248	N	0.680858	0.962048	0.408309
	N249	N	0.677319	0.033901	0.582150
	N250	N	0.318484	0.960164	0.586125
	N251	N	0.320196	0.032848	0.410717
	N252	N	0.913315	0.461651	0.178664
	N253	N	0.085431	0.535377	0.174463
	N254	N	0.088881	0.461032	0.817985
	N255	N	0.919231	0.535699	0.822883
	N256	N	0.179796	0.909025	0.463254
	N257	N	0.177836	0.083350	0.535117
	N258	N	0.820132	0.085241	0.460674
	N259	N	0.819467	0.911906	0.533659
	N260	N	0.466470	0.177754	0.905129
	N261	N	0.538673	0.172420	0.079778
	N262	N	0.464920	0.815604	0.082953
	N263	N	0.537552	0.816424	0.909702
	N264	N	0.465234	0.906870	0.177354
	N265	N	0.536952	0.081451	0.174959
	N266	N	0.462589	0.078477	0.820025
	N267	N	0.535714	0.907526	0.815945
	N268	N	0.911954	0.177364	0.461891
	N269	N	0.083204	0.175022	0.536074
	N270	N	0.084493	0.819645	0.462584
	N271	N	0.913610	0.821015	0.536134
	N272	N	0.182186	0.460298	0.909306
	N273	N	0.181401	0.532546	0.083655
	N274	N	0.821359	0.460035	0.085557
	N275	N	0.821929	0.533197	0.911079
	O276	O	-0.089753	0.119040	-0.082367
	H277	H	-0.100915	0.119914	-0.071747
	H278	H	-0.075411	0.128135	-0.084369
	O279	O	1.107950	0.183324	1.117328
	H280	H	1.121164	0.184227	1.113581
	H281	H	1.098603	0.170141	1.129445
	O282	O	0.967209	-0.060070	-0.063772
	H283	H	0.959509	-0.060804	-0.064921
	H284	H	0.956891	-0.053265	-0.070451
	O285	O	0.055902	0.901416	0.020339
	H286	H	0.057382	0.897342	0.024575
	H287	H	0.064096	0.913566	0.017103
	O288	O	0.440586	0.439810	0.414821
	H289	H	0.441286	0.461688	0.412531
	H290	H	0.440894	0.442783	0.409086
	O291	O	0.500728	0.608589	0.550538
	H292	H	0.494462	0.621902	0.552671
	H293	H	0.509189	0.610975	0.551510
	O294	O	0.881861	1.050074	0.937099
	H295	H	0.867181	1.056495	0.918727
	H296	H	0.887238	1.054636	0.937418
	O297	O	0.085987	0.038901	-0.031423
	H298	H	0.103110	0.041724	-0.029260
	H299	H	0.090488	0.031721	-0.019501
	O300	O	0.454374	0.584193	0.465796
	H301	H	0.455651	0.579129	0.481627
	H302	H	0.444625	0.570628	0.469513
	O303	O	-0.187062	0.929359	1.174825
	H304	H	-0.199700	0.926358	1.168793
	H305	H	-0.196198	0.917927	1.175217
	O306	O	0.594493	0.478528	0.412558
	H307	H	0.601988	0.496017	0.416211
	H308	H	0.596866	0.476425	0.410830
	O309	O	1.013230	0.040497	0.153081
	H310	H	1.010439	0.035811	0.172873
	H311	H	1.010547	0.039966	0.158490
	O312	O	0.200080	-0.060514	1.039156
	H313	H	0.219461	-0.057586	1.050263
	H314	H	0.193643	-0.034922	1.042194
	O315	O	0.536283	0.586492	0.591026
	H316	H	0.529184	0.584491	0.604725
	H317	H	0.530720	0.570704	0.587214
	O318	O	0.426958	0.607618	0.490834
	H319	H	0.425847	0.604891	0.503040
	H320	H	0.435756	0.605619	0.482154
	O321	O	0.435062	0.457952	0.478213
	H322	H	0.441110	0.476391	0.469323
	H323	H	0.439709	0.442831	0.481609
	O324	O	0.464551	0.443419	0.637952
	H325	H	0.457069	0.436551	0.638497
	H326	H	0.462860	0.458726	0.632140
	O327	O	-0.029540	0.840966	1.177882
	H328	H	-0.030513	0.825868	1.180160
	H329	H	-0.029655	0.836303	1.172988
	O330	O	0.446111	0.446720	0.427531
	H331	H	0.440065	0.437466	0.428150
	H332	H	0.449032	0.452482	0.433229
	O333	O	-0.028594	1.072496	1.003867
	H334	H	-0.036602	1.069219	1.009491
	H335	H	-0.042529	1.059723	1.006610
	O336	O	0.979259	0.843054	0.924605
	H337	H	0.975905	0.826480	0.923465
	H338	H	0.992162	0.852000	0.910069
	O339	O	0.370841	0.533931	0.325088
	H340	H	0.377718	0.528128	0.313375
	H341	H	0.390076	0.525198	0.322092
	O342	O	0.914606	0.111927	-0.072560
	H343	H	0.920488	0.104969	-0.080464
	H344	H	0.918116	0.111748	-0.070987
	O345	O	0.457550	0.471382	0.397669
	H346	H	0.456679	0.464887	0.401614
	H347	H	0.468108	0.484030	0.397622
	O348	O	1.045254	0.914429	1.058293
	H349	H	1.052094	0.931097	1.077417
	H350	H	1.048137	0.911507	1.050026
	O351	O	1.108818	1.071587	0.043221
	H352	H	1.118718	1.060034	0.025021
	H353	H	1.102918	1.083185	0.046520
	O354	O	0.469447	0.592938	0.611584
	H355	H	0.467448	0.594359	0.616352
	H356	H	0.467592	0.590616	0.623539
	O357	O	0.566459	0.554787	0.464652
	H358	H	0.570960	0.553868	0.473058
	H359	H	0.563157	0.544599	0.467889
	O360	O	0.062848	-0.132989	-0.073305
	H361	H	0.071646	-0.142100	-0.093094
	H362	H	0.079744	-0.128478	-0.054702
	O363	O	0.583754	0.461183	0.479296
	H364	H	0.571422	0.471580	0.479707
	H365	H	0.584675	0.460971	0.490025
	O366	O	0.610970	0.450250	0.505553
	H367	H	0.600841	0.455119	0.505131
	H368	H	0.614340	0.446896	0.501815
	O369	O	0.425709	0.447930	0.530077
	H370	H	0.421551	0.438750	0.533856
	H371	H	0.420921	0.444234	0.533964
	O372	O	0.567980	0.511091	0.391397
	H373	H	0.562898	0.515858	0.378159
	H374	H	0.562745	0.518928	0.388534
	O375	O	0.365733	0.371542	0.491399
	H376	H	0.364531	0.374273	0.501965
	H377	H	0.359750	0.360822	0.487023
	O378	O	0.385641	0.516604	0.588334
	H379	H	0.378693	0.512605	0.590208
	H380	H	0.384208	0.503867	0.574402
	O381	O	0.636389	0.519310	0.477779
	H382	H	0.638067	0.520017	0.475885
	H383	H	0.638964	0.513549	0.476961
	O384	O	-0.052017	1.097651	0.010167
	H385	H	-0.062161	1.102820	0.007631
	H386	H	-0.050761	1.107017	0.017500
	O387	O	0.932645	0.066923	1.084414
	H388	H	0.951229	0.070695	1.090749
	H389	H	0.919227	0.071641	1.098502
	O390	O	-0.043470	0.925143	-0.097222
	H391	H	-0.044365	0.920023	-0.109722
	H392	H	-0.040838	0.925617	-0.093727
	O393	O	1.093420	1.036313	-0.146659
	H394	H	1.094458	1.037707	-0.131963
	H395	H	1.106052	1.025030	-0.146071
	O396	O	0.464949	0.360478	0.592739
	H397	H	0.470915	0.370362	0.587823
	H398	H	0.482228	0.353971	0.607315
	O399	O	0.068905	1.037837	1.143469
	H400	H	0.069845	1.042618	1.141760
	H401	H	0.044568	1.031232	1.136041
	O402	O	0.878466	1.064542	0.854901
	H403	H	0.883910	1.070694	0.856324
	H404	H	0.887952	1.064925	0.860597
	O405	O	0.027973	1.038463	-0.013503
	H406	H	0.026717	1.032051	-0.016379
	H407	H	0.024744	1.040810	-0.011499
