data_Molecule from HDF5

_cell_length_a		16.266503
_cell_length_b		16.245307
_cell_length_c		16.291181
_cell_angle_alpha	90.031308
_cell_angle_beta	90.034460
_cell_angle_gamma	89.948531
_symmetry_space_group_name_H-M	'P 1'
_symmetry_Int_Tables_number		1

loop_
	_symmetry_equiv_pos_as_xyz
	x,y,z

loop_
	_atom_site_label
	_atom_site_type_symbol
	_atom_site_fract_x
	_atom_site_fract_y
	_atom_site_fract_z
	H0	H	0.402400	0.835769	0.713605
	H1	H	0.597834	0.164403	0.713919
	H2	H	0.598017	0.836178	0.285798
	H3	H	0.401404	0.164235	0.285989
	H4	H	0.713913	0.402070	0.835785
	H5	H	0.714391	0.598022	0.163730
	H6	H	0.285040	0.598924	0.836013
	H7	H	0.287108	0.403465	0.163731
	H8	H	0.835603	0.713719	0.401761
	H9	H	0.163762	0.712799	0.596199
	H10	H	0.835880	0.287516	0.597334
	H11	H	0.164100	0.286195	0.402818
	H12	H	0.836799	0.401468	0.714156
	H13	H	0.163399	0.598551	0.713993
	H14	H	0.836145	0.597949	0.285896
	H15	H	0.164112	0.400861	0.286045
	H16	H	0.403100	0.714331	0.836546
	H17	H	0.598148	0.714718	0.163865
	H18	H	0.597875	0.285733	0.835996
	H19	H	0.402853	0.287274	0.163954
	H20	H	0.713296	0.835035	0.402644
	H21	H	0.713740	0.164233	0.597819
	H22	H	0.287033	0.835913	0.596910
	H23	H	0.285139	0.163855	0.402092
	H24	H	0.901856	0.335933	0.214460
	H25	H	0.097646	0.664000	0.214266
	H26	H	0.098018	0.335589	0.786300
	H27	H	0.901344	0.663902	0.785962
	H28	H	0.214485	0.901830	0.335512
	H29	H	0.213898	0.096279	0.664061
	H30	H	0.785547	0.097373	0.336147
	H31	H	0.785779	0.901740	0.663753
	H32	H	0.335369	0.212584	0.903842
	H33	H	0.664240	0.213334	0.097436
	H34	H	0.335812	0.787220	0.097216
	H35	H	0.663171	0.786350	0.903019
	H36	H	0.335904	0.903244	0.212957
	H37	H	0.664091	0.098076	0.214632
	H38	H	0.336318	0.097956	0.786374
	H39	H	0.664178	0.902790	0.786989
	H40	H	0.901548	0.214119	0.336469
	H41	H	0.098414	0.213176	0.664071
	H42	H	0.096798	0.786184	0.335370
	H43	H	0.902284	0.785911	0.663614
	H44	H	0.214567	0.336196	0.901798
	H45	H	0.212812	0.664682	0.097448
	H46	H	0.787200	0.335260	0.097024
	H47	H	0.785416	0.663926	0.902048
	H48	H	0.400447	0.120193	0.596479
	H49	H	0.605560	0.878408	0.596728
	H50	H	0.580430	0.111935	0.408997
	H51	H	0.403811	0.878970	0.395822
	H52	H	0.595757	0.403381	0.118022
	H53	H	0.595227	0.596286	0.881422
	H54	H	0.399801	0.587296	0.116700
	H55	H	0.397904	0.406800	0.880790
	H56	H	0.117833	0.595595	0.407789
	H57	H	0.881322	0.593224	0.597531
	H58	H	0.115485	0.409102	0.592059
	H59	H	0.889353	0.423738	0.410953
	H60	H	0.118556	0.407155	0.597884
	H61	H	0.881669	0.596648	0.591042
	H62	H	0.114937	0.591271	0.408780
	H63	H	0.877004	0.402841	0.388971
	H64	H	0.413856	0.591978	0.114159
	H65	H	0.595307	0.588787	0.884583
	H66	H	0.596328	0.410280	0.116712
	H67	H	0.410077	0.414276	0.886161
	H68	H	0.603898	0.117341	0.417249
	H69	H	0.584502	0.882836	0.603304
	H70	H	0.413295	0.116686	0.597879
	H71	H	0.417718	0.886455	0.407983
	H72	H	0.910320	0.616115	0.093267
	H73	H	0.101699	0.380063	0.094405
	H74	H	0.094603	0.620243	0.900171
	H75	H	0.901488	0.382064	0.908533
	H76	H	0.089109	0.908067	0.614715
	H77	H	0.103633	0.094620	0.379283
	H78	H	0.905497	0.094124	0.617130
	H79	H	0.908209	0.915255	0.386118
	H80	H	0.620018	0.096714	0.899939
	H81	H	0.382431	0.096873	0.092404
	H82	H	0.615782	0.909988	0.090945
	H83	H	0.380472	0.899889	0.906098
	H84	H	0.617825	0.907356	0.097254
	H85	H	0.385248	0.091199	0.090694
	H86	H	0.616454	0.098641	0.912707
	H87	H	0.385310	0.910569	0.911776
	H88	H	0.906571	0.092328	0.616680
	H89	H	0.089820	0.083933	0.386997
	H90	H	0.094693	0.901761	0.617495
	H91	H	0.913420	0.899040	0.383052
	H92	H	0.085435	0.614967	0.907438
	H93	H	0.088416	0.382337	0.099435
	H94	H	0.905021	0.616666	0.090648
	H95	H	0.907393	0.380899	0.900933
	H96	H	0.406856	0.115104	0.585843
	H97	H	0.590673	0.887515	0.582412
	H98	H	0.597810	0.121756	0.393048
	H99	H	0.398949	0.883431	0.414785
	H100	H	0.590490	0.406803	0.115354
	H101	H	0.588421	0.593299	0.885304
	H102	H	0.403370	0.602008	0.119518
	H103	H	0.411277	0.399603	0.882233
	H104	H	0.117338	0.592076	0.404029
	H105	H	0.884572	0.589919	0.591126
	H106	H	0.118730	0.402648	0.592772
	H107	H	0.883400	0.393570	0.419217
	H108	H	0.904975	0.617806	0.097029
	H109	H	0.091235	0.386120	0.086390
	H110	H	0.097503	0.616885	0.912411
	H111	H	0.910862	0.384701	0.908878
	H112	H	0.097264	0.910172	0.616001
	H113	H	0.086845	0.101773	0.382899
	H114	H	0.907639	0.094426	0.617246
	H115	H	0.896519	0.903601	0.379844
	H116	H	0.615375	0.086495	0.907181
	H117	H	0.382864	0.091636	0.096832
	H118	H	0.617546	0.903193	0.091697
	H119	H	0.381798	0.910779	0.899494
	C120	C	0.378649	0.008654	0.621485
	C121	C	0.621756	0.991442	0.621956
	C122	C	0.621679	0.008248	0.378770
	C123	C	0.378398	0.991770	0.378127
	C124	C	0.622193	0.378307	0.008429
	C125	C	0.621765	0.621649	0.991804
	C126	C	0.377780	0.621797	0.008462
	C127	C	0.378137	0.378792	0.991308
	C128	C	0.008134	0.621035	0.378608
	C129	C	0.990837	0.621685	0.621641
	C130	C	0.009176	0.378275	0.622071
	C131	C	0.991555	0.378215	0.378548
	C132	C	0.878711	0.508560	0.121870
	C133	C	0.121945	0.491843	0.121567
	C134	C	0.121052	0.508574	0.878419
	C135	C	0.878231	0.491129	0.878000
	C136	C	0.121692	0.878167	0.507448
	C137	C	0.121495	0.121260	0.491705
	C138	C	0.878226	0.121584	0.508512
	C139	C	0.878136	0.878229	0.491548
	C140	C	0.508472	0.121651	0.878618
	C141	C	0.491536	0.122001	0.121974
	C142	C	0.508554	0.878756	0.121388
	C143	C	0.491216	0.878860	0.878215
	C144	C	0.381618	0.884840	0.675874
	C145	C	0.618767	0.115385	0.676467
	C146	C	0.618532	0.884695	0.323938
	C147	C	0.381065	0.115179	0.323922
	C148	C	0.676286	0.381359	0.884702
	C149	C	0.676743	0.619062	0.114964
	C150	C	0.323057	0.619426	0.884928
	C151	C	0.324147	0.382328	0.114965
	C152	C	0.884686	0.676084	0.380931
	C153	C	0.114771	0.675860	0.617684
	C154	C	0.885120	0.324461	0.618476
	C155	C	0.115254	0.323425	0.381947
	C156	C	0.885473	0.381035	0.676540
	C157	C	0.114436	0.618812	0.675870
	C158	C	0.885075	0.618790	0.323326
	C159	C	0.115183	0.380366	0.323939
	C160	C	0.381846	0.676230	0.884935
	C161	C	0.618965	0.676848	0.114977
	C162	C	0.618505	0.323743	0.884872
	C163	C	0.381817	0.324715	0.114943
	C164	C	0.675854	0.884109	0.381893
	C165	C	0.675983	0.115367	0.618652
	C166	C	0.324400	0.884792	0.618020
	C167	C	0.323494	0.115217	0.381619
	C168	C	0.881405	0.384827	0.176644
	C169	C	0.118793	0.614933	0.176403
	C170	C	0.118586	0.384741	0.823786
	C171	C	0.880933	0.614988	0.823591
	C172	C	0.176513	0.881023	0.384404
	C173	C	0.176615	0.118140	0.614964
	C174	C	0.823384	0.118341	0.385056
	C175	C	0.823684	0.881031	0.614894
	C176	C	0.384695	0.175695	0.882454
	C177	C	0.615217	0.176233	0.118732
	C178	C	0.384724	0.824711	0.118035
	C179	C	0.614687	0.823914	0.881630
	C180	C	0.384901	0.882124	0.175515
	C181	C	0.615180	0.118820	0.176556
	C182	C	0.385061	0.118626	0.824332
	C183	C	0.614797	0.881783	0.824235
	C184	C	0.881175	0.176075	0.385144
	C185	C	0.118636	0.175659	0.615141
	C186	C	0.118305	0.823547	0.384145
	C187	C	0.881815	0.823891	0.615056
	C188	C	0.176114	0.384872	0.881494
	C189	C	0.175807	0.615423	0.118132
	C190	C	0.824711	0.384383	0.118261
	C191	C	0.823761	0.615232	0.881472
	C192	C	0.400475	0.095011	0.599762
	C193	C	0.600057	0.905337	0.600367
	C194	C	0.600386	0.094779	0.400213
	C195	C	0.400325	0.905196	0.399795
	C196	C	0.600515	0.400429	0.094580
	C197	C	0.599699	0.599139	0.905867
	C198	C	0.399285	0.600135	0.094525
	C199	C	0.399927	0.400576	0.905291
	C200	C	0.094564	0.599374	0.400617
	C201	C	0.904668	0.599646	0.599912
	C202	C	0.095048	0.399997	0.600637
	C203	C	0.905549	0.400174	0.400031
	C204	C	0.900277	0.594689	0.100028
	C205	C	0.100214	0.404880	0.099856
	C206	C	0.099002	0.595061	0.900203
	C207	C	0.899924	0.404941	0.899741
	C208	C	0.100015	0.899974	0.593866
	C209	C	0.099822	0.099781	0.405351
	C210	C	0.900049	0.099914	0.594780
	C211	C	0.899578	0.899645	0.405192
	C212	C	0.595080	0.100200	0.900302
	C213	C	0.405580	0.099726	0.099900
	C214	C	0.594739	0.900348	0.099805
	C215	C	0.404863	0.900617	0.899555
	Zn216	Zn	0.500147	0.000272	0.749965
	Zn217	Zn	0.500216	0.000268	0.249961
	Zn218	Zn	0.750510	0.499790	-0.000198
	Zn219	Zn	0.249485	0.500138	-0.000168
	Zn220	Zn	-0.000570	0.749785	0.499569
	Zn221	Zn	0.000001	0.250205	0.500449
	Zn222	Zn	-0.000201	0.499892	0.750152
	Zn223	Zn	0.000187	0.499785	0.250428
	Zn224	Zn	0.499819	0.750262	0.000109
	Zn225	Zn	0.500181	0.249879	0.000060
	Zn226	Zn	0.749927	-0.000255	0.500214
	Zn227	Zn	0.250353	-0.000340	0.499538
	N228	N	0.414604	0.962782	0.678113
	N229	N	0.585714	0.037448	0.678766
	N230	N	0.585604	0.962705	0.321989
	N231	N	0.414354	0.037280	0.321825
	N232	N	0.678929	0.414325	0.962563
	N233	N	0.678600	0.585335	0.037392
	N234	N	0.320480	0.586431	0.962749
	N235	N	0.322009	0.415291	0.037240
	N236	N	0.962336	0.677745	0.414563
	N237	N	0.036770	0.677972	0.584720
	N238	N	0.962856	0.322504	0.585248
	N239	N	0.037480	0.321999	0.415310
	N240	N	0.963358	0.414015	0.678752
	N241	N	0.036531	0.585823	0.678296
	N242	N	0.962879	0.585314	0.321919
	N243	N	0.037397	0.413786	0.321717
	N244	N	0.415051	0.677947	0.962712
	N245	N	0.585580	0.678611	0.037400
	N246	N	0.585472	0.321813	0.962684
	N247	N	0.414694	0.322085	0.036991
	N248	N	0.677877	0.961871	0.415326
	N249	N	0.678210	0.037348	0.585719
	N250	N	0.322529	0.962708	0.584735
	N251	N	0.321954	0.037369	0.414871
	N252	N	0.914351	0.462888	0.178893
	N253	N	0.086041	0.536918	0.178590
	N254	N	0.085370	0.462821	0.821670
	N255	N	0.914162	0.537207	0.821552
	N256	N	0.178490	0.914257	0.462095
	N257	N	0.178172	0.084716	0.537350
	N258	N	0.821434	0.085080	0.462904
	N259	N	0.821611	0.914224	0.537172
	N260	N	0.462665	0.177805	0.915453
	N261	N	0.537502	0.178121	0.085473
	N262	N	0.462597	0.822525	0.084897
	N263	N	0.536764	0.822093	0.914573
	N264	N	0.462732	0.914982	0.177826
	N265	N	0.537341	0.085667	0.178532
	N266	N	0.463108	0.085953	0.821987
	N267	N	0.537092	0.915098	0.822025
	N268	N	0.914435	0.178108	0.462835
	N269	N	0.085434	0.177974	0.537347
	N270	N	0.084857	0.821807	0.461778
	N271	N	0.914687	0.821822	0.537145
	N272	N	0.177752	0.462804	0.914736
	N273	N	0.177789	0.537456	0.084868
	N274	N	0.822701	0.462249	0.084835
	N275	N	0.821837	0.537267	0.914605
