data_Molecule from HDF5

_cell_length_a		16.772823
_cell_length_b		16.533029
_cell_length_c		16.617435
_cell_angle_alpha	90.062989
_cell_angle_beta	90.133779
_cell_angle_gamma	89.891051
_symmetry_space_group_name_H-M	'P 1'
_symmetry_Int_Tables_number		1

loop_
	_symmetry_equiv_pos_as_xyz
	x,y,z

loop_
	_atom_site_label
	_atom_site_type_symbol
	_atom_site_fract_x
	_atom_site_fract_y
	_atom_site_fract_z
	H0	H	0.404252	0.824489	0.711109
	H1	H	0.610934	0.138006	0.716637
	H2	H	0.610914	0.827887	0.273276
	H3	H	0.398240	0.138579	0.272606
	H4	H	0.727480	0.376136	0.839466
	H5	H	0.726912	0.589968	0.149222
	H6	H	0.281498	0.590214	0.841318
	H7	H	0.287781	0.380268	0.152338
	H8	H	0.849014	0.703271	0.391746
	H9	H	0.160758	0.703223	0.598405
	H10	H	0.850347	0.262677	0.598814
	H11	H	0.157652	0.259507	0.388771
	H12	H	0.850027	0.379497	0.715473
	H13	H	0.159105	0.588533	0.717278
	H14	H	0.848906	0.586637	0.275379
	H15	H	0.158301	0.377353	0.272985
	H16	H	0.400164	0.703322	0.839272
	H17	H	0.608522	0.703424	0.151225
	H18	H	0.610983	0.260785	0.838926
	H19	H	0.404630	0.264543	0.152105
	H20	H	0.727576	0.828616	0.388019
	H21	H	0.727383	0.137888	0.603118
	H22	H	0.287024	0.825342	0.597036
	H23	H	0.279672	0.136354	0.384230
	H24	H	0.902872	0.325972	0.212645
	H25	H	0.105711	0.641486	0.212847
	H26	H	0.107382	0.325912	0.777315
	H27	H	0.903433	0.641211	0.777850
	H28	H	0.225651	0.877747	0.339473
	H29	H	0.228673	0.090016	0.647635
	H30	H	0.783375	0.088126	0.340516
	H31	H	0.782842	0.875224	0.649651
	H32	H	0.351144	0.204935	0.889043
	H33	H	0.661044	0.202159	0.097389
	H34	H	0.351657	0.761893	0.099744
	H35	H	0.657695	0.759638	0.888593
	H36	H	0.352671	0.878290	0.216731
	H37	H	0.660020	0.087933	0.215701
	H38	H	0.351330	0.090090	0.771417
	H39	H	0.657878	0.875774	0.771567
	H40	H	0.899887	0.203057	0.339420
	H41	H	0.109640	0.203147	0.649894
	H42	H	0.105714	0.765359	0.337622
	H43	H	0.903057	0.763237	0.651512
	H44	H	0.225504	0.327069	0.891246
	H45	H	0.224966	0.639495	0.101364
	H46	H	0.786486	0.326563	0.097207
	H47	H	0.787054	0.641081	0.891958
	H48	H	0.419785	0.094498	0.585773
	H49	H	0.597481	0.869635	0.583019
	H50	H	0.588405	0.093273	0.409084
	H51	H	0.416796	0.870085	0.402264
	H52	H	0.593526	0.393400	0.104106
	H53	H	0.592724	0.571545	0.883213
	H54	H	0.416557	0.572837	0.106992
	H55	H	0.413394	0.393819	0.882408
	H56	H	0.115726	0.580021	0.409686
	H57	H	0.897149	0.569664	0.582660
	H58	H	0.115843	0.396416	0.589542
	H59	H	0.895312	0.394756	0.407394
	H60	H	0.116202	0.388274	0.584247
	H61	H	0.893707	0.572233	0.591653
	H62	H	0.113063	0.565049	0.405030
	H63	H	0.894152	0.396505	0.402328
	H64	H	0.414537	0.572764	0.107404
	H65	H	0.595587	0.574216	0.882486
	H66	H	0.597326	0.394026	0.106226
	H67	H	0.412763	0.395966	0.883990
	H68	H	0.600505	0.095964	0.411339
	H69	H	0.592176	0.871388	0.584248
	H70	H	0.418289	0.091891	0.576830
	H71	H	0.420853	0.873306	0.407564
	H72	H	0.917333	0.596232	0.085588
	H73	H	0.088517	0.373400	0.082343
	H74	H	0.094575	0.595146	0.907523
	H75	H	0.908016	0.369199	0.908759
	H76	H	0.101003	0.893218	0.608372
	H77	H	0.096156	0.061967	0.383894
	H78	H	0.915398	0.073516	0.607205
	H79	H	0.917683	0.898247	0.386120
	H80	H	0.614684	0.069140	0.905472
	H81	H	0.395753	0.072930	0.082312
	H82	H	0.617009	0.888947	0.078913
	H83	H	0.396101	0.896681	0.906575
	H84	H	0.612639	0.900453	0.080515
	H85	H	0.393567	0.070854	0.087345
	H86	H	0.615520	0.070919	0.904528
	H87	H	0.392649	0.895386	0.900226
	H88	H	0.913782	0.070727	0.607776
	H89	H	0.085705	0.071008	0.385910
	H90	H	0.096445	0.898672	0.604462
	H91	H	0.917212	0.890037	0.382496
	H92	H	0.094793	0.595393	0.906519
	H93	H	0.102670	0.370863	0.078990
	H94	H	0.913592	0.594973	0.080910
	H95	H	0.917033	0.369347	0.897962
	H96	H	0.411688	0.096244	0.581711
	H97	H	0.594274	0.872842	0.578439
	H98	H	0.595185	0.098183	0.400420
	H99	H	0.413942	0.871319	0.409018
	H100	H	0.595054	0.397658	0.104726
	H101	H	0.596988	0.571027	0.882689
	H102	H	0.414819	0.571347	0.105885
	H103	H	0.415460	0.395069	0.884227
	H104	H	0.118625	0.575804	0.394659
	H105	H	0.893275	0.578669	0.583725
	H106	H	0.112649	0.396867	0.580761
	H107	H	0.893305	0.391601	0.403772
	H108	H	0.911270	0.597528	0.086410
	H109	H	0.097362	0.367319	0.092133
	H110	H	0.093649	0.596224	0.907509
	H111	H	0.920897	0.373969	0.910482
	H112	H	0.093299	0.891456	0.606528
	H113	H	0.096941	0.075406	0.379748
	H114	H	0.916753	0.070864	0.607284
	H115	H	0.910019	0.895445	0.382290
	H116	H	0.615047	0.071052	0.906571
	H117	H	0.393161	0.076646	0.085811
	H118	H	0.617777	0.894772	0.089756
	H119	H	0.393402	0.890071	0.904777
	C120	C	0.385231	-0.009180	0.613490
	C121	C	0.626519	0.973950	0.615634
	C122	C	0.626586	-0.007552	0.374187
	C123	C	0.384207	0.974304	0.373305
	C124	C	0.626997	0.362403	0.002190
	C125	C	0.626232	0.604606	0.986134
	C126	C	0.383514	0.604391	0.003929
	C127	C	0.384321	0.363030	0.987104
	C128	C	0.012555	0.604371	0.373221
	C129	C	0.997429	0.604902	0.616822
	C130	C	0.012967	0.362041	0.616563
	C131	C	0.996137	0.361405	0.372737
	C132	C	0.883653	0.492198	0.115371
	C133	C	0.125903	0.474657	0.116296
	C134	C	0.125998	0.491801	0.875350
	C135	C	0.884542	0.475055	0.874423
	C136	C	0.127013	0.862263	0.503124
	C137	C	0.125906	0.102950	0.485548
	C138	C	0.883521	0.103689	0.504303
	C139	C	0.883284	0.861573	0.486537
	C140	C	0.513628	0.104202	0.872263
	C141	C	0.496591	0.105228	0.116597
	C142	C	0.514210	0.861985	0.116105
	C143	C	0.495986	0.861213	0.872293
	C144	C	0.384890	0.871926	0.671945
	C145	C	0.628856	0.091159	0.676434
	C146	C	0.628879	0.874765	0.313666
	C147	C	0.380724	0.091433	0.312678
	C148	C	0.687020	0.359001	0.885825
	C149	C	0.686429	0.607688	0.102854
	C150	C	0.322462	0.607549	0.887481
	C151	C	0.326771	0.361532	0.105107
	C152	C	0.895575	0.663143	0.372957
	C153	C	0.114126	0.663450	0.617428
	C154	C	0.896833	0.302685	0.617911
	C155	C	0.111781	0.300431	0.370547
	C156	C	0.896750	0.360656	0.675965
	C157	C	0.113415	0.606636	0.676556
	C158	C	0.895405	0.605096	0.315148
	C159	C	0.112100	0.358602	0.312837
	C160	C	0.381422	0.663827	0.886486
	C161	C	0.627496	0.663991	0.103953
	C162	C	0.629059	0.301691	0.885401
	C163	C	0.385283	0.304417	0.105063
	C164	C	0.686975	0.875183	0.370533
	C165	C	0.686813	0.090959	0.619805
	C166	C	0.326823	0.872399	0.614897
	C167	C	0.321826	0.090519	0.368441
	C168	C	0.883781	0.373301	0.173219
	C169	C	0.125497	0.593717	0.174476
	C170	C	0.126815	0.373533	0.816339
	C171	C	0.884115	0.593851	0.816455
	C172	C	0.185557	0.859606	0.385834
	C173	C	0.187520	0.107349	0.601639
	C174	C	0.823676	0.106205	0.386969
	C175	C	0.823491	0.857955	0.603174
	C176	C	0.397776	0.165096	0.870189
	C177	C	0.614073	0.163238	0.116633
	C178	C	0.398095	0.801753	0.118700
	C179	C	0.611705	0.799947	0.869875
	C180	C	0.398550	0.859658	0.176570
	C181	C	0.613461	0.106725	0.175712
	C182	C	0.397946	0.107820	0.811555
	C183	C	0.611619	0.857655	0.811798
	C184	C	0.881693	0.163240	0.386601
	C185	C	0.128553	0.163716	0.602663
	C186	C	0.125999	0.803920	0.385009
	C187	C	0.882992	0.802010	0.604095
	C188	C	0.185440	0.374000	0.873043
	C189	C	0.184490	0.592842	0.118831
	C190	C	0.825985	0.373515	0.115816
	C191	C	0.826214	0.593488	0.873303
	C192	C	0.409646	0.072855	0.588652
	C193	C	0.601485	0.892484	0.589404
	C194	C	0.601586	0.074549	0.399629
	C195	C	0.409945	0.892685	0.399038
	C196	C	0.602085	0.387953	0.083852
	C197	C	0.602016	0.579562	0.903946
	C198	C	0.408214	0.579323	0.085558
	C199	C	0.407376	0.387759	0.904898
	C200	C	0.094423	0.580507	0.396643
	C201	C	0.915933	0.580576	0.592701
	C202	C	0.093898	0.386936	0.591845
	C203	C	0.915348	0.387044	0.397523
	C204	C	0.907373	0.574889	0.091377
	C205	C	0.102702	0.392141	0.091713
	C206	C	0.101524	0.574162	0.900247
	C207	C	0.908484	0.392182	0.898631
	C208	C	0.103636	0.887328	0.584981
	C209	C	0.100342	0.076830	0.404374
	C210	C	0.908192	0.078974	0.586174
	C211	C	0.907763	0.887194	0.404821
	C212	C	0.594268	0.077749	0.898157
	C213	C	0.415332	0.080590	0.092355
	C214	C	0.594806	0.887364	0.090456
	C215	C	0.415126	0.886823	0.897120
	Zn216	Zn	0.505069	-0.017599	0.742887
	Zn217	Zn	0.505914	-0.016357	0.245599
	Zn218	Zn	0.755541	0.483474	-0.005929
	Zn219	Zn	0.254510	0.483961	-0.003683
	Zn220	Zn	0.005498	0.734169	0.494802
	Zn221	Zn	0.004865	0.231880	0.494703
	Zn222	Zn	0.005522	0.483771	0.746639
	Zn223	Zn	0.004818	0.482849	0.243519
	Zn224	Zn	0.504612	0.733056	-0.005404
	Zn225	Zn	0.505859	0.233637	-0.006050
	Zn226	Zn	0.754835	-0.016874	0.495567
	Zn227	Zn	0.255631	-0.016995	0.493772
	N228	N	0.420546	0.946591	0.671374
	N229	N	0.591975	0.017242	0.674002
	N230	N	0.591798	0.948716	0.315852
	N231	N	0.419065	0.018135	0.315463
	N232	N	0.685771	0.396060	0.959622
	N233	N	0.685952	0.571508	0.028604
	N234	N	0.323653	0.571327	0.961593
	N235	N	0.325722	0.397057	0.030548
	N236	N	0.969535	0.663081	0.408257
	N237	N	0.040813	0.662705	0.580974
	N238	N	0.970136	0.303141	0.581670
	N239	N	0.038554	0.301856	0.407040
	N240	N	0.970333	0.396780	0.675565
	N241	N	0.039817	0.570786	0.676335
	N242	N	0.969355	0.569220	0.315005
	N243	N	0.038999	0.395687	0.313849
	N244	N	0.418803	0.662136	0.959903
	N245	N	0.590789	0.662457	0.030090
	N246	N	0.591926	0.303782	0.958749
	N247	N	0.420179	0.304829	0.030470
	N248	N	0.685606	0.949344	0.407666
	N249	N	0.685529	0.016983	0.582455
	N250	N	0.326611	0.947472	0.579570
	N251	N	0.323996	0.016634	0.405672
	N252	N	0.918673	0.448118	0.173338
	N253	N	0.089885	0.519099	0.173331
	N254	N	0.090686	0.448045	0.817581
	N255	N	0.919552	0.518916	0.816658
	N256	N	0.186500	0.895016	0.460340
	N257	N	0.185996	0.070240	0.527867
	N258	N	0.824361	0.070096	0.461341
	N259	N	0.823424	0.894129	0.528904
	N260	N	0.470975	0.163225	0.907122
	N261	N	0.540173	0.162906	0.080824
	N262	N	0.471135	0.802981	0.081813
	N263	N	0.538670	0.801852	0.906690
	N264	N	0.471877	0.896114	0.175443
	N265	N	0.539409	0.071605	0.176197
	N266	N	0.471285	0.070803	0.812453
	N267	N	0.538537	0.894784	0.812979
	N268	N	0.918090	0.162058	0.460609
	N269	N	0.090968	0.161337	0.529343
	N270	N	0.090364	0.805341	0.458976
	N271	N	0.919323	0.803981	0.530231
	N272	N	0.185441	0.448861	0.908724
	N273	N	0.185278	0.517876	0.083504
	N274	N	0.825502	0.448575	0.080814
	N275	N	0.826053	0.518362	0.908349
	O276	O	0.091712	0.778883	0.028149
	H277	H	0.075100	0.782084	0.016231
	H278	H	0.099935	0.771739	0.014926
	O279	O	0.471622	0.466219	0.280854
	H280	H	0.456874	0.465453	0.277178
	H281	H	0.479178	0.454860	0.292729
	O282	O	1.266423	0.244654	0.726995
	H283	H	1.279242	0.266599	0.714476
	H284	H	1.294015	0.256305	0.723002
	O285	O	0.513348	0.524415	0.346032
	H286	H	0.512723	0.512640	0.342052
	H287	H	0.517033	0.511102	0.340482
	O288	O	0.230217	0.774423	0.781124
	H289	H	0.177437	0.769193	0.779399
	H290	H	0.254739	0.736524	0.748146
	O291	O	0.287718	0.477319	0.331741
	H292	H	0.269745	0.493117	0.324738
	H293	H	0.295247	0.508106	0.322994
	O294	O	1.215817	0.004406	1.208694
	H295	H	1.225526	0.006428	1.193638
	H296	H	1.224831	0.021024	1.212225
	O297	O	0.204472	0.792270	0.187957
	H298	H	0.187768	0.795533	0.150668
	H299	H	0.190522	0.826674	0.182588
	O300	O	0.064818	0.183550	1.108611
	H301	H	0.088055	0.189180	1.102857
	H302	H	0.079460	0.203842	1.117164
	O303	O	0.714291	0.427181	0.537613
	H304	H	0.714227	0.440945	0.528788
	H305	H	0.722553	0.439775	0.532804
	O306	O	0.476980	0.393784	0.413470
	H307	H	0.483361	0.395952	0.406917
	H308	H	0.478303	0.396474	0.430728
	O309	O	-0.027249	1.130191	1.113827
	H310	H	-0.023981	1.136944	1.125132
	H311	H	-0.017536	1.141135	1.107996
	O312	O	0.073084	1.087492	0.944903
	H313	H	0.091372	1.092839	0.941139
	H314	H	0.075578	1.076744	0.934521
	O315	O	0.458055	0.578423	1.713060
	H316	H	0.469642	0.571979	1.716882
	H317	H	0.474159	0.588417	1.718257
	O318	O	0.726760	0.541001	0.454785
	H319	H	0.719277	0.559074	0.466304
	H320	H	0.738216	0.542283	0.436756
	O321	O	-0.240742	1.240398	0.736650
	H322	H	-0.263794	1.241139	0.720963
	H323	H	-0.215711	1.252648	0.725290
	O324	O	0.778859	0.792836	0.061729
	H325	H	0.772587	0.799906	0.066540
	H326	H	0.749016	0.775480	0.079008
	O327	O	0.049973	-0.031603	1.179035
	H328	H	0.078451	-0.020544	1.175045
	H329	H	0.037810	-0.010567	1.174335
	O330	O	0.314078	0.663060	0.682141
	H331	H	0.328082	0.638186	0.668988
	H332	H	0.339178	0.651671	0.662559
	O333	O	0.912685	-0.078281	0.797818
	H334	H	0.902231	-0.065259	0.806687
	H335	H	0.914624	-0.066103	0.807019
	O336	O	0.431971	0.415447	0.591311
	H337	H	0.434483	0.409764	0.572259
	H338	H	0.444002	0.411878	0.599137
	O339	O	0.550858	0.422801	0.730882
	H340	H	0.560637	0.411182	0.729359
	H341	H	0.559513	0.410502	0.733903
	O342	O	-0.188873	0.173784	0.185758
	H343	H	-0.158439	0.168936	0.164534
	H344	H	-0.178400	0.148408	0.168767
	O345	O	0.215876	1.194338	1.206371
	H346	H	0.249234	1.226001	1.237865
	H347	H	0.222263	1.175880	1.178506
	O348	O	-0.040608	-0.202191	-0.131191
	H349	H	-0.046308	-0.204721	-0.091315
	H350	H	-0.047701	-0.170148	-0.129210
	O351	O	0.294902	0.687789	0.288570
	H352	H	0.346161	0.694254	0.281895
	H353	H	0.266489	0.722501	0.254100
	O354	O	-0.039883	-0.207913	1.013624
	H355	H	-0.056317	-0.217337	1.036682
	H356	H	-0.038847	-0.195771	1.021781
	O357	O	0.561184	0.387315	0.429968
	H358	H	0.561157	0.399219	0.436543
	H359	H	0.578594	0.380241	0.427123
	O360	O	0.694820	0.675000	0.307036
	H361	H	0.673391	0.654505	0.319456
	H362	H	0.673617	0.663412	0.329080
	O363	O	-0.039411	-0.237211	0.217222
	H364	H	-0.039669	-0.252768	0.233585
	H365	H	-0.023673	-0.226206	0.229883
	O366	O	0.632508	0.392972	0.359198
	H367	H	0.645913	0.368708	0.364500
	H368	H	0.645376	0.394015	0.360193
	O369	O	1.156543	0.167538	-0.175454
	H370	H	1.177766	0.190920	-0.199365
	H371	H	1.142746	0.141548	-0.188915
	O372	O	0.888025	1.179339	-0.005013
	H373	H	0.905386	1.186388	-0.025572
	H374	H	0.892951	1.182384	0.002412
	O375	O	0.707078	-0.317616	-0.304306
	H376	H	0.721056	-0.323168	-0.317202
	H377	H	0.715361	-0.315117	-0.283075
	O378	O	0.527759	0.678863	0.442216
	H379	H	0.503518	0.682607	0.438005
	H380	H	0.531563	0.679451	0.463775
	O381	O	-0.030723	1.193899	0.888351
	H382	H	-0.029848	1.201545	0.875593
	H383	H	-0.033457	1.196063	0.877983
	O384	O	0.997090	-0.084647	1.147967
	H385	H	0.999473	-0.076671	1.155091
	H386	H	1.001162	-0.094578	1.143051
	O387	O	1.394623	1.286494	-0.427627
	H388	H	1.403278	1.296264	-0.424368
	H389	H	1.385048	1.277611	-0.460593
	O390	O	0.650501	0.561830	0.329343
	H391	H	0.649909	0.538478	0.340321
	H392	H	0.655070	0.555061	0.313780
	O393	O	0.301068	0.536330	0.458660
	H394	H	0.289683	0.560024	0.444076
	H395	H	0.310083	0.553591	0.465164
	O396	O	0.074107	0.775782	0.789558
	H397	H	0.040805	0.773192	0.784956
	H398	H	0.059360	0.775575	0.793685
	O399	O	0.066123	-0.028117	0.974527
	H400	H	0.064527	-0.028120	0.985655
	H401	H	0.060584	-0.023007	0.971914
	O402	O	0.279337	0.706683	0.462942
	H403	H	0.281491	0.702806	0.427356
	H404	H	0.254720	0.734283	0.444988
	O405	O	1.230857	-0.234407	0.972360
	H406	H	1.245809	-0.250396	0.940584
	H407	H	1.228088	-0.241229	0.952360
	O408	O	0.236505	-0.059724	0.040394
	H409	H	0.231518	-0.088179	0.039617
	H410	H	0.237297	-0.049484	0.017617
	O411	O	1.238555	1.092451	0.963698
	H412	H	1.241839	1.079856	0.938790
	H413	H	1.246586	1.115434	0.951410
	O414	O	0.383265	0.533660	0.580294
	H415	H	0.386459	0.547644	0.576424
	H416	H	0.373156	0.544818	0.590427
	O417	O	0.726814	0.261157	0.465794
	H418	H	0.731466	0.276524	0.453170
	H419	H	0.751247	0.237096	0.455250
	O420	O	0.462141	0.638110	0.520131
	H421	H	0.466485	0.621257	0.519494
	H422	H	0.452596	0.642750	0.521031
	O423	O	0.017811	0.061287	0.982015
	H424	H	0.021101	0.074896	0.980851
	H425	H	0.031890	0.058392	0.968826
	O426	O	0.538453	0.666855	0.713302
	H427	H	0.552683	0.683114	0.728362
	H428	H	0.563820	0.665957	0.713805
	O429	O	1.233381	0.949318	0.772334
	H430	H	1.257410	0.938071	0.744536
	H431	H	1.232960	0.909966	0.779423
	O432	O	0.785769	0.009697	0.780700
	H433	H	0.775422	0.006516	0.777175
	H434	H	0.784141	0.018923	0.777824
	O435	O	0.315598	1.294453	0.305726
	H436	H	0.347411	1.302989	0.322297
	H437	H	0.311238	1.322825	0.331447
	O438	O	0.612110	0.302027	-0.316914
	H439	H	0.605161	0.318529	-0.325795
	H440	H	0.612996	0.286102	-0.327635
	O441	O	-0.189110	-0.055730	-0.076449
	H442	H	-0.191814	-0.040993	-0.064629
	H443	H	-0.190846	-0.041531	-0.078801
	O444	O	0.727776	0.704687	0.526355
	H445	H	0.720881	0.711385	0.526372
	H446	H	0.745776	0.728281	0.540639
	O447	O	-0.212599	0.971038	1.180457
	H448	H	-0.211338	0.960320	1.203311
	H449	H	-0.211214	0.937966	1.179010
	O450	O	-0.208688	0.776653	1.204280
	H451	H	-0.219741	0.751108	1.230623
	H452	H	-0.191954	0.765056	1.202731
	O453	O	0.725015	0.516515	0.713708
	H454	H	0.733161	0.512857	0.717988
	H455	H	0.736151	0.519700	0.714697
	O456	O	-0.154170	0.173534	0.811158
	H457	H	-0.148165	0.172739	0.806940
	H458	H	-0.158348	0.186068	0.796978
	O459	O	0.786260	1.119688	-0.011985
	H460	H	0.804171	1.118189	-0.021070
	H461	H	0.781115	1.137126	-0.018981
	O462	O	0.462527	0.699718	0.283250
	H463	H	0.480833	0.686981	0.280060
	H464	H	0.480240	0.706141	0.266811
	O465	O	0.801195	-0.201304	-0.148926
	H466	H	0.814704	-0.186360	-0.131519
	H467	H	0.810899	-0.191426	-0.127288
	O468	O	0.273528	0.463394	0.467097
	H469	H	0.268795	0.490310	0.454212
	H470	H	0.267599	0.467430	0.485878
	O471	O	0.296374	0.465208	0.719704
	H472	H	0.281169	0.461045	0.741181
	H473	H	0.313655	0.459690	0.729645
	O474	O	0.592784	0.486603	0.553193
	H475	H	0.594439	0.474267	0.545228
	H476	H	0.588432	0.477852	0.552431
	O477	O	0.280367	0.260619	1.519185
	H478	H	0.265937	0.267370	1.517495
	H479	H	0.263010	0.254123	1.529088
	O480	O	0.544022	0.442812	0.409558
	H481	H	0.550773	0.455133	0.414606
	H482	H	0.542766	0.443823	0.402049
	O483	O	0.546441	0.261454	0.271593
	H484	H	0.542462	0.249861	0.263624
	H485	H	0.543013	0.246577	0.268949
	O486	O	0.537115	0.260249	0.597165
	H487	H	0.532067	0.273361	0.586465
	H488	H	0.554979	0.243292	0.583932
	O489	O	1.208363	1.156735	0.048163
	H490	H	1.203132	1.153536	0.060218
	H491	H	1.230321	1.179103	0.042099
	O492	O	-0.137948	0.025454	0.137635
	H493	H	-0.145662	0.050848	0.145334
	H494	H	-0.142975	0.040528	0.151755
	O495	O	0.043884	1.009603	0.767565
	H496	H	0.071972	1.006187	0.759228
	H497	H	0.036449	0.993105	0.774749
	O498	O	0.997642	1.027138	1.035601
	H499	H	0.988284	1.017897	1.049948
	H500	H	1.025708	1.027173	1.031221
	O501	O	0.718272	0.276424	0.287545
	H502	H	0.747356	0.241156	0.254619
	H503	H	0.683039	0.269298	0.298618
