data_Molecule from HDF5

_cell_length_a		16.115387
_cell_length_b		16.164048
_cell_length_c		16.300079
_cell_angle_alpha	89.289937
_cell_angle_beta	90.216250
_cell_angle_gamma	90.008260
_symmetry_space_group_name_H-M	'P 1'
_symmetry_Int_Tables_number		1

loop_
	_symmetry_equiv_pos_as_xyz
	x,y,z

loop_
	_atom_site_label
	_atom_site_type_symbol
	_atom_site_fract_x
	_atom_site_fract_y
	_atom_site_fract_z
	H0	H	0.407487	0.843926	0.712278
	H1	H	0.608676	0.172553	0.704598
	H2	H	0.608244	0.842608	0.282482
	H3	H	0.405900	0.171172	0.274169
	H4	H	0.722537	0.410338	0.829860
	H5	H	0.724474	0.602747	0.157224
	H6	H	0.292547	0.610026	0.829946
	H7	H	0.296268	0.407814	0.158122
	H8	H	0.841528	0.720742	0.393189
	H9	H	0.173160	0.719893	0.589142
	H10	H	0.841693	0.294293	0.590797
	H11	H	0.172755	0.294885	0.395698
	H12	H	0.843350	0.404857	0.708483
	H13	H	0.172280	0.607353	0.707216
	H14	H	0.844250	0.609839	0.274417
	H15	H	0.173540	0.411282	0.281604
	H16	H	0.410695	0.725551	0.829709
	H17	H	0.608398	0.719782	0.158075
	H18	H	0.606420	0.297531	0.828982
	H19	H	0.408906	0.289786	0.155826
	H20	H	0.718968	0.841485	0.401662
	H21	H	0.720754	0.172341	0.589088
	H22	H	0.295974	0.841986	0.592893
	H23	H	0.293255	0.172539	0.392007
	H24	H	0.907121	0.344886	0.211250
	H25	H	0.110395	0.671538	0.204955
	H26	H	0.110199	0.342552	0.778938
	H27	H	0.907360	0.671544	0.773656
	H28	H	0.222121	0.909684	0.330137
	H29	H	0.223363	0.103907	0.656683
	H30	H	0.791766	0.107601	0.330106
	H31	H	0.796762	0.907804	0.658170
	H32	H	0.343305	0.222706	0.893139
	H33	H	0.675293	0.219643	0.089093
	H34	H	0.343721	0.793061	0.092715
	H35	H	0.674294	0.796233	0.897758
	H36	H	0.344162	0.904919	0.209518
	H37	H	0.673345	0.107771	0.208824
	H38	H	0.344082	0.110138	0.775694
	H39	H	0.673997	0.910807	0.782841
	H40	H	0.905990	0.225046	0.329578
	H41	H	0.107846	0.221047	0.656664
	H42	H	0.104206	0.797667	0.327727
	H43	H	0.908285	0.788428	0.655505
	H44	H	0.223379	0.342498	0.897289
	H45	H	0.220477	0.672573	0.088729
	H46	H	0.797475	0.342317	0.091066
	H47	H	0.794664	0.672617	0.892345
	H48	H	0.421073	0.123135	0.583160
	H49	H	0.596573	0.890029	0.591568
	H50	H	0.588282	0.122994	0.393431
	H51	H	0.415983	0.888714	0.397037
	H52	H	0.605455	0.416962	0.111071
	H53	H	0.596214	0.613494	0.875317
	H54	H	0.414411	0.601217	0.111447
	H55	H	0.420657	0.428678	0.881917
	H56	H	0.125299	0.594791	0.392078
	H57	H	0.888799	0.600227	0.582670
	H58	H	0.124716	0.420231	0.586336
	H59	H	0.888412	0.410198	0.405032
	H60	H	0.127973	0.412016	0.590906
	H61	H	0.889688	0.596423	0.582889
	H62	H	0.131402	0.611421	0.394415
	H63	H	0.892176	0.424491	0.401534
	H64	H	0.413340	0.600287	0.110600
	H65	H	0.609766	0.601652	0.874446
	H66	H	0.597841	0.412282	0.109042
	H67	H	0.422451	0.405993	0.875405
	H68	H	0.601415	0.123296	0.411492
	H69	H	0.604400	0.889162	0.586743
	H70	H	0.412811	0.124916	0.581027
	H71	H	0.419376	0.892165	0.404653
	H72	H	0.912374	0.627387	0.083579
	H73	H	0.099016	0.388152	0.093191
	H74	H	0.105860	0.628173	0.895385
	H75	H	0.908916	0.389801	0.908971
	H76	H	0.104565	0.904834	0.613544
	H77	H	0.094690	0.101210	0.378114
	H78	H	0.922840	0.100267	0.607592
	H79	H	0.917626	0.915886	0.377658
	H80	H	0.628351	0.107917	0.900442
	H81	H	0.390935	0.104576	0.076952
	H82	H	0.627264	0.917010	0.090686
	H83	H	0.388958	0.918668	0.896450
	H84	H	0.628659	0.912494	0.091311
	H85	H	0.394046	0.091083	0.080737
	H86	H	0.625656	0.098965	0.899698
	H87	H	0.389762	0.913344	0.902494
	H88	H	0.911167	0.108202	0.614384
	H89	H	0.100338	0.107345	0.374988
	H90	H	0.105944	0.918531	0.609344
	H91	H	0.909301	0.908912	0.372333
	H92	H	0.093791	0.623689	0.892910
	H93	H	0.101410	0.389539	0.085840
	H94	H	0.919162	0.627106	0.088461
	H95	H	0.911755	0.385584	0.890454
	H96	H	0.414811	0.127721	0.589819
	H97	H	0.604287	0.887283	0.596220
	H98	H	0.608888	0.130152	0.391553
	H99	H	0.410982	0.888873	0.403760
	H100	H	0.605948	0.408666	0.113166
	H101	H	0.594573	0.596462	0.881162
	H102	H	0.415446	0.599809	0.110538
	H103	H	0.401698	0.417859	0.871772
	H104	H	0.123427	0.601964	0.406669
	H105	H	0.889219	0.598503	0.586616
	H106	H	0.125078	0.411758	0.581894
	H107	H	0.886333	0.415051	0.390833
	H108	H	0.918950	0.624222	0.079050
	H109	H	0.106627	0.387722	0.090608
	H110	H	0.099961	0.623022	0.903826
	H111	H	0.926429	0.392621	0.901980
	H112	H	0.093329	0.912022	0.608504
	H113	H	0.104224	0.099016	0.375166
	H114	H	0.909572	0.093620	0.610249
	H115	H	0.907151	0.919799	0.375926
	H116	H	0.629387	0.103496	0.892325
	H117	H	0.389009	0.100065	0.091688
	H118	H	0.627257	0.913768	0.087345
	H119	H	0.391735	0.920134	0.903224
	C120	C	0.386956	0.016235	0.615217
	C121	C	0.630383	0.998158	0.617093
	C122	C	0.628486	0.015963	0.372791
	C123	C	0.385745	0.998556	0.371253
	C124	C	0.630992	0.385836	0.002082
	C125	C	0.630558	0.630319	0.985027
	C126	C	0.385984	0.630743	0.002385
	C127	C	0.386536	0.386829	0.984899
	C128	C	0.017134	0.631200	0.369009
	C129	C	0.998478	0.627489	0.612547
	C130	C	0.016471	0.385266	0.615041
	C131	C	0.998608	0.387798	0.371582
	C132	C	0.888137	0.516970	0.113435
	C133	C	0.130407	0.498193	0.115655
	C134	C	0.129552	0.515975	0.870681
	C135	C	0.886750	0.498674	0.870540
	C136	C	0.128971	0.885091	0.501713
	C137	C	0.129210	0.129936	0.484060
	C138	C	0.885172	0.130143	0.502330
	C139	C	0.884654	0.885480	0.484359
	C140	C	0.518050	0.131669	0.869339
	C141	C	0.500291	0.127952	0.112822
	C142	C	0.517893	0.885497	0.116946
	C143	C	0.499737	0.888894	0.873439
	C144	C	0.388340	0.892783	0.672884
	C145	C	0.628562	0.122895	0.668612
	C146	C	0.627132	0.891787	0.320015
	C147	C	0.386284	0.122162	0.313225
	C148	C	0.684941	0.389900	0.878679
	C149	C	0.686762	0.624913	0.108272
	C150	C	0.330705	0.630141	0.878940
	C151	C	0.332669	0.387564	0.108511
	C152	C	0.891815	0.684751	0.371930
	C153	C	0.123541	0.682404	0.609916
	C154	C	0.891527	0.330941	0.611789
	C155	C	0.123314	0.332608	0.375075
	C156	C	0.892498	0.386204	0.670361
	C157	C	0.123139	0.626497	0.668497
	C158	C	0.893156	0.629268	0.313045
	C159	C	0.123621	0.390614	0.318413
	C160	C	0.389152	0.687789	0.879149
	C161	C	0.628721	0.682623	0.109048
	C162	C	0.627213	0.333455	0.878363
	C163	C	0.389037	0.328997	0.107513
	C164	C	0.682765	0.891358	0.379285
	C165	C	0.684151	0.122993	0.611025
	C166	C	0.332555	0.891872	0.613351
	C167	C	0.330420	0.122785	0.372231
	C168	C	0.888864	0.393483	0.171220
	C169	C	0.129392	0.622179	0.168161
	C170	C	0.129096	0.391802	0.817265
	C171	C	0.887841	0.622461	0.812801
	C172	C	0.184217	0.889106	0.378728
	C173	C	0.185099	0.125265	0.607716
	C174	C	0.829585	0.127999	0.378998
	C175	C	0.832914	0.887434	0.608540
	C176	C	0.393142	0.186247	0.872200
	C177	C	0.625299	0.182767	0.110341
	C178	C	0.393251	0.829981	0.113802
	C179	C	0.624764	0.834036	0.877022
	C180	C	0.393396	0.886074	0.171426
	C181	C	0.624292	0.126948	0.169796
	C182	C	0.393640	0.130073	0.813765
	C183	C	0.624546	0.890843	0.819894
	C184	C	0.886307	0.186516	0.378826
	C185	C	0.127722	0.183545	0.607642
	C186	C	0.125465	0.833045	0.377558
	C187	C	0.888207	0.827837	0.607089
	C188	C	0.185651	0.391760	0.875782
	C189	C	0.184251	0.622774	0.110289
	C190	C	0.833991	0.392197	0.111632
	C191	C	0.831777	0.622995	0.871713
	C192	C	0.409639	0.102878	0.591518
	C193	C	0.608241	0.911314	0.597374
	C194	C	0.606036	0.103005	0.392728
	C195	C	0.408742	0.912208	0.394910
	C196	C	0.609391	0.406409	0.088659
	C197	C	0.607169	0.609906	0.899030
	C198	C	0.407915	0.607389	0.088499
	C199	C	0.408254	0.410638	0.898663
	C200	C	0.104179	0.609209	0.391248
	C201	C	0.911808	0.604945	0.590660
	C202	C	0.103497	0.407728	0.592817
	C203	C	0.911483	0.410021	0.392840
	C204	C	0.910323	0.603917	0.090398
	C205	C	0.108781	0.410972	0.095723
	C206	C	0.106719	0.602394	0.891172
	C207	C	0.909194	0.411890	0.893580
	C208	C	0.107484	0.905479	0.588088
	C209	C	0.106501	0.108885	0.398333
	C210	C	0.907967	0.107424	0.588459
	C211	C	0.905315	0.908150	0.397715
	C212	C	0.605253	0.109858	0.891091
	C213	C	0.413791	0.105012	0.089957
	C214	C	0.605123	0.907661	0.095793
	C215	C	0.412822	0.910857	0.894420
	Zn216	Zn	0.509115	0.008304	0.743646
	Zn217	Zn	0.507871	0.007261	0.243052
	Zn218	Zn	0.759217	0.507636	-0.007337
	Zn219	Zn	0.257157	0.507621	-0.005844
	Zn220	Zn	0.007212	0.756969	0.491666
	Zn221	Zn	0.006936	0.259049	0.492924
	Zn222	Zn	0.008119	0.506730	0.741835
	Zn223	Zn	0.008935	0.508452	0.242467
	Zn224	Zn	0.509096	0.760066	-0.005336
	Zn225	Zn	0.509023	0.258553	-0.007575
	Zn226	Zn	0.756810	0.007618	0.494757
	Zn227	Zn	0.257516	0.007383	0.493184
	N228	N	0.421409	0.971235	0.674055
	N229	N	0.595483	0.044310	0.672262
	N230	N	0.594125	0.970305	0.315884
	N231	N	0.420015	0.043882	0.312500
	N232	N	0.687227	0.421855	0.956620
	N233	N	0.687774	0.593150	0.030225
	N234	N	0.328462	0.595230	0.956472
	N235	N	0.330967	0.422859	0.031045
	N236	N	0.970068	0.686047	0.405973
	N237	N	0.045368	0.683271	0.575724
	N238	N	0.969780	0.330062	0.578158
	N239	N	0.044415	0.330644	0.407283
	N240	N	0.971307	0.419192	0.672453
	N241	N	0.044491	0.592881	0.670335
	N242	N	0.972096	0.596740	0.310917
	N243	N	0.045120	0.424111	0.316195
	N244	N	0.422459	0.688348	0.957060
	N245	N	0.594573	0.686238	0.031500
	N246	N	0.594433	0.330901	0.956243
	N247	N	0.421520	0.328351	0.029545
	N248	N	0.683568	0.969697	0.411521
	N249	N	0.685505	0.044466	0.579839
	N250	N	0.331555	0.969900	0.578043
	N251	N	0.329878	0.044875	0.407626
	N252	N	0.921855	0.471999	0.172288
	N253	N	0.096474	0.543689	0.171625
	N254	N	0.095154	0.469939	0.813699
	N255	N	0.921288	0.543886	0.812015
	N256	N	0.186518	0.920762	0.456791
	N257	N	0.186319	0.092741	0.529919
	N258	N	0.828551	0.093760	0.456834
	N259	N	0.830571	0.922459	0.531074
	N260	N	0.471459	0.187189	0.906329
	N261	N	0.547282	0.183595	0.075614
	N262	N	0.471554	0.829659	0.080573
	N263	N	0.546227	0.832623	0.909853
	N264	N	0.472048	0.919680	0.173772
	N265	N	0.545574	0.093584	0.171422
	N266	N	0.472292	0.097125	0.811673
	N267	N	0.545874	0.924258	0.817426
	N268	N	0.920404	0.187756	0.456429
	N269	N	0.093529	0.186414	0.530031
	N270	N	0.091935	0.830361	0.455155
	N271	N	0.919608	0.826482	0.528746
	N272	N	0.186230	0.469940	0.908444
	N273	N	0.185061	0.544535	0.078150
	N274	N	0.833398	0.470187	0.076314
	N275	N	0.830965	0.545024	0.906688
	O276	O	0.000204	0.073676	-0.018351
	H277	H	0.003725	0.063902	-0.022472
	H278	H	0.000143	0.078041	-0.015644
	O279	O	0.533288	0.575104	0.563181
	H280	H	0.533244	0.568719	0.564440
	H281	H	0.523228	0.571813	0.560225
	O282	O	0.490517	0.597076	0.482477
	H283	H	0.488069	0.597899	0.491191
	H284	H	0.497848	0.605324	0.481895
	O285	O	0.998825	0.010363	0.940647
	H286	H	0.983651	0.014772	0.941875
	H287	H	1.001777	0.003132	0.944225
	O288	O	0.977323	-0.074478	-0.009220
	H289	H	0.975525	-0.070189	-0.006233
	H290	H	0.973505	-0.084643	-0.005698
	O291	O	0.460100	0.468585	0.499960
	H292	H	0.448591	0.467629	0.504130
	H293	H	0.476944	0.457514	0.500559
	O294	O	1.011512	0.021190	0.971312
	H295	H	1.015320	0.031542	0.967161
	H296	H	1.007190	0.022466	0.973201
	O297	O	0.103932	0.028228	0.023995
	H298	H	0.107066	0.030743	0.017573
	H299	H	0.101282	0.025570	0.022722
	O300	O	0.507073	0.490645	0.547398
	H301	H	0.509277	0.495822	0.546791
	H302	H	0.500789	0.490345	0.554593
	O303	O	0.463103	0.500642	0.593170
	H304	H	0.466459	0.499364	0.589704
	H305	H	0.460386	0.499683	0.593864
	O306	O	0.971528	0.019640	-0.026433
	H307	H	0.957116	0.015337	-0.028469
	H308	H	0.975563	0.002562	-0.022245
	O309	O	0.060045	-0.056482	0.918347
	H310	H	0.056857	-0.060108	0.921812
	H311	H	0.062790	-0.056965	0.919804
	O312	O	1.015117	0.954402	0.921199
	H313	H	1.015971	0.950729	0.913224
	H314	H	1.010904	0.950490	0.927428
	O315	O	0.487838	0.491593	0.384662
	H316	H	0.490065	0.498229	0.389435
	H317	H	0.486394	0.494747	0.385471
	O318	O	0.529512	0.424918	0.491788
	H319	H	0.531148	0.422878	0.491066
	H320	H	0.537981	0.436527	0.491347
	O321	O	-0.009430	0.951817	0.960894
	H322	H	-0.009057	0.953229	0.968841
	H323	H	-0.007409	0.948239	0.963260
	O324	O	0.489061	0.428308	0.496584
	H325	H	0.485273	0.425184	0.498732
	H326	H	0.484713	0.418153	0.494216
	O327	O	-0.010912	0.010145	0.983249
	H328	H	-0.017444	0.010734	0.990224
	H329	H	-0.009768	0.007745	0.990166
	O330	O	0.497548	0.536036	0.569562
	H331	H	0.502390	0.535349	0.557577
	H332	H	0.498569	0.534001	0.569068
	O333	O	0.438721	0.512890	0.535729
	H334	H	0.431657	0.510009	0.532507
	H335	H	0.427409	0.512425	0.546658
	O336	O	0.490709	0.489131	0.558250
	H337	H	0.493831	0.489508	0.565417
	H338	H	0.485969	0.485653	0.558669
	O339	O	1.023249	1.021678	0.068874
	H340	H	1.033073	1.020179	0.064777
	H341	H	1.011047	1.024058	0.064637
	O342	O	0.475738	0.491166	0.467924
	H343	H	0.476568	0.498180	0.473421
	H344	H	0.476043	0.488911	0.457357
	O345	O	0.440000	0.530187	0.454138
	H346	H	0.443245	0.531289	0.453869
	H347	H	0.442615	0.536674	0.456889
	O348	O	0.087936	0.045933	0.063678
	H349	H	0.087766	0.048106	0.062254
	H350	H	0.085518	0.052681	0.065281
	O351	O	0.103601	1.051789	1.075318
	H352	H	0.114682	1.049584	1.070673
	H353	H	0.108971	1.064944	1.075538
	O354	O	0.514297	0.495911	0.440046
	H355	H	0.509159	0.506213	0.437404
	H356	H	0.509483	0.493900	0.447640
	O357	O	-0.027962	1.036036	1.038996
	H358	H	-0.027422	1.035324	1.021520
	H359	H	-0.015484	1.063476	1.041409
