data_Molecule from HDF5

_cell_length_a		16.271078
_cell_length_b		16.232352
_cell_length_c		16.261633
_cell_angle_alpha	89.848570
_cell_angle_beta	89.698684
_cell_angle_gamma	90.090597
_symmetry_space_group_name_H-M	'P 1'
_symmetry_Int_Tables_number		1

loop_
	_symmetry_equiv_pos_as_xyz
	x,y,z

loop_
	_atom_site_label
	_atom_site_type_symbol
	_atom_site_fract_x
	_atom_site_fract_y
	_atom_site_fract_z
	H0	H	0.408783	0.843174	0.714746
	H1	H	0.606517	0.171464	0.711535
	H2	H	0.607986	0.842797	0.284094
	H3	H	0.411264	0.171223	0.285562
	H4	H	0.723796	0.408535	0.835258
	H5	H	0.723629	0.604380	0.163412
	H6	H	0.295761	0.607319	0.835855
	H7	H	0.292700	0.406375	0.162958
	H8	H	0.844746	0.721606	0.399540
	H9	H	0.172778	0.719905	0.594345
	H10	H	0.844252	0.292720	0.597130
	H11	H	0.172861	0.292818	0.399273
	H12	H	0.845401	0.407752	0.714799
	H13	H	0.172923	0.606224	0.711144
	H14	H	0.844609	0.604349	0.284601
	H15	H	0.173158	0.409620	0.284086
	H16	H	0.411210	0.721622	0.836026
	H17	H	0.606996	0.720644	0.164264
	H18	H	0.608957	0.292370	0.836127
	H19	H	0.410470	0.291775	0.163308
	H20	H	0.723399	0.842557	0.399577
	H21	H	0.721452	0.170679	0.594997
	H22	H	0.294228	0.842860	0.599130
	H23	H	0.295813	0.170390	0.401228
	H24	H	0.910028	0.342254	0.214214
	H25	H	0.108998	0.670066	0.213027
	H26	H	0.107690	0.343038	0.784010
	H27	H	0.911263	0.670396	0.784724
	H28	H	0.225300	0.908058	0.336558
	H29	H	0.222896	0.106355	0.662934
	H30	H	0.794610	0.105227	0.335079
	H31	H	0.791999	0.906601	0.662590
	H32	H	0.345550	0.222783	0.901287
	H33	H	0.673385	0.220597	0.096231
	H34	H	0.344953	0.791869	0.099133
	H35	H	0.672694	0.792802	0.900052
	H36	H	0.345333	0.907582	0.215090
	H37	H	0.672670	0.106125	0.212565
	H38	H	0.344366	0.105152	0.786033
	H39	H	0.672222	0.907977	0.783027
	H40	H	0.911333	0.219662	0.334297
	H41	H	0.105231	0.219795	0.663293
	H42	H	0.107049	0.795256	0.335158
	H43	H	0.908387	0.791436	0.662706
	H44	H	0.224434	0.342849	0.899093
	H45	H	0.223658	0.670346	0.096467
	H46	H	0.793925	0.342469	0.100092
	H47	H	0.794934	0.670082	0.900035
	H48	H	0.401392	0.125392	0.582229
	H49	H	0.607947	0.886730	0.593869
	H50	H	0.615909	0.125872	0.411127
	H51	H	0.416253	0.885548	0.396207
	H52	H	0.600711	0.406985	0.118356
	H53	H	0.599113	0.617695	0.879481
	H54	H	0.423714	0.600995	0.114942
	H55	H	0.417627	0.418750	0.884174
	H56	H	0.125102	0.600887	0.403771
	H57	H	0.894772	0.597886	0.583531
	H58	H	0.126709	0.408652	0.589894
	H59	H	0.890144	0.417146	0.393972
	H60	H	0.123522	0.416803	0.586597
	H61	H	0.891544	0.591622	0.597735
	H62	H	0.125760	0.600900	0.405359
	H63	H	0.889048	0.400306	0.408970
	H64	H	0.411130	0.603734	0.119741
	H65	H	0.620692	0.593715	0.879818
	H66	H	0.608529	0.414567	0.117913
	H67	H	0.420877	0.412560	0.882646
	H68	H	0.601047	0.128000	0.390934
	H69	H	0.593393	0.889789	0.597920
	H70	H	0.415505	0.129229	0.609798
	H71	H	0.425837	0.893857	0.411108
	H72	H	0.922622	0.624947	0.102782
	H73	H	0.106750	0.386208	0.097294
	H74	H	0.105340	0.622260	0.913732
	H75	H	0.917394	0.386900	0.896518
	H76	H	0.097847	0.915692	0.614769
	H77	H	0.104840	0.097905	0.382945
	H78	H	0.918333	0.100644	0.615654
	H79	H	0.908250	0.918493	0.382062
	H80	H	0.624291	0.103141	0.911713
	H81	H	0.388304	0.104286	0.100237
	H82	H	0.627707	0.920203	0.105809
	H83	H	0.390888	0.908071	0.908403
	H84	H	0.629740	0.898300	0.089298
	H85	H	0.393209	0.104656	0.083810
	H86	H	0.623369	0.092317	0.903583
	H87	H	0.394518	0.916685	0.911898
	H88	H	0.911281	0.101161	0.616573
	H89	H	0.101641	0.100539	0.382223
	H90	H	0.101199	0.907888	0.618249
	H91	H	0.923636	0.919304	0.386170
	H92	H	0.110446	0.627938	0.899210
	H93	H	0.093372	0.391448	0.092890
	H94	H	0.924799	0.618421	0.081288
	H95	H	0.924573	0.393209	0.910248
	H96	H	0.431559	0.117668	0.584940
	H97	H	0.599013	0.893650	0.583848
	H98	H	0.590985	0.117755	0.413104
	H99	H	0.407577	0.889331	0.413336
	H100	H	0.597833	0.416898	0.114420
	H101	H	0.590515	0.588294	0.890127
	H102	H	0.413535	0.591545	0.114638
	H103	H	0.413594	0.413282	0.881664
	H104	H	0.124802	0.599620	0.404386
	H105	H	0.888693	0.606660	0.595148
	H106	H	0.126123	0.415594	0.595162
	H107	H	0.896754	0.420364	0.414868
	H108	H	0.904303	0.625584	0.088831
	H109	H	0.104693	0.390965	0.083381
	H110	H	0.095111	0.622397	0.900989
	H111	H	0.908303	0.388031	0.910784
	H112	H	0.106052	0.915613	0.617748
	H113	H	0.105935	0.101796	0.381369
	H114	H	0.914134	0.095402	0.615003
	H115	H	0.916976	0.906335	0.379570
	H116	H	0.627960	0.103872	0.899115
	H117	H	0.394883	0.090005	0.093200
	H118	H	0.619581	0.922314	0.079494
	H119	H	0.391306	0.916172	0.902387
	C120	C	0.386960	0.015784	0.621235
	C121	C	0.629085	0.998187	0.619796
	C122	C	0.631340	0.015370	0.376593
	C123	C	0.388006	0.998214	0.378275
	C124	C	0.631067	0.384908	0.008106
	C125	C	0.631449	0.628554	0.991549
	C126	C	0.387735	0.628017	0.008265
	C127	C	0.387903	0.385583	0.991132
	C128	C	0.016973	0.628775	0.376114
	C129	C	0.999936	0.627790	0.619787
	C130	C	0.016986	0.384994	0.619880
	C131	C	1.000344	0.384868	0.377221
	C132	C	0.887904	0.514327	0.120274
	C133	C	0.130480	0.497867	0.119733
	C134	C	0.132132	0.515788	0.876120
	C135	C	0.888146	0.497660	0.877637
	C136	C	0.130459	0.885358	0.508163
	C137	C	0.131493	0.128821	0.490487
	C138	C	0.887160	0.127154	0.506989
	C139	C	0.886576	0.884919	0.490598
	C140	C	0.517113	0.128792	0.877160
	C141	C	0.500690	0.128183	0.120422
	C142	C	0.517281	0.884876	0.120922
	C143	C	0.500212	0.885393	0.877990
	C144	C	0.388568	0.892241	0.677120
	C145	C	0.626771	0.122142	0.674327
	C146	C	0.628571	0.891737	0.321761
	C147	C	0.390839	0.121847	0.323013
	C148	C	0.686281	0.387846	0.884513
	C149	C	0.686221	0.626005	0.114598
	C150	C	0.333567	0.626449	0.884623
	C151	C	0.331423	0.386633	0.114246
	C152	C	0.893892	0.684188	0.378634
	C153	C	0.123719	0.682574	0.615925
	C154	C	0.893473	0.330026	0.617679
	C155	C	0.123983	0.330643	0.379436
	C156	C	0.893853	0.387279	0.676050
	C157	C	0.123607	0.626139	0.674195
	C158	C	0.893667	0.625680	0.321639
	C159	C	0.124112	0.388405	0.322033
	C160	C	0.390964	0.683465	0.884761
	C161	C	0.628130	0.683444	0.114942
	C162	C	0.629117	0.330248	0.884825
	C163	C	0.389687	0.329555	0.114369
	C164	C	0.685637	0.891599	0.379451
	C165	C	0.683825	0.121964	0.616236
	C166	C	0.331842	0.891907	0.619220
	C167	C	0.333337	0.121662	0.380379
	C168	C	0.889905	0.391046	0.176144
	C169	C	0.128577	0.621179	0.175033
	C170	C	0.129006	0.391983	0.821405
	C171	C	0.890698	0.621431	0.822590
	C172	C	0.186199	0.888377	0.384874
	C173	C	0.185210	0.126379	0.614147
	C174	C	0.832526	0.125160	0.383730
	C175	C	0.829964	0.885958	0.613585
	C176	C	0.394083	0.184567	0.880248
	C177	C	0.624213	0.182926	0.116927
	C178	C	0.393961	0.829585	0.119431
	C179	C	0.623635	0.830580	0.879803
	C180	C	0.394207	0.887203	0.177017
	C181	C	0.623926	0.125886	0.174638
	C182	C	0.393580	0.126417	0.822961
	C183	C	0.623469	0.887783	0.821691
	C184	C	0.890954	0.181636	0.383354
	C185	C	0.127174	0.183124	0.614038
	C186	C	0.127737	0.831831	0.384493
	C187	C	0.888053	0.829086	0.613709
	C188	C	0.186790	0.392015	0.878661
	C189	C	0.185373	0.621608	0.116860
	C190	C	0.832251	0.391116	0.119099
	C191	C	0.832890	0.621143	0.879658
	C192	C	0.409352	0.101819	0.598682
	C193	C	0.606798	0.912297	0.598223
	C194	C	0.609394	0.101468	0.398479
	C195	C	0.410084	0.911960	0.400452
	C196	C	0.608971	0.406685	0.094646
	C197	C	0.609739	0.606539	0.905382
	C198	C	0.409476	0.605468	0.094201
	C199	C	0.410596	0.408162	0.905172
	C200	C	0.102974	0.606996	0.397922
	C201	C	0.914040	0.605241	0.598473
	C202	C	0.103177	0.407074	0.597173
	C203	C	0.914133	0.406173	0.399231
	C204	C	0.910501	0.600601	0.097606
	C205	C	0.108183	0.411568	0.097597
	C206	C	0.110243	0.601838	0.898135
	C207	C	0.910116	0.411578	0.899505
	C208	C	0.108402	0.906879	0.594657
	C209	C	0.110471	0.106445	0.404304
	C210	C	0.908372	0.105286	0.593489
	C211	C	0.909531	0.907888	0.404810
	C212	C	0.602994	0.106620	0.898598
	C213	C	0.414400	0.106070	0.098862
	C214	C	0.603229	0.907039	0.098242
	C215	C	0.414319	0.907273	0.900896
	Zn216	Zn	0.508113	0.006892	0.748950
	Zn217	Zn	0.509195	0.006955	0.249219
	Zn218	Zn	0.759578	0.506247	-0.000521
	Zn219	Zn	0.259464	0.507170	-0.001254
	Zn220	Zn	0.008335	0.756906	0.498859
	Zn221	Zn	0.008713	0.255900	0.498488
	Zn222	Zn	0.009489	0.506742	0.748588
	Zn223	Zn	0.009058	0.506314	0.248233
	Zn224	Zn	0.509303	0.756072	-0.000323
	Zn225	Zn	0.509570	0.256937	-0.000574
	Zn226	Zn	0.758184	0.006331	0.498979
	Zn227	Zn	0.259492	0.006883	0.499710
	N228	N	0.422102	0.969988	0.678326
	N229	N	0.593368	0.044186	0.676478
	N230	N	0.595207	0.969513	0.319950
	N231	N	0.424165	0.043906	0.321543
	N232	N	0.687702	0.421026	0.962298
	N233	N	0.688249	0.592671	0.036969
	N234	N	0.331633	0.592596	0.962333
	N235	N	0.330212	0.420775	0.036538
	N236	N	0.971545	0.686404	0.411719
	N237	N	0.045984	0.684102	0.583155
	N238	N	0.971085	0.328608	0.583555
	N239	N	0.046129	0.328325	0.413142
	N240	N	0.971631	0.420633	0.677541
	N241	N	0.045840	0.592459	0.676600
	N242	N	0.971164	0.591835	0.319996
	N243	N	0.046310	0.421378	0.320593
	N244	N	0.424001	0.684663	0.962474
	N245	N	0.595051	0.685285	0.037034
	N246	N	0.595676	0.328261	0.962683
	N247	N	0.424253	0.328986	0.037023
	N248	N	0.687649	0.969439	0.412560
	N249	N	0.685491	0.044091	0.582988
	N250	N	0.330703	0.969713	0.585223
	N251	N	0.331629	0.043956	0.414104
	N252	N	0.923835	0.468732	0.176808
	N253	N	0.095033	0.543153	0.176680
	N254	N	0.095848	0.469791	0.819434
	N255	N	0.924508	0.543870	0.821309
	N256	N	0.187954	0.920975	0.462957
	N257	N	0.188135	0.093360	0.536291
	N258	N	0.830377	0.091694	0.461645
	N259	N	0.829111	0.920225	0.536004
	N260	N	0.471879	0.186353	0.912980
	N261	N	0.546551	0.184340	0.083776
	N262	N	0.471465	0.827943	0.085317
	N263	N	0.546184	0.828974	0.914133
	N264	N	0.471833	0.920936	0.177974
	N265	N	0.546065	0.092557	0.176936
	N266	N	0.471000	0.092464	0.820939
	N267	N	0.545754	0.921256	0.820585
	N268	N	0.924004	0.183194	0.461018
	N269	N	0.094378	0.184745	0.536285
	N270	N	0.093746	0.830015	0.462060
	N271	N	0.922347	0.828326	0.536252
	N272	N	0.188932	0.470028	0.911769
	N273	N	0.186689	0.543913	0.083306
	N274	N	0.830917	0.468937	0.085037
	N275	N	0.831343	0.543421	0.913442
	O276	O	0.495120	0.521962	0.552349
	H277	H	0.495051	0.533748	0.550785
	H278	H	0.494699	0.515929	0.552102
	O279	O	-0.030542	-0.108335	0.076323
	H280	H	-0.039576	-0.115591	0.072432
	H281	H	-0.025450	-0.101743	0.075500
	O282	O	0.444355	0.558012	0.615241
	H283	H	0.456990	0.545254	0.607486
	H284	H	0.428119	0.550380	0.623207
	O285	O	0.518280	0.488205	0.565898
	H286	H	0.517011	0.487601	0.566016
	H287	H	0.515878	0.495022	0.551604
	O288	O	0.918194	-0.006422	0.036220
	H289	H	0.912295	0.001052	0.043029
	H290	H	0.913915	-0.006721	0.036665
	O291	O	-0.548964	0.524240	-0.449623
	H292	H	-0.552808	0.522953	-0.448957
	H293	H	-0.544199	0.532051	-0.439394
	O294	O	0.502732	0.559564	0.521679
	H295	H	0.485999	0.557501	0.528178
	H296	H	0.496804	0.571581	0.515010
	O297	O	-0.050010	0.933568	-0.006972
	H298	H	-0.054778	0.928797	-0.012852
	H299	H	-0.050193	0.930639	-0.006896
	O300	O	0.912371	-0.057027	1.068288
	H301	H	0.915770	-0.061128	1.063598
	H302	H	0.914940	-0.058252	1.066202
	O303	O	0.425107	0.533278	0.550849
	H304	H	0.428860	0.534628	0.565490
	H305	H	0.423721	0.536996	0.556354
	O306	O	-0.058147	0.936819	1.011211
	H307	H	-0.059363	0.932894	1.023574
	H308	H	-0.064369	0.938054	1.009807
	O309	O	0.464037	0.478005	0.572825
	H310	H	0.470916	0.477164	0.564285
	H311	H	0.474251	0.480874	0.568321
