data_Molecule from HDF5

_cell_length_a		16.296025
_cell_length_b		16.014048
_cell_length_c		16.319160
_cell_angle_alpha	90.280665
_cell_angle_beta	90.544428
_cell_angle_gamma	90.394697
_symmetry_space_group_name_H-M	'P 1'
_symmetry_Int_Tables_number		1

loop_
	_symmetry_equiv_pos_as_xyz
	x,y,z

loop_
	_atom_site_label
	_atom_site_type_symbol
	_atom_site_fract_x
	_atom_site_fract_y
	_atom_site_fract_z
	H0	H	0.387623	0.837852	0.718409
	H1	H	0.590691	0.167915	0.722112
	H2	H	0.585539	0.838011	0.291095
	H3	H	0.390076	0.169155	0.293217
	H4	H	0.704288	0.403088	0.843318
	H5	H	0.710494	0.609085	0.167900
	H6	H	0.271884	0.605427	0.844080
	H7	H	0.273776	0.402793	0.169272
	H8	H	0.823695	0.713230	0.409049
	H9	H	0.152061	0.717526	0.604738
	H10	H	0.824928	0.288029	0.601676
	H11	H	0.153519	0.290173	0.410245
	H12	H	0.826362	0.401317	0.721593
	H13	H	0.151199	0.607225	0.724220
	H14	H	0.827313	0.604739	0.285981
	H15	H	0.151446	0.401864	0.289907
	H16	H	0.393565	0.714368	0.841611
	H17	H	0.590857	0.721041	0.169469
	H18	H	0.583368	0.290565	0.841429
	H19	H	0.393837	0.292046	0.170578
	H20	H	0.699793	0.836417	0.405731
	H21	H	0.706254	0.167162	0.610058
	H22	H	0.275247	0.837247	0.603341
	H23	H	0.276383	0.168909	0.406809
	H24	H	0.890560	0.338205	0.216813
	H25	H	0.092589	0.668427	0.224343
	H26	H	0.087053	0.339403	0.792653
	H27	H	0.890507	0.670281	0.792684
	H28	H	0.202370	0.901364	0.342616
	H29	H	0.209795	0.107204	0.666591
	H30	H	0.770821	0.102282	0.344217
	H31	H	0.770409	0.897753	0.668799
	H32	H	0.323535	0.214686	0.908697
	H33	H	0.653447	0.218444	0.105518
	H34	H	0.324985	0.789720	0.099439
	H35	H	0.653961	0.791487	0.908835
	H36	H	0.325427	0.902401	0.218318
	H37	H	0.651252	0.107993	0.226608
	H38	H	0.325923	0.104194	0.786731
	H39	H	0.650231	0.899643	0.786447
	H40	H	0.891110	0.213953	0.341993
	H41	H	0.089952	0.218318	0.669307
	H42	H	0.080318	0.789750	0.341153
	H43	H	0.891679	0.789723	0.671008
	H44	H	0.200310	0.338715	0.907794
	H45	H	0.204753	0.670036	0.107335
	H46	H	0.776792	0.339286	0.103769
	H47	H	0.776252	0.670489	0.906496
	H48	H	0.399609	0.121069	0.594523
	H49	H	0.568464	0.888332	0.594849
	H50	H	0.579558	0.122374	0.412763
	H51	H	0.391058	0.881547	0.406077
	H52	H	0.584267	0.407162	0.123467
	H53	H	0.570788	0.601726	0.890710
	H54	H	0.390331	0.603394	0.126830
	H55	H	0.394966	0.417748	0.892211
	H56	H	0.102764	0.594639	0.421160
	H57	H	0.869615	0.596893	0.603541
	H58	H	0.104424	0.416632	0.604161
	H59	H	0.870641	0.413841	0.400280
	H60	H	0.107447	0.409408	0.605018
	H61	H	0.870839	0.595949	0.598323
	H62	H	0.104786	0.590341	0.410001
	H63	H	0.869906	0.398640	0.413662
	H64	H	0.395142	0.585059	0.120047
	H65	H	0.594260	0.603983	0.884316
	H66	H	0.590761	0.415643	0.123574
	H67	H	0.398282	0.404010	0.889745
	H68	H	0.579089	0.119465	0.420408
	H69	H	0.587419	0.884636	0.588410
	H70	H	0.397608	0.121750	0.596864
	H71	H	0.397905	0.883934	0.410451
	H72	H	0.901277	0.619453	0.086820
	H73	H	0.075717	0.388670	0.093396
	H74	H	0.080631	0.623666	0.915399
	H75	H	0.897334	0.385830	0.911606
	H76	H	0.087419	0.914001	0.622523
	H77	H	0.077123	0.101836	0.388625
	H78	H	0.901979	0.099031	0.621960
	H79	H	0.889948	0.908681	0.389950
	H80	H	0.606569	0.102380	0.912842
	H81	H	0.373620	0.095611	0.096665
	H82	H	0.609288	0.903736	0.102233
	H83	H	0.372026	0.914256	0.903310
	H84	H	0.601407	0.918830	0.092076
	H85	H	0.371211	0.092836	0.103473
	H86	H	0.602282	0.094237	0.920344
	H87	H	0.369693	0.902349	0.910675
	H88	H	0.890565	0.095425	0.625419
	H89	H	0.089792	0.096411	0.385674
	H90	H	0.081785	0.912603	0.622484
	H91	H	0.892152	0.911035	0.391310
	H92	H	0.084406	0.624203	0.916634
	H93	H	0.090370	0.383238	0.094817
	H94	H	0.890561	0.628050	0.102265
	H95	H	0.898380	0.387593	0.916021
	H96	H	0.401556	0.121208	0.598351
	H97	H	0.582159	0.879811	0.607147
	H98	H	0.585513	0.122045	0.417736
	H99	H	0.391057	0.883784	0.413926
	H100	H	0.581143	0.416901	0.119903
	H101	H	0.586046	0.581837	0.893578
	H102	H	0.408915	0.600294	0.121220
	H103	H	0.384868	0.408699	0.887575
	H104	H	0.108357	0.602170	0.412366
	H105	H	0.871038	0.592167	0.602790
	H106	H	0.105497	0.411221	0.597407
	H107	H	0.877558	0.417093	0.419038
	H108	H	0.910946	0.623000	0.105992
	H109	H	0.080554	0.382355	0.106921
	H110	H	0.084593	0.625116	0.912714
	H111	H	0.894292	0.385714	0.914313
	H112	H	0.085156	0.908818	0.623432
	H113	H	0.079865	0.087509	0.391533
	H114	H	0.898917	0.087276	0.620695
	H115	H	0.894045	0.906678	0.389597
	H116	H	0.605224	0.090666	0.908855
	H117	H	0.370382	0.101177	0.102011
	H118	H	0.606867	0.920741	0.109605
	H119	H	0.376024	0.914381	0.916292
	C120	C	0.369173	0.012024	0.625332
	C121	C	0.610134	0.993443	0.627705
	C122	C	0.608631	0.011669	0.386799
	C123	C	0.366530	0.993806	0.383631
	C124	C	0.612211	0.382747	0.014565
	C125	C	0.613141	0.626732	0.997405
	C126	C	0.368642	0.625212	0.014699
	C127	C	0.365878	0.381609	0.998026
	C128	C	-0.002591	0.624165	0.384913
	C129	C	0.979147	0.624994	0.629546
	C130	C	-0.002185	0.381548	0.629399
	C131	C	0.980733	0.381468	0.383831
	C132	C	0.870555	0.513772	0.126242
	C133	C	0.111690	0.494756	0.128148
	C134	C	0.110272	0.514177	0.886048
	C135	C	0.867985	0.495682	0.884962
	C136	C	0.110598	0.881764	0.514365
	C137	C	0.112237	0.125465	0.496363
	C138	C	0.867508	0.123241	0.514798
	C139	C	0.864659	0.879721	0.498331
	C140	C	0.496676	0.124941	0.884402
	C141	C	0.480307	0.126425	0.129933
	C142	C	0.497834	0.883568	0.127639
	C143	C	0.480610	0.881630	0.882589
	C144	C	0.368737	0.887312	0.680468
	C145	C	0.610280	0.118255	0.684389
	C146	C	0.605839	0.887116	0.329631
	C147	C	0.369872	0.119371	0.330389
	C148	C	0.666319	0.383465	0.891894
	C149	C	0.670949	0.627560	0.119646
	C150	C	0.311209	0.624151	0.892517
	C151	C	0.311754	0.383229	0.120650
	C152	C	0.873285	0.677082	0.387520
	C153	C	0.102769	0.681010	0.626498
	C154	C	0.874408	0.325368	0.624126
	C155	C	0.104244	0.327136	0.388578
	C156	C	0.875069	0.381671	0.683873
	C157	C	0.102170	0.625761	0.685583
	C158	C	0.875213	0.623066	0.326452
	C159	C	0.103115	0.382493	0.328596
	C160	C	0.371803	0.678589	0.891172
	C161	C	0.611430	0.683309	0.120353
	C162	C	0.606300	0.327348	0.891137
	C163	C	0.371348	0.327790	0.121244
	C164	C	0.662475	0.886379	0.386982
	C165	C	0.667787	0.117814	0.628448
	C166	C	0.312846	0.887009	0.623045
	C167	C	0.313039	0.119209	0.386481
	C168	C	0.870968	0.388289	0.180258
	C169	C	0.111647	0.619092	0.185554
	C170	C	0.107040	0.388986	0.830663
	C171	C	0.870389	0.620607	0.829971
	C172	C	0.164075	0.882236	0.391181
	C173	C	0.170287	0.125750	0.618508
	C174	C	0.810326	0.121792	0.392433
	C175	C	0.809178	0.879958	0.620409
	C176	C	0.373106	0.178477	0.887392
	C177	C	0.603902	0.181475	0.126759
	C178	C	0.374113	0.827622	0.121533
	C179	C	0.604348	0.827888	0.887208
	C180	C	0.374220	0.883666	0.180568
	C181	C	0.602796	0.126558	0.187144
	C182	C	0.374306	0.123392	0.826589
	C183	C	0.602662	0.882013	0.826474
	C184	C	0.869814	0.177590	0.391484
	C185	C	0.110593	0.181027	0.619874
	C186	C	0.103505	0.826535	0.390640
	C187	C	0.869463	0.825704	0.621627
	C188	C	0.163108	0.388530	0.888072
	C189	C	0.167671	0.619818	0.127541
	C190	C	0.814179	0.388909	0.124035
	C191	C	0.813778	0.620870	0.886843
	C192	C	0.392776	0.098744	0.603110
	C193	C	0.586213	0.906722	0.603873
	C194	C	0.587523	0.098776	0.410266
	C195	C	0.387200	0.906035	0.404155
	C196	C	0.591555	0.406222	0.100154
	C197	C	0.590286	0.603099	0.911745
	C198	C	0.391379	0.602873	0.100662
	C199	C	0.386393	0.403746	0.911994
	C200	C	0.083178	0.602365	0.407884
	C201	C	0.893058	0.601909	0.607951
	C202	C	0.083628	0.405352	0.608401
	C203	C	0.895102	0.403508	0.404775
	C204	C	0.893952	0.600966	0.104604
	C205	C	0.088784	0.407307	0.104966
	C206	C	0.089287	0.601657	0.908372
	C207	C	0.890183	0.408729	0.907332
	C208	C	0.090735	0.904900	0.600409
	C209	C	0.089173	0.102198	0.410744
	C210	C	0.890376	0.100653	0.600384
	C211	C	0.885870	0.902193	0.412436
	C212	C	0.582489	0.102395	0.907376
	C213	C	0.394077	0.103280	0.107376
	C214	C	0.583615	0.907361	0.107538
	C215	C	0.394943	0.903789	0.903884
	Zn216	Zn	0.488610	0.002918	0.753800
	Zn217	Zn	0.488407	0.003382	0.258078
	Zn218	Zn	0.742311	0.505173	0.005811
	Zn219	Zn	0.238413	0.504187	0.006719
	Zn220	Zn	-0.012471	0.752361	0.507446
	Zn221	Zn	-0.010711	0.252537	0.506351
	Zn222	Zn	-0.010831	0.504554	0.758618
	Zn223	Zn	-0.010360	0.503452	0.254625
	Zn224	Zn	0.489963	0.754515	0.006041
	Zn225	Zn	0.488788	0.253807	0.006405
	Zn226	Zn	0.737171	0.001692	0.506979
	Zn227	Zn	0.240987	0.003485	0.504943
	N228	N	0.402984	0.965965	0.682166
	N229	N	0.575299	0.039978	0.684144
	N230	N	0.573090	0.965933	0.329358
	N231	N	0.402469	0.040404	0.328409
	N232	N	0.670200	0.417202	0.969700
	N233	N	0.672175	0.592999	0.042231
	N234	N	0.309289	0.591702	0.970433
	N235	N	0.308143	0.415830	0.042914
	N236	N	0.950135	0.677983	0.423282
	N237	N	0.025403	0.680615	0.592274
	N238	N	0.951788	0.325004	0.591225
	N239	N	0.027237	0.326225	0.422406
	N240	N	0.952894	0.415803	0.687464
	N241	N	0.024304	0.591810	0.687907
	N242	N	0.953288	0.590719	0.324855
	N243	N	0.025378	0.415566	0.325629
	N244	N	0.407224	0.679226	0.968215
	N245	N	0.576001	0.682732	0.043574
	N246	N	0.573276	0.326882	0.968428
	N247	N	0.404363	0.326648	0.043866
	N248	N	0.664180	0.964826	0.421989
	N249	N	0.667952	0.039231	0.593831
	N250	N	0.312692	0.965678	0.589543
	N251	N	0.310467	0.040038	0.418510
	N252	N	0.905637	0.466822	0.181570
	N253	N	0.077485	0.540308	0.186056
	N254	N	0.074799	0.468078	0.829248
	N255	N	0.903510	0.541742	0.828763
	N256	N	0.168591	0.915805	0.468963
	N257	N	0.171329	0.091696	0.540786
	N258	N	0.808602	0.088952	0.470136
	N259	N	0.805970	0.912671	0.542538
	N260	N	0.450275	0.179519	0.922628
	N261	N	0.526605	0.181595	0.091929
	N262	N	0.451827	0.827331	0.089428
	N263	N	0.527600	0.827597	0.921689
	N264	N	0.452088	0.917552	0.184643
	N265	N	0.524746	0.093286	0.189446
	N266	N	0.452232	0.090825	0.824697
	N267	N	0.524781	0.914758	0.823519
	N268	N	0.904804	0.178547	0.468705
	N269	N	0.075271	0.181011	0.542991
	N270	N	0.070943	0.826170	0.468265
	N271	N	0.903175	0.825357	0.544732
	N272	N	0.165311	0.467379	0.921866
	N273	N	0.167640	0.541367	0.092478
	N274	N	0.813528	0.468036	0.091323
	N275	N	0.812192	0.542247	0.920225
	O276	O	0.019088	-0.032392	-0.090208
	H277	H	0.011785	-0.027690	-0.095017
	H278	H	0.016528	-0.028647	-0.085025
	O279	O	0.494392	0.582416	0.499022
	H280	H	0.492157	0.583353	0.500225
	H281	H	0.503751	0.581045	0.500481
	O282	O	0.472500	0.488873	0.527973
	H283	H	0.473617	0.485673	0.520710
	H284	H	0.476019	0.487355	0.525203
	O285	O	-0.104027	1.064967	0.949882
	H286	H	-0.097997	1.069879	0.960934
	H287	H	-0.100563	1.069524	0.958109
	O288	O	0.541909	0.470208	0.527316
	H289	H	0.549689	0.473166	0.520784
	H290	H	0.541862	0.467950	0.534056
	O291	O	0.952385	1.019366	1.005863
	H292	H	0.952498	1.014555	0.997671
	H293	H	0.967189	1.008430	1.008201
	O294	O	1.452831	0.519283	0.403282
	H295	H	1.440579	0.504602	0.402688
	H296	H	1.450209	0.525988	0.394453
	O297	O	1.069015	0.018460	1.025931
	H298	H	1.060332	0.038536	1.023169
	H299	H	1.080125	0.020555	1.026318
	O300	O	0.497189	0.472709	0.415859
	H301	H	0.486810	0.472381	0.408622
	H302	H	0.495102	0.467029	0.410312
	O303	O	1.035938	-0.076790	0.006964
	H304	H	1.035872	-0.076753	0.005210
	H305	H	1.048332	-0.073130	0.001036
	O306	O	0.002020	0.987962	1.087817
	H307	H	0.007018	0.995785	1.098622
	H308	H	0.015881	0.987967	1.082009
	O309	O	0.463916	0.463612	0.544960
	H310	H	0.466890	0.460130	0.538306
	H311	H	0.472142	0.460634	0.549868
	O312	O	0.940374	-0.016645	0.936501
	H313	H	0.943941	-0.026304	0.936578
	H314	H	0.932054	-0.026163	0.934815
	O315	O	-0.107332	0.048631	-0.037089
	H316	H	-0.104809	0.035930	-0.037488
	H317	H	-0.118421	0.056953	-0.033918
	O318	O	0.592637	0.465330	0.535085
	H319	H	0.603135	0.462554	0.537241
	H320	H	0.590492	0.466663	0.537015
	O321	O	0.862275	1.022756	0.958125
	H322	H	0.874259	1.026406	0.953950
	H323	H	0.861894	1.021234	0.948450
	O324	O	0.949843	0.007942	0.068519
	H325	H	0.941535	-0.001766	0.064324
	H326	H	0.956899	0.004609	0.067145
	O327	O	0.573008	0.513468	0.503760
	H328	H	0.580621	0.507720	0.497543
	H329	H	0.576330	0.531604	0.501583
	O330	O	0.992487	0.022128	0.999400
	H331	H	0.992427	0.017683	0.994236
	H332	H	0.997313	0.023214	1.005473
	O333	O	1.456447	1.548008	-0.481757
	H334	H	1.447781	1.540705	-0.479328
	H335	H	1.461919	1.555162	-0.485242
	O336	O	1.071400	1.019022	0.971809
	H337	H	1.063616	1.012397	0.975085
	H338	H	1.075557	1.033910	0.980898
	O339	O	0.488554	0.425671	0.597054
	H340	H	0.488058	0.422530	0.601276
	H341	H	0.488403	0.426961	0.609712
	O342	O	-0.051135	1.085415	-0.005340
	H343	H	-0.071271	1.089354	-0.006434
	H344	H	-0.064163	1.082398	-0.001632
	O345	O	-0.034820	-0.002413	-0.032938
	H346	H	-0.045113	-0.002592	-0.028791
	H347	H	-0.037966	0.002175	-0.046200
	O348	O	0.403499	0.486665	0.470712
	H349	H	0.395646	0.487926	0.472669
	H350	H	0.396287	0.500631	0.474448
	O351	O	0.505850	0.498933	0.420747
	H352	H	0.505737	0.492352	0.419260
	H353	H	0.502709	0.511388	0.416363
	O354	O	0.562425	0.569572	0.535162
	H355	H	0.576073	0.566249	0.527256
	H356	H	0.562465	0.569103	0.540683
	O357	O	0.395709	0.399523	0.493444
	H358	H	0.388152	0.409462	0.493137
	H359	H	0.391990	0.400659	0.506403
	O360	O	0.080643	0.089407	0.039166
	H361	H	0.072863	0.093758	0.039580
	H362	H	0.084145	0.094690	0.047740
	O363	O	0.520410	0.506154	0.487763
	H364	H	0.522450	0.506815	0.485727
	H365	H	0.512995	0.485212	0.482521
	O366	O	0.014306	0.058934	1.045611
	H367	H	0.023451	0.054901	1.036688
	H368	H	0.003231	0.064442	1.032578
	O369	O	0.504156	0.572886	0.520146
	H370	H	0.502568	0.588255	0.522476
	H371	H	0.512204	0.566050	0.519234
