data_Molecule from HDF5

_cell_length_a		16.110063
_cell_length_b		16.091339
_cell_length_c		16.421899
_cell_angle_alpha	89.734354
_cell_angle_beta	90.976791
_cell_angle_gamma	89.406306
_symmetry_space_group_name_H-M	'P 1'
_symmetry_Int_Tables_number		1

loop_
	_symmetry_equiv_pos_as_xyz
	x,y,z

loop_
	_atom_site_label
	_atom_site_type_symbol
	_atom_site_fract_x
	_atom_site_fract_y
	_atom_site_fract_z
	H0	H	0.407102	0.849280	0.707074
	H1	H	0.610013	0.176838	0.710355
	H2	H	0.609095	0.848572	0.277584
	H3	H	0.400301	0.176506	0.272635
	H4	H	0.719242	0.413713	0.829226
	H5	H	0.722077	0.609589	0.155510
	H6	H	0.283058	0.616496	0.831193
	H7	H	0.295545	0.414677	0.155543
	H8	H	0.840530	0.727585	0.393011
	H9	H	0.172737	0.719613	0.590522
	H10	H	0.839424	0.301411	0.586590
	H11	H	0.171952	0.300109	0.400432
	H12	H	0.840464	0.413487	0.705308
	H13	H	0.168296	0.613707	0.713151
	H14	H	0.842007	0.618388	0.273499
	H15	H	0.169871	0.410674	0.279942
	H16	H	0.401050	0.730397	0.829978
	H17	H	0.606959	0.727459	0.154690
	H18	H	0.603283	0.297896	0.828646
	H19	H	0.412952	0.298616	0.154862
	H20	H	0.717846	0.846606	0.398998
	H21	H	0.717329	0.179264	0.589173
	H22	H	0.301014	0.846011	0.585123
	H23	H	0.290513	0.177822	0.391602
	H24	H	0.904597	0.350073	0.208886
	H25	H	0.105547	0.678100	0.210276
	H26	H	0.107406	0.349906	0.780029
	H27	H	0.897165	0.677192	0.772716
	H28	H	0.219063	0.912754	0.328338
	H29	H	0.224258	0.108388	0.653555
	H30	H	0.785141	0.114415	0.330124
	H31	H	0.795674	0.913912	0.655806
	H32	H	0.339641	0.227900	0.891488
	H33	H	0.671780	0.221251	0.089759
	H34	H	0.339202	0.804294	0.084450
	H35	H	0.670755	0.797925	0.899000
	H36	H	0.341576	0.910710	0.205188
	H37	H	0.668144	0.114805	0.212401
	H38	H	0.342782	0.119179	0.770187
	H39	H	0.670975	0.910144	0.780572
	H40	H	0.901983	0.229980	0.329822
	H41	H	0.106860	0.224215	0.654858
	H42	H	0.103378	0.796068	0.329668
	H43	H	0.912955	0.798187	0.655160
	H44	H	0.217077	0.348553	0.899468
	H45	H	0.217186	0.680263	0.091693
	H46	H	0.798683	0.346555	0.087964
	H47	H	0.788007	0.678481	0.892310
	H48	H	0.421067	0.128542	0.576438
	H49	H	0.605508	0.889009	0.601491
	H50	H	0.589956	0.129584	0.401391
	H51	H	0.414078	0.892263	0.393566
	H52	H	0.594899	0.415898	0.105644
	H53	H	0.595525	0.608081	0.876145
	H54	H	0.397152	0.607533	0.112498
	H55	H	0.411401	0.424829	0.877604
	H56	H	0.123476	0.597403	0.397030
	H57	H	0.887546	0.609883	0.576561
	H58	H	0.123079	0.421800	0.590010
	H59	H	0.882891	0.418572	0.389073
	H60	H	0.124023	0.417856	0.591236
	H61	H	0.888924	0.598378	0.584336
	H62	H	0.127049	0.608058	0.396767
	H63	H	0.889780	0.418878	0.406163
	H64	H	0.420147	0.594308	0.102492
	H65	H	0.596028	0.603049	0.877230
	H66	H	0.606973	0.410730	0.111055
	H67	H	0.411241	0.418797	0.875901
	H68	H	0.597840	0.131336	0.400118
	H69	H	0.586807	0.899240	0.585925
	H70	H	0.406952	0.133057	0.579563
	H71	H	0.417447	0.894535	0.395907
	H72	H	0.913070	0.631402	0.079674
	H73	H	0.096116	0.395880	0.092529
	H74	H	0.089443	0.629513	0.906179
	H75	H	0.907806	0.395559	0.905960
	H76	H	0.122771	0.912716	0.614062
	H77	H	0.107303	0.108420	0.372007
	H78	H	0.907262	0.105875	0.609707
	H79	H	0.912128	0.927640	0.378474
	H80	H	0.621860	0.099154	0.901751
	H81	H	0.385963	0.104835	0.086660
	H82	H	0.625696	0.915446	0.088905
	H83	H	0.386224	0.921988	0.893636
	H84	H	0.622659	0.921178	0.082278
	H85	H	0.386627	0.110841	0.079070
	H86	H	0.625371	0.102670	0.895656
	H87	H	0.387719	0.923598	0.896175
	H88	H	0.916683	0.101122	0.605554
	H89	H	0.093470	0.096363	0.378900
	H90	H	0.100622	0.933541	0.601660
	H91	H	0.916201	0.915835	0.376924
	H92	H	0.098719	0.635139	0.900631
	H93	H	0.098940	0.396966	0.083565
	H94	H	0.910074	0.634149	0.085573
	H95	H	0.910745	0.390687	0.888995
	H96	H	0.417848	0.133626	0.590238
	H97	H	0.609965	0.895033	0.577458
	H98	H	0.592823	0.131580	0.394177
	H99	H	0.412680	0.893230	0.398040
	H100	H	0.606961	0.424010	0.106841
	H101	H	0.591054	0.605373	0.878484
	H102	H	0.421774	0.621416	0.110571
	H103	H	0.405498	0.421633	0.875190
	H104	H	0.123285	0.603335	0.406467
	H105	H	0.884447	0.609720	0.589106
	H106	H	0.123017	0.419420	0.586652
	H107	H	0.890317	0.433798	0.396484
	H108	H	0.917341	0.631019	0.086392
	H109	H	0.104979	0.393916	0.090265
	H110	H	0.087928	0.633127	0.894115
	H111	H	0.924202	0.398426	0.898120
	H112	H	0.092932	0.902626	0.608107
	H113	H	0.090052	0.114944	0.375284
	H114	H	0.916363	0.111957	0.609312
	H115	H	0.904610	0.918755	0.374545
	H116	H	0.624630	0.107250	0.902285
	H117	H	0.389986	0.101015	0.078635
	H118	H	0.623354	0.924877	0.090533
	H119	H	0.387886	0.926039	0.893946
	C120	C	0.387483	0.021900	0.610791
	C121	C	0.629049	1.003903	0.615759
	C122	C	0.624790	0.021617	0.371422
	C123	C	0.383642	1.002900	0.367316
	C124	C	0.629583	0.389114	0.000367
	C125	C	0.626006	0.633991	0.984355
	C126	C	0.381471	0.637114	0.000948
	C127	C	0.383815	0.392353	0.983853
	C128	C	0.015226	0.634048	0.370374
	C129	C	0.996443	0.633331	0.613654
	C130	C	0.014070	0.391618	0.615182
	C131	C	0.996539	0.392453	0.370626
	C132	C	0.885452	0.522712	0.112634
	C133	C	0.128039	0.505057	0.116789
	C134	C	0.123612	0.523292	0.873216
	C135	C	0.882711	0.504158	0.868950
	C136	C	0.130907	0.888552	0.500245
	C137	C	0.127887	0.134119	0.482774
	C138	C	0.882138	0.136125	0.500817
	C139	C	0.884630	0.891365	0.484102
	C140	C	0.514749	0.134419	0.869402
	C141	C	0.496571	0.133431	0.112033
	C142	C	0.514497	0.891949	0.113538
	C143	C	0.496508	0.892556	0.869503
	C144	C	0.388857	0.897941	0.667547
	C145	C	0.628092	0.127939	0.671260
	C146	C	0.626826	0.897575	0.316063
	C147	C	0.381904	0.127095	0.311201
	C148	C	0.682609	0.392542	0.877792
	C149	C	0.683612	0.630513	0.106619
	C150	C	0.322841	0.635737	0.879345
	C151	C	0.331989	0.394192	0.106600
	C152	C	0.890224	0.690110	0.372481
	C153	C	0.122187	0.684942	0.611915
	C154	C	0.889118	0.337813	0.609073
	C155	C	0.121663	0.336429	0.377180
	C156	C	0.889831	0.393425	0.668296
	C157	C	0.120109	0.631891	0.672571
	C158	C	0.890908	0.635844	0.312943
	C159	C	0.120718	0.391680	0.317481
	C160	C	0.381344	0.692850	0.878728
	C161	C	0.626005	0.689018	0.106435
	C162	C	0.625070	0.334838	0.877659
	C163	C	0.390517	0.336521	0.106265
	C164	C	0.680993	0.896559	0.376552
	C165	C	0.681962	0.129104	0.611503
	C166	C	0.335808	0.896246	0.606913
	C167	C	0.327272	0.127893	0.370271
	C168	C	0.886657	0.398976	0.169579
	C169	C	0.125503	0.629215	0.171875
	C170	C	0.125329	0.399050	0.818432
	C171	C	0.879941	0.628067	0.811842
	C172	C	0.182572	0.892020	0.377299
	C173	C	0.185470	0.129868	0.605145
	C174	C	0.824208	0.134419	0.378694
	C175	C	0.832298	0.893507	0.606914
	C176	C	0.389822	0.190940	0.870451
	C177	C	0.621661	0.185839	0.110499
	C178	C	0.389282	0.839270	0.107233
	C179	C	0.621314	0.835634	0.876332
	C180	C	0.390417	0.892896	0.166913
	C181	C	0.619880	0.132613	0.171412
	C182	C	0.391159	0.136333	0.810749
	C183	C	0.621391	0.891522	0.817483
	C184	C	0.882403	0.191879	0.378429
	C185	C	0.127000	0.187456	0.605656
	C186	C	0.124915	0.833935	0.377935
	C187	C	0.890571	0.835877	0.606627
	C188	C	0.179824	0.398343	0.877897
	C189	C	0.181017	0.630185	0.113117
	C190	C	0.833720	0.397050	0.109348
	C191	C	0.825289	0.628718	0.871263
	C192	C	0.408995	0.108925	0.588587
	C193	C	0.607279	0.916880	0.594545
	C194	C	0.600585	0.108524	0.392379
	C195	C	0.407656	0.915931	0.389295
	C196	C	0.609235	0.410582	0.085721
	C197	C	0.601548	0.612014	0.899363
	C198	C	0.405960	0.614459	0.086479
	C199	C	0.403419	0.415147	0.898217
	C200	C	0.102176	0.610131	0.393298
	C201	C	0.909451	0.612302	0.590139
	C202	C	0.100868	0.413284	0.595243
	C203	C	0.909974	0.416677	0.391133
	C204	C	0.907111	0.609765	0.090252
	C205	C	0.106328	0.417887	0.095220
	C206	C	0.099258	0.610128	0.894276
	C207	C	0.907117	0.417366	0.891188
	C208	C	0.111352	0.909836	0.585708
	C209	C	0.103941	0.112846	0.397548
	C210	C	0.906341	0.113225	0.586177
	C211	C	0.905038	0.913972	0.398805
	C212	C	0.601291	0.110224	0.893058
	C213	C	0.409696	0.111686	0.088415
	C214	C	0.601500	0.913867	0.093287
	C215	C	0.409655	0.916713	0.888926
	Zn216	Zn	0.506573	0.013676	0.740737
	Zn217	Zn	0.504759	0.012205	0.240585
	Zn218	Zn	0.757406	0.512343	-0.007776
	Zn219	Zn	0.252986	0.514602	-0.006697
	Zn220	Zn	0.006789	0.760603	0.492109
	Zn221	Zn	0.005085	0.263970	0.492597
	Zn222	Zn	0.004688	0.513854	0.742851
	Zn223	Zn	0.005272	0.513818	0.242131
	Zn224	Zn	0.504494	0.765115	-0.007641
	Zn225	Zn	0.506098	0.261550	-0.008801
	Zn226	Zn	0.754119	0.013030	0.492844
	Zn227	Zn	0.258947	0.011955	0.490305
	N228	N	0.420012	0.977246	0.670143
	N229	N	0.596100	0.048961	0.674097
	N230	N	0.592394	0.976286	0.312900
	N231	N	0.416182	0.048447	0.309211
	N232	N	0.685840	0.425503	0.955061
	N233	N	0.683493	0.596814	0.029700
	N234	N	0.322762	0.602050	0.956553
	N235	N	0.327852	0.428428	0.029559
	N236	N	0.968510	0.689002	0.407763
	N237	N	0.044507	0.686028	0.575855
	N238	N	0.967463	0.336254	0.576987
	N239	N	0.043419	0.336786	0.409613
	N240	N	0.968506	0.426012	0.672231
	N241	N	0.040809	0.600510	0.673477
	N242	N	0.969556	0.601654	0.311538
	N243	N	0.042048	0.425714	0.313317
	N244	N	0.417284	0.693560	0.955473
	N245	N	0.590668	0.691233	0.029526
	N246	N	0.592925	0.332482	0.954616
	N247	N	0.421714	0.335152	0.028748
	N248	N	0.679896	0.974690	0.410249
	N249	N	0.682683	0.050981	0.577465
	N250	N	0.334891	0.974336	0.572099
	N251	N	0.327957	0.049477	0.404345
	N252	N	0.918387	0.478113	0.171558
	N253	N	0.093405	0.550278	0.174285
	N254	N	0.091090	0.477692	0.815392
	N255	N	0.914964	0.549604	0.810248
	N256	N	0.186402	0.925230	0.454311
	N257	N	0.186119	0.097217	0.527767
	N258	N	0.823912	0.100657	0.455900
	N259	N	0.828542	0.927179	0.529716
	N260	N	0.467631	0.189794	0.906201
	N261	N	0.543959	0.186414	0.074336
	N262	N	0.467486	0.838470	0.074714
	N263	N	0.542752	0.836117	0.907982
	N264	N	0.469319	0.924857	0.170874
	N265	N	0.541089	0.100321	0.172160
	N266	N	0.469833	0.101896	0.809850
	N267	N	0.542918	0.926178	0.813057
	N268	N	0.917552	0.193156	0.455491
	N269	N	0.091790	0.190188	0.528626
	N270	N	0.093774	0.831182	0.455436
	N271	N	0.922473	0.834308	0.529344
	N272	N	0.178847	0.476743	0.911411
	N273	N	0.182924	0.551874	0.079661
	N274	N	0.832914	0.475032	0.074547
	N275	N	0.826737	0.550736	0.906198
	O276	O	0.114696	0.057283	0.053263
	H277	H	0.112978	0.067567	0.054250
	H278	H	0.128005	0.060096	0.059620
	O279	O	0.550831	0.489479	0.491524
	H280	H	0.550266	0.483606	0.495934
	H281	H	0.548474	0.500277	0.492215
	O282	O	1.026727	1.013090	1.023441
	H283	H	1.018079	1.018484	1.027109
	H284	H	1.022225	1.019010	1.031786
	O285	O	0.939645	0.110852	1.033718
	H286	H	0.931246	0.124209	1.032366
	H287	H	0.943668	0.097681	1.019275
	O288	O	0.992314	0.038047	-0.073174
	H289	H	0.994454	0.029235	-0.061710
	H290	H	0.995741	0.047163	-0.081807
	O291	O	0.529699	0.537527	0.531877
	H292	H	0.542548	0.544711	0.535868
	H293	H	0.530741	0.531373	0.537954
	O294	O	1.000739	-0.079672	0.995107
	H295	H	0.997285	-0.078116	1.003429
	H296	H	1.020290	-0.075996	0.992464
	O297	O	-0.525386	-0.461601	0.455746
	H298	H	-0.515190	-0.450679	0.457916
	H299	H	-0.529846	-0.459649	0.457199
	O300	O	0.471829	0.459647	0.438065
	H301	H	0.468584	0.456076	0.437817
	H302	H	0.464717	0.473239	0.440800
	O303	O	1.078930	0.068540	0.016062
	H304	H	1.075496	0.070291	0.028347
	H305	H	1.081106	0.065523	0.003969
	O306	O	0.907532	-0.036222	0.045919
	H307	H	0.899737	-0.042910	0.054720
	H308	H	0.910549	-0.034301	0.030221
	O309	O	-0.024606	0.003931	0.983773
	H310	H	-0.025872	0.007136	0.975875
	H311	H	-0.033255	0.004229	0.978884
	O312	O	0.932419	1.127710	0.913646
	H313	H	0.941130	1.134875	0.906953
	H314	H	0.924762	1.135765	0.911437
	O315	O	0.464615	0.541343	0.484912
	H316	H	0.470433	0.538558	0.482549
	H317	H	0.458958	0.542265	0.481878
	O318	O	0.503390	0.470910	0.450929
	H319	H	0.494056	0.473865	0.448316
	H320	H	0.502633	0.473705	0.441766
	O321	O	0.490086	0.542058	1.526685
	H322	H	0.489155	0.537600	1.526375
	H323	H	0.497021	0.535798	1.524156
	O324	O	0.050749	0.009756	-0.045678
	H325	H	0.051455	0.025532	-0.035389
	H326	H	0.056804	-0.001926	-0.048459
	O327	O	0.034842	-0.006459	1.001357
	H328	H	0.033148	0.001139	1.003768
	H329	H	0.029664	-0.009536	1.008874
	O330	O	0.977746	1.069277	0.059511
	H331	H	0.970699	1.061834	0.049041
	H332	H	0.977665	1.078116	0.067149
	O333	O	0.517466	0.514702	0.484211
	H334	H	0.530866	0.509882	0.486636
	H335	H	0.521822	0.520693	0.486014
	O336	O	0.573759	0.495942	0.495057
	H337	H	0.577492	0.500353	0.494331
	H338	H	0.561224	0.492728	0.496390
	O339	O	0.422306	0.520464	0.476261
	H340	H	0.419404	0.533588	0.478995
	H341	H	0.422470	0.523715	0.465502
	O342	O	0.590509	0.573521	0.561523
	H343	H	0.593689	0.572916	0.558524
	H344	H	0.597247	0.567682	0.563518
	O345	O	0.442093	0.600339	0.479326
	H346	H	0.440678	0.605673	0.483130
	H347	H	0.441716	0.604478	0.485754
	O348	O	-0.017134	0.056868	-0.059375
	H349	H	-0.006271	0.053871	-0.057123
	H350	H	-0.011946	0.054891	-0.057971
	O351	O	0.033246	1.009318	0.920046
	H352	H	0.031821	1.018399	0.927125
	H353	H	0.029404	1.006648	0.903681
	O354	O	0.434799	0.541094	0.458128
	H355	H	0.431311	0.543924	0.455820
	H356	H	0.431085	0.539337	0.453255
	O357	O	-0.014425	1.077200	0.960132
	H358	H	-0.017353	1.066503	0.955288
	H359	H	-0.011243	1.077222	0.954090
