data_Molecule from HDF5

_cell_length_a		16.300957
_cell_length_b		16.234201
_cell_length_c		16.214176
_cell_angle_alpha	90.072069
_cell_angle_beta	89.879087
_cell_angle_gamma	89.962198
_symmetry_space_group_name_H-M	'P 1'
_symmetry_Int_Tables_number		1

loop_
	_symmetry_equiv_pos_as_xyz
	x,y,z

loop_
	_atom_site_label
	_atom_site_type_symbol
	_atom_site_fract_x
	_atom_site_fract_y
	_atom_site_fract_z
	H0	H	0.407398	0.843096	0.721218
	H1	H	0.601553	0.171347	0.720866
	H2	H	0.603542	0.842296	0.294104
	H3	H	0.408247	0.171764	0.295383
	H4	H	0.720198	0.409059	0.843917
	H5	H	0.718153	0.606786	0.172514
	H6	H	0.289737	0.607442	0.843673
	H7	H	0.288890	0.407437	0.170907
	H8	H	0.839934	0.720365	0.411564
	H9	H	0.167580	0.722351	0.607539
	H10	H	0.840583	0.291614	0.607454
	H11	H	0.168186	0.292804	0.409809
	H12	H	0.840217	0.407933	0.723531
	H13	H	0.168089	0.604096	0.721647
	H14	H	0.839990	0.603783	0.296183
	H15	H	0.167593	0.407956	0.292968
	H16	H	0.407147	0.720636	0.842967
	H17	H	0.602434	0.721835	0.171866
	H18	H	0.603675	0.293712	0.843065
	H19	H	0.406672	0.294410	0.172183
	H20	H	0.718803	0.842885	0.409184
	H21	H	0.719655	0.170161	0.607329
	H22	H	0.290302	0.843076	0.606578
	H23	H	0.289759	0.170797	0.408093
	H24	H	0.907911	0.341922	0.221124
	H25	H	0.101964	0.671672	0.223230
	H26	H	0.102808	0.342816	0.794456
	H27	H	0.907627	0.672185	0.795348
	H28	H	0.219431	0.907541	0.343694
	H29	H	0.217798	0.105587	0.672209
	H30	H	0.791530	0.104446	0.343369
	H31	H	0.790237	0.907854	0.671612
	H32	H	0.340424	0.222182	0.910125
	H33	H	0.668066	0.222138	0.105755
	H34	H	0.340893	0.792470	0.106742
	H35	H	0.668522	0.793348	0.908747
	H36	H	0.340746	0.910530	0.222242
	H37	H	0.669230	0.103875	0.219998
	H38	H	0.340555	0.105604	0.794548
	H39	H	0.668686	0.909499	0.793075
	H40	H	0.907432	0.219974	0.343613
	H41	H	0.101232	0.219020	0.673125
	H42	H	0.102765	0.792226	0.343640
	H43	H	0.907019	0.794547	0.672725
	H44	H	0.220183	0.343620	0.907501
	H45	H	0.219757	0.671279	0.108374
	H46	H	0.789667	0.343232	0.106857
	H47	H	0.791425	0.672297	0.910480
	H48	H	0.402059	0.129817	0.609876
	H49	H	0.603056	0.887678	0.601863
	H50	H	0.599356	0.122789	0.420155
	H51	H	0.407289	0.889991	0.418789
	H52	H	0.603459	0.411518	0.127211
	H53	H	0.600832	0.584161	0.895031
	H54	H	0.413116	0.595776	0.123077
	H55	H	0.416414	0.415321	0.891193
	H56	H	0.121065	0.602229	0.415846
	H57	H	0.888169	0.603877	0.596495
	H58	H	0.121900	0.401635	0.594957
	H59	H	0.890752	0.414899	0.423159
	H60	H	0.115854	0.423965	0.595160
	H61	H	0.889378	0.594150	0.602813
	H62	H	0.119912	0.598303	0.418011
	H63	H	0.887578	0.418941	0.409961
	H64	H	0.415137	0.602492	0.124752
	H65	H	0.583658	0.607443	0.892642
	H66	H	0.597648	0.421481	0.122941
	H67	H	0.409842	0.410566	0.888936
	H68	H	0.601943	0.126060	0.412047
	H69	H	0.594384	0.889687	0.604227
	H70	H	0.422120	0.122264	0.604790
	H71	H	0.410093	0.888043	0.410307
	H72	H	0.910874	0.622167	0.094146
	H73	H	0.094651	0.389096	0.109954
	H74	H	0.094145	0.622605	0.918668
	H75	H	0.901666	0.388338	0.917224
	H76	H	0.098517	0.922047	0.623295
	H77	H	0.100399	0.098441	0.390773
	H78	H	0.917560	0.102502	0.624575
	H79	H	0.908908	0.919515	0.391004
	H80	H	0.618396	0.099394	0.920657
	H81	H	0.387856	0.096003	0.108703
	H82	H	0.621712	0.915222	0.102990
	H83	H	0.386451	0.906098	0.913984
	H84	H	0.621546	0.910910	0.101029
	H85	H	0.385076	0.110334	0.103694
	H86	H	0.620873	0.096485	0.908756
	H87	H	0.390721	0.916979	0.921476
	H88	H	0.904829	0.103437	0.628281
	H89	H	0.095632	0.098791	0.391034
	H90	H	0.090968	0.911428	0.624046
	H91	H	0.917105	0.911871	0.391835
	H92	H	0.103087	0.624422	0.918036
	H93	H	0.091951	0.394006	0.093265
	H94	H	0.903178	0.627050	0.105885
	H95	H	0.914672	0.388608	0.908249
	H96	H	0.406836	0.122118	0.588931
	H97	H	0.597107	0.891593	0.595594
	H98	H	0.594389	0.123684	0.413188
	H99	H	0.416315	0.892106	0.416538
	H100	H	0.591476	0.410904	0.124944
	H101	H	0.611326	0.608590	0.884244
	H102	H	0.407895	0.599935	0.125579
	H103	H	0.408724	0.418527	0.891008
	H104	H	0.120586	0.598196	0.413763
	H105	H	0.884943	0.604312	0.608578
	H106	H	0.123819	0.414066	0.615150
	H107	H	0.885079	0.406161	0.413930
	H108	H	0.917618	0.623228	0.107179
	H109	H	0.107723	0.388812	0.098591
	H110	H	0.097694	0.625806	0.910815
	H111	H	0.915455	0.393566	0.923017
	H112	H	0.103294	0.910114	0.627630
	H113	H	0.098179	0.102403	0.390130
	H114	H	0.909904	0.091419	0.622468
	H115	H	0.907335	0.909498	0.388177
	H116	H	0.623600	0.108040	0.913696
	H117	H	0.390984	0.099284	0.093669
	H118	H	0.620365	0.914521	0.098970
	H119	H	0.387933	0.918126	0.907546
	C120	C	0.382629	0.015901	0.629304
	C121	C	0.626599	0.998009	0.629079
	C122	C	0.626537	0.015435	0.386218
	C123	C	0.383613	0.998765	0.386800
	C124	C	0.626315	0.386166	0.016264
	C125	C	0.626602	0.629083	0.999325
	C126	C	0.383338	0.628686	0.016231
	C127	C	0.383078	0.386275	0.998955
	C128	C	0.012405	0.628156	0.387651
	C129	C	0.995723	0.629224	0.630774
	C130	C	0.012173	0.384623	0.630591
	C131	C	0.996009	0.384836	0.386656
	C132	C	0.882244	0.515600	0.130617
	C133	C	0.126395	0.499377	0.129870
	C134	C	0.126495	0.515653	0.886918
	C135	C	0.883219	0.499137	0.887751
	C136	C	0.126109	0.885358	0.516419
	C137	C	0.125823	0.128162	0.499578
	C138	C	0.882865	0.127817	0.516470
	C139	C	0.882679	0.885324	0.498934
	C140	C	0.512800	0.129787	0.886109
	C141	C	0.496166	0.129962	0.130227
	C142	C	0.512957	0.885552	0.129472
	C143	C	0.496514	0.885749	0.885929
	C144	C	0.386011	0.892159	0.684013
	C145	C	0.623012	0.122150	0.683597
	C146	C	0.623916	0.891878	0.331264
	C147	C	0.387190	0.122616	0.332415
	C148	C	0.681976	0.388563	0.892849
	C149	C	0.680559	0.626793	0.123329
	C150	C	0.328067	0.626778	0.892522
	C151	C	0.327225	0.387834	0.122204
	C152	C	0.889094	0.683332	0.390304
	C153	C	0.118706	0.684403	0.627895
	C154	C	0.889365	0.329459	0.628168
	C155	C	0.119122	0.329991	0.388870
	C156	C	0.889181	0.387496	0.685692
	C157	C	0.119076	0.625517	0.684693
	C158	C	0.888937	0.625360	0.333211
	C159	C	0.118951	0.387426	0.331150
	C160	C	0.386324	0.683352	0.892077
	C161	C	0.623391	0.684207	0.122952
	C162	C	0.624046	0.331566	0.892338
	C163	C	0.385790	0.331619	0.122918
	C164	C	0.681154	0.891949	0.388666
	C165	C	0.681549	0.121467	0.627060
	C166	C	0.327999	0.892206	0.626943
	C167	C	0.328399	0.122199	0.388540
	C168	C	0.886157	0.391342	0.184295
	C169	C	0.122906	0.622634	0.185357
	C170	C	0.123417	0.391995	0.832125
	C171	C	0.886520	0.622998	0.832664
	C172	C	0.181266	0.887408	0.392678
	C173	C	0.180113	0.125280	0.623284
	C174	C	0.828527	0.125468	0.392571
	C175	C	0.828033	0.887737	0.622917
	C176	C	0.389333	0.184299	0.889509
	C177	C	0.619464	0.184341	0.126691
	C178	C	0.389673	0.830574	0.126950
	C179	C	0.619614	0.830982	0.888150
	C180	C	0.389458	0.889254	0.184162
	C181	C	0.619710	0.125960	0.183997
	C182	C	0.389607	0.126281	0.832039
	C183	C	0.619739	0.888937	0.830806
	C184	C	0.886301	0.182562	0.392712
	C185	C	0.121918	0.181731	0.623881
	C186	C	0.123234	0.830272	0.392688
	C187	C	0.885752	0.831298	0.623347
	C188	C	0.181788	0.392353	0.888351
	C189	C	0.181177	0.622591	0.128109
	C190	C	0.827465	0.392152	0.127595
	C191	C	0.828772	0.623033	0.889679
	C192	C	0.404034	0.102247	0.607625
	C193	C	0.604665	0.911778	0.607093
	C194	C	0.604849	0.101946	0.408603
	C195	C	0.405046	0.912364	0.408657
	C196	C	0.604025	0.408045	0.102648
	C197	C	0.605044	0.606637	0.912870
	C198	C	0.405718	0.606044	0.102263
	C199	C	0.405230	0.408256	0.912595
	C200	C	0.098089	0.605996	0.409549
	C201	C	0.909649	0.607272	0.609147
	C202	C	0.098282	0.406603	0.608146
	C203	C	0.910069	0.406862	0.409187
	C204	C	0.904028	0.601891	0.108847
	C205	C	0.104492	0.413001	0.107393
	C206	C	0.104683	0.602022	0.909156
	C207	C	0.904459	0.412762	0.909465
	C208	C	0.104041	0.907852	0.602725
	C209	C	0.104366	0.106458	0.412963
	C210	C	0.904310	0.105606	0.602838
	C211	C	0.904463	0.907131	0.412672
	C212	C	0.598862	0.107938	0.908002
	C213	C	0.410221	0.108320	0.108555
	C214	C	0.598989	0.907207	0.107424
	C215	C	0.410562	0.907409	0.907966
	Zn216	Zn	0.504590	0.007462	0.757442
	Zn217	Zn	0.505108	0.007495	0.258585
	Zn218	Zn	0.754156	0.508169	0.008249
	Zn219	Zn	0.254885	0.507882	0.007503
	Zn220	Zn	0.003776	0.757482	0.508407
	Zn221	Zn	0.004547	0.256095	0.508302
	Zn222	Zn	0.004289	0.506856	0.759765
	Zn223	Zn	0.003902	0.506902	0.258668
	Zn224	Zn	0.504564	0.756578	0.007361
	Zn225	Zn	0.504503	0.258383	0.007899
	Zn226	Zn	0.754539	0.006468	0.507945
	Zn227	Zn	0.254786	0.007364	0.507708
	N228	N	0.419422	0.969923	0.685503
	N229	N	0.589664	0.044448	0.685148
	N230	N	0.590608	0.969746	0.329866
	N231	N	0.420817	0.044862	0.331349
	N232	N	0.683330	0.422006	0.970903
	N233	N	0.682495	0.593224	0.045388
	N234	N	0.326113	0.593631	0.970629
	N235	N	0.325783	0.421468	0.044359
	N236	N	0.966752	0.685043	0.423506
	N237	N	0.040946	0.686815	0.595192
	N238	N	0.966805	0.327747	0.594551
	N239	N	0.041750	0.328345	0.422720
	N240	N	0.966828	0.421155	0.687332
	N241	N	0.041608	0.592014	0.686643
	N242	N	0.966447	0.591640	0.331349
	N243	N	0.041413	0.420800	0.329654
	N244	N	0.419924	0.684645	0.969829
	N245	N	0.590379	0.685665	0.044915
	N246	N	0.590221	0.330048	0.970122
	N247	N	0.419956	0.330695	0.045274
	N248	N	0.682887	0.969753	0.422288
	N249	N	0.683946	0.043287	0.594185
	N250	N	0.325758	0.970203	0.593763
	N251	N	0.326004	0.044248	0.421665
	N252	N	0.919389	0.469103	0.186307
	N253	N	0.089459	0.544714	0.186532
	N254	N	0.089729	0.469740	0.831128
	N255	N	0.919754	0.544983	0.831356
	N256	N	0.183101	0.921283	0.470500
	N257	N	0.182480	0.092546	0.545032
	N258	N	0.826449	0.092037	0.470443
	N259	N	0.825890	0.920615	0.544753
	N260	N	0.467035	0.186549	0.922380
	N261	N	0.541635	0.187139	0.094115
	N262	N	0.467414	0.828361	0.093662
	N263	N	0.542225	0.829072	0.921824
	N264	N	0.466940	0.922540	0.185850
	N265	N	0.542044	0.093041	0.186258
	N266	N	0.467303	0.093105	0.829737
	N267	N	0.542150	0.922398	0.829282
	N268	N	0.919190	0.184290	0.470788
	N269	N	0.088886	0.183491	0.545958
	N270	N	0.089830	0.828837	0.470611
	N271	N	0.919270	0.829844	0.545526
	N272	N	0.183768	0.470269	0.921589
	N273	N	0.183408	0.544882	0.094503
	N274	N	0.824924	0.470426	0.095174
	N275	N	0.826640	0.545324	0.923256
	O276	O	0.434284	0.546371	0.490896
	H277	H	0.432973	0.541284	0.490424
	H278	H	0.422835	0.551468	0.490008
	O279	O	0.030948	0.007245	-0.047735
	H280	H	0.030634	0.005544	-0.047017
	H281	H	0.036905	0.009364	-0.059488
	O282	O	0.454386	0.518180	0.435836
	H283	H	0.461000	0.524549	0.434193
	H284	H	0.453511	0.517249	0.424935
	O285	O	0.489229	0.543135	0.415886
	H286	H	0.491086	0.550595	0.426132
	H287	H	0.501783	0.541309	0.421334
	O288	O	1.360079	-0.349966	-0.328694
	H289	H	1.359499	-0.352357	-0.327483
	H290	H	1.362685	-0.356367	-0.334186
	O291	O	-0.520610	0.485674	-0.505802
	H292	H	-0.523095	0.482075	-0.502926
	H293	H	-0.514731	0.481932	-0.510873
	O294	O	0.468617	0.502198	0.442607
	H295	H	0.458006	0.515662	0.447088
	H296	H	0.465857	0.504756	0.439348
	O297	O	0.021140	1.032393	-0.043705
	H298	H	0.021249	1.040077	-0.050317
	H299	H	0.018576	1.029568	-0.043517
	O300	O	1.017911	-0.009502	0.961829
	H301	H	1.009310	-0.010582	0.969043
	H302	H	1.023508	-0.004834	0.959303
	O303	O	0.427508	0.483032	0.493409
	H304	H	0.423585	0.485997	0.485028
	H305	H	0.425017	0.489802	0.492760
	O306	O	0.044070	0.999706	0.919392
	H307	H	0.048631	0.998026	0.921547
	H308	H	0.042252	0.989148	0.919489
	O309	O	0.446876	0.523653	0.487567
	H310	H	0.453327	0.515129	0.488790
	H311	H	0.447519	0.516086	0.490374
