data_Molecule from HDF5

_cell_length_a		16.241601
_cell_length_b		16.290645
_cell_length_c		16.251174
_cell_angle_alpha	89.983329
_cell_angle_beta	89.964322
_cell_angle_gamma	89.968773
_symmetry_space_group_name_H-M	'P 1'
_symmetry_Int_Tables_number		1

loop_
	_symmetry_equiv_pos_as_xyz
	x,y,z

loop_
	_atom_site_label
	_atom_site_type_symbol
	_atom_site_fract_x
	_atom_site_fract_y
	_atom_site_fract_z
	H0	H	0.405952	0.830807	0.711596
	H1	H	0.601813	0.158258	0.709834
	H2	H	0.602075	0.830098	0.282142
	H3	H	0.406616	0.157664	0.282462
	H4	H	0.718139	0.396823	0.832703
	H5	H	0.716598	0.591495	0.161554
	H6	H	0.288792	0.593165	0.832901
	H7	H	0.290880	0.396925	0.161146
	H8	H	0.839846	0.707552	0.400245
	H9	H	0.168752	0.707190	0.594718
	H10	H	0.839614	0.279139	0.595528
	H11	H	0.168119	0.279676	0.399769
	H12	H	0.838994	0.396910	0.710160
	H13	H	0.168550	0.590384	0.710077
	H14	H	0.839146	0.591215	0.284488
	H15	H	0.168324	0.396478	0.283941
	H16	H	0.405726	0.709299	0.833070
	H17	H	0.601557	0.708177	0.161191
	H18	H	0.603041	0.279725	0.833122
	H19	H	0.404575	0.279749	0.160210
	H20	H	0.717990	0.829453	0.398717
	H21	H	0.718489	0.157596	0.593627
	H22	H	0.292118	0.829182	0.592876
	H23	H	0.290740	0.157661	0.398975
	H24	H	0.905624	0.329957	0.211568
	H25	H	0.100826	0.658033	0.210422
	H26	H	0.101934	0.329693	0.783785
	H27	H	0.906186	0.657430	0.782655
	H28	H	0.218017	0.896222	0.331446
	H29	H	0.217447	0.089744	0.661463
	H30	H	0.791115	0.091028	0.332099
	H31	H	0.789857	0.895066	0.660680
	H32	H	0.339780	0.208830	0.898466
	H33	H	0.668145	0.207672	0.095136
	H34	H	0.339885	0.781706	0.094157
	H35	H	0.668451	0.779902	0.897203
	H36	H	0.339742	0.897458	0.209142
	H37	H	0.668505	0.090789	0.209427
	H38	H	0.339896	0.093586	0.781721
	H39	H	0.667970	0.897677	0.782757
	H40	H	0.905505	0.208002	0.332507
	H41	H	0.102148	0.207079	0.661182
	H42	H	0.102136	0.779327	0.331868
	H43	H	0.905083	0.779121	0.660681
	H44	H	0.218495	0.330034	0.899100
	H45	H	0.217033	0.657236	0.094338
	H46	H	0.788884	0.330521	0.095563
	H47	H	0.791041	0.658689	0.899632
	H48	H	0.408803	0.110446	0.587483
	H49	H	0.597546	0.876452	0.592865
	H50	H	0.587891	0.106976	0.403569
	H51	H	0.411103	0.878881	0.408035
	H52	H	0.609113	0.403892	0.116685
	H53	H	0.594614	0.593407	0.879731
	H54	H	0.409086	0.592430	0.115458
	H55	H	0.416464	0.406185	0.882872
	H56	H	0.121132	0.586245	0.401832
	H57	H	0.889724	0.578274	0.591566
	H58	H	0.120279	0.400186	0.589995
	H59	H	0.888804	0.400794	0.412531
	H60	H	0.120493	0.399980	0.592255
	H61	H	0.882418	0.592775	0.598861
	H62	H	0.121503	0.588233	0.403271
	H63	H	0.888414	0.407386	0.400136
	H64	H	0.406918	0.584661	0.114165
	H65	H	0.602306	0.587750	0.878289
	H66	H	0.588528	0.409126	0.109009
	H67	H	0.412595	0.393754	0.878197
	H68	H	0.604392	0.109620	0.411246
	H69	H	0.594609	0.878400	0.589700
	H70	H	0.409577	0.111255	0.591942
	H71	H	0.404807	0.874490	0.399790
	H72	H	0.903761	0.613184	0.093066
	H73	H	0.092394	0.379282	0.086741
	H74	H	0.094717	0.607950	0.909257
	H75	H	0.918167	0.378768	0.899187
	H76	H	0.094898	0.905865	0.610458
	H77	H	0.101593	0.074739	0.382275
	H78	H	0.911182	0.080069	0.611794
	H79	H	0.900023	0.907114	0.377994
	H80	H	0.619577	0.080517	0.899394
	H81	H	0.385387	0.079516	0.102956
	H82	H	0.622109	0.899074	0.090673
	H83	H	0.385808	0.894988	0.904538
	H84	H	0.621520	0.900238	0.087190
	H85	H	0.382199	0.101881	0.089886
	H86	H	0.624231	0.094942	0.899711
	H87	H	0.389365	0.905089	0.909843
	H88	H	0.916073	0.090638	0.612803
	H89	H	0.084354	0.091079	0.382522
	H90	H	0.093506	0.894564	0.613662
	H91	H	0.923097	0.906271	0.385054
	H92	H	0.102367	0.612456	0.902749
	H93	H	0.103380	0.375204	0.088854
	H94	H	0.914390	0.610519	0.095096
	H95	H	0.908687	0.378581	0.911873
	H96	H	0.412736	0.110349	0.589357
	H97	H	0.598600	0.877006	0.588006
	H98	H	0.601427	0.114584	0.393626
	H99	H	0.415834	0.876882	0.397974
	H100	H	0.592219	0.388589	0.116237
	H101	H	0.593904	0.583680	0.881926
	H102	H	0.414042	0.587309	0.112458
	H103	H	0.403448	0.404225	0.878043
	H104	H	0.121746	0.586066	0.404375
	H105	H	0.888107	0.593029	0.582300
	H106	H	0.121207	0.398279	0.591116
	H107	H	0.883961	0.393241	0.400548
	H108	H	0.910184	0.609096	0.084860
	H109	H	0.095397	0.375489	0.098115
	H110	H	0.092554	0.610709	0.898737
	H111	H	0.903197	0.373979	0.898778
	H112	H	0.103796	0.900112	0.614913
	H113	H	0.105791	0.096095	0.374803
	H114	H	0.904940	0.089247	0.615396
	H115	H	0.911998	0.886539	0.376343
	H116	H	0.617800	0.088803	0.912085
	H117	H	0.392205	0.081132	0.077420
	H118	H	0.620777	0.902236	0.090517
	H119	H	0.386692	0.904883	0.898527
	C120	C	0.382283	0.002300	0.618084
	C121	C	0.625438	0.985706	0.617969
	C122	C	0.625841	0.002056	0.374653
	C123	C	0.382442	0.985192	0.374208
	C124	C	0.625189	0.372604	0.005360
	C125	C	0.625029	0.616038	0.988814
	C126	C	0.381763	0.616208	0.005233
	C127	C	0.382565	0.373231	0.988105
	C128	C	0.012452	0.615049	0.375688
	C129	C	0.995641	0.615601	0.618944
	C130	C	0.012102	0.371629	0.619187
	C131	C	0.995542	0.372072	0.375827
	C132	C	0.881759	0.502496	0.118989
	C133	C	0.125092	0.485123	0.118823
	C134	C	0.125272	0.502002	0.875705
	C135	C	0.882197	0.485674	0.875512
	C136	C	0.125768	0.871809	0.504345
	C137	C	0.125629	0.114870	0.488507
	C138	C	0.882446	0.115009	0.504860
	C139	C	0.882636	0.871763	0.488219
	C140	C	0.512348	0.116374	0.875222
	C141	C	0.495598	0.115710	0.118239
	C142	C	0.512721	0.872452	0.118282
	C143	C	0.495451	0.873049	0.875316
	C144	C	0.385298	0.879340	0.673451
	C145	C	0.622752	0.109232	0.672220
	C146	C	0.623183	0.878871	0.319504
	C147	C	0.385771	0.108972	0.320309
	C148	C	0.680047	0.375960	0.881478
	C149	C	0.679091	0.612428	0.112533
	C150	C	0.327192	0.613183	0.881720
	C151	C	0.327810	0.375763	0.111894
	C152	C	0.888600	0.669475	0.379406
	C153	C	0.119544	0.669889	0.615887
	C154	C	0.888459	0.317251	0.615897
	C155	C	0.119196	0.317524	0.379149
	C156	C	0.888209	0.375526	0.672975
	C157	C	0.119587	0.611865	0.673003
	C158	C	0.888402	0.612018	0.321834
	C159	C	0.119351	0.375399	0.321619
	C160	C	0.384850	0.671135	0.881828
	C161	C	0.621993	0.670352	0.112384
	C162	C	0.623143	0.317580	0.881874
	C163	C	0.384752	0.318096	0.111601
	C164	C	0.680499	0.878493	0.377565
	C165	C	0.680874	0.108719	0.614733
	C166	C	0.328674	0.878624	0.614518
	C167	C	0.328023	0.108779	0.377876
	C168	C	0.884672	0.378973	0.173905
	C169	C	0.122045	0.608804	0.173147
	C170	C	0.122600	0.378567	0.821259
	C171	C	0.885502	0.608980	0.820762
	C172	C	0.180310	0.875173	0.380580
	C173	C	0.180107	0.111016	0.612210
	C174	C	0.828432	0.111964	0.381103
	C175	C	0.827281	0.874509	0.611540
	C176	C	0.388534	0.170994	0.877793
	C177	C	0.618966	0.170378	0.115498
	C178	C	0.389104	0.818578	0.115278
	C179	C	0.619377	0.818139	0.877448
	C180	C	0.389109	0.876138	0.172340
	C181	C	0.619374	0.112109	0.172188
	C182	C	0.388425	0.113543	0.820206
	C183	C	0.619266	0.876403	0.820436
	C184	C	0.885451	0.169942	0.381261
	C185	C	0.122899	0.169235	0.612243
	C186	C	0.122789	0.817193	0.380835
	C187	C	0.885132	0.817292	0.611902
	C188	C	0.180271	0.378714	0.878963
	C189	C	0.179576	0.608475	0.115443
	C190	C	0.826732	0.379209	0.116406
	C191	C	0.827987	0.609328	0.878524
	C192	C	0.404033	0.088395	0.596057
	C193	C	0.603436	0.899624	0.596582
	C194	C	0.604274	0.087995	0.396266
	C195	C	0.404208	0.899000	0.395550
	C196	C	0.603202	0.394075	0.091665
	C197	C	0.603309	0.594631	0.902305
	C198	C	0.403559	0.594571	0.091735
	C199	C	0.404433	0.395092	0.901937
	C200	C	0.099083	0.593329	0.397026
	C201	C	0.909085	0.594193	0.597433
	C202	C	0.098506	0.393074	0.597618
	C203	C	0.909136	0.393912	0.397941
	C204	C	0.903183	0.588663	0.097415
	C205	C	0.103421	0.398854	0.097477
	C206	C	0.102973	0.588101	0.897087
	C207	C	0.903740	0.399567	0.896993
	C208	C	0.103774	0.893622	0.590655
	C209	C	0.103739	0.093664	0.402225
	C210	C	0.904363	0.093218	0.590956
	C211	C	0.905103	0.893625	0.402057
	C212	C	0.598189	0.094355	0.897127
	C213	C	0.408927	0.093950	0.096606
	C214	C	0.599475	0.894086	0.096046
	C215	C	0.409690	0.895016	0.897759
	Zn216	Zn	0.503803	-0.005302	0.746771
	Zn217	Zn	0.504183	-0.005905	0.246058
	Zn218	Zn	0.753678	0.494277	-0.003004
	Zn219	Zn	0.253811	0.493760	-0.002822
	Zn220	Zn	0.004178	0.743392	0.496819
	Zn221	Zn	0.003685	0.243282	0.497086
	Zn222	Zn	0.003988	0.493757	0.747029
	Zn223	Zn	0.003690	0.493895	0.247213
	Zn224	Zn	0.503922	0.744552	-0.002996
	Zn225	Zn	0.503125	0.244486	-0.003106
	Zn226	Zn	0.754338	-0.006455	0.496266
	Zn227	Zn	0.254133	-0.006697	0.495786
	N228	N	0.417966	0.957278	0.675562
	N229	N	0.589371	0.031715	0.674632
	N230	N	0.589829	0.956506	0.317606
	N231	N	0.418669	0.031146	0.317713
	N232	N	0.681330	0.409513	0.959105
	N233	N	0.680887	0.579198	0.034737
	N234	N	0.325059	0.580034	0.959614
	N235	N	0.326680	0.409616	0.034232
	N236	N	0.966657	0.671307	0.412080
	N237	N	0.041460	0.672364	0.583160
	N238	N	0.966644	0.314579	0.583367
	N239	N	0.041182	0.315545	0.412232
	N240	N	0.966002	0.408751	0.674985
	N241	N	0.041707	0.578801	0.674935
	N242	N	0.966417	0.578851	0.319497
	N243	N	0.041615	0.408693	0.319500
	N244	N	0.418107	0.673057	0.959585
	N245	N	0.589047	0.672461	0.034448
	N246	N	0.589671	0.315456	0.959761
	N247	N	0.418066	0.316461	0.033759
	N248	N	0.682265	0.956042	0.411069
	N249	N	0.682521	0.030980	0.581764
	N250	N	0.326719	0.956169	0.580919
	N251	N	0.325992	0.030858	0.410777
	N252	N	0.918224	0.456580	0.175551
	N253	N	0.088778	0.531167	0.175293
	N254	N	0.089163	0.456252	0.819081
	N255	N	0.918639	0.531253	0.818698
	N256	N	0.182174	0.908309	0.458355
	N257	N	0.181587	0.077704	0.534370
	N258	N	0.826920	0.078242	0.458641
	N259	N	0.825871	0.907749	0.533564
	N260	N	0.466145	0.172940	0.911153
	N261	N	0.540799	0.172617	0.082547
	N262	N	0.467135	0.816252	0.082478
	N263	N	0.541442	0.815848	0.911006
	N264	N	0.467210	0.909016	0.174088
	N265	N	0.541671	0.078868	0.173939
	N266	N	0.466359	0.080125	0.818484
	N267	N	0.541520	0.909739	0.818968
	N268	N	0.918243	0.172045	0.459382
	N269	N	0.089653	0.171726	0.534461
	N270	N	0.089772	0.814883	0.458924
	N271	N	0.918692	0.815293	0.534261
	N272	N	0.182013	0.456514	0.911892
	N273	N	0.181580	0.530693	0.082478
	N274	N	0.824788	0.456834	0.083054
	N275	N	0.825881	0.531702	0.911754
	O276	O	0.997242	-0.038747	0.908938
	H277	H	0.997602	-0.041508	0.905108
	H278	H	0.996451	-0.037038	0.914145
	O279	O	-0.041443	0.971274	0.914642
	H280	H	-0.039420	0.974835	0.915529
	H281	H	-0.040467	0.969474	0.909258
	O282	O	0.989435	0.967411	-0.108436
	H283	H	0.992144	0.962681	-0.109968
	H284	H	0.995385	0.966822	-0.115818
	O285	O	-0.025638	0.971751	0.916489
	H286	H	-0.031917	0.971055	0.914737
	H287	H	-0.030846	0.969893	0.917323
