data_Molecule from HDF5

_cell_length_a		16.354583
_cell_length_b		16.214343
_cell_length_c		16.233558
_cell_angle_alpha	90.157033
_cell_angle_beta	89.923031
_cell_angle_gamma	89.836897
_symmetry_space_group_name_H-M	'P 1'
_symmetry_Int_Tables_number		1

loop_
	_symmetry_equiv_pos_as_xyz
	x,y,z

loop_
	_atom_site_label
	_atom_site_type_symbol
	_atom_site_fract_x
	_atom_site_fract_y
	_atom_site_fract_z
	H0	H	0.403735	0.830016	0.711083
	H1	H	0.596691	0.160067	0.711177
	H2	H	0.598621	0.831325	0.283675
	H3	H	0.403675	0.159699	0.285728
	H4	H	0.715947	0.394342	0.834081
	H5	H	0.715000	0.594310	0.161752
	H6	H	0.285545	0.594880	0.833702
	H7	H	0.285389	0.396251	0.160400
	H8	H	0.837830	0.710173	0.400454
	H9	H	0.164704	0.710148	0.594792
	H10	H	0.837173	0.283077	0.594208
	H11	H	0.163614	0.281745	0.399955
	H12	H	0.837192	0.398403	0.711691
	H13	H	0.164303	0.593007	0.712099
	H14	H	0.837202	0.593559	0.284127
	H15	H	0.163353	0.397942	0.283333
	H16	H	0.405090	0.707856	0.832740
	H17	H	0.596797	0.707742	0.162958
	H18	H	0.598720	0.280297	0.834356
	H19	H	0.405473	0.285285	0.163396
	H20	H	0.715677	0.831639	0.398237
	H21	H	0.713879	0.159761	0.597308
	H22	H	0.285512	0.831114	0.596786
	H23	H	0.286822	0.160125	0.400594
	H24	H	0.903942	0.330727	0.209967
	H25	H	0.096463	0.659894	0.209940
	H26	H	0.099840	0.331132	0.781843
	H27	H	0.903501	0.660255	0.785868
	H28	H	0.216858	0.894823	0.333423
	H29	H	0.214079	0.094816	0.661055
	H30	H	0.784640	0.095379	0.334149
	H31	H	0.787548	0.897940	0.661692
	H32	H	0.337202	0.209758	0.900795
	H33	H	0.664273	0.208848	0.096352
	H34	H	0.336810	0.781946	0.095726
	H35	H	0.664645	0.779510	0.898968
	H36	H	0.336881	0.899216	0.211957
	H37	H	0.663666	0.092239	0.212572
	H38	H	0.337930	0.094061	0.783511
	H39	H	0.664275	0.896000	0.781370
	H40	H	0.903806	0.207191	0.331834
	H41	H	0.095491	0.208197	0.662017
	H42	H	0.098476	0.782268	0.332472
	H43	H	0.904413	0.783685	0.661371
	H44	H	0.216084	0.331391	0.897392
	H45	H	0.213900	0.659252	0.095949
	H46	H	0.786211	0.331627	0.096337
	H47	H	0.784884	0.658558	0.898273
	H48	H	0.408508	0.111879	0.593420
	H49	H	0.585130	0.880921	0.589866
	H50	H	0.596142	0.111499	0.412067
	H51	H	0.412204	0.877860	0.400520
	H52	H	0.589729	0.397438	0.115801
	H53	H	0.600970	0.581002	0.880994
	H54	H	0.401870	0.584950	0.114308
	H55	H	0.404011	0.400973	0.878994
	H56	H	0.119769	0.584125	0.390986
	H57	H	0.885876	0.596541	0.584191
	H58	H	0.119837	0.396755	0.596125
	H59	H	0.879701	0.398427	0.394713
	H60	H	0.115544	0.399022	0.583347
	H61	H	0.887556	0.581693	0.590806
	H62	H	0.119762	0.601389	0.406965
	H63	H	0.884284	0.396393	0.410806
	H64	H	0.411382	0.588566	0.113125
	H65	H	0.586240	0.584220	0.883926
	H66	H	0.601369	0.400987	0.118143
	H67	H	0.409094	0.406806	0.882328
	H68	H	0.598047	0.115485	0.401231
	H69	H	0.599691	0.879530	0.580325
	H70	H	0.406131	0.111554	0.588947
	H71	H	0.409296	0.879649	0.410183
	H72	H	0.913219	0.609369	0.086025
	H73	H	0.094747	0.376953	0.092031
	H74	H	0.102296	0.615284	0.904155
	H75	H	0.899617	0.375206	0.906321
	H76	H	0.091775	0.905614	0.612706
	H77	H	0.092703	0.082680	0.381359
	H78	H	0.906797	0.091292	0.614964
	H79	H	0.914881	0.909574	0.384243
	H80	H	0.618225	0.087545	0.899715
	H81	H	0.379968	0.099181	0.098967
	H82	H	0.617690	0.893663	0.086946
	H83	H	0.385991	0.906771	0.901311
	H84	H	0.613127	0.908486	0.087513
	H85	H	0.386118	0.092553	0.082780
	H86	H	0.617705	0.092753	0.907090
	H87	H	0.383466	0.896621	0.903048
	H88	H	0.905059	0.088596	0.614318
	H89	H	0.091207	0.093149	0.379277
	H90	H	0.093477	0.902252	0.613986
	H91	H	0.908946	0.892904	0.377213
	H92	H	0.087605	0.612080	0.898853
	H93	H	0.093705	0.378254	0.089780
	H94	H	0.899152	0.613739	0.086148
	H95	H	0.911436	0.376946	0.896348
	H96	H	0.403298	0.113108	0.593116
	H97	H	0.599241	0.874485	0.597036
	H98	H	0.587112	0.111742	0.403326
	H99	H	0.402347	0.876137	0.403575
	H100	H	0.593502	0.408873	0.112655
	H101	H	0.596246	0.595547	0.877516
	H102	H	0.403804	0.593983	0.117633
	H103	H	0.411581	0.399438	0.880214
	H104	H	0.111569	0.580061	0.412678
	H105	H	0.881262	0.593957	0.599921
	H106	H	0.115638	0.408254	0.592485
	H107	H	0.886113	0.411277	0.404051
	H108	H	0.906447	0.615319	0.098550
	H109	H	0.096461	0.376979	0.089218
	H110	H	0.091407	0.608815	0.913107
	H111	H	0.913193	0.382061	0.911020
	H112	H	0.095362	0.905652	0.613860
	H113	H	0.100984	0.088933	0.377372
	H114	H	0.908344	0.088382	0.613241
	H115	H	0.897522	0.907940	0.378375
	H116	H	0.614408	0.084307	0.907668
	H117	H	0.385321	0.081390	0.097024
	H118	H	0.619012	0.902015	0.099991
	H119	H	0.388107	0.902535	0.910691
	C120	C	0.378209	0.003414	0.619838
	C121	C	0.621881	0.987219	0.618437
	C122	C	0.622025	0.004086	0.376430
	C123	C	0.379770	0.986755	0.377014
	C124	C	0.622866	0.373341	0.006797
	C125	C	0.622186	0.616085	0.989518
	C126	C	0.378306	0.617667	0.006184
	C127	C	0.380083	0.374280	0.989263
	C128	C	0.009318	0.617304	0.375328
	C129	C	0.992802	0.618404	0.619752
	C130	C	0.008837	0.373752	0.619064
	C131	C	0.991429	0.373537	0.374980
	C132	C	0.878879	0.503977	0.118560
	C133	C	0.122067	0.486518	0.118584
	C134	C	0.122460	0.503870	0.875868
	C135	C	0.879872	0.486660	0.876632
	C136	C	0.122610	0.874649	0.505243
	C137	C	0.121660	0.116825	0.488675
	C138	C	0.878355	0.117500	0.505876
	C139	C	0.879334	0.875367	0.488438
	C140	C	0.509116	0.117066	0.876785
	C141	C	0.492213	0.117903	0.120456
	C142	C	0.508743	0.873703	0.119679
	C143	C	0.493176	0.873229	0.876024
	C144	C	0.382362	0.879281	0.673710
	C145	C	0.617684	0.111142	0.673359
	C146	C	0.619037	0.880360	0.321635
	C147	C	0.382673	0.110813	0.323011
	C148	C	0.678001	0.374658	0.883347
	C149	C	0.676639	0.614229	0.113112
	C150	C	0.324042	0.614703	0.882430
	C151	C	0.324602	0.376705	0.112322
	C152	C	0.886250	0.672255	0.379320
	C153	C	0.115690	0.672942	0.616280
	C154	C	0.885686	0.320422	0.615407
	C155	C	0.114613	0.319032	0.378693
	C156	C	0.885822	0.378097	0.673476
	C157	C	0.115712	0.614759	0.674279
	C158	C	0.885968	0.614398	0.321334
	C159	C	0.114490	0.376702	0.320728
	C160	C	0.383007	0.671108	0.882121
	C161	C	0.617779	0.670269	0.113789
	C162	C	0.619735	0.317984	0.883212
	C163	C	0.383557	0.321169	0.113484
	C164	C	0.677451	0.880655	0.378206
	C165	C	0.676373	0.110832	0.617245
	C166	C	0.323656	0.879675	0.616945
	C167	C	0.324759	0.110869	0.379983
	C168	C	0.882393	0.380017	0.173065
	C169	C	0.118005	0.610612	0.172899
	C170	C	0.119943	0.380099	0.820270
	C171	C	0.882052	0.610867	0.822467
	C172	C	0.178150	0.875707	0.382077
	C173	C	0.175800	0.114795	0.612157
	C174	C	0.823301	0.115194	0.382394
	C175	C	0.825093	0.878018	0.612480
	C176	C	0.386069	0.172022	0.880066
	C177	C	0.615479	0.171314	0.117067
	C178	C	0.385625	0.819385	0.116747
	C179	C	0.616221	0.817906	0.878546
	C180	C	0.385624	0.877489	0.174469
	C181	C	0.615110	0.113517	0.174820
	C182	C	0.386405	0.114549	0.821679
	C183	C	0.615857	0.875216	0.819767
	C184	C	0.882241	0.170926	0.381455
	C185	C	0.116977	0.171199	0.612654
	C186	C	0.119685	0.819610	0.381696
	C187	C	0.883299	0.821296	0.612498
	C188	C	0.177890	0.380409	0.877300
	C189	C	0.176215	0.610305	0.115961
	C190	C	0.824415	0.380240	0.116226
	C191	C	0.823344	0.609847	0.878576
	C192	C	0.399525	0.089833	0.598197
	C193	C	0.600789	0.900640	0.595903
	C194	C	0.600120	0.090751	0.398908
	C195	C	0.401505	0.900278	0.398547
	C196	C	0.601213	0.395806	0.093359
	C197	C	0.600747	0.593750	0.903059
	C198	C	0.399375	0.595679	0.092795
	C199	C	0.401829	0.396007	0.902856
	C200	C	0.094992	0.595103	0.396882
	C201	C	0.907083	0.596955	0.598058
	C202	C	0.094880	0.395107	0.597234
	C203	C	0.905426	0.395603	0.396821
	C204	C	0.900131	0.590364	0.096705
	C205	C	0.101156	0.399744	0.096773
	C206	C	0.100250	0.589828	0.898676
	C207	C	0.901727	0.400355	0.898117
	C208	C	0.100129	0.897674	0.591435
	C209	C	0.101123	0.094865	0.401775
	C210	C	0.900249	0.095768	0.591842
	C211	C	0.900759	0.897100	0.402172
	C212	C	0.594690	0.094761	0.898537
	C213	C	0.405824	0.097162	0.099154
	C214	C	0.594500	0.894996	0.097926
	C215	C	0.408047	0.895422	0.898459
	Zn216	Zn	0.501155	-0.004900	0.747138
	Zn217	Zn	0.500408	-0.004409	0.248501
	Zn218	Zn	0.750498	0.495116	-0.002531
	Zn219	Zn	0.250923	0.494823	-0.002793
	Zn220	Zn	0.001203	0.747063	0.496639
	Zn221	Zn	-0.000040	0.244993	0.496915
	Zn222	Zn	0.000640	0.495635	0.748190
	Zn223	Zn	0.000278	0.495559	0.246431
	Zn224	Zn	0.501070	0.744546	-0.001866
	Zn225	Zn	0.500766	0.246125	-0.001498
	Zn226	Zn	0.750348	-0.003971	0.497673
	Zn227	Zn	0.250688	-0.004757	0.497170
	N228	N	0.415234	0.957175	0.675716
	N229	N	0.584570	0.033176	0.674216
	N230	N	0.585308	0.958199	0.320637
	N231	N	0.416113	0.032895	0.321166
	N232	N	0.679954	0.408370	0.961282
	N233	N	0.679286	0.581188	0.035042
	N234	N	0.320805	0.582441	0.960839
	N235	N	0.322266	0.409097	0.034051
	N236	N	0.963835	0.674232	0.412051
	N237	N	0.038262	0.675368	0.583145
	N238	N	0.963082	0.317713	0.582334
	N239	N	0.036992	0.316870	0.411530
	N240	N	0.963588	0.410651	0.675651
	N241	N	0.038392	0.581764	0.676713
	N242	N	0.963392	0.580905	0.319023
	N243	N	0.036958	0.409855	0.318422
	N244	N	0.415735	0.673058	0.960100
	N245	N	0.584643	0.671566	0.035814
	N246	N	0.586117	0.317288	0.960949
	N247	N	0.417532	0.319722	0.035826
	N248	N	0.679369	0.958843	0.411583
	N249	N	0.679006	0.032754	0.583875
	N250	N	0.320595	0.957961	0.584385
	N251	N	0.322779	0.032624	0.412796
	N252	N	0.915478	0.457871	0.174571
	N253	N	0.085234	0.532566	0.174627
	N254	N	0.086161	0.457929	0.819237
	N255	N	0.916554	0.533394	0.821162
	N256	N	0.180065	0.909041	0.460114
	N257	N	0.178679	0.081609	0.534117
	N258	N	0.820729	0.082586	0.460549
	N259	N	0.822560	0.910955	0.534479
	N260	N	0.463269	0.173463	0.913741
	N261	N	0.537997	0.174089	0.084112
	N262	N	0.463113	0.816976	0.083381
	N263	N	0.539181	0.816531	0.912791
	N264	N	0.463054	0.910448	0.176284
	N265	N	0.537390	0.081123	0.176932
	N266	N	0.463710	0.080771	0.819727
	N267	N	0.538605	0.909070	0.818084
	N268	N	0.915773	0.172614	0.459209
	N269	N	0.084130	0.172556	0.534613
	N270	N	0.085703	0.819236	0.459312
	N271	N	0.916449	0.819369	0.534558
	N272	N	0.179580	0.458165	0.911278
	N273	N	0.178939	0.532027	0.083053
	N274	N	0.821753	0.458450	0.083398
	N275	N	0.821843	0.531813	0.911707
	O276	O	1.088121	-0.106782	0.847273
	H277	H	1.088278	-0.119072	0.835020
	H278	H	1.103894	-0.089542	0.838608
	O279	O	0.116130	0.919614	0.907073
	H280	H	0.114167	0.911043	0.904152
	H281	H	0.110394	0.912842	0.918338
	O282	O	1.103953	0.936221	-0.113610
	H283	H	1.109661	0.933072	-0.120032
	H284	H	1.102058	0.932069	-0.124177
	O285	O	0.103387	0.880989	0.870373
	H286	H	0.107924	0.892859	0.870530
	H287	H	0.102589	0.871294	0.879818
