data_Molecule from HDF5

_cell_length_a		16.466509
_cell_length_b		16.415095
_cell_length_c		16.411815
_cell_angle_alpha	90.028687
_cell_angle_beta	90.054699
_cell_angle_gamma	89.952372
_symmetry_space_group_name_H-M	'P 1'
_symmetry_Int_Tables_number		1

loop_
	_symmetry_equiv_pos_as_xyz
	x,y,z

loop_
	_atom_site_label
	_atom_site_type_symbol
	_atom_site_fract_x
	_atom_site_fract_y
	_atom_site_fract_z
	H0	H	0.385567	0.848007	0.743929
	H1	H	0.605101	0.160869	0.744284
	H2	H	0.603369	0.847292	0.295927
	H3	H	0.388470	0.162986	0.295587
	H4	H	0.718413	0.397248	0.859943
	H5	H	0.722235	0.614682	0.174526
	H6	H	0.270250	0.617922	0.862365
	H7	H	0.270504	0.397481	0.173893
	H8	H	0.840118	0.730892	0.408362
	H9	H	0.151819	0.731128	0.628584
	H10	H	0.837729	0.283957	0.623553
	H11	H	0.153428	0.281848	0.411043
	H12	H	0.838459	0.397972	0.741399
	H13	H	0.151748	0.614009	0.743691
	H14	H	0.839860	0.614826	0.292559
	H15	H	0.153376	0.397215	0.294845
	H16	H	0.386719	0.731765	0.862604
	H17	H	0.604100	0.727636	0.177335
	H18	H	0.602314	0.281651	0.861263
	H19	H	0.386078	0.281936	0.174822
	H20	H	0.719653	0.847872	0.411453
	H21	H	0.719530	0.162355	0.628313
	H22	H	0.267826	0.850337	0.629576
	H23	H	0.268974	0.161317	0.406919
	H24	H	0.889214	0.347678	0.239295
	H25	H	0.105698	0.662579	0.243430
	H26	H	0.102621	0.348354	0.795846
	H27	H	0.886820	0.662117	0.792648
	H28	H	0.221554	0.896014	0.362081
	H29	H	0.223367	0.117769	0.674337
	H30	H	0.771578	0.114104	0.362143
	H31	H	0.772626	0.896439	0.675753
	H32	H	0.339668	0.229992	0.909357
	H33	H	0.650281	0.233452	0.129739
	H34	H	0.338296	0.782874	0.126605
	H35	H	0.653337	0.781504	0.912882
	H36	H	0.338627	0.899238	0.242836
	H37	H	0.652545	0.114857	0.242611
	H38	H	0.339295	0.111560	0.795244
	H39	H	0.651866	0.892054	0.792117
	H40	H	0.891379	0.226387	0.359817
	H41	H	0.104261	0.230115	0.676050
	H42	H	0.106863	0.779093	0.362627
	H43	H	0.887352	0.780704	0.674601
	H44	H	0.223186	0.351378	0.906258
	H45	H	0.219572	0.663580	0.126144
	H46	H	0.773058	0.349298	0.124132
	H47	H	0.769042	0.662160	0.906373
	H48	H	0.412989	0.113717	0.600354
	H49	H	0.587770	0.893644	0.599727
	H50	H	0.581311	0.116898	0.432322
	H51	H	0.411257	0.895916	0.435470
	H52	H	0.581890	0.418260	0.130047
	H53	H	0.580790	0.595220	0.906330
	H54	H	0.400982	0.594241	0.134382
	H55	H	0.411352	0.410806	0.903578
	H56	H	0.109003	0.592801	0.428886
	H57	H	0.883535	0.592946	0.604375
	H58	H	0.111906	0.410121	0.610420
	H59	H	0.882654	0.416739	0.426800
	H60	H	0.104412	0.417760	0.598015
	H61	H	0.884327	0.592514	0.603141
	H62	H	0.107952	0.593925	0.432396
	H63	H	0.882996	0.415966	0.430352
	H64	H	0.409420	0.586075	0.128314
	H65	H	0.584040	0.593627	0.906011
	H66	H	0.585256	0.419282	0.130609
	H67	H	0.401335	0.422141	0.904017
	H68	H	0.587658	0.118579	0.434106
	H69	H	0.587792	0.889490	0.610088
	H70	H	0.404569	0.119170	0.605514
	H71	H	0.405736	0.893324	0.434093
	H72	H	0.912551	0.615858	0.101619
	H73	H	0.084097	0.392740	0.108641
	H74	H	0.082235	0.616543	0.934102
	H75	H	0.904858	0.393727	0.933132
	H76	H	0.088208	0.920849	0.631867
	H77	H	0.085407	0.089726	0.406686
	H78	H	0.905468	0.088489	0.630458
	H79	H	0.903743	0.924630	0.405850
	H80	H	0.608594	0.095656	0.931743
	H81	H	0.386891	0.086299	0.105227
	H82	H	0.613095	0.909987	0.112648
	H83	H	0.383118	0.913108	0.930577
	H84	H	0.605148	0.914716	0.098329
	H85	H	0.380383	0.094333	0.114026
	H86	H	0.606431	0.091229	0.937143
	H87	H	0.387000	0.920504	0.935460
	H88	H	0.914821	0.094810	0.630184
	H89	H	0.079845	0.092487	0.408196
	H90	H	0.078775	0.925744	0.627144
	H91	H	0.915524	0.920221	0.409101
	H92	H	0.084731	0.619817	0.930320
	H93	H	0.080444	0.395414	0.103248
	H94	H	0.905538	0.618847	0.103672
	H95	H	0.906186	0.391300	0.926934
	H96	H	0.414070	0.116829	0.611125
	H97	H	0.578874	0.893795	0.606323
	H98	H	0.585371	0.119718	0.427801
	H99	H	0.410501	0.892846	0.429463
	H100	H	0.582628	0.421944	0.129912
	H101	H	0.581544	0.591631	0.907116
	H102	H	0.413433	0.598830	0.131271
	H103	H	0.415032	0.424071	0.909611
	H104	H	0.107026	0.590288	0.431164
	H105	H	0.884775	0.591461	0.603925
	H106	H	0.107740	0.425746	0.612029
	H107	H	0.884147	0.418410	0.428682
	H108	H	0.911754	0.618789	0.108440
	H109	H	0.087311	0.393054	0.102164
	H110	H	0.079259	0.617648	0.929637
	H111	H	0.910497	0.394726	0.930146
	H112	H	0.078275	0.914228	0.630583
	H113	H	0.084323	0.095854	0.405165
	H114	H	0.905216	0.098716	0.634538
	H115	H	0.906947	0.912406	0.403063
	H116	H	0.607506	0.088052	0.930464
	H117	H	0.382411	0.098753	0.101613
	H118	H	0.606986	0.925703	0.111380
	H119	H	0.383915	0.921832	0.926623
	C120	C	0.374873	0.013540	0.640029
	C121	C	0.618306	0.996090	0.640314
	C122	C	0.617878	0.014091	0.397673
	C123	C	0.374729	0.997492	0.398082
	C124	C	0.616616	0.385022	0.026368
	C125	C	0.617388	0.627550	1.010194
	C126	C	0.374327	0.627895	0.027562
	C127	C	0.374590	0.385003	1.008977
	C128	C	0.005038	0.627387	0.395754
	C129	C	0.987591	0.626672	0.638816
	C130	C	0.004232	0.384124	0.639723
	C131	C	0.987777	0.383949	0.396332
	C132	C	0.876132	0.514021	0.137860
	C133	C	0.117986	0.497618	0.139092
	C134	C	0.116883	0.514971	0.896563
	C135	C	0.873394	0.497125	0.896045
	C136	C	0.117331	0.884761	0.526778
	C137	C	0.118106	0.127796	0.509882
	C138	C	0.875349	0.126935	0.527388
	C139	C	0.874631	0.884463	0.509571
	C140	C	0.504305	0.125657	0.898401
	C141	C	0.486552	0.127874	0.140963
	C142	C	0.504379	0.883940	0.140871
	C143	C	0.487398	0.883301	0.896943
	C144	C	0.369158	0.895401	0.702620
	C145	C	0.622404	0.113705	0.703551
	C146	C	0.621234	0.895288	0.336226
	C147	C	0.370463	0.115438	0.335639
	C148	C	0.678057	0.380270	0.907795
	C149	C	0.680806	0.632046	0.127704
	C150	C	0.311452	0.634003	0.909446
	C151	C	0.311472	0.380191	0.126704
	C152	C	0.887294	0.690014	0.391106
	C153	C	0.105006	0.689636	0.644705
	C154	C	0.885443	0.323391	0.642328
	C155	C	0.106084	0.322476	0.393338
	C156	C	0.885741	0.380289	0.700985
	C157	C	0.104848	0.631313	0.702344
	C158	C	0.887270	0.632232	0.333256
	C159	C	0.106454	0.380379	0.335705
	C160	C	0.369419	0.691146	0.909814
	C161	C	0.621624	0.688303	0.129153
	C162	C	0.620256	0.322365	0.908294
	C163	C	0.369330	0.322691	0.127222
	C164	C	0.679413	0.895374	0.393704
	C165	C	0.679531	0.114410	0.645501
	C166	C	0.310024	0.896776	0.646024
	C167	C	0.310856	0.114557	0.391334
	C168	C	0.872130	0.395304	0.199073
	C169	C	0.122477	0.615322	0.202256
	C170	C	0.120904	0.396284	0.835345
	C171	C	0.868996	0.615007	0.833251
	C172	C	0.180515	0.879369	0.409163
	C173	C	0.181550	0.133831	0.627510
	C174	C	0.813038	0.131019	0.408997
	C175	C	0.812763	0.879624	0.627922
	C176	C	0.386580	0.188265	0.892824
	C177	C	0.603657	0.191632	0.146128
	C178	C	0.385695	0.822938	0.144408
	C179	C	0.605955	0.821268	0.893875
	C180	C	0.385824	0.880904	0.202337
	C181	C	0.604921	0.132573	0.202652
	C182	C	0.386540	0.129351	0.835836
	C183	C	0.605058	0.876584	0.833828
	C184	C	0.872482	0.186854	0.407744
	C185	C	0.121948	0.189722	0.628327
	C186	C	0.123583	0.820581	0.409550
	C187	C	0.870427	0.822038	0.627671
	C188	C	0.180962	0.397926	0.890450
	C189	C	0.179444	0.615961	0.143542
	C190	C	0.814178	0.396014	0.141659
	C191	C	0.810564	0.615104	0.890166
	C192	C	0.402493	0.095270	0.613217
	C193	C	0.592212	0.913911	0.613105
	C194	C	0.592138	0.096808	0.423909
	C195	C	0.401557	0.915427	0.425329
	C196	C	0.590644	0.411977	0.108657
	C197	C	0.590039	0.600956	0.927914
	C198	C	0.400489	0.600777	0.109777
	C199	C	0.401442	0.411479	0.927102
	C200	C	0.086710	0.600306	0.422916
	C201	C	0.905642	0.599958	0.611687
	C202	C	0.086593	0.410407	0.614165
	C203	C	0.905117	0.409814	0.421368
	C204	C	0.902509	0.596390	0.111783
	C205	C	0.091613	0.415394	0.112242
	C206	C	0.089617	0.596696	0.923591
	C207	C	0.899677	0.414825	0.922483
	C208	C	0.089724	0.912374	0.608433
	C209	C	0.091221	0.100455	0.428115
	C210	C	0.901056	0.101251	0.610138
	C211	C	0.901099	0.911383	0.427319
	C212	C	0.586106	0.099336	0.925577
	C213	C	0.404542	0.100717	0.114537
	C214	C	0.586655	0.909491	0.115075
	C215	C	0.405975	0.910509	0.923271
	Zn216	Zn	0.496890	0.004474	0.768418
	Zn217	Zn	0.495991	0.006106	0.269303
	Zn218	Zn	0.745925	0.506160	0.017796
	Zn219	Zn	0.246410	0.506643	0.017196
	Zn220	Zn	-0.004022	0.756162	0.518039
	Zn221	Zn	-0.004461	0.255684	0.518185
	Zn222	Zn	-0.004811	0.505486	0.768207
	Zn223	Zn	-0.003847	0.504903	0.267687
	Zn224	Zn	0.495907	0.755801	0.019215
	Zn225	Zn	0.495045	0.255935	0.018821
	Zn226	Zn	0.746621	0.005934	0.519176
	Zn227	Zn	0.245914	0.005969	0.518566
	N228	N	0.409035	0.968831	0.698801
	N229	N	0.585055	0.038926	0.700361
	N230	N	0.584008	0.970261	0.338282
	N231	N	0.409656	0.041547	0.339742
	N232	N	0.676016	0.418476	0.982426
	N233	N	0.678427	0.595289	0.052543
	N234	N	0.314291	0.595377	0.983733
	N235	N	0.314534	0.418375	0.052247
	N236	N	0.961685	0.687426	0.429110
	N237	N	0.030935	0.686799	0.605997
	N238	N	0.960195	0.325516	0.605111
	N239	N	0.031328	0.324656	0.430314
	N240	N	0.960588	0.417181	0.699649
	N241	N	0.030765	0.593002	0.698804
	N242	N	0.961700	0.594360	0.335705
	N243	N	0.031897	0.418022	0.337447
	N244	N	0.407721	0.687434	0.984184
	N245	N	0.582753	0.685490	0.054942
	N246	N	0.582938	0.325117	0.983055
	N247	N	0.407651	0.325481	0.052977
	N248	N	0.677729	0.970399	0.430865
	N249	N	0.677070	0.040082	0.606918
	N250	N	0.313442	0.971230	0.607764
	N251	N	0.313653	0.040264	0.429623
	N252	N	0.910258	0.469748	0.196670
	N253	N	0.084852	0.540653	0.199603
	N254	N	0.081671	0.470052	0.839021
	N255	N	0.907368	0.540745	0.836830
	N256	N	0.176727	0.918544	0.483079
	N257	N	0.179399	0.096161	0.552712
	N258	N	0.814885	0.094207	0.484207
	N259	N	0.815326	0.917803	0.553354
	N260	N	0.460764	0.185901	0.931143
	N261	N	0.529020	0.188900	0.108609
	N262	N	0.460411	0.824604	0.107133
	N263	N	0.531805	0.825003	0.932166
	N264	N	0.460619	0.917831	0.200545
	N265	N	0.531155	0.093536	0.199502
	N266	N	0.460873	0.091185	0.838908
	N267	N	0.530436	0.914387	0.835392
	N268	N	0.910348	0.184435	0.482352
	N269	N	0.083389	0.186247	0.554081
	N270	N	0.085191	0.823806	0.483854
	N271	N	0.908177	0.824875	0.553067
	N272	N	0.178752	0.472770	0.927949
	N273	N	0.176706	0.541718	0.105003
	N274	N	0.816325	0.470902	0.104566
	N275	N	0.813180	0.540784	0.928437
	O276	O	-0.157144	-0.177546	0.196278
	H277	H	-0.119793	-0.196030	0.212656
	H278	H	-0.158313	-0.178234	0.153397
	O279	O	0.964096	-0.206490	1.181872
	H280	H	0.977671	-0.223031	1.162244
	H281	H	0.971931	-0.225030	1.183083
	O282	O	0.916843	0.793699	0.958747
	H283	H	0.942879	0.797922	0.944520
	H284	H	0.924552	0.800572	0.940683
	O285	O	0.707721	0.543473	0.728671
	H286	H	0.698732	0.576863	0.730049
	H287	H	0.729214	0.563705	0.744590
	O288	O	0.986949	1.188171	-0.196033
	H289	H	0.975555	1.180579	-0.176613
	H290	H	0.985244	1.221778	-0.217237
	O291	O	0.465235	0.556742	0.691549
	H292	H	0.485073	0.559944	0.686765
	H293	H	0.474051	0.556657	0.690298
	O294	O	0.203419	-0.167240	1.022994
	H295	H	0.202243	-0.144708	1.037118
	H296	H	0.230231	-0.188219	1.015846
	O297	O	0.604278	0.462327	0.527119
	H298	H	0.626735	0.448785	0.519814
	H299	H	0.603606	0.466475	0.539933
	O300	O	0.451885	0.290080	0.475336
	H301	H	0.463972	0.280608	0.481433
	H302	H	0.458625	0.298765	0.451999
	O303	O	0.586416	0.448826	0.719329
	H304	H	0.604863	0.451165	0.715511
	H305	H	0.606904	0.448266	0.719388
	O306	O	0.802592	0.799660	0.060074
	H307	H	0.792280	0.764481	0.063432
	H308	H	0.832294	0.795938	0.031894
	O309	O	0.272649	0.564562	0.568790
	H310	H	0.270627	0.537385	0.585483
	H311	H	0.267881	0.543172	0.566187
	O312	O	-0.221219	1.002456	0.884490
	H313	H	-0.202253	0.985297	0.892750
	H314	H	-0.240002	1.000841	0.877158
	O315	O	0.286034	0.717745	0.500965
	H316	H	0.260307	0.739046	0.505858
	H317	H	0.274407	0.685172	0.522754
	O318	O	0.783336	0.213821	-0.014224
	H319	H	0.776438	0.204153	-0.015097
	H320	H	0.764925	0.227682	-0.022992
	O321	O	0.057190	0.084581	-0.154505
	H322	H	0.045443	0.085407	-0.144911
	H323	H	0.036631	0.101399	-0.138098
	O324	O	1.205262	0.216659	0.005820
	H325	H	1.191393	0.221691	0.003833
	H326	H	1.217673	0.227813	-0.000401
	O327	O	0.516754	0.719229	0.732159
	H328	H	0.513554	0.748222	0.743558
	H329	H	0.499795	0.728020	0.716667
	O330	O	0.706627	1.707853	-0.462779
	H331	H	0.721294	1.727729	-0.476481
	H332	H	0.699031	1.701592	-0.487098
	O333	O	0.473815	0.489445	0.517728
	H334	H	0.484051	0.461987	0.534739
	H335	H	0.463071	0.487756	0.531294
	O336	O	0.095968	0.031070	0.210138
	H337	H	0.078465	0.026697	0.226066
	H338	H	0.093047	0.030441	0.210508
	O339	O	-0.121186	1.022807	1.030355
	H340	H	-0.118403	1.011321	1.013101
	H341	H	-0.132505	1.019468	1.055983
	O342	O	-0.217358	0.986564	1.012111
	H343	H	-0.222329	1.004113	0.993168
	H344	H	-0.213499	0.964836	1.026907
	O345	O	0.316819	0.328129	-0.296603
	H346	H	0.317941	0.354345	-0.288767
	H347	H	0.300737	0.314848	-0.337089
	O348	O	0.448167	0.460538	0.297629
	H349	H	0.441400	0.480917	0.303255
	H350	H	0.457098	0.484522	0.297842
	O351	O	0.282370	1.292557	0.541118
	H352	H	0.291210	1.275231	0.531418
	H353	H	0.279039	1.274592	0.530975
	O354	O	0.173022	0.838499	-0.162886
	H355	H	0.180914	0.831128	-0.115554
	H356	H	0.176290	0.876466	-0.173299
	O357	O	0.081288	-0.208669	1.066951
	H358	H	0.092066	-0.194721	1.062774
	H359	H	0.071288	-0.211050	1.048532
	O360	O	0.472694	0.344906	0.726417
	H361	H	0.446447	0.370848	0.724423
	H362	H	0.484197	0.325172	0.752860
	O363	O	-0.419965	0.388945	0.506083
	H364	H	-0.421888	0.396805	0.494824
	H365	H	-0.406806	0.371475	0.511044
	O366	O	0.037638	0.179411	1.040929
	H367	H	0.023720	0.174583	1.051223
	H368	H	0.030050	0.184832	1.036296
	O369	O	0.706064	0.489093	0.309671
	H370	H	0.698718	0.481838	0.291907
	H371	H	0.716596	0.472887	0.318061
	O372	O	0.773995	-0.015463	1.240017
	H373	H	0.787425	-0.064672	1.226105
	H374	H	0.735725	-0.020581	1.277499
	O375	O	0.303101	0.417165	0.422271
	H376	H	0.301186	0.414014	0.410816
	H377	H	0.313457	0.411542	0.414778
	O378	O	0.713131	0.399790	0.505555
	H379	H	0.709783	0.388377	0.533633
	H380	H	0.709574	0.386902	0.521423
	O381	O	1.156463	0.047641	-0.008898
	H382	H	1.165259	0.052811	-0.028381
	H383	H	1.150162	0.055527	0.003929
	O384	O	0.312829	0.683918	0.337295
	H385	H	0.327978	0.679126	0.350549
	H386	H	0.304907	0.677176	0.368022
	O387	O	0.545033	-0.398042	0.344173
	H388	H	0.544397	-0.383846	0.331040
	H389	H	0.528281	-0.390005	0.376861
	O390	O	-0.340590	-0.348274	-0.295562
	H391	H	-0.390228	-0.332738	-0.290192
	H392	H	-0.325148	-0.337148	-0.343226
	O393	O	1.012881	1.215225	1.220752
	H394	H	1.027991	1.213450	1.217500
	H395	H	1.029125	1.230368	1.238032
	O396	O	1.281038	0.490790	0.730793
	H397	H	1.267869	0.477833	0.756897
	H398	H	1.305692	0.500809	0.743893
	O399	O	1.114746	-0.054691	1.208267
	H400	H	1.100181	-0.036893	1.219753
	H401	H	1.088696	-0.079234	1.223473
	O402	O	1.191320	0.993401	0.806282
	H403	H	1.195526	0.995890	0.781017
	H404	H	1.174889	1.004486	0.808454
	O405	O	1.174520	1.185214	0.197729
	H406	H	1.177978	1.147960	0.206085
	H407	H	1.180889	1.185155	0.163267
	O408	O	1.011682	-0.015841	0.225728
	H409	H	0.994898	-0.014830	0.219558
	H410	H	0.987237	-0.009655	0.228642
	O411	O	0.841972	1.186270	-0.161155
	H412	H	0.854413	1.165286	-0.168589
	H413	H	0.835032	1.178410	-0.142509
	O414	O	0.605980	0.601187	0.482509
	H415	H	0.598500	0.582990	0.494833
	H416	H	0.601878	0.586953	0.452351
	O417	O	0.527407	0.304045	0.343984
	H418	H	0.513340	0.308603	0.317431
	H419	H	0.511419	0.314695	0.342448
	O420	O	0.561209	0.681549	0.472362
	H421	H	0.568237	0.672369	0.456679
	H422	H	0.549921	0.680077	0.475673
	O423	O	0.543544	0.295219	0.571461
	H424	H	0.534938	0.302009	0.577586
	H425	H	0.538558	0.301378	0.579151
	O426	O	0.472469	0.724198	0.301316
	H427	H	0.468262	0.730038	0.301869
	H428	H	0.452061	0.740443	0.282311
	O429	O	0.291457	0.522977	0.307338
	H430	H	0.314569	0.538254	0.319661
	H431	H	0.259130	0.520539	0.290658
	O432	O	0.436072	0.679461	0.593970
	H433	H	0.433246	0.674828	0.588522
	H434	H	0.417261	0.661886	0.590147
	O435	O	-0.014808	0.978290	-0.060747
	H436	H	-0.012628	0.990578	-0.054995
	H437	H	-0.028536	0.985918	-0.036977
	O438	O	0.213973	-0.027008	0.042237
	H439	H	0.219355	-0.013191	0.050177
	H440	H	0.215097	-0.007254	0.036401
	O441	O	0.874964	0.173360	0.132578
	H442	H	0.875502	0.176200	0.120412
	H443	H	0.865690	0.169587	0.142580
	O444	O	-0.129544	0.979355	0.805775
	H445	H	-0.124694	0.977655	0.827676
	H446	H	-0.134743	0.966716	0.799177
	O447	O	0.683421	0.325464	0.335648
	H448	H	0.692713	0.332959	0.361303
	H449	H	0.637408	0.315269	0.327014
	O450	O	0.991541	0.186302	0.019612
	H451	H	0.976362	0.189433	0.041181
	H452	H	0.976540	0.174295	0.028074
	O453	O	0.024804	-0.207076	0.808034
	H454	H	0.035778	-0.214528	0.792389
	H455	H	0.053347	-0.199703	0.800136
