data_Molecule from HDF5

_cell_length_a		16.716231
_cell_length_b		16.617331
_cell_length_c		16.577434
_cell_angle_alpha	90.072213
_cell_angle_beta	90.010011
_cell_angle_gamma	89.851539
_symmetry_space_group_name_H-M	'P 1'
_symmetry_Int_Tables_number		1

loop_
	_symmetry_equiv_pos_as_xyz
	x,y,z

loop_
	_atom_site_label
	_atom_site_type_symbol
	_atom_site_fract_x
	_atom_site_fract_y
	_atom_site_fract_z
	H0	H	0.400365	0.834050	0.707574
	H1	H	0.610993	0.144810	0.709407
	H2	H	0.609030	0.836014	0.265300
	H3	H	0.397833	0.145006	0.264716
	H4	H	0.726402	0.382570	0.830894
	H5	H	0.727617	0.595777	0.140760
	H6	H	0.282594	0.596846	0.831501
	H7	H	0.278662	0.381176	0.139134
	H8	H	0.848924	0.711491	0.380516
	H9	H	0.158623	0.710965	0.590242
	H10	H	0.848762	0.272056	0.587646
	H11	H	0.158223	0.265577	0.377939
	H12	H	0.848457	0.388909	0.703306
	H13	H	0.159741	0.593775	0.705491
	H14	H	0.848087	0.593275	0.265837
	H15	H	0.156721	0.380182	0.259930
	H16	H	0.399137	0.711848	0.831465
	H17	H	0.609174	0.710014	0.142830
	H18	H	0.609734	0.268147	0.830329
	H19	H	0.396969	0.267422	0.140191
	H20	H	0.727559	0.835984	0.378334
	H21	H	0.728473	0.143442	0.595874
	H22	H	0.282159	0.835399	0.593652
	H23	H	0.281360	0.144812	0.381601
	H24	H	0.897736	0.334255	0.206998
	H25	H	0.109499	0.644728	0.208960
	H26	H	0.109082	0.334195	0.765509
	H27	H	0.902268	0.646614	0.766953
	H28	H	0.226501	0.884425	0.331445
	H29	H	0.224703	0.094823	0.642944
	H30	H	0.784215	0.093306	0.330669
	H31	H	0.782498	0.883335	0.641048
	H32	H	0.349527	0.213924	0.879105
	H33	H	0.657450	0.212952	0.092150
	H34	H	0.352556	0.765512	0.096225
	H35	H	0.659364	0.770043	0.883552
	H36	H	0.351066	0.884159	0.210161
	H37	H	0.657858	0.096542	0.209124
	H38	H	0.349185	0.095999	0.764611
	H39	H	0.659110	0.886696	0.767095
	H40	H	0.901228	0.207697	0.329738
	H41	H	0.106279	0.208266	0.644321
	H42	H	0.110071	0.769377	0.330753
	H43	H	0.900167	0.769369	0.642034
	H44	H	0.227118	0.336723	0.878999
	H45	H	0.227523	0.643805	0.095311
	H46	H	0.781094	0.335442	0.092433
	H47	H	0.782738	0.644856	0.879667
	H48	H	0.411550	0.101502	0.573805
	H49	H	0.594710	0.879068	0.573202
	H50	H	0.595680	0.102327	0.398357
	H51	H	0.412792	0.878506	0.399226
	H52	H	0.600959	0.404949	0.099342
	H53	H	0.587121	0.579752	0.876700
	H54	H	0.417114	0.580779	0.098558
	H55	H	0.417624	0.404694	0.876151
	H56	H	0.115328	0.582145	0.396614
	H57	H	0.893602	0.579943	0.577297
	H58	H	0.118539	0.399746	0.581614
	H59	H	0.893308	0.397782	0.396364
	H60	H	0.117693	0.393156	0.573311
	H61	H	0.891516	0.582565	0.574802
	H62	H	0.112164	0.576169	0.400981
	H63	H	0.894603	0.398998	0.397571
	H64	H	0.413045	0.578077	0.098929
	H65	H	0.595771	0.585515	0.870473
	H66	H	0.587798	0.406764	0.094306
	H67	H	0.416763	0.401650	0.874862
	H68	H	0.591874	0.102065	0.398198
	H69	H	0.593912	0.878101	0.576097
	H70	H	0.415634	0.102331	0.578971
	H71	H	0.418162	0.878252	0.396167
	H72	H	0.906061	0.603237	0.072723
	H73	H	0.092422	0.378701	0.073324
	H74	H	0.092599	0.602308	0.894802
	H75	H	0.914373	0.376761	0.891571
	H76	H	0.092639	0.897323	0.599372
	H77	H	0.088776	0.079238	0.376895
	H78	H	0.912484	0.075323	0.598177
	H79	H	0.919281	0.901727	0.375664
	H80	H	0.612337	0.079228	0.903748
	H81	H	0.392329	0.081925	0.074844
	H82	H	0.614650	0.901092	0.073380
	H83	H	0.393364	0.902752	0.898154
	H84	H	0.614937	0.903653	0.076503
	H85	H	0.395144	0.077914	0.072854
	H86	H	0.614245	0.074412	0.894613
	H87	H	0.392149	0.900965	0.896448
	H88	H	0.918751	0.080908	0.597074
	H89	H	0.096460	0.082815	0.371759
	H90	H	0.097267	0.903123	0.598397
	H91	H	0.914066	0.898867	0.372672
	H92	H	0.093744	0.602950	0.897444
	H93	H	0.088115	0.381181	0.070654
	H94	H	0.919406	0.602723	0.082274
	H95	H	0.917007	0.378883	0.896101
	H96	H	0.417944	0.100112	0.573311
	H97	H	0.591396	0.879689	0.574616
	H98	H	0.593720	0.101399	0.401445
	H99	H	0.417625	0.880804	0.401980
	H100	H	0.592521	0.394052	0.098740
	H101	H	0.597609	0.573903	0.874924
	H102	H	0.417059	0.575785	0.097159
	H103	H	0.414721	0.404722	0.874769
	H104	H	0.114494	0.574841	0.393690
	H105	H	0.893922	0.579456	0.573465
	H106	H	0.114540	0.402875	0.572237
	H107	H	0.893290	0.400082	0.395747
	H108	H	0.920254	0.596097	0.066442
	H109	H	0.092893	0.380867	0.068087
	H110	H	0.094454	0.603736	0.895139
	H111	H	0.911018	0.376903	0.896995
	H112	H	0.089767	0.903947	0.596936
	H113	H	0.096686	0.073585	0.375521
	H114	H	0.911740	0.083345	0.601335
	H115	H	0.913392	0.904869	0.374997
	H116	H	0.617193	0.083958	0.896306
	H117	H	0.392679	0.077365	0.077135
	H118	H	0.616852	0.899862	0.077090
	H119	H	0.392892	0.899702	0.898723
	C120	C	0.383281	-0.001705	0.607990
	C121	C	0.626129	0.981065	0.608255
	C122	C	0.625931	-0.000867	0.365995
	C123	C	0.383071	0.981477	0.365937
	C124	C	0.625552	0.369119	-0.005471
	C125	C	0.625634	0.611204	0.977507
	C126	C	0.383495	0.611191	-0.004556
	C127	C	0.383269	0.370148	0.977519
	C128	C	0.011770	0.610413	0.364581
	C129	C	0.995694	0.611958	0.607034
	C130	C	0.013426	0.368503	0.606668
	C131	C	0.995445	0.366511	0.363423
	C132	C	0.883149	0.497882	0.106209
	C133	C	0.124559	0.481941	0.106192
	C134	C	0.125842	0.499748	0.864032
	C135	C	0.882839	0.480986	0.863576
	C136	C	0.125578	0.869131	0.495128
	C137	C	0.124918	0.110213	0.478687
	C138	C	0.883038	0.110848	0.495375
	C139	C	0.883384	0.869057	0.477612
	C140	C	0.512410	0.112043	0.865254
	C141	C	0.495321	0.112029	0.107889
	C142	C	0.513671	0.868762	0.108703
	C143	C	0.495603	0.869241	0.865862
	C144	C	0.381634	0.880998	0.667918
	C145	C	0.628811	0.097956	0.669193
	C146	C	0.627871	0.882587	0.305305
	C147	C	0.379408	0.098333	0.305024
	C148	C	0.685923	0.365357	0.877426
	C149	C	0.686530	0.613599	0.094397
	C150	C	0.322710	0.614820	0.878501
	C151	C	0.320804	0.364881	0.093354
	C152	C	0.895333	0.670777	0.362460
	C153	C	0.112434	0.671159	0.608824
	C154	C	0.895650	0.311084	0.607032
	C155	C	0.111610	0.305718	0.359988
	C156	C	0.895512	0.369301	0.664277
	C157	C	0.112795	0.612933	0.666070
	C158	C	0.894901	0.612106	0.305276
	C159	C	0.111155	0.362975	0.301588
	C160	C	0.380685	0.671955	0.878412
	C161	C	0.628107	0.670595	0.095435
	C162	C	0.628069	0.308253	0.877403
	C163	C	0.379447	0.308237	0.093883
	C164	C	0.686603	0.882627	0.361774
	C165	C	0.687373	0.097149	0.612621
	C166	C	0.322945	0.881705	0.611205
	C167	C	0.322002	0.098385	0.363120
	C168	C	0.880213	0.381204	0.166865
	C169	C	0.127560	0.598129	0.168359
	C170	C	0.127922	0.381903	0.804626
	C171	C	0.882272	0.599037	0.805383
	C172	C	0.186178	0.866371	0.378177
	C173	C	0.184221	0.112533	0.596289
	C174	C	0.824168	0.111919	0.377388
	C175	C	0.822887	0.865973	0.594447
	C176	C	0.395835	0.172869	0.862027
	C177	C	0.611418	0.172274	0.110271
	C178	C	0.398376	0.806938	0.113351
	C179	C	0.612778	0.810043	0.864631
	C180	C	0.397724	0.865749	0.170071
	C181	C	0.611741	0.114563	0.168288
	C182	C	0.395755	0.114241	0.804954
	C183	C	0.612713	0.868088	0.807034
	C184	C	0.882165	0.168862	0.376938
	C185	C	0.125728	0.169371	0.596735
	C186	C	0.128229	0.809251	0.377627
	C187	C	0.881285	0.809045	0.594812
	C188	C	0.186168	0.382931	0.861590
	C189	C	0.186179	0.597730	0.111722
	C190	C	0.822081	0.381698	0.109677
	C191	C	0.823302	0.598515	0.861814
	C192	C	0.408120	0.080032	0.582551
	C193	C	0.600515	0.899982	0.582128
	C194	C	0.600853	0.080772	0.392039
	C195	C	0.408900	0.900513	0.391657
	C196	C	0.600746	0.394646	0.076365
	C197	C	0.600505	0.586697	0.895327
	C198	C	0.408769	0.585465	0.077065
	C199	C	0.408997	0.396304	0.896572
	C200	C	0.092929	0.585180	0.389857
	C201	C	0.914160	0.587651	0.582261
	C202	C	0.095597	0.391884	0.582428
	C203	C	0.914633	0.391661	0.389159
	C204	C	0.908098	0.579286	0.080984
	C205	C	0.098446	0.401257	0.078657
	C206	C	0.100756	0.581546	0.888764
	C207	C	0.907003	0.398838	0.888049
	C208	C	0.100349	0.894346	0.576905
	C209	C	0.100811	0.085529	0.396131
	C210	C	0.907382	0.086622	0.577368
	C211	C	0.908505	0.894396	0.395751
	C212	C	0.593614	0.086588	0.891003
	C213	C	0.414469	0.086295	0.082314
	C214	C	0.594372	0.894438	0.082888
	C215	C	0.414090	0.893843	0.890779
	Zn216	Zn	0.504016	-0.009872	0.736340
	Zn217	Zn	0.504636	-0.009284	0.237652
	Zn218	Zn	0.754105	0.489759	-0.015258
	Zn219	Zn	0.254164	0.490785	-0.013627
	Zn220	Zn	0.004556	0.740390	0.485168
	Zn221	Zn	0.004541	0.238570	0.486091
	Zn222	Zn	0.004937	0.490108	0.735268
	Zn223	Zn	0.004070	0.489011	0.235364
	Zn224	Zn	0.504534	0.739782	-0.012799
	Zn225	Zn	0.504157	0.241266	-0.014038
	Zn226	Zn	0.754577	-0.010074	0.486691
	Zn227	Zn	0.254439	-0.010140	0.487209
	N228	N	0.418228	0.954838	0.666179
	N229	N	0.591378	0.024618	0.666783
	N230	N	0.590950	0.956329	0.307656
	N231	N	0.416668	0.024707	0.306612
	N232	N	0.684723	0.402494	0.951389
	N233	N	0.685319	0.577639	0.019890
	N234	N	0.324114	0.577956	0.952534
	N235	N	0.323033	0.402727	0.019981
	N236	N	0.969196	0.669995	0.398551
	N237	N	0.038500	0.670899	0.572779
	N238	N	0.970130	0.310233	0.571997
	N239	N	0.038678	0.307701	0.397741
	N240	N	0.969994	0.403969	0.664499
	N241	N	0.039145	0.576873	0.665025
	N242	N	0.968442	0.575321	0.306379
	N243	N	0.037942	0.400202	0.303550
	N244	N	0.417758	0.670042	0.952295
	N245	N	0.590986	0.669260	0.021476
	N246	N	0.591205	0.310358	0.951266
	N247	N	0.417790	0.311389	0.020787
	N248	N	0.685453	0.956389	0.398878
	N249	N	0.686094	0.023406	0.575378
	N250	N	0.323556	0.955790	0.574851
	N251	N	0.323803	0.024603	0.400099
	N252	N	0.917508	0.454483	0.164968
	N253	N	0.090052	0.524978	0.165102
	N254	N	0.091011	0.455767	0.805851
	N255	N	0.918457	0.525009	0.806157
	N256	N	0.184959	0.902730	0.452409
	N257	N	0.184110	0.076762	0.521750
	N258	N	0.824223	0.076780	0.452006
	N259	N	0.823854	0.902427	0.520311
	N260	N	0.469492	0.171778	0.898540
	N261	N	0.538017	0.170959	0.073384
	N262	N	0.471438	0.808756	0.075659
	N263	N	0.538808	0.810442	0.900599
	N264	N	0.470426	0.903607	0.167425
	N265	N	0.538315	0.077933	0.167164
	N266	N	0.469355	0.077210	0.806544
	N267	N	0.538785	0.903980	0.807577
	N268	N	0.917965	0.168642	0.451405
	N269	N	0.089753	0.168295	0.522292
	N270	N	0.091460	0.810406	0.451545
	N271	N	0.918078	0.810635	0.520950
	N272	N	0.185311	0.457374	0.897594
	N273	N	0.184479	0.524409	0.073554
	N274	N	0.823675	0.455315	0.072534
	N275	N	0.823326	0.523938	0.897284
	O276	O	-0.054342	1.015193	0.076312
	H277	H	-0.059248	1.002210	0.081063
	H278	H	-0.067546	1.022443	0.065015
	O279	O	0.539338	0.271764	0.270727
	H280	H	0.539663	0.258049	0.246281
	H281	H	0.563281	0.278037	0.274158
	O282	O	1.036956	0.169294	0.908408
	H283	H	1.048361	0.161515	0.924231
	H284	H	1.038698	0.170870	0.921368
	O285	O	0.565341	0.713886	0.705615
	H286	H	0.567462	0.726971	0.724451
	H287	H	0.555928	0.708981	0.699417
	O288	O	0.310382	0.678815	0.677546
	H289	H	0.331281	0.660771	0.659717
	H290	H	0.322311	0.657449	0.655260
	O291	O	0.436552	0.324873	0.413053
	H292	H	0.439453	0.324181	0.408329
	H293	H	0.448951	0.310603	0.417403
	O294	O	1.169229	0.028933	1.180037
	H295	H	1.175728	0.017068	1.173451
	H296	H	1.181531	0.014986	1.175774
	O297	O	0.463122	0.693721	0.278481
	H298	H	0.477811	0.685366	0.291428
	H299	H	0.479117	0.699074	0.263979
	O300	O	-0.005134	-0.206167	1.196933
	H301	H	-0.013951	-0.231507	1.216609
	H302	H	-0.024981	-0.195339	1.184241
	O303	O	0.723561	0.713016	0.710054
	H304	H	0.723750	0.725507	0.715157
	H305	H	0.720700	0.730031	0.719197
	O306	O	0.553761	0.325400	0.570386
	H307	H	0.538733	0.315574	0.586191
	H308	H	0.556923	0.335127	0.565636
	O309	O	0.229034	0.767728	0.968236
	H310	H	0.239092	0.759291	0.935843
	H311	H	0.236523	0.758123	0.946361
	O312	O	0.217251	0.779170	0.779107
	H313	H	0.246352	0.745199	0.744668
	H314	H	0.166395	0.773638	0.770790
	O315	O	0.689617	0.676820	1.301458
	H316	H	0.672344	0.661088	1.312202
	H317	H	0.669342	0.671250	1.317929
	O318	O	0.699307	0.297674	0.675058
	H319	H	0.679725	0.320176	0.664893
	H320	H	0.684869	0.315506	0.648477
	O321	O	-0.152997	1.092355	0.970822
	H322	H	-0.170403	1.116689	0.972396
	H323	H	-0.146655	1.087502	0.953695
	O324	O	0.786496	0.956510	0.202963
	H325	H	0.772904	0.955348	0.210933
	H326	H	0.791690	0.954737	0.209084
	O327	O	0.220549	0.063588	1.013058
	H328	H	0.231561	0.066509	1.012869
	H329	H	0.223205	0.067550	1.009211
	O330	O	0.684027	0.308952	0.293955
	H331	H	0.672070	0.301288	0.325986
	H332	H	0.715720	0.275583	0.269776
	O333	O	0.795968	0.199239	0.778769
	H334	H	0.850125	0.206523	0.769987
	H335	H	0.767339	0.232631	0.744091
	O336	O	0.427510	0.418036	0.557100
	H337	H	0.413675	0.406243	0.528728
	H338	H	0.409803	0.432789	0.564291
	O339	O	0.489879	0.552948	0.692172
	H340	H	0.490803	0.541497	0.692112
	H341	H	0.499797	0.557539	0.685100
	O342	O	-0.032255	0.178101	0.178334
	H343	H	-0.021348	0.189741	0.183457
	H344	H	-0.000427	0.169090	0.172379
	O345	O	0.212671	1.195052	1.186452
	H346	H	0.235349	1.201941	1.205562
	H347	H	0.201739	1.158447	1.195597
	O348	O	-0.034791	0.098769	0.159752
	H349	H	-0.026936	0.107219	0.167742
	H350	H	-0.024737	0.100883	0.158071
	O351	O	0.670223	0.618874	0.483534
	H352	H	0.650203	0.619708	0.491105
	H353	H	0.670191	0.611832	0.475442
	O354	O	-0.089702	0.211288	1.062214
	H355	H	-0.093760	0.225424	1.063180
	H356	H	-0.099467	0.224828	1.047442
	O357	O	0.502054	0.310708	0.687256
	H358	H	0.500869	0.338112	0.683285
	H359	H	0.500296	0.301649	0.703686
	O360	O	0.524768	0.357740	0.612253
	H361	H	0.506320	0.359038	0.620503
	H362	H	0.504839	0.351392	0.608051
	O363	O	0.077183	-0.112599	-0.101825
	H364	H	0.079295	-0.118330	-0.111861
	H365	H	0.078645	-0.106719	-0.109388
	O366	O	0.346458	0.271576	0.473363
	H367	H	0.343025	0.257831	0.478848
	H368	H	0.339389	0.260160	0.488131
	O369	O	0.788737	0.203782	0.201579
	H370	H	0.806308	0.185871	0.176497
	H371	H	0.812346	0.187858	0.208738
	O372	O	0.869281	0.951536	-0.008824
	H373	H	0.865560	0.958929	-0.001657
	H374	H	0.862479	0.965647	-0.007148
	O375	O	1.046322	-0.224574	-0.234796
	H376	H	1.025018	-0.215056	-0.229859
	H377	H	1.028146	-0.240547	-0.248526
	O378	O	0.319352	0.554407	0.533655
	H379	H	0.321123	0.540748	0.514203
	H380	H	0.309542	0.567372	0.513497
	O381	O	0.043255	1.154409	0.960171
	H382	H	0.060527	1.157073	0.971382
	H383	H	0.037119	1.145717	0.953643
	O384	O	1.070534	-0.179343	0.999113
	H385	H	1.082572	-0.191997	0.991247
	H386	H	1.075977	-0.174294	1.021902
	O387	O	1.072755	1.040663	-0.222688
	H388	H	1.055491	1.029805	-0.224527
	H389	H	1.090297	1.015024	-0.229944
	O390	O	0.723117	0.463679	0.266214
	H391	H	0.726808	0.432736	0.264897
	H392	H	0.739236	0.447289	0.245983
	O393	O	0.279074	0.510461	0.265238
	H394	H	0.268652	0.541045	0.254747
	H395	H	0.279734	0.523134	0.248974
	O396	O	0.066256	1.027527	1.022008
	H397	H	0.068315	1.018744	1.002869
	H398	H	0.074221	1.028115	1.030743
	O399	O	-0.213219	0.012487	0.765121
	H400	H	-0.219164	0.043365	0.769398
	H401	H	-0.235535	0.032824	0.751736
	O402	O	0.283767	0.711561	0.466235
	H403	H	0.275678	0.722163	0.442398
	H404	H	0.272548	0.718623	0.437955
	O405	O	1.016326	-0.090220	1.004799
	H406	H	1.015218	-0.095864	1.001196
	H407	H	1.013564	-0.095542	0.998062
	O408	O	-0.041297	-0.060075	-0.210652
	H409	H	-0.054984	-0.044614	-0.211215
	H410	H	-0.057572	-0.054845	-0.203440
	O411	O	0.825074	0.817407	0.817244
	H412	H	0.842290	0.829433	0.831781
	H413	H	0.833001	0.834536	0.834997
	O414	O	0.614589	0.528533	0.369066
	H415	H	0.613618	0.518304	0.369495
	H416	H	0.613759	0.527419	0.355865
	O417	O	0.287251	0.449769	0.700556
	H418	H	0.278461	0.468464	0.681267
	H419	H	0.268240	0.455493	0.713211
	O420	O	0.726435	0.492364	0.663810
	H421	H	0.736102	0.522793	0.671829
	H422	H	0.740608	0.515837	0.663206
	O423	O	0.228547	-0.034855	0.762715
	H424	H	0.234572	-0.050255	0.746122
	H425	H	0.241239	-0.065763	0.752769
	O426	O	0.474276	0.528000	0.438772
	H427	H	0.469811	0.532687	0.432005
	H428	H	0.470305	0.528055	0.433333
	O429	O	1.223602	1.144558	0.982623
	H430	H	1.242133	1.163537	0.982355
	H431	H	1.213352	1.129304	0.997061
	O432	O	0.587420	0.457970	0.713892
	H433	H	0.612244	0.461927	0.723830
	H434	H	0.581381	0.479255	0.704942
	O435	O	0.310845	1.301620	0.293241
	H436	H	0.337838	1.318345	0.297034
	H437	H	0.312138	1.309304	0.298770
	O438	O	0.243380	0.229879	-0.250174
	H439	H	0.226437	0.225535	-0.241681
	H440	H	0.257607	0.222608	-0.230135
	O441	O	0.141584	-0.132312	0.183415
	H442	H	0.125344	-0.118408	0.176957
	H443	H	0.145435	-0.110270	0.161206
	O444	O	0.721467	0.712492	0.511031
	H445	H	0.729450	0.702908	0.530670
	H446	H	0.736493	0.727924	0.518832
	O447	O	-0.035743	1.209286	0.768983
	H448	H	-0.018236	1.218899	0.761387
	H449	H	-0.011147	1.207395	0.772103
	O450	O	0.239829	0.980736	1.007472
	H451	H	0.237400	0.964058	0.983074
	H452	H	0.236269	0.997706	0.987983
	O453	O	0.676221	0.495719	0.511403
	H454	H	0.674855	0.492512	0.510808
	H455	H	0.677045	0.503280	0.507016
	O456	O	-0.227054	-0.016232	0.993505
	H457	H	-0.228306	-0.010060	0.996786
	H458	H	-0.231581	-0.017134	0.999586
	O459	O	1.013213	0.948279	0.206135
	H460	H	1.014354	0.949243	0.208752
	H461	H	1.002486	0.938228	0.211318
	O462	O	0.498018	0.649830	0.401616
	H463	H	0.527598	0.646123	0.393607
	H464	H	0.491344	0.652009	0.407865
	O465	O	0.784715	-0.233154	0.018773
	H466	H	0.776004	-0.243408	0.028996
	H467	H	0.778232	-0.240145	0.022525
	O468	O	0.271075	0.427969	0.434916
	H469	H	0.269242	0.393563	0.436444
	H470	H	0.263583	0.421892	0.400560
	O471	O	0.542024	0.544642	0.541149
	H472	H	0.545729	0.544727	0.542172
	H473	H	0.531467	0.532868	0.537447
	O474	O	0.416160	0.611308	0.289326
	H475	H	0.421130	0.622893	0.272152
	H476	H	0.433957	0.596823	0.285318
	O477	O	0.286593	0.268688	1.618747
	H478	H	0.274219	0.272723	1.645255
	H479	H	0.268720	0.266064	1.639505
	O480	O	0.449879	0.421600	0.254962
	H481	H	0.440408	0.417732	0.255569
	H482	H	0.456159	0.416303	0.269733
	O483	O	0.485108	0.716259	0.522997
	H484	H	0.478881	0.709424	0.534666
	H485	H	0.474695	0.716536	0.527037
	O486	O	0.628245	0.306267	0.487304
	H487	H	0.617263	0.288458	0.511090
	H488	H	0.647984	0.295902	0.493776
	O489	O	0.797690	0.784322	0.195249
	H490	H	0.797612	0.803689	0.196569
	H491	H	0.777248	0.764549	0.196264
	O492	O	0.266729	-0.267720	0.240326
	H493	H	0.298383	-0.264432	0.221596
	H494	H	0.233900	-0.236378	0.217929
	O495	O	-0.134950	1.078219	0.921431
	H496	H	-0.147688	1.104776	0.908342
	H497	H	-0.146406	1.067042	0.922869
	O498	O	0.963906	0.767978	0.936303
	H499	H	0.968154	0.770642	0.955588
	H500	H	0.962043	0.766821	0.958704
	O501	O	0.612109	0.438672	0.464361
	H502	H	0.616737	0.425440	0.442802
	H503	H	0.610141	0.454327	0.457786
