data_Molecule from HDF5

_cell_length_a		16.263855
_cell_length_b		16.177417
_cell_length_c		16.466020
_cell_angle_alpha	90.177705
_cell_angle_beta	90.203863
_cell_angle_gamma	90.370093
_symmetry_space_group_name_H-M	'P 1'
_symmetry_Int_Tables_number		1

loop_
	_symmetry_equiv_pos_as_xyz
	x,y,z

loop_
	_atom_site_label
	_atom_site_type_symbol
	_atom_site_fract_x
	_atom_site_fract_y
	_atom_site_fract_z
	H0	H	0.394716	0.828711	0.721630
	H1	H	0.605496	0.152441	0.724478
	H2	H	0.602007	0.829269	0.287010
	H3	H	0.399515	0.154713	0.289283
	H4	H	0.716224	0.386909	0.842604
	H5	H	0.719532	0.594036	0.162192
	H6	H	0.279723	0.592700	0.843456
	H7	H	0.281073	0.389676	0.164718
	H8	H	0.835643	0.704615	0.401163
	H9	H	0.160655	0.709096	0.603619
	H10	H	0.835252	0.274751	0.597755
	H11	H	0.163252	0.278379	0.404665
	H12	H	0.837177	0.382278	0.722324
	H13	H	0.158064	0.597847	0.724506
	H14	H	0.837923	0.593648	0.281355
	H15	H	0.161226	0.388746	0.285045
	H16	H	0.396575	0.709220	0.843403
	H17	H	0.601827	0.709168	0.164125
	H18	H	0.598423	0.270956	0.843429
	H19	H	0.397679	0.273908	0.165661
	H20	H	0.710341	0.826275	0.407151
	H21	H	0.719197	0.152533	0.608161
	H22	H	0.280637	0.828904	0.604527
	H23	H	0.285871	0.155501	0.405334
	H24	H	0.896709	0.326796	0.217266
	H25	H	0.105186	0.651619	0.223403
	H26	H	0.100403	0.329336	0.784439
	H27	H	0.891682	0.650662	0.780728
	H28	H	0.216903	0.888195	0.342810
	H29	H	0.219789	0.097848	0.661575
	H30	H	0.778452	0.091292	0.344002
	H31	H	0.778119	0.883406	0.662742
	H32	H	0.335652	0.200990	0.907688
	H33	H	0.661768	0.208487	0.105879
	H34	H	0.336380	0.773931	0.103535
	H35	H	0.661176	0.775505	0.905324
	H36	H	0.336812	0.889715	0.221386
	H37	H	0.660854	0.097353	0.225564
	H38	H	0.340830	0.097162	0.782270
	H39	H	0.658871	0.882436	0.783229
	H40	H	0.899393	0.204451	0.340702
	H41	H	0.102318	0.211662	0.661523
	H42	H	0.099548	0.772735	0.342028
	H43	H	0.893695	0.768024	0.661016
	H44	H	0.210764	0.326744	0.905065
	H45	H	0.216130	0.653543	0.104610
	H46	H	0.781098	0.327845	0.102747
	H47	H	0.781941	0.653304	0.900007
	H48	H	0.423440	0.102185	0.592797
	H49	H	0.589530	0.873519	0.596376
	H50	H	0.579632	0.104746	0.414366
	H51	H	0.408653	0.874027	0.408882
	H52	H	0.583151	0.399982	0.114319
	H53	H	0.583254	0.579056	0.892722
	H54	H	0.405977	0.588637	0.120457
	H55	H	0.414221	0.394028	0.891731
	H56	H	0.114239	0.591664	0.422748
	H57	H	0.881609	0.577095	0.595212
	H58	H	0.112544	0.402972	0.590656
	H59	H	0.884702	0.406391	0.404822
	H60	H	0.113655	0.406840	0.598585
	H61	H	0.884042	0.580736	0.587979
	H62	H	0.108870	0.566314	0.414600
	H63	H	0.878389	0.391880	0.401789
	H64	H	0.402751	0.576643	0.117635
	H65	H	0.589043	0.589585	0.886136
	H66	H	0.594410	0.395562	0.120569
	H67	H	0.398870	0.389642	0.885284
	H68	H	0.595261	0.106781	0.424418
	H69	H	0.584751	0.874626	0.597126
	H70	H	0.402539	0.107063	0.586468
	H71	H	0.409416	0.876293	0.414370
	H72	H	0.908620	0.607715	0.096334
	H73	H	0.090028	0.371834	0.099099
	H74	H	0.094208	0.610457	0.907483
	H75	H	0.914012	0.375815	0.910319
	H76	H	0.092709	0.894696	0.619955
	H77	H	0.090742	0.084621	0.387575
	H78	H	0.907784	0.075018	0.616089
	H79	H	0.903797	0.898539	0.389270
	H80	H	0.613830	0.072070	0.910699
	H81	H	0.381267	0.077936	0.108826
	H82	H	0.613949	0.899911	0.092694
	H83	H	0.382327	0.897553	0.912822
	H84	H	0.613833	0.907463	0.099499
	H85	H	0.381167	0.090305	0.096831
	H86	H	0.619839	0.087357	0.910376
	H87	H	0.386785	0.903667	0.916700
	H88	H	0.916120	0.082941	0.615379
	H89	H	0.094705	0.082764	0.386789
	H90	H	0.093862	0.907678	0.616095
	H91	H	0.905821	0.901181	0.389832
	H92	H	0.080411	0.605509	0.911022
	H93	H	0.085005	0.375273	0.092966
	H94	H	0.915992	0.605030	0.093308
	H95	H	0.905799	0.376244	0.916395
	H96	H	0.408176	0.112228	0.607372
	H97	H	0.586882	0.875668	0.592530
	H98	H	0.594297	0.111273	0.406750
	H99	H	0.404174	0.873680	0.412764
	H100	H	0.593725	0.408259	0.115614
	H101	H	0.596018	0.577679	0.887539
	H102	H	0.415124	0.581135	0.115532
	H103	H	0.401991	0.404916	0.891275
	H104	H	0.119335	0.584458	0.397806
	H105	H	0.886593	0.572510	0.590039
	H106	H	0.115825	0.398486	0.596347
	H107	H	0.884433	0.394855	0.416356
	H108	H	0.909603	0.605433	0.088811
	H109	H	0.092863	0.374036	0.091226
	H110	H	0.091513	0.605305	0.920761
	H111	H	0.904906	0.372113	0.907856
	H112	H	0.081887	0.901452	0.613724
	H113	H	0.091194	0.079636	0.388351
	H114	H	0.905720	0.086215	0.619358
	H115	H	0.906810	0.897421	0.389974
	H116	H	0.613404	0.081317	0.923353
	H117	H	0.387485	0.074597	0.092855
	H118	H	0.617504	0.897846	0.102123
	H119	H	0.383908	0.905009	0.908888
	C120	C	0.378852	-0.000138	0.625383
	C121	C	0.620460	0.981577	0.626596
	C122	C	0.619698	-0.000310	0.384660
	C123	C	0.378198	0.982699	0.383256
	C124	C	0.620095	0.369225	0.011181
	C125	C	0.621302	0.613486	0.994481
	C126	C	0.377204	0.612510	0.012013
	C127	C	0.375653	0.367311	0.995912
	C128	C	0.007198	0.611276	0.380515
	C129	C	0.989923	0.610968	0.623418
	C130	C	0.006924	0.369921	0.624030
	C131	C	0.990426	0.368330	0.379299
	C132	C	0.879197	0.498720	0.122964
	C133	C	0.120696	0.481473	0.124868
	C134	C	0.118951	0.499659	0.882504
	C135	C	0.876826	0.481585	0.880484
	C136	C	0.119918	0.869864	0.510767
	C137	C	0.122452	0.114128	0.493269
	C138	C	0.878349	0.111253	0.511091
	C139	C	0.875175	0.867086	0.494510
	C140	C	0.508739	0.110839	0.884161
	C141	C	0.490623	0.112836	0.128571
	C142	C	0.507828	0.870490	0.126684
	C143	C	0.490633	0.870360	0.882947
	C144	C	0.376584	0.877537	0.682869
	C145	C	0.623187	0.103849	0.684820
	C146	C	0.619903	0.877592	0.326699
	C147	C	0.379871	0.105937	0.327735
	C148	C	0.676995	0.368080	0.890705
	C149	C	0.680237	0.613700	0.114581
	C150	C	0.318949	0.612144	0.891405
	C151	C	0.319212	0.369360	0.116654
	C152	C	0.884793	0.667204	0.381183
	C153	C	0.111707	0.670610	0.623783
	C154	C	0.884422	0.312246	0.620074
	C155	C	0.113769	0.314281	0.383015
	C156	C	0.885483	0.366015	0.681787
	C157	C	0.110453	0.615275	0.683999
	C158	C	0.885787	0.611632	0.321860
	C159	C	0.112595	0.369463	0.323621
	C160	C	0.377279	0.669856	0.891127
	C161	C	0.621661	0.671113	0.115363
	C162	C	0.618555	0.310138	0.891122
	C163	C	0.377837	0.312011	0.117297
	C164	C	0.673798	0.875893	0.386318
	C165	C	0.679942	0.103788	0.626997
	C166	C	0.319656	0.877574	0.624801
	C167	C	0.323427	0.106304	0.385470
	C168	C	0.877599	0.375965	0.179592
	C169	C	0.122900	0.603333	0.183548
	C170	C	0.119208	0.377705	0.824020
	C171	C	0.874332	0.602792	0.821032
	C172	C	0.177838	0.869358	0.390589
	C173	C	0.180375	0.115718	0.613790
	C174	C	0.818825	0.110834	0.391347
	C175	C	0.817081	0.864961	0.614552
	C176	C	0.385399	0.165267	0.886285
	C177	C	0.612737	0.170963	0.126691
	C178	C	0.385213	0.812759	0.124122
	C179	C	0.612338	0.812659	0.884343
	C180	C	0.385417	0.869821	0.182982
	C181	C	0.612471	0.115465	0.186198
	C182	C	0.388120	0.113374	0.823893
	C183	C	0.611183	0.866403	0.823759
	C184	C	0.879359	0.166852	0.389586
	C185	C	0.122403	0.172900	0.613585
	C186	C	0.119321	0.811689	0.390215
	C187	C	0.874627	0.807178	0.613751
	C188	C	0.174370	0.376435	0.883496
	C189	C	0.178409	0.604334	0.124529
	C190	C	0.820438	0.376419	0.122105
	C191	C	0.819445	0.603941	0.880239
	C192	C	0.403973	0.084899	0.602215
	C193	C	0.594442	0.896617	0.602405
	C194	C	0.596588	0.085507	0.408317
	C195	C	0.400725	0.896858	0.405500
	C196	C	0.597135	0.394128	0.095069
	C197	C	0.596565	0.589133	0.910562
	C198	C	0.401133	0.589030	0.095965
	C199	C	0.398312	0.389765	0.911425
	C200	C	0.092077	0.587856	0.404706
	C201	C	0.906109	0.584529	0.598188
	C202	C	0.091780	0.395414	0.601809
	C203	C	0.904553	0.390874	0.401242
	C204	C	0.904324	0.583975	0.099776
	C205	C	0.096406	0.395892	0.101361
	C206	C	0.095505	0.584950	0.906227
	C207	C	0.901165	0.396680	0.904566
	C208	C	0.096357	0.894198	0.594730
	C209	C	0.098914	0.089450	0.409369
	C210	C	0.902583	0.088109	0.595076
	C211	C	0.898781	0.891842	0.411202
	C212	C	0.593568	0.087093	0.908096
	C213	C	0.405409	0.088056	0.106047
	C214	C	0.593019	0.894672	0.104618
	C215	C	0.406174	0.895065	0.906138
	Zn216	Zn	0.500044	-0.009112	0.754689
	Zn217	Zn	0.499767	-0.008375	0.256333
	Zn218	Zn	0.750522	0.490978	0.002101
	Zn219	Zn	0.247674	0.490647	0.003507
	Zn220	Zn	-0.001775	0.739536	0.502246
	Zn221	Zn	-0.000204	0.241685	0.501634
	Zn222	Zn	-0.002116	0.490726	0.753350
	Zn223	Zn	-0.001118	0.489842	0.252059
	Zn224	Zn	0.498899	0.742504	0.003913
	Zn225	Zn	0.498429	0.238936	0.004997
	Zn226	Zn	0.747447	-0.010145	0.504531
	Zn227	Zn	0.250380	-0.008314	0.503444
	N228	N	0.412538	0.954715	0.683588
	N229	N	0.587332	0.026697	0.684978
	N230	N	0.587082	0.955751	0.325566
	N231	N	0.413161	0.027992	0.326075
	N232	N	0.678081	0.404101	0.966373
	N233	N	0.680379	0.578987	0.038244
	N234	N	0.318732	0.577251	0.967432
	N235	N	0.317687	0.403005	0.040142
	N236	N	0.961426	0.667214	0.416795
	N237	N	0.035806	0.667882	0.586882
	N238	N	0.960894	0.314683	0.584795
	N239	N	0.036558	0.313505	0.416903
	N240	N	0.962746	0.401270	0.684409
	N241	N	0.033666	0.579174	0.684146
	N242	N	0.963073	0.577697	0.321303
	N243	N	0.034921	0.402350	0.321357
	N244	N	0.412837	0.670227	0.967027
	N245	N	0.585813	0.671284	0.039562
	N246	N	0.584087	0.310700	0.967198
	N247	N	0.411821	0.310220	0.041012
	N248	N	0.673768	0.953068	0.421594
	N249	N	0.678781	0.026447	0.591997
	N250	N	0.320860	0.954520	0.589843
	N251	N	0.322391	0.028714	0.419258
	N252	N	0.913394	0.453240	0.180174
	N253	N	0.087659	0.526035	0.183927
	N254	N	0.085614	0.455555	0.822952
	N255	N	0.909199	0.525776	0.821177
	N256	N	0.178479	0.904537	0.466666
	N257	N	0.180614	0.079807	0.537865
	N258	N	0.818096	0.077009	0.467851
	N259	N	0.817179	0.901662	0.539480
	N260	N	0.461405	0.163761	0.923033
	N261	N	0.535921	0.169453	0.091631
	N262	N	0.462409	0.812787	0.090175
	N263	N	0.536259	0.814775	0.920320
	N264	N	0.462698	0.904926	0.184759
	N265	N	0.535390	0.080257	0.187689
	N266	N	0.465827	0.080257	0.822402
	N267	N	0.534575	0.901647	0.822841
	N268	N	0.915461	0.167302	0.465245
	N269	N	0.086919	0.171863	0.537910
	N270	N	0.083929	0.811829	0.466058
	N271	N	0.910021	0.808347	0.538200
	N272	N	0.174526	0.453285	0.918998
	N273	N	0.177083	0.527487	0.088820
	N274	N	0.821045	0.453821	0.087790
	N275	N	0.820787	0.527445	0.916449
	O276	O	0.608140	0.518895	0.546092
	H277	H	0.606779	0.512287	0.541843
	H278	H	0.612676	0.515243	0.546974
	O279	O	0.440694	0.340473	0.514518
	H280	H	0.445571	0.337416	0.512598
	H281	H	0.453571	0.328648	0.514605
	O282	O	0.834780	0.174644	0.835791
	H283	H	0.824908	0.165015	0.852518
	H284	H	0.847960	0.174682	0.845826
	O285	O	0.631063	0.507154	0.557959
	H286	H	0.624861	0.520375	0.546151
	H287	H	0.640734	0.506762	0.546246
	O288	O	1.083620	1.055807	1.131297
	H289	H	1.081909	1.050121	1.141452
	H290	H	1.091229	1.052066	1.127207
	O291	O	-0.057353	0.913458	0.013402
	H292	H	-0.051979	0.921866	0.001711
	H293	H	-0.078463	0.903215	0.013033
	O294	O	0.421800	0.633970	0.532115
	H295	H	0.431089	0.636932	0.530041
	H296	H	0.425030	0.631920	0.550243
	O297	O	0.657732	0.530615	0.499522
	H298	H	0.652047	0.527988	0.505029
	H299	H	0.653796	0.533210	0.500819
	O300	O	0.634409	0.449641	0.375721
	H301	H	0.644476	0.442709	0.368420
	H302	H	0.644893	0.437851	0.369929
	O303	O	0.354373	0.374166	0.552656
	H304	H	0.337689	0.381613	0.558036
	H305	H	0.364095	0.377841	0.561923
	O306	O	0.597435	0.364659	0.412600
	H307	H	0.594463	0.377511	0.410930
	H308	H	0.598820	0.362336	0.419412
	O309	O	0.406528	0.512321	0.503168
	H310	H	0.399424	0.509998	0.505988
	H311	H	0.422820	0.508205	0.498917
	O312	O	0.122911	-0.138091	0.114115
	H313	H	0.115973	-0.146657	0.115837
	H314	H	0.122712	-0.114650	0.126880
	O315	O	0.373235	0.614936	0.343763
	H316	H	0.377052	0.636975	0.352417
	H317	H	0.357574	0.618884	0.332330
	O318	O	-0.045396	1.147483	0.907193
	H319	H	-0.044764	1.155280	0.912765
	H320	H	-0.055062	1.149835	0.905501
	O321	O	0.527892	0.462508	0.487336
	H322	H	0.512769	0.476306	0.502931
	H323	H	0.544510	0.475186	0.488969
	O324	O	0.111726	0.957107	-0.206248
	H325	H	0.130305	0.935155	-0.226029
	H326	H	0.099871	0.933402	-0.186088
	O327	O	0.471330	0.521940	0.556507
	H328	H	0.452098	0.508661	0.563927
	H329	H	0.483250	0.517199	0.551835
	O330	O	-0.133254	-0.082734	0.851333
	H331	H	-0.127374	-0.091997	0.850900
	H332	H	-0.151832	-0.073758	0.845889
	O333	O	-0.116370	-0.202182	1.085697
	H334	H	-0.111490	-0.194265	1.086868
	H335	H	-0.100231	-0.204037	1.073328
	O336	O	0.584463	0.545264	0.352879
	H337	H	0.574014	0.533243	0.364975
	H338	H	0.602385	0.539802	0.343471
	O339	O	0.984281	0.142362	0.012103
	H340	H	0.990294	0.147287	0.004259
	H341	H	0.996457	0.143881	0.025681
	O342	O	-0.185801	-0.007369	-0.146661
	H343	H	-0.174252	0.016229	-0.154577
	H344	H	-0.197838	0.000167	-0.157411
	O345	O	1.007413	0.096872	1.091377
	H346	H	0.999379	0.111792	1.109076
	H347	H	1.011102	0.095536	1.092748
	O348	O	1.179210	0.822766	-0.127908
	H349	H	1.159291	0.823625	-0.138345
	H350	H	1.190275	0.812415	-0.106165
	O351	O	0.374143	0.607931	0.324621
	H352	H	0.372682	0.606758	0.326008
	H353	H	0.367397	0.621203	0.317817
	O354	O	1.022484	-0.026963	1.055996
	H355	H	1.030349	-0.028416	1.045012
	H356	H	1.040268	-0.021893	1.043651
	O357	O	0.503670	0.453200	0.532120
	H358	H	0.510233	0.451661	0.540035
	H359	H	0.494599	0.462839	0.521160
	O360	O	0.565993	0.497344	0.577904
	H361	H	0.567516	0.516658	0.583189
	H362	H	0.573681	0.503805	0.580455
	O363	O	-0.081053	1.071832	1.067156
	H364	H	-0.059771	1.075814	1.067406
	H365	H	-0.075347	1.068832	1.073260
	O366	O	0.490357	0.451425	0.485973
	H367	H	0.508513	0.458876	0.476945
	H368	H	0.489471	0.462983	0.480494
	O369	O	0.105041	1.016687	-0.145939
	H370	H	0.116448	0.993809	-0.142050
	H371	H	0.116493	1.024159	-0.164161
	O372	O	0.520012	0.654702	0.576187
	H373	H	0.522580	0.659004	0.578083
	H374	H	0.531257	0.648001	0.586363
	O375	O	0.398925	0.301409	0.692792
	H376	H	0.396057	0.311552	0.696053
	H377	H	0.416074	0.306872	0.684478
	O378	O	0.883857	0.940706	0.035686
	H379	H	0.876776	0.952296	0.029721
	H380	H	0.890823	0.937923	0.019726
	O381	O	0.995359	0.018960	0.076635
	H382	H	0.997158	0.028997	0.074883
	H383	H	0.993985	0.012418	0.066071
	O384	O	0.845180	0.921336	0.154118
	H385	H	0.840712	0.927642	0.145972
	H386	H	0.835180	0.916644	0.142035
	O387	O	0.145205	0.061229	0.048376
	H388	H	0.141624	0.069781	0.050795
	H389	H	0.134228	0.068400	0.063689
	O390	O	0.128740	1.096912	0.015636
	H391	H	0.119160	1.092359	0.018156
	H392	H	0.133362	1.102996	0.006207
	O393	O	0.983615	1.025044	1.168970
	H394	H	0.983902	1.016507	1.179187
	H395	H	0.978728	1.011910	1.164564
	O396	O	0.595666	0.542945	0.592893
	H397	H	0.591534	0.539778	0.591200
	H398	H	0.582549	0.531079	0.576641
	O399	O	0.139483	0.882713	0.970077
	H400	H	0.141816	0.879770	0.983395
	H401	H	0.146113	0.883604	0.972429
	O402	O	0.516194	0.434109	0.576722
	H403	H	0.513597	0.421062	0.573763
	H404	H	0.514152	0.436172	0.568993
	O405	O	0.950302	0.950493	0.058122
	H406	H	0.955766	0.936767	0.069344
	H407	H	0.919418	0.957239	0.041936
	O408	O	1.082309	0.840080	-0.192968
	H409	H	1.078119	0.850002	-0.200744
	H410	H	1.084875	0.839976	-0.197150
	O411	O	0.897387	0.002270	1.033032
	H412	H	0.907536	-0.002271	1.024375
	H413	H	0.912865	0.016767	1.032291
	O414	O	0.435350	0.445962	0.601309
	H415	H	0.438763	0.444470	0.595169
	H416	H	0.435730	0.444310	0.619744
	O417	O	0.323164	0.514889	0.496052
	H418	H	0.324078	0.524602	0.493546
	H419	H	0.325880	0.506842	0.501699
