data_Molecule from HDF5

_cell_length_a		16.410494
_cell_length_b		16.382361
_cell_length_c		16.380957
_cell_angle_alpha	90.035654
_cell_angle_beta	90.182429
_cell_angle_gamma	89.938510
_symmetry_space_group_name_H-M	'P 1'
_symmetry_Int_Tables_number		1

loop_
	_symmetry_equiv_pos_as_xyz
	x,y,z

loop_
	_atom_site_label
	_atom_site_type_symbol
	_atom_site_fract_x
	_atom_site_fract_y
	_atom_site_fract_z
	H0	H	0.379579	0.838808	0.718382
	H1	H	0.595995	0.154006	0.720677
	H2	H	0.590762	0.836631	0.276325
	H3	H	0.382389	0.155940	0.275581
	H4	H	0.713606	0.389431	0.837660
	H5	H	0.714009	0.604071	0.154615
	H6	H	0.262427	0.608932	0.838675
	H7	H	0.267667	0.389112	0.153323
	H8	H	0.829493	0.717354	0.388541
	H9	H	0.144571	0.721063	0.602560
	H10	H	0.830705	0.273371	0.604825
	H11	H	0.144995	0.273199	0.390441
	H12	H	0.831547	0.389333	0.719378
	H13	H	0.146509	0.606015	0.719114
	H14	H	0.831545	0.602691	0.272355
	H15	H	0.147385	0.391751	0.277349
	H16	H	0.382179	0.720498	0.837375
	H17	H	0.598535	0.721556	0.154030
	H18	H	0.601785	0.269794	0.839847
	H19	H	0.386410	0.275815	0.154571
	H20	H	0.709819	0.838705	0.389323
	H21	H	0.712932	0.154409	0.605948
	H22	H	0.266087	0.837421	0.601277
	H23	H	0.265069	0.154009	0.389640
	H24	H	0.886372	0.338167	0.216998
	H25	H	0.097955	0.654900	0.219023
	H26	H	0.098973	0.339935	0.771129
	H27	H	0.878897	0.654373	0.770747
	H28	H	0.207847	0.890372	0.337001
	H29	H	0.214011	0.106663	0.652075
	H30	H	0.763815	0.104764	0.337679
	H31	H	0.763169	0.887950	0.652512
	H32	H	0.331552	0.222197	0.888258
	H33	H	0.648121	0.215611	0.102707
	H34	H	0.330111	0.774795	0.100049
	H35	H	0.646750	0.774504	0.889108
	H36	H	0.326478	0.893514	0.211444
	H37	H	0.645522	0.101058	0.219982
	H38	H	0.329784	0.107486	0.771486
	H39	H	0.644960	0.888012	0.770565
	H40	H	0.882011	0.217835	0.336174
	H41	H	0.098089	0.222273	0.653077
	H42	H	0.092516	0.775623	0.336798
	H43	H	0.877616	0.770998	0.651547
	H44	H	0.213936	0.339636	0.887660
	H45	H	0.213476	0.655319	0.103913
	H46	H	0.766827	0.340030	0.105061
	H47	H	0.765611	0.654234	0.887807
	H48	H	0.392340	0.110356	0.576383
	H49	H	0.571738	0.886187	0.582479
	H50	H	0.585302	0.113253	0.408831
	H51	H	0.397806	0.880416	0.401699
	H52	H	0.579432	0.404147	0.110886
	H53	H	0.578574	0.589671	0.881726
	H54	H	0.399591	0.582191	0.107907
	H55	H	0.404785	0.413387	0.884566
	H56	H	0.100584	0.584254	0.411462
	H57	H	0.876721	0.580459	0.583823
	H58	H	0.098542	0.413309	0.581160
	H59	H	0.871838	0.407076	0.401959
	H60	H	0.102165	0.409372	0.585915
	H61	H	0.873526	0.584918	0.586091
	H62	H	0.103920	0.585210	0.403068
	H63	H	0.875124	0.406108	0.409293
	H64	H	0.405634	0.582291	0.106115
	H65	H	0.581360	0.579670	0.883688
	H66	H	0.582447	0.410147	0.109020
	H67	H	0.404848	0.406901	0.882903
	H68	H	0.569992	0.111890	0.397555
	H69	H	0.575398	0.885124	0.580093
	H70	H	0.398820	0.112612	0.591276
	H71	H	0.397282	0.882386	0.406182
	H72	H	0.908476	0.610818	0.089102
	H73	H	0.083138	0.383722	0.081522
	H74	H	0.074849	0.609075	0.908673
	H75	H	0.898766	0.381323	0.903569
	H76	H	0.075403	0.908531	0.608950
	H77	H	0.079441	0.088869	0.380553
	H78	H	0.902045	0.089856	0.609384
	H79	H	0.889592	0.912013	0.379709
	H80	H	0.598599	0.079822	0.909632
	H81	H	0.374953	0.085068	0.085201
	H82	H	0.598486	0.912992	0.079507
	H83	H	0.374740	0.909380	0.904614
	H84	H	0.602931	0.912571	0.093814
	H85	H	0.373724	0.088176	0.085769
	H86	H	0.600764	0.081315	0.905688
	H87	H	0.374742	0.905507	0.909511
	H88	H	0.895137	0.083125	0.609977
	H89	H	0.076157	0.077745	0.384717
	H90	H	0.075912	0.909781	0.609331
	H91	H	0.904250	0.915219	0.385994
	H92	H	0.077272	0.609679	0.910177
	H93	H	0.081319	0.381356	0.089290
	H94	H	0.904436	0.606398	0.076031
	H95	H	0.909560	0.386350	0.906876
	H96	H	0.407803	0.105422	0.580136
	H97	H	0.575244	0.883887	0.583931
	H98	H	0.569095	0.105484	0.415364
	H99	H	0.393639	0.881160	0.403828
	H100	H	0.575799	0.409436	0.107057
	H101	H	0.571930	0.582770	0.887034
	H102	H	0.403269	0.586914	0.108824
	H103	H	0.399418	0.410016	0.882501
	H104	H	0.103611	0.592593	0.408727
	H105	H	0.875792	0.585799	0.580367
	H106	H	0.101005	0.406953	0.579627
	H107	H	0.875734	0.412880	0.405881
	H108	H	0.894628	0.613225	0.084438
	H109	H	0.075975	0.385037	0.084665
	H110	H	0.076717	0.610702	0.907451
	H111	H	0.900417	0.385780	0.914957
	H112	H	0.074536	0.909647	0.608338
	H113	H	0.068310	0.087134	0.384735
	H114	H	0.903492	0.080991	0.605919
	H115	H	0.900857	0.900576	0.380272
	H116	H	0.600432	0.085131	0.909713
	H117	H	0.375188	0.087227	0.082672
	H118	H	0.604203	0.900180	0.085120
	H119	H	0.377388	0.911148	0.909989
	C120	C	0.365618	0.004973	0.616353
	C121	C	0.608890	0.988820	0.617125
	C122	C	0.607710	0.005342	0.374492
	C123	C	0.364900	0.986794	0.372809
	C124	C	0.613219	0.374280	0.004694
	C125	C	0.611789	0.618552	0.987948
	C126	C	0.368569	0.617913	0.003294
	C127	C	0.369886	0.376610	0.987397
	C128	C	-0.002040	0.618852	0.374377
	C129	C	0.979615	0.618532	0.617197
	C130	C	-0.003205	0.376053	0.616925
	C131	C	0.979428	0.376044	0.374396
	C132	C	0.869565	0.505838	0.116831
	C133	C	0.113023	0.487852	0.118433
	C134	C	0.110800	0.505890	0.874384
	C135	C	0.868540	0.488689	0.874680
	C136	C	0.107671	0.876129	0.504101
	C137	C	0.109018	0.118594	0.487408
	C138	C	0.866259	0.118557	0.504218
	C139	C	0.865390	0.875351	0.486318
	C140	C	0.496491	0.117788	0.874306
	C141	C	0.479314	0.118456	0.117784
	C142	C	0.496633	0.875772	0.116901
	C143	C	0.479569	0.875277	0.874231
	C144	C	0.362338	0.886286	0.677630
	C145	C	0.612993	0.107176	0.679690
	C146	C	0.609783	0.885042	0.315172
	C147	C	0.363788	0.107640	0.314602
	C148	C	0.674140	0.371069	0.885873
	C149	C	0.673372	0.621866	0.107139
	C150	C	0.305145	0.623743	0.885350
	C151	C	0.308586	0.372265	0.106010
	C152	C	0.877725	0.677904	0.370895
	C153	C	0.097506	0.680867	0.620955
	C154	C	0.878190	0.314326	0.621367
	C155	C	0.098130	0.314613	0.372535
	C156	C	0.878569	0.371860	0.679067
	C157	C	0.098304	0.623134	0.678761
	C158	C	0.878697	0.620916	0.312864
	C159	C	0.099337	0.373171	0.315888
	C160	C	0.364646	0.679883	0.884622
	C161	C	0.615786	0.680410	0.106757
	C162	C	0.617985	0.311665	0.886663
	C163	C	0.367774	0.315543	0.106682
	C164	C	0.668806	0.885907	0.371818
	C165	C	0.671312	0.107141	0.622349
	C166	C	0.305188	0.885806	0.619608
	C167	C	0.305399	0.106742	0.371640
	C168	C	0.867378	0.386368	0.177664
	C169	C	0.115988	0.607064	0.179316
	C170	C	0.115843	0.387363	0.811910
	C171	C	0.862998	0.606952	0.811993
	C172	C	0.167852	0.872822	0.384729
	C173	C	0.172417	0.123383	0.605207
	C174	C	0.804521	0.122257	0.385010
	C175	C	0.803698	0.870887	0.605093
	C176	C	0.378478	0.181208	0.870444
	C177	C	0.599730	0.176961	0.120876
	C178	C	0.377008	0.815628	0.117804
	C179	C	0.599016	0.814592	0.870909
	C180	C	0.375361	0.874619	0.173689
	C181	C	0.598493	0.119869	0.179202
	C182	C	0.377531	0.123574	0.812461
	C183	C	0.598103	0.871301	0.812120
	C184	C	0.863031	0.179205	0.384617
	C185	C	0.114293	0.181089	0.605563
	C186	C	0.110060	0.815740	0.384550
	C187	C	0.860903	0.812655	0.604573
	C188	C	0.173172	0.387000	0.870161
	C189	C	0.173456	0.607331	0.121492
	C190	C	0.807689	0.387176	0.121998
	C191	C	0.806002	0.606950	0.870245
	C192	C	0.391861	0.088150	0.590088
	C193	C	0.582016	0.906451	0.590056
	C194	C	0.582296	0.088487	0.400084
	C195	C	0.389232	0.902983	0.396962
	C196	C	0.586950	0.400537	0.087548
	C197	C	0.584968	0.591827	0.905384
	C198	C	0.395434	0.591365	0.085966
	C199	C	0.395568	0.402700	0.904748
	C200	C	0.080980	0.594391	0.400197
	C201	C	0.896956	0.591575	0.591064
	C202	C	0.079127	0.402364	0.590067
	C203	C	0.896129	0.401291	0.398598
	C204	C	0.895413	0.588586	0.090734
	C205	C	0.087335	0.404895	0.092709
	C206	C	0.084004	0.588096	0.901012
	C207	C	0.895172	0.406091	0.901057
	C208	C	0.082504	0.901957	0.587052
	C209	C	0.082247	0.092052	0.404773
	C210	C	0.892616	0.092291	0.586779
	C211	C	0.890960	0.901736	0.403730
	C212	C	0.578506	0.090171	0.900742
	C213	C	0.396228	0.094019	0.091769
	C214	C	0.579994	0.901007	0.092956
	C215	C	0.397296	0.901107	0.900303
	Zn216	Zn	0.486404	-0.003305	0.745156
	Zn217	Zn	0.486526	-0.003955	0.245476
	Zn218	Zn	0.740865	0.496819	-0.003525
	Zn219	Zn	0.239663	0.497462	-0.004745
	Zn220	Zn	-0.012912	0.747233	0.494934
	Zn221	Zn	-0.012863	0.247351	0.496004
	Zn222	Zn	-0.010862	0.497124	0.745656
	Zn223	Zn	-0.009968	0.497597	0.246231
	Zn224	Zn	0.489184	0.746903	-0.003718
	Zn225	Zn	0.490480	0.246450	-0.004406
	Zn226	Zn	0.737212	-0.002637	0.495327
	Zn227	Zn	0.237276	-0.004109	0.495039
	N228	N	0.398888	0.961717	0.675916
	N229	N	0.574933	0.032565	0.676527
	N230	N	0.572410	0.960207	0.316669
	N231	N	0.399879	0.031960	0.315111
	N232	N	0.671051	0.409424	0.960496
	N233	N	0.670758	0.583985	0.032318
	N234	N	0.307712	0.585694	0.960079
	N235	N	0.309583	0.409373	0.030856
	N236	N	0.952748	0.676787	0.408304
	N237	N	0.022521	0.678257	0.583617
	N238	N	0.952897	0.316546	0.583574
	N239	N	0.022581	0.316190	0.408063
	N240	N	0.953385	0.409324	0.676392
	N241	N	0.023694	0.585251	0.676646
	N242	N	0.954434	0.584957	0.314798
	N243	N	0.024428	0.410595	0.316912
	N244	N	0.403619	0.676013	0.959019
	N245	N	0.578475	0.678682	0.031535
	N246	N	0.580888	0.313357	0.961637
	N247	N	0.405255	0.318111	0.031773
	N248	N	0.667879	0.961781	0.407601
	N249	N	0.668723	0.032457	0.584158
	N250	N	0.307182	0.960978	0.582388
	N251	N	0.305941	0.030843	0.407037
	N252	N	0.905175	0.461142	0.174592
	N253	N	0.079260	0.531690	0.177870
	N254	N	0.077914	0.462253	0.814270
	N255	N	0.901227	0.532265	0.814548
	N256	N	0.166403	0.909772	0.459955
	N257	N	0.169316	0.085124	0.530602
	N258	N	0.806071	0.085470	0.460412
	N259	N	0.806434	0.909299	0.530644
	N260	N	0.453525	0.178004	0.907851
	N261	N	0.524694	0.176234	0.083294
	N262	N	0.453233	0.816024	0.083583
	N263	N	0.524480	0.816801	0.908813
	N264	N	0.450872	0.911267	0.173472
	N265	N	0.522736	0.084373	0.177617
	N266	N	0.451960	0.084971	0.814573
	N267	N	0.522929	0.908306	0.813978
	N268	N	0.900445	0.177239	0.459793
	N269	N	0.075417	0.177906	0.531194
	N270	N	0.073203	0.817564	0.459801
	N271	N	0.898799	0.815478	0.529949
	N272	N	0.170468	0.461839	0.908013
	N273	N	0.171872	0.532062	0.084488
	N274	N	0.809040	0.462223	0.084773
	N275	N	0.809221	0.532335	0.908393
	O276	O	0.694826	0.392500	0.411152
	H277	H	0.682102	0.394423	0.378003
	H278	H	0.708661	0.371087	0.396142
	O279	O	0.336777	0.529348	0.635255
	H280	H	0.351352	0.530522	0.633541
	H281	H	0.341179	0.523396	0.641371
	O282	O	0.552677	0.292109	0.446352
	H283	H	0.582460	0.279631	0.463602
	H284	H	0.535939	0.296765	0.463931
	O285	O	0.792318	1.042536	0.111755
	H286	H	0.784713	1.024376	0.118300
	H287	H	0.809731	1.048592	0.115532
	O288	O	0.286127	0.369437	0.640132
	H289	H	0.298337	0.383087	0.649847
	H290	H	0.266232	0.369673	0.653171
	O291	O	0.516006	0.423162	0.709972
	H292	H	0.509610	0.423437	0.726656
	H293	H	0.525194	0.435138	0.703163
	O294	O	1.010231	0.978122	1.196788
	H295	H	0.998455	0.956124	1.207550
	H296	H	1.013989	0.971397	1.189663
	O297	O	0.368450	0.364419	0.506007
	H298	H	0.361755	0.366356	0.493159
	H299	H	0.391251	0.369546	0.494302
	O300	O	0.973886	0.199690	0.783295
	H301	H	0.993167	0.193622	0.771125
	H302	H	0.987155	0.209274	0.768115
	O303	O	0.563344	0.685524	0.609051
	H304	H	0.575790	0.704008	0.620041
	H305	H	0.581483	0.681787	0.601685
	O306	O	-0.005899	-0.152129	0.803372
	H307	H	-0.027478	-0.155347	0.803274
	H308	H	-0.014580	-0.169759	0.783090
	O309	O	1.091821	0.111813	0.027635
	H310	H	1.080739	0.108695	0.029600
	H311	H	1.103364	0.099729	0.015006
	O312	O	0.664143	0.547574	0.348882
	H313	H	0.671961	0.537968	0.350344
	H314	H	0.645219	0.553818	0.344607
	O315	O	0.275313	0.505625	0.314672
	H316	H	0.287028	0.486925	0.302772
	H317	H	0.268230	0.491554	0.305786
	O318	O	-0.108590	-0.205125	0.013900
	H319	H	-0.122741	-0.203560	0.007067
	H320	H	-0.131660	-0.202143	0.013029
	O321	O	0.591945	0.418438	0.706341
	H322	H	0.604595	0.397991	0.734745
	H323	H	0.573247	0.413747	0.688746
	O324	O	1.047617	-0.126689	1.023632
	H325	H	1.046846	-0.125287	1.038109
	H326	H	1.027948	-0.137676	1.020303
	O327	O	0.597391	0.564917	0.558900
	H328	H	0.614550	0.558825	0.575036
	H329	H	0.594837	0.570261	0.551121
	O330	O	-0.005221	1.143275	1.077406
	H331	H	0.015905	1.148934	1.074905
	H332	H	0.005052	1.144135	1.090661
	O333	O	-0.133677	0.808617	0.187984
	H334	H	-0.144672	0.801054	0.188263
	H335	H	-0.137354	0.810417	0.169776
	O336	O	0.780850	1.205008	-0.024057
	H337	H	0.770437	1.210736	-0.007572
	H338	H	0.777280	1.210441	-0.006262
	O339	O	0.058209	1.180150	0.943687
	H340	H	0.050347	1.180688	0.930330
	H341	H	0.068626	1.186441	0.955329
	O342	O	0.480215	0.506127	0.549344
	H343	H	0.478415	0.525921	0.542814
	H344	H	0.490276	0.511077	0.562898
	O345	O	-0.229697	0.015452	0.780495
	H346	H	-0.240025	0.042879	0.770042
	H347	H	-0.242230	0.044217	0.766936
	O348	O	0.282977	0.423684	0.424541
	H349	H	0.307615	0.423205	0.420187
	H350	H	0.271986	0.431002	0.431490
	O351	O	0.959607	0.949137	0.112088
	H352	H	0.951900	0.942471	0.093446
	H353	H	0.967709	0.964487	0.109998
	O354	O	1.133790	1.036178	0.932241
	H355	H	1.131023	1.031856	0.930781
	H356	H	1.136334	1.025018	0.929415
	O357	O	0.077786	-0.017191	-0.014240
	H358	H	0.077917	-0.011727	-0.016534
	H359	H	0.079189	-0.010644	-0.003292
	O360	O	0.316773	0.678100	0.323496
	H361	H	0.310112	0.683692	0.374875
	H362	H	0.300682	0.626799	0.310561
	O363	O	0.922229	-0.092533	-0.162540
	H364	H	0.916345	-0.081159	-0.179555
	H365	H	0.932660	-0.085815	-0.163396
	O366	O	0.184215	-0.098814	0.809704
	H367	H	0.174111	-0.101928	0.798165
	H368	H	0.186642	-0.101295	0.841710
	O369	O	1.131526	0.186206	1.187737
	H370	H	1.126045	0.190771	1.184676
	H371	H	1.136938	0.196946	1.185351
	O372	O	0.371588	0.304226	0.685254
	H373	H	0.351348	0.324779	0.667757
	H374	H	0.379288	0.305038	0.708126
	O375	O	0.681599	0.378832	1.434177
	H376	H	0.644236	0.370128	1.420658
	H377	H	0.684051	0.395383	1.425744
	O378	O	0.346610	0.621162	0.584074
	H379	H	0.341751	0.624054	0.610065
	H380	H	0.348083	0.622293	0.591805
	O381	O	-0.201387	0.975227	-0.022988
	H382	H	-0.199355	0.976412	-0.034753
	H383	H	-0.203891	0.997013	-0.041299
	O384	O	0.458870	0.682496	0.479296
	H385	H	0.450876	0.677276	0.478824
	H386	H	0.454841	0.683841	0.488081
	O387	O	0.287021	0.547885	0.489793
	H388	H	0.281332	0.552633	0.512238
	H389	H	0.290993	0.530396	0.487357
	O390	O	0.807965	1.172583	-0.185604
	H391	H	0.860582	1.183966	-0.195171
	H392	H	0.798061	1.185220	-0.131797
	O393	O	1.175523	0.073998	1.135890
	H394	H	1.184927	0.079432	1.154352
	H395	H	1.176338	0.082581	1.133386
	O396	O	0.490680	0.494700	0.299449
	H397	H	0.495882	0.504489	0.301151
	H398	H	0.495928	0.505849	0.303217
	O399	O	0.985610	0.918794	0.090929
	H400	H	0.979669	0.898211	0.092810
	H401	H	0.972076	0.927413	0.086671
	O402	O	1.139992	0.833058	0.030644
	H403	H	1.138997	0.829806	0.035677
	H404	H	1.129696	0.844867	0.049390
	O405	O	0.526627	0.576946	0.696507
	H406	H	0.545548	0.595942	0.715167
	H407	H	0.524962	0.588386	0.687330
	O408	O	0.637252	0.525856	0.400676
	H409	H	0.632199	0.506373	0.405197
	H410	H	0.618846	0.528462	0.387162
	O411	O	1.062295	1.156172	1.191101
	H412	H	1.075825	1.137299	1.188549
	H413	H	1.050367	1.177240	1.208041
	O414	O	0.596605	0.620231	0.487541
	H415	H	0.617195	0.631268	0.477359
	H416	H	0.603590	0.614538	0.479105
	O417	O	0.172264	0.914935	0.813529
	H418	H	0.186420	0.901837	0.825258
	H419	H	0.180369	0.912726	0.809849
	O420	O	0.019366	0.931183	0.775478
	H421	H	0.041320	0.930232	0.784458
	H422	H	0.041024	0.908184	0.757007
	O423	O	-0.141902	0.853869	-0.080088
	H424	H	-0.134700	0.862599	-0.095930
	H425	H	-0.159216	0.861022	-0.071646
	O426	O	0.474524	0.686305	0.271654
	H427	H	0.431931	0.690188	0.283793
	H428	H	0.464178	0.711312	0.241639
	O429	O	0.541990	0.282201	0.549535
	H430	H	0.541128	0.276991	0.571171
	H431	H	0.541517	0.289193	0.563778
	O432	O	0.577134	0.302420	0.294381
	H433	H	0.572557	0.301971	0.301450
	H434	H	0.576874	0.286476	0.302272
	O435	O	0.423127	-0.592155	0.311008
	H436	H	0.445673	-0.587651	0.324151
	H437	H	0.426612	-0.604497	0.297276
	O438	O	-0.196416	0.923153	1.142470
	H439	H	-0.192590	0.918402	1.144001
	H440	H	-0.195545	0.917005	1.149135
	O441	O	0.664221	0.676104	0.680079
	H442	H	0.678810	0.649845	0.677253
	H443	H	0.674574	0.669996	0.646910
