data_Molecule from HDF5

_cell_length_a		16.497216
_cell_length_b		16.422454
_cell_length_c		16.526656
_cell_angle_alpha	90.054170
_cell_angle_beta	89.827268
_cell_angle_gamma	89.983864
_symmetry_space_group_name_H-M	'P 1'
_symmetry_Int_Tables_number		1

loop_
	_symmetry_equiv_pos_as_xyz
	x,y,z

loop_
	_atom_site_label
	_atom_site_type_symbol
	_atom_site_fract_x
	_atom_site_fract_y
	_atom_site_fract_z
	H0	H	0.392612	0.842355	0.749310
	H1	H	0.604599	0.159684	0.748514
	H2	H	0.609424	0.844135	0.301637
	H3	H	0.396523	0.158492	0.307582
	H4	H	0.722618	0.396246	0.870176
	H5	H	0.720388	0.609299	0.184890
	H6	H	0.273869	0.611019	0.870412
	H7	H	0.275848	0.396336	0.182997
	H8	H	0.841137	0.726463	0.420235
	H9	H	0.155679	0.724684	0.631965
	H10	H	0.839608	0.281593	0.632516
	H11	H	0.154727	0.281363	0.422464
	H12	H	0.839923	0.398315	0.749032
	H13	H	0.155186	0.609800	0.748815
	H14	H	0.841194	0.610912	0.304518
	H15	H	0.153424	0.395181	0.303468
	H16	H	0.390581	0.725832	0.870313
	H17	H	0.604028	0.725578	0.183718
	H18	H	0.604823	0.281171	0.868678
	H19	H	0.395793	0.282568	0.184939
	H20	H	0.722326	0.843483	0.420345
	H21	H	0.719306	0.160591	0.631538
	H22	H	0.276425	0.843063	0.633197
	H23	H	0.279879	0.158779	0.423901
	H24	H	0.894628	0.344533	0.248675
	H25	H	0.105405	0.660575	0.251350
	H26	H	0.103909	0.346000	0.804768
	H27	H	0.892154	0.661204	0.806359
	H28	H	0.222486	0.894254	0.369991
	H29	H	0.219536	0.106215	0.683511
	H30	H	0.775530	0.109263	0.370098
	H31	H	0.777574	0.898578	0.684398
	H32	H	0.340597	0.220889	0.924805
	H33	H	0.656644	0.223027	0.130932
	H34	H	0.342471	0.777750	0.134654
	H35	H	0.657145	0.780964	0.923214
	H36	H	0.343166	0.891605	0.252967
	H37	H	0.657339	0.105481	0.246588
	H38	H	0.341548	0.105649	0.807720
	H39	H	0.656686	0.896725	0.805629
	H40	H	0.895212	0.223204	0.369078
	H41	H	0.101545	0.221650	0.684505
	H42	H	0.104860	0.778837	0.370175
	H43	H	0.895607	0.783786	0.685205
	H44	H	0.218074	0.344205	0.923005
	H45	H	0.221379	0.660154	0.133976
	H46	H	0.778808	0.343854	0.132824
	H47	H	0.777293	0.660710	0.924362
	H48	H	0.412041	0.112914	0.615753
	H49	H	0.587955	0.887737	0.618021
	H50	H	0.582810	0.111126	0.438729
	H51	H	0.411442	0.887937	0.443373
	H52	H	0.593532	0.414843	0.140337
	H53	H	0.587187	0.591834	0.915285
	H54	H	0.421762	0.591919	0.134869
	H55	H	0.412429	0.422207	0.918100
	H56	H	0.109166	0.585736	0.436281
	H57	H	0.886869	0.591362	0.614520
	H58	H	0.109419	0.410993	0.613390
	H59	H	0.885859	0.415535	0.437636
	H60	H	0.109903	0.416212	0.618538
	H61	H	0.885036	0.589635	0.618659
	H62	H	0.110588	0.593898	0.438196
	H63	H	0.884243	0.412336	0.438563
	H64	H	0.402698	0.596593	0.142973
	H65	H	0.591409	0.587630	0.915363
	H66	H	0.584581	0.414538	0.137204
	H67	H	0.416990	0.404674	0.913708
	H68	H	0.590322	0.113085	0.441230
	H69	H	0.584658	0.890290	0.614521
	H70	H	0.406790	0.113266	0.615475
	H71	H	0.409206	0.886126	0.437633
	H72	H	0.907801	0.616393	0.115669
	H73	H	0.079194	0.392574	0.117550
	H74	H	0.085045	0.614868	0.939222
	H75	H	0.906542	0.389378	0.939937
	H76	H	0.087248	0.908250	0.640894
	H77	H	0.090304	0.093883	0.412478
	H78	H	0.908413	0.094584	0.640560
	H79	H	0.902107	0.915651	0.411966
	H80	H	0.610441	0.085306	0.935714
	H81	H	0.387981	0.091252	0.114762
	H82	H	0.611483	0.910521	0.113486
	H83	H	0.385762	0.911645	0.936204
	H84	H	0.608508	0.915889	0.110169
	H85	H	0.387153	0.087984	0.119301
	H86	H	0.615090	0.093824	0.931914
	H87	H	0.386480	0.912084	0.940480
	H88	H	0.905600	0.088479	0.638606
	H89	H	0.090737	0.089592	0.413534
	H90	H	0.092717	0.916688	0.639877
	H91	H	0.915354	0.921198	0.418452
	H92	H	0.087929	0.616252	0.939608
	H93	H	0.087615	0.392482	0.108667
	H94	H	0.910307	0.615963	0.118436
	H95	H	0.910465	0.388661	0.933944
	H96	H	0.409419	0.115183	0.620611
	H97	H	0.590258	0.889148	0.613108
	H98	H	0.587804	0.115137	0.433506
	H99	H	0.415122	0.888405	0.438378
	H100	H	0.588521	0.406522	0.141162
	H101	H	0.585986	0.586211	0.917987
	H102	H	0.406748	0.577388	0.134167
	H103	H	0.399576	0.410649	0.910277
	H104	H	0.107261	0.588788	0.443541
	H105	H	0.884744	0.594234	0.617394
	H106	H	0.112428	0.409903	0.620328
	H107	H	0.886160	0.414310	0.441524
	H108	H	0.910970	0.614966	0.115306
	H109	H	0.090579	0.388112	0.119751
	H110	H	0.086347	0.616378	0.937014
	H111	H	0.913446	0.391269	0.939529
	H112	H	0.083444	0.916138	0.636671
	H113	H	0.087191	0.091541	0.414204
	H114	H	0.912076	0.090204	0.637415
	H115	H	0.914854	0.905854	0.413278
	H116	H	0.611785	0.093554	0.941621
	H117	H	0.384406	0.093504	0.119334
	H118	H	0.609780	0.916836	0.117067
	H119	H	0.388313	0.914930	0.937360
	C120	C	0.377330	0.009005	0.649070
	C121	C	0.619795	0.993673	0.647871
	C122	C	0.621041	0.009187	0.404637
	C123	C	0.379582	0.991842	0.407115
	C124	C	0.621521	0.379728	0.035392
	C125	C	0.620226	0.622516	1.019696
	C126	C	0.376750	0.623277	0.034531
	C127	C	0.377715	0.380920	1.018404
	C128	C	0.006192	0.624051	0.405914
	C129	C	0.989675	0.624345	0.648651
	C130	C	0.005968	0.380955	0.649360
	C131	C	0.989367	0.381658	0.406505
	C132	C	0.877703	0.511379	0.148991
	C133	C	0.119111	0.494790	0.148617
	C134	C	0.119086	0.511666	0.906027
	C135	C	0.877625	0.494519	0.906315
	C136	C	0.120363	0.880428	0.535088
	C137	C	0.120524	0.123550	0.517771
	C138	C	0.876633	0.123760	0.535155
	C139	C	0.878096	0.881513	0.518433
	C140	C	0.507891	0.122755	0.905465
	C141	C	0.490781	0.122957	0.148821
	C142	C	0.507126	0.880007	0.148090
	C143	C	0.490833	0.879952	0.905541
	C144	C	0.374702	0.890072	0.709200
	C145	C	0.622219	0.112385	0.708356
	C146	C	0.626020	0.891174	0.342936
	C147	C	0.377734	0.111032	0.347594
	C148	C	0.681859	0.378056	0.917093
	C149	C	0.680007	0.626368	0.137913
	C150	C	0.315112	0.627466	0.917173
	C151	C	0.316957	0.378740	0.136374
	C152	C	0.888518	0.686029	0.402747
	C153	C	0.108295	0.684644	0.650521
	C154	C	0.887313	0.321232	0.651380
	C155	C	0.107453	0.321254	0.403775
	C156	C	0.887353	0.379482	0.709237
	C157	C	0.107966	0.627295	0.708622
	C158	C	0.888290	0.628491	0.344806
	C159	C	0.106935	0.378376	0.345061
	C160	C	0.373244	0.685041	0.917127
	C161	C	0.621994	0.684124	0.137399
	C162	C	0.623524	0.320506	0.916518
	C163	C	0.376531	0.322255	0.137375
	C164	C	0.682593	0.890995	0.401880
	C165	C	0.679425	0.112799	0.649866
	C166	C	0.316826	0.890201	0.651347
	C167	C	0.319735	0.111155	0.405278
	C168	C	0.875918	0.391968	0.208841
	C169	C	0.123087	0.613179	0.210334
	C170	C	0.122129	0.393138	0.845136
	C171	C	0.874328	0.613591	0.846444
	C172	C	0.181549	0.876828	0.416966
	C173	C	0.179712	0.124889	0.636370
	C174	C	0.816396	0.126960	0.416918
	C175	C	0.817694	0.879996	0.637087
	C176	C	0.388510	0.181580	0.905360
	C177	C	0.609280	0.183019	0.150125
	C178	C	0.389480	0.818112	0.152497
	C179	C	0.609602	0.820264	0.903802
	C180	C	0.390113	0.874825	0.211411
	C181	C	0.609798	0.124329	0.207424
	C182	C	0.388859	0.124577	0.846768
	C183	C	0.609602	0.878217	0.845901
	C184	C	0.875569	0.183691	0.416472
	C185	C	0.121202	0.182391	0.636757
	C186	C	0.123175	0.819267	0.417018
	C187	C	0.876508	0.823180	0.637791
	C188	C	0.178748	0.392216	0.904148
	C189	C	0.180726	0.613259	0.151957
	C190	C	0.818271	0.391704	0.151185
	C191	C	0.817003	0.613394	0.904860
	C192	C	0.402414	0.092117	0.624367
	C193	C	0.594759	0.910811	0.622576
	C194	C	0.594412	0.091710	0.430430
	C195	C	0.404856	0.909078	0.432330
	C196	C	0.596270	0.404758	0.118006
	C197	C	0.595095	0.596160	0.937563
	C198	C	0.402993	0.596534	0.116115
	C199	C	0.402738	0.405460	0.935534
	C200	C	0.087772	0.596997	0.431931
	C201	C	0.907111	0.599082	0.623804
	C202	C	0.089041	0.405341	0.624615
	C203	C	0.906961	0.406919	0.432003
	C204	C	0.902638	0.594159	0.123673
	C205	C	0.093101	0.412725	0.122662
	C206	C	0.093774	0.594311	0.931394
	C207	C	0.902993	0.411421	0.930770
	C208	C	0.095089	0.906223	0.617454
	C209	C	0.096322	0.098718	0.435076
	C210	C	0.901389	0.098318	0.617433
	C211	C	0.903522	0.906760	0.436031
	C212	C	0.590698	0.098076	0.929555
	C213	C	0.407951	0.098200	0.124649
	C214	C	0.588757	0.906844	0.121215
	C215	C	0.408244	0.905361	0.930856
	Zn216	Zn	0.498687	0.000929	0.776878
	Zn217	Zn	0.499781	0.000318	0.277046
	Zn218	Zn	0.749619	0.502375	0.028021
	Zn219	Zn	0.247897	0.502674	0.026687
	Zn220	Zn	-0.001836	0.752325	0.527223
	Zn221	Zn	-0.001899	0.252060	0.527352
	Zn222	Zn	-0.002236	0.503574	0.777635
	Zn223	Zn	-0.002530	0.502905	0.277081
	Zn224	Zn	0.499068	0.751385	0.026538
	Zn225	Zn	0.499453	0.251374	0.026716
	Zn226	Zn	0.748763	0.001871	0.526565
	Zn227	Zn	0.249477	0.000874	0.526821
	N228	N	0.411703	0.965044	0.707713
	N229	N	0.585670	0.037181	0.707026
	N230	N	0.588702	0.965877	0.344533
	N231	N	0.414204	0.035879	0.348448
	N232	N	0.680959	0.413995	0.992259
	N233	N	0.678852	0.588538	0.063744
	N234	N	0.317198	0.589895	0.991267
	N235	N	0.317485	0.414325	0.061274
	N236	N	0.962801	0.683483	0.440039
	N237	N	0.033575	0.683124	0.614094
	N238	N	0.962299	0.321900	0.614906
	N239	N	0.033436	0.323354	0.441450
	N240	N	0.962381	0.415638	0.708254
	N241	N	0.033224	0.590469	0.707562
	N242	N	0.962578	0.590720	0.346452
	N243	N	0.032521	0.415541	0.346906
	N244	N	0.411099	0.682396	0.991096
	N245	N	0.585502	0.681812	0.062867
	N246	N	0.586865	0.321309	0.991247
	N247	N	0.413527	0.323264	0.062798
	N248	N	0.679791	0.965613	0.439409
	N249	N	0.677981	0.038002	0.612811
	N250	N	0.318467	0.965138	0.614489
	N251	N	0.320588	0.036002	0.441418
	N252	N	0.911792	0.467396	0.207593
	N253	N	0.085933	0.538424	0.208684
	N254	N	0.086070	0.468583	0.845940
	N255	N	0.911218	0.538556	0.847419
	N256	N	0.179955	0.913856	0.491527
	N257	N	0.179636	0.088972	0.561388
	N258	N	0.816862	0.090725	0.491716
	N259	N	0.818232	0.915292	0.561672
	N260	N	0.463624	0.180976	0.940876
	N261	N	0.534272	0.182382	0.114507
	N262	N	0.463053	0.821266	0.113642
	N263	N	0.534476	0.821002	0.939728
	N264	N	0.464423	0.912549	0.208766
	N265	N	0.534927	0.087811	0.206843
	N266	N	0.464167	0.088965	0.846622
	N267	N	0.534558	0.914186	0.846635
	N268	N	0.912128	0.181940	0.491118
	N269	N	0.085373	0.181864	0.561879
	N270	N	0.085797	0.821497	0.491372
	N271	N	0.912923	0.823849	0.562909
	N272	N	0.177010	0.467032	0.941130
	N273	N	0.178659	0.538611	0.114503
	N274	N	0.819367	0.466771	0.114514
	N275	N	0.818928	0.538262	0.941315
	O276	O	0.109002	0.003994	0.220593
	H277	H	0.107448	0.004598	0.207551
	H278	H	0.136698	0.011784	0.241177
	O279	O	1.084385	1.205874	0.229864
	H280	H	1.099277	1.222319	0.247595
	H281	H	1.071004	1.197944	0.236953
	O282	O	0.433505	0.589942	0.577569
	H283	H	0.432200	0.590557	0.576217
	H284	H	0.437399	0.586823	0.582437
	O285	O	0.474595	0.285514	0.745166
	H286	H	0.448772	0.288252	0.740602
	H287	H	0.464356	0.260696	0.763361
	O288	O	0.136721	0.135042	-0.147914
	H289	H	0.124175	0.146026	-0.145462
	H290	H	0.128879	0.129600	-0.148738
	O291	O	0.954630	0.987576	0.246417
	H292	H	0.935646	0.962452	0.242126
	H293	H	0.947544	0.982226	0.260852
	O294	O	-0.146741	1.034541	0.040519
	H295	H	-0.143357	1.024161	0.044947
	H296	H	-0.141244	1.043381	0.051430
	O297	O	0.523785	0.297939	0.548336
	H298	H	0.516003	0.291672	0.551152
	H299	H	0.527238	0.300368	0.547562
	O300	O	0.308481	0.315042	0.341061
	H301	H	0.323463	0.336006	0.356367
	H302	H	0.330649	0.336706	0.355652
	O303	O	0.519082	0.489356	0.742477
	H304	H	0.503529	0.504777	0.738830
	H305	H	0.498068	0.461412	0.747597
	O306	O	0.157469	1.186404	1.002680
	H307	H	0.150964	1.186153	1.028088
	H308	H	0.165080	1.204338	1.027505
	O309	O	0.486117	0.698962	0.323389
	H310	H	0.487846	0.710504	0.301136
	H311	H	0.499325	0.697081	0.348528
	O312	O	0.016407	0.916397	0.036421
	H313	H	0.024343	0.910537	0.038203
	H314	H	0.018738	0.912074	0.031516
	O315	O	-0.137252	0.158579	1.195915
	H316	H	-0.126117	0.163119	1.190983
	H317	H	-0.139730	0.151608	1.214596
	O318	O	0.498546	0.575233	0.550828
	H319	H	0.487431	0.590225	0.559652
	H320	H	0.490835	0.594844	0.564415
	O321	O	0.440798	0.547634	0.594542
	H322	H	0.450236	0.552311	0.604340
	H323	H	0.434023	0.550614	0.603428
	O324	O	0.685132	0.569670	0.364494
	H325	H	0.675325	0.568821	0.352184
	H326	H	0.685746	0.554297	0.359189
	O327	O	1.215032	0.214885	1.161113
	H328	H	1.216669	0.211728	1.185199
	H329	H	1.234647	0.231981	1.182026
	O330	O	0.330963	0.474277	-0.482117
	H331	H	0.330827	0.482404	-0.498180
	H332	H	0.317916	0.478477	-0.483142
	O333	O	0.838493	0.859017	1.215296
	H334	H	0.828816	0.849160	1.177503
	H335	H	0.849759	0.851528	1.224879
	O336	O	0.283102	-0.522751	0.745511
	H337	H	0.284376	-0.545718	0.728157
	H338	H	0.251094	-0.527341	0.771599
	O339	O	0.350265	0.518367	0.329671
	H340	H	0.345447	0.541935	0.329546
	H341	H	0.346337	0.526983	0.318909
	O342	O	0.859062	0.044504	0.149099
	H343	H	0.865031	0.026885	0.166503
	H344	H	0.847107	0.027992	0.137729
	O345	O	0.713665	0.718232	0.555845
	H346	H	0.732737	0.727335	0.566425
	H347	H	0.719508	0.715339	0.537198
	O348	O	1.203460	-0.212185	1.009995
	H349	H	1.209221	-0.233243	1.018162
	H350	H	1.218543	-0.210766	1.005599
	O351	O	1.171765	0.826054	-0.061777
	H352	H	1.170921	0.822927	-0.025337
	H353	H	1.144467	0.817164	-0.074350
	O354	O	0.325927	0.599623	0.438022
	H355	H	0.319282	0.608354	0.452351
	H356	H	0.341359	0.603899	0.431855
	O357	O	0.981037	0.807095	1.174610
	H358	H	1.002038	0.818185	1.190369
	H359	H	0.961025	0.795307	1.189000
	O360	O	0.460559	0.287642	0.493699
	H361	H	0.465948	0.285635	0.478995
	H362	H	0.466608	0.292232	0.508134
	O363	O	1.184990	0.070900	0.179578
	H364	H	1.203619	0.077203	0.180443
	H365	H	1.183140	0.073567	0.189097
	O366	O	0.876064	0.193369	0.849046
	H367	H	0.877519	0.174116	0.850319
	H368	H	0.868665	0.197017	0.868534
	O369	O	0.640140	0.362733	-0.394317
	H370	H	0.641034	0.355511	-0.397488
	H371	H	0.640286	0.362025	-0.379320
	O372	O	0.600503	0.538948	0.482998
	H373	H	0.601848	0.539227	0.493132
	H374	H	0.595667	0.536449	0.499963
	O375	O	-0.479300	0.728658	1.508603
	H376	H	-0.475662	0.735061	1.516789
	H377	H	-0.462578	0.725736	1.526824
	O378	O	0.542398	0.387984	0.330460
	H379	H	0.550931	0.390037	0.319647
	H380	H	0.535165	0.381391	0.316840
	O381	O	1.121553	-0.037188	-0.163014
	H382	H	1.117930	-0.051103	-0.164115
	H383	H	1.127660	-0.031562	-0.161336
	O384	O	-0.112543	0.035004	0.881930
	H385	H	-0.090472	0.026805	0.882581
	H386	H	-0.115149	0.057123	0.904049
	O387	O	-0.102599	0.818066	1.020446
	H388	H	-0.101345	0.825016	1.005607
	H389	H	-0.087260	0.822381	1.024832
	O390	O	-0.003694	-0.170312	0.879175
	H391	H	-0.014205	-0.164903	0.885302
	H392	H	0.004926	-0.181333	0.862706
	O393	O	0.286995	0.707723	-0.486198
	H394	H	0.305695	0.701344	-0.462450
	H395	H	0.264288	0.732848	-0.482691
	O396	O	0.646474	0.441433	0.470100
	H397	H	0.644676	0.419015	0.482109
	H398	H	0.653390	0.431868	0.450886
	O399	O	0.712468	0.496005	0.523566
	H400	H	0.711243	0.495794	0.531358
	H401	H	0.710276	0.500436	0.509877
	O402	O	-0.091242	0.051967	0.983396
	H403	H	-0.086583	0.071342	0.990693
	H404	H	-0.080251	0.043991	0.970892
	O405	O	-0.024605	0.206739	-0.064364
	H406	H	-0.029104	0.215134	-0.081042
	H407	H	-0.060302	0.201101	-0.064204
	O408	O	0.938325	1.148356	0.128270
	H409	H	0.937745	1.151015	0.126571
	H410	H	0.941687	1.136390	0.118611
	O411	O	-0.201772	0.864569	0.002341
	H412	H	-0.216592	0.871637	-0.006529
	H413	H	-0.177762	0.849408	-0.019944
	O414	O	0.300125	0.616547	0.325586
	H415	H	0.312896	0.624602	0.303910
	H416	H	0.301305	0.643376	0.361086
	O417	O	0.328775	0.340233	0.717595
	H418	H	0.328383	0.336738	0.680312
	H419	H	0.321462	0.341646	0.730451
	O420	O	0.692135	0.691489	0.715130
	H421	H	0.684405	0.656566	0.726653
	H422	H	0.696961	0.684239	0.683279
	O423	O	0.031487	0.998209	-0.026044
	H424	H	0.034278	0.991745	-0.016903
	H425	H	0.045065	0.998977	-0.027341
	O426	O	1.184855	1.114540	0.922700
	H427	H	1.189634	1.143934	0.927122
	H428	H	1.178304	1.110706	0.906473
	O429	O	0.706747	0.294177	0.442023
	H430	H	0.715129	0.292994	0.452209
	H431	H	0.706469	0.279092	0.448244
	O432	O	0.633510	0.299614	0.324173
	H433	H	0.638203	0.300981	0.325502
	H434	H	0.619103	0.299912	0.331281
	O435	O	0.220112	-0.045097	0.021284
	H436	H	0.220745	-0.031899	0.000228
	H437	H	0.221259	-0.026170	0.026252
	O438	O	0.852130	0.010021	-0.175472
	H439	H	0.848172	0.013154	-0.170777
	H440	H	0.853289	0.033187	-0.172580
	O441	O	1.091893	0.973769	-0.033142
	H442	H	1.101810	0.979631	-0.055162
	H443	H	1.090247	0.954680	-0.019183
	O444	O	0.704565	0.527850	0.734279
	H445	H	0.706703	0.509623	0.754709
	H446	H	0.698817	0.503808	0.725332
	O447	O	0.529536	0.720818	0.748933
	H448	H	0.543204	0.707752	0.757508
	H449	H	0.545033	0.744237	0.776612
	O450	O	0.486648	0.433918	0.376440
	H451	H	0.494837	0.433604	0.367754
	H452	H	0.479956	0.436986	0.391620
	O453	O	1.009197	0.801794	0.124784
	H454	H	1.014968	0.792319	0.120025
	H455	H	1.004469	0.800345	0.146577
	O456	O	0.878013	-0.134034	-0.149093
	H457	H	0.881213	-0.117702	-0.147103
	H458	H	0.861335	-0.134721	-0.164677
	O459	O	0.301632	0.344173	0.549785
	H460	H	0.296101	0.345395	0.533180
	H461	H	0.283859	0.342457	0.552234
	O462	O	0.350521	0.536271	0.601447
	H463	H	0.351605	0.529461	0.593945
	H464	H	0.369043	0.543306	0.593570
	O465	O	0.782947	0.188563	-0.001857
	H466	H	0.758194	0.209141	0.001290
	H467	H	0.802012	0.183570	0.029646
