data_Molecule from HDF5

_cell_length_a		16.204377
_cell_length_b		16.214126
_cell_length_c		16.208859
_cell_angle_alpha	90.226038
_cell_angle_beta	89.638398
_cell_angle_gamma	89.781280
_symmetry_space_group_name_H-M	'P 1'
_symmetry_Int_Tables_number		1

loop_
	_symmetry_equiv_pos_as_xyz
	x,y,z

loop_
	_atom_site_label
	_atom_site_type_symbol
	_atom_site_fract_x
	_atom_site_fract_y
	_atom_site_fract_z
	H0	H	0.397393	0.838497	0.711327
	H1	H	0.593810	0.166065	0.711151
	H2	H	0.597204	0.838060	0.280590
	H3	H	0.396630	0.165904	0.283064
	H4	H	0.712322	0.401071	0.834376
	H5	H	0.708966	0.604946	0.160712
	H6	H	0.284057	0.599362	0.832009
	H7	H	0.280834	0.405698	0.161417
	H8	H	0.831925	0.716059	0.399989
	H9	H	0.160382	0.715208	0.596502
	H10	H	0.831040	0.288957	0.596181
	H11	H	0.159503	0.284983	0.395210
	H12	H	0.832275	0.403326	0.712781
	H13	H	0.160859	0.599905	0.710970
	H14	H	0.831358	0.600765	0.284643
	H15	H	0.158750	0.399370	0.279991
	H16	H	0.396347	0.715817	0.832928
	H17	H	0.592406	0.717451	0.161132
	H18	H	0.595604	0.287044	0.833420
	H19	H	0.394838	0.288910	0.161636
	H20	H	0.712653	0.838069	0.395995
	H21	H	0.708238	0.166380	0.596009
	H22	H	0.280989	0.838715	0.597738
	H23	H	0.280042	0.166118	0.398720
	H24	H	0.895050	0.337716	0.211581
	H25	H	0.093188	0.665854	0.212468
	H26	H	0.095279	0.337867	0.783522
	H27	H	0.896481	0.666051	0.784013
	H28	H	0.213149	0.901126	0.332984
	H29	H	0.208118	0.102326	0.661856
	H30	H	0.781834	0.100385	0.333239
	H31	H	0.781313	0.904577	0.662315
	H32	H	0.331420	0.216063	0.899365
	H33	H	0.659361	0.217808	0.096345
	H34	H	0.329915	0.791298	0.095688
	H35	H	0.659018	0.784184	0.895250
	H36	H	0.332196	0.903543	0.213241
	H37	H	0.660747	0.101389	0.210594
	H38	H	0.331742	0.099914	0.785588
	H39	H	0.659826	0.901543	0.781520
	H40	H	0.896863	0.215446	0.333086
	H41	H	0.093821	0.217578	0.660468
	H42	H	0.096037	0.786161	0.332974
	H43	H	0.897378	0.788533	0.662712
	H44	H	0.211149	0.338510	0.896852
	H45	H	0.207341	0.667655	0.095402
	H46	H	0.778942	0.338943	0.097742
	H47	H	0.780533	0.665885	0.899416
	H48	H	0.401080	0.119532	0.588055
	H49	H	0.586936	0.882828	0.596055
	H50	H	0.594562	0.121072	0.402186
	H51	H	0.403321	0.884823	0.404339
	H52	H	0.597221	0.409420	0.118503
	H53	H	0.583113	0.594161	0.881260
	H54	H	0.404981	0.593689	0.112893
	H55	H	0.399218	0.407104	0.877185
	H56	H	0.114812	0.591883	0.399020
	H57	H	0.878869	0.592071	0.595684
	H58	H	0.117094	0.406310	0.597591
	H59	H	0.883154	0.410411	0.419542
	H60	H	0.113799	0.401611	0.583649
	H61	H	0.877735	0.599177	0.591274
	H62	H	0.113439	0.597065	0.405798
	H63	H	0.878637	0.420839	0.395275
	H64	H	0.401354	0.603745	0.116517
	H65	H	0.590480	0.597148	0.878246
	H66	H	0.581966	0.421107	0.110817
	H67	H	0.403982	0.413195	0.881818
	H68	H	0.585676	0.119532	0.400696
	H69	H	0.585172	0.886875	0.584080
	H70	H	0.398604	0.121827	0.593900
	H71	H	0.406422	0.885466	0.404088
	H72	H	0.908685	0.617074	0.090852
	H73	H	0.089156	0.385093	0.087321
	H74	H	0.084258	0.619783	0.901009
	H75	H	0.906888	0.386025	0.906247
	H76	H	0.084614	0.902635	0.614701
	H77	H	0.087527	0.094256	0.379963
	H78	H	0.902720	0.093760	0.613639
	H79	H	0.900770	0.903718	0.378304
	H80	H	0.613773	0.092427	0.903013
	H81	H	0.378902	0.091968	0.093859
	H82	H	0.609111	0.914612	0.081315
	H83	H	0.379846	0.904411	0.914436
	H84	H	0.614582	0.911118	0.097766
	H85	H	0.377553	0.097982	0.091934
	H86	H	0.614290	0.096049	0.901347
	H87	H	0.380512	0.920508	0.903353
	H88	H	0.902925	0.098072	0.615822
	H89	H	0.091169	0.091856	0.378753
	H90	H	0.095313	0.907169	0.616439
	H91	H	0.902157	0.911674	0.381042
	H92	H	0.090047	0.618488	0.909289
	H93	H	0.090489	0.384146	0.088513
	H94	H	0.898727	0.618286	0.085537
	H95	H	0.899932	0.384707	0.907680
	H96	H	0.404942	0.119603	0.593551
	H97	H	0.595616	0.882891	0.588241
	H98	H	0.588648	0.117744	0.408945
	H99	H	0.405969	0.885581	0.406980
	H100	H	0.579375	0.400226	0.114796
	H101	H	0.589989	0.589878	0.881572
	H102	H	0.393344	0.595757	0.116596
	H103	H	0.406821	0.404792	0.879232
	H104	H	0.111780	0.589003	0.406099
	H105	H	0.880991	0.591521	0.586301
	H106	H	0.109484	0.416212	0.587162
	H107	H	0.872787	0.394425	0.399759
	H108	H	0.899908	0.621550	0.097496
	H109	H	0.088993	0.386323	0.089710
	H110	H	0.093977	0.623428	0.900912
	H111	H	0.903442	0.383189	0.900515
	H112	H	0.086628	0.914082	0.613044
	H113	H	0.087772	0.089311	0.381497
	H114	H	0.898767	0.095118	0.614839
	H115	H	0.909321	0.905768	0.381013
	H116	H	0.614471	0.095887	0.905666
	H117	H	0.380045	0.094290	0.088081
	H118	H	0.614700	0.899225	0.085556
	H119	H	0.374192	0.904282	0.896241
	C120	C	0.373253	0.011699	0.620143
	C121	C	0.617296	0.993036	0.618197
	C122	C	0.618534	0.010807	0.374782
	C123	C	0.375539	0.993504	0.376377
	C124	C	0.616694	0.380618	0.006426
	C125	C	0.616003	0.623707	0.988349
	C126	C	0.372750	0.624775	0.005981
	C127	C	0.373715	0.380375	0.988334
	C128	C	0.004637	0.622231	0.375782
	C129	C	0.987742	0.622842	0.619520
	C130	C	0.004596	0.379704	0.618970
	C131	C	0.986816	0.379209	0.374960
	C132	C	0.872907	0.510972	0.120193
	C133	C	0.117143	0.493895	0.118140
	C134	C	0.117899	0.511440	0.875323
	C135	C	0.874173	0.493015	0.876073
	C136	C	0.118661	0.878728	0.506036
	C137	C	0.117033	0.122426	0.488522
	C138	C	0.873627	0.123506	0.506057
	C139	C	0.874964	0.879622	0.489158
	C140	C	0.505146	0.123477	0.875820
	C141	C	0.487387	0.123814	0.119353
	C142	C	0.504341	0.880516	0.118310
	C143	C	0.486837	0.879935	0.875042
	C144	C	0.376261	0.887920	0.674634
	C145	C	0.614340	0.116937	0.673366
	C146	C	0.617072	0.887165	0.318652
	C147	C	0.377035	0.117105	0.321380
	C148	C	0.673645	0.381589	0.883129
	C149	C	0.671234	0.623741	0.111597
	C150	C	0.320006	0.620746	0.881634
	C151	C	0.318355	0.384334	0.112241
	C152	C	0.880994	0.678205	0.379259
	C153	C	0.111292	0.677708	0.616770
	C154	C	0.880514	0.325914	0.616645
	C155	C	0.110274	0.322942	0.375634
	C156	C	0.881147	0.382820	0.674703
	C157	C	0.111549	0.620404	0.673895
	C158	C	0.880696	0.620860	0.321819
	C159	C	0.109912	0.379876	0.318289
	C160	C	0.375986	0.678659	0.882153
	C161	C	0.613499	0.680182	0.111787
	C162	C	0.615746	0.324680	0.882734
	C163	C	0.375040	0.326179	0.112191
	C164	C	0.674626	0.887146	0.375896
	C165	C	0.671189	0.117043	0.616125
	C166	C	0.318392	0.888068	0.618150
	C167	C	0.319035	0.117174	0.378810
	C168	C	0.874653	0.387156	0.174631
	C169	C	0.113524	0.617114	0.174114
	C170	C	0.115845	0.387289	0.820620
	C171	C	0.876507	0.616882	0.821698
	C172	C	0.175070	0.880849	0.382359
	C173	C	0.171091	0.121834	0.612200
	C174	C	0.819315	0.120713	0.382348
	C175	C	0.819394	0.883348	0.613043
	C176	C	0.380929	0.178400	0.879116
	C177	C	0.610614	0.179446	0.116463
	C178	C	0.379884	0.827266	0.116451
	C179	C	0.610005	0.823078	0.875964
	C180	C	0.380943	0.883175	0.174948
	C181	C	0.611323	0.121722	0.173382
	C182	C	0.380937	0.120749	0.822287
	C183	C	0.610291	0.880890	0.818831
	C184	C	0.876279	0.178072	0.382317
	C185	C	0.114064	0.179225	0.611648
	C186	C	0.116863	0.823691	0.382092
	C187	C	0.876829	0.825581	0.613048
	C188	C	0.173687	0.387769	0.876921
	C189	C	0.170329	0.618054	0.115831
	C190	C	0.816987	0.387690	0.117699
	C191	C	0.818507	0.616878	0.878777
	C192	C	0.394951	0.098047	0.598444
	C193	C	0.595779	0.906554	0.595842
	C194	C	0.596208	0.096975	0.397299
	C195	C	0.398551	0.907438	0.398490
	C196	C	0.593222	0.403547	0.092469
	C197	C	0.594207	0.600496	0.902443
	C198	C	0.393585	0.603685	0.092787
	C199	C	0.396525	0.401925	0.901774
	C200	C	0.090854	0.599344	0.397225
	C201	C	0.901523	0.600792	0.597450
	C202	C	0.091147	0.401448	0.596221
	C203	C	0.900549	0.402001	0.397907
	C204	C	0.895680	0.596791	0.097970
	C205	C	0.095816	0.407408	0.095185
	C206	C	0.095678	0.598138	0.897298
	C207	C	0.896623	0.406895	0.898248
	C208	C	0.095555	0.901275	0.592393
	C209	C	0.095202	0.098760	0.402199
	C210	C	0.895151	0.101956	0.592254
	C211	C	0.897383	0.900839	0.402644
	C212	C	0.591837	0.101248	0.897079
	C213	C	0.401132	0.101414	0.097703
	C214	C	0.590514	0.902002	0.095169
	C215	C	0.400627	0.902956	0.897911
	Zn216	Zn	0.496130	0.002498	0.747149
	Zn217	Zn	0.496891	0.002091	0.247111
	Zn218	Zn	0.744564	0.502314	-0.002108
	Zn219	Zn	0.245784	0.503164	-0.003424
	Zn220	Zn	-0.003487	0.750568	0.497716
	Zn221	Zn	-0.004401	0.251220	0.496796
	Zn222	Zn	-0.003326	0.501612	0.747974
	Zn223	Zn	-0.004459	0.500824	0.246974
	Zn224	Zn	0.494305	0.752110	-0.002908
	Zn225	Zn	0.495536	0.251896	-0.002501
	Zn226	Zn	0.745784	0.001956	0.497504
	Zn227	Zn	0.246043	0.002121	0.498074
	N228	N	0.410076	0.965693	0.675873
	N229	N	0.581425	0.038892	0.674782
	N230	N	0.582897	0.964952	0.317840
	N231	N	0.411441	0.039331	0.319900
	N232	N	0.674503	0.415497	0.961066
	N233	N	0.672973	0.589023	0.033957
	N234	N	0.317656	0.588200	0.959894
	N235	N	0.317474	0.417418	0.034188
	N236	N	0.959072	0.679250	0.412071
	N237	N	0.033256	0.679395	0.583730
	N238	N	0.958474	0.323886	0.582514
	N239	N	0.032603	0.322223	0.410251
	N240	N	0.959342	0.415435	0.676259
	N241	N	0.033666	0.587025	0.675789
	N242	N	0.958486	0.586523	0.319659
	N243	N	0.031974	0.414035	0.317655
	N244	N	0.408011	0.681330	0.960417
	N245	N	0.579790	0.680487	0.034142
	N246	N	0.580960	0.324008	0.960398
	N247	N	0.408526	0.323521	0.033910
	N248	N	0.675895	0.964979	0.409996
	N249	N	0.673063	0.039036	0.582496
	N250	N	0.316545	0.965867	0.584835
	N251	N	0.318069	0.039350	0.412480
	N252	N	0.909111	0.464613	0.175979
	N253	N	0.081218	0.538733	0.175468
	N254	N	0.081951	0.465190	0.819637
	N255	N	0.910233	0.538837	0.819925
	N256	N	0.176452	0.914221	0.460613
	N257	N	0.172751	0.087019	0.534564
	N258	N	0.817388	0.087480	0.460323
	N259	N	0.817793	0.916053	0.534908
	N260	N	0.459248	0.180494	0.911341
	N261	N	0.532637	0.180844	0.083643
	N262	N	0.457580	0.825562	0.081647
	N263	N	0.532162	0.822378	0.910152
	N264	N	0.459366	0.915337	0.176409
	N265	N	0.533675	0.087728	0.175250
	N266	N	0.459179	0.087272	0.820020
	N267	N	0.532722	0.915661	0.818062
	N268	N	0.909440	0.180055	0.460146
	N269	N	0.081051	0.179769	0.533559
	N270	N	0.082629	0.822068	0.459998
	N271	N	0.910558	0.823168	0.534853
	N272	N	0.175089	0.465918	0.910496
	N273	N	0.172773	0.540314	0.081804
	N274	N	0.815584	0.465708	0.084620
	N275	N	0.816851	0.538879	0.912013
	O276	O	0.077428	-0.018816	0.027002
	H277	H	0.070906	-0.019275	0.030037
	H278	H	0.076421	-0.018983	0.027086
	O279	O	0.511335	0.429959	0.407949
	H280	H	0.510590	0.425814	0.406878
	H281	H	0.490976	0.436881	0.405349
	O282	O	0.497333	0.442306	0.547728
	H283	H	0.498779	0.441254	0.544878
	H284	H	0.502643	0.443411	0.555599
	O285	O	0.028853	1.096210	1.077156
	H286	H	0.028620	1.097238	1.084616
	H287	H	0.016986	1.090631	1.069272
	O288	O	0.594768	0.448990	0.394664
	H289	H	0.583664	0.440387	0.398084
	H290	H	0.593025	0.443646	0.385578
	O291	O	0.916250	0.988823	0.954655
	H292	H	0.913082	0.989196	0.944709
	H293	H	0.926970	0.997977	0.961274
	O294	O	1.096674	0.862700	0.921713
	H295	H	1.086926	0.863083	0.910342
	H296	H	1.102127	0.868345	0.920812
	O297	O	0.967316	0.031929	0.949787
	H298	H	0.963567	0.034055	0.938708
	H299	H	0.979750	0.037096	0.960707
	O300	O	0.549139	0.508174	0.570152
	H301	H	0.545059	0.499808	0.578799
	H302	H	0.553151	0.514130	0.580711
	O303	O	1.014106	-0.059438	-0.044600
	H304	H	1.014132	-0.057556	-0.046735
	H305	H	1.021268	-0.067213	-0.046287
	O306	O	-0.007767	0.979677	0.979726
	H307	H	-0.012523	0.973275	0.977958
	H308	H	-0.001336	0.972094	0.981239
	O309	O	0.593630	0.595641	0.447172
	H310	H	0.597454	0.593781	0.435007
	H311	H	0.591547	0.593606	0.436898
	O312	O	1.029668	0.069900	1.009535
	H313	H	1.019674	0.068828	1.015811
	H314	H	1.038469	0.081373	1.009785
	O315	O	0.499481	0.580172	0.492109
	H316	H	0.497915	0.583427	0.485502
	H317	H	0.504216	0.575719	0.497084
	O318	O	0.361509	0.479094	0.423908
	H319	H	0.353561	0.474647	0.442617
	H320	H	0.359276	0.482169	0.421917
	O321	O	1.059101	1.016657	1.028089
	H322	H	1.071971	1.021940	1.016095
	H323	H	1.057460	1.015903	1.016766
	O324	O	0.442253	0.534136	0.488033
	H325	H	0.444954	0.539271	0.482573
	H326	H	0.429508	0.539358	0.488662
	O327	O	0.471812	0.425735	0.513266
	H328	H	0.472586	0.414534	0.517697
	H329	H	0.472067	0.423826	0.515964
	O330	O	1.041986	0.023308	1.013104
	H331	H	1.046422	0.032026	1.025885
	H332	H	1.033691	0.017824	1.014783
	O333	O	0.924480	0.988854	0.039133
	H334	H	0.920306	1.000605	0.041491
	H335	H	0.920110	0.989935	0.036468
	O336	O	0.461409	0.540190	0.463152
	H337	H	0.474180	0.542803	0.460860
	H338	H	0.463295	0.545503	0.465959
	O339	O	0.515068	0.570379	0.526468
	H340	H	0.513171	0.571332	0.518179
	H341	H	0.517068	0.576585	0.514918
	O342	O	-0.016632	1.077144	-0.008995
	H343	H	-0.014094	1.078766	-0.017648
	H344	H	-0.017736	1.069895	-0.002194
	O345	O	-0.081632	-0.046528	0.070116
	H346	H	-0.087627	-0.046095	0.071211
	H347	H	-0.076529	-0.057601	0.068328
	O348	O	0.464513	0.545517	0.557789
	H349	H	0.463045	0.537924	0.557625
	H350	H	0.468826	0.557709	0.561368
	O351	O	0.495635	0.535735	0.517441
	H352	H	0.505149	0.530390	0.514037
	H353	H	0.490487	0.537134	0.516080
	O354	O	0.524004	0.495394	0.537033
	H355	H	0.532632	0.504496	0.531447
	H356	H	0.528602	0.489694	0.533374
	O357	O	0.596610	0.516274	0.568853
	H358	H	0.607209	0.517969	0.565390
	H359	H	0.590528	0.523767	0.574424
	O360	O	-0.035019	-0.006782	-0.025391
	H361	H	-0.037962	-0.015466	-0.015892
	H362	H	-0.027373	-0.011608	-0.022642
	O363	O	0.469589	0.500567	0.540531
	H364	H	0.471943	0.510296	0.536251
	H365	H	0.469288	0.492204	0.542155
	O366	O	-0.021892	-0.080680	0.916835
	H367	H	-0.033716	-0.085552	0.905832
	H368	H	-0.011839	-0.082863	0.921052
	O369	O	0.582036	0.478576	0.379904
	H370	H	0.594354	0.485197	0.366919
	H371	H	0.580415	0.483700	0.388768
