data_Molecule from HDF5

_cell_length_a		16.366457
_cell_length_b		16.307987
_cell_length_c		16.469043
_cell_angle_alpha	90.226402
_cell_angle_beta	89.846059
_cell_angle_gamma	90.011494
_symmetry_space_group_name_H-M	'P 1'
_symmetry_Int_Tables_number		1

loop_
	_symmetry_equiv_pos_as_xyz
	x,y,z

loop_
	_atom_site_label
	_atom_site_type_symbol
	_atom_site_fract_x
	_atom_site_fract_y
	_atom_site_fract_z
	H0	H	0.393591	0.841091	0.718231
	H1	H	0.606897	0.159409	0.719138
	H2	H	0.603813	0.839195	0.275457
	H3	H	0.394244	0.159194	0.276414
	H4	H	0.721578	0.392501	0.838083
	H5	H	0.718037	0.603633	0.155402
	H6	H	0.277230	0.605317	0.839178
	H7	H	0.276371	0.393012	0.154364
	H8	H	0.841002	0.720408	0.392544
	H9	H	0.157961	0.721791	0.602253
	H10	H	0.837856	0.282008	0.600206
	H11	H	0.158994	0.278206	0.392561
	H12	H	0.840219	0.394410	0.718976
	H13	H	0.156705	0.609973	0.721184
	H14	H	0.841638	0.604791	0.276236
	H15	H	0.157938	0.390918	0.273226
	H16	H	0.393227	0.720197	0.839005
	H17	H	0.601375	0.719732	0.155066
	H18	H	0.604129	0.277503	0.837180
	H19	H	0.395748	0.280430	0.155671
	H20	H	0.717291	0.838051	0.394095
	H21	H	0.717570	0.160375	0.599684
	H22	H	0.275298	0.841995	0.604738
	H23	H	0.278752	0.159460	0.392709
	H24	H	0.895600	0.339535	0.214671
	H25	H	0.105352	0.658900	0.218589
	H26	H	0.103529	0.340619	0.774890
	H27	H	0.892165	0.659345	0.775993
	H28	H	0.222883	0.891887	0.340681
	H29	H	0.222583	0.109520	0.655505
	H30	H	0.784057	0.098070	0.336727
	H31	H	0.777260	0.893602	0.655850
	H32	H	0.340002	0.218405	0.891950
	H33	H	0.660312	0.215837	0.095735
	H34	H	0.338549	0.780377	0.099652
	H35	H	0.659209	0.778622	0.892141
	H36	H	0.340837	0.891435	0.219971
	H37	H	0.659837	0.101283	0.214269
	H38	H	0.342222	0.107301	0.773783
	H39	H	0.658550	0.892377	0.773678
	H40	H	0.897593	0.217006	0.338900
	H41	H	0.102256	0.220751	0.657275
	H42	H	0.103023	0.779025	0.339344
	H43	H	0.892847	0.778329	0.655885
	H44	H	0.217394	0.339785	0.892979
	H45	H	0.219603	0.659466	0.101852
	H46	H	0.781839	0.339025	0.095355
	H47	H	0.779710	0.660872	0.892954
	H48	H	0.406694	0.114121	0.580136
	H49	H	0.587575	0.887276	0.582442
	H50	H	0.584903	0.114733	0.401364
	H51	H	0.416417	0.888510	0.412401
	H52	H	0.592736	0.410352	0.109840
	H53	H	0.585312	0.592775	0.882591
	H54	H	0.411814	0.598536	0.112840
	H55	H	0.412294	0.409017	0.883791
	H56	H	0.111092	0.586598	0.413592
	H57	H	0.887470	0.582712	0.586891
	H58	H	0.111801	0.412088	0.585621
	H59	H	0.885037	0.405260	0.410293
	H60	H	0.112889	0.411901	0.585167
	H61	H	0.883928	0.590521	0.590816
	H62	H	0.113405	0.583453	0.403551
	H63	H	0.888287	0.414688	0.407196
	H64	H	0.400117	0.584113	0.111896
	H65	H	0.595625	0.589699	0.880588
	H66	H	0.588096	0.410799	0.108223
	H67	H	0.408353	0.407599	0.882917
	H68	H	0.592058	0.111989	0.411190
	H69	H	0.590863	0.884051	0.586132
	H70	H	0.412519	0.116127	0.592409
	H71	H	0.405396	0.884729	0.410188
	H72	H	0.912545	0.613491	0.087302
	H73	H	0.084569	0.384621	0.088778
	H74	H	0.085528	0.612305	0.912437
	H75	H	0.906293	0.383928	0.905405
	H76	H	0.080581	0.904746	0.610128
	H77	H	0.093926	0.091358	0.382509
	H78	H	0.901812	0.083972	0.612227
	H79	H	0.907225	0.913487	0.385392
	H80	H	0.611155	0.084874	0.911842
	H81	H	0.385521	0.089292	0.085890
	H82	H	0.615461	0.911006	0.093317
	H83	H	0.387870	0.911993	0.911226
	H84	H	0.613222	0.903216	0.081936
	H85	H	0.384545	0.087734	0.089942
	H86	H	0.613928	0.083980	0.904377
	H87	H	0.386132	0.914633	0.902983
	H88	H	0.914761	0.089714	0.608725
	H89	H	0.088999	0.079635	0.387755
	H90	H	0.096348	0.912007	0.613474
	H91	H	0.914130	0.907542	0.384776
	H92	H	0.092137	0.616282	0.908464
	H93	H	0.086712	0.387322	0.080767
	H94	H	0.906992	0.615278	0.085195
	H95	H	0.915302	0.386519	0.903847
	H96	H	0.419771	0.109705	0.582733
	H97	H	0.584961	0.885070	0.587631
	H98	H	0.596564	0.117878	0.401476
	H99	H	0.414070	0.884364	0.401510
	H100	H	0.589532	0.406378	0.109790
	H101	H	0.588354	0.583219	0.884023
	H102	H	0.416734	0.582037	0.105099
	H103	H	0.408646	0.411787	0.883958
	H104	H	0.116378	0.593578	0.406991
	H105	H	0.886430	0.590278	0.581349
	H106	H	0.111917	0.411731	0.585557
	H107	H	0.883108	0.408132	0.401292
	H108	H	0.908907	0.616354	0.090814
	H109	H	0.092243	0.383898	0.085918
	H110	H	0.084981	0.614604	0.904178
	H111	H	0.911013	0.387837	0.912520
	H112	H	0.084164	0.921687	0.606572
	H113	H	0.081499	0.091324	0.386851
	H114	H	0.904782	0.097751	0.615674
	H115	H	0.905799	0.904806	0.381800
	H116	H	0.613723	0.091200	0.908209
	H117	H	0.383251	0.091774	0.088917
	H118	H	0.609205	0.916368	0.081967
	H119	H	0.383821	0.906687	0.905000
	C120	C	0.379341	0.008725	0.618114
	C121	C	0.620948	0.990888	0.618460
	C122	C	0.621357	0.008297	0.374180
	C123	C	0.378845	0.991298	0.376099
	C124	C	0.621600	0.377102	0.004505
	C125	C	0.620553	0.620543	0.987402
	C126	C	0.377097	0.620685	0.005797
	C127	C	0.377153	0.377410	0.987856
	C128	C	0.008756	0.620416	0.376121
	C129	C	0.990326	0.621438	0.619028
	C130	C	0.007088	0.379491	0.617982
	C131	C	0.990710	0.376723	0.374556
	C132	C	0.878196	0.508804	0.118056
	C133	C	0.120668	0.490830	0.117948
	C134	C	0.120138	0.508974	0.875373
	C135	C	0.878510	0.491962	0.876007
	C136	C	0.120436	0.878957	0.506253
	C137	C	0.120901	0.121568	0.489961
	C138	C	0.877302	0.120629	0.506332
	C139	C	0.876757	0.876779	0.488889
	C140	C	0.507984	0.119556	0.875683
	C141	C	0.490691	0.120494	0.118357
	C142	C	0.507368	0.878041	0.117874
	C143	C	0.490992	0.877776	0.874338
	C144	C	0.375324	0.889086	0.678821
	C145	C	0.624483	0.111145	0.678947
	C146	C	0.622719	0.887229	0.315102
	C147	C	0.376142	0.111213	0.316286
	C148	C	0.681404	0.374690	0.885268
	C149	C	0.678751	0.622393	0.107674
	C150	C	0.317360	0.623239	0.886640
	C151	C	0.316916	0.375429	0.107058
	C152	C	0.888772	0.680336	0.374158
	C153	C	0.110144	0.682132	0.621164
	C154	C	0.886367	0.320736	0.619135
	C155	C	0.110665	0.316737	0.373102
	C156	C	0.887473	0.376681	0.678436
	C157	C	0.109391	0.626214	0.680304
	C158	C	0.888993	0.622859	0.316111
	C159	C	0.110232	0.373146	0.313805
	C160	C	0.374903	0.680614	0.886570
	C161	C	0.620958	0.680123	0.107445
	C162	C	0.622882	0.317300	0.885073
	C163	C	0.376231	0.318966	0.107549
	C164	C	0.678681	0.886580	0.374299
	C165	C	0.679865	0.111898	0.619545
	C166	C	0.316692	0.889421	0.622169
	C167	C	0.318644	0.111394	0.374413
	C168	C	0.876802	0.387670	0.175472
	C169	C	0.123239	0.611029	0.178355
	C170	C	0.122028	0.388667	0.814956
	C171	C	0.875374	0.611795	0.816278
	C172	C	0.181941	0.874807	0.387797
	C173	C	0.181543	0.125751	0.608361
	C174	C	0.821553	0.118875	0.385322
	C175	C	0.816798	0.875029	0.607963
	C176	C	0.388361	0.179496	0.873560
	C177	C	0.612069	0.177498	0.116514
	C178	C	0.386794	0.819286	0.118874
	C179	C	0.611102	0.817712	0.873115
	C180	C	0.387857	0.874970	0.178590
	C181	C	0.611796	0.120643	0.175186
	C182	C	0.389244	0.123665	0.814782
	C183	C	0.610855	0.874695	0.814269
	C184	C	0.878242	0.177861	0.386189
	C185	C	0.121844	0.181706	0.609201
	C186	C	0.122303	0.818538	0.387056
	C187	C	0.874541	0.817658	0.608195
	C188	C	0.178378	0.387945	0.873945
	C189	C	0.180285	0.611253	0.120239
	C190	C	0.820070	0.387567	0.116591
	C191	C	0.818981	0.612376	0.874607
	C192	C	0.405434	0.091759	0.592446
	C193	C	0.595260	0.907332	0.592825
	C194	C	0.597937	0.092676	0.397703
	C195	C	0.404434	0.907658	0.400927
	C196	C	0.597241	0.402122	0.087667
	C197	C	0.596615	0.595727	0.904221
	C198	C	0.402195	0.595570	0.088370
	C199	C	0.402167	0.402451	0.905078
	C200	C	0.091911	0.595269	0.400906
	C201	C	0.907303	0.595205	0.593588
	C202	C	0.090537	0.404845	0.592785
	C203	C	0.907276	0.401991	0.399087
	C204	C	0.902501	0.593311	0.094787
	C205	C	0.095159	0.407174	0.092591
	C206	C	0.095009	0.592640	0.900938
	C207	C	0.903670	0.407884	0.900230
	C208	C	0.094473	0.905326	0.588637
	C209	C	0.095612	0.095113	0.407186
	C210	C	0.900361	0.097321	0.590363
	C211	C	0.901721	0.901325	0.405678
	C212	C	0.591406	0.093801	0.900832
	C213	C	0.406318	0.096513	0.095456
	C214	C	0.590810	0.902891	0.092799
	C215	C	0.407622	0.903480	0.899260
	Zn216	Zn	0.500008	0.000320	0.746302
	Zn217	Zn	0.499575	-0.001033	0.247062
	Zn218	Zn	0.749879	0.500261	-0.004342
	Zn219	Zn	0.248772	0.499420	-0.003522
	Zn220	Zn	-0.000585	0.749098	0.497775
	Zn221	Zn	-0.000979	0.249888	0.498281
	Zn222	Zn	-0.001478	0.500310	0.747214
	Zn223	Zn	-0.000003	0.499236	0.246853
	Zn224	Zn	0.498692	0.749213	-0.003198
	Zn225	Zn	0.499281	0.248182	-0.003660
	Zn226	Zn	0.748534	-0.001082	0.497356
	Zn227	Zn	0.250268	0.000540	0.497950
	N228	N	0.413355	0.964187	0.676366
	N229	N	0.588817	0.034725	0.678611
	N230	N	0.587872	0.963847	0.314828
	N231	N	0.412620	0.035182	0.317071
	N232	N	0.680731	0.411433	0.960477
	N233	N	0.678822	0.586262	0.032203
	N234	N	0.318297	0.586769	0.961723
	N235	N	0.317471	0.411194	0.031559
	N236	N	0.964085	0.678969	0.410628
	N237	N	0.035128	0.679398	0.583961
	N238	N	0.961818	0.322478	0.582179
	N239	N	0.035312	0.318843	0.410256
	N240	N	0.963474	0.412448	0.677765
	N241	N	0.033749	0.589275	0.679281
	N242	N	0.964588	0.586301	0.317064
	N243	N	0.034638	0.409745	0.314431
	N244	N	0.411432	0.679066	0.961471
	N245	N	0.585632	0.679208	0.031754
	N246	N	0.586190	0.318844	0.960136
	N247	N	0.412973	0.319941	0.032633
	N248	N	0.678345	0.962819	0.410181
	N249	N	0.677813	0.036109	0.582752
	N250	N	0.319068	0.964728	0.585149
	N251	N	0.320217	0.035733	0.410642
	N252	N	0.912044	0.464272	0.176716
	N253	N	0.087111	0.534905	0.177122
	N254	N	0.086953	0.465223	0.815274
	N255	N	0.911721	0.535818	0.817152
	N256	N	0.180945	0.911513	0.462890
	N257	N	0.180921	0.088954	0.533065
	N258	N	0.820672	0.084136	0.461137
	N259	N	0.818079	0.911223	0.532744
	N260	N	0.463218	0.176849	0.910906
	N261	N	0.535589	0.177663	0.082282
	N262	N	0.462063	0.821273	0.081718
	N263	N	0.535383	0.819164	0.909464
	N264	N	0.463963	0.910811	0.178211
	N265	N	0.535156	0.086099	0.176595
	N266	N	0.464951	0.087124	0.816051
	N267	N	0.535271	0.911110	0.814690
	N268	N	0.911931	0.179198	0.462552
	N269	N	0.084928	0.179050	0.534377
	N270	N	0.084701	0.821025	0.461754
	N271	N	0.910863	0.818327	0.532926
	N272	N	0.177288	0.463820	0.910616
	N273	N	0.178713	0.535608	0.083433
	N274	N	0.820484	0.464120	0.082031
	N275	N	0.820872	0.536808	0.911169
	O276	O	-0.046670	-0.061858	0.874866
	H277	H	-0.056411	-0.072633	0.873683
	H278	H	-0.056292	-0.049419	0.881698
	O279	O	0.656096	0.600364	0.585387
	H280	H	0.641221	0.572704	0.590510
	H281	H	0.661397	0.600442	0.605247
	O282	O	0.563226	0.354873	0.602091
	H283	H	0.555679	0.347688	0.593115
	H284	H	0.553748	0.349028	0.591250
	O285	O	0.706997	1.297980	-0.531754
	H286	H	0.725294	1.301945	-0.533444
	H287	H	0.706761	1.288087	-0.542808
	O288	O	0.482370	0.303103	0.700741
	H289	H	0.474395	0.296538	0.682006
	H290	H	0.489393	0.302432	0.710684
	O291	O	0.413897	0.630063	0.644026
	H292	H	0.414159	0.620233	0.643703
	H293	H	0.425936	0.641932	0.646952
	O294	O	0.980356	1.055274	1.046038
	H295	H	0.983469	1.039222	1.036017
	H296	H	0.972604	1.043010	1.039840
	O297	O	0.711562	0.473294	0.288721
	H298	H	0.728667	0.477468	0.266613
	H299	H	0.704523	0.456162	0.290400
	O300	O	0.972638	0.136737	0.927650
	H301	H	0.970863	0.132766	0.921963
	H302	H	0.965994	0.129471	0.924664
	O303	O	0.313948	0.466199	0.376095
	H304	H	0.318136	0.439834	0.377406
	H305	H	0.304762	0.487589	0.349712
	O306	O	-0.187739	0.113366	0.856873
	H307	H	-0.202543	0.116399	0.847299
	H308	H	-0.185692	0.080340	0.871963
	O309	O	0.818844	0.133295	-0.147367
	H310	H	0.824780	0.146086	-0.138700
	H311	H	0.814951	0.118756	-0.148399
	O312	O	0.539524	0.287372	0.284715
	H313	H	0.547739	0.284356	0.272982
	H314	H	0.547316	0.277844	0.275844
	O315	O	0.416820	0.691204	0.474503
	H316	H	0.403858	0.698879	0.486098
	H317	H	0.447553	0.700412	0.496118
	O318	O	0.053197	-0.017836	0.089915
	H319	H	0.041462	-0.015655	0.092950
	H320	H	0.070965	-0.007301	0.096984
	O321	O	0.697668	0.643111	0.566622
	H322	H	0.718822	0.641250	0.568511
	H323	H	0.689721	0.620794	0.562948
	O324	O	1.028352	-0.153161	1.155854
	H325	H	1.021074	-0.150835	1.158774
	H326	H	1.022156	-0.158847	1.164416
	O327	O	0.462796	0.414276	0.505466
	H328	H	0.448631	0.414880	0.485199
	H329	H	0.486716	0.401670	0.501835
	O330	O	0.036926	1.182353	1.141093
	H331	H	0.051054	1.183525	1.141653
	H332	H	0.059924	1.180577	1.135932
	O333	O	0.077495	1.097390	-0.080648
	H334	H	0.090762	1.097046	-0.075087
	H335	H	0.072205	1.097597	-0.081811
	O336	O	1.000382	1.022711	-0.107111
	H337	H	0.985491	1.028531	-0.090280
	H338	H	0.990295	1.035210	-0.105898
	O339	O	-0.154251	1.148277	1.143100
	H340	H	-0.139291	1.134042	1.127540
	H341	H	-0.130668	1.145042	1.133461
	O342	O	0.128872	0.979621	-0.053053
	H343	H	0.119012	0.965694	-0.050450
	H344	H	0.126185	0.980420	-0.064000
	O345	O	0.062999	-0.193878	0.814016
	H346	H	0.068366	-0.186905	0.807338
	H347	H	0.076009	-0.187804	0.820160
	O348	O	0.642528	0.585368	0.384607
	H349	H	0.633964	0.571675	0.366839
	H350	H	0.640125	0.566099	0.404407
	O351	O	1.162983	0.848936	-0.087180
	H352	H	1.192176	0.823486	-0.095338
	H353	H	1.142166	0.851778	-0.080139
	O354	O	0.854092	0.823723	1.183794
	H355	H	0.840612	0.822830	1.194414
	H356	H	0.874564	0.828024	1.176242
	O357	O	-0.141388	-0.203279	-0.046495
	H358	H	-0.153976	-0.226077	-0.054135
	H359	H	-0.136689	-0.193408	-0.021722
	O360	O	0.460691	0.707081	0.437813
	H361	H	0.468705	0.696320	0.427589
	H362	H	0.466449	0.699476	0.459362
	O363	O	0.571642	-0.509589	-0.492607
	H364	H	0.571146	-0.506163	-0.498595
	H365	H	0.576544	-0.508262	-0.492174
	O366	O	-0.016627	-0.115732	1.137707
	H367	H	-0.023277	-0.090691	1.142352
	H368	H	-0.030699	-0.123479	1.150438
	O369	O	1.139696	0.007017	1.142484
	H370	H	1.133782	0.002991	1.141086
	H371	H	1.136983	0.000265	1.121910
	O372	O	0.318456	0.310880	0.682034
	H373	H	0.350577	0.306384	0.668763
	H374	H	0.305190	0.362101	0.694046
	O375	O	0.685307	0.614184	1.618154
	H376	H	0.689038	0.615125	1.591272
	H377	H	0.698990	0.589541	1.624410
	O378	O	0.585279	0.660972	0.589532
	H379	H	0.592639	0.683874	0.596566
	H380	H	0.614042	0.660183	0.578783
	O381	O	0.161313	1.133505	-0.039158
	H382	H	0.168504	1.143947	-0.046761
	H383	H	0.163352	1.107938	-0.040074
	O384	O	0.319974	0.679948	0.398864
	H385	H	0.332865	0.694555	0.434732
	H386	H	0.329057	0.687270	0.403632
	O387	O	0.702084	0.302300	0.305499
	H388	H	0.729386	0.289751	0.280339
	H389	H	0.689206	0.307223	0.321145
	O390	O	0.304650	0.591726	0.293763
	H391	H	0.291232	0.603084	0.284365
	H392	H	0.305844	0.610780	0.310966
	O393	O	0.814426	-0.032525	1.168382
	H394	H	0.831269	-0.031732	1.169944
	H395	H	0.797846	-0.038219	1.172368
	O396	O	0.286104	0.551769	0.556932
	H397	H	0.296900	0.542053	0.537943
	H398	H	0.283667	0.565529	0.532246
	O399	O	1.161510	0.910432	-0.132378
	H400	H	1.173961	0.894878	-0.121969
	H401	H	1.150299	0.938368	-0.128762
	O402	O	1.147026	1.064194	0.131895
	H403	H	1.140894	1.053807	0.120453
	H404	H	1.163688	1.046269	0.133451
	O405	O	0.283284	0.473854	0.713438
	H406	H	0.269567	0.494668	0.701420
	H407	H	0.255418	0.483922	0.721546
	O408	O	0.484714	0.479551	0.291202
	H409	H	0.492531	0.482844	0.295270
	H410	H	0.461126	0.493238	0.286390
	O411	O	1.152436	1.040107	1.158477
	H412	H	1.165178	1.035381	1.161948
	H413	H	1.159684	1.034666	1.153933
	O414	O	0.542263	0.460648	0.601684
	H415	H	0.522573	0.457159	0.598168
	H416	H	0.526671	0.439089	0.610769
	O417	O	-0.114029	1.028168	0.971700
	H418	H	-0.105493	1.031290	0.971468
	H419	H	-0.115152	1.021156	0.955019
	O420	O	-0.085182	0.916404	0.966501
	H421	H	-0.089621	0.911377	0.964075
	H422	H	-0.071938	0.931957	0.968127
	O423	O	0.134719	1.123581	-0.108889
	H424	H	0.154298	1.125603	-0.124845
	H425	H	0.124003	1.123018	-0.102506
	O426	O	0.486382	0.538090	0.598235
	H427	H	0.476968	0.531993	0.602629
	H428	H	0.486366	0.544454	0.588987
	O429	O	0.640913	0.560354	0.620165
	H430	H	0.635862	0.563283	0.642507
	H431	H	0.640443	0.547886	0.629658
	O432	O	0.409538	0.341529	0.382119
	H433	H	0.412849	0.352339	0.369031
	H434	H	0.396737	0.338951	0.382179
	O435	O	0.293647	-0.701647	0.518880
	H436	H	0.271948	-0.728130	0.520436
	H437	H	0.307680	-0.690733	0.538785
	O438	O	-0.163787	0.942866	0.895617
	H439	H	-0.162218	0.942005	0.898983
	H440	H	-0.162249	0.935801	0.895607
	O441	O	0.514924	0.619971	0.354757
	H442	H	0.519003	0.605675	0.376290
	H443	H	0.516474	0.616366	0.355607
