data_Molecule from HDF5

_cell_length_a		16.241345
_cell_length_b		16.231511
_cell_length_c		16.310229
_cell_angle_alpha	90.093538
_cell_angle_beta	89.840136
_cell_angle_gamma	89.857363
_symmetry_space_group_name_H-M	'P 1'
_symmetry_Int_Tables_number		1

loop_
	_symmetry_equiv_pos_as_xyz
	x,y,z

loop_
	_atom_site_label
	_atom_site_type_symbol
	_atom_site_fract_x
	_atom_site_fract_y
	_atom_site_fract_z
	H0	H	0.396451	0.842960	0.718240
	H1	H	0.593578	0.170616	0.718756
	H2	H	0.594318	0.842665	0.290386
	H3	H	0.395396	0.170585	0.288963
	H4	H	0.710697	0.408992	0.840582
	H5	H	0.708342	0.602917	0.168892
	H6	H	0.281007	0.604370	0.840870
	H7	H	0.282122	0.409494	0.168084
	H8	H	0.830018	0.719959	0.408228
	H9	H	0.159490	0.722049	0.602916
	H10	H	0.831399	0.294835	0.602524
	H11	H	0.159535	0.292763	0.406185
	H12	H	0.831861	0.409042	0.719639
	H13	H	0.160352	0.604301	0.717900
	H14	H	0.832290	0.606703	0.289354
	H15	H	0.160241	0.408253	0.290467
	H16	H	0.397955	0.719724	0.840100
	H17	H	0.591754	0.719322	0.168961
	H18	H	0.594172	0.293159	0.839611
	H19	H	0.397631	0.291901	0.167160
	H20	H	0.709396	0.843266	0.405461
	H21	H	0.707164	0.171285	0.602236
	H22	H	0.281030	0.843194	0.601481
	H23	H	0.281686	0.172338	0.407176
	H24	H	0.897740	0.342628	0.219802
	H25	H	0.093800	0.671356	0.218448
	H26	H	0.095946	0.342391	0.790052
	H27	H	0.898179	0.671173	0.792071
	H28	H	0.209397	0.909092	0.340778
	H29	H	0.208295	0.106599	0.667514
	H30	H	0.780634	0.105598	0.340132
	H31	H	0.780227	0.910923	0.668499
	H32	H	0.331959	0.220008	0.907364
	H33	H	0.659928	0.219691	0.102346
	H34	H	0.330614	0.794249	0.100531
	H35	H	0.660739	0.793840	0.906643
	H36	H	0.331555	0.907219	0.219515
	H37	H	0.659326	0.104680	0.218736
	H38	H	0.330570	0.104178	0.792577
	H39	H	0.658610	0.905219	0.787217
	H40	H	0.896683	0.221880	0.340172
	H41	H	0.090294	0.220054	0.668514
	H42	H	0.092342	0.793035	0.340908
	H43	H	0.895058	0.793948	0.668118
	H44	H	0.209305	0.341733	0.907446
	H45	H	0.209573	0.671012	0.102952
	H46	H	0.782795	0.342496	0.102855
	H47	H	0.783322	0.671563	0.908937
	H48	H	0.390633	0.127556	0.599392
	H49	H	0.587342	0.891355	0.591198
	H50	H	0.591242	0.124462	0.414447
	H51	H	0.396889	0.888688	0.410517
	H52	H	0.587576	0.417326	0.119216
	H53	H	0.595289	0.619697	0.881113
	H54	H	0.409838	0.605298	0.119986
	H55	H	0.402911	0.415030	0.888596
	H56	H	0.110365	0.595618	0.413021
	H57	H	0.879842	0.599040	0.596923
	H58	H	0.114202	0.404308	0.592605
	H59	H	0.880589	0.420200	0.412018
	H60	H	0.108729	0.422275	0.592962
	H61	H	0.877638	0.599149	0.603082
	H62	H	0.113765	0.600939	0.407050
	H63	H	0.877595	0.413979	0.407003
	H64	H	0.395267	0.604392	0.123666
	H65	H	0.604985	0.583977	0.888560
	H66	H	0.586400	0.408570	0.120325
	H67	H	0.404466	0.410102	0.887393
	H68	H	0.587608	0.126198	0.404849
	H69	H	0.591306	0.888143	0.599268
	H70	H	0.406450	0.125894	0.608663
	H71	H	0.405457	0.889601	0.407730
	H72	H	0.901052	0.625226	0.101744
	H73	H	0.090752	0.389915	0.096597
	H74	H	0.090937	0.625513	0.905972
	H75	H	0.909288	0.389483	0.907654
	H76	H	0.089614	0.919289	0.620022
	H77	H	0.088038	0.104873	0.386595
	H78	H	0.885449	0.100124	0.624299
	H79	H	0.898322	0.911881	0.386489
	H80	H	0.615158	0.101434	0.906151
	H81	H	0.380956	0.095518	0.093021
	H82	H	0.614123	0.909983	0.098000
	H83	H	0.381021	0.913057	0.917880
	H84	H	0.611020	0.913098	0.094880
	H85	H	0.378133	0.097123	0.102523
	H86	H	0.612495	0.100922	0.914763
	H87	H	0.379562	0.920259	0.907415
	H88	H	0.907387	0.090577	0.615141
	H89	H	0.091640	0.098004	0.387345
	H90	H	0.083159	0.914857	0.619915
	H91	H	0.901130	0.917182	0.388806
	H92	H	0.083022	0.622286	0.911653
	H93	H	0.089728	0.388846	0.100957
	H94	H	0.904052	0.623239	0.098551
	H95	H	0.904192	0.391575	0.917653
	H96	H	0.405599	0.120567	0.590584
	H97	H	0.582635	0.890068	0.599800
	H98	H	0.581512	0.122025	0.412320
	H99	H	0.402903	0.892181	0.416331
	H100	H	0.594171	0.412361	0.121975
	H101	H	0.570272	0.595610	0.894349
	H102	H	0.401941	0.592229	0.117907
	H103	H	0.399379	0.411184	0.886281
	H104	H	0.112202	0.604039	0.415155
	H105	H	0.877369	0.605014	0.599606
	H106	H	0.115818	0.414202	0.608611
	H107	H	0.878865	0.412295	0.415526
	H108	H	0.899785	0.623732	0.097072
	H109	H	0.086645	0.390708	0.098486
	H110	H	0.092468	0.623710	0.915890
	H111	H	0.898196	0.387024	0.909389
	H112	H	0.090121	0.911585	0.621739
	H113	H	0.085212	0.098435	0.389140
	H114	H	0.905708	0.115216	0.622407
	H115	H	0.904647	0.911526	0.387745
	H116	H	0.611728	0.093740	0.909550
	H117	H	0.377641	0.104748	0.095745
	H118	H	0.612754	0.914666	0.099938
	H119	H	0.375504	0.907640	0.907099
	C120	C	0.372824	0.015764	0.626789
	C121	C	0.615412	0.998240	0.625387
	C122	C	0.615946	0.015677	0.382483
	C123	C	0.373514	0.999014	0.383125
	C124	C	0.618237	0.384380	0.012514
	C125	C	0.617435	0.628121	0.996265
	C126	C	0.373771	0.628372	0.012494
	C127	C	0.374260	0.384496	0.995608
	C128	C	0.003391	0.628615	0.383977
	C129	C	0.987091	0.629090	0.627224
	C130	C	0.004170	0.386042	0.626043
	C131	C	0.987363	0.386092	0.382921
	C132	C	0.874356	0.515096	0.127098
	C133	C	0.117235	0.498366	0.126510
	C134	C	0.117550	0.515063	0.883206
	C135	C	0.875214	0.498074	0.883797
	C136	C	0.116393	0.886284	0.512968
	C137	C	0.116001	0.129183	0.495776
	C138	C	0.872003	0.129935	0.512163
	C139	C	0.872793	0.886154	0.496100
	C140	C	0.504260	0.127190	0.882792
	C141	C	0.487435	0.127380	0.125747
	C142	C	0.503842	0.884894	0.125985
	C143	C	0.487234	0.884830	0.882340
	C144	C	0.375768	0.891903	0.680531
	C145	C	0.613409	0.121759	0.680874
	C146	C	0.614144	0.891675	0.328127
	C147	C	0.375508	0.122045	0.327529
	C148	C	0.673310	0.387586	0.889306
	C149	C	0.671110	0.624470	0.119854
	C150	C	0.318854	0.625284	0.889547
	C151	C	0.319922	0.388482	0.119059
	C152	C	0.879415	0.682621	0.387378
	C153	C	0.110615	0.684026	0.623566
	C154	C	0.880290	0.332248	0.622917
	C155	C	0.110751	0.330451	0.385448
	C156	C	0.880735	0.388804	0.681335
	C157	C	0.111132	0.625725	0.680716
	C158	C	0.880588	0.626619	0.328006
	C159	C	0.111188	0.387839	0.328129
	C160	C	0.377206	0.682383	0.889075
	C161	C	0.613457	0.682471	0.119814
	C162	C	0.615375	0.330006	0.888873
	C163	C	0.377450	0.330506	0.118888
	C164	C	0.671519	0.892020	0.385188
	C165	C	0.669743	0.122195	0.622799
	C166	C	0.318573	0.892146	0.622579
	C167	C	0.319172	0.122992	0.386512
	C168	C	0.877496	0.391559	0.181738
	C169	C	0.114414	0.622276	0.180797
	C170	C	0.115604	0.391414	0.828013
	C171	C	0.877449	0.621943	0.829422
	C172	C	0.171408	0.888364	0.389632
	C173	C	0.170517	0.126810	0.618819
	C174	C	0.817799	0.126934	0.389042
	C175	C	0.817682	0.889920	0.619394
	C176	C	0.380557	0.181867	0.886735
	C177	C	0.610812	0.181912	0.122560
	C178	C	0.379818	0.831070	0.122170
	C179	C	0.611116	0.830261	0.885429
	C180	C	0.380439	0.887040	0.181363
	C181	C	0.610599	0.124902	0.180627
	C182	C	0.380250	0.124804	0.829179
	C183	C	0.610301	0.886172	0.826476
	C184	C	0.876137	0.184270	0.389059
	C185	C	0.111757	0.183147	0.619449
	C186	C	0.113330	0.830726	0.389872
	C187	C	0.874914	0.831871	0.619425
	C188	C	0.171680	0.390736	0.886618
	C189	C	0.172104	0.621941	0.123547
	C190	C	0.820202	0.391373	0.123823
	C191	C	0.820384	0.622234	0.887349
	C192	C	0.394410	0.102451	0.605892
	C193	C	0.593515	0.912149	0.603254
	C194	C	0.593574	0.101825	0.404297
	C195	C	0.395323	0.912415	0.404909
	C196	C	0.595795	0.406228	0.098446
	C197	C	0.596334	0.606309	0.910281
	C198	C	0.395640	0.606887	0.098311
	C199	C	0.395988	0.405834	0.909604
	C200	C	0.089946	0.606780	0.405486
	C201	C	0.900514	0.607325	0.606207
	C202	C	0.090715	0.407317	0.604308
	C203	C	0.901362	0.408829	0.405043
	C204	C	0.895432	0.601722	0.105594
	C205	C	0.095549	0.411986	0.104952
	C206	C	0.095403	0.601457	0.904864
	C207	C	0.897326	0.411715	0.905222
	C208	C	0.094078	0.908626	0.598630
	C209	C	0.094568	0.107003	0.409720
	C210	C	0.893179	0.108274	0.598460
	C211	C	0.894789	0.907426	0.409990
	C212	C	0.590932	0.105123	0.903901
	C213	C	0.401213	0.105536	0.103562
	C214	C	0.590342	0.906214	0.104201
	C215	C	0.400987	0.907094	0.904429
	Zn216	Zn	0.495327	0.006394	0.754187
	Zn217	Zn	0.495086	0.006477	0.254524
	Zn218	Zn	0.746618	0.506253	0.004842
	Zn219	Zn	0.245244	0.506374	0.004373
	Zn220	Zn	-0.005703	0.757561	0.505377
	Zn221	Zn	-0.004552	0.257949	0.504422
	Zn222	Zn	-0.003721	0.506515	0.755250
	Zn223	Zn	-0.003778	0.507110	0.254905
	Zn224	Zn	0.495367	0.756944	0.004083
	Zn225	Zn	0.496152	0.255828	0.003953
	Zn226	Zn	0.743463	0.007509	0.503803
	Zn227	Zn	0.245137	0.007866	0.504519
	N228	N	0.408755	0.969883	0.683281
	N229	N	0.580016	0.043894	0.682381
	N230	N	0.580314	0.969360	0.326291
	N231	N	0.408788	0.043988	0.325840
	N232	N	0.675171	0.420569	0.967073
	N233	N	0.673848	0.591589	0.042007
	N234	N	0.316657	0.592402	0.967144
	N235	N	0.317840	0.421475	0.041463
	N236	N	0.956863	0.684064	0.421218
	N237	N	0.032547	0.686295	0.591039
	N238	N	0.958050	0.330392	0.589397
	N239	N	0.032778	0.329353	0.418846
	N240	N	0.958788	0.421663	0.683273
	N241	N	0.033235	0.592609	0.683341
	N242	N	0.958783	0.593554	0.325959
	N243	N	0.033534	0.421654	0.326307
	N244	N	0.410467	0.684525	0.966637
	N245	N	0.580553	0.684720	0.042194
	N246	N	0.581661	0.328002	0.966411
	N247	N	0.410374	0.327972	0.041219
	N248	N	0.672568	0.969951	0.418483
	N249	N	0.671106	0.044567	0.588841
	N250	N	0.316798	0.970225	0.589786
	N251	N	0.317795	0.045295	0.420293
	N252	N	0.910278	0.469662	0.183961
	N253	N	0.080921	0.544427	0.182681
	N254	N	0.082712	0.469614	0.825755
	N255	N	0.910772	0.543886	0.827107
	N256	N	0.173419	0.922117	0.467054
	N257	N	0.173191	0.094004	0.540979
	N258	N	0.815186	0.093895	0.466585
	N259	N	0.816073	0.922785	0.541616
	N260	N	0.458580	0.183600	0.919208
	N261	N	0.533078	0.183567	0.089058
	N262	N	0.457606	0.829436	0.088498
	N263	N	0.533423	0.829143	0.919324
	N264	N	0.458538	0.919827	0.183601
	N265	N	0.532887	0.091600	0.182541
	N266	N	0.458308	0.091456	0.826690
	N267	N	0.532485	0.919624	0.824557
	N268	N	0.908871	0.186518	0.466868
	N269	N	0.078556	0.184541	0.541888
	N270	N	0.079849	0.829209	0.467527
	N271	N	0.908442	0.829465	0.541880
	N272	N	0.172984	0.468505	0.920321
	N273	N	0.173597	0.544128	0.090252
	N274	N	0.818327	0.469038	0.090406
	N275	N	0.819089	0.544292	0.920659
	O276	O	0.056591	-0.032326	0.937811
	H277	H	0.053912	-0.033108	0.939307
	H278	H	0.060251	-0.031519	0.937764
	O279	O	0.550220	0.464197	0.438031
	H280	H	0.544663	0.473320	0.433323
	H281	H	0.551231	0.469857	0.433981
	O282	O	1.040994	-0.023463	-0.058669
	H283	H	1.044438	-0.023816	-0.063409
	H284	H	1.052100	-0.023787	-0.057605
	O285	O	0.550631	0.460489	0.446457
	H286	H	0.556434	0.457250	0.439264
	H287	H	0.550048	0.458301	0.445805
	O288	O	0.530754	0.456081	0.470648
	H289	H	0.540137	0.447939	0.472635
	H290	H	0.532645	0.451346	0.471319
	O291	O	0.051267	0.959360	0.956039
	H292	H	0.049453	0.955404	0.948537
	H293	H	0.056748	0.962053	0.948408
	O294	O	0.532921	0.505702	0.461612
	H295	H	0.531711	0.509986	0.465178
	H296	H	0.532302	0.496434	0.462602
	O297	O	1.057264	-0.024468	-0.041771
	H298	H	1.051326	-0.027128	-0.037725
	H299	H	1.052756	-0.029912	-0.037629
