data_Molecule from HDF5

_cell_length_a		16.393052
_cell_length_b		16.429982
_cell_length_c		16.218048
_cell_angle_alpha	89.809045
_cell_angle_beta	90.036896
_cell_angle_gamma	89.971442
_symmetry_space_group_name_H-M	'P 1'
_symmetry_Int_Tables_number		1

loop_
	_symmetry_equiv_pos_as_xyz
	x,y,z

loop_
	_atom_site_label
	_atom_site_type_symbol
	_atom_site_fract_x
	_atom_site_fract_y
	_atom_site_fract_z
	H0	H	0.394555	0.839545	0.717551
	H1	H	0.597944	0.160740	0.711036
	H2	H	0.605183	0.838010	0.276781
	H3	H	0.399934	0.158727	0.277406
	H4	H	0.719817	0.394603	0.833967
	H5	H	0.720245	0.600456	0.156771
	H6	H	0.281597	0.600148	0.835151
	H7	H	0.281816	0.392379	0.158584
	H8	H	0.842308	0.722258	0.386836
	H9	H	0.159865	0.720979	0.601794
	H10	H	0.840692	0.278032	0.601105
	H11	H	0.159106	0.276586	0.389299
	H12	H	0.839739	0.397895	0.712641
	H13	H	0.161412	0.600480	0.713362
	H14	H	0.839989	0.601780	0.275881
	H15	H	0.161468	0.396920	0.278383
	H16	H	0.392718	0.719202	0.836415
	H17	H	0.605810	0.715857	0.157296
	H18	H	0.603715	0.280137	0.833770
	H19	H	0.399814	0.279211	0.158921
	H20	H	0.721883	0.839187	0.392483
	H21	H	0.720049	0.157896	0.600758
	H22	H	0.276446	0.840876	0.603742
	H23	H	0.280421	0.158311	0.390267
	H24	H	0.899015	0.338237	0.214962
	H25	H	0.105452	0.658664	0.216059
	H26	H	0.103480	0.338075	0.775765
	H27	H	0.897550	0.658558	0.774381
	H28	H	0.222530	0.893542	0.335671
	H29	H	0.219310	0.101781	0.657181
	H30	H	0.780936	0.102536	0.335226
	H31	H	0.783297	0.894216	0.657921
	H32	H	0.341001	0.220141	0.889890
	H33	H	0.660320	0.218305	0.100777
	H34	H	0.341960	0.773366	0.104887
	H35	H	0.658894	0.774553	0.888153
	H36	H	0.339990	0.894254	0.215861
	H37	H	0.661324	0.099666	0.214410
	H38	H	0.337915	0.098631	0.779996
	H39	H	0.660233	0.895654	0.776856
	H40	H	0.894575	0.219299	0.335963
	H41	H	0.103952	0.216898	0.657449
	H42	H	0.107051	0.778937	0.334880
	H43	H	0.896273	0.778170	0.655836
	H44	H	0.220389	0.337852	0.892110
	H45	H	0.223156	0.656543	0.101805
	H46	H	0.781100	0.339095	0.100723
	H47	H	0.777129	0.656307	0.886446
	H48	H	0.409571	0.111830	0.584527
	H49	H	0.588853	0.885414	0.584230
	H50	H	0.593330	0.110817	0.410195
	H51	H	0.409574	0.884552	0.407828
	H52	H	0.591508	0.406709	0.111817
	H53	H	0.587599	0.590104	0.880267
	H54	H	0.415082	0.582084	0.108894
	H55	H	0.412148	0.410318	0.883208
	H56	H	0.112162	0.585334	0.407314
	H57	H	0.887769	0.586428	0.585396
	H58	H	0.115258	0.409312	0.586155
	H59	H	0.886658	0.402260	0.412889
	H60	H	0.115864	0.404530	0.585593
	H61	H	0.885833	0.592693	0.584577
	H62	H	0.115588	0.591518	0.404424
	H63	H	0.889782	0.416537	0.408989
	H64	H	0.415460	0.588879	0.111517
	H65	H	0.592174	0.587119	0.879838
	H66	H	0.592776	0.406907	0.110622
	H67	H	0.412223	0.406074	0.881282
	H68	H	0.591375	0.113296	0.402967
	H69	H	0.594485	0.884444	0.585502
	H70	H	0.408005	0.113527	0.586416
	H71	H	0.410478	0.884725	0.407771
	H72	H	0.911248	0.612750	0.086714
	H73	H	0.102876	0.384783	0.074796
	H74	H	0.095239	0.611937	0.906757
	H75	H	0.911931	0.383968	0.900135
	H76	H	0.087393	0.908107	0.610221
	H77	H	0.092602	0.085756	0.380392
	H78	H	0.907247	0.087546	0.612999
	H79	H	0.910295	0.902188	0.378191
	H80	H	0.617024	0.089932	0.897324
	H81	H	0.385544	0.096469	0.082705
	H82	H	0.616948	0.902383	0.087887
	H83	H	0.387293	0.913069	0.905371
	H84	H	0.612080	0.905832	0.080134
	H85	H	0.390789	0.083566	0.079213
	H86	H	0.615271	0.096547	0.910051
	H87	H	0.384574	0.902280	0.905703
	H88	H	0.912413	0.087467	0.611107
	H89	H	0.085422	0.087073	0.382054
	H90	H	0.090154	0.912978	0.609493
	H91	H	0.903049	0.915096	0.379428
	H92	H	0.090773	0.612123	0.902464
	H93	H	0.095210	0.379068	0.101761
	H94	H	0.914411	0.609605	0.081046
	H95	H	0.913296	0.387048	0.909206
	H96	H	0.410412	0.112095	0.587204
	H97	H	0.590621	0.883499	0.589435
	H98	H	0.585721	0.109790	0.407133
	H99	H	0.410015	0.885436	0.409135
	H100	H	0.591648	0.407521	0.111995
	H101	H	0.587758	0.584616	0.882435
	H102	H	0.408891	0.585082	0.112450
	H103	H	0.407982	0.409009	0.880712
	H104	H	0.112932	0.591285	0.411202
	H105	H	0.888658	0.589697	0.579809
	H106	H	0.113599	0.407766	0.581711
	H107	H	0.883293	0.407573	0.398762
	H108	H	0.908010	0.612174	0.081240
	H109	H	0.076513	0.390977	0.083427
	H110	H	0.089462	0.609903	0.907719
	H111	H	0.904383	0.383649	0.906214
	H112	H	0.085210	0.912356	0.607662
	H113	H	0.089924	0.092778	0.379927
	H114	H	0.909847	0.091641	0.612817
	H115	H	0.917372	0.914142	0.382796
	H116	H	0.611393	0.082716	0.908231
	H117	H	0.385494	0.085775	0.092565
	H118	H	0.613214	0.911232	0.087532
	H119	H	0.388385	0.907069	0.914743
	C120	C	0.377015	0.007617	0.618575
	C121	C	0.621500	0.990230	0.617730
	C122	C	0.622358	0.006295	0.375024
	C123	C	0.378712	0.990088	0.375013
	C124	C	0.622425	0.376541	0.004336
	C125	C	0.621350	0.618635	0.987268
	C126	C	0.380221	0.617630	0.004872
	C127	C	0.379631	0.376291	0.988157
	C128	C	0.008910	0.621417	0.373859
	C129	C	0.992544	0.620826	0.615849
	C130	C	0.009215	0.376639	0.616550
	C131	C	0.991856	0.376848	0.374515
	C132	C	0.879947	0.506285	0.115715
	C133	C	0.122987	0.490222	0.118466
	C134	C	0.122870	0.506041	0.874021
	C135	C	0.878350	0.489978	0.872845
	C136	C	0.121323	0.878373	0.503846
	C137	C	0.120816	0.119758	0.487070
	C138	C	0.879048	0.119867	0.505184
	C139	C	0.879265	0.877890	0.486714
	C140	C	0.508397	0.120450	0.874087
	C141	C	0.492949	0.118931	0.116592
	C142	C	0.508516	0.875002	0.118156
	C143	C	0.491671	0.875882	0.875043
	C144	C	0.375563	0.887542	0.678222
	C145	C	0.619297	0.111639	0.674108
	C146	C	0.623849	0.886343	0.316076
	C147	C	0.379380	0.110420	0.315757
	C148	C	0.680215	0.376147	0.882207
	C149	C	0.681083	0.619325	0.108483
	C150	C	0.320830	0.619287	0.883513
	C151	C	0.321619	0.374376	0.110037
	C152	C	0.889448	0.681558	0.370255
	C153	C	0.112314	0.680639	0.619223
	C154	C	0.888531	0.317985	0.618643
	C155	C	0.111616	0.317002	0.371942
	C156	C	0.887859	0.377640	0.674211
	C157	C	0.113095	0.620728	0.674951
	C158	C	0.888362	0.621598	0.314696
	C159	C	0.112837	0.376977	0.316536
	C160	C	0.376320	0.678505	0.884338
	C161	C	0.623877	0.676925	0.108631
	C162	C	0.622557	0.319152	0.882293
	C163	C	0.380044	0.317781	0.110187
	C164	C	0.682114	0.886699	0.373599
	C165	C	0.679837	0.110444	0.618905
	C166	C	0.316900	0.888230	0.621340
	C167	C	0.320080	0.110260	0.372243
	C168	C	0.879926	0.386406	0.175412
	C169	C	0.124395	0.610462	0.177013
	C170	C	0.123130	0.386018	0.815075
	C171	C	0.877690	0.610144	0.813239
	C172	C	0.182364	0.875778	0.383507
	C173	C	0.179969	0.120720	0.608796
	C174	C	0.820166	0.120963	0.383743
	C175	C	0.821529	0.875693	0.608721
	C176	C	0.388499	0.179825	0.872349
	C177	C	0.612722	0.178283	0.118834
	C178	C	0.389418	0.814272	0.121578
	C179	C	0.611196	0.815371	0.871023
	C180	C	0.388436	0.874391	0.177297
	C181	C	0.613290	0.119130	0.175335
	C182	C	0.386871	0.119339	0.817413
	C183	C	0.612013	0.875667	0.815594
	C184	C	0.876948	0.178978	0.383931
	C185	C	0.122508	0.178103	0.608776
	C186	C	0.124943	0.818475	0.383246
	C187	C	0.878179	0.818078	0.607743
	C188	C	0.181183	0.385696	0.873213
	C189	C	0.183016	0.609453	0.120026
	C190	C	0.821070	0.386625	0.118351
	C191	C	0.817994	0.609068	0.869303
	C192	C	0.401980	0.090868	0.593223
	C193	C	0.598133	0.906337	0.593535
	C194	C	0.597470	0.089630	0.399592
	C195	C	0.402899	0.906643	0.400694
	C196	C	0.598931	0.400206	0.089323
	C197	C	0.596362	0.594286	0.902777
	C198	C	0.405740	0.592471	0.089031
	C199	C	0.403738	0.401140	0.903515
	C200	C	0.092016	0.596570	0.399944
	C201	C	0.909095	0.596581	0.590527
	C202	C	0.092847	0.400423	0.591852
	C203	C	0.908366	0.401532	0.399594
	C204	C	0.904239	0.589755	0.090185
	C205	C	0.098435	0.406770	0.093858
	C206	C	0.098840	0.589574	0.898536
	C207	C	0.902889	0.406501	0.898028
	C208	C	0.095264	0.903672	0.587418
	C209	C	0.096358	0.095490	0.402691
	C210	C	0.903158	0.095755	0.590115
	C211	C	0.903330	0.903115	0.401970
	C212	C	0.592507	0.096671	0.898291
	C213	C	0.409163	0.095184	0.091918
	C214	C	0.592325	0.899389	0.092717
	C215	C	0.408441	0.900324	0.900941
	Zn216	Zn	0.499447	-0.001840	0.746338
	Zn217	Zn	0.500464	-0.002332	0.246074
	Zn218	Zn	0.749651	0.497963	-0.005042
	Zn219	Zn	0.251591	0.497084	-0.003225
	Zn220	Zn	0.000490	0.750632	0.495107
	Zn221	Zn	0.000038	0.247950	0.495721
	Zn222	Zn	0.000676	0.498420	0.744753
	Zn223	Zn	0.000872	0.499183	0.246064
	Zn224	Zn	0.500560	0.746332	-0.003625
	Zn225	Zn	0.501052	0.249216	-0.004119
	Zn226	Zn	0.751559	-0.001720	0.496881
	Zn227	Zn	0.249309	-0.000679	0.496083
	N228	N	0.412345	0.962651	0.676642
	N229	N	0.583918	0.035805	0.673564
	N230	N	0.587336	0.961662	0.316819
	N231	N	0.414904	0.034557	0.317269
	N232	N	0.679911	0.411448	0.959012
	N233	N	0.679652	0.583762	0.031788
	N234	N	0.323098	0.582124	0.959440
	N235	N	0.321061	0.409831	0.033167
	N236	N	0.965464	0.681649	0.406206
	N237	N	0.036453	0.680826	0.583160
	N238	N	0.964840	0.317222	0.583440
	N239	N	0.035197	0.316792	0.407157
	N240	N	0.963634	0.413432	0.673101
	N241	N	0.037663	0.584272	0.673174
	N242	N	0.963719	0.585089	0.316766
	N243	N	0.037612	0.413771	0.318140
	N244	N	0.412784	0.677513	0.960701
	N245	N	0.587639	0.676535	0.032316
	N246	N	0.587493	0.319123	0.959171
	N247	N	0.415394	0.319021	0.033381
	N248	N	0.681473	0.962426	0.409447
	N249	N	0.681704	0.033857	0.584879
	N250	N	0.317645	0.963864	0.585050
	N251	N	0.319439	0.034374	0.408255
	N252	N	0.915928	0.461928	0.173846
	N253	N	0.088140	0.535199	0.176379
	N254	N	0.087736	0.461815	0.815342
	N255	N	0.914744	0.535172	0.815460
	N256	N	0.180487	0.911961	0.459502
	N257	N	0.179299	0.085291	0.532086
	N258	N	0.821286	0.084875	0.460287
	N259	N	0.822119	0.912272	0.532329
	N260	N	0.465179	0.180726	0.906884
	N261	N	0.536889	0.178243	0.082815
	N262	N	0.465393	0.814543	0.085592
	N263	N	0.535305	0.815184	0.907241
	N264	N	0.463633	0.911361	0.175217
	N265	N	0.537963	0.082671	0.173748
	N266	N	0.462460	0.083219	0.818265
	N267	N	0.536667	0.912388	0.817892
	N268	N	0.912738	0.178327	0.460434
	N269	N	0.086788	0.177825	0.532106
	N270	N	0.087353	0.820216	0.459022
	N271	N	0.913005	0.819001	0.530684
	N272	N	0.181228	0.461417	0.909102
	N273	N	0.182454	0.533639	0.084567
	N274	N	0.821170	0.462132	0.081758
	N275	N	0.818233	0.533437	0.905740
	O276	O	0.508955	0.611226	0.444615
	H277	H	0.499695	0.599199	0.465211
	H278	H	0.507225	0.627907	0.432491
	O279	O	0.512388	0.660514	0.492372
	H280	H	0.510250	0.646628	0.470060
	H281	H	0.513226	0.652221	0.513563
	O282	O	0.518310	0.675692	0.610568
	H283	H	0.527517	0.693940	0.617920
	H284	H	0.536486	0.676252	0.612643
	O285	O	0.951565	0.008276	0.116072
	H286	H	0.949127	-0.000408	0.131069
	H287	H	0.947185	0.004672	0.108802
	O288	O	0.097111	-0.061508	0.843818
	H289	H	0.093878	-0.066812	0.850905
	H290	H	0.094364	-0.057024	0.844877
	O291	O	0.632391	0.539013	0.443705
	H292	H	0.631068	0.547781	0.442291
	H293	H	0.632055	0.526519	0.438123
	O294	O	0.604985	0.361381	0.555250
	H295	H	0.602762	0.374439	0.553794
	H296	H	0.594243	0.360354	0.561796
	O297	O	1.000579	1.180135	0.962165
	H298	H	1.000992	1.192562	0.958482
	H299	H	0.998279	1.185529	0.959088
	O300	O	-0.023624	-0.195399	0.194968
	H301	H	-0.016887	-0.192483	0.198719
	H302	H	-0.028443	-0.218899	0.199485
	O303	O	0.427962	0.527101	0.561880
	H304	H	0.440477	0.528759	0.571775
	H305	H	0.435923	0.539779	0.554936
	O306	O	0.839365	0.080181	0.163739
	H307	H	0.832171	0.075649	0.164261
	H308	H	0.818572	0.103094	0.144385
	O309	O	0.432228	0.509123	0.633361
	H310	H	0.425148	0.496293	0.625064
	H311	H	0.423253	0.494035	0.634419
	O312	O	0.921561	0.848723	-0.116073
	H313	H	0.917166	0.850128	-0.115502
	H314	H	0.920047	0.857850	-0.099705
	O315	O	0.335158	0.481454	0.359458
	H316	H	0.322379	0.481673	0.362627
	H317	H	0.347531	0.498683	0.369698
	O318	O	0.574514	0.422874	0.592162
	H319	H	0.574663	0.427350	0.596156
	H320	H	0.585768	0.419275	0.597542
	O321	O	0.966080	0.193293	1.119002
	H322	H	0.955449	0.196861	1.095796
	H323	H	0.960050	0.199153	1.127144
	O324	O	-0.138338	0.088705	0.877139
	H325	H	-0.124879	0.085481	0.891236
	H326	H	-0.127601	0.098835	0.891455
	O327	O	0.387020	0.506504	0.673970
	H328	H	0.383633	0.522776	0.671123
	H329	H	0.380250	0.511424	0.665978
	O330	O	0.497569	0.618054	0.501339
	H331	H	0.507217	0.605653	0.490823
	H332	H	0.503205	0.615733	0.506482
	O333	O	0.811999	0.806499	1.085168
	H334	H	0.813075	0.814925	1.094550
	H335	H	0.799002	0.780645	1.085819
	O336	O	0.329414	0.445822	0.586520
	H337	H	0.339608	0.474753	0.595112
	H338	H	0.329133	0.446119	0.598753
	O339	O	0.889755	0.192627	0.806385
	H340	H	0.901760	0.172566	0.814138
	H341	H	0.881364	0.191235	0.784467
	O342	O	0.100008	1.048909	0.804939
	H343	H	0.086439	1.050142	0.811413
	H344	H	0.097759	1.053731	0.799186
	O345	O	0.179548	0.819476	0.920989
	H346	H	0.182689	0.840245	0.913439
	H347	H	0.180903	0.808119	0.911160
	O348	O	0.518979	0.465457	0.614815
	H349	H	0.515121	0.468108	0.615583
	H350	H	0.509323	0.480707	0.619037
	O351	O	-0.080909	0.094346	0.100524
	H352	H	-0.080320	0.081124	0.100898
	H353	H	-0.095191	0.088452	0.091118
	O354	O	1.149196	1.078965	0.188402
	H355	H	1.157677	1.059079	0.199606
	H356	H	1.127768	1.081615	0.201759
	O357	O	0.053692	0.976714	0.144904
	H358	H	0.052641	0.965894	0.151314
	H359	H	0.062326	0.961578	0.134833
	O360	O	0.329083	0.293918	0.502070
	H361	H	0.312263	0.290895	0.506093
	H362	H	0.322716	0.287538	0.523691
	O363	O	0.482045	0.692731	0.391778
	H364	H	0.467008	0.688803	0.387179
	H365	H	0.476782	0.698842	0.380068
	O366	O	0.559299	0.589835	0.653238
	H367	H	0.538730	0.602033	0.661343
	H368	H	0.553379	0.582011	0.655151
	O369	O	0.535091	0.393687	0.343686
	H370	H	0.535397	0.386189	0.341311
	H371	H	0.531493	0.385479	0.350440
	O372	O	0.604038	0.542731	0.376366
	H373	H	0.601858	0.555676	0.375877
	H374	H	0.596421	0.529978	0.374875
	O375	O	0.615531	0.462408	0.374160
	H376	H	0.616764	0.463505	0.375930
	H377	H	0.612001	0.448798	0.367678
	O378	O	0.696017	0.685599	0.538283
	H379	H	0.713055	0.687289	0.518940
	H380	H	0.680857	0.683888	0.538682
	O381	O	0.501302	0.341061	0.612240
	H382	H	0.493905	0.349056	0.607857
	H383	H	0.508449	0.335924	0.608336
	O384	O	0.148820	1.025354	1.014016
	H385	H	0.159260	1.031802	1.021919
	H386	H	0.147708	1.031141	1.016158
	O387	O	0.863292	0.836246	0.089420
	H388	H	0.897853	0.832704	0.099410
	H389	H	0.862016	0.867804	0.083285
	O390	O	0.457841	0.414347	0.452217
	H391	H	0.456441	0.427118	0.448048
	H392	H	0.452072	0.417978	0.450898
	O393	O	0.931737	-0.014698	0.915252
	H394	H	0.930339	-0.018068	0.896264
	H395	H	0.929301	0.007694	0.927125
	O396	O	0.078012	0.805591	0.941859
	H397	H	0.077076	0.795255	0.926412
	H398	H	0.067042	0.800918	0.952831
	O399	O	0.306327	0.688659	0.395785
	H400	H	0.300328	0.687350	0.396928
	H401	H	0.319070	0.695971	0.431420
	O402	O	1.097080	-0.058709	0.797499
	H403	H	1.088540	-0.036464	0.801821
	H404	H	1.100237	-0.075836	0.804408
	O405	O	0.191046	0.090073	0.026727
	H406	H	0.195794	0.103756	0.046544
	H407	H	0.191315	0.088150	0.044536
	O408	O	0.805220	1.070694	0.981504
	H409	H	0.832670	1.072297	0.974708
	H410	H	0.791791	1.077223	0.980060
	O411	O	0.838784	1.010159	-0.203582
	H412	H	0.845958	1.025030	-0.193752
	H413	H	0.823093	1.008019	-0.224467
	O414	O	-0.125423	-0.045060	1.008334
	H415	H	-0.132084	-0.048326	0.997139
	H416	H	-0.112327	-0.057314	1.006835
	O417	O	0.383819	0.405127	0.355453
	H418	H	0.365117	0.408478	0.350794
	H419	H	0.390763	0.402851	0.356571
	O420	O	0.132955	1.028649	-0.022444
	H421	H	0.130921	1.028927	-0.031306
	H422	H	0.127646	1.037537	-0.022568
	O423	O	1.111508	0.174706	0.155033
	H424	H	1.079074	0.171681	0.156874
	H425	H	1.116569	0.167017	0.173244
	O426	O	0.113658	-0.108000	1.004315
	H427	H	0.113080	-0.104576	1.013015
	H428	H	0.116218	-0.101830	0.993975
	O429	O	0.637287	0.344891	0.386556
	H430	H	0.631961	0.351456	0.395844
	H431	H	0.620285	0.345906	0.396397
