data_Molecule from HDF5

_cell_length_a		16.430903
_cell_length_b		16.510039
_cell_length_c		16.493492
_cell_angle_alpha	89.964934
_cell_angle_beta	90.122570
_cell_angle_gamma	89.838505
_symmetry_space_group_name_H-M	'P 1'
_symmetry_Int_Tables_number		1

loop_
	_symmetry_equiv_pos_as_xyz
	x,y,z

loop_
	_atom_site_label
	_atom_site_type_symbol
	_atom_site_fract_x
	_atom_site_fract_y
	_atom_site_fract_z
	H0	H	0.390055	0.845360	0.744099
	H1	H	0.604614	0.159370	0.741582
	H2	H	0.601239	0.844806	0.299025
	H3	H	0.389056	0.159556	0.296484
	H4	H	0.718589	0.395345	0.860896
	H5	H	0.715222	0.602673	0.177291
	H6	H	0.270308	0.612682	0.862858
	H7	H	0.273836	0.395189	0.174770
	H8	H	0.838607	0.718155	0.419505
	H9	H	0.155935	0.723509	0.628320
	H10	H	0.840890	0.278555	0.625931
	H11	H	0.156202	0.278789	0.413578
	H12	H	0.839604	0.395538	0.739589
	H13	H	0.155435	0.608141	0.744284
	H14	H	0.838454	0.602568	0.301964
	H15	H	0.154571	0.392811	0.295764
	H16	H	0.385923	0.728065	0.862800
	H17	H	0.599884	0.721528	0.176160
	H18	H	0.604149	0.277316	0.862216
	H19	H	0.387318	0.276388	0.174078
	H20	H	0.715843	0.843190	0.417524
	H21	H	0.720642	0.159263	0.625110
	H22	H	0.276433	0.843893	0.626178
	H23	H	0.272058	0.157889	0.411818
	H24	H	0.888437	0.343662	0.243791
	H25	H	0.101347	0.656922	0.241187
	H26	H	0.108747	0.345223	0.793242
	H27	H	0.890475	0.655695	0.797553
	H28	H	0.218979	0.896906	0.362872
	H29	H	0.223258	0.108980	0.677157
	H30	H	0.778441	0.105227	0.360148
	H31	H	0.776737	0.895695	0.677089
	H32	H	0.340272	0.228560	0.907016
	H33	H	0.653910	0.225068	0.125952
	H34	H	0.340953	0.780122	0.126189
	H35	H	0.654687	0.782457	0.917283
	H36	H	0.340677	0.897786	0.240960
	H37	H	0.654677	0.108890	0.241252
	H38	H	0.342192	0.113984	0.790222
	H39	H	0.655510	0.898456	0.801280
	H40	H	0.892133	0.223519	0.362271
	H41	H	0.107546	0.226570	0.676394
	H42	H	0.103611	0.778932	0.363263
	H43	H	0.891033	0.778148	0.676110
	H44	H	0.226728	0.347307	0.906640
	H45	H	0.216314	0.658124	0.123252
	H46	H	0.774664	0.342717	0.125399
	H47	H	0.777343	0.657173	0.916907
	H48	H	0.415235	0.111575	0.607855
	H49	H	0.584999	0.891040	0.610710
	H50	H	0.588330	0.116325	0.427782
	H51	H	0.411650	0.891053	0.432237
	H52	H	0.589178	0.408418	0.134161
	H53	H	0.588964	0.590616	0.904976
	H54	H	0.411115	0.594736	0.130660
	H55	H	0.411704	0.415227	0.906728
	H56	H	0.110532	0.587136	0.432647
	H57	H	0.885398	0.582581	0.616548
	H58	H	0.109243	0.416177	0.606934
	H59	H	0.884781	0.407271	0.433672
	H60	H	0.110473	0.413074	0.608088
	H61	H	0.881578	0.600685	0.611164
	H62	H	0.113438	0.588576	0.426459
	H63	H	0.886856	0.416200	0.433295
	H64	H	0.403924	0.590404	0.131419
	H65	H	0.584035	0.591966	0.905950
	H66	H	0.587108	0.419130	0.129373
	H67	H	0.412367	0.418153	0.908312
	H68	H	0.584984	0.115200	0.428831
	H69	H	0.589274	0.889709	0.607171
	H70	H	0.413798	0.109184	0.600100
	H71	H	0.405271	0.888508	0.429238
	H72	H	0.909119	0.613817	0.116534
	H73	H	0.084131	0.388720	0.106103
	H74	H	0.078277	0.607878	0.936986
	H75	H	0.913149	0.387371	0.927765
	H76	H	0.089003	0.907142	0.635493
	H77	H	0.084606	0.090172	0.409276
	H78	H	0.913639	0.091656	0.631455
	H79	H	0.912083	0.912803	0.408020
	H80	H	0.606994	0.084641	0.931456
	H81	H	0.385384	0.090674	0.102940
	H82	H	0.609862	0.909605	0.103904
	H83	H	0.384317	0.919121	0.931179
	H84	H	0.610098	0.917495	0.110225
	H85	H	0.385157	0.085717	0.107766
	H86	H	0.610126	0.091815	0.928614
	H87	H	0.382171	0.914901	0.927677
	H88	H	0.907091	0.090795	0.632670
	H89	H	0.085042	0.086653	0.410123
	H90	H	0.090100	0.918202	0.631780
	H91	H	0.907931	0.904822	0.404738
	H92	H	0.089436	0.613223	0.933849
	H93	H	0.085052	0.389129	0.105300
	H94	H	0.910436	0.609845	0.104836
	H95	H	0.908318	0.387398	0.935756
	H96	H	0.407536	0.113782	0.604120
	H97	H	0.589820	0.887892	0.612487
	H98	H	0.588473	0.115324	0.430994
	H99	H	0.411269	0.889500	0.425293
	H100	H	0.578539	0.411007	0.128799
	H101	H	0.587165	0.594995	0.904360
	H102	H	0.411048	0.586982	0.128290
	H103	H	0.414455	0.415803	0.909031
	H104	H	0.112772	0.593090	0.431119
	H105	H	0.889558	0.588343	0.598556
	H106	H	0.109938	0.413728	0.604566
	H107	H	0.882947	0.412129	0.425706
	H108	H	0.899464	0.614879	0.108474
	H109	H	0.085248	0.388255	0.106044
	H110	H	0.079685	0.613179	0.925684
	H111	H	0.904946	0.384436	0.927615
	H112	H	0.080156	0.912420	0.630604
	H113	H	0.081691	0.088189	0.410216
	H114	H	0.910522	0.086151	0.629301
	H115	H	0.903064	0.912948	0.405470
	H116	H	0.607339	0.090649	0.936592
	H117	H	0.383223	0.092545	0.109526
	H118	H	0.614257	0.908870	0.113190
	H119	H	0.383415	0.913486	0.933067
	C120	C	0.377836	0.008905	0.639167
	C121	C	0.620771	0.993390	0.642387
	C122	C	0.618391	0.010638	0.398383
	C123	C	0.375216	0.993539	0.396257
	C124	C	0.618335	0.379378	0.027137
	C125	C	0.617766	0.622919	1.010028
	C126	C	0.374522	0.624633	0.026767
	C127	C	0.377097	0.381670	1.010480
	C128	C	0.006447	0.620894	0.399303
	C129	C	0.989608	0.622980	0.642010
	C130	C	0.006231	0.380802	0.639916
	C131	C	0.989189	0.378814	0.397730
	C132	C	0.873986	0.508803	0.141927
	C133	C	0.117335	0.492078	0.139346
	C134	C	0.118343	0.509182	0.897477
	C135	C	0.876214	0.490669	0.898307
	C136	C	0.118984	0.879956	0.528797
	C137	C	0.119045	0.122467	0.512465
	C138	C	0.876995	0.122652	0.527558
	C139	C	0.876031	0.878881	0.510455
	C140	C	0.505178	0.123687	0.896954
	C141	C	0.488558	0.123270	0.139767
	C142	C	0.506765	0.880592	0.140791
	C143	C	0.487759	0.882622	0.899155
	C144	C	0.373199	0.891989	0.702451
	C145	C	0.622796	0.111821	0.702089
	C146	C	0.619832	0.891857	0.339076
	C147	C	0.371352	0.111813	0.336209
	C148	C	0.678741	0.377017	0.908360
	C149	C	0.675983	0.622416	0.129527
	C150	C	0.311359	0.629548	0.909802
	C151	C	0.314640	0.377642	0.127948
	C152	C	0.886508	0.679452	0.399319
	C153	C	0.108374	0.683294	0.645643
	C154	C	0.887971	0.319359	0.643100
	C155	C	0.108356	0.318420	0.395098
	C156	C	0.887223	0.377553	0.699879
	C157	C	0.108082	0.625722	0.703554
	C158	C	0.886496	0.621775	0.341221
	C159	C	0.107608	0.375133	0.336413
	C160	C	0.369132	0.687334	0.909861
	C161	C	0.618710	0.681447	0.129160
	C162	C	0.622012	0.318048	0.909056
	C163	C	0.370947	0.318354	0.127403
	C164	C	0.676585	0.890990	0.398058
	C165	C	0.680871	0.111822	0.644110
	C166	C	0.316456	0.891118	0.643834
	C167	C	0.313048	0.111068	0.393881
	C168	C	0.870945	0.390880	0.202852
	C169	C	0.119789	0.610055	0.200611
	C170	C	0.125166	0.392203	0.834217
	C171	C	0.873039	0.608881	0.838194
	C172	C	0.178875	0.877911	0.409907
	C173	C	0.182020	0.126745	0.630160
	C174	C	0.817228	0.124293	0.408350
	C175	C	0.816630	0.877336	0.629359
	C176	C	0.387492	0.187206	0.891076
	C177	C	0.606806	0.184543	0.143271
	C178	C	0.387836	0.820854	0.143643
	C179	C	0.607284	0.822396	0.898002
	C180	C	0.387914	0.879063	0.200804
	C181	C	0.607115	0.126780	0.200878
	C182	C	0.388459	0.130672	0.832146
	C183	C	0.607675	0.880172	0.840557
	C184	C	0.873972	0.183232	0.409179
	C185	C	0.124182	0.184982	0.629911
	C186	C	0.121736	0.819260	0.410260
	C187	C	0.873557	0.818535	0.628941
	C188	C	0.184062	0.393279	0.890883
	C189	C	0.176729	0.610787	0.141860
	C190	C	0.814020	0.390437	0.143865
	C191	C	0.816805	0.609620	0.897458
	C192	C	0.404513	0.090193	0.611740
	C193	C	0.595496	0.911014	0.617467
	C194	C	0.594118	0.093915	0.422398
	C195	C	0.401676	0.911097	0.421772
	C196	C	0.592389	0.405219	0.109299
	C197	C	0.593464	0.599441	0.926677
	C198	C	0.401252	0.598221	0.108720
	C199	C	0.404723	0.408751	0.929325
	C200	C	0.090429	0.596524	0.423141
	C201	C	0.907008	0.597706	0.616276
	C202	C	0.088434	0.406862	0.614018
	C203	C	0.906428	0.404570	0.423508
	C204	C	0.899168	0.591348	0.117053
	C205	C	0.091955	0.410263	0.113317
	C206	C	0.090381	0.590310	0.924506
	C207	C	0.901505	0.407999	0.923244
	C208	C	0.093756	0.905351	0.611205
	C209	C	0.091812	0.095833	0.431140
	C210	C	0.902849	0.096843	0.609737
	C211	C	0.900767	0.903192	0.427557
	C212	C	0.586635	0.096873	0.924234
	C213	C	0.406110	0.097255	0.113996
	C214	C	0.589836	0.904961	0.116070
	C215	C	0.404973	0.908220	0.923584
	Zn216	Zn	0.497101	0.001998	0.769297
	Zn217	Zn	0.498056	0.002842	0.268717
	Zn218	Zn	0.746660	0.500159	0.018974
	Zn219	Zn	0.247018	0.501781	0.018559
	Zn220	Zn	-0.001423	0.750677	0.519750
	Zn221	Zn	-0.001435	0.251642	0.519906
	Zn222	Zn	-0.002599	0.500098	0.768923
	Zn223	Zn	-0.002610	0.499944	0.269610
	Zn224	Zn	0.495939	0.752857	0.018683
	Zn225	Zn	0.496758	0.251367	0.018460
	Zn226	Zn	0.747934	0.001904	0.518850
	Zn227	Zn	0.248060	0.001173	0.520143
	N228	N	0.410894	0.966137	0.699471
	N229	N	0.586340	0.036872	0.701376
	N230	N	0.584515	0.967439	0.339062
	N231	N	0.409063	0.037354	0.337364
	N232	N	0.676572	0.414209	0.982879
	N233	N	0.675568	0.586792	0.054379
	N234	N	0.314657	0.591065	0.983564
	N235	N	0.318101	0.415959	0.054053
	N236	N	0.962409	0.679154	0.434428
	N237	N	0.033565	0.681980	0.608259
	N238	N	0.962975	0.321257	0.606675
	N239	N	0.033642	0.320772	0.432498
	N240	N	0.961841	0.414866	0.698293
	N241	N	0.032962	0.589132	0.701627
	N242	N	0.962455	0.586636	0.340741
	N243	N	0.032342	0.411621	0.337746
	N244	N	0.407583	0.684472	0.983889
	N245	N	0.583183	0.681906	0.053662
	N246	N	0.585342	0.319228	0.983919
	N247	N	0.408798	0.320385	0.053237
	N248	N	0.675989	0.965980	0.433903
	N249	N	0.679851	0.037140	0.607898
	N250	N	0.319282	0.964777	0.605129
	N251	N	0.315302	0.036312	0.430388
	N252	N	0.907750	0.465588	0.201780
	N253	N	0.083638	0.535220	0.199126
	N254	N	0.085046	0.465369	0.838116
	N255	N	0.909355	0.533884	0.838645
	N256	N	0.177458	0.914847	0.484536
	N257	N	0.178894	0.088371	0.556254
	N258	N	0.818817	0.087517	0.483206
	N259	N	0.817845	0.914413	0.554705
	N260	N	0.461143	0.183098	0.930723
	N261	N	0.532050	0.182450	0.106014
	N262	N	0.462647	0.821824	0.106943
	N263	N	0.531720	0.823608	0.933291
	N264	N	0.462875	0.915509	0.199269
	N265	N	0.532594	0.089301	0.198779
	N266	N	0.462430	0.091885	0.835667
	N267	N	0.532338	0.916852	0.840957
	N268	N	0.910335	0.182452	0.484353
	N269	N	0.085841	0.182268	0.555869
	N270	N	0.085611	0.820286	0.485240
	N271	N	0.910040	0.819624	0.554129
	N272	N	0.180168	0.467000	0.929297
	N273	N	0.175746	0.536408	0.104688
	N274	N	0.815832	0.464804	0.106775
	N275	N	0.818397	0.534954	0.933996
	O276	O	0.186988	0.188023	0.201732
	H277	H	0.169829	0.185307	0.189206
	H278	H	0.184459	0.148598	0.213775
	O279	O	0.879822	0.791717	0.224693
	H280	H	0.872916	0.800409	0.244899
	H281	H	0.852749	0.788172	0.205610
	O282	O	0.457923	0.606309	0.671976
	H283	H	0.487928	0.598064	0.665133
	H284	H	0.470253	0.628445	0.683070
	O285	O	0.318143	0.324226	0.692992
	H286	H	0.341209	0.326124	0.688018
	H287	H	0.305102	0.359164	0.693300
	O288	O	0.120055	0.134474	-0.104433
	H289	H	0.105525	0.128578	-0.087371
	H290	H	0.117958	0.154903	-0.103001
	O291	O	1.208184	1.023045	0.231754
	H292	H	1.228821	1.016294	0.264133
	H293	H	1.189467	1.001982	0.220669
	O294	O	0.000220	1.123490	0.085787
	H295	H	0.013871	1.133105	0.079065
	H296	H	0.012393	1.124372	0.088399
	O297	O	0.477586	0.294980	0.727757
	H298	H	0.472569	0.288002	0.706926
	H299	H	0.470898	0.273907	0.742199
	O300	O	0.537993	0.622972	0.321446
	H301	H	0.533356	0.620540	0.316826
	H302	H	0.531394	0.617696	0.327282
	O303	O	0.537243	0.615070	0.307911
	H304	H	0.536627	0.613691	0.301885
	H305	H	0.524765	0.614190	0.301890
	O306	O	0.168096	0.831047	1.205185
	H307	H	0.163276	0.826402	1.187151
	H308	H	0.163959	0.842652	1.216694
	O309	O	0.469749	0.448490	0.373284
	H310	H	0.479972	0.454132	0.380165
	H311	H	0.460083	0.461929	0.377143
	O312	O	0.024699	0.966268	-0.129780
	H313	H	0.032053	0.974951	-0.137713
	H314	H	0.022644	0.971869	-0.123407
	O315	O	-0.102339	-0.074995	0.952804
	H316	H	-0.097334	-0.062610	0.953466
	H317	H	-0.108997	-0.063262	0.954299
	O318	O	0.357619	0.706041	0.497100
	H319	H	0.364525	0.694144	0.512399
	H320	H	0.353101	0.714886	0.509300
	O321	O	0.707765	0.530784	0.729898
	H322	H	0.691139	0.525446	0.745868
	H323	H	0.717225	0.541122	0.740141
	O324	O	0.812320	0.193844	0.829970
	H325	H	0.801142	0.180912	0.857451
	H326	H	0.805772	0.192199	0.814432
	O327	O	1.211081	0.219916	1.041555
	H328	H	1.214938	0.208041	1.050894
	H329	H	1.235140	0.243432	1.055489
	O330	O	0.329187	0.534451	-0.359853
	H331	H	0.336602	0.532080	-0.342587
	H332	H	0.322966	0.517745	-0.352926
	O333	O	0.985503	1.094452	0.942875
	H334	H	1.005570	1.110590	0.929510
	H335	H	0.987132	1.092412	0.952479
	O336	O	0.442491	-0.319925	0.533167
	H337	H	0.439905	-0.326418	0.530895
	H338	H	0.452492	-0.307500	0.555944
	O339	O	0.600134	0.551711	0.404660
	H340	H	0.599246	0.537732	0.410007
	H341	H	0.588817	0.548535	0.411434
	O342	O	0.682745	0.310842	0.333112
	H343	H	0.668790	0.311105	0.332671
	H344	H	0.658889	0.321499	0.330794
	O345	O	0.683902	0.711599	0.542858
	H346	H	0.664613	0.713003	0.545539
	H347	H	0.700283	0.721987	0.537012
	O348	O	1.161983	-0.178526	0.854947
	H349	H	1.161326	-0.174243	0.891042
	H350	H	1.160400	-0.141513	0.844945
	O351	O	0.953080	1.004019	0.229177
	H352	H	0.956703	1.010027	0.228585
	H353	H	0.926375	1.005513	0.223184
	O354	O	0.346146	0.508355	0.711550
	H355	H	0.325632	0.508362	0.722415
	H356	H	0.375315	0.533725	0.721123
	O357	O	1.136397	0.951593	1.155198
	H358	H	1.110092	0.964405	1.155502
	H359	H	1.128039	0.912273	1.151868
	O360	O	0.286562	0.526100	0.299634
	H361	H	0.284397	0.549500	0.311578
	H362	H	0.259678	0.538238	0.283642
	O363	O	0.880002	-0.007437	0.009016
	H364	H	0.879767	0.014729	0.020079
	H365	H	0.886162	-0.001403	0.009702
	O366	O	0.890143	0.217626	0.992526
	H367	H	0.890382	0.224388	0.984919
	H368	H	0.872206	0.215784	0.985186
	O369	O	0.795787	0.790488	-0.181279
	H370	H	0.817979	0.793740	-0.164870
	H371	H	0.818118	0.804401	-0.160689
	O372	O	0.515871	0.295661	0.308531
	H373	H	0.504280	0.304602	0.296163
	H374	H	0.498634	0.300264	0.290262
	O375	O	-0.196338	0.965277	1.211679
	H376	H	-0.200176	0.952630	1.204027
	H377	H	-0.209013	0.976406	1.230107
	O378	O	0.298930	0.701427	0.312946
	H379	H	0.293677	0.707660	0.362149
	H380	H	0.301872	0.710072	0.296991
	O381	O	1.208041	-0.017820	-0.189308
	H382	H	1.213861	-0.003186	-0.181261
	H383	H	1.212007	-0.007651	-0.201454
	O384	O	-0.037644	0.221764	0.883649
	H385	H	-0.049406	0.225210	0.880988
	H386	H	-0.029055	0.234868	0.878708
	O387	O	-0.045794	0.848791	1.048355
	H388	H	-0.043911	0.850531	1.046791
	H389	H	-0.040299	0.852688	1.045547
	O390	O	-0.200789	0.157245	1.071736
	H391	H	-0.188263	0.154916	1.059073
	H392	H	-0.211360	0.154312	1.091478
	O393	O	0.693707	0.701719	-0.296426
	H394	H	0.713871	0.704994	-0.278654
	H395	H	0.706405	0.713899	-0.308107
	O396	O	0.676553	0.495111	0.532925
	H397	H	0.672731	0.510074	0.551584
	H398	H	0.689703	0.498177	0.526918
	O399	O	0.567545	0.462417	0.639408
	H400	H	0.558561	0.466094	0.632986
	H401	H	0.561586	0.464375	0.635600
	O402	O	-0.081607	-0.052497	0.816863
	H403	H	-0.060328	-0.077756	0.814832
	H404	H	-0.072300	-0.041358	0.814035
	O405	O	0.218895	0.015894	0.014456
	H406	H	0.214746	0.018654	0.018215
	H407	H	0.207745	0.008045	0.028540
	O408	O	0.599177	0.749019	0.336153
	H409	H	0.596504	0.746746	0.322034
	H410	H	0.577373	0.730647	0.355642
	O411	O	0.009098	0.955721	0.019063
	H412	H	0.006664	0.967966	0.042001
	H413	H	0.011178	0.966800	0.022659
	O414	O	0.309989	0.410760	0.442165
	H415	H	0.313406	0.417216	0.441036
	H416	H	0.314358	0.405569	0.433494
	O417	O	0.474694	0.693314	0.534002
	H418	H	0.459338	0.687563	0.515683
	H419	H	0.474349	0.694634	0.543883
	O420	O	0.551029	0.307831	0.461478
	H421	H	0.543658	0.305004	0.446901
	H422	H	0.555177	0.296702	0.450598
	O423	O	0.208670	0.796882	0.003751
	H424	H	0.210987	0.781106	0.005662
	H425	H	0.209083	0.797048	0.001557
	O426	O	0.901243	1.157260	1.068298
	H427	H	0.896126	1.167940	1.054112
	H428	H	0.915759	1.162640	1.046827
	O429	O	0.589508	0.288128	0.501725
	H430	H	0.601357	0.273479	0.493435
	H431	H	0.597886	0.289322	0.481136
	O432	O	0.652583	0.441241	0.387308
	H433	H	0.659634	0.440037	0.377386
	H434	H	0.649236	0.437175	0.405981
	O435	O	0.021291	0.216444	0.230640
	H436	H	0.020081	0.223065	0.224095
	H437	H	0.026352	0.233424	0.243236
	O438	O	1.015729	-0.217270	-0.200131
	H439	H	1.024922	-0.249043	-0.231217
	H440	H	1.047729	-0.206303	-0.181844
	O441	O	0.796750	0.795436	0.041993
	H442	H	0.801023	0.799151	0.034291
	H443	H	0.787912	0.804378	0.034803
	O444	O	0.699538	0.508728	0.505154
	H445	H	0.699019	0.499511	0.493450
	H446	H	0.711356	0.507597	0.511207
	O447	O	0.618338	0.309585	0.605040
	H448	H	0.597303	0.308441	0.591436
	H449	H	0.627133	0.320095	0.593139
	O450	O	0.526391	0.720906	0.739423
	H451	H	0.564898	0.721471	0.740189
	H452	H	0.536864	0.743775	0.762367
	O453	O	0.534155	0.485001	0.629417
	H454	H	0.533573	0.474308	0.617147
	H455	H	0.544137	0.475399	0.634352
	O456	O	1.007124	-0.212051	0.163603
	H457	H	0.995531	-0.213985	0.171544
	H458	H	0.974202	-0.218533	0.162306
	O459	O	0.364739	0.435578	0.414434
	H460	H	0.366099	0.433789	0.421861
	H461	H	0.351810	0.442509	0.418540
	O462	O	0.292231	0.336990	0.525205
	H463	H	0.292419	0.336488	0.552305
	H464	H	0.280086	0.324443	0.518334
	O465	O	0.782568	0.031064	-0.194688
	H466	H	0.773656	0.025996	-0.221048
	H467	H	0.795995	0.035517	-0.210697
