data_Molecule from HDF5

_cell_length_a		16.221033
_cell_length_b		16.305516
_cell_length_c		16.274000
_cell_angle_alpha	90.155477
_cell_angle_beta	90.070598
_cell_angle_gamma	89.957267
_symmetry_space_group_name_H-M	'P 1'
_symmetry_Int_Tables_number		1

loop_
	_symmetry_equiv_pos_as_xyz
	x,y,z

loop_
	_atom_site_label
	_atom_site_type_symbol
	_atom_site_fract_x
	_atom_site_fract_y
	_atom_site_fract_z
	H0	H	0.399373	0.837389	0.713841
	H1	H	0.596327	0.164959	0.713177
	H2	H	0.596350	0.837718	0.283856
	H3	H	0.398305	0.164608	0.285135
	H4	H	0.712121	0.402441	0.835399
	H5	H	0.712952	0.600398	0.163582
	H6	H	0.284910	0.597036	0.835651
	H7	H	0.287238	0.405249	0.164509
	H8	H	0.834984	0.713509	0.400587
	H9	H	0.162819	0.715927	0.599773
	H10	H	0.834535	0.286618	0.596831
	H11	H	0.162731	0.285085	0.400655
	H12	H	0.834092	0.402228	0.713024
	H13	H	0.163308	0.598791	0.714366
	H14	H	0.834472	0.597328	0.286675
	H15	H	0.162784	0.400878	0.285481
	H16	H	0.399336	0.714549	0.835682
	H17	H	0.597302	0.716726	0.162661
	H18	H	0.598521	0.284626	0.836282
	H19	H	0.400458	0.286586	0.162444
	H20	H	0.712194	0.837146	0.399612
	H21	H	0.713642	0.164289	0.598003
	H22	H	0.284400	0.836274	0.596021
	H23	H	0.282393	0.163776	0.401290
	H24	H	0.900677	0.336778	0.213083
	H25	H	0.096318	0.663695	0.214201
	H26	H	0.097990	0.337010	0.784966
	H27	H	0.900204	0.663754	0.785197
	H28	H	0.212132	0.901731	0.335198
	H29	H	0.213112	0.099580	0.663318
	H30	H	0.784864	0.097283	0.334966
	H31	H	0.785494	0.903372	0.663632
	H32	H	0.334227	0.213711	0.901264
	H33	H	0.662562	0.214616	0.097616
	H34	H	0.333861	0.788182	0.096481
	H35	H	0.663123	0.786144	0.900365
	H36	H	0.333943	0.903916	0.212356
	H37	H	0.661979	0.100251	0.214804
	H38	H	0.334217	0.098207	0.785991
	H39	H	0.662773	0.902128	0.783902
	H40	H	0.899934	0.214186	0.335495
	H41	H	0.097622	0.215600	0.662809
	H42	H	0.096620	0.785462	0.335602
	H43	H	0.899807	0.785873	0.662854
	H44	H	0.212753	0.336847	0.901632
	H45	H	0.212203	0.664307	0.098626
	H46	H	0.783830	0.337314	0.097664
	H47	H	0.785222	0.664633	0.902075
	H48	H	0.406597	0.115419	0.589319
	H49	H	0.590099	0.886419	0.588015
	H50	H	0.590202	0.116211	0.410197
	H51	H	0.403681	0.883970	0.407009
	H52	H	0.588480	0.408905	0.114768
	H53	H	0.587708	0.595662	0.883624
	H54	H	0.396189	0.595979	0.119574
	H55	H	0.408073	0.406312	0.882788
	H56	H	0.119438	0.590034	0.394476
	H57	H	0.879926	0.594434	0.598888
	H58	H	0.117763	0.407730	0.601176
	H59	H	0.885523	0.419478	0.408094
	H60	H	0.117040	0.399758	0.588590
	H61	H	0.882393	0.597597	0.587628
	H62	H	0.118867	0.605776	0.409971
	H63	H	0.877338	0.403054	0.394859
	H64	H	0.409402	0.587857	0.113239
	H65	H	0.594818	0.595071	0.881353
	H66	H	0.591659	0.406272	0.116635
	H67	H	0.403962	0.404830	0.881272
	H68	H	0.595817	0.118940	0.405970
	H69	H	0.594925	0.884056	0.592214
	H70	H	0.402349	0.117422	0.592277
	H71	H	0.405170	0.883642	0.402090
	H72	H	0.902971	0.619395	0.097168
	H73	H	0.087746	0.382243	0.099623
	H74	H	0.090008	0.615799	0.908318
	H75	H	0.912165	0.382856	0.896212
	H76	H	0.080097	0.902729	0.613816
	H77	H	0.087114	0.098109	0.381790
	H78	H	0.908986	0.092039	0.613858
	H79	H	0.912992	0.903451	0.383799
	H80	H	0.614854	0.092416	0.908224
	H81	H	0.381495	0.092653	0.093607
	H82	H	0.611970	0.916099	0.088277
	H83	H	0.379886	0.901772	0.903875
	H84	H	0.617511	0.909386	0.099864
	H85	H	0.379615	0.095807	0.093576
	H86	H	0.615881	0.092614	0.905074
	H87	H	0.383606	0.908146	0.910898
	H88	H	0.906053	0.097600	0.616950
	H89	H	0.097041	0.091386	0.381712
	H90	H	0.100258	0.901208	0.620205
	H91	H	0.899374	0.900622	0.379084
	H92	H	0.093105	0.616914	0.907854
	H93	H	0.090402	0.386276	0.086234
	H94	H	0.910697	0.615750	0.094574
	H95	H	0.909882	0.388147	0.915993
	H96	H	0.407152	0.116616	0.594511
	H97	H	0.588666	0.884518	0.594961
	H98	H	0.589234	0.117775	0.403452
	H99	H	0.408299	0.886114	0.406491
	H100	H	0.592999	0.410509	0.116033
	H101	H	0.591834	0.589790	0.884400
	H102	H	0.410279	0.603974	0.117685
	H103	H	0.403870	0.408865	0.882753
	H104	H	0.111420	0.585800	0.414926
	H105	H	0.884638	0.586808	0.591536
	H106	H	0.112631	0.414574	0.588447
	H107	H	0.882647	0.398689	0.416489
	H108	H	0.903145	0.616100	0.089576
	H109	H	0.100477	0.381692	0.094599
	H110	H	0.091124	0.617185	0.905674
	H111	H	0.893264	0.379941	0.905549
	H112	H	0.092480	0.919041	0.613024
	H113	H	0.086393	0.086969	0.385619
	H114	H	0.902620	0.092081	0.616432
	H115	H	0.902756	0.914002	0.384159
	H116	H	0.616238	0.095093	0.906881
	H117	H	0.381408	0.094790	0.090607
	H118	H	0.616169	0.901796	0.087525
	H119	H	0.381275	0.911463	0.901981
	C120	C	0.376470	0.008811	0.620812
	C121	C	0.620412	0.992866	0.621315
	C122	C	0.619878	0.009346	0.377794
	C123	C	0.376493	0.992472	0.377320
	C124	C	0.619867	0.379559	0.007642
	C125	C	0.620081	0.622526	0.991334
	C126	C	0.376665	0.623162	0.008439
	C127	C	0.377322	0.379131	0.990704
	C128	C	0.007555	0.621306	0.378554
	C129	C	0.990654	0.621808	0.621413
	C130	C	0.007297	0.378778	0.621047
	C131	C	0.990329	0.378349	0.377931
	C132	C	0.877258	0.508831	0.121533
	C133	C	0.120869	0.491755	0.121526
	C134	C	0.120223	0.508726	0.878254
	C135	C	0.876825	0.492000	0.877514
	C136	C	0.119566	0.878710	0.507356
	C137	C	0.119353	0.121309	0.490825
	C138	C	0.877064	0.122143	0.507563
	C139	C	0.876008	0.877952	0.490763
	C140	C	0.507073	0.121659	0.878327
	C141	C	0.489303	0.123057	0.121248
	C142	C	0.506887	0.880058	0.120349
	C143	C	0.490356	0.879025	0.876980
	C144	C	0.379159	0.885867	0.675500
	C145	C	0.617522	0.115847	0.675992
	C146	C	0.617126	0.886403	0.322066
	C147	C	0.377977	0.115502	0.322542
	C148	C	0.674982	0.381619	0.884423
	C149	C	0.675526	0.620902	0.114513
	C150	C	0.322226	0.618781	0.884515
	C151	C	0.323528	0.383212	0.114912
	C152	C	0.883899	0.675875	0.380435
	C153	C	0.113814	0.677590	0.619612
	C154	C	0.883638	0.324058	0.617928
	C155	C	0.113891	0.323042	0.380524
	C156	C	0.883388	0.381521	0.675571
	C157	C	0.114191	0.619353	0.676584
	C158	C	0.883814	0.617877	0.323797
	C159	C	0.114010	0.380684	0.323422
	C160	C	0.379418	0.676669	0.884522
	C161	C	0.618165	0.678811	0.114155
	C162	C	0.618376	0.322991	0.884979
	C163	C	0.379830	0.324557	0.113999
	C164	C	0.674611	0.886156	0.379653
	C165	C	0.675591	0.115556	0.618498
	C166	C	0.321929	0.885312	0.617187
	C167	C	0.320715	0.115326	0.380488
	C168	C	0.880151	0.385647	0.175560
	C169	C	0.117496	0.614928	0.176632
	C170	C	0.118082	0.385994	0.822728
	C171	C	0.879531	0.615079	0.822832
	C172	C	0.174448	0.881105	0.384244
	C173	C	0.174927	0.119589	0.614391
	C174	C	0.822834	0.118052	0.383803
	C175	C	0.822572	0.882181	0.614441
	C176	C	0.383221	0.176297	0.880856
	C177	C	0.613327	0.177384	0.118642
	C178	C	0.383148	0.825640	0.117133
	C179	C	0.613893	0.823747	0.879288
	C180	C	0.383199	0.882790	0.175029
	C181	C	0.613042	0.120728	0.176877
	C182	C	0.383144	0.118772	0.823633
	C183	C	0.613889	0.881543	0.821778
	C184	C	0.879340	0.176601	0.384323
	C185	C	0.117829	0.177393	0.614071
	C186	C	0.117039	0.823234	0.384318
	C187	C	0.879341	0.823680	0.614048
	C188	C	0.175201	0.385815	0.880682
	C189	C	0.174966	0.615164	0.118964
	C190	C	0.822167	0.385847	0.117980
	C191	C	0.822557	0.615514	0.880993
	C192	C	0.398790	0.094554	0.598579
	C193	C	0.597795	0.907146	0.598490
	C194	C	0.598192	0.095571	0.400031
	C195	C	0.398939	0.906653	0.398908
	C196	C	0.597632	0.401899	0.093630
	C197	C	0.598039	0.599946	0.905263
	C198	C	0.398683	0.602060	0.094395
	C199	C	0.398869	0.400251	0.904506
	C200	C	0.094186	0.600027	0.400199
	C201	C	0.904430	0.599568	0.599040
	C202	C	0.093602	0.400880	0.599116
	C203	C	0.904084	0.400443	0.400076
	C204	C	0.899212	0.594817	0.100237
	C205	C	0.099331	0.405652	0.099821
	C206	C	0.097918	0.594530	0.900668
	C207	C	0.898633	0.405882	0.899375
	C208	C	0.097347	0.900900	0.593576
	C209	C	0.096784	0.098845	0.405145
	C210	C	0.899366	0.100277	0.593532
	C211	C	0.898263	0.899680	0.404662
	C212	C	0.593328	0.099845	0.900298
	C213	C	0.403161	0.100873	0.099198
	C214	C	0.593021	0.902647	0.098501
	C215	C	0.403951	0.900703	0.899060
	Zn216	Zn	0.498396	0.001003	0.749554
	Zn217	Zn	0.498173	0.001439	0.249172
	Zn218	Zn	0.748462	0.500869	-0.000732
	Zn219	Zn	0.249136	0.500727	-0.000117
	Zn220	Zn	-0.001306	0.749841	0.499502
	Zn221	Zn	-0.001410	0.250457	0.499383
	Zn222	Zn	-0.001303	0.500054	0.749478
	Zn223	Zn	-0.000443	0.499836	0.250218
	Zn224	Zn	0.498638	0.751138	-0.000969
	Zn225	Zn	0.498373	0.250170	-0.000806
	Zn226	Zn	0.748705	0.000463	0.499090
	Zn227	Zn	0.247909	0.000291	0.499004
	N228	N	0.412241	0.963554	0.677931
	N229	N	0.583928	0.038362	0.677726
	N230	N	0.583608	0.963866	0.320997
	N231	N	0.412138	0.038314	0.320686
	N232	N	0.675885	0.416125	0.961567
	N233	N	0.676874	0.586746	0.037052
	N234	N	0.320392	0.586158	0.962386
	N235	N	0.321752	0.416487	0.037244
	N236	N	0.961731	0.678050	0.413765
	N237	N	0.035795	0.679373	0.586079
	N238	N	0.961566	0.322230	0.584808
	N239	N	0.036045	0.321875	0.414123
	N240	N	0.961265	0.414847	0.677488
	N241	N	0.036538	0.585550	0.677847
	N242	N	0.961907	0.584673	0.322385
	N243	N	0.036265	0.414315	0.321630
	N244	N	0.412370	0.679737	0.962484
	N245	N	0.584354	0.679728	0.036541
	N246	N	0.584794	0.321489	0.962719
	N247	N	0.412646	0.322066	0.036113
	N248	N	0.676192	0.963653	0.413706
	N249	N	0.677231	0.038041	0.585149
	N250	N	0.320266	0.962840	0.583918
	N251	N	0.319829	0.037833	0.413890
	N252	N	0.913718	0.463152	0.177928
	N253	N	0.084562	0.537226	0.178421
	N254	N	0.084377	0.463485	0.821301
	N255	N	0.912684	0.537293	0.820766
	N256	N	0.175915	0.914955	0.461711
	N257	N	0.175973	0.085371	0.537023
	N258	N	0.821228	0.084857	0.461483
	N259	N	0.820339	0.914903	0.536667
	N260	N	0.461250	0.178110	0.914229
	N261	N	0.535621	0.178797	0.084748
	N262	N	0.461152	0.823875	0.083943
	N263	N	0.536071	0.821977	0.912865
	N264	N	0.461039	0.916310	0.177005
	N265	N	0.535012	0.087572	0.178555
	N266	N	0.461039	0.085598	0.822063
	N267	N	0.535949	0.914948	0.820245
	N268	N	0.912461	0.179012	0.462147
	N269	N	0.083887	0.178600	0.536311
	N270	N	0.083702	0.821799	0.462132
	N271	N	0.911889	0.820831	0.536022
	N272	N	0.176528	0.463115	0.914724
	N273	N	0.176864	0.537668	0.085380
	N274	N	0.820433	0.463311	0.084972
	N275	N	0.820824	0.537970	0.914357
	O276	O	-0.421420	0.593026	1.563742
	H277	H	-0.415506	0.596708	1.564132
	H278	H	-0.412603	0.590109	1.567123
	O279	O	0.551663	0.552012	0.547632
	H280	H	0.542494	0.553045	0.548524
	H281	H	0.554398	0.552049	0.540741
	O282	O	1.002384	-0.024081	-0.078076
	H283	H	1.002564	-0.018113	-0.083598
	H284	H	1.006428	-0.027259	-0.080362
	O285	O	0.580399	0.559378	0.541040
	H286	H	0.577945	0.559512	0.546193
	H287	H	0.574321	0.564168	0.544924
	O288	O	0.603424	0.557570	0.506675
	H289	H	0.599802	0.554129	0.509620
	H290	H	0.603841	0.566126	0.514090
	O291	O	-0.012305	0.960973	0.906715
	H292	H	-0.014151	0.960131	0.907637
	H293	H	-0.008921	0.957809	0.902027
	O294	O	0.569821	0.558067	0.504517
	H295	H	0.580508	0.563464	0.501269
	H296	H	0.578148	0.557144	0.498647
	O297	O	1.008772	-0.028983	-0.105605
	H298	H	1.003316	-0.027880	-0.110834
	H299	H	1.010593	-0.031911	-0.110506
