data_Molecule from HDF5

_cell_length_a		16.340073
_cell_length_b		16.201713
_cell_length_c		16.269897
_cell_angle_alpha	89.933384
_cell_angle_beta	90.102481
_cell_angle_gamma	89.952802
_symmetry_space_group_name_H-M	'P 1'
_symmetry_Int_Tables_number		1

loop_
	_symmetry_equiv_pos_as_xyz
	x,y,z

loop_
	_atom_site_label
	_atom_site_type_symbol
	_atom_site_fract_x
	_atom_site_fract_y
	_atom_site_fract_z
	H0	H	0.403042	0.835360	0.712357
	H1	H	0.596696	0.164852	0.712143
	H2	H	0.597178	0.835065	0.287266
	H3	H	0.401587	0.164389	0.285300
	H4	H	0.714794	0.400148	0.836416
	H5	H	0.714377	0.598297	0.163606
	H6	H	0.284605	0.598764	0.837004
	H7	H	0.286010	0.400606	0.163918
	H8	H	0.836277	0.713415	0.403719
	H9	H	0.163910	0.713221	0.597270
	H10	H	0.836789	0.285950	0.597654
	H11	H	0.163876	0.286734	0.404271
	H12	H	0.836713	0.402343	0.714126
	H13	H	0.163214	0.599161	0.715865
	H14	H	0.836525	0.598406	0.286337
	H15	H	0.163389	0.401430	0.286354
	H16	H	0.402494	0.712587	0.835832
	H17	H	0.597295	0.712746	0.164291
	H18	H	0.595303	0.288032	0.835340
	H19	H	0.402971	0.285873	0.163798
	H20	H	0.714705	0.835833	0.401036
	H21	H	0.714368	0.163871	0.598660
	H22	H	0.285767	0.836063	0.598421
	H23	H	0.285878	0.165004	0.401567
	H24	H	0.903503	0.335314	0.213711
	H25	H	0.096660	0.664647	0.212543
	H26	H	0.097814	0.335378	0.786678
	H27	H	0.901027	0.664727	0.786484
	H28	H	0.214097	0.901942	0.336103
	H29	H	0.214868	0.098420	0.663645
	H30	H	0.785253	0.098695	0.336122
	H31	H	0.786184	0.901681	0.663679
	H32	H	0.335985	0.213652	0.901340
	H33	H	0.663757	0.212888	0.096722
	H34	H	0.336705	0.786889	0.096011
	H35	H	0.663331	0.785276	0.901463
	H36	H	0.336546	0.901933	0.213117
	H37	H	0.663100	0.099344	0.215639
	H38	H	0.337253	0.099571	0.783102
	H39	H	0.663062	0.901786	0.785265
	H40	H	0.903124	0.212941	0.335500
	H41	H	0.096662	0.212142	0.664653
	H42	H	0.096133	0.787284	0.335500
	H43	H	0.903998	0.787669	0.664755
	H44	H	0.213609	0.335726	0.903122
	H45	H	0.213793	0.664608	0.098956
	H46	H	0.786268	0.335002	0.098975
	H47	H	0.785118	0.663908	0.902001
	H48	H	0.403623	0.116738	0.584922
	H49	H	0.605416	0.879335	0.593483
	H50	H	0.601158	0.117037	0.414040
	H51	H	0.414679	0.888363	0.416134
	H52	H	0.597569	0.400675	0.119990
	H53	H	0.603771	0.590886	0.880593
	H54	H	0.397001	0.591191	0.119663
	H55	H	0.406893	0.398575	0.881299
	H56	H	0.116727	0.599702	0.410544
	H57	H	0.883968	0.593677	0.591864
	H58	H	0.118695	0.407225	0.602638
	H59	H	0.885325	0.402284	0.415229
	H60	H	0.117104	0.398674	0.590895
	H61	H	0.884258	0.591572	0.595411
	H62	H	0.114187	0.587249	0.408695
	H63	H	0.886674	0.416142	0.404955
	H64	H	0.411643	0.586155	0.113730
	H65	H	0.586964	0.583528	0.887303
	H66	H	0.597029	0.413886	0.114843
	H67	H	0.397347	0.409859	0.881626
	H68	H	0.594137	0.120686	0.396750
	H69	H	0.586895	0.881293	0.602548
	H70	H	0.403658	0.120147	0.597651
	H71	H	0.391946	0.879714	0.409635
	H72	H	0.903754	0.616184	0.086701
	H73	H	0.093887	0.382872	0.093203
	H74	H	0.099357	0.620798	0.903475
	H75	H	0.899659	0.381771	0.912208
	H76	H	0.100010	0.900924	0.619554
	H77	H	0.101355	0.096612	0.380083
	H78	H	0.911031	0.101563	0.617694
	H79	H	0.905770	0.904206	0.382438
	H80	H	0.614790	0.092254	0.908190
	H81	H	0.384129	0.090708	0.096975
	H82	H	0.619327	0.898870	0.095519
	H83	H	0.384998	0.908692	0.907371
	H84	H	0.613969	0.908558	0.087833
	H85	H	0.382318	0.097079	0.093910
	H86	H	0.616675	0.091596	0.902216
	H87	H	0.383512	0.908272	0.904066
	H88	H	0.896716	0.092787	0.619874
	H89	H	0.093708	0.084857	0.385654
	H90	H	0.096759	0.915875	0.615174
	H91	H	0.904274	0.909681	0.382507
	H92	H	0.086023	0.616686	0.903436
	H93	H	0.093241	0.382839	0.093130
	H94	H	0.901502	0.620025	0.098072
	H95	H	0.904965	0.380290	0.899173
	H96	H	0.414336	0.114986	0.592151
	H97	H	0.589203	0.886937	0.582738
	H98	H	0.583066	0.112718	0.410430
	H99	H	0.410450	0.879956	0.392560
	H100	H	0.586163	0.405721	0.114948
	H101	H	0.588796	0.602275	0.881674
	H102	H	0.409955	0.601715	0.118585
	H103	H	0.410869	0.412060	0.885821
	H104	H	0.118845	0.594259	0.399336
	H105	H	0.882430	0.595370	0.594941
	H106	H	0.113662	0.412986	0.590144
	H107	H	0.880007	0.401470	0.398864
	H108	H	0.912573	0.615777	0.094969
	H109	H	0.093215	0.383353	0.092300
	H110	H	0.093592	0.615095	0.915529
	H111	H	0.913546	0.384838	0.909330
	H112	H	0.085299	0.905019	0.614904
	H113	H	0.086680	0.098396	0.383626
	H114	H	0.910467	0.084544	0.613371
	H115	H	0.909236	0.907867	0.384516
	H116	H	0.617161	0.097549	0.905332
	H117	H	0.384852	0.091929	0.089892
	H118	H	0.617164	0.911000	0.100075
	H119	H	0.383175	0.905050	0.905761
	C120	C	0.378921	0.008629	0.620427
	C121	C	0.621973	0.991212	0.621272
	C122	C	0.620997	0.008105	0.378805
	C123	C	0.377906	0.991676	0.377982
	C124	C	0.621743	0.377999	0.008203
	C125	C	0.621554	0.621137	0.991650
	C126	C	0.378188	0.621401	0.008752
	C127	C	0.378121	0.378564	0.991399
	C128	C	0.008558	0.622318	0.378177
	C129	C	0.991670	0.621707	0.622219
	C130	C	0.008624	0.378133	0.622522
	C131	C	0.992169	0.378467	0.378601
	C132	C	0.878403	0.508197	0.121350
	C133	C	0.121613	0.491553	0.121560
	C134	C	0.120927	0.508660	0.879472
	C135	C	0.878218	0.491310	0.878775
	C136	C	0.121897	0.878837	0.508223
	C137	C	0.121910	0.121667	0.491297
	C138	C	0.878310	0.121185	0.508397
	C139	C	0.878473	0.878788	0.491733
	C140	C	0.508001	0.121780	0.877354
	C141	C	0.491791	0.121412	0.121601
	C142	C	0.508617	0.878344	0.121776
	C143	C	0.491875	0.878799	0.877849
	C144	C	0.382062	0.884400	0.674987
	C145	C	0.618693	0.115270	0.675652
	C146	C	0.618048	0.884110	0.324556
	C147	C	0.381178	0.115565	0.323292
	C148	C	0.676536	0.380421	0.885060
	C149	C	0.676625	0.618745	0.114796
	C150	C	0.322718	0.619053	0.885632
	C151	C	0.324145	0.380903	0.115003
	C152	C	0.885200	0.676129	0.382448
	C153	C	0.114902	0.676457	0.618866
	C154	C	0.885448	0.323807	0.618681
	C155	C	0.115120	0.324344	0.382892
	C156	C	0.885402	0.381469	0.676639
	C157	C	0.114702	0.619448	0.677524
	C158	C	0.885336	0.619143	0.324157
	C159	C	0.114683	0.381201	0.324098
	C160	C	0.380936	0.675914	0.885251
	C161	C	0.618327	0.675676	0.115103
	C162	C	0.617367	0.324499	0.884568
	C163	C	0.382305	0.323977	0.115013
	C164	C	0.676054	0.884539	0.381276
	C165	C	0.676643	0.114974	0.618880
	C166	C	0.324180	0.884711	0.618129
	C167	C	0.323442	0.115590	0.380842
	C168	C	0.881869	0.384324	0.176483
	C169	C	0.117803	0.615656	0.175750
	C170	C	0.118560	0.384694	0.824294
	C171	C	0.880997	0.615613	0.824486
	C172	C	0.176184	0.881438	0.384779
	C173	C	0.177186	0.119192	0.614877
	C174	C	0.823290	0.119122	0.384949
	C175	C	0.823724	0.880868	0.614645
	C176	C	0.384920	0.176087	0.880399
	C177	C	0.614957	0.175752	0.117964
	C178	C	0.385417	0.824439	0.117369
	C179	C	0.614590	0.823467	0.880732
	C180	C	0.385442	0.881573	0.175553
	C181	C	0.614514	0.119409	0.177091
	C182	C	0.385629	0.119402	0.821653
	C183	C	0.614578	0.881314	0.823130
	C184	C	0.881883	0.175670	0.384535
	C185	C	0.118396	0.175381	0.615403
	C186	C	0.118044	0.824315	0.384598
	C187	C	0.882356	0.824470	0.615313
	C188	C	0.175783	0.384556	0.882167
	C189	C	0.176060	0.615379	0.119478
	C190	C	0.823865	0.384269	0.119392
	C191	C	0.823291	0.615203	0.881846
	C192	C	0.400680	0.094977	0.598260
	C193	C	0.600288	0.904807	0.599490
	C194	C	0.599115	0.094629	0.400645
	C195	C	0.399436	0.905020	0.399764
	C196	C	0.599987	0.400263	0.094379
	C197	C	0.599458	0.598936	0.905528
	C198	C	0.399806	0.599357	0.095134
	C199	C	0.398996	0.400418	0.905144
	C200	C	0.094565	0.600265	0.399971
	C201	C	0.905778	0.600108	0.600462
	C202	C	0.094395	0.399895	0.600989
	C203	C	0.905980	0.400281	0.400094
	C204	C	0.899774	0.595094	0.099619
	C205	C	0.099922	0.405155	0.099248
	C206	C	0.099326	0.595055	0.901250
	C207	C	0.899730	0.404577	0.900433
	C208	C	0.100427	0.900664	0.594449
	C209	C	0.100199	0.099860	0.405380
	C210	C	0.899851	0.099317	0.594638
	C211	C	0.900161	0.900700	0.405331
	C212	C	0.594207	0.100243	0.899108
	C213	C	0.405894	0.099616	0.100030
	C214	C	0.594709	0.899939	0.100627
	C215	C	0.405925	0.900926	0.899445
	Zn216	Zn	0.500231	0.000351	0.748590
	Zn217	Zn	0.500294	-0.000135	0.250383
	Zn218	Zn	0.749928	0.499334	0.000347
	Zn219	Zn	0.249738	0.500027	0.000855
	Zn220	Zn	0.000187	0.750536	0.500195
	Zn221	Zn	0.000078	0.249356	0.500326
	Zn222	Zn	-0.000049	0.500141	0.750962
	Zn223	Zn	0.000231	0.500274	0.249213
	Zn224	Zn	0.500050	0.749762	-0.000123
	Zn225	Zn	0.499710	0.249871	-0.000345
	Zn226	Zn	0.749763	-0.000123	0.499582
	Zn227	Zn	0.250319	0.000302	0.500081
	N228	N	0.415473	0.962409	0.676577
	N229	N	0.585177	0.037500	0.676949
	N230	N	0.584432	0.962007	0.323038
	N231	N	0.414438	0.037493	0.321621
	N232	N	0.679253	0.412985	0.963166
	N233	N	0.678585	0.585406	0.037099
	N234	N	0.320965	0.585864	0.963545
	N235	N	0.321397	0.414121	0.037240
	N236	N	0.962906	0.678215	0.415319
	N237	N	0.037508	0.677927	0.585084
	N238	N	0.963003	0.321583	0.585826
	N239	N	0.037752	0.322615	0.416144
	N240	N	0.962825	0.414527	0.678983
	N241	N	0.037261	0.586239	0.679709
	N242	N	0.962949	0.586064	0.321671
	N243	N	0.037074	0.414299	0.321597
	N244	N	0.414939	0.677234	0.962643
	N245	N	0.584755	0.677235	0.037414
	N246	N	0.583817	0.323017	0.962060
	N247	N	0.415265	0.322368	0.037172
	N248	N	0.678014	0.962661	0.414384
	N249	N	0.678743	0.036893	0.585708
	N250	N	0.322071	0.962906	0.585076
	N251	N	0.321550	0.037520	0.414278
	N252	N	0.915085	0.462355	0.177778
	N253	N	0.084694	0.537624	0.177293
	N254	N	0.084894	0.462594	0.822799
	N255	N	0.914298	0.537549	0.822387
	N256	N	0.178787	0.914331	0.462720
	N257	N	0.179399	0.086342	0.536982
	N258	N	0.820846	0.086175	0.462910
	N259	N	0.821540	0.914113	0.536889
	N260	N	0.461952	0.177422	0.914676
	N261	N	0.537553	0.177061	0.084142
	N262	N	0.462911	0.822399	0.084559
	N263	N	0.537247	0.821806	0.914146
	N264	N	0.463256	0.914182	0.178514
	N265	N	0.537085	0.086320	0.179205
	N266	N	0.463301	0.086649	0.819616
	N267	N	0.537117	0.914796	0.821155
	N268	N	0.915570	0.177005	0.462217
	N269	N	0.084715	0.177000	0.537783
	N270	N	0.084617	0.822984	0.462169
	N271	N	0.915746	0.822815	0.537626
	N272	N	0.177522	0.462538	0.915772
	N273	N	0.178315	0.537275	0.086215
	N274	N	0.821636	0.462429	0.086137
	N275	N	0.821634	0.536970	0.915052
