data_Molecule from HDF5

_cell_length_a		16.117433
_cell_length_b		16.136223
_cell_length_c		16.485279
_cell_angle_alpha	89.908490
_cell_angle_beta	90.231566
_cell_angle_gamma	90.264883
_symmetry_space_group_name_H-M	'P 1'
_symmetry_Int_Tables_number		1

loop_
	_symmetry_equiv_pos_as_xyz
	x,y,z

loop_
	_atom_site_label
	_atom_site_type_symbol
	_atom_site_fract_x
	_atom_site_fract_y
	_atom_site_fract_z
	H0	H	0.391612	0.840812	0.718838
	H1	H	0.603023	0.166284	0.718378
	H2	H	0.600673	0.840371	0.280960
	H3	H	0.394023	0.166099	0.281070
	H4	H	0.709466	0.406109	0.836496
	H5	H	0.714814	0.603966	0.160173
	H6	H	0.279002	0.604282	0.837993
	H7	H	0.279889	0.401091	0.160832
	H8	H	0.830155	0.714964	0.400396
	H9	H	0.160851	0.714785	0.598077
	H10	H	0.830907	0.286607	0.597821
	H11	H	0.161609	0.289512	0.403201
	H12	H	0.831895	0.398693	0.715477
	H13	H	0.158671	0.607375	0.718046
	H14	H	0.831768	0.603557	0.281939
	H15	H	0.157545	0.397007	0.280584
	H16	H	0.396578	0.720989	0.838480
	H17	H	0.598804	0.719932	0.160789
	H18	H	0.594251	0.287694	0.837851
	H19	H	0.395648	0.284939	0.160842
	H20	H	0.707568	0.837014	0.404588
	H21	H	0.710990	0.168054	0.597351
	H22	H	0.284758	0.836853	0.596583
	H23	H	0.282914	0.167754	0.401077
	H24	H	0.890332	0.338875	0.215853
	H25	H	0.101655	0.663735	0.220879
	H26	H	0.097696	0.338631	0.783060
	H27	H	0.892345	0.665138	0.779946
	H28	H	0.212622	0.901979	0.338835
	H29	H	0.214233	0.101684	0.661548
	H30	H	0.778990	0.102899	0.339462
	H31	H	0.778602	0.900643	0.662106
	H32	H	0.330517	0.215617	0.901347
	H33	H	0.661640	0.216881	0.096104
	H34	H	0.332500	0.789245	0.097349
	H35	H	0.662219	0.792600	0.903143
	H36	H	0.334385	0.898381	0.216341
	H37	H	0.659376	0.110310	0.218594
	H38	H	0.334155	0.108624	0.778637
	H39	H	0.659993	0.901486	0.783376
	H40	H	0.895396	0.217865	0.339204
	H41	H	0.097384	0.218625	0.661654
	H42	H	0.094978	0.785855	0.338680
	H43	H	0.895074	0.783640	0.661459
	H44	H	0.207870	0.337538	0.904044
	H45	H	0.210906	0.667715	0.099072
	H46	H	0.782369	0.338083	0.093567
	H47	H	0.783761	0.668961	0.900987
	H48	H	0.412587	0.115839	0.584512
	H49	H	0.585634	0.885303	0.593851
	H50	H	0.589584	0.121252	0.404432
	H51	H	0.406969	0.885312	0.403652
	H52	H	0.588678	0.416528	0.111478
	H53	H	0.586796	0.600675	0.883943
	H54	H	0.409543	0.601874	0.114248
	H55	H	0.408680	0.409993	0.886529
	H56	H	0.109933	0.593322	0.414646
	H57	H	0.878256	0.592846	0.591300
	H58	H	0.110917	0.410241	0.585424
	H59	H	0.876086	0.405649	0.405197
	H60	H	0.111323	0.419862	0.596168
	H61	H	0.877602	0.590193	0.590830
	H62	H	0.110598	0.584614	0.405415
	H63	H	0.880142	0.411260	0.411067
	H64	H	0.397234	0.597055	0.116453
	H65	H	0.591956	0.598623	0.883601
	H66	H	0.584943	0.406733	0.114277
	H67	H	0.399301	0.404201	0.881713
	H68	H	0.584301	0.119624	0.406516
	H69	H	0.585544	0.886510	0.593360
	H70	H	0.399433	0.122122	0.589410
	H71	H	0.406863	0.886755	0.408014
	H72	H	0.911308	0.620984	0.098615
	H73	H	0.085999	0.382618	0.099177
	H74	H	0.086814	0.619371	0.908423
	H75	H	0.906934	0.385391	0.902590
	H76	H	0.086123	0.907997	0.614262
	H77	H	0.084184	0.085717	0.390262
	H78	H	0.905225	0.094323	0.615610
	H79	H	0.902641	0.906967	0.385833
	H80	H	0.611541	0.096213	0.913690
	H81	H	0.379188	0.088936	0.096098
	H82	H	0.611609	0.919199	0.086145
	H83	H	0.379931	0.911731	0.911025
	H84	H	0.615671	0.917854	0.100490
	H85	H	0.377215	0.097206	0.092837
	H86	H	0.611559	0.088180	0.905496
	H87	H	0.380615	0.916817	0.904764
	H88	H	0.903572	0.094828	0.615051
	H89	H	0.082971	0.104487	0.384171
	H90	H	0.091323	0.904612	0.616376
	H91	H	0.899974	0.910720	0.385524
	H92	H	0.086060	0.620170	0.905311
	H93	H	0.078476	0.389562	0.088879
	H94	H	0.910127	0.617468	0.086642
	H95	H	0.903612	0.386510	0.909259
	H96	H	0.411259	0.121220	0.597827
	H97	H	0.586095	0.886177	0.593749
	H98	H	0.588125	0.119672	0.409644
	H99	H	0.402541	0.884641	0.405951
	H100	H	0.595093	0.409263	0.115929
	H101	H	0.588902	0.595910	0.885537
	H102	H	0.406621	0.588990	0.111267
	H103	H	0.397770	0.415977	0.885193
	H104	H	0.114724	0.596974	0.404196
	H105	H	0.878325	0.590906	0.593404
	H106	H	0.117003	0.406385	0.597897
	H107	H	0.878702	0.414063	0.402871
	H108	H	0.899933	0.622458	0.092167
	H109	H	0.092384	0.384860	0.087228
	H110	H	0.083451	0.618849	0.907340
	H111	H	0.899179	0.383634	0.903375
	H112	H	0.092103	0.911007	0.614883
	H113	H	0.099681	0.095027	0.382642
	H114	H	0.904608	0.093229	0.615311
	H115	H	0.905308	0.910594	0.387615
	H116	H	0.616574	0.099914	0.903603
	H117	H	0.380793	0.090554	0.087479
	H118	H	0.616893	0.906415	0.091619
	H119	H	0.377259	0.910104	0.903938
	C120	C	0.376503	0.011530	0.620697
	C121	C	0.617642	0.994469	0.622490
	C122	C	0.617189	0.011614	0.378340
	C123	C	0.375336	0.994003	0.377081
	C124	C	0.617895	0.381848	0.007125
	C125	C	0.619611	0.626981	0.990799
	C126	C	0.374225	0.625980	0.007814
	C127	C	0.373140	0.380123	0.991150
	C128	C	0.003656	0.622004	0.378093
	C129	C	0.986961	0.622142	0.620939
	C130	C	0.004439	0.381024	0.621678
	C131	C	0.986818	0.380359	0.377777
	C132	C	0.875904	0.511341	0.120072
	C133	C	0.116948	0.493778	0.122006
	C134	C	0.115681	0.510997	0.878464
	C135	C	0.874065	0.493985	0.876467
	C136	C	0.118534	0.879150	0.508461
	C137	C	0.119152	0.124653	0.491816
	C138	C	0.874604	0.123861	0.508793
	C139	C	0.873036	0.878912	0.492576
	C140	C	0.504896	0.124880	0.877928
	C141	C	0.487902	0.124067	0.120850
	C142	C	0.506232	0.883273	0.121316
	C143	C	0.488082	0.883322	0.878397
	C144	C	0.374239	0.889037	0.678925
	C145	C	0.619801	0.117605	0.679009
	C146	C	0.618097	0.888557	0.321245
	C147	C	0.375423	0.117410	0.320493
	C148	C	0.672167	0.384985	0.885261
	C149	C	0.676597	0.624508	0.112037
	C150	C	0.317339	0.624459	0.886516
	C151	C	0.317613	0.381168	0.112503
	C152	C	0.879685	0.677821	0.380091
	C153	C	0.111066	0.678040	0.618712
	C154	C	0.880429	0.324637	0.618540
	C155	C	0.111287	0.325755	0.381408
	C156	C	0.881106	0.380128	0.677296
	C157	C	0.110102	0.624364	0.678441
	C158	C	0.880518	0.622564	0.320825
	C159	C	0.109306	0.379232	0.320414
	C160	C	0.376033	0.682378	0.886557
	C161	C	0.619089	0.682565	0.112383
	C162	C	0.614508	0.326352	0.885648
	C163	C	0.375218	0.323259	0.112448
	C164	C	0.671404	0.886987	0.382591
	C165	C	0.673938	0.118476	0.618885
	C166	C	0.320753	0.887052	0.618439
	C167	C	0.319910	0.118096	0.380089
	C168	C	0.873660	0.387859	0.176332
	C169	C	0.119328	0.615693	0.180646
	C170	C	0.116155	0.387519	0.822049
	C171	C	0.873847	0.616886	0.819210
	C172	C	0.174338	0.881412	0.387072
	C173	C	0.175883	0.122493	0.613284
	C174	C	0.817509	0.122674	0.387567
	C175	C	0.816950	0.880392	0.613739
	C176	C	0.380519	0.179596	0.879883
	C177	C	0.611931	0.180324	0.117632
	C178	C	0.382238	0.826353	0.118552
	C179	C	0.612411	0.828853	0.881794
	C180	C	0.383324	0.880487	0.178023
	C181	C	0.610951	0.126856	0.178408
	C182	C	0.382248	0.126082	0.819239
	C183	C	0.611262	0.883092	0.822123
	C184	C	0.875169	0.180193	0.387541
	C185	C	0.117799	0.180741	0.613230
	C186	C	0.116032	0.823424	0.386993
	C187	C	0.874758	0.822073	0.613504
	C188	C	0.171119	0.386930	0.881922
	C189	C	0.173887	0.617595	0.120161
	C190	C	0.819545	0.387401	0.115961
	C191	C	0.820207	0.618923	0.879701
	C192	C	0.400794	0.097314	0.597511
	C193	C	0.593046	0.908323	0.600239
	C194	C	0.593939	0.097684	0.400353
	C195	C	0.398775	0.908017	0.399307
	C196	C	0.595983	0.404268	0.091943
	C197	C	0.596042	0.604930	0.906275
	C198	C	0.397463	0.602878	0.092096
	C199	C	0.395338	0.403341	0.906523
	C200	C	0.089631	0.598551	0.401145
	C201	C	0.900541	0.598310	0.598452
	C202	C	0.090761	0.405102	0.599624
	C203	C	0.900569	0.403470	0.399862
	C204	C	0.899969	0.597856	0.098631
	C205	C	0.092632	0.407942	0.098602
	C206	C	0.092311	0.597044	0.900458
	C207	C	0.896324	0.407677	0.898758
	C208	C	0.096283	0.901388	0.593056
	C209	C	0.095746	0.101748	0.407642
	C210	C	0.897654	0.100878	0.593289
	C211	C	0.895897	0.902571	0.408162
	C212	C	0.590900	0.101661	0.900902
	C213	C	0.401571	0.099368	0.098621
	C214	C	0.592502	0.907467	0.099247
	C215	C	0.401751	0.906189	0.900215
	Zn216	Zn	0.496433	0.003678	0.749975
	Zn217	Zn	0.497051	0.003010	0.248899
	Zn218	Zn	0.747746	0.503866	-0.001263
	Zn219	Zn	0.244301	0.502789	-0.000430
	Zn220	Zn	-0.004447	0.749521	0.500219
	Zn221	Zn	-0.004218	0.253361	0.500185
	Zn222	Zn	-0.004488	0.502676	0.749040
	Zn223	Zn	-0.005074	0.501360	0.249619
	Zn224	Zn	0.497498	0.756170	-0.000096
	Zn225	Zn	0.495707	0.251649	-0.000424
	Zn226	Zn	0.744582	0.002448	0.500718
	Zn227	Zn	0.248439	0.002045	0.500172
	N228	N	0.408054	0.967489	0.680760
	N229	N	0.585386	0.039380	0.681342
	N230	N	0.585417	0.967118	0.318179
	N231	N	0.408901	0.039110	0.318180
	N232	N	0.674171	0.418703	0.961717
	N233	N	0.677242	0.590974	0.035502
	N234	N	0.316090	0.590086	0.962920
	N235	N	0.316150	0.415797	0.036161
	N236	N	0.957330	0.677941	0.414872
	N237	N	0.033512	0.676788	0.583436
	N238	N	0.958120	0.325044	0.584508
	N239	N	0.034051	0.326528	0.416598
	N240	N	0.959366	0.414551	0.679273
	N241	N	0.031897	0.590313	0.679935
	N242	N	0.958624	0.588552	0.319320
	N243	N	0.030950	0.412484	0.318135
	N244	N	0.410770	0.683535	0.962873
	N245	N	0.584167	0.684260	0.036037
	N246	N	0.581441	0.324351	0.962511
	N247	N	0.409078	0.322592	0.035870
	N248	N	0.670779	0.964250	0.417686
	N249	N	0.672395	0.040991	0.584214
	N250	N	0.322035	0.964213	0.582899
	N251	N	0.319722	0.040416	0.414494
	N252	N	0.908031	0.466181	0.179073
	N253	N	0.085051	0.537538	0.182121
	N254	N	0.082435	0.465821	0.819653
	N255	N	0.906730	0.538480	0.817302
	N256	N	0.176062	0.915318	0.463583
	N257	N	0.176817	0.088457	0.536878
	N258	N	0.816976	0.088133	0.464017
	N259	N	0.815689	0.915167	0.537481
	N260	N	0.457688	0.178934	0.915765
	N261	N	0.534393	0.178465	0.082372
	N262	N	0.459760	0.827819	0.083900
	N263	N	0.534787	0.828877	0.916229
	N264	N	0.461447	0.915193	0.179730
	N265	N	0.532696	0.092588	0.180718
	N266	N	0.460640	0.092988	0.817755
	N267	N	0.532901	0.916443	0.819977
	N268	N	0.909807	0.181020	0.463802
	N269	N	0.083306	0.182354	0.536794
	N270	N	0.082065	0.821859	0.463352
	N271	N	0.908872	0.821160	0.537095
	N272	N	0.170901	0.464474	0.916234
	N273	N	0.172671	0.540547	0.084452
	N274	N	0.821012	0.465042	0.081669
	N275	N	0.819753	0.541325	0.914304
	O276	O	0.917298	0.116467	1.063261
	H277	H	0.924340	0.119703	1.065161
	H278	H	0.923499	0.119786	1.065239
	O279	O	0.460982	0.514263	0.661032
	H280	H	0.469436	0.496495	0.645490
	H281	H	0.472546	0.530769	0.676280
	O282	O	0.468040	0.618391	0.588250
	H283	H	0.485142	0.622840	0.597116
	H284	H	0.470199	0.618051	0.591524
	O285	O	0.570100	0.446363	0.415256
	H286	H	0.573222	0.444052	0.408674
	H287	H	0.552659	0.446384	0.407783
	O288	O	0.380955	0.511510	0.478821
	H289	H	0.372130	0.514070	0.490233
	H290	H	0.382444	0.516371	0.480038
	O291	O	0.035240	-0.095930	0.877367
	H292	H	0.029651	-0.102059	0.883442
	H293	H	0.027075	-0.089072	0.859206
	O294	O	0.991175	0.970140	0.009467
	H295	H	0.979923	0.981688	0.003014
	H296	H	0.997354	0.962761	-0.002872
	O297	O	1.047143	1.056322	0.032150
	H298	H	1.044806	1.035673	0.032386
	H299	H	1.047390	1.052700	0.018229
	O300	O	0.516325	0.605731	0.459488
	H301	H	0.516424	0.607312	0.472073
	H302	H	0.517229	0.598046	0.461855
	O303	O	0.502835	0.442291	0.452439
	H304	H	0.499857	0.445360	0.461559
	H305	H	0.503237	0.433552	0.445163
	O306	O	0.558503	0.518370	0.421263
	H307	H	0.538673	0.522775	0.420700
	H308	H	0.563566	0.533861	0.405978
	O309	O	0.553328	0.550201	0.542895
	H310	H	0.553443	0.556900	0.545537
	H311	H	0.551664	0.542043	0.544170
	O312	O	0.984236	1.052704	1.004766
	H313	H	0.986968	1.052706	1.011969
	H314	H	0.994053	1.050556	1.000259
	O315	O	1.031043	0.992321	-0.060550
	H316	H	1.007668	1.000115	-0.055140
	H317	H	1.041397	0.993334	-0.066954
	O318	O	0.462856	0.534410	0.479870
	H319	H	0.468822	0.533416	0.491794
	H320	H	0.458975	0.546534	0.481106
	O321	O	0.652977	0.524369	0.639057
	H322	H	0.667424	0.516504	0.642533
	H323	H	0.657448	0.525220	0.614412
	O324	O	0.084827	0.869747	0.894723
	H325	H	0.079764	0.878627	0.897435
	H326	H	0.087688	0.866633	0.893348
	O327	O	-0.075437	1.071092	0.963616
	H328	H	-0.088150	1.065741	0.965813
	H329	H	-0.076767	1.075087	0.963067
	O330	O	0.066473	0.002452	0.138322
	H331	H	0.060857	0.015118	0.128902
	H332	H	0.080839	0.002350	0.144155
	O333	O	0.600389	0.422116	0.485907
	H334	H	0.589427	0.418050	0.483015
	H335	H	0.601339	0.407841	0.463071
	O336	O	0.115779	-0.058402	-0.040994
	H337	H	0.121776	-0.047997	-0.038426
	H338	H	0.104074	-0.066236	-0.040771
	O339	O	0.087535	-0.005251	0.109758
	H340	H	0.099204	0.013142	0.114265
	H341	H	0.098555	-0.009947	0.122623
	O342	O	0.465497	0.580987	0.463223
	H343	H	0.454157	0.577166	0.470971
	H344	H	0.469445	0.578405	0.472572
	O345	O	-0.127313	0.986010	0.989608
	H346	H	-0.131653	0.981079	1.003331
	H347	H	-0.125622	0.976269	0.987346
	O348	O	0.465579	0.450753	0.495217
	H349	H	0.468035	0.464266	0.494547
	H350	H	0.452532	0.440750	0.505652
	O351	O	0.521481	0.386808	0.411822
	H352	H	0.507431	0.389355	0.410851
	H353	H	0.515248	0.411204	0.402732
	O354	O	-0.100271	0.988708	0.011261
	H355	H	-0.106155	0.981448	0.008254
	H356	H	-0.096397	0.981897	0.008036
	O357	O	0.418479	0.669760	0.440483
	H358	H	0.408209	0.668047	0.454059
	H359	H	0.420348	0.660227	0.444521
	O360	O	0.904516	-0.051985	1.182196
	H361	H	0.900977	-0.054465	1.185481
	H362	H	0.895892	-0.060821	1.189055
	O363	O	0.476041	0.488840	0.548100
	H364	H	0.473052	0.479706	0.556024
	H365	H	0.487124	0.484465	0.548016
	O366	O	0.588492	0.524099	0.459430
	H367	H	0.599737	0.516482	0.449353
	H368	H	0.587319	0.528022	0.457824
	O369	O	1.102485	0.121109	-0.009152
	H370	H	1.114696	0.132080	-0.009178
	H371	H	1.089480	0.117653	-0.015927
	O372	O	0.320747	0.486252	0.545516
	H373	H	0.314309	0.485330	0.563501
	H374	H	0.329494	0.494413	0.551373
	O375	O	1.068934	0.016792	1.112295
	H376	H	1.057627	0.016051	1.109738
	H377	H	1.065292	0.024408	1.123937
	O378	O	-0.062076	1.046810	-0.181976
	H379	H	-0.078248	1.055376	-0.179829
	H380	H	-0.070140	1.059705	-0.177421
	O381	O	0.460860	0.444294	0.415410
	H382	H	0.464525	0.445144	0.412814
	H383	H	0.447606	0.447191	0.400116
	O384	O	0.873891	0.855633	0.060190
	H385	H	0.881884	0.848357	0.060738
	H386	H	0.872730	0.864564	0.069334
	O387	O	1.096665	-0.088926	0.914624
	H388	H	1.114051	-0.093843	0.923259
	H389	H	1.095571	-0.092933	0.912794
	O390	O	0.905444	1.070398	0.077733
	H391	H	0.912101	1.060373	0.082280
	H392	H	0.917035	1.075503	0.080415
	O393	O	0.355228	0.348461	0.541994
	H394	H	0.344032	0.339899	0.544798
	H395	H	0.371462	0.349140	0.541732
