data_Molecule from HDF5

_cell_length_a		16.549899
_cell_length_b		16.062109
_cell_length_c		16.207800
_cell_angle_alpha	90.103560
_cell_angle_beta	90.349136
_cell_angle_gamma	89.930013
_symmetry_space_group_name_H-M	'P 1'
_symmetry_Int_Tables_number		1

loop_
	_symmetry_equiv_pos_as_xyz
	x,y,z

loop_
	_atom_site_label
	_atom_site_type_symbol
	_atom_site_fract_x
	_atom_site_fract_y
	_atom_site_fract_z
	H0	H	0.402378	0.830007	0.709697
	H1	H	0.597523	0.160495	0.708888
	H2	H	0.596789	0.829888	0.281720
	H3	H	0.400992	0.159970	0.283568
	H4	H	0.720209	0.392126	0.835995
	H5	H	0.722518	0.604332	0.158454
	H6	H	0.279774	0.601439	0.836772
	H7	H	0.283059	0.388941	0.158543
	H8	H	0.839512	0.710679	0.400022
	H9	H	0.160770	0.714365	0.601870
	H10	H	0.840734	0.277097	0.600274
	H11	H	0.160193	0.275505	0.398168
	H12	H	0.842224	0.393009	0.718626
	H13	H	0.161599	0.598151	0.718716
	H14	H	0.843278	0.601050	0.275352
	H15	H	0.160475	0.390703	0.280314
	H16	H	0.402909	0.709006	0.833422
	H17	H	0.599691	0.709976	0.161081
	H18	H	0.597401	0.281962	0.832665
	H19	H	0.405944	0.281898	0.161988
	H20	H	0.719547	0.832017	0.389597
	H21	H	0.719786	0.157064	0.601223
	H22	H	0.282956	0.831662	0.598727
	H23	H	0.278327	0.155726	0.388887
	H24	H	0.905304	0.329280	0.210839
	H25	H	0.100423	0.660657	0.213447
	H26	H	0.100100	0.330244	0.785410
	H27	H	0.902958	0.661402	0.784873
	H28	H	0.217467	0.887036	0.336125
	H29	H	0.223231	0.101840	0.656948
	H30	H	0.780804	0.098394	0.335061
	H31	H	0.780705	0.888820	0.658092
	H32	H	0.339605	0.211482	0.896812
	H33	H	0.661755	0.210257	0.096858
	H34	H	0.340096	0.778222	0.094670
	H35	H	0.661774	0.777627	0.897128
	H36	H	0.339707	0.892679	0.213559
	H37	H	0.659283	0.098004	0.218466
	H38	H	0.340673	0.097944	0.776791
	H39	H	0.660697	0.892042	0.777868
	H40	H	0.901150	0.209385	0.333464
	H41	H	0.098412	0.208234	0.661953
	H42	H	0.095580	0.780231	0.334604
	H43	H	0.904608	0.784258	0.663593
	H44	H	0.218355	0.332412	0.894555
	H45	H	0.219957	0.658919	0.102559
	H46	H	0.781863	0.333371	0.103332
	H47	H	0.782370	0.659372	0.893363
	H48	H	0.406516	0.114013	0.587664
	H49	H	0.591428	0.875300	0.591895
	H50	H	0.588554	0.109907	0.411246
	H51	H	0.409715	0.875860	0.400669
	H52	H	0.596682	0.402930	0.115427
	H53	H	0.603468	0.590119	0.875852
	H54	H	0.415431	0.592708	0.115245
	H55	H	0.411627	0.407317	0.882737
	H56	H	0.114384	0.588987	0.409122
	H57	H	0.882945	0.596734	0.596060
	H58	H	0.112729	0.412474	0.595294
	H59	H	0.885465	0.400213	0.403795
	H60	H	0.118778	0.396337	0.598310
	H61	H	0.890856	0.586838	0.582156
	H62	H	0.114092	0.585213	0.409639
	H63	H	0.889457	0.405406	0.411046
	H64	H	0.400738	0.584109	0.115744
	H65	H	0.594258	0.574060	0.883560
	H66	H	0.595996	0.409296	0.113299
	H67	H	0.406556	0.401465	0.880073
	H68	H	0.595315	0.112387	0.410781
	H69	H	0.587782	0.879599	0.582477
	H70	H	0.413775	0.111137	0.584975
	H71	H	0.409902	0.878616	0.409886
	H72	H	0.919221	0.608779	0.085568
	H73	H	0.085248	0.379649	0.090890
	H74	H	0.095488	0.614722	0.908393
	H75	H	0.905738	0.380937	0.917257
	H76	H	0.102036	0.914988	0.614628
	H77	H	0.084267	0.089293	0.382021
	H78	H	0.910555	0.083584	0.611859
	H79	H	0.912781	0.908834	0.385485
	H80	H	0.611617	0.080526	0.906511
	H81	H	0.385509	0.087560	0.091177
	H82	H	0.615336	0.906731	0.097093
	H83	H	0.389802	0.904317	0.911821
	H84	H	0.615178	0.898006	0.087610
	H85	H	0.385893	0.089853	0.089279
	H86	H	0.617157	0.087464	0.895421
	H87	H	0.388342	0.911306	0.897722
	H88	H	0.906247	0.086076	0.614803
	H89	H	0.098421	0.086452	0.377908
	H90	H	0.084776	0.908084	0.611460
	H91	H	0.907841	0.895705	0.378942
	H92	H	0.091847	0.613160	0.908959
	H93	H	0.098555	0.379607	0.078298
	H94	H	0.905179	0.612046	0.080638
	H95	H	0.906140	0.375940	0.903778
	H96	H	0.407645	0.110956	0.581000
	H97	H	0.598001	0.875675	0.583510
	H98	H	0.590619	0.112263	0.405506
	H99	H	0.402171	0.875118	0.406767
	H100	H	0.591026	0.405304	0.112445
	H101	H	0.584454	0.591210	0.882035
	H102	H	0.413904	0.576038	0.109097
	H103	H	0.403855	0.408397	0.880507
	H104	H	0.115237	0.586341	0.406686
	H105	H	0.888028	0.578718	0.598479
	H106	H	0.112185	0.400622	0.582749
	H107	H	0.887846	0.409193	0.401889
	H108	H	0.909229	0.615961	0.095677
	H109	H	0.101401	0.374105	0.095379
	H110	H	0.094205	0.613099	0.911603
	H111	H	0.916993	0.381190	0.909530
	H112	H	0.098260	0.897259	0.618520
	H113	H	0.089446	0.075101	0.384273
	H114	H	0.905794	0.080210	0.613478
	H115	H	0.898613	0.907973	0.378813
	H116	H	0.615443	0.094425	0.907688
	H117	H	0.386301	0.086498	0.088082
	H118	H	0.610997	0.909982	0.085460
	H119	H	0.384051	0.895971	0.899379
	C120	C	0.379752	0.003551	0.615417
	C121	C	0.622330	0.985245	0.617293
	C122	C	0.620800	0.003310	0.376949
	C123	C	0.377341	0.985073	0.374932
	C124	C	0.622989	0.375027	0.005740
	C125	C	0.623553	0.616939	0.988433
	C126	C	0.379881	0.615493	0.005956
	C127	C	0.379251	0.374273	0.988626
	C128	C	0.009247	0.617312	0.377534
	C129	C	0.992761	0.618137	0.622629
	C130	C	0.009176	0.372631	0.621908
	C131	C	0.992878	0.373186	0.376121
	C132	C	0.880940	0.504278	0.118571
	C133	C	0.124400	0.486256	0.119608
	C134	C	0.122707	0.504591	0.878679
	C135	C	0.880382	0.487865	0.878721
	C136	C	0.122279	0.874491	0.506821
	C137	C	0.121496	0.115353	0.488364
	C138	C	0.877963	0.115109	0.505930
	C139	C	0.878343	0.873832	0.488896
	C140	C	0.508728	0.117683	0.873522
	C141	C	0.491853	0.117551	0.119798
	C142	C	0.508427	0.873508	0.118994
	C143	C	0.493190	0.873327	0.873933
	C144	C	0.381357	0.879596	0.672258
	C145	C	0.619373	0.110122	0.672825
	C146	C	0.618274	0.879244	0.319439
	C147	C	0.379488	0.109671	0.319538
	C148	C	0.680035	0.374025	0.883765
	C149	C	0.682121	0.620574	0.110348
	C150	C	0.320810	0.618073	0.884384
	C151	C	0.322693	0.371868	0.110666
	C152	C	0.888144	0.673470	0.378897
	C153	C	0.113069	0.675753	0.621794
	C154	C	0.889004	0.315209	0.620821
	C155	C	0.112457	0.314454	0.377770
	C156	C	0.889352	0.373615	0.679233
	C157	C	0.113419	0.617759	0.679897
	C158	C	0.890123	0.618699	0.316950
	C159	C	0.112809	0.371911	0.319267
	C160	C	0.381344	0.672101	0.882670
	C161	C	0.620991	0.673363	0.111707
	C162	C	0.619038	0.319368	0.882103
	C163	C	0.383657	0.318456	0.112346
	C164	C	0.678952	0.880409	0.373311
	C165	C	0.679987	0.108368	0.619124
	C166	C	0.322356	0.880387	0.616704
	C167	C	0.318386	0.107335	0.371968
	C168	C	0.883662	0.379591	0.174305
	C169	C	0.121730	0.610708	0.176128
	C170	C	0.120651	0.380280	0.822538
	C171	C	0.882548	0.611729	0.822299
	C172	C	0.178404	0.870685	0.384582
	C173	C	0.182062	0.119066	0.609353
	C174	C	0.820554	0.116623	0.383379
	C175	C	0.820855	0.871834	0.610695
	C176	C	0.387770	0.173596	0.876140
	C177	C	0.613181	0.172776	0.117891
	C178	C	0.387808	0.816557	0.115453
	C179	C	0.613548	0.815992	0.876161
	C180	C	0.387724	0.873739	0.174671
	C181	C	0.611950	0.116918	0.178257
	C182	C	0.388404	0.117118	0.816166
	C183	C	0.613028	0.873283	0.816904
	C184	C	0.880129	0.171965	0.382812
	C185	C	0.119765	0.171560	0.612023
	C186	C	0.117605	0.817388	0.383800
	C187	C	0.882192	0.819501	0.613085
	C188	C	0.179463	0.381384	0.876984
	C189	C	0.181171	0.609938	0.120897
	C190	C	0.822464	0.381473	0.120528
	C191	C	0.822272	0.610657	0.876223
	C192	C	0.402637	0.089573	0.591302
	C193	C	0.599309	0.899128	0.592925
	C194	C	0.598127	0.089153	0.402013
	C195	C	0.400586	0.898815	0.398849
	C196	C	0.600926	0.398932	0.091362
	C197	C	0.600855	0.592301	0.902758
	C198	C	0.403303	0.591442	0.091299
	C199	C	0.401099	0.398607	0.903144
	C200	C	0.092832	0.593501	0.401417
	C201	C	0.909043	0.594275	0.599196
	C202	C	0.092900	0.396243	0.598878
	C203	C	0.909210	0.398036	0.398890
	C204	C	0.904179	0.590027	0.094340
	C205	C	0.101725	0.400064	0.095471
	C206	C	0.100389	0.591144	0.902604
	C207	C	0.903152	0.401580	0.903025
	C208	C	0.101068	0.899380	0.592684
	C209	C	0.097625	0.090862	0.403312
	C210	C	0.900852	0.090442	0.591256
	C211	C	0.900157	0.897311	0.403160
	C212	C	0.593041	0.094370	0.896485
	C213	C	0.407906	0.094732	0.096265
	C214	C	0.592126	0.897714	0.096464
	C215	C	0.409217	0.896776	0.896527
	Zn216	Zn	0.500136	-0.005355	0.743483
	Zn217	Zn	0.499192	-0.004923	0.249696
	Zn218	Zn	0.751473	0.496537	-0.001601
	Zn219	Zn	0.251230	0.495427	-0.002186
	Zn220	Zn	0.000527	0.747657	0.499841
	Zn221	Zn	-0.000331	0.243165	0.498092
	Zn222	Zn	0.001938	0.495639	0.752056
	Zn223	Zn	0.001993	0.494885	0.246598
	Zn224	Zn	0.501462	0.743020	-0.003140
	Zn225	Zn	0.500580	0.246930	-0.003160
	Zn226	Zn	0.749833	-0.006434	0.496854
	Zn227	Zn	0.250714	-0.005507	0.495728
	N228	N	0.416362	0.957171	0.671482
	N229	N	0.584417	0.032508	0.671969
	N230	N	0.582754	0.956560	0.321599
	N231	N	0.415441	0.032468	0.321110
	N232	N	0.682506	0.407867	0.961798
	N233	N	0.683683	0.586172	0.032646
	N234	N	0.319920	0.583674	0.962021
	N235	N	0.319894	0.405849	0.032847
	N236	N	0.963048	0.672668	0.416108
	N237	N	0.037254	0.676180	0.586829
	N238	N	0.964347	0.314969	0.585668
	N239	N	0.036760	0.315146	0.412483
	N240	N	0.965322	0.408291	0.680378
	N241	N	0.037652	0.582898	0.680773
	N242	N	0.966239	0.584496	0.316004
	N243	N	0.037353	0.407714	0.318111
	N244	N	0.417805	0.670299	0.959064
	N245	N	0.585226	0.671231	0.034845
	N246	N	0.584611	0.319706	0.958957
	N247	N	0.418058	0.319846	0.035356
	N248	N	0.680522	0.958473	0.408481
	N249	N	0.682128	0.029568	0.585485
	N250	N	0.320963	0.958715	0.582514
	N251	N	0.317032	0.028803	0.405593
	N252	N	0.919207	0.456903	0.173287
	N253	N	0.087225	0.532787	0.175505
	N254	N	0.085843	0.458061	0.823448
	N255	N	0.918225	0.534333	0.823914
	N256	N	0.181410	0.905257	0.462225
	N257	N	0.183342	0.084760	0.531527
	N258	N	0.818834	0.082145	0.461062
	N259	N	0.818311	0.904882	0.532440
	N260	N	0.463732	0.174254	0.911035
	N261	N	0.537606	0.173439	0.082342
	N262	N	0.463808	0.816269	0.081474
	N263	N	0.537954	0.815906	0.911045
	N264	N	0.463641	0.908421	0.177031
	N265	N	0.535475	0.083384	0.179774
	N266	N	0.464639	0.083058	0.814511
	N267	N	0.537144	0.908106	0.815458
	N268	N	0.915009	0.171247	0.459982
	N269	N	0.082657	0.169353	0.535965
	N270	N	0.083429	0.819622	0.460842
	N271	N	0.917234	0.820666	0.536409
	N272	N	0.180722	0.459767	0.911226
	N273	N	0.183204	0.531448	0.086815
	N274	N	0.820584	0.460102	0.086816
	N275	N	0.821046	0.532617	0.910813
	O276	O	0.100603	-0.123012	-0.033707
	H277	H	0.095265	-0.123191	-0.055372
	H278	H	0.092474	-0.120502	-0.028789
	O279	O	1.100748	-0.116402	1.090720
	H280	H	1.091332	-0.108397	1.098985
	H281	H	1.108528	-0.105693	1.104474
	O282	O	1.108135	0.137578	0.004490
	H283	H	1.097569	0.136990	-0.009509
	H284	H	1.084048	0.144147	0.010857
	O285	O	0.060105	0.840363	-0.148599
	H286	H	0.058715	0.838438	-0.152544
	H287	H	0.083588	0.857464	-0.148695
	O288	O	0.590079	0.433620	0.651274
	H289	H	0.594295	0.440091	0.656529
	H290	H	0.582499	0.416499	0.644549
	O291	O	0.437457	0.658702	0.372324
	H292	H	0.435337	0.654979	0.363983
	H293	H	0.427591	0.667023	0.368212
	O294	O	0.950739	1.021782	0.932595
	H295	H	0.952485	1.028383	0.947074
	H296	H	0.939135	1.019567	0.903422
	O297	O	-0.127696	0.098580	-0.035531
	H298	H	-0.130454	0.093517	-0.031831
	H299	H	-0.132400	0.091736	-0.025184
	O300	O	0.342954	0.426122	0.591205
	H301	H	0.358821	0.435328	0.597574
	H302	H	0.335834	0.432099	0.595171
	O303	O	-0.025977	1.085549	1.009166
	H304	H	-0.017109	1.086365	1.013242
	H305	H	-0.028512	1.097730	0.997607
	O306	O	0.315286	0.429385	0.394968
	H307	H	0.313218	0.440502	0.394183
	H308	H	0.304397	0.439332	0.400504
	O309	O	0.953004	0.104051	-0.052257
	H310	H	0.965660	0.110620	-0.073445
	H311	H	0.935955	0.104308	-0.056354
	O312	O	0.011304	-0.035379	0.993906
	H313	H	-0.004307	-0.027242	0.983625
	H314	H	0.026227	-0.034800	0.999544
	O315	O	0.319079	0.529468	0.351816
	H316	H	0.315323	0.526222	0.349939
	H317	H	0.305303	0.534048	0.357875
	O318	O	0.353448	0.489323	0.586015
	H319	H	0.351810	0.500328	0.584573
	H320	H	0.359951	0.498850	0.593395
	O321	O	0.533037	0.606677	0.626770
	H322	H	0.530908	0.599280	0.633064
	H323	H	0.535364	0.613720	0.619587
	O324	O	0.488203	0.601479	0.437922
	H325	H	0.487856	0.598968	0.439417
	H326	H	0.490106	0.614749	0.418514
	O327	O	-0.069496	0.931905	0.972937
	H328	H	-0.072111	0.934504	0.970812
	H329	H	-0.065074	0.918636	0.973837
	O330	O	0.599397	0.359100	0.337365
	H331	H	0.588756	0.347168	0.344295
	H332	H	0.591852	0.359004	0.337500
	O333	O	-0.121357	1.083592	0.883971
	H334	H	-0.134018	1.095003	0.883286
	H335	H	-0.137696	1.081393	0.890773
	O336	O	0.865341	1.012244	1.003165
	H337	H	0.864966	1.002431	1.014627
	H338	H	0.860368	1.022434	1.005222
	O339	O	0.535832	0.639680	0.402467
	H340	H	0.523111	0.632667	0.401688
	H341	H	0.549605	0.642176	0.390903
	O342	O	1.101111	0.104192	0.109047
	H343	H	1.110094	0.112933	0.103187
	H344	H	1.104106	0.101896	0.114561
	O345	O	0.475651	0.470232	0.466177
	H346	H	0.477201	0.476321	0.472318
	H347	H	0.472613	0.454749	0.477450
	O348	O	0.902400	0.950749	0.991426
	H349	H	0.892873	0.954205	0.989501
	H350	H	0.898822	0.941620	0.991679
	O351	O	1.038256	1.102433	-0.014388
	H352	H	1.025437	1.108730	-0.039592
	H353	H	1.025903	1.099187	-0.013719
	O354	O	0.319611	0.447838	0.493468
	H355	H	0.319149	0.469061	0.498859
	H356	H	0.314220	0.445642	0.485993
	O357	O	0.575471	0.351534	0.349222
	H358	H	0.560243	0.369668	0.349077
	H359	H	0.555277	0.363353	0.348525
	O360	O	-0.404276	0.639663	-0.392854
	H361	H	-0.401662	0.639330	-0.397377
	H362	H	-0.389765	0.627691	-0.380213
	O363	O	0.584052	0.426394	0.650688
	H364	H	0.571756	0.426258	0.639729
	H365	H	0.576419	0.419977	0.634679
	O366	O	0.505940	0.508390	0.476572
	H367	H	0.512055	0.500232	0.479301
	H368	H	0.512653	0.520007	0.478271
	O369	O	0.465501	0.570538	0.498388
	H370	H	0.473017	0.573504	0.500575
	H371	H	0.463381	0.575340	0.486562
	O372	O	0.619021	0.385475	0.414923
	H373	H	0.609263	0.368034	0.418347
	H374	H	0.638443	0.381886	0.407478
	O375	O	0.496894	0.441158	0.485261
	H376	H	0.490369	0.446589	0.487010
	H377	H	0.492197	0.438317	0.479337
	O378	O	0.624955	0.385304	0.426105
	H379	H	0.616077	0.393421	0.417897
	H380	H	0.640412	0.367913	0.425735
	O381	O	0.641083	0.412182	0.467075
	H382	H	0.621094	0.393817	0.465195
	H383	H	0.648751	0.427071	0.458006
	O384	O	-0.076913	0.904330	0.079745
	H385	H	-0.084972	0.903839	0.085175
	H386	H	-0.062481	0.904822	0.074690
	O387	O	0.987901	-0.039469	1.005309
	H388	H	0.978613	-0.032652	0.998380
	H389	H	0.988231	-0.055609	1.000839
	O390	O	-0.473578	0.673232	0.491780
	H391	H	-0.461251	0.672946	0.504367
	H392	H	-0.471895	0.675489	0.499279
	O393	O	1.039018	1.019955	-0.026253
	H394	H	1.033775	1.018212	-0.041880
	H395	H	1.059338	1.015881	-0.028420
	O396	O	0.671403	0.470751	0.576680
	H397	H	0.676093	0.469296	0.563005
	H398	H	0.674867	0.469161	0.577570
	O399	O	0.116143	0.950240	0.960512
	H400	H	0.116865	0.942917	0.983679
	H401	H	0.128661	0.955823	0.960882
	O402	O	1.154107	0.960168	0.985427
	H403	H	1.136351	0.961633	0.976765
	H404	H	1.156221	0.951356	0.996948
	O405	O	0.458476	1.447986	0.595326
	H406	H	0.441804	1.439752	0.596545
	H407	H	0.455471	1.458132	0.590518
