data_Molecule from HDF5

_cell_length_a		16.275042
_cell_length_b		16.186081
_cell_length_c		16.177380
_cell_angle_alpha	89.181521
_cell_angle_beta	89.743497
_cell_angle_gamma	90.246835
_symmetry_space_group_name_H-M	'P 1'
_symmetry_Int_Tables_number		1

loop_
	_symmetry_equiv_pos_as_xyz
	x,y,z

loop_
	_atom_site_label
	_atom_site_type_symbol
	_atom_site_fract_x
	_atom_site_fract_y
	_atom_site_fract_z
	H0	H	0.415614	0.848788	0.707997
	H1	H	0.613544	0.178100	0.699111
	H2	H	0.612284	0.846510	0.280037
	H3	H	0.419254	0.177164	0.275782
	H4	H	0.729734	0.417709	0.826374
	H5	H	0.730042	0.608291	0.156546
	H6	H	0.303109	0.614680	0.826136
	H7	H	0.297942	0.409239	0.154445
	H8	H	0.850329	0.728156	0.390235
	H9	H	0.178273	0.724239	0.587886
	H10	H	0.850856	0.293491	0.593406
	H11	H	0.179166	0.300555	0.394223
	H12	H	0.850712	0.411077	0.707422
	H13	H	0.178905	0.607292	0.700559
	H14	H	0.850152	0.610892	0.275898
	H15	H	0.177579	0.415436	0.276570
	H16	H	0.417869	0.730166	0.827441
	H17	H	0.614101	0.723647	0.157551
	H18	H	0.612606	0.304950	0.824839
	H19	H	0.416690	0.296360	0.155711
	H20	H	0.728195	0.847530	0.394324
	H21	H	0.731233	0.175405	0.588520
	H22	H	0.301100	0.847601	0.593312
	H23	H	0.302175	0.176694	0.390133
	H24	H	0.915840	0.347819	0.207317
	H25	H	0.113508	0.677833	0.201853
	H26	H	0.111134	0.346057	0.780937
	H27	H	0.918187	0.676470	0.774485
	H28	H	0.231296	0.913432	0.326816
	H29	H	0.229381	0.108158	0.655485
	H30	H	0.801865	0.113366	0.327503
	H31	H	0.797827	0.907836	0.655320
	H32	H	0.351498	0.228760	0.890707
	H33	H	0.679069	0.226391	0.086690
	H34	H	0.352221	0.794128	0.094727
	H35	H	0.679726	0.801190	0.894099
	H36	H	0.351458	0.910931	0.207698
	H37	H	0.678857	0.111134	0.202641
	H38	H	0.350719	0.112640	0.776820
	H39	H	0.679259	0.917465	0.777164
	H40	H	0.916682	0.227731	0.326910
	H41	H	0.111579	0.221082	0.656849
	H42	H	0.111486	0.801726	0.325682
	H43	H	0.915183	0.794319	0.656446
	H44	H	0.230193	0.348112	0.892798
	H45	H	0.230294	0.676902	0.087114
	H46	H	0.800571	0.347976	0.092916
	H47	H	0.803011	0.677040	0.890877
	H48	H	0.423252	0.131821	0.586184
	H49	H	0.598408	0.896197	0.585057
	H50	H	0.606071	0.130151	0.391215
	H51	H	0.426230	0.895075	0.398857
	H52	H	0.608977	0.412131	0.111361
	H53	H	0.610983	0.603944	0.875340
	H54	H	0.415371	0.598583	0.110165
	H55	H	0.412555	0.419431	0.869856
	H56	H	0.130981	0.605832	0.394825
	H57	H	0.896885	0.602627	0.583028
	H58	H	0.135603	0.416213	0.597265
	H59	H	0.896077	0.411481	0.401677
	H60	H	0.132713	0.406058	0.579894
	H61	H	0.897087	0.602411	0.583204
	H62	H	0.131112	0.609663	0.396935
	H63	H	0.899810	0.422212	0.404320
	H64	H	0.426743	0.597891	0.105719
	H65	H	0.605807	0.610258	0.874838
	H66	H	0.612259	0.420013	0.109338
	H67	H	0.424966	0.431732	0.876318
	H68	H	0.607047	0.127578	0.399895
	H69	H	0.611109	0.895269	0.579832
	H70	H	0.422898	0.129455	0.579208
	H71	H	0.421096	0.896475	0.404696
	H72	H	0.932725	0.630900	0.095465
	H73	H	0.110237	0.395388	0.082925
	H74	H	0.106141	0.629907	0.890024
	H75	H	0.903550	0.390911	0.906582
	H76	H	0.113413	0.916299	0.610703
	H77	H	0.111481	0.109182	0.371753
	H78	H	0.907572	0.090066	0.610202
	H79	H	0.919585	0.932931	0.377913
	H80	H	0.636062	0.122342	0.892390
	H81	H	0.395752	0.106376	0.089291
	H82	H	0.636972	0.911475	0.091724
	H83	H	0.398374	0.926878	0.894522
	H84	H	0.629561	0.916374	0.075801
	H85	H	0.397988	0.108210	0.078529
	H86	H	0.628315	0.104996	0.906900
	H87	H	0.395973	0.912130	0.898717
	H88	H	0.936926	0.094667	0.603427
	H89	H	0.111145	0.104783	0.373454
	H90	H	0.105518	0.921087	0.606908
	H91	H	0.933234	0.914766	0.375391
	H92	H	0.109048	0.627671	0.898802
	H93	H	0.106403	0.394200	0.087912
	H94	H	0.927114	0.624336	0.067026
	H95	H	0.925890	0.390512	0.883038
	H96	H	0.417177	0.131427	0.581965
	H97	H	0.608892	0.891277	0.593356
	H98	H	0.614612	0.131692	0.395408
	H99	H	0.418897	0.892282	0.398553
	H100	H	0.604112	0.418890	0.107888
	H101	H	0.613740	0.612242	0.871595
	H102	H	0.423120	0.608625	0.110320
	H103	H	0.429402	0.414617	0.872755
	H104	H	0.129489	0.605085	0.399056
	H105	H	0.897007	0.602108	0.583234
	H106	H	0.127278	0.425011	0.580639
	H107	H	0.896097	0.420401	0.393696
	H108	H	0.905357	0.636536	0.084884
	H109	H	0.103638	0.397085	0.083072
	H110	H	0.115089	0.631710	0.892262
	H111	H	0.933277	0.401840	0.912555
	H112	H	0.105537	0.912128	0.609087
	H113	H	0.106843	0.107239	0.373578
	H114	H	0.920192	0.117758	0.614501
	H115	H	0.911018	0.913402	0.368767
	H116	H	0.632051	0.100735	0.883336
	H117	H	0.399743	0.098302	0.083009
	H118	H	0.630872	0.928153	0.088587
	H119	H	0.402459	0.923117	0.909043
	C120	C	0.392918	0.021737	0.612829
	C121	C	0.635706	1.003381	0.612332
	C122	C	0.637072	0.020741	0.368566
	C123	C	0.394234	1.003375	0.370514
	C124	C	0.636592	0.391441	-0.000357
	C125	C	0.637986	0.634900	0.983536
	C126	C	0.394357	0.633126	-0.000334
	C127	C	0.393213	0.390941	0.981802
	C128	C	0.022509	0.635330	0.368021
	C129	C	1.005548	0.631261	0.611154
	C130	C	0.023537	0.387261	0.614770
	C131	C	1.005662	0.390639	0.370928
	C132	C	0.893037	0.521357	0.112888
	C133	C	0.136064	0.504346	0.111824
	C134	C	0.137525	0.520561	0.867839
	C135	C	0.893971	0.503375	0.870273
	C136	C	0.136342	0.889837	0.499840
	C137	C	0.137244	0.133284	0.482541
	C138	C	0.893780	0.131771	0.500361
	C139	C	0.892406	0.889362	0.482752
	C140	C	0.523657	0.137193	0.866720
	C141	C	0.506665	0.132743	0.110952
	C142	C	0.524004	0.889271	0.114762
	C143	C	0.506909	0.892948	0.871418
	C144	C	0.395504	0.897904	0.669800
	C145	C	0.633757	0.128173	0.663519
	C146	C	0.633193	0.896224	0.316293
	C147	C	0.398027	0.127878	0.314065
	C148	C	0.692001	0.396490	0.875441
	C149	C	0.692299	0.630035	0.107529
	C150	C	0.340267	0.633908	0.875709
	C151	C	0.337224	0.390500	0.105702
	C152	C	0.899391	0.690305	0.370017
	C153	C	0.129226	0.686520	0.608057
	C154	C	0.899868	0.331754	0.613358
	C155	C	0.129611	0.337563	0.373572
	C156	C	0.899796	0.390085	0.670195
	C157	C	0.129527	0.628269	0.664146
	C158	C	0.899208	0.631957	0.313277
	C159	C	0.128993	0.394514	0.314998
	C160	C	0.397782	0.690990	0.876165
	C161	C	0.634628	0.687109	0.108061
	C162	C	0.633541	0.340543	0.874651
	C163	C	0.396086	0.334311	0.106038
	C164	C	0.690569	0.896661	0.373532
	C165	C	0.692130	0.126812	0.607950
	C166	C	0.338106	0.897412	0.613004
	C167	C	0.340108	0.127616	0.370987
	C168	C	0.895400	0.397304	0.169392
	C169	C	0.134213	0.628182	0.165356
	C170	C	0.133177	0.395548	0.816758
	C171	C	0.897619	0.627327	0.813035
	C172	C	0.192532	0.893258	0.375915
	C173	C	0.191513	0.128889	0.606577
	C174	C	0.839424	0.132177	0.376514
	C175	C	0.836303	0.888972	0.606401
	C176	C	0.400483	0.191677	0.870001
	C177	C	0.630200	0.188206	0.107144
	C178	C	0.400954	0.832767	0.113965
	C179	C	0.630684	0.838861	0.873565
	C180	C	0.400752	0.890663	0.170490
	C181	C	0.629993	0.130861	0.164920
	C182	C	0.400026	0.133614	0.813564
	C183	C	0.630475	0.896559	0.815514
	C184	C	0.896758	0.189251	0.376325
	C185	C	0.132844	0.184897	0.607258
	C186	C	0.132951	0.837781	0.375205
	C187	C	0.894661	0.832489	0.606876
	C188	C	0.192098	0.396765	0.872381
	C189	C	0.192150	0.628074	0.108113
	C190	C	0.837950	0.397296	0.112377
	C191	C	0.840337	0.627757	0.870727
	C192	C	0.414611	0.108461	0.589358
	C193	C	0.612755	0.916617	0.592142
	C194	C	0.615606	0.107421	0.389234
	C195	C	0.415830	0.917200	0.393803
	C196	C	0.614720	0.411345	0.086983
	C197	C	0.616592	0.614709	0.896471
	C198	C	0.415468	0.608834	0.086404
	C199	C	0.415667	0.415052	0.895403
	C200	C	0.108487	0.613421	0.390283
	C201	C	0.919221	0.609058	0.589592
	C202	C	0.109543	0.409180	0.592498
	C203	C	0.919551	0.411807	0.393248
	C204	C	0.915156	0.608111	0.089208
	C205	C	0.113372	0.417826	0.090801
	C206	C	0.116601	0.607223	0.887943
	C207	C	0.914852	0.416885	0.893853
	C208	C	0.114370	0.910414	0.586698
	C209	C	0.116047	0.113066	0.395511
	C210	C	0.915236	0.107751	0.586991
	C211	C	0.914758	0.913316	0.396309
	C212	C	0.609954	0.115741	0.887878
	C213	C	0.420105	0.110602	0.090061
	C214	C	0.610162	0.912104	0.091974
	C215	C	0.421256	0.914330	0.893945
	Zn216	Zn	0.514401	0.014203	0.740170
	Zn217	Zn	0.515199	0.012002	0.241135
	Zn218	Zn	0.765089	0.512558	-0.008116
	Zn219	Zn	0.265056	0.512763	-0.009824
	Zn220	Zn	0.014078	0.761608	0.491265
	Zn221	Zn	0.014525	0.260084	0.491613
	Zn222	Zn	0.015096	0.510993	0.740935
	Zn223	Zn	0.014263	0.512767	0.240944
	Zn224	Zn	0.515629	0.762290	-0.007227
	Zn225	Zn	0.515302	0.263101	-0.010105
	Zn226	Zn	0.763942	0.011497	0.491553
	Zn227	Zn	0.265208	0.011434	0.491227
	N228	N	0.428671	0.976315	0.669933
	N229	N	0.599135	0.050416	0.666292
	N230	N	0.600456	0.974536	0.313289
	N231	N	0.430996	0.049697	0.313477
	N232	N	0.693851	0.427451	0.954398
	N233	N	0.694487	0.598471	0.029119
	N234	N	0.337966	0.598481	0.953727
	N235	N	0.335150	0.424923	0.027385
	N236	N	0.977083	0.692392	0.403419
	N237	N	0.051008	0.688491	0.575672
	N238	N	0.977556	0.329747	0.579643
	N239	N	0.051892	0.334887	0.407557
	N240	N	0.977616	0.423656	0.671394
	N241	N	0.051733	0.594671	0.666133
	N242	N	0.976904	0.598873	0.311679
	N243	N	0.051058	0.426901	0.313292
	N244	N	0.430454	0.690749	0.954383
	N245	N	0.601506	0.690217	0.029774
	N246	N	0.599973	0.337219	0.952753
	N247	N	0.430226	0.334533	0.028008
	N248	N	0.693132	0.974983	0.405272
	N249	N	0.693469	0.048077	0.577003
	N250	N	0.336301	0.975414	0.578234
	N251	N	0.337675	0.049405	0.405316
	N252	N	0.928982	0.475375	0.169633
	N253	N	0.099970	0.550209	0.167672
	N254	N	0.099797	0.473417	0.813811
	N255	N	0.929965	0.548897	0.812601
	N256	N	0.194767	0.924851	0.454512
	N257	N	0.194328	0.097624	0.527953
	N258	N	0.837566	0.097061	0.454475
	N259	N	0.834677	0.923566	0.528135
	N260	N	0.478361	0.193920	0.902453
	N261	N	0.552398	0.189431	0.074142
	N262	N	0.478575	0.831677	0.080176
	N263	N	0.553061	0.836303	0.907589
	N264	N	0.478303	0.925180	0.171140
	N265	N	0.552269	0.096976	0.167163
	N266	N	0.477671	0.100464	0.811306
	N267	N	0.552560	0.929437	0.813799
	N268	N	0.929711	0.189260	0.454620
	N269	N	0.099929	0.187777	0.529020
	N270	N	0.098815	0.835586	0.453182
	N271	N	0.929041	0.832740	0.529043
	N272	N	0.194856	0.475550	0.903310
	N273	N	0.193425	0.549972	0.075684
	N274	N	0.836292	0.475652	0.078033
	N275	N	0.837788	0.549805	0.905727
	O276	O	0.979758	1.069933	-0.097053
	H277	H	0.974722	1.078446	-0.101229
	H278	H	0.984475	1.063099	-0.100203
	O279	O	-0.021165	-0.020917	1.013604
	H280	H	-0.015190	-0.017393	1.014649
	H281	H	-0.018956	-0.025796	1.022057
	O282	O	-0.035065	0.023634	-0.012005
	H283	H	-0.030657	0.016034	0.011444
	H284	H	-0.026344	0.028530	-0.022565
	O285	O	0.474035	0.487065	0.520894
	H286	H	0.472939	0.483976	0.524036
	H287	H	0.467457	0.495191	0.519564
	O288	O	-0.987056	-0.970258	-0.002750
	H289	H	-0.986073	-0.964592	0.002332
	H290	H	-0.989602	-0.976361	-0.000594
	O291	O	0.004594	1.089662	0.028275
	H292	H	0.003771	1.094408	0.030739
	H293	H	0.001821	1.086998	0.035002
	O294	O	-0.016129	1.006384	0.056475
	H295	H	-0.024285	0.994705	0.062871
	H296	H	-0.012610	1.015033	0.052045
	O297	O	0.501234	0.482937	0.480753
	H298	H	0.491334	0.494443	0.477004
	H299	H	0.506673	0.482778	0.485082
	O300	O	0.949656	0.026786	0.027662
	H301	H	0.936892	0.035407	0.026925
	H302	H	0.954446	0.038132	0.023985
	O303	O	1.102908	0.040500	0.982895
	H304	H	1.108395	0.032254	0.980328
	H305	H	1.101667	0.036869	0.975395
	O306	O	-0.010447	0.994023	0.898990
	H307	H	-0.011087	0.988027	0.904700
	H308	H	-0.026094	0.994332	0.901438
	O309	O	0.062312	0.956683	0.991151
	H310	H	0.067029	0.958442	0.994254
	H311	H	0.057351	0.952119	0.984563
	O312	O	-0.075244	-0.030446	1.110804
	H313	H	-0.079834	-0.026596	1.116755
	H314	H	-0.081393	-0.034605	1.113812
	O315	O	0.463189	0.489539	0.519903
	H316	H	0.451300	0.487966	0.509234
	H317	H	0.470021	0.485770	0.531823
	O318	O	0.082804	-0.027520	0.948677
	H319	H	0.084028	-0.025522	0.941572
	H320	H	0.076594	-0.033069	0.956431
	O321	O	0.470625	0.522626	0.482292
	H322	H	0.463995	0.526708	0.478729
	H323	H	0.473497	0.523481	0.484484
	O324	O	0.485496	-0.454035	1.481845
	H325	H	0.490554	-0.447459	1.483017
	H326	H	0.488194	-0.450997	1.477515
	O327	O	1.003787	1.001424	0.933820
	H328	H	1.006580	1.008046	0.923806
	H329	H	1.008592	1.003245	0.935711
	O330	O	-0.024702	0.060027	1.038152
	H331	H	-0.023178	0.056757	1.028871
	H332	H	-0.029439	0.059593	1.048871
	O333	O	0.517095	0.546548	0.522432
	H334	H	0.519477	0.545858	0.524686
	H335	H	0.507805	0.541263	0.525464
	O336	O	0.464721	0.588335	0.481695
	H337	H	0.466197	0.580755	0.488475
	H338	H	0.470264	0.586015	0.477112
	O339	O	0.484818	0.486270	0.520228
	H340	H	0.482669	0.478236	0.527812
	H341	H	0.479189	0.480222	0.526804
	O342	O	0.419334	0.502819	0.491270
	H343	H	0.427278	0.497654	0.497940
	H344	H	0.415013	0.497782	0.492418
	O345	O	0.461331	0.455754	0.519392
	H346	H	0.457133	0.461025	0.509926
	H347	H	0.452781	0.449531	0.524939
