data_Molecule from HDF5

_cell_length_a		16.469318
_cell_length_b		16.242128
_cell_length_c		16.427474
_cell_angle_alpha	90.080413
_cell_angle_beta	90.148634
_cell_angle_gamma	90.180591
_symmetry_space_group_name_H-M	'P 1'
_symmetry_Int_Tables_number		1

loop_
	_symmetry_equiv_pos_as_xyz
	x,y,z

loop_
	_atom_site_label
	_atom_site_type_symbol
	_atom_site_fract_x
	_atom_site_fract_y
	_atom_site_fract_z
	H0	H	0.393264	0.835477	0.719532
	H1	H	0.603576	0.156525	0.722315
	H2	H	0.606414	0.837336	0.277508
	H3	H	0.388330	0.153592	0.275467
	H4	H	0.719546	0.386087	0.842626
	H5	H	0.723649	0.606969	0.156107
	H6	H	0.274511	0.602748	0.840998
	H7	H	0.271075	0.386134	0.155977
	H8	H	0.839736	0.718820	0.392731
	H9	H	0.154413	0.720791	0.607109
	H10	H	0.837857	0.276966	0.601206
	H11	H	0.155943	0.275072	0.393598
	H12	H	0.839741	0.389697	0.720782
	H13	H	0.153762	0.608171	0.725509
	H14	H	0.839753	0.604713	0.274661
	H15	H	0.154097	0.388480	0.274960
	H16	H	0.394929	0.714288	0.839623
	H17	H	0.606048	0.719673	0.157333
	H18	H	0.598582	0.275493	0.840644
	H19	H	0.387986	0.271062	0.157237
	H20	H	0.719559	0.837647	0.395544
	H21	H	0.718298	0.157304	0.606890
	H22	H	0.272422	0.838522	0.609782
	H23	H	0.276321	0.155956	0.392863
	H24	H	0.889890	0.336731	0.220882
	H25	H	0.104001	0.655320	0.220956
	H26	H	0.102089	0.336546	0.777629
	H27	H	0.891536	0.655374	0.778778
	H28	H	0.221141	0.888620	0.342434
	H29	H	0.222323	0.107409	0.656964
	H30	H	0.771122	0.107769	0.344435
	H31	H	0.776802	0.890945	0.658465
	H32	H	0.337630	0.213739	0.895595
	H33	H	0.653660	0.220568	0.107552
	H34	H	0.340120	0.772602	0.105481
	H35	H	0.656434	0.775915	0.897052
	H36	H	0.342457	0.882482	0.226828
	H37	H	0.652988	0.107349	0.225765
	H38	H	0.340156	0.100514	0.777132
	H39	H	0.654621	0.887391	0.776783
	H40	H	0.894172	0.214713	0.339500
	H41	H	0.100474	0.217071	0.658540
	H42	H	0.103077	0.775470	0.340682
	H43	H	0.893227	0.775493	0.657638
	H44	H	0.216695	0.336358	0.893234
	H45	H	0.220082	0.654969	0.106871
	H46	H	0.774628	0.336567	0.106023
	H47	H	0.774633	0.654527	0.893359
	H48	H	0.415763	0.108867	0.587941
	H49	H	0.583698	0.882560	0.591958
	H50	H	0.585047	0.108008	0.420542
	H51	H	0.412647	0.882176	0.410402
	H52	H	0.586415	0.410070	0.111978
	H53	H	0.592574	0.582469	0.884944
	H54	H	0.407772	0.580416	0.111944
	H55	H	0.405648	0.407354	0.886211
	H56	H	0.105151	0.578660	0.418092
	H57	H	0.884919	0.581730	0.590590
	H58	H	0.107998	0.413773	0.587283
	H59	H	0.886911	0.413135	0.410398
	H60	H	0.111886	0.408124	0.592626
	H61	H	0.883161	0.587504	0.588400
	H62	H	0.110761	0.579903	0.400939
	H63	H	0.881806	0.405619	0.401729
	H64	H	0.410194	0.583637	0.111909
	H65	H	0.583004	0.578387	0.890002
	H66	H	0.584082	0.410769	0.111346
	H67	H	0.406424	0.406674	0.886683
	H68	H	0.588868	0.113143	0.410093
	H69	H	0.588648	0.883299	0.584520
	H70	H	0.406358	0.110357	0.584620
	H71	H	0.411291	0.884205	0.417684
	H72	H	0.908463	0.611987	0.090411
	H73	H	0.085966	0.381460	0.085173
	H74	H	0.084153	0.609030	0.915377
	H75	H	0.903961	0.382841	0.919128
	H76	H	0.092290	0.911870	0.613661
	H77	H	0.088876	0.083826	0.386364
	H78	H	0.907515	0.088031	0.614375
	H79	H	0.905548	0.909353	0.384963
	H80	H	0.609194	0.080146	0.909850
	H81	H	0.384155	0.081166	0.090516
	H82	H	0.611155	0.910830	0.095265
	H83	H	0.382409	0.901911	0.907180
	H84	H	0.611351	0.903779	0.085747
	H85	H	0.384916	0.082861	0.085854
	H86	H	0.613190	0.088340	0.907280
	H87	H	0.386215	0.905859	0.913633
	H88	H	0.906900	0.085098	0.613898
	H89	H	0.086799	0.084576	0.385692
	H90	H	0.082354	0.914542	0.609031
	H91	H	0.908334	0.913209	0.388041
	H92	H	0.089662	0.612136	0.911912
	H93	H	0.084284	0.381092	0.089618
	H94	H	0.912641	0.608906	0.086065
	H95	H	0.903632	0.377206	0.903982
	H96	H	0.408494	0.113022	0.594620
	H97	H	0.591599	0.879112	0.591494
	H98	H	0.577421	0.108905	0.411087
	H99	H	0.405807	0.880777	0.413580
	H100	H	0.584215	0.408653	0.113120
	H101	H	0.583470	0.589107	0.886144
	H102	H	0.406861	0.583966	0.113244
	H103	H	0.405013	0.406316	0.885611
	H104	H	0.112078	0.594086	0.412501
	H105	H	0.886436	0.583022	0.585442
	H106	H	0.110043	0.405574	0.584429
	H107	H	0.883707	0.402136	0.413129
	H108	H	0.906446	0.610205	0.084474
	H109	H	0.081756	0.382437	0.085998
	H110	H	0.083583	0.610257	0.908535
	H111	H	0.917055	0.383065	0.909971
	H112	H	0.083831	0.904436	0.613755
	H113	H	0.088793	0.085859	0.385844
	H114	H	0.909302	0.086297	0.613386
	H115	H	0.910947	0.908041	0.386729
	H116	H	0.609710	0.087223	0.915321
	H117	H	0.386153	0.078076	0.087091
	H118	H	0.606457	0.915130	0.085503
	H119	H	0.383587	0.909660	0.906431
	C120	C	0.376652	0.005346	0.621622
	C121	C	0.620198	0.987507	0.622413
	C122	C	0.618021	0.005164	0.380299
	C123	C	0.376582	0.987493	0.379793
	C124	C	0.617359	0.375144	0.008156
	C125	C	0.619705	0.617302	0.991385
	C126	C	0.376231	0.615951	0.007620
	C127	C	0.373293	0.373174	0.990342
	C128	C	0.005308	0.617829	0.377400
	C129	C	0.988547	0.618269	0.621698
	C130	C	0.005555	0.375740	0.620118
	C131	C	0.988751	0.374232	0.376225
	C132	C	0.875981	0.504815	0.120098
	C133	C	0.118128	0.486780	0.120275
	C134	C	0.118165	0.505190	0.878364
	C135	C	0.875403	0.486756	0.878452
	C136	C	0.119419	0.875923	0.508128
	C137	C	0.119853	0.118145	0.490773
	C138	C	0.875867	0.118648	0.508731
	C139	C	0.876466	0.876698	0.491188
	C140	C	0.505988	0.116659	0.878642
	C141	C	0.488208	0.117090	0.122098
	C142	C	0.506412	0.874218	0.122236
	C143	C	0.489182	0.873793	0.877855
	C144	C	0.374370	0.884146	0.680653
	C145	C	0.621732	0.108520	0.682316
	C146	C	0.622615	0.885192	0.318834
	C147	C	0.371760	0.106363	0.316642
	C148	C	0.678537	0.369729	0.889539
	C149	C	0.681985	0.622694	0.109344
	C150	C	0.315490	0.619669	0.888508
	C151	C	0.311862	0.368831	0.108999
	C152	C	0.887059	0.679096	0.374301
	C153	C	0.107005	0.680576	0.624839
	C154	C	0.886044	0.315774	0.621084
	C155	C	0.107836	0.314641	0.375005
	C156	C	0.886993	0.372106	0.680515
	C157	C	0.106484	0.624050	0.684034
	C158	C	0.887105	0.621923	0.315663
	C159	C	0.107271	0.371155	0.315774
	C160	C	0.375427	0.675503	0.887648
	C161	C	0.623508	0.679394	0.109772
	C162	C	0.618091	0.314832	0.888668
	C163	C	0.370187	0.311555	0.109547
	C164	C	0.679529	0.885411	0.377395
	C165	C	0.679236	0.108875	0.625111
	C166	C	0.314089	0.886024	0.626058
	C167	C	0.315976	0.107663	0.375530
	C168	C	0.872609	0.384599	0.180708
	C169	C	0.122062	0.607230	0.181206
	C170	C	0.120707	0.384741	0.817445
	C171	C	0.873082	0.607315	0.818669
	C172	C	0.180660	0.871468	0.389648
	C173	C	0.181032	0.123425	0.609719
	C174	C	0.813408	0.123342	0.390792
	C175	C	0.816665	0.873302	0.610568
	C176	C	0.385932	0.174941	0.877182
	C177	C	0.606113	0.180190	0.125536
	C178	C	0.387739	0.812365	0.124311
	C179	C	0.608590	0.814614	0.877563
	C180	C	0.388955	0.867569	0.184550
	C181	C	0.605753	0.123630	0.184756
	C182	C	0.387134	0.118700	0.817857
	C183	C	0.607712	0.870179	0.817622
	C184	C	0.874961	0.176676	0.388273
	C185	C	0.120753	0.178700	0.610308
	C186	C	0.121587	0.814924	0.388722
	C187	C	0.874515	0.815537	0.610222
	C188	C	0.177576	0.384500	0.875287
	C189	C	0.179791	0.606913	0.124436
	C190	C	0.814943	0.384510	0.123706
	C191	C	0.814787	0.606701	0.875592
	C192	C	0.402527	0.088805	0.596235
	C193	C	0.595265	0.903584	0.596769
	C194	C	0.591355	0.088291	0.406330
	C195	C	0.402582	0.904331	0.406196
	C196	C	0.592178	0.402201	0.090612
	C197	C	0.593780	0.590938	0.908580
	C198	C	0.400904	0.589982	0.090699
	C199	C	0.398490	0.399256	0.907663
	C200	C	0.087763	0.591705	0.403170
	C201	C	0.906344	0.591652	0.595481
	C202	C	0.088531	0.401729	0.595200
	C203	C	0.905695	0.399781	0.401143
	C204	C	0.901917	0.588556	0.094446
	C205	C	0.091726	0.403552	0.094327
	C206	C	0.092957	0.588689	0.904373
	C207	C	0.900849	0.402869	0.903751
	C208	C	0.093703	0.902441	0.590621
	C209	C	0.095270	0.092095	0.407688
	C210	C	0.900852	0.093569	0.592227
	C211	C	0.901034	0.902613	0.408231
	C212	C	0.589134	0.092138	0.903461
	C213	C	0.406447	0.088802	0.095474
	C214	C	0.588256	0.901995	0.096388
	C215	C	0.405869	0.898682	0.902026
	Zn216	Zn	0.498208	-0.004486	0.749315
	Zn217	Zn	0.497064	-0.004342	0.251090
	Zn218	Zn	0.747510	0.495124	-0.000347
	Zn219	Zn	0.245628	0.495683	-0.000591
	Zn220	Zn	-0.002642	0.747193	0.499050
	Zn221	Zn	-0.002575	0.246223	0.498577
	Zn222	Zn	-0.002952	0.496194	0.750667
	Zn223	Zn	-0.002905	0.496334	0.247940
	Zn224	Zn	0.497497	0.745653	-0.000526
	Zn225	Zn	0.495776	0.245779	-0.000131
	Zn226	Zn	0.747485	-0.001835	0.500739
	Zn227	Zn	0.248626	-0.003160	0.500232
	N228	N	0.412695	0.959372	0.678217
	N229	N	0.585700	0.031969	0.680900
	N230	N	0.585003	0.960617	0.320616
	N231	N	0.408766	0.030578	0.319169
	N232	N	0.678180	0.406636	0.964826
	N233	N	0.679982	0.584760	0.034596
	N234	N	0.315712	0.583544	0.964144
	N235	N	0.313289	0.406147	0.033909
	N236	N	0.961594	0.676578	0.411895
	N237	N	0.032767	0.677206	0.586538
	N238	N	0.960928	0.317762	0.584325
	N239	N	0.032835	0.316387	0.411565
	N240	N	0.962395	0.408632	0.680143
	N241	N	0.031898	0.585940	0.682363
	N242	N	0.961716	0.584311	0.317506
	N243	N	0.032028	0.407452	0.316300
	N244	N	0.412473	0.673440	0.962808
	N245	N	0.585148	0.676041	0.035417
	N246	N	0.580828	0.317774	0.963484
	N247	N	0.407649	0.313977	0.034915
	N248	N	0.676804	0.961044	0.414777
	N249	N	0.678576	0.032650	0.588883
	N250	N	0.315582	0.962276	0.589868
	N251	N	0.318711	0.032774	0.414087
	N252	N	0.909784	0.460503	0.178610
	N253	N	0.084495	0.531508	0.179023
	N254	N	0.084511	0.460921	0.819132
	N255	N	0.909972	0.531614	0.820372
	N256	N	0.179461	0.908417	0.464896
	N257	N	0.180796	0.086542	0.534309
	N258	N	0.814194	0.087813	0.466713
	N259	N	0.817788	0.910672	0.535475
	N260	N	0.460893	0.173820	0.914161
	N261	N	0.531914	0.176182	0.087213
	N262	N	0.461653	0.816405	0.086078
	N263	N	0.533880	0.817039	0.914265
	N264	N	0.463856	0.905268	0.183462
	N265	N	0.531412	0.085133	0.182690
	N266	N	0.462855	0.083256	0.818477
	N267	N	0.532282	0.906121	0.817398
	N268	N	0.913273	0.173533	0.462557
	N269	N	0.083483	0.175592	0.535522
	N270	N	0.084555	0.817176	0.463646
	N271	N	0.911096	0.817563	0.535165
	N272	N	0.176106	0.460387	0.912220
	N273	N	0.177701	0.531042	0.087522
	N274	N	0.816764	0.460386	0.086969
	N275	N	0.816574	0.530700	0.912290
	O276	O	0.514170	0.280646	0.288676
	H277	H	0.514502	0.274881	0.264537
	H278	H	0.550165	0.276984	0.283160
	O279	O	0.513034	0.332900	0.696359
	H280	H	0.513312	0.335231	0.709940
	H281	H	0.492626	0.335269	0.708848
	O282	O	0.283459	0.710117	0.480241
	H283	H	0.271862	0.719449	0.472706
	H284	H	0.271252	0.710679	0.470938
	O285	O	1.085967	0.980144	-0.000725
	H286	H	1.076433	0.989784	0.002131
	H287	H	1.087359	0.989059	0.002300
	O288	O	0.522431	0.664087	0.561639
	H289	H	0.502539	0.668647	0.545344
	H290	H	0.538023	0.658921	0.575782
	O291	O	0.303794	0.372017	0.696414
	H292	H	0.299729	0.369879	0.674674
	H293	H	0.284017	0.379741	0.694772
	O294	O	0.807724	0.875603	1.126794
	H295	H	0.822687	0.869650	1.126041
	H296	H	0.819133	0.860299	1.107839
	O297	O	0.361552	0.528086	0.667733
	H298	H	0.339858	0.539697	0.653917
	H299	H	0.359253	0.528766	0.671409
	O300	O	0.684818	0.481848	0.289924
	H301	H	0.694380	0.492178	0.267520
	H302	H	0.671578	0.505740	0.279683
	O303	O	0.511973	0.503437	0.521212
	H304	H	0.514788	0.486408	0.538219
	H305	H	0.493838	0.514732	0.530015
	O306	O	0.205213	0.015056	0.972694
	H307	H	0.195217	0.005089	0.972448
	H308	H	0.205879	0.005585	0.970731
	O309	O	0.951132	-0.205100	-0.060100
	H310	H	0.923555	-0.203479	-0.055181
	H311	H	0.951383	-0.226477	-0.068514
	O312	O	0.288093	0.438692	0.445859
	H313	H	0.296442	0.405458	0.456143
	H314	H	0.283895	0.444832	0.438020
	O315	O	0.697223	0.524902	0.439476
	H316	H	0.720472	0.512142	0.430458
	H317	H	0.687523	0.500366	0.461464
	O318	O	-0.164068	-0.010548	-0.209971
	H319	H	-0.187442	0.014602	-0.226149
	H320	H	-0.165414	0.013679	-0.195853
	O321	O	0.691234	0.304650	0.489040
	H322	H	0.676402	0.302186	0.507186
	H323	H	0.697281	0.291386	0.489605
	O324	O	0.877520	0.081160	0.974353
	H325	H	0.898509	0.069260	0.981701
	H326	H	0.866778	0.075196	0.995969
	O327	O	0.334413	0.598838	0.582874
	H328	H	0.336642	0.580082	0.579325
	H329	H	0.332228	0.610974	0.582138
	O330	O	0.010037	1.201654	0.945812
	H331	H	0.009152	1.204345	0.962897
	H332	H	-0.005032	1.191702	0.946383
	O333	O	0.203406	1.061741	0.180176
	H334	H	0.220889	1.060202	0.186324
	H335	H	0.199850	1.061023	0.161598
	O336	O	0.820599	1.126304	-0.178077
	H337	H	0.846690	1.145262	-0.166082
	H338	H	0.809843	1.133584	-0.161802
	O339	O	0.037376	1.206582	1.208006
	H340	H	0.041730	1.234428	1.228734
	H341	H	0.050760	1.192765	1.203701
	O342	O	0.324096	0.675231	0.324858
	H343	H	0.345460	0.684582	0.340747
	H344	H	0.311161	0.622999	0.311296
	O345	O	0.006790	0.078020	1.127625
	H346	H	0.012720	0.071535	1.123844
	H347	H	-0.011587	0.083906	1.139786
	O348	O	0.487651	0.494741	0.406421
	H349	H	0.477644	0.512195	0.402645
	H350	H	0.492590	0.501682	0.410336
	O351	O	0.788882	1.003837	0.162863
	H352	H	0.804710	0.978180	0.163298
	H353	H	0.769719	0.992071	0.196770
	O354	O	1.096552	1.118097	0.894529
	H355	H	1.105421	1.097509	0.875468
	H356	H	1.089017	1.132225	0.894625
	O357	O	-0.151263	0.142345	0.043112
	H358	H	-0.158109	0.157266	0.049781
	H359	H	-0.169656	0.135154	0.058366
	O360	O	0.297446	0.294862	0.568802
	H361	H	0.300253	0.271228	0.557722
	H362	H	0.317213	0.274064	0.555321
	O363	O	0.954622	-0.131400	-0.067369
	H364	H	0.954731	-0.130817	-0.056364
	H365	H	0.944141	-0.132983	-0.065428
	O366	O	0.040483	-0.124510	1.119131
	H367	H	0.064206	-0.140902	1.112771
	H368	H	0.026532	-0.127754	1.103379
	O369	O	0.998706	0.009045	0.921731
	H370	H	0.989092	-0.002173	0.917443
	H371	H	0.981412	0.009894	0.930531
	O372	O	0.521122	0.364262	0.563814
	H373	H	0.512045	0.370678	0.558658
	H374	H	0.530158	0.381817	0.581309
	O375	O	0.194342	-0.174924	0.972470
	H376	H	0.215367	-0.197473	0.976455
	H377	H	0.183032	-0.176999	0.944112
	O378	O	0.526786	0.654774	0.285507
	H379	H	0.518888	0.667486	0.308470
	H380	H	0.525374	0.681863	0.279640
	O381	O	0.174330	1.092801	0.045920
	H382	H	0.189932	1.076929	0.051145
	H383	H	0.176119	1.094643	0.014515
	O384	O	0.664641	0.417965	0.570031
	H385	H	0.664766	0.390658	0.584483
	H386	H	0.648055	0.428839	0.589024
	O387	O	0.703281	0.498814	0.704290
	H388	H	0.708866	0.503075	0.725978
	H389	H	0.700456	0.532941	0.706637
	O390	O	0.797383	0.889666	-0.080366
	H391	H	0.802392	0.917765	-0.078131
	H392	H	0.784899	0.893488	-0.109651
	O393	O	0.975835	0.061292	1.073715
	H394	H	0.984738	0.064311	1.086125
	H395	H	0.985836	0.065683	1.078982
	O396	O	0.441074	0.288541	0.449951
	H397	H	0.469050	0.297250	0.452952
	H398	H	0.462169	0.282683	0.420038
	O399	O	0.671957	0.314678	0.326527
	H400	H	0.684630	0.351713	0.330713
	H401	H	0.669213	0.323429	0.347672
	O402	O	1.038341	0.830772	0.147946
	H403	H	1.048184	0.858489	0.139297
	H404	H	1.047449	0.818591	0.150646
	O405	O	0.295163	0.511917	0.283587
	H406	H	0.271771	0.505081	0.253850
	H407	H	0.298166	0.489765	0.299140
	O408	O	0.509856	0.629968	0.706430
	H409	H	0.492324	0.627202	0.711904
	H410	H	0.492328	0.639576	0.695742
	O411	O	1.166385	0.807864	0.841393
	H412	H	1.167807	0.830278	0.834761
	H413	H	1.134666	0.803355	0.825338
	O414	O	0.696366	0.685550	0.531111
	H415	H	0.714863	0.698168	0.528590
	H416	H	0.699924	0.650040	0.508744
	O417	O	0.130721	0.955417	0.798791
	H418	H	0.099886	0.960478	0.796125
	H419	H	0.146815	0.963775	0.774232
	O420	O	0.007963	0.923299	1.200188
	H421	H	0.026573	0.936903	1.196549
	H422	H	0.004362	0.919209	1.188085
	O423	O	-0.180374	0.867068	0.021315
	H424	H	-0.176756	0.879104	0.007290
	H425	H	-0.200882	0.854371	0.016209
	O426	O	0.521583	0.705971	0.388383
	H427	H	0.536612	0.715474	0.394253
	H428	H	0.490585	0.704645	0.410168
	O429	O	0.686157	0.685443	0.693873
	H430	H	0.649172	0.685314	0.687430
	H431	H	0.682879	0.688856	0.657053
	O432	O	0.449703	0.452775	0.282058
	H433	H	0.449488	0.461104	0.279144
	H434	H	0.459878	0.455045	0.280089
	O435	O	-0.036681	0.005794	-0.017982
	H436	H	-0.037662	-0.017629	-0.025524
	H437	H	-0.050055	0.003719	0.001794
	O438	O	0.060260	1.148216	0.870635
	H439	H	0.066538	1.143020	0.885476
	H440	H	0.059231	1.156224	0.863115
	O441	O	0.402528	0.589556	0.645094
	H442	H	0.412004	0.585637	0.620808
	H443	H	0.372077	0.588797	0.642366
