data_Molecule from HDF5

_cell_length_a		16.453868
_cell_length_b		16.336426
_cell_length_c		16.375944
_cell_angle_alpha	89.799996
_cell_angle_beta	89.911549
_cell_angle_gamma	90.022017
_symmetry_space_group_name_H-M	'P 1'
_symmetry_Int_Tables_number		1

loop_
	_symmetry_equiv_pos_as_xyz
	x,y,z

loop_
	_atom_site_label
	_atom_site_type_symbol
	_atom_site_fract_x
	_atom_site_fract_y
	_atom_site_fract_z
	H0	H	0.387049	0.838983	0.718088
	H1	H	0.593644	0.159182	0.714618
	H2	H	0.599224	0.840846	0.273935
	H3	H	0.384318	0.158139	0.274636
	H4	H	0.711756	0.396270	0.837670
	H5	H	0.711024	0.605006	0.155850
	H6	H	0.269539	0.608569	0.838346
	H7	H	0.265942	0.390882	0.153879
	H8	H	0.832308	0.719102	0.391968
	H9	H	0.147599	0.725499	0.606202
	H10	H	0.831222	0.279890	0.600000
	H11	H	0.149859	0.277699	0.392138
	H12	H	0.832612	0.395352	0.717462
	H13	H	0.148490	0.607537	0.720738
	H14	H	0.831865	0.603063	0.276487
	H15	H	0.148784	0.391773	0.272931
	H16	H	0.387949	0.719994	0.837832
	H17	H	0.594519	0.718526	0.156968
	H18	H	0.594003	0.281707	0.836194
	H19	H	0.382893	0.275652	0.154420
	H20	H	0.714942	0.840683	0.388283
	H21	H	0.708476	0.159823	0.597737
	H22	H	0.267550	0.840564	0.606971
	H23	H	0.267544	0.157090	0.388706
	H24	H	0.889895	0.337972	0.213982
	H25	H	0.096623	0.658312	0.218590
	H26	H	0.095586	0.339733	0.777718
	H27	H	0.887287	0.658788	0.774722
	H28	H	0.216638	0.890941	0.339940
	H29	H	0.212048	0.103539	0.656269
	H30	H	0.768603	0.108316	0.339502
	H31	H	0.772507	0.895211	0.656234
	H32	H	0.331052	0.221417	0.890423
	H33	H	0.648192	0.220443	0.099972
	H34	H	0.332474	0.776746	0.105561
	H35	H	0.649527	0.780583	0.894060
	H36	H	0.333159	0.892074	0.222110
	H37	H	0.647808	0.106777	0.218455
	H38	H	0.331304	0.105585	0.774329
	H39	H	0.649484	0.897084	0.778634
	H40	H	0.889885	0.217108	0.336354
	H41	H	0.092803	0.216013	0.657808
	H42	H	0.098902	0.777225	0.337801
	H43	H	0.888670	0.779735	0.655709
	H44	H	0.212925	0.340995	0.890232
	H45	H	0.210959	0.659355	0.101501
	H46	H	0.771557	0.339773	0.100567
	H47	H	0.770467	0.659371	0.890582
	H48	H	0.402483	0.113701	0.589471
	H49	H	0.586333	0.883050	0.585058
	H50	H	0.577966	0.111559	0.409526
	H51	H	0.407339	0.890378	0.417869
	H52	H	0.577453	0.415251	0.108313
	H53	H	0.586786	0.586505	0.882191
	H54	H	0.401863	0.591114	0.111675
	H55	H	0.395584	0.416343	0.882923
	H56	H	0.101704	0.588541	0.416357
	H57	H	0.878370	0.591941	0.580224
	H58	H	0.105240	0.410668	0.592761
	H59	H	0.878959	0.412799	0.404804
	H60	H	0.106800	0.401739	0.587228
	H61	H	0.882105	0.580871	0.582223
	H62	H	0.102561	0.578086	0.403939
	H63	H	0.875985	0.404582	0.403352
	H64	H	0.396514	0.585673	0.111853
	H65	H	0.575277	0.587678	0.884664
	H66	H	0.577089	0.405789	0.110177
	H67	H	0.407810	0.414615	0.885525
	H68	H	0.580436	0.111896	0.409519
	H69	H	0.581499	0.882123	0.593106
	H70	H	0.404094	0.110697	0.582948
	H71	H	0.396840	0.884336	0.411334
	H72	H	0.904899	0.611808	0.084820
	H73	H	0.075959	0.384899	0.090223
	H74	H	0.079571	0.612743	0.910263
	H75	H	0.898540	0.384514	0.905883
	H76	H	0.081823	0.901291	0.614233
	H77	H	0.084695	0.085261	0.383601
	H78	H	0.894903	0.091610	0.614760
	H79	H	0.901335	0.904723	0.380000
	H80	H	0.604648	0.094215	0.904959
	H81	H	0.379744	0.087840	0.078543
	H82	H	0.599662	0.915109	0.080136
	H83	H	0.374312	0.908106	0.904035
	H84	H	0.604933	0.912382	0.094761
	H85	H	0.378857	0.080617	0.087448
	H86	H	0.600882	0.088792	0.910306
	H87	H	0.377297	0.906926	0.913185
	H88	H	0.898908	0.083684	0.609915
	H89	H	0.076830	0.085903	0.385016
	H90	H	0.085059	0.920989	0.608768
	H91	H	0.896769	0.915301	0.381820
	H92	H	0.081233	0.614529	0.907288
	H93	H	0.074059	0.389578	0.079410
	H94	H	0.895877	0.615231	0.083814
	H95	H	0.904515	0.386761	0.908156
	H96	H	0.396975	0.113323	0.584294
	H97	H	0.578186	0.886225	0.585456
	H98	H	0.579421	0.112622	0.407055
	H99	H	0.408507	0.886391	0.405139
	H100	H	0.585022	0.411268	0.111864
	H101	H	0.581311	0.596775	0.880344
	H102	H	0.403686	0.583993	0.108727
	H103	H	0.400865	0.405448	0.881483
	H104	H	0.107991	0.594212	0.402385
	H105	H	0.877091	0.587256	0.590602
	H106	H	0.102755	0.410103	0.581940
	H107	H	0.879167	0.407253	0.411913
	H108	H	0.900291	0.616765	0.091911
	H109	H	0.084838	0.385473	0.081625
	H110	H	0.077597	0.613162	0.906195
	H111	H	0.899430	0.385798	0.911915
	H112	H	0.067281	0.911734	0.604639
	H113	H	0.080735	0.091926	0.381690
	H114	H	0.904172	0.092004	0.611255
	H115	H	0.907226	0.913508	0.384972
	H116	H	0.602907	0.086191	0.902430
	H117	H	0.374470	0.091190	0.088457
	H118	H	0.605687	0.901000	0.083482
	H119	H	0.378412	0.915368	0.908455
	C120	C	0.369283	0.007367	0.618765
	C121	C	0.612330	0.990155	0.617969
	C122	C	0.612866	0.007592	0.375127
	C123	C	0.370251	0.991273	0.376858
	C124	C	0.611658	0.379157	0.004947
	C125	C	0.612287	0.621683	0.988003
	C126	C	0.368918	0.620589	0.005705
	C127	C	0.368477	0.378382	0.987937
	C128	C	-0.000733	0.619745	0.375216
	C129	C	0.983326	0.620023	0.617669
	C130	C	-0.000168	0.376497	0.618742
	C131	C	0.982542	0.375853	0.374345
	C132	C	0.869372	0.508366	0.118154
	C133	C	0.111458	0.491344	0.116876
	C134	C	0.112596	0.508632	0.874993
	C135	C	0.869579	0.491320	0.875784
	C136	C	0.112342	0.877598	0.505286
	C137	C	0.112476	0.119493	0.488752
	C138	C	0.868746	0.120666	0.506075
	C139	C	0.870088	0.878580	0.487655
	C140	C	0.498018	0.121886	0.874079
	C141	C	0.481634	0.120309	0.117286
	C142	C	0.498958	0.876947	0.119547
	C143	C	0.481877	0.878948	0.876955
	C144	C	0.367666	0.887286	0.679334
	C145	C	0.612607	0.111090	0.675869
	C146	C	0.616580	0.888534	0.314201
	C147	C	0.366442	0.110151	0.314861
	C148	C	0.671552	0.377877	0.885136
	C149	C	0.671368	0.623353	0.108052
	C150	C	0.309650	0.625057	0.885972
	C151	C	0.306483	0.373530	0.106417
	C152	C	0.880046	0.679598	0.373621
	C153	C	0.101042	0.683083	0.622317
	C154	C	0.879446	0.318666	0.619411
	C155	C	0.101984	0.316659	0.372694
	C156	C	0.880162	0.375750	0.678106
	C157	C	0.101369	0.624458	0.679870
	C158	C	0.879836	0.621864	0.315956
	C159	C	0.101362	0.373593	0.313353
	C160	C	0.368274	0.681098	0.885856
	C161	C	0.613047	0.679801	0.108648
	C162	C	0.613101	0.320677	0.884511
	C163	C	0.364889	0.316292	0.106908
	C164	C	0.674383	0.888512	0.371356
	C165	C	0.669730	0.111300	0.617323
	C166	C	0.308667	0.887983	0.623366
	C167	C	0.308106	0.109587	0.372019
	C168	C	0.869213	0.386916	0.176097
	C169	C	0.114401	0.610789	0.177939
	C170	C	0.114161	0.387995	0.816501
	C171	C	0.868578	0.611337	0.815228
	C172	C	0.175317	0.873578	0.386769
	C173	C	0.171925	0.121708	0.608707
	C174	C	0.809533	0.124256	0.386267
	C175	C	0.811462	0.876469	0.607980
	C176	C	0.378738	0.181512	0.872300
	C177	C	0.600553	0.181135	0.119213
	C178	C	0.380081	0.816376	0.123572
	C179	C	0.601700	0.820232	0.875889
	C180	C	0.380486	0.874178	0.181370
	C181	C	0.600514	0.124128	0.177933
	C182	C	0.378821	0.123687	0.814329
	C183	C	0.601607	0.878015	0.817880
	C184	C	0.869581	0.178906	0.384985
	C185	C	0.112589	0.177530	0.609532
	C186	C	0.116514	0.817056	0.385725
	C187	C	0.869349	0.819105	0.607768
	C188	C	0.172734	0.388815	0.872574
	C189	C	0.171364	0.611321	0.119703
	C190	C	0.810781	0.387664	0.119295
	C191	C	0.810424	0.611567	0.872783
	C192	C	0.393967	0.090803	0.592887
	C193	C	0.588870	0.905814	0.594674
	C194	C	0.586740	0.090380	0.401106
	C195	C	0.396717	0.908396	0.403848
	C196	C	0.586955	0.403569	0.088398
	C197	C	0.588052	0.597207	0.904284
	C198	C	0.393510	0.594392	0.089080
	C199	C	0.394174	0.404564	0.904984
	C200	C	0.082464	0.594202	0.400157
	C201	C	0.900736	0.594027	0.591709
	C202	C	0.083167	0.400486	0.594422
	C203	C	0.899666	0.401205	0.399476
	C204	C	0.893477	0.592660	0.093888
	C205	C	0.085803	0.408374	0.091119
	C206	C	0.086931	0.591820	0.900486
	C207	C	0.894050	0.407526	0.901392
	C208	C	0.085822	0.903699	0.587580
	C209	C	0.088069	0.094656	0.405269
	C210	C	0.892379	0.096114	0.590062
	C211	C	0.894626	0.903890	0.403853
	C212	C	0.581380	0.096946	0.899044
	C213	C	0.399191	0.094165	0.091994
	C214	C	0.581819	0.902402	0.093652
	C215	C	0.398333	0.903100	0.901452
	Zn216	Zn	0.490099	-0.001063	0.746356
	Zn217	Zn	0.490729	-0.000558	0.247321
	Zn218	Zn	0.740607	0.500690	-0.002764
	Zn219	Zn	0.240273	0.500482	-0.003946
	Zn220	Zn	-0.008516	0.749356	0.495653
	Zn221	Zn	-0.009004	0.247483	0.497141
	Zn222	Zn	-0.008897	0.498893	0.747292
	Zn223	Zn	-0.009504	0.499070	0.245971
	Zn224	Zn	0.490229	0.748619	-0.002638
	Zn225	Zn	0.489841	0.250059	-0.004035
	Zn226	Zn	0.741215	-0.000722	0.496042
	Zn227	Zn	0.240845	-0.001456	0.497703
	N228	N	0.404698	0.962663	0.676477
	N229	N	0.577493	0.034738	0.676361
	N230	N	0.579100	0.963464	0.316347
	N231	N	0.404538	0.035358	0.317934
	N232	N	0.670792	0.413341	0.961043
	N233	N	0.671191	0.588069	0.032049
	N234	N	0.309716	0.588340	0.961636
	N235	N	0.308668	0.411411	0.031516
	N236	N	0.955620	0.678530	0.409563
	N237	N	0.026689	0.680344	0.584249
	N238	N	0.954839	0.318804	0.583287
	N239	N	0.027193	0.317958	0.410057
	N240	N	0.955901	0.410996	0.677930
	N241	N	0.027223	0.585679	0.676760
	N242	N	0.955156	0.585644	0.316628
	N243	N	0.025963	0.409687	0.314087
	N244	N	0.404227	0.678668	0.961317
	N245	N	0.577059	0.678965	0.032968
	N246	N	0.576363	0.321258	0.959999
	N247	N	0.402573	0.319115	0.032071
	N248	N	0.672363	0.963863	0.408529
	N249	N	0.669930	0.035127	0.582285
	N250	N	0.309561	0.963671	0.586482
	N251	N	0.310589	0.034523	0.409883
	N252	N	0.904647	0.463127	0.175638
	N253	N	0.077741	0.535209	0.176458
	N254	N	0.077602	0.463591	0.817653
	N255	N	0.904473	0.535463	0.816979
	N256	N	0.172974	0.910602	0.462017
	N257	N	0.172198	0.086677	0.532465
	N258	N	0.808962	0.088656	0.462480
	N259	N	0.811618	0.912629	0.531990
	N260	N	0.454033	0.180474	0.908662
	N261	N	0.525752	0.178837	0.082165
	N262	N	0.454822	0.818096	0.085930
	N263	N	0.526334	0.820907	0.912174
	N264	N	0.455658	0.910898	0.179307
	N265	N	0.525636	0.086986	0.176946
	N266	N	0.454078	0.087419	0.815227
	N267	N	0.525988	0.913673	0.818334
	N268	N	0.905969	0.176527	0.460386
	N269	N	0.076603	0.176323	0.533814
	N270	N	0.078341	0.819419	0.460210
	N271	N	0.904529	0.819902	0.531679
	N272	N	0.172018	0.464974	0.908090
	N273	N	0.169794	0.535986	0.082620
	N274	N	0.810562	0.464299	0.084318
	N275	N	0.810904	0.536014	0.909694
	O276	O	0.505561	0.349820	0.596732
	H277	H	0.502943	0.349219	0.592873
	H278	H	0.481697	0.337423	0.608410
	O279	O	0.472506	0.702220	0.553684
	H280	H	0.466173	0.705840	0.545283
	H281	H	0.472309	0.704730	0.547212
	O282	O	0.682541	0.692005	0.632001
	H283	H	0.691051	0.673530	0.640704
	H284	H	0.672587	0.700763	0.635961
	O285	O	1.095220	0.974070	-0.044032
	H286	H	1.114406	0.978560	-0.038266
	H287	H	1.099571	0.975913	-0.049833
	O288	O	0.352667	0.465812	0.390439
	H289	H	0.342827	0.472087	0.380033
	H290	H	0.368292	0.464081	0.388760
	O291	O	0.656793	0.541523	0.477038
	H292	H	0.648069	0.544923	0.463282
	H293	H	0.651758	0.549010	0.489931
	O294	O	1.019500	0.829392	1.153739
	H295	H	1.028319	0.809934	1.168843
	H296	H	1.033909	0.832034	1.147093
	O297	O	0.577934	0.563469	0.360747
	H298	H	0.573814	0.574112	0.368567
	H299	H	0.586648	0.566205	0.360290
	O300	O	0.872636	-0.169622	0.818297
	H301	H	0.880953	-0.165514	0.823124
	H302	H	0.879782	-0.158547	0.828521
	O303	O	0.688930	0.368165	0.574653
	H304	H	0.688634	0.367937	0.558772
	H305	H	0.681592	0.384493	0.571157
	O306	O	-0.168047	-0.180593	1.156638
	H307	H	-0.165368	-0.189941	1.134740
	H308	H	-0.138774	-0.189461	1.167090
	O309	O	1.026313	0.080732	0.180355
	H310	H	1.021519	0.088709	0.184528
	H311	H	1.008195	0.077137	0.170497
	O312	O	0.344368	0.704655	0.410781
	H313	H	0.356937	0.698884	0.377908
	H314	H	0.330437	0.713075	0.403196
	O315	O	0.666835	0.647853	0.501421
	H316	H	0.661648	0.634298	0.503476
	H317	H	0.689957	0.657537	0.514782
	O318	O	0.121356	-0.054635	0.080040
	H319	H	0.137139	-0.026353	0.084150
	H320	H	0.106261	-0.052899	0.063090
	O321	O	0.309898	0.363230	0.686200
	H322	H	0.315148	0.404978	0.695071
	H323	H	0.299319	0.356500	0.678999
	O324	O	0.961316	-0.169565	0.998309
	H325	H	0.956005	-0.180101	0.999359
	H326	H	0.966307	-0.143894	0.993662
	O327	O	0.491100	0.639702	0.285920
	H328	H	0.497031	0.648724	0.305280
	H329	H	0.506350	0.655108	0.278377
	O330	O	-0.129074	1.057246	0.812445
	H331	H	-0.120051	1.072884	0.816375
	H332	H	-0.148850	1.045508	0.807246
	O333	O	-0.214479	0.971800	0.164227
	H334	H	-0.212137	0.947166	0.158899
	H335	H	-0.235830	0.957747	0.190303
	O336	O	1.112448	1.123384	0.150787
	H337	H	1.109279	1.135277	0.124543
	H338	H	1.098732	1.133965	0.148027
	O339	O	-0.108263	0.799847	1.003468
	H340	H	-0.113230	0.785418	0.997380
	H341	H	-0.103468	0.800372	0.996783
	O342	O	0.410956	0.690588	0.613527
	H343	H	0.411110	0.698900	0.593275
	H344	H	0.401547	0.691979	0.608561
	O345	O	-0.163142	0.132250	0.833253
	H346	H	-0.164640	0.143986	0.814689
	H347	H	-0.164725	0.129159	0.825571
	O348	O	0.420637	0.468482	0.479986
	H349	H	0.417592	0.482870	0.475671
	H350	H	0.420517	0.453140	0.479623
	O351	O	1.153891	1.048379	0.100744
	H352	H	1.159962	1.067946	0.114013
	H353	H	1.152269	1.064841	0.100776
	O354	O	0.949558	0.937793	0.891030
	H355	H	0.946541	0.947966	0.899954
	H356	H	0.950310	0.947756	0.895925
	O357	O	-0.031677	0.054834	-0.158551
	H358	H	-0.040209	0.060516	-0.150970
	H359	H	-0.040030	0.044819	-0.160868
	O360	O	0.468966	0.648186	0.408097
	H361	H	0.476649	0.648729	0.415273
	H362	H	0.462760	0.639054	0.431648
	O363	O	0.518840	-0.569897	-0.311157
	H364	H	0.506150	-0.574419	-0.307896
	H365	H	0.523707	-0.578934	-0.311642
	O366	O	-0.114250	0.064126	1.139041
	H367	H	-0.121876	0.061074	1.140206
	H368	H	-0.112409	0.046328	1.140578
	O369	O	1.069233	-0.034174	0.878854
	H370	H	1.065162	-0.037523	0.892678
	H371	H	1.077815	-0.032943	0.870317
	O372	O	0.307817	0.313780	0.572082
	H373	H	0.316526	0.304110	0.568437
	H374	H	0.308139	0.313684	0.570130
	O375	O	0.684934	0.393087	1.554022
	H376	H	0.692946	0.390803	1.559350
	H377	H	0.682855	0.403820	1.538783
	O378	O	0.460201	0.369331	0.479911
	H379	H	0.450209	0.354992	0.468611
	H380	H	0.472306	0.373127	0.504595
	O381	O	0.104950	1.187003	-0.014623
	H382	H	0.102567	1.200264	-0.020248
	H383	H	0.097058	1.181454	-0.027403
	O384	O	0.315782	0.670862	0.323142
	H385	H	0.343635	0.663133	0.312187
	H386	H	0.328241	0.642728	0.313969
	O387	O	0.543863	0.311506	0.625202
	H388	H	0.514796	0.307376	0.628940
	H389	H	0.527803	0.318585	0.627551
	O390	O	0.986193	1.111329	0.033428
	H391	H	0.977445	1.115396	0.022586
	H392	H	0.978903	1.100383	0.041853
	O393	O	1.161008	-0.145570	0.922344
	H394	H	1.165886	-0.142153	0.931822
	H395	H	1.168209	-0.136592	0.934508
	O396	O	0.657157	0.309000	0.311596
	H397	H	0.649708	0.307620	0.307588
	H398	H	0.658742	0.313990	0.318346
	O399	O	1.135071	1.053046	-0.019058
	H400	H	1.132480	1.055588	-0.017047
	H401	H	1.143679	1.056883	-0.003636
	O402	O	1.093995	0.931922	-0.123403
	H403	H	1.093692	0.923310	-0.114793
	H404	H	1.103457	0.931104	-0.117153
	O405	O	0.356734	0.537958	0.631380
	H406	H	0.377434	0.540187	0.619282
	H407	H	0.364143	0.553874	0.614503
	O408	O	0.503732	0.348874	0.349835
	H409	H	0.496914	0.368939	0.348397
	H410	H	0.514071	0.332042	0.322983
	O411	O	1.009875	1.097113	1.006436
	H412	H	1.004425	1.100063	1.004915
	H413	H	1.010675	1.093459	1.008407
	O414	O	0.480055	0.583398	0.383651
	H415	H	0.486835	0.599871	0.373007
	H416	H	0.462663	0.581029	0.378008
	O417	O	-0.096989	1.011062	1.028425
	H418	H	-0.100776	1.005888	1.033618
	H419	H	-0.093835	1.019080	1.024394
	O420	O	-0.187816	1.124737	0.903573
	H421	H	-0.204440	1.135000	0.888756
	H422	H	-0.188010	1.128006	0.911950
	O423	O	0.076055	1.040070	-0.016378
	H424	H	0.089266	1.024205	-0.013383
	H425	H	0.087074	1.036719	-0.027403
	O426	O	0.271405	0.506604	0.632118
	H427	H	0.262076	0.536901	0.609743
	H428	H	0.249157	0.506209	0.667347
	O429	O	0.700668	0.577554	0.684719
	H430	H	0.710883	0.575024	0.692425
	H431	H	0.685176	0.568361	0.698824
	O432	O	0.583350	0.385129	0.318333
	H433	H	0.596427	0.385107	0.319658
	H434	H	0.582761	0.366080	0.302379
	O435	O	0.360922	-0.612269	0.381480
	H436	H	0.360190	-0.601141	0.389752
	H437	H	0.364421	-0.621992	0.395457
	O438	O	-0.162563	1.018438	1.045308
	H439	H	-0.155108	1.011227	1.036295
	H440	H	-0.178641	1.020332	1.045478
	O441	O	0.416512	0.500117	0.541114
	H442	H	0.398657	0.497949	0.547855
	H443	H	0.405878	0.497547	0.552218
