data_Molecule from HDF5

_cell_length_a		16.231238
_cell_length_b		16.224961
_cell_length_c		16.194995
_cell_angle_alpha	89.950103
_cell_angle_beta	89.805720
_cell_angle_gamma	90.113006
_symmetry_space_group_name_H-M	'P 1'
_symmetry_Int_Tables_number		1

loop_
	_symmetry_equiv_pos_as_xyz
	x,y,z

loop_
	_atom_site_label
	_atom_site_type_symbol
	_atom_site_fract_x
	_atom_site_fract_y
	_atom_site_fract_z
	H0	H	0.414967	0.844716	0.702811
	H1	H	0.613727	0.173334	0.701981
	H2	H	0.613331	0.844404	0.272035
	H3	H	0.416370	0.172847	0.272634
	H4	H	0.727886	0.409656	0.824565
	H5	H	0.727076	0.607550	0.152869
	H6	H	0.301852	0.606220	0.822367
	H7	H	0.297895	0.409615	0.151636
	H8	H	0.850210	0.725533	0.387232
	H9	H	0.177668	0.722975	0.585451
	H10	H	0.849803	0.293287	0.587052
	H11	H	0.177693	0.295531	0.386658
	H12	H	0.849725	0.409321	0.702003
	H13	H	0.177252	0.609444	0.701216
	H14	H	0.848739	0.608057	0.274311
	H15	H	0.177133	0.412134	0.272811
	H16	H	0.413506	0.723016	0.824493
	H17	H	0.610492	0.722210	0.153212
	H18	H	0.612234	0.295270	0.824418
	H19	H	0.413542	0.293574	0.152099
	H20	H	0.729106	0.845042	0.387924
	H21	H	0.727503	0.173403	0.585430
	H22	H	0.297171	0.845609	0.588503
	H23	H	0.300559	0.173600	0.388965
	H24	H	0.911995	0.345541	0.203312
	H25	H	0.111067	0.674052	0.199452
	H26	H	0.111551	0.345337	0.772824
	H27	H	0.913720	0.673156	0.771745
	H28	H	0.230443	0.910166	0.323563
	H29	H	0.226581	0.108140	0.652194
	H30	H	0.799516	0.109210	0.323376
	H31	H	0.797984	0.910037	0.652429
	H32	H	0.349799	0.222004	0.888027
	H33	H	0.676700	0.223353	0.086440
	H34	H	0.348800	0.793465	0.088748
	H35	H	0.676966	0.793084	0.887836
	H36	H	0.350063	0.908124	0.204026
	H37	H	0.678499	0.107166	0.199281
	H38	H	0.350097	0.106834	0.773882
	H39	H	0.678325	0.910574	0.773619
	H40	H	0.915831	0.223563	0.322687
	H41	H	0.112467	0.223590	0.651238
	H42	H	0.113234	0.796450	0.322518
	H43	H	0.913877	0.794266	0.652596
	H44	H	0.227840	0.345920	0.886320
	H45	H	0.227177	0.673011	0.084315
	H46	H	0.798014	0.345205	0.087287
	H47	H	0.798071	0.673479	0.888765
	H48	H	0.428291	0.126043	0.588271
	H49	H	0.614145	0.890354	0.578456
	H50	H	0.609780	0.127580	0.390896
	H51	H	0.413131	0.890179	0.395603
	H52	H	0.608970	0.414311	0.106631
	H53	H	0.607522	0.598096	0.872397
	H54	H	0.415372	0.591745	0.103985
	H55	H	0.425267	0.414032	0.871133
	H56	H	0.126974	0.597576	0.399664
	H57	H	0.896036	0.606686	0.576441
	H58	H	0.132442	0.415308	0.583051
	H59	H	0.896962	0.419648	0.392458
	H60	H	0.130556	0.413508	0.576559
	H61	H	0.898815	0.597339	0.577287
	H62	H	0.132073	0.599030	0.384364
	H63	H	0.895260	0.412360	0.395469
	H64	H	0.428627	0.602554	0.102933
	H65	H	0.602772	0.600298	0.872222
	H66	H	0.604582	0.419065	0.105485
	H67	H	0.417069	0.409796	0.867417
	H68	H	0.603653	0.125499	0.391974
	H69	H	0.602896	0.890549	0.587521
	H70	H	0.421600	0.123334	0.571509
	H71	H	0.427351	0.891469	0.388518
	H72	H	0.925052	0.626626	0.085865
	H73	H	0.091072	0.398793	0.067861
	H74	H	0.108504	0.627505	0.893407
	H75	H	0.915766	0.392994	0.899368
	H76	H	0.105167	0.919566	0.604098
	H77	H	0.112874	0.114305	0.364925
	H78	H	0.928159	0.102326	0.603281
	H79	H	0.920254	0.922706	0.372231
	H80	H	0.629291	0.102853	0.901581
	H81	H	0.393359	0.097968	0.089838
	H82	H	0.633349	0.898406	0.072031
	H83	H	0.398782	0.915129	0.902149
	H84	H	0.621885	0.928985	0.067948
	H85	H	0.393942	0.110397	0.078483
	H86	H	0.631347	0.095889	0.889765
	H87	H	0.397382	0.921945	0.891072
	H88	H	0.916245	0.108277	0.607720
	H89	H	0.116064	0.091533	0.369576
	H90	H	0.103605	0.913616	0.604426
	H91	H	0.927105	0.915790	0.372564
	H92	H	0.105116	0.627857	0.892466
	H93	H	0.122932	0.388704	0.073002
	H94	H	0.921407	0.623617	0.072881
	H95	H	0.917699	0.390171	0.888796
	H96	H	0.411015	0.130460	0.585693
	H97	H	0.601309	0.895558	0.573925
	H98	H	0.608685	0.124816	0.396959
	H99	H	0.425743	0.895676	0.404736
	H100	H	0.602761	0.413379	0.106558
	H101	H	0.606589	0.603450	0.870329
	H102	H	0.414194	0.607116	0.108916
	H103	H	0.417208	0.419663	0.870557
	H104	H	0.132948	0.611421	0.394230
	H105	H	0.894849	0.602403	0.584802
	H106	H	0.129879	0.419653	0.578924
	H107	H	0.898212	0.418004	0.400169
	H108	H	0.911819	0.629559	0.082005
	H109	H	0.100826	0.387993	0.098608
	H110	H	0.106578	0.625740	0.895806
	H111	H	0.926339	0.393672	0.895377
	H112	H	0.109202	0.916087	0.605574
	H113	H	0.094770	0.101469	0.373305
	H114	H	0.916767	0.094664	0.603568
	H115	H	0.917777	0.913828	0.368583
	H116	H	0.634927	0.109283	0.890744
	H117	H	0.399668	0.094791	0.074351
	H118	H	0.634701	0.919508	0.096257
	H119	H	0.393666	0.909402	0.891297
	C120	C	0.391805	0.017928	0.610426
	C121	C	0.634765	1.000714	0.608699
	C122	C	0.636205	0.017234	0.364607
	C123	C	0.393240	1.000731	0.366772
	C124	C	0.634127	0.387344	-0.002509
	C125	C	0.634286	0.629965	0.979903
	C126	C	0.391212	0.629408	-0.003268
	C127	C	0.390695	0.385954	0.978575
	C128	C	0.022384	0.631642	0.364868
	C129	C	1.004745	0.631151	0.608413
	C130	C	0.022290	0.387096	0.608705
	C131	C	1.005145	0.387687	0.365907
	C132	C	0.890969	0.518006	0.109071
	C133	C	0.133944	0.500317	0.108227
	C134	C	0.134609	0.518133	0.865319
	C135	C	0.890890	0.500727	0.865303
	C136	C	0.135850	0.887714	0.496006
	C137	C	0.135577	0.130977	0.478393
	C138	C	0.892366	0.130938	0.496094
	C139	C	0.892344	0.888107	0.479871
	C140	C	0.522624	0.130055	0.866218
	C141	C	0.504469	0.129863	0.109168
	C142	C	0.521867	0.886760	0.109087
	C143	C	0.505032	0.886597	0.865787
	C144	C	0.394371	0.893867	0.665028
	C145	C	0.633163	0.124242	0.663856
	C146	C	0.633748	0.893748	0.309703
	C147	C	0.395631	0.123908	0.310593
	C148	C	0.689566	0.390049	0.873578
	C149	C	0.689088	0.627782	0.103808
	C150	C	0.337918	0.626962	0.872160
	C151	C	0.335033	0.388447	0.102241
	C152	C	0.898944	0.687140	0.367324
	C153	C	0.128428	0.685976	0.606134
	C154	C	0.898940	0.331453	0.607030
	C155	C	0.128528	0.332927	0.366792
	C156	C	0.898980	0.389115	0.664411
	C157	C	0.128422	0.629032	0.663189
	C158	C	0.898359	0.629194	0.310610
	C159	C	0.128173	0.391113	0.310064
	C160	C	0.393795	0.684805	0.873113
	C161	C	0.631285	0.684787	0.103849
	C162	C	0.632056	0.332879	0.873505
	C163	C	0.392824	0.330974	0.102616
	C164	C	0.691336	0.894002	0.367331
	C165	C	0.689748	0.124561	0.606171
	C166	C	0.335747	0.894380	0.608357
	C167	C	0.338191	0.124406	0.368274
	C168	C	0.892550	0.394331	0.164750
	C169	C	0.131330	0.624530	0.162296
	C170	C	0.131640	0.394536	0.810578
	C171	C	0.893147	0.623963	0.809676
	C172	C	0.191876	0.890119	0.372521
	C173	C	0.189452	0.128621	0.602678
	C174	C	0.837303	0.129224	0.372459
	C175	C	0.835807	0.889689	0.603265
	C176	C	0.398932	0.184515	0.868556
	C177	C	0.627907	0.185456	0.106712
	C178	C	0.398122	0.831466	0.108165
	C179	C	0.628167	0.831097	0.867620
	C180	C	0.398756	0.888571	0.165416
	C181	C	0.628656	0.127708	0.162880
	C182	C	0.398916	0.127011	0.811715
	C183	C	0.628960	0.889489	0.810792
	C184	C	0.895344	0.185805	0.371915
	C185	C	0.132709	0.186149	0.602132
	C186	C	0.133585	0.833590	0.372058
	C187	C	0.893808	0.832269	0.603327
	C188	C	0.189439	0.394649	0.867201
	C189	C	0.189481	0.624042	0.105387
	C190	C	0.835825	0.394114	0.107326
	C191	C	0.835513	0.624184	0.867859
	C192	C	0.413820	0.104196	0.588227
	C193	C	0.612718	0.914477	0.586440
	C194	C	0.613981	0.103521	0.386837
	C195	C	0.415550	0.914687	0.389655
	C196	C	0.611935	0.409091	0.083936
	C197	C	0.612182	0.607264	0.894019
	C198	C	0.412964	0.606953	0.083088
	C199	C	0.413220	0.407936	0.892075
	C200	C	0.108436	0.609426	0.386565
	C201	C	0.918775	0.608677	0.586166
	C202	C	0.108807	0.409521	0.586141
	C203	C	0.918872	0.409947	0.389361
	C204	C	0.912897	0.604130	0.086676
	C205	C	0.111551	0.414093	0.086290
	C206	C	0.112885	0.604602	0.887303
	C207	C	0.913321	0.414565	0.887722
	C208	C	0.112839	0.910011	0.582412
	C209	C	0.114259	0.108805	0.391639
	C210	C	0.914071	0.108465	0.582471
	C211	C	0.915154	0.910866	0.393548
	C212	C	0.609244	0.108963	0.887666
	C213	C	0.418042	0.107494	0.087534
	C214	C	0.607807	0.909044	0.085664
	C215	C	0.419026	0.908803	0.888327
	Zn216	Zn	0.514334	0.009258	0.737654
	Zn217	Zn	0.513965	0.008510	0.236797
	Zn218	Zn	0.762811	0.508890	-0.011372
	Zn219	Zn	0.262765	0.508866	-0.013331
	Zn220	Zn	0.014033	0.759173	0.487211
	Zn221	Zn	0.014132	0.258695	0.486972
	Zn222	Zn	0.013898	0.509841	0.736551
	Zn223	Zn	0.012502	0.509068	0.236992
	Zn224	Zn	0.511842	0.757786	-0.011639
	Zn225	Zn	0.513215	0.257939	-0.012062
	Zn226	Zn	0.763271	0.009713	0.487892
	Zn227	Zn	0.263585	0.009799	0.487551
	N228	N	0.428396	0.971623	0.666379
	N229	N	0.599618	0.046199	0.665442
	N230	N	0.600000	0.971478	0.307981
	N231	N	0.429039	0.045935	0.309443
	N232	N	0.690953	0.423200	0.951593
	N233	N	0.691152	0.594508	0.025830
	N234	N	0.336171	0.593034	0.950050
	N235	N	0.333502	0.421858	0.024213
	N236	N	0.976976	0.688945	0.400198
	N237	N	0.050749	0.687322	0.572500
	N238	N	0.976710	0.330280	0.572996
	N239	N	0.050886	0.330853	0.400881
	N240	N	0.976732	0.423175	0.665411
	N241	N	0.050521	0.595506	0.664868
	N242	N	0.975863	0.595102	0.309077
	N243	N	0.050356	0.424392	0.309441
	N244	N	0.426186	0.686678	0.951557
	N245	N	0.598046	0.686483	0.025861
	N246	N	0.598230	0.331068	0.951580
	N247	N	0.426661	0.329249	0.024550
	N248	N	0.692807	0.971932	0.400794
	N249	N	0.690855	0.046724	0.572626
	N250	N	0.333941	0.972418	0.574985
	N251	N	0.336644	0.046833	0.402474
	N252	N	0.926167	0.472291	0.166115
	N253	N	0.097718	0.546631	0.164311
	N254	N	0.098437	0.472510	0.809121
	N255	N	0.926941	0.546244	0.808116
	N256	N	0.193384	0.923173	0.450669
	N257	N	0.191348	0.094867	0.524692
	N258	N	0.835484	0.095544	0.450499
	N259	N	0.834927	0.923777	0.525441
	N260	N	0.476908	0.186525	0.901843
	N261	N	0.549730	0.187035	0.074153
	N262	N	0.475711	0.830233	0.073704
	N263	N	0.550155	0.829003	0.901027
	N264	N	0.476665	0.922168	0.166215
	N265	N	0.550942	0.093623	0.164431
	N266	N	0.476861	0.094040	0.809933
	N267	N	0.551226	0.923196	0.809419
	N268	N	0.928618	0.187151	0.449837
	N269	N	0.099966	0.187758	0.523853
	N270	N	0.099423	0.832115	0.449892
	N271	N	0.928037	0.830945	0.525398
	N272	N	0.191413	0.472575	0.900527
	N273	N	0.191280	0.545872	0.072478
	N274	N	0.834926	0.471757	0.073238
	N275	N	0.833985	0.546401	0.901624
	O276	O	1.030915	0.938048	0.001806
	H277	H	1.032414	0.941453	-0.000316
	H278	H	1.018321	0.935064	0.005555
	O279	O	0.010660	0.008445	1.045055
	H280	H	0.022021	0.011540	1.045808
	H281	H	0.014872	0.010085	1.032625
	O282	O	-0.023844	0.072939	-0.049482
	H283	H	-0.021546	0.074829	-0.047609
	H284	H	-0.018514	0.076146	-0.043193
	O285	O	0.512098	0.471567	0.528643
	H286	H	0.522418	0.476085	0.537259
	H287	H	0.510234	0.470778	0.534560
	O288	O	-0.923414	-0.948608	-0.093727
	H289	H	-0.918664	-0.948902	-0.088645
	H290	H	-0.913559	-0.949629	-0.090217
	O291	O	0.108191	1.112764	-0.038136
	H292	H	0.106103	1.107674	-0.038660
	H293	H	0.105214	1.102890	-0.040170
	O294	O	-0.047029	1.012182	0.062248
	H295	H	-0.041434	1.022939	0.046516
	H296	H	-0.041908	1.012575	0.053934
	O297	O	0.549525	0.570594	0.477844
	H298	H	0.537439	0.568438	0.474739
	H299	H	0.550501	0.573186	0.481614
	O300	O	0.533504	0.519830	0.559313
	H301	H	0.523855	0.517340	0.560039
	H302	H	0.537425	0.525006	0.564375
	O303	O	1.012808	-0.021839	1.004617
	H304	H	1.017132	-0.030836	1.004794
	H305	H	1.003033	-0.027588	1.005679
	O306	O	-0.008037	1.013219	0.973875
	H307	H	-0.012432	1.022810	0.977177
	H308	H	-0.012381	1.021363	0.974296
	O309	O	-0.043210	0.989320	1.040217
	H310	H	-0.045266	0.977459	1.051030
	H311	H	-0.039324	0.987354	1.045120
	O312	O	-0.003335	0.023924	1.088548
	H313	H	-0.009314	0.024046	1.085208
	H314	H	-0.009274	0.023316	1.093312
	O315	O	0.494089	0.554822	0.439509
	H316	H	0.495391	0.552744	0.441961
	H317	H	0.494806	0.551182	0.431481
	O318	O	0.068557	-0.019301	0.936246
	H319	H	0.060896	-0.018532	0.947220
	H320	H	0.067326	-0.020550	0.935761
	O321	O	0.565232	0.566828	0.518097
	H322	H	0.568547	0.571749	0.513973
	H323	H	0.559916	0.565136	0.525880
	O324	O	0.487788	-0.496979	1.499981
	H325	H	0.487752	-0.500225	1.500579
	H326	H	0.493350	-0.492016	1.491188
	O327	O	1.026012	0.954670	1.027560
	H328	H	1.034935	0.957467	1.031697
	H329	H	1.022101	0.961767	1.021598
	O330	O	0.002921	-0.074515	0.965467
	H331	H	0.011511	-0.073411	0.965047
	H332	H	-0.001439	-0.074616	0.958487
	O333	O	0.530295	0.488809	0.531424
	H334	H	0.539321	0.476399	0.529331
	H335	H	0.532025	0.483518	0.531295
	O336	O	0.526672	0.500870	0.509508
	H337	H	0.530477	0.505781	0.502690
	H338	H	0.525378	0.509261	0.515773
	O339	O	0.461038	0.543720	0.491780
	H340	H	0.467798	0.546170	0.492716
	H341	H	0.464221	0.544221	0.495758
	O342	O	0.595454	0.501414	0.500041
	H343	H	0.598288	0.510917	0.491318
	H344	H	0.596087	0.502916	0.505644
	O345	O	0.530998	0.519869	0.476801
	H346	H	0.529725	0.513210	0.475049
	H347	H	0.524752	0.518767	0.471874
