data_Molecule from HDF5

_cell_length_a		16.604326
_cell_length_b		16.513255
_cell_length_c		16.610923
_cell_angle_alpha	89.895572
_cell_angle_beta	89.842545
_cell_angle_gamma	89.920591
_symmetry_space_group_name_H-M	'P 1'
_symmetry_Int_Tables_number		1

loop_
	_symmetry_equiv_pos_as_xyz
	x,y,z

loop_
	_atom_site_label
	_atom_site_type_symbol
	_atom_site_fract_x
	_atom_site_fract_y
	_atom_site_fract_z
	H0	H	0.411747	0.839814	0.739251
	H1	H	0.620684	0.153151	0.741508
	H2	H	0.618783	0.839865	0.299874
	H3	H	0.406490	0.152704	0.295768
	H4	H	0.734992	0.392229	0.864659
	H5	H	0.732757	0.601435	0.176205
	H6	H	0.294814	0.600190	0.862404
	H7	H	0.289194	0.390804	0.176213
	H8	H	0.858981	0.721334	0.413604
	H9	H	0.169402	0.719349	0.626104
	H10	H	0.856740	0.279486	0.620426
	H11	H	0.170427	0.275855	0.412937
	H12	H	0.857220	0.393739	0.739033
	H13	H	0.170016	0.601729	0.740700
	H14	H	0.859495	0.606529	0.296049
	H15	H	0.168664	0.390358	0.294641
	H16	H	0.411895	0.715532	0.862017
	H17	H	0.613021	0.714829	0.177808
	H18	H	0.618413	0.276883	0.864407
	H19	H	0.405446	0.273549	0.176013
	H20	H	0.734977	0.840677	0.414685
	H21	H	0.733843	0.154721	0.622922
	H22	H	0.295176	0.839967	0.624189
	H23	H	0.292375	0.154081	0.413642
	H24	H	0.907489	0.342374	0.243058
	H25	H	0.118749	0.654272	0.241387
	H26	H	0.118173	0.340284	0.800599
	H27	H	0.910687	0.654362	0.801020
	H28	H	0.236605	0.892486	0.364068
	H29	H	0.233177	0.100807	0.676794
	H30	H	0.793765	0.104190	0.363275
	H31	H	0.793102	0.894356	0.675106
	H32	H	0.357747	0.220068	0.913911
	H33	H	0.668822	0.219946	0.125527
	H34	H	0.355954	0.778945	0.123605
	H35	H	0.670889	0.780098	0.920155
	H36	H	0.357994	0.891988	0.243422
	H37	H	0.669210	0.104004	0.242074
	H38	H	0.358907	0.103267	0.797538
	H39	H	0.670383	0.895413	0.801433
	H40	H	0.911680	0.218329	0.361340
	H41	H	0.115269	0.216751	0.677106
	H42	H	0.120577	0.775476	0.364587
	H43	H	0.910449	0.778549	0.676704
	H44	H	0.233560	0.340442	0.916670
	H45	H	0.233148	0.655084	0.123304
	H46	H	0.790863	0.342039	0.127955
	H47	H	0.794477	0.654860	0.917530
	H48	H	0.426932	0.108689	0.607186
	H49	H	0.606974	0.885430	0.603626
	H50	H	0.600611	0.109399	0.430541
	H51	H	0.431689	0.887344	0.431656
	H52	H	0.600788	0.413535	0.130227
	H53	H	0.602419	0.588047	0.907812
	H54	H	0.420669	0.588288	0.132248
	H55	H	0.427542	0.417595	0.913391
	H56	H	0.126480	0.587724	0.428146
	H57	H	0.901091	0.583512	0.618600
	H58	H	0.128647	0.410742	0.618607
	H59	H	0.901435	0.403714	0.430674
	H60	H	0.129016	0.399673	0.609012
	H61	H	0.898775	0.595901	0.609200
	H62	H	0.123417	0.586522	0.435466
	H63	H	0.905799	0.412345	0.437093
	H64	H	0.421144	0.588767	0.133019
	H65	H	0.605928	0.590329	0.906328
	H66	H	0.597709	0.406790	0.131236
	H67	H	0.430143	0.402227	0.908690
	H68	H	0.603534	0.109073	0.431435
	H69	H	0.608498	0.881409	0.614268
	H70	H	0.421165	0.111084	0.608102
	H71	H	0.424110	0.886263	0.436637
	H72	H	0.933390	0.608535	0.109341
	H73	H	0.097026	0.387763	0.108313
	H74	H	0.101366	0.612284	0.923484
	H75	H	0.924529	0.382757	0.925472
	H76	H	0.098558	0.907214	0.630728
	H77	H	0.109159	0.094403	0.404358
	H78	H	0.914363	0.084649	0.632581
	H79	H	0.927665	0.907953	0.407417
	H80	H	0.625718	0.089831	0.931999
	H81	H	0.405952	0.079596	0.105766
	H82	H	0.627154	0.900837	0.110173
	H83	H	0.398091	0.908581	0.921934
	H84	H	0.623228	0.909753	0.105191
	H85	H	0.401079	0.083928	0.111823
	H86	H	0.623673	0.083434	0.933168
	H87	H	0.398647	0.900594	0.930476
	H88	H	0.930778	0.081270	0.626462
	H89	H	0.108815	0.078492	0.409146
	H90	H	0.107128	0.905387	0.633952
	H91	H	0.923496	0.909510	0.407588
	H92	H	0.099153	0.608225	0.933418
	H93	H	0.101327	0.387950	0.103480
	H94	H	0.920637	0.608110	0.099079
	H95	H	0.925282	0.384209	0.932486
	H96	H	0.424940	0.111673	0.612548
	H97	H	0.598038	0.886100	0.611042
	H98	H	0.603188	0.110783	0.428952
	H99	H	0.424308	0.883467	0.428119
	H100	H	0.604580	0.408067	0.132783
	H101	H	0.605981	0.585884	0.907424
	H102	H	0.420687	0.588342	0.133211
	H103	H	0.415585	0.409005	0.906886
	H104	H	0.123084	0.580517	0.430037
	H105	H	0.905669	0.583131	0.603779
	H106	H	0.123353	0.412492	0.605221
	H107	H	0.902325	0.414586	0.426149
	H108	H	0.919246	0.613609	0.114211
	H109	H	0.102626	0.385080	0.109281
	H110	H	0.109129	0.612073	0.930982
	H111	H	0.918703	0.382188	0.929702
	H112	H	0.105123	0.913335	0.630098
	H113	H	0.095418	0.088243	0.410786
	H114	H	0.927146	0.097557	0.633595
	H115	H	0.926836	0.912133	0.408590
	H116	H	0.625946	0.085146	0.927089
	H117	H	0.403202	0.087647	0.104188
	H118	H	0.626909	0.909939	0.115631
	H119	H	0.402713	0.911165	0.932547
	C120	C	0.393431	0.006092	0.641048
	C121	C	0.635655	0.988351	0.640798
	C122	C	0.635166	0.006113	0.398267
	C123	C	0.393889	0.989077	0.399280
	C124	C	0.633955	0.376657	0.028714
	C125	C	0.634350	0.618883	1.011358
	C126	C	0.390656	0.619574	0.028731
	C127	C	0.391390	0.376161	1.012565
	C128	C	0.022105	0.618760	0.398940
	C129	C	1.005065	0.619461	0.642120
	C130	C	0.023178	0.376071	0.641403
	C131	C	1.006170	0.377286	0.398255
	C132	C	0.891910	0.506947	0.141073
	C133	C	0.133742	0.489760	0.140074
	C134	C	0.134724	0.506229	0.898505
	C135	C	0.892436	0.488184	0.899313
	C136	C	0.136167	0.876094	0.528501
	C137	C	0.135779	0.119065	0.511477
	C138	C	0.892660	0.120029	0.527346
	C139	C	0.893613	0.877324	0.511154
	C140	C	0.521960	0.118881	0.898265
	C141	C	0.505573	0.117475	0.140462
	C142	C	0.521916	0.875687	0.141716
	C143	C	0.504331	0.876003	0.898552
	C144	C	0.392697	0.887342	0.699979
	C145	C	0.638121	0.106372	0.700774
	C146	C	0.637087	0.887427	0.339536
	C147	C	0.389966	0.106608	0.337394
	C148	C	0.694809	0.373825	0.911639
	C149	C	0.692270	0.619520	0.129780
	C150	C	0.333601	0.619548	0.909824
	C151	C	0.330028	0.372910	0.129534
	C152	C	0.905529	0.680857	0.395681
	C153	C	0.122681	0.679257	0.644097
	C154	C	0.904114	0.318252	0.640627
	C155	C	0.123325	0.316322	0.394836
	C156	C	0.904469	0.374954	0.699522
	C157	C	0.122640	0.620952	0.701505
	C158	C	0.905791	0.623642	0.337276
	C159	C	0.122577	0.373238	0.335894
	C160	C	0.391789	0.676942	0.909715
	C161	C	0.633158	0.676224	0.130358
	C162	C	0.636267	0.316867	0.911234
	C163	C	0.387772	0.314575	0.129478
	C164	C	0.695171	0.887969	0.396486
	C165	C	0.694493	0.107202	0.641936
	C166	C	0.334813	0.887328	0.642481
	C167	C	0.333140	0.107082	0.395870
	C168	C	0.888878	0.389427	0.202751
	C169	C	0.136834	0.607618	0.200638
	C170	C	0.136637	0.387595	0.839983
	C171	C	0.891632	0.607054	0.840705
	C172	C	0.196527	0.873916	0.411048
	C173	C	0.193657	0.119636	0.629879
	C174	C	0.833964	0.121875	0.409772
	C175	C	0.833229	0.875418	0.628486
	C176	C	0.404872	0.179703	0.895592
	C177	C	0.622297	0.179265	0.143388
	C178	C	0.403338	0.817815	0.142861
	C179	C	0.623457	0.818578	0.899635
	C180	C	0.404434	0.874214	0.202119
	C181	C	0.622371	0.121698	0.201488
	C182	C	0.405112	0.121662	0.837768
	C183	C	0.623217	0.875740	0.840837
	C184	C	0.892511	0.179044	0.409264
	C185	C	0.135285	0.177192	0.629936
	C186	C	0.138811	0.815851	0.411109
	C187	C	0.891770	0.818100	0.629381
	C188	C	0.193778	0.387518	0.897786
	C189	C	0.193779	0.607777	0.142332
	C190	C	0.831360	0.388954	0.145217
	C191	C	0.833850	0.607208	0.898430
	C192	C	0.417593	0.089002	0.616337
	C193	C	0.611370	0.905885	0.616511
	C194	C	0.609647	0.088386	0.423035
	C195	C	0.419515	0.907161	0.424915
	C196	C	0.608332	0.402114	0.110306
	C197	C	0.611319	0.595132	0.928821
	C198	C	0.414044	0.595391	0.111348
	C199	C	0.417047	0.402172	0.931065
	C200	C	0.103413	0.592394	0.424342
	C201	C	0.923093	0.594609	0.617408
	C202	C	0.105432	0.400436	0.617668
	C203	C	0.924469	0.403166	0.424013
	C204	C	0.917236	0.588844	0.115106
	C205	C	0.107754	0.408164	0.114527
	C206	C	0.110340	0.589201	0.922452
	C207	C	0.915992	0.404810	0.922675
	C208	C	0.110831	0.901321	0.610292
	C209	C	0.111521	0.094470	0.429378
	C210	C	0.917109	0.094893	0.609564
	C211	C	0.918963	0.902524	0.429252
	C212	C	0.603931	0.093236	0.923410
	C213	C	0.424433	0.091006	0.114718
	C214	C	0.604358	0.899881	0.117319
	C215	C	0.421477	0.899883	0.921551
	Zn216	Zn	0.514430	-0.002289	0.769217
	Zn217	Zn	0.514069	-0.002846	0.270126
	Zn218	Zn	0.763268	0.497115	0.020378
	Zn219	Zn	0.262527	0.497703	0.019719
	Zn220	Zn	0.014364	0.747828	0.519903
	Zn221	Zn	0.014451	0.248259	0.519366
	Zn222	Zn	0.013734	0.496791	0.770669
	Zn223	Zn	0.013504	0.498436	0.268839
	Zn224	Zn	0.512420	0.747374	0.020354
	Zn225	Zn	0.512907	0.247378	0.020287
	Zn226	Zn	0.763900	-0.001813	0.519220
	Zn227	Zn	0.265190	-0.002374	0.520067
	N228	N	0.428314	0.962399	0.699264
	N229	N	0.602102	0.031660	0.700135
	N230	N	0.600730	0.962088	0.340178
	N231	N	0.427224	0.032157	0.339478
	N232	N	0.693495	0.410307	0.985786
	N233	N	0.693437	0.584695	0.054725
	N234	N	0.332618	0.584702	0.984973
	N235	N	0.332177	0.410430	0.055811
	N236	N	0.978974	0.677892	0.433452
	N237	N	0.048432	0.678543	0.607891
	N238	N	0.978975	0.318578	0.605305
	N239	N	0.049921	0.318734	0.433082
	N240	N	0.979448	0.409939	0.700419
	N241	N	0.048407	0.584292	0.700332
	N242	N	0.979226	0.585689	0.339108
	N243	N	0.048610	0.410240	0.337758
	N244	N	0.426479	0.677211	0.984713
	N245	N	0.597813	0.675962	0.055722
	N246	N	0.599149	0.318270	0.985134
	N247	N	0.425314	0.316493	0.055789
	N248	N	0.694265	0.962881	0.432199
	N249	N	0.693253	0.032845	0.605203
	N250	N	0.334892	0.962382	0.606801
	N251	N	0.335271	0.033190	0.433594
	N252	N	0.925806	0.463716	0.200368
	N253	N	0.100303	0.533179	0.199385
	N254	N	0.100624	0.462586	0.840320
	N255	N	0.926854	0.531832	0.840644
	N256	N	0.194867	0.910777	0.485055
	N257	N	0.194230	0.084247	0.555054
	N258	N	0.833786	0.086026	0.484363
	N259	N	0.834015	0.911303	0.553846
	N260	N	0.478720	0.178006	0.932514
	N261	N	0.548579	0.177109	0.106296
	N262	N	0.477445	0.818598	0.106053
	N263	N	0.548427	0.818390	0.934472
	N264	N	0.479293	0.909427	0.201567
	N265	N	0.548756	0.083975	0.199753
	N266	N	0.479230	0.084754	0.839225
	N267	N	0.548068	0.910564	0.839763
	N268	N	0.928364	0.178020	0.483650
	N269	N	0.100204	0.177124	0.555306
	N270	N	0.102246	0.816908	0.485267
	N271	N	0.928368	0.819054	0.555284
	N272	N	0.192815	0.462406	0.933364
	N273	N	0.192044	0.533473	0.105377
	N274	N	0.832998	0.463110	0.107598
	N275	N	0.834029	0.532105	0.933991
	O276	O	-0.177054	0.811539	-0.168905
	H277	H	-0.172667	0.834651	-0.142866
	H278	H	-0.144385	0.825544	-0.161897
	O279	O	0.195608	0.811007	0.203967
	H280	H	0.168323	0.826135	0.202959
	H281	H	0.185689	0.831102	0.180079
	O282	O	1.453332	0.527354	0.394481
	H283	H	1.451035	0.521964	0.392741
	H284	H	1.448213	0.539343	0.378453
	O285	O	0.546774	0.469084	0.483451
	H286	H	0.536156	0.463489	0.480453
	H287	H	0.561002	0.461006	0.487562
	O288	O	-0.193754	1.019064	-0.111492
	H289	H	-0.195478	1.009955	-0.110108
	H290	H	-0.187376	1.018412	-0.108914
	O291	O	0.301831	0.290914	0.726185
	H292	H	0.291916	0.269064	0.751211
	H293	H	0.306063	0.334020	0.733990
	O294	O	1.460702	-0.539241	0.511220
	H295	H	1.467307	-0.539432	0.513384
	H296	H	1.439661	-0.551612	0.505592
	O297	O	0.724309	0.363057	0.309657
	H298	H	0.709789	0.376922	0.319167
	H299	H	0.728922	0.361325	0.322010
	O300	O	-0.244030	0.257610	0.758671
	H301	H	-0.259179	0.252306	0.746454
	H302	H	-0.264659	0.273872	0.732255
	O303	O	0.750160	-0.265701	0.273889
	H304	H	0.740347	-0.293508	0.255986
	H305	H	0.726813	-0.273269	0.286275
	O306	O	0.554694	0.705797	0.740526
	H307	H	0.531954	0.706725	0.730938
	H308	H	0.533696	0.714449	0.751251
	O309	O	0.297461	0.465114	0.736262
	H310	H	0.285348	0.479381	0.711288
	H311	H	0.292127	0.470245	0.751651
	O312	O	0.442447	0.380377	0.540003
	H313	H	0.458589	0.378763	0.546675
	H314	H	0.430230	0.374268	0.544306
	O315	O	1.294292	0.713962	1.492804
	H316	H	1.286356	0.722133	1.465476
	H317	H	1.283776	0.728331	1.467126
	O318	O	0.601928	0.289281	0.310430
	H319	H	0.615418	0.266960	0.293841
	H320	H	0.600095	0.300068	0.317755
	O321	O	-0.101256	1.052335	0.902138
	H322	H	-0.103772	1.054092	0.902303
	H323	H	-0.114881	1.048200	0.914382
	O324	O	1.146926	1.135289	-0.011496
	H325	H	1.145363	1.156300	-0.015440
	H326	H	1.141824	1.139918	-0.005211
	O327	O	0.042776	0.211861	1.172049
	H328	H	0.029298	0.208100	1.162734
	H329	H	0.036291	0.224663	1.189393
	O330	O	0.882169	-0.155089	0.155500
	H331	H	0.870071	-0.162106	0.130488
	H332	H	0.858772	-0.170885	0.153682
	O333	O	0.699412	0.436658	0.614560
	H334	H	0.708458	0.455445	0.626681
	H335	H	0.699847	0.439445	0.605656
	O336	O	0.735339	0.710097	0.554313
	H337	H	0.756790	0.728567	0.577098
	H338	H	0.728802	0.723545	0.574033
	O339	O	0.797680	-0.153494	1.013709
	H340	H	0.786985	-0.150630	1.012611
	H341	H	0.806523	-0.156309	1.010931
	O342	O	-0.696074	-0.292911	0.310609
	H343	H	-0.703410	-0.335331	0.300234
	H344	H	-0.716853	-0.277418	0.282524
	O345	O	0.716926	1.583207	0.398442
	H346	H	0.717370	1.562386	0.397793
	H347	H	0.715010	1.593140	0.410736
	O348	O	-0.513474	0.280074	0.735324
	H349	H	-0.517512	0.261354	0.744741
	H350	H	-0.527489	0.284190	0.742475
	O351	O	0.602378	0.323365	0.663167
	H352	H	0.590748	0.345478	0.663190
	H353	H	0.578457	0.326353	0.650297
	O354	O	-0.030366	-0.052258	0.834105
	H355	H	-0.017528	-0.051573	0.838282
	H356	H	-0.027016	-0.052458	0.833972
	O357	O	0.541543	0.293391	0.428058
	H358	H	0.530401	0.291497	0.441160
	H359	H	0.542796	0.277267	0.433312
	O360	O	0.191821	0.183311	0.835908
	H361	H	0.185808	0.183011	0.849907
	H362	H	0.169589	0.166626	0.843607
	O363	O	0.216145	-0.089246	0.071477
	H364	H	0.221375	-0.080608	0.054763
	H365	H	0.215050	-0.095344	0.065479
	O366	O	0.478820	0.517397	0.385141
	H367	H	0.470550	0.507652	0.382829
	H368	H	0.489481	0.511951	0.385667
	O369	O	1.236808	0.212753	0.050398
	H370	H	1.235832	0.224880	0.069254
	H371	H	1.253579	0.227035	0.070167
	O372	O	0.955813	0.984961	-0.170499
	H373	H	0.966714	0.993578	-0.165915
	H374	H	0.963852	0.985944	-0.165281
	O375	O	1.217982	0.193007	0.220692
	H376	H	1.194748	0.188988	0.222717
	H377	H	1.209734	0.156141	0.227675
	O378	O	0.055859	-0.069458	1.005987
	H379	H	0.051000	-0.068795	1.013283
	H380	H	0.046887	-0.062834	1.002744
	O381	O	0.685039	0.606921	0.500208
	H382	H	0.686216	0.627605	0.515066
	H383	H	0.686645	0.616542	0.512481
	O384	O	0.495213	0.709694	0.311826
	H385	H	0.487733	0.724306	0.298666
	H386	H	0.472577	0.707057	0.320525
	O387	O	1.022425	1.055063	0.196223
	H388	H	1.018364	1.058833	0.193144
	H389	H	1.009935	1.051770	0.195359
	O390	O	0.288841	0.554434	0.583470
	H391	H	0.292934	0.557807	0.557973
	H392	H	0.281617	0.559216	0.562253
	O393	O	0.222016	1.027015	0.224909
	H394	H	0.219542	1.014970	0.218652
	H395	H	0.222039	1.012892	0.225146
	O396	O	0.167995	1.033924	0.912555
	H397	H	0.157569	1.044356	0.909834
	H398	H	0.181709	1.036259	0.913974
	O399	O	0.490525	0.509198	1.698614
	H400	H	0.505566	0.495341	1.686324
	H401	H	0.497930	0.516952	1.705104
	O402	O	-0.042449	-0.209126	0.956126
	H403	H	-0.015866	-0.211008	0.944384
	H404	H	-0.021951	-0.204323	0.961821
	O405	O	0.868245	-0.061162	0.996356
	H406	H	0.865000	-0.060245	0.986477
	H407	H	0.890628	-0.059544	0.991325
	O408	O	-0.045092	0.066666	0.211737
	H409	H	-0.061591	0.079327	0.217726
	H410	H	-0.046769	0.063248	0.216409
	O411	O	0.044948	0.781516	-0.194223
	H412	H	0.063254	0.764498	-0.212005
	H413	H	0.070367	0.784829	-0.198564
	O414	O	0.292124	0.276504	-0.448335
	H415	H	0.279111	0.260405	-0.430048
	H416	H	0.283444	0.267336	-0.420812
	O417	O	0.529925	0.635686	0.500905
	H418	H	0.536171	0.636111	0.492957
	H419	H	0.533741	0.633111	0.496759
	O420	O	0.729413	0.279601	0.482546
	H421	H	0.735346	0.270530	0.483810
	H422	H	0.745137	0.283167	0.490998
	O423	O	-0.006007	-0.211118	1.232072
	H424	H	-0.035588	-0.211965	1.240988
	H425	H	-0.022601	-0.222890	1.242266
	O426	O	0.903100	0.116628	0.035984
	H427	H	0.894938	0.120230	0.050601
	H428	H	0.906741	0.139726	0.040321
	O429	O	1.059662	0.797760	1.071020
	H430	H	1.057153	0.809424	1.064083
	H431	H	1.066211	0.797494	1.084371
	O432	O	0.794199	-0.030111	0.241979
	H433	H	0.805578	-0.071252	0.234610
	H434	H	0.762633	-0.042553	0.270326
	O435	O	0.230275	0.782391	-0.017813
	H436	H	0.229899	0.788811	-0.018115
	H437	H	0.245989	0.757004	-0.024441
	O438	O	0.216616	-0.208764	-0.185975
	H439	H	0.248634	-0.239200	-0.212161
	H440	H	0.221018	-0.185833	-0.168754
	O441	O	-0.011485	0.062160	0.140303
	H442	H	-0.032960	0.060303	0.140830
	H443	H	-0.016393	0.059140	0.140339
	O444	O	0.547556	0.581081	0.525525
	H445	H	0.556093	0.586817	0.520481
	H446	H	0.536954	0.576688	0.509132
	O447	O	-0.202764	1.219409	0.996621
	H448	H	-0.217411	1.231300	0.966028
	H449	H	-0.216682	1.223355	0.977090
	O450	O	-0.039994	1.118644	1.169182
	H451	H	-0.056352	1.123508	1.151375
	H452	H	-0.022777	1.111587	1.164754
	O453	O	0.735080	0.543011	0.740756
	H454	H	0.765775	0.546741	0.767583
	H455	H	0.729356	0.588799	0.734734
	O456	O	-0.676782	0.685981	0.707397
	H457	H	-0.660328	0.668521	0.690983
	H458	H	-0.658564	0.667729	0.685849
	O459	O	0.617630	0.469144	0.300070
	H460	H	0.621053	0.461431	0.306511
	H461	H	0.621351	0.454826	0.292727
	O462	O	0.312552	0.447088	0.351238
	H463	H	0.327685	0.421728	0.348339
	H464	H	0.295653	0.433334	0.348300
	O465	O	0.880297	0.212322	-0.068248
	H466	H	0.874192	0.229418	-0.089163
	H467	H	0.860609	0.192496	-0.077060
	O468	O	0.405634	0.292730	0.428927
	H469	H	0.395786	0.307317	0.430725
	H470	H	0.403510	0.278263	0.442826
	O471	O	0.470509	0.647157	0.648870
	H472	H	0.463669	0.643250	0.621300
	H473	H	0.480402	0.630629	0.634584
	O474	O	0.381003	0.480498	0.310774
	H475	H	0.405069	0.469983	0.309805
	H476	H	0.381892	0.480046	0.293444
	O477	O	0.552280	0.501261	1.646388
	H478	H	0.552199	0.518842	1.636607
	H479	H	0.548670	0.519898	1.646654
	O480	O	-0.020020	1.214685	-0.195526
	H481	H	-0.051020	1.208925	-0.193797
	H482	H	-0.023833	1.230044	-0.216281
	O483	O	0.717124	0.707445	0.729584
	H484	H	0.663199	0.712108	0.738275
	H485	H	0.742430	0.742912	0.763702
	O486	O	0.228597	0.960501	-0.196030
	H487	H	0.243149	0.946414	-0.202922
	H488	H	0.245352	0.973843	-0.188558
	O489	O	0.974026	1.037165	0.132943
	H490	H	0.964679	1.042112	0.141800
	H491	H	0.981532	1.038269	0.135177
