data_Molecule from HDF5

_cell_length_a		16.131839
_cell_length_b		16.215299
_cell_length_c		16.333601
_cell_angle_alpha	89.990059
_cell_angle_beta	90.232745
_cell_angle_gamma	90.268725
_symmetry_space_group_name_H-M	'P 1'
_symmetry_Int_Tables_number		1

loop_
	_symmetry_equiv_pos_as_xyz
	x,y,z

loop_
	_atom_site_label
	_atom_site_type_symbol
	_atom_site_fract_x
	_atom_site_fract_y
	_atom_site_fract_z
	H0	H	0.393973	0.839158	0.708702
	H1	H	0.596067	0.167544	0.707573
	H2	H	0.595238	0.840914	0.274624
	H3	H	0.391278	0.166933	0.276310
	H4	H	0.704292	0.406603	0.828440
	H5	H	0.709131	0.602857	0.156323
	H6	H	0.277459	0.601475	0.829689
	H7	H	0.277316	0.403651	0.155867
	H8	H	0.827967	0.715806	0.392462
	H9	H	0.158648	0.716186	0.590653
	H10	H	0.828096	0.288022	0.590203
	H11	H	0.159077	0.290175	0.394530
	H12	H	0.828137	0.402223	0.705856
	H13	H	0.157254	0.604453	0.709156
	H14	H	0.828863	0.602080	0.276970
	H15	H	0.157460	0.403308	0.278094
	H16	H	0.393190	0.717752	0.829576
	H17	H	0.593469	0.719361	0.156464
	H18	H	0.590505	0.288692	0.830410
	H19	H	0.391378	0.287298	0.155767
	H20	H	0.704677	0.837717	0.397100
	H21	H	0.708740	0.166717	0.589820
	H22	H	0.281515	0.837489	0.590132
	H23	H	0.279646	0.167904	0.394986
	H24	H	0.891215	0.339058	0.207988
	H25	H	0.095161	0.666160	0.209738
	H26	H	0.091462	0.338650	0.777780
	H27	H	0.892380	0.666817	0.776124
	H28	H	0.206352	0.905465	0.328649
	H29	H	0.208855	0.100369	0.657043
	H30	H	0.779925	0.099659	0.329943
	H31	H	0.777818	0.902647	0.655965
	H32	H	0.327681	0.215437	0.895519
	H33	H	0.657454	0.218914	0.092601
	H34	H	0.327877	0.789049	0.090769
	H35	H	0.658133	0.789920	0.896427
	H36	H	0.328501	0.902934	0.208126
	H37	H	0.657523	0.105670	0.208576
	H38	H	0.329647	0.102582	0.777879
	H39	H	0.658673	0.903988	0.780616
	H40	H	0.895491	0.215741	0.329703
	H41	H	0.094767	0.218743	0.656513
	H42	H	0.091880	0.788431	0.329337
	H43	H	0.893827	0.786435	0.655950
	H44	H	0.203983	0.337581	0.895755
	H45	H	0.206628	0.667807	0.090092
	H46	H	0.779377	0.338315	0.088694
	H47	H	0.781202	0.668675	0.895483
	H48	H	0.404501	0.125341	0.606782
	H49	H	0.579293	0.887177	0.585835
	H50	H	0.585183	0.120799	0.396540
	H51	H	0.401844	0.886759	0.399621
	H52	H	0.577760	0.409354	0.107962
	H53	H	0.578714	0.606773	0.875904
	H54	H	0.410002	0.593621	0.105878
	H55	H	0.405631	0.406737	0.877684
	H56	H	0.107782	0.589328	0.405021
	H57	H	0.875451	0.592960	0.584993
	H58	H	0.108389	0.409083	0.575024
	H59	H	0.876210	0.411733	0.398460
	H60	H	0.108917	0.422348	0.591180
	H61	H	0.874998	0.594878	0.585172
	H62	H	0.112121	0.593963	0.393907
	H63	H	0.874422	0.406959	0.398322
	H64	H	0.398843	0.606388	0.113308
	H65	H	0.597517	0.600018	0.872827
	H66	H	0.590768	0.405836	0.112648
	H67	H	0.394559	0.404924	0.874132
	H68	H	0.584757	0.118267	0.403174
	H69	H	0.590515	0.885532	0.584314
	H70	H	0.417953	0.112854	0.576247
	H71	H	0.401188	0.887325	0.400661
	H72	H	0.898124	0.621950	0.087988
	H73	H	0.095164	0.383520	0.082503
	H74	H	0.084181	0.621930	0.891049
	H75	H	0.891930	0.383426	0.897003
	H76	H	0.085462	0.904769	0.608863
	H77	H	0.085652	0.098767	0.377226
	H78	H	0.901133	0.097931	0.610784
	H79	H	0.901851	0.913509	0.378169
	H80	H	0.613494	0.100116	0.898892
	H81	H	0.371618	0.100308	0.090398
	H82	H	0.607940	0.913280	0.077326
	H83	H	0.374269	0.906534	0.899086
	H84	H	0.610435	0.919098	0.090978
	H85	H	0.377694	0.096451	0.077513
	H86	H	0.610393	0.098689	0.904688
	H87	H	0.377414	0.912618	0.903580
	H88	H	0.900597	0.094506	0.609850
	H89	H	0.089241	0.096680	0.375693
	H90	H	0.090969	0.909080	0.609840
	H91	H	0.902098	0.904631	0.376297
	H92	H	0.078697	0.616520	0.902919
	H93	H	0.081030	0.383117	0.098142
	H94	H	0.905656	0.619584	0.089145
	H95	H	0.903202	0.384928	0.892514
	H96	H	0.384350	0.122826	0.577717
	H97	H	0.585540	0.883250	0.594634
	H98	H	0.589910	0.121559	0.400563
	H99	H	0.400852	0.886095	0.398996
	H100	H	0.588912	0.418861	0.107557
	H101	H	0.583028	0.587805	0.880844
	H102	H	0.392877	0.589164	0.108438
	H103	H	0.397480	0.415993	0.878445
	H104	H	0.112040	0.601676	0.404009
	H105	H	0.875836	0.593915	0.582834
	H106	H	0.115784	0.402979	0.593634
	H107	H	0.876465	0.409126	0.403176
	H108	H	0.902380	0.619173	0.082346
	H109	H	0.075691	0.390128	0.079505
	H110	H	0.092541	0.621126	0.902634
	H111	H	0.901136	0.388468	0.904477
	H112	H	0.084648	0.911454	0.607824
	H113	H	0.085613	0.095268	0.377685
	H114	H	0.903639	0.095609	0.609227
	H115	H	0.894541	0.908702	0.375353
	H116	H	0.611021	0.094032	0.899931
	H117	H	0.376491	0.086554	0.088696
	H118	H	0.613315	0.904899	0.088570
	H119	H	0.374808	0.913933	0.895811
	C120	C	0.373063	0.011523	0.615286
	C121	C	0.615386	0.994039	0.615776
	C122	C	0.614595	0.011702	0.371736
	C123	C	0.372139	0.995199	0.371059
	C124	C	0.614103	0.382287	0.001493
	C125	C	0.615386	0.626628	0.984462
	C126	C	0.371249	0.624850	0.001182
	C127	C	0.370459	0.380643	0.984415
	C128	C	0.001723	0.623484	0.371467
	C129	C	0.984380	0.623505	0.613799
	C130	C	0.001680	0.381826	0.614063
	C131	C	0.984580	0.380733	0.371300
	C132	C	0.872438	0.511554	0.114301
	C133	C	0.114095	0.494383	0.115179
	C134	C	0.113503	0.510857	0.870919
	C135	C	0.870716	0.494383	0.869930
	C136	C	0.115532	0.880601	0.500987
	C137	C	0.116190	0.125291	0.484947
	C138	C	0.872830	0.123913	0.501984
	C139	C	0.870984	0.879897	0.484329
	C140	C	0.502484	0.125372	0.872035
	C141	C	0.484208	0.124825	0.114820
	C142	C	0.501740	0.882382	0.114533
	C143	C	0.484597	0.882382	0.871975
	C144	C	0.374164	0.888065	0.670657
	C145	C	0.615235	0.118098	0.670026
	C146	C	0.613670	0.888726	0.314857
	C147	C	0.372657	0.118122	0.314983
	C148	C	0.667415	0.385722	0.877898
	C149	C	0.671323	0.623669	0.107514
	C150	C	0.315650	0.621931	0.878267
	C151	C	0.314963	0.383135	0.107027
	C152	C	0.877498	0.678528	0.372678
	C153	C	0.108948	0.678934	0.611642
	C154	C	0.877374	0.325963	0.610720
	C155	C	0.109463	0.326826	0.374008
	C156	C	0.877349	0.382787	0.668221
	C157	C	0.108176	0.623351	0.670395
	C158	C	0.877796	0.621862	0.315282
	C159	C	0.108585	0.383170	0.316032
	C160	C	0.373055	0.679945	0.878355
	C161	C	0.613871	0.681518	0.107665
	C162	C	0.610983	0.326990	0.878764
	C163	C	0.371688	0.325277	0.107043
	C164	C	0.668336	0.887329	0.375320
	C165	C	0.670993	0.117998	0.611188
	C166	C	0.318409	0.887240	0.611361
	C167	C	0.316887	0.118558	0.373891
	C168	C	0.872351	0.388039	0.169600
	C169	C	0.113804	0.617523	0.170860
	C170	C	0.111207	0.387368	0.816122
	C171	C	0.872472	0.618007	0.814312
	C172	C	0.169199	0.884546	0.377687
	C173	C	0.171675	0.121928	0.608078
	C174	C	0.817533	0.120730	0.378745
	C175	C	0.815940	0.882199	0.607269
	C176	C	0.377288	0.178343	0.874902
	C177	C	0.608132	0.181314	0.113003
	C178	C	0.377214	0.827022	0.111311
	C179	C	0.609108	0.827603	0.875605
	C180	C	0.377748	0.882864	0.170118
	C181	C	0.608153	0.124820	0.170730
	C182	C	0.378363	0.122644	0.816264
	C183	C	0.609323	0.884503	0.818320
	C184	C	0.875058	0.178329	0.378649
	C185	C	0.115102	0.180693	0.607674
	C186	C	0.112439	0.825970	0.378014
	C187	C	0.873447	0.824256	0.607053
	C188	C	0.167457	0.386921	0.874668
	C189	C	0.169697	0.618115	0.111773
	C190	C	0.816735	0.387605	0.110332
	C191	C	0.817476	0.618988	0.873835
	C192	C	0.395624	0.097960	0.593375
	C193	C	0.592000	0.907769	0.594453
	C194	C	0.593029	0.097758	0.393578
	C195	C	0.394767	0.908975	0.393161
	C196	C	0.592234	0.404551	0.087259
	C197	C	0.592766	0.604957	0.898884
	C198	C	0.393822	0.602841	0.086870
	C199	C	0.392644	0.402748	0.898762
	C200	C	0.088218	0.601362	0.394218
	C201	C	0.897898	0.600606	0.591115
	C202	C	0.088531	0.404708	0.592775
	C203	C	0.898091	0.402730	0.393351
	C204	C	0.895381	0.597856	0.092804
	C205	C	0.090772	0.407785	0.093250
	C206	C	0.091546	0.597504	0.892495
	C207	C	0.892520	0.408064	0.891555
	C208	C	0.093687	0.902190	0.586783
	C209	C	0.093454	0.103417	0.399145
	C210	C	0.895206	0.102354	0.587819
	C211	C	0.893107	0.902309	0.398731
	C212	C	0.589163	0.104011	0.894530
	C213	C	0.397436	0.101170	0.092221
	C214	C	0.588237	0.905646	0.092306
	C215	C	0.397951	0.904391	0.893285
	Zn216	Zn	0.494283	0.003861	0.744147
	Zn217	Zn	0.493372	0.003503	0.242228
	Zn218	Zn	0.743628	0.503920	-0.007358
	Zn219	Zn	0.242340	0.502871	-0.006873
	Zn220	Zn	-0.006918	0.751370	0.492269
	Zn221	Zn	-0.006159	0.253759	0.493111
	Zn222	Zn	-0.007595	0.502706	0.742162
	Zn223	Zn	-0.007110	0.502491	0.243715
	Zn224	Zn	0.492655	0.754572	-0.006933
	Zn225	Zn	0.492232	0.252944	-0.006489
	Zn226	Zn	0.743318	0.002164	0.493666
	Zn227	Zn	0.244493	0.002625	0.493046
	N228	N	0.407289	0.966324	0.673221
	N229	N	0.581396	0.039989	0.672962
	N230	N	0.580895	0.966983	0.312552
	N231	N	0.406437	0.040317	0.313227
	N232	N	0.669472	0.419587	0.955206
	N233	N	0.672638	0.590473	0.029958
	N234	N	0.314670	0.588267	0.955552
	N235	N	0.314111	0.417176	0.029835
	N236	N	0.955576	0.679632	0.406931
	N237	N	0.031022	0.679392	0.577189
	N238	N	0.955806	0.325428	0.577605
	N239	N	0.031518	0.325360	0.407874
	N240	N	0.955658	0.416715	0.670540
	N241	N	0.029757	0.589503	0.671762
	N242	N	0.956085	0.588511	0.314395
	N243	N	0.030128	0.416191	0.314332
	N244	N	0.406885	0.681820	0.955817
	N245	N	0.579899	0.683594	0.030219
	N246	N	0.578452	0.324756	0.956660
	N247	N	0.405672	0.323695	0.029870
	N248	N	0.668655	0.964520	0.410331
	N249	N	0.671394	0.039929	0.578204
	N250	N	0.317566	0.965117	0.577471
	N251	N	0.316569	0.041093	0.408321
	N252	N	0.906207	0.466074	0.172208
	N253	N	0.080364	0.539329	0.173172
	N254	N	0.078646	0.465604	0.813644
	N255	N	0.904862	0.539548	0.811636
	N256	N	0.171333	0.917639	0.455225
	N257	N	0.172479	0.088125	0.530740
	N258	N	0.816001	0.087412	0.456243
	N259	N	0.814579	0.916350	0.530109
	N260	N	0.455314	0.179972	0.909182
	N261	N	0.529887	0.181447	0.078874
	N262	N	0.455387	0.826321	0.077776
	N263	N	0.530652	0.826177	0.908254
	N264	N	0.456110	0.916814	0.171913
	N265	N	0.529972	0.090356	0.171678
	N266	N	0.457097	0.090319	0.814453
	N267	N	0.530981	0.917992	0.815970
	N268	N	0.908758	0.180459	0.456173
	N269	N	0.081450	0.183018	0.530195
	N270	N	0.079743	0.823278	0.455778
	N271	N	0.907075	0.822880	0.529672
	N272	N	0.169252	0.465002	0.907958
	N273	N	0.169838	0.540497	0.077686
	N274	N	0.816482	0.465463	0.076826
	N275	N	0.816000	0.541249	0.907698
	O276	O	0.491378	0.560060	0.526235
	H277	H	0.487220	0.571781	0.526625
	H278	H	0.495263	0.559866	0.537340
	O279	O	0.508938	0.406708	0.471558
	H280	H	0.512710	0.413497	0.474534
	H281	H	0.518394	0.404275	0.465726
	O282	O	0.600407	0.545427	0.492307
	H283	H	0.586886	0.549033	0.481084
	H284	H	0.613367	0.560391	0.482294
	O285	O	0.498788	0.560462	1.518132
	H286	H	0.507644	0.554760	1.522905
	H287	H	0.492263	0.567732	1.520471
	O288	O	0.540211	0.541635	0.511341
	H289	H	0.532674	0.540836	0.511496
	H290	H	0.538414	0.549816	0.509892
	O291	O	0.002220	-0.062118	0.970313
	H292	H	0.012973	-0.069735	0.979105
	H293	H	-0.003419	-0.056981	0.967047
	O294	O	0.992170	0.949358	0.961685
	H295	H	0.998204	0.956993	0.960563
	H296	H	0.992893	0.951723	0.955660
	O297	O	0.372817	0.470359	0.579220
	H298	H	0.385144	0.460174	0.568120
	H299	H	0.357293	0.457011	0.577741
	O300	O	0.528558	0.499719	0.485358
	H301	H	0.524042	0.490930	0.490375
	H302	H	0.529753	0.499404	0.491019
	O303	O	0.506367	0.584503	0.505584
	H304	H	0.501420	0.582108	0.501896
	H305	H	0.501915	0.588234	0.506839
	O306	O	1.499951	0.524193	0.510316
	H307	H	1.503917	0.529558	0.510954
	H308	H	1.501393	0.527607	0.519462
	O309	O	0.485882	0.420822	0.530991
	H310	H	0.497804	0.423106	0.540061
	H311	H	0.489216	0.430086	0.533664
	O312	O	0.450116	0.385167	0.535163
	H313	H	0.448560	0.389325	0.535887
	H314	H	0.442827	0.387708	0.524783
	O315	O	0.981256	-0.068984	0.960092
	H316	H	0.979775	-0.075032	0.961905
	H317	H	0.979262	-0.069868	0.964487
	O318	O	-0.614273	-0.519630	0.477757
	H319	H	-0.609630	-0.526568	0.478495
	H320	H	-0.619421	-0.527231	0.474012
	O321	O	0.385908	0.529408	0.412343
	H322	H	0.378292	0.524528	0.400668
	H323	H	0.382198	0.525912	0.413761
	O324	O	0.964481	0.003568	-0.002105
	H325	H	0.961797	-0.000400	-0.014008
	H326	H	0.955177	0.000618	0.001199
	O327	O	0.954208	1.019665	-0.022858
	H328	H	0.941374	1.021940	-0.023503
	H329	H	0.964699	1.016720	-0.025364
	O330	O	0.406178	0.575110	0.426597
	H331	H	0.408643	0.571469	0.423084
	H332	H	0.392690	0.581597	0.435003
	O333	O	0.534681	0.487088	0.467581
	H334	H	0.534591	0.487249	0.471041
	H335	H	0.546212	0.478967	0.458587
