data_Molecule from HDF5

_cell_length_a		16.322357
_cell_length_b		16.349942
_cell_length_c		15.946105
_cell_angle_alpha	89.232073
_cell_angle_beta	89.278966
_cell_angle_gamma	90.286713
_symmetry_space_group_name_H-M	'P 1'
_symmetry_Int_Tables_number		1

loop_
	_symmetry_equiv_pos_as_xyz
	x,y,z

loop_
	_atom_site_label
	_atom_site_type_symbol
	_atom_site_fract_x
	_atom_site_fract_y
	_atom_site_fract_z
	H0	H	0.396204	0.841799	0.715846
	H1	H	0.591356	0.169586	0.706071
	H2	H	0.592133	0.838555	0.288431
	H3	H	0.404248	0.168425	0.284724
	H4	H	0.711918	0.407782	0.834178
	H5	H	0.706923	0.603897	0.165585
	H6	H	0.284224	0.607758	0.833722
	H7	H	0.279416	0.401447	0.165364
	H8	H	0.832659	0.723174	0.397174
	H9	H	0.156583	0.722528	0.599274
	H10	H	0.833661	0.283099	0.607509
	H11	H	0.157006	0.288023	0.395048
	H12	H	0.832128	0.404441	0.717623
	H13	H	0.161398	0.598450	0.705337
	H14	H	0.830248	0.600963	0.287959
	H15	H	0.159771	0.412096	0.286132
	H16	H	0.396790	0.720579	0.834980
	H17	H	0.593688	0.717223	0.165476
	H18	H	0.597970	0.294211	0.832823
	H19	H	0.391590	0.286030	0.164539
	H20	H	0.715337	0.842493	0.394712
	H21	H	0.712527	0.167051	0.594144
	H22	H	0.274887	0.843727	0.606294
	H23	H	0.279918	0.166717	0.394201
	H24	H	0.896129	0.341514	0.217091
	H25	H	0.089429	0.669583	0.205769
	H26	H	0.092105	0.339622	0.787672
	H27	H	0.903883	0.668855	0.785877
	H28	H	0.210315	0.908458	0.333460
	H29	H	0.207114	0.102403	0.665131
	H30	H	0.787270	0.104340	0.330848
	H31	H	0.778300	0.901518	0.664153
	H32	H	0.333576	0.223295	0.896515
	H33	H	0.656451	0.223147	0.099576
	H34	H	0.332468	0.784965	0.104955
	H35	H	0.656415	0.787804	0.894205
	H36	H	0.331645	0.905374	0.216007
	H37	H	0.661385	0.096924	0.204423
	H38	H	0.330475	0.102298	0.786601
	H39	H	0.659365	0.911976	0.785026
	H40	H	0.896939	0.222091	0.334283
	H41	H	0.093549	0.215706	0.665457
	H42	H	0.096070	0.794531	0.332802
	H43	H	0.893898	0.789604	0.665475
	H44	H	0.214468	0.341906	0.898312
	H45	H	0.212665	0.666459	0.097910
	H46	H	0.773805	0.343647	0.107070
	H47	H	0.780565	0.666999	0.895459
	H48	H	0.402212	0.122593	0.593873
	H49	H	0.590994	0.889327	0.584044
	H50	H	0.590259	0.120106	0.395746
	H51	H	0.393109	0.888197	0.418344
	H52	H	0.592366	0.408699	0.122627
	H53	H	0.585801	0.600647	0.879810
	H54	H	0.399800	0.593720	0.119826
	H55	H	0.405260	0.411871	0.879411
	H56	H	0.112940	0.609440	0.406101
	H57	H	0.882416	0.586384	0.589232
	H58	H	0.110760	0.405150	0.582486
	H59	H	0.878135	0.408312	0.412173
	H60	H	0.110938	0.415617	0.592244
	H61	H	0.874409	0.598910	0.603253
	H62	H	0.108674	0.596540	0.408936
	H63	H	0.880435	0.411162	0.413370
	H64	H	0.403643	0.591222	0.119081
	H65	H	0.593021	0.598158	0.879210
	H66	H	0.581437	0.420780	0.114242
	H67	H	0.403104	0.414958	0.879964
	H68	H	0.590772	0.118106	0.407671
	H69	H	0.592485	0.886420	0.596211
	H70	H	0.403617	0.119102	0.585535
	H71	H	0.398676	0.885299	0.401040
	H72	H	0.905465	0.617981	0.086336
	H73	H	0.086643	0.386669	0.098616
	H74	H	0.094524	0.621104	0.904011
	H75	H	0.896268	0.388267	0.915088
	H76	H	0.077391	0.903924	0.619075
	H77	H	0.098802	0.093883	0.377602
	H78	H	0.897769	0.090878	0.618961
	H79	H	0.915817	0.915383	0.382570
	H80	H	0.609151	0.094134	0.905804
	H81	H	0.378135	0.097830	0.092851
	H82	H	0.609067	0.905846	0.077413
	H83	H	0.379694	0.920321	0.906718
	H84	H	0.609584	0.920514	0.094168
	H85	H	0.379449	0.097299	0.088630
	H86	H	0.614606	0.101844	0.895511
	H87	H	0.374439	0.903596	0.903454
	H88	H	0.904342	0.089979	0.616198
	H89	H	0.079543	0.090399	0.384995
	H90	H	0.093623	0.907819	0.622194
	H91	H	0.901827	0.903040	0.374809
	H92	H	0.091747	0.620736	0.902420
	H93	H	0.083183	0.391286	0.087827
	H94	H	0.890989	0.623074	0.087535
	H95	H	0.902605	0.387139	0.905538
	H96	H	0.395190	0.121871	0.587797
	H97	H	0.580765	0.890188	0.592442
	H98	H	0.599520	0.122034	0.401156
	H99	H	0.410602	0.891709	0.413081
	H100	H	0.576181	0.404549	0.118163
	H101	H	0.587132	0.594196	0.881835
	H102	H	0.403042	0.596002	0.119918
	H103	H	0.406637	0.414697	0.880248
	H104	H	0.113172	0.599651	0.396783
	H105	H	0.878809	0.605556	0.583670
	H106	H	0.115397	0.402918	0.596903
	H107	H	0.877982	0.411092	0.409694
	H108	H	0.900680	0.623969	0.100285
	H109	H	0.093724	0.387340	0.089417
	H110	H	0.091104	0.619893	0.905721
	H111	H	0.906668	0.391641	0.915473
	H112	H	0.083489	0.920178	0.616078
	H113	H	0.084948	0.108359	0.377586
	H114	H	0.902550	0.096491	0.618857
	H115	H	0.898264	0.922242	0.380302
	H116	H	0.611923	0.107815	0.908785
	H117	H	0.379169	0.094159	0.092276
	H118	H	0.616926	0.899572	0.098260
	H119	H	0.380928	0.907404	0.919698
	C120	C	0.371257	0.013945	0.621039
	C121	C	0.616747	0.996647	0.618150
	C122	C	0.620612	0.012127	0.374226
	C123	C	0.373995	0.995903	0.378604
	C124	C	0.615254	0.383859	0.008701
	C125	C	0.616446	0.625930	0.990321
	C126	C	0.374813	0.624373	0.009595
	C127	C	0.374381	0.382744	0.989981
	C128	C	0.003750	0.628946	0.375956
	C129	C	0.986656	0.625272	0.619797
	C130	C	0.004354	0.379444	0.622449
	C131	C	0.986612	0.382911	0.379498
	C132	C	0.870397	0.513799	0.122971
	C133	C	0.116120	0.496299	0.119435
	C134	C	0.120209	0.512581	0.875991
	C135	C	0.874669	0.496341	0.879814
	C136	C	0.115202	0.883861	0.508611
	C137	C	0.115927	0.125194	0.490015
	C138	C	0.874955	0.123522	0.507955
	C139	C	0.874229	0.882908	0.489246
	C140	C	0.503885	0.128840	0.875064
	C141	C	0.487009	0.124854	0.118956
	C142	C	0.504020	0.879855	0.121582
	C143	C	0.485993	0.883079	0.878253
	C144	C	0.374706	0.891123	0.678402
	C145	C	0.613461	0.120052	0.670449
	C146	C	0.614890	0.888559	0.322894
	C147	C	0.380583	0.119248	0.321911
	C148	C	0.673360	0.387055	0.883604
	C149	C	0.669959	0.623616	0.115759
	C150	C	0.321342	0.625535	0.883518
	C151	C	0.317249	0.382189	0.115320
	C152	C	0.881187	0.684412	0.377802
	C153	C	0.108746	0.682375	0.617958
	C154	C	0.882122	0.322335	0.625167
	C155	C	0.109045	0.327630	0.377705
	C156	C	0.881290	0.383008	0.679923
	C157	C	0.111162	0.620800	0.670943
	C158	C	0.879927	0.623570	0.323545
	C159	C	0.110216	0.389009	0.323176
	C160	C	0.377118	0.682040	0.884252
	C161	C	0.613679	0.680208	0.115530
	C162	C	0.616243	0.330625	0.882941
	C163	C	0.373098	0.324672	0.114884
	C164	C	0.676136	0.890457	0.376218
	C165	C	0.673549	0.118660	0.614537
	C166	C	0.313960	0.892022	0.624023
	C167	C	0.318836	0.118264	0.376324
	C168	C	0.874005	0.390713	0.179746
	C169	C	0.111700	0.619980	0.170900
	C170	C	0.114810	0.389147	0.823404
	C171	C	0.880471	0.619478	0.822694
	C172	C	0.171935	0.887628	0.383043
	C173	C	0.170266	0.122836	0.615324
	C174	C	0.822724	0.124146	0.381438
	C175	C	0.816407	0.882458	0.614416
	C176	C	0.381701	0.184495	0.877083
	C177	C	0.608962	0.182313	0.117441
	C178	C	0.381172	0.823634	0.123385
	C179	C	0.608277	0.827322	0.876460
	C180	C	0.380872	0.883207	0.178799
	C181	C	0.611350	0.119684	0.169894
	C182	C	0.380136	0.124461	0.822223
	C183	C	0.609775	0.889173	0.822153
	C184	C	0.877255	0.182530	0.383186
	C185	C	0.113481	0.179045	0.615515
	C186	C	0.115131	0.831068	0.382856
	C187	C	0.874228	0.826910	0.615257
	C188	C	0.175564	0.390270	0.878375
	C189	C	0.173093	0.618324	0.117236
	C190	C	0.813477	0.391827	0.124877
	C191	C	0.819468	0.618667	0.877669
	C192	C	0.393589	0.099250	0.596143
	C193	C	0.594680	0.910754	0.597077
	C194	C	0.599777	0.098051	0.395147
	C195	C	0.394764	0.910608	0.403373
	C196	C	0.590737	0.405105	0.095799
	C197	C	0.595043	0.604135	0.902868
	C198	C	0.396053	0.600542	0.096841
	C199	C	0.398223	0.406848	0.902557
	C200	C	0.089443	0.608055	0.397464
	C201	C	0.900775	0.603127	0.598342
	C202	C	0.090009	0.401225	0.597805
	C203	C	0.901246	0.403848	0.404338
	C204	C	0.892417	0.599537	0.098670
	C205	C	0.094163	0.410395	0.098216
	C206	C	0.098851	0.598388	0.897637
	C207	C	0.895570	0.411023	0.904755
	C208	C	0.091767	0.904567	0.596348
	C209	C	0.094166	0.103820	0.402690
	C210	C	0.895462	0.099458	0.595397
	C211	C	0.898323	0.906523	0.401780
	C212	C	0.589594	0.107450	0.896804
	C213	C	0.401057	0.102899	0.097370
	C214	C	0.589742	0.901988	0.096947
	C215	C	0.400645	0.904129	0.902830
	Zn216	Zn	0.494478	0.005692	0.748197
	Zn217	Zn	0.496181	0.003211	0.248490
	Zn218	Zn	0.742389	0.505066	0.000310
	Zn219	Zn	0.248247	0.504412	-0.000896
	Zn220	Zn	-0.005198	0.756079	0.499243
	Zn221	Zn	-0.004870	0.251283	0.500280
	Zn222	Zn	-0.003637	0.503666	0.748693
	Zn223	Zn	-0.005478	0.505258	0.249394
	Zn224	Zn	0.494767	0.751871	-0.000103
	Zn225	Zn	0.494920	0.256096	-0.001678
	Zn226	Zn	0.747998	0.004075	0.496711
	Zn227	Zn	0.242473	0.004772	0.499710
	N228	N	0.409623	0.967872	0.676679
	N229	N	0.578630	0.043233	0.672642
	N230	N	0.580998	0.965455	0.321335
	N231	N	0.414430	0.042425	0.323567
	N232	N	0.672870	0.419387	0.962870
	N233	N	0.671865	0.590716	0.036786
	N234	N	0.319744	0.590186	0.962376
	N235	N	0.318165	0.418047	0.036655
	N236	N	0.959241	0.688008	0.409738
	N237	N	0.030458	0.685313	0.586947
	N238	N	0.959722	0.319825	0.590301
	N239	N	0.031255	0.323712	0.412172
	N240	N	0.958275	0.417784	0.678435
	N241	N	0.034195	0.585691	0.672102
	N242	N	0.957082	0.589999	0.321977
	N243	N	0.033160	0.422630	0.324127
	N244	N	0.409795	0.681475	0.963355
	N245	N	0.580839	0.681675	0.036429
	N246	N	0.580807	0.328411	0.961610
	N247	N	0.407948	0.325026	0.035840
	N248	N	0.679735	0.968255	0.407485
	N249	N	0.675668	0.040727	0.582794
	N250	N	0.311647	0.969491	0.589020
	N251	N	0.314611	0.040721	0.411021
	N252	N	0.908697	0.467635	0.178730
	N253	N	0.077008	0.542953	0.172561
	N254	N	0.081200	0.466197	0.821710
	N255	N	0.914163	0.542474	0.823821
	N256	N	0.172000	0.919838	0.462255
	N257	N	0.172024	0.090120	0.536227
	N258	N	0.821184	0.087977	0.459972
	N259	N	0.816343	0.916656	0.535085
	N260	N	0.459631	0.187559	0.909144
	N261	N	0.530587	0.185558	0.086378
	N262	N	0.458845	0.821311	0.088598
	N263	N	0.530491	0.823433	0.910832
	N264	N	0.458119	0.917348	0.177771
	N265	N	0.534524	0.084569	0.171013
	N266	N	0.457238	0.090768	0.820596
	N267	N	0.532882	0.923083	0.823084
	N268	N	0.909088	0.182150	0.462634
	N269	N	0.080487	0.180703	0.536559
	N270	N	0.080542	0.828454	0.461934
	N271	N	0.909182	0.826941	0.536272
	N272	N	0.179222	0.468206	0.910064
	N273	N	0.176141	0.540210	0.086070
	N274	N	0.810951	0.469445	0.090563
	N275	N	0.815739	0.541248	0.912563
	O276	O	0.003625	0.004908	0.063385
	H277	H	-0.004610	0.007506	0.057208
	H278	H	-0.005469	0.005059	0.056088
	O279	O	0.438504	0.424220	0.579983
	H280	H	0.434565	0.416073	0.592989
	H281	H	0.438586	0.431228	0.580637
	O282	O	0.433913	0.528687	0.525541
	H283	H	0.437013	0.529359	0.527450
	H284	H	0.441284	0.533697	0.526599
	O285	O	0.058296	0.931026	1.059031
	H286	H	0.055467	0.929117	1.067678
	H287	H	0.057154	0.934132	1.060760
	O288	O	0.558771	0.499285	0.384085
	H289	H	0.556363	0.491478	0.387732
	H290	H	0.567043	0.490270	0.382539
	O291	O	0.913607	1.019625	0.976081
	H292	H	0.922068	1.019358	0.981157
	H293	H	0.911222	1.022125	0.976465
	O294	O	1.345578	0.435124	0.570980
	H295	H	1.337079	0.434284	0.557451
	H296	H	1.344430	0.436540	0.577021
	O297	O	1.019172	0.018776	1.047499
	H298	H	1.018925	0.025630	1.051887
	H299	H	1.019142	0.022446	1.063012
	O300	O	0.423121	0.616868	0.459835
	H301	H	0.423309	0.615658	0.449764
	H302	H	0.415405	0.612672	0.458730
	O303	O	0.957504	0.044081	0.012395
	H304	H	0.945816	0.050959	0.013440
	H305	H	0.964533	0.038004	0.014403
	O306	O	0.038370	1.005001	0.975609
	H307	H	0.041151	1.005710	0.979645
	H308	H	0.040698	1.016182	0.970611
	O309	O	0.510532	0.471030	0.435523
	H310	H	0.517160	0.477891	0.435112
	H311	H	0.516718	0.466473	0.432600
	O312	O	0.978082	-0.013563	1.000353
	H313	H	0.974307	-0.016732	1.000052
	H314	H	0.977957	-0.018709	1.008151
	O315	O	0.614018	0.517885	0.518354
	H316	H	0.604934	0.524020	0.528978
	H317	H	0.626332	0.530877	0.509990
	O318	O	0.495642	0.660712	0.529642
	H319	H	0.499826	0.664368	0.532832
	H320	H	0.492475	0.668368	0.524254
	O321	O	0.945742	0.927195	1.048591
	H322	H	0.962406	0.928527	1.044040
	H323	H	0.946163	0.921816	1.054952
	O324	O	0.455369	0.545188	0.470377
	H325	H	0.465848	0.547158	0.465077
	H326	H	0.459858	0.540826	0.465068
	O327	O	0.402936	0.503681	0.469645
	H328	H	0.399005	0.515523	0.473644
	H329	H	0.383527	0.505918	0.482721
	O330	O	0.941350	0.009555	0.928919
	H331	H	0.941448	0.005285	0.939609
	H332	H	0.944801	0.008427	0.931017
	O333	O	1.048694	0.962464	-0.014452
	H334	H	1.055327	0.962671	-0.015649
	H335	H	1.051155	0.960940	-0.015897
	O336	O	0.577373	0.506159	0.520204
	H337	H	0.563413	0.509678	0.515699
	H338	H	0.570311	0.506502	0.517884
	O339	O	0.480309	0.452758	0.409206
	H340	H	0.470980	0.455214	0.414152
	H341	H	0.478371	0.447103	0.407578
	O342	O	-0.019224	0.973522	-0.058041
	H343	H	-0.022613	0.970855	-0.052466
	H344	H	-0.019737	0.970824	-0.062009
	O345	O	0.015951	0.080059	-0.043288
	H346	H	0.021450	0.084177	-0.055818
	H347	H	0.005867	0.082843	-0.040434
	O348	O	0.485956	0.528089	0.604441
	H349	H	0.477555	0.524322	0.603133
	H350	H	0.485824	0.529328	0.610569
	O351	O	0.532066	0.522752	0.509273
	H352	H	0.538422	0.508800	0.510501
	H353	H	0.520721	0.514227	0.519988
	O354	O	0.538971	0.480538	0.540648
	H355	H	0.548358	0.478061	0.541264
	H356	H	0.541347	0.471413	0.536339
	O357	O	0.447093	0.373263	0.530496
	H358	H	0.428362	0.365131	0.533935
	H359	H	0.461793	0.379164	0.519352
	O360	O	-0.042234	0.110674	0.051240
	H361	H	-0.055920	0.112764	0.043154
	H362	H	-0.052073	0.112991	0.049209
	O363	O	0.576761	0.423465	0.442422
	H364	H	0.584330	0.424308	0.441102
	H365	H	0.567113	0.422068	0.438173
	O366	O	-0.043477	0.062402	0.971847
	H367	H	-0.043290	0.066111	0.966330
	H368	H	-0.042799	0.055954	0.967065
	O369	O	0.559316	0.545134	0.502564
	H370	H	0.558596	0.559603	0.495024
	H371	H	0.573601	0.543548	0.520736
