data_Molecule from HDF5

_cell_length_a		16.448043
_cell_length_b		16.302260
_cell_length_c		16.404981
_cell_angle_alpha	90.012016
_cell_angle_beta	89.974843
_cell_angle_gamma	89.943062
_symmetry_space_group_name_H-M	'P 1'
_symmetry_Int_Tables_number		1

loop_
	_symmetry_equiv_pos_as_xyz
	x,y,z

loop_
	_atom_site_label
	_atom_site_type_symbol
	_atom_site_fract_x
	_atom_site_fract_y
	_atom_site_fract_z
	H0	H	0.390318	0.844175	0.716501
	H1	H	0.604636	0.161787	0.717085
	H2	H	0.603776	0.844083	0.270614
	H3	H	0.387723	0.161298	0.270347
	H4	H	0.718825	0.395229	0.836878
	H5	H	0.721125	0.611045	0.152543
	H6	H	0.275608	0.606930	0.837037
	H7	H	0.271696	0.391265	0.151641
	H8	H	0.838039	0.723949	0.390277
	H9	H	0.155082	0.720803	0.597632
	H10	H	0.837336	0.280597	0.601179
	H11	H	0.153864	0.278876	0.389218
	H12	H	0.837927	0.395829	0.717961
	H13	H	0.154529	0.605978	0.715431
	H14	H	0.839241	0.611668	0.271254
	H15	H	0.153307	0.393407	0.272318
	H16	H	0.394090	0.721363	0.836445
	H17	H	0.603255	0.723722	0.154400
	H18	H	0.601774	0.282192	0.836245
	H19	H	0.389825	0.278734	0.152382
	H20	H	0.719725	0.843838	0.386041
	H21	H	0.718605	0.161709	0.601834
	H22	H	0.276256	0.843812	0.598934
	H23	H	0.271429	0.160907	0.384506
	H24	H	0.889436	0.343119	0.217940
	H25	H	0.105386	0.659800	0.219632
	H26	H	0.101166	0.341071	0.775655
	H27	H	0.894564	0.662718	0.777640
	H28	H	0.220203	0.893001	0.337431
	H29	H	0.218941	0.109687	0.653542
	H30	H	0.770517	0.111436	0.337867
	H31	H	0.772801	0.895081	0.653159
	H32	H	0.339718	0.225874	0.887814
	H33	H	0.655008	0.224773	0.101628
	H34	H	0.339307	0.781411	0.100136
	H35	H	0.655699	0.779361	0.888349
	H36	H	0.340249	0.893674	0.218329
	H37	H	0.652153	0.113153	0.221058
	H38	H	0.339510	0.110987	0.772034
	H39	H	0.655448	0.897147	0.773096
	H40	H	0.887597	0.225662	0.337464
	H41	H	0.098943	0.221561	0.655520
	H42	H	0.100027	0.781548	0.336045
	H43	H	0.892532	0.783563	0.655288
	H44	H	0.217558	0.341508	0.889367
	H45	H	0.219756	0.660017	0.102599
	H46	H	0.774546	0.342960	0.101510
	H47	H	0.776401	0.661745	0.889323
	H48	H	0.412618	0.115250	0.582116
	H49	H	0.583272	0.891376	0.577443
	H50	H	0.581468	0.111507	0.417335
	H51	H	0.403510	0.888614	0.408049
	H52	H	0.589875	0.414925	0.108877
	H53	H	0.585773	0.591115	0.882500
	H54	H	0.405624	0.588415	0.109108
	H55	H	0.412755	0.414842	0.883896
	H56	H	0.109659	0.587361	0.401884
	H57	H	0.882357	0.588892	0.589410
	H58	H	0.113969	0.405714	0.591761
	H59	H	0.884148	0.411057	0.412576
	H60	H	0.106516	0.409787	0.575579
	H61	H	0.880125	0.595490	0.589006
	H62	H	0.110464	0.595761	0.407701
	H63	H	0.886046	0.420963	0.408796
	H64	H	0.408993	0.590921	0.108620
	H65	H	0.587497	0.587809	0.882531
	H66	H	0.583717	0.417445	0.106307
	H67	H	0.406257	0.410581	0.880022
	H68	H	0.591344	0.119441	0.405426
	H69	H	0.588898	0.887126	0.583691
	H70	H	0.403312	0.117501	0.580248
	H71	H	0.411136	0.888504	0.401934
	H72	H	0.910307	0.612832	0.076521
	H73	H	0.076681	0.393791	0.076009
	H74	H	0.091443	0.617244	0.906809
	H75	H	0.906100	0.389380	0.913238
	H76	H	0.089989	0.915904	0.609438
	H77	H	0.089769	0.095011	0.379012
	H78	H	0.906599	0.091479	0.608671
	H79	H	0.914038	0.915222	0.385087
	H80	H	0.609266	0.082986	0.901250
	H81	H	0.383884	0.093612	0.081055
	H82	H	0.612127	0.910528	0.081870
	H83	H	0.385253	0.919044	0.902365
	H84	H	0.607460	0.917456	0.079272
	H85	H	0.385813	0.088353	0.078800
	H86	H	0.613786	0.098394	0.900929
	H87	H	0.380975	0.908281	0.901059
	H88	H	0.905794	0.086789	0.607510
	H89	H	0.086685	0.082594	0.384099
	H90	H	0.083141	0.915956	0.606596
	H91	H	0.904614	0.906940	0.378624
	H92	H	0.083969	0.616248	0.901711
	H93	H	0.094898	0.385498	0.079020
	H94	H	0.904272	0.617293	0.084401
	H95	H	0.901892	0.383432	0.903127
	H96	H	0.407546	0.119975	0.588530
	H97	H	0.579354	0.889355	0.586308
	H98	H	0.575453	0.114074	0.401254
	H99	H	0.412494	0.892487	0.411152
	H100	H	0.584024	0.411058	0.109244
	H101	H	0.584439	0.588019	0.883592
	H102	H	0.405565	0.592549	0.110890
	H103	H	0.405060	0.418993	0.881926
	H104	H	0.106376	0.587494	0.411871
	H105	H	0.882678	0.592202	0.583717
	H106	H	0.106784	0.422591	0.587914
	H107	H	0.881870	0.414001	0.402343
	H108	H	0.914417	0.614474	0.085965
	H109	H	0.080686	0.385878	0.094117
	H110	H	0.083986	0.613933	0.910275
	H111	H	0.913834	0.387685	0.903495
	H112	H	0.085920	0.909642	0.609496
	H113	H	0.077010	0.091897	0.383530
	H114	H	0.910312	0.089135	0.606229
	H115	H	0.901526	0.920037	0.381356
	H116	H	0.608013	0.091878	0.914403
	H117	H	0.383688	0.088297	0.084724
	H118	H	0.610622	0.917219	0.087196
	H119	H	0.385760	0.911640	0.911486
	C120	C	0.376014	0.011983	0.615830
	C121	C	0.617582	0.994184	0.615859
	C122	C	0.616981	0.010710	0.373591
	C123	C	0.374881	0.994504	0.372938
	C124	C	0.618609	0.380984	0.003884
	C125	C	0.618930	0.623286	0.987147
	C126	C	0.375165	0.622821	0.004264
	C127	C	0.375236	0.380485	0.985996
	C128	C	0.004675	0.623532	0.374019
	C129	C	0.987234	0.623756	0.617680
	C130	C	0.004611	0.380377	0.617270
	C131	C	0.987601	0.380714	0.374381
	C132	C	0.875882	0.510390	0.116098
	C133	C	0.117877	0.492936	0.116508
	C134	C	0.118218	0.510099	0.873763
	C135	C	0.875702	0.493013	0.874454
	C136	C	0.118447	0.880572	0.503889
	C137	C	0.117089	0.123275	0.487006
	C138	C	0.873806	0.123443	0.503321
	C139	C	0.873741	0.880767	0.486415
	C140	C	0.506045	0.124723	0.872663
	C141	C	0.488220	0.124133	0.115702
	C142	C	0.506162	0.881368	0.116338
	C143	C	0.488860	0.880146	0.872365
	C144	C	0.373202	0.892059	0.676067
	C145	C	0.621741	0.113748	0.676971
	C146	C	0.621309	0.891629	0.311311
	C147	C	0.370542	0.113584	0.310824
	C148	C	0.678958	0.377552	0.884735
	C149	C	0.680451	0.627753	0.105396
	C150	C	0.315426	0.625404	0.884695
	C151	C	0.313348	0.375373	0.104801
	C152	C	0.885693	0.684147	0.371416
	C153	C	0.107246	0.681766	0.617285
	C154	C	0.884778	0.320788	0.619310
	C155	C	0.106293	0.319189	0.371221
	C156	C	0.885117	0.378199	0.677451
	C157	C	0.107032	0.624414	0.675610
	C158	C	0.886441	0.628119	0.312155
	C159	C	0.106109	0.376363	0.312773
	C160	C	0.374432	0.682191	0.884424
	C161	C	0.621284	0.683959	0.106335
	C162	C	0.620411	0.321169	0.884192
	C163	C	0.371970	0.318924	0.104901
	C164	C	0.679036	0.891560	0.368950
	C165	C	0.678561	0.113877	0.619260
	C166	C	0.316131	0.891678	0.617752
	C167	C	0.312769	0.113482	0.368262
	C168	C	0.871775	0.390898	0.177634
	C169	C	0.122240	0.612275	0.178340
	C170	C	0.119662	0.389306	0.814601
	C171	C	0.875268	0.614149	0.816120
	C172	C	0.179464	0.876074	0.384915
	C173	C	0.178073	0.126844	0.606297
	C174	C	0.811727	0.128273	0.385108
	C175	C	0.813136	0.877513	0.605678
	C176	C	0.387203	0.185465	0.869856
	C177	C	0.607055	0.185481	0.119624
	C178	C	0.387132	0.820503	0.119084
	C179	C	0.607905	0.819665	0.870203
	C180	C	0.387440	0.877014	0.177665
	C181	C	0.605571	0.129537	0.179249
	C182	C	0.387033	0.128272	0.812061
	C183	C	0.607809	0.878061	0.812469
	C184	C	0.870056	0.185373	0.384862
	C185	C	0.118203	0.182649	0.607223
	C186	C	0.119514	0.820404	0.384181
	C187	C	0.872560	0.821607	0.606578
	C188	C	0.177749	0.389591	0.871271
	C189	C	0.179414	0.612356	0.120016
	C190	C	0.814474	0.390963	0.119545
	C191	C	0.816225	0.613692	0.871772
	C192	C	0.400769	0.095853	0.590605
	C193	C	0.591403	0.911019	0.589765
	C194	C	0.590405	0.093341	0.400505
	C195	C	0.401363	0.911601	0.399361
	C196	C	0.593134	0.406875	0.086601
	C197	C	0.593157	0.596578	0.904307
	C198	C	0.399687	0.597794	0.087693
	C199	C	0.400813	0.407289	0.903678
	C200	C	0.087360	0.597548	0.399571
	C201	C	0.903483	0.599380	0.593884
	C202	C	0.087241	0.405335	0.592236
	C203	C	0.905449	0.407611	0.400521
	C204	C	0.902221	0.593282	0.089945
	C205	C	0.091576	0.409997	0.090488
	C206	C	0.093654	0.593975	0.898900
	C207	C	0.900064	0.409013	0.899488
	C208	C	0.093568	0.906502	0.586768
	C209	C	0.091835	0.097401	0.404012
	C210	C	0.899939	0.096648	0.585973
	C211	C	0.899234	0.906511	0.403411
	C212	C	0.588635	0.098536	0.898263
	C213	C	0.406115	0.097761	0.089176
	C214	C	0.588533	0.907502	0.090400
	C215	C	0.405603	0.905539	0.897632
	Zn216	Zn	0.497446	0.003568	0.744420
	Zn217	Zn	0.496232	0.002787	0.244250
	Zn218	Zn	0.747464	0.502063	-0.005066
	Zn219	Zn	0.246043	0.500573	-0.005133
	Zn220	Zn	-0.004308	0.752423	0.495334
	Zn221	Zn	-0.004854	0.251531	0.495644
	Zn222	Zn	-0.003158	0.501336	0.746694
	Zn223	Zn	-0.003664	0.501986	0.245316
	Zn224	Zn	0.497492	0.752287	-0.004378
	Zn225	Zn	0.497240	0.252845	-0.005732
	Zn226	Zn	0.745660	0.002312	0.495307
	Zn227	Zn	0.246474	0.003018	0.494564
	N228	N	0.409415	0.968013	0.675148
	N229	N	0.584375	0.038485	0.674832
	N230	N	0.583426	0.966868	0.313799
	N231	N	0.408580	0.038473	0.313616
	N232	N	0.678206	0.414017	0.960242
	N233	N	0.679142	0.590976	0.030033
	N234	N	0.315502	0.589449	0.960471
	N235	N	0.315103	0.413047	0.029907
	N236	N	0.960159	0.681516	0.409096
	N237	N	0.031521	0.681580	0.582064
	N238	N	0.959831	0.321854	0.582606
	N239	N	0.031787	0.321881	0.408876
	N240	N	0.960422	0.414577	0.676524
	N241	N	0.031237	0.589214	0.676134
	N242	N	0.961631	0.591104	0.313657
	N243	N	0.031335	0.413953	0.314536
	N244	N	0.410770	0.680900	0.959715
	N245	N	0.583551	0.681225	0.031593
	N246	N	0.583754	0.323043	0.959369
	N247	N	0.409818	0.322081	0.030268
	N248	N	0.676595	0.966601	0.406724
	N249	N	0.676092	0.038330	0.581874
	N250	N	0.317620	0.967363	0.580935
	N251	N	0.315069	0.038289	0.405961
	N252	N	0.909284	0.466149	0.175717
	N253	N	0.084729	0.536968	0.176409
	N254	N	0.083680	0.465429	0.815733
	N255	N	0.911152	0.537933	0.817414
	N256	N	0.179058	0.912824	0.460314
	N257	N	0.177846	0.091022	0.530276
	N258	N	0.814294	0.090143	0.459789
	N259	N	0.813464	0.913219	0.529845
	N260	N	0.462241	0.183567	0.906644
	N261	N	0.532884	0.182559	0.081170
	N262	N	0.461755	0.823024	0.081608
	N263	N	0.532584	0.820520	0.906411
	N264	N	0.462525	0.913953	0.176210
	N265	N	0.530651	0.092491	0.177198
	N266	N	0.462169	0.091424	0.813343
	N267	N	0.532661	0.914674	0.813661
	N268	N	0.908007	0.182306	0.459462
	N269	N	0.081505	0.180780	0.531995
	N270	N	0.082285	0.823027	0.459092
	N271	N	0.909432	0.823382	0.531267
	N272	N	0.177149	0.465710	0.907329
	N273	N	0.177020	0.537040	0.082535
	N274	N	0.816826	0.466321	0.082195
	N275	N	0.816239	0.537363	0.907407
	O276	O	0.210306	0.018475	1.205230
	H277	H	0.198132	0.014078	1.201533
	H278	H	0.233956	0.021086	1.223903
	O279	O	1.099066	-0.153531	0.802800
	H280	H	1.111598	-0.165960	0.792463
	H281	H	1.096448	-0.156493	0.829005
	O282	O	0.463402	0.440565	0.398446
	H283	H	0.479746	0.436151	0.413673
	H284	H	0.482918	0.430490	0.408655
	O285	O	0.519259	1.304812	-0.714282
	H286	H	0.497755	1.319326	-0.706566
	H287	H	0.519543	1.277087	-0.736324
	O288	O	0.280413	0.285304	0.519335
	H289	H	0.246701	0.251416	0.522324
	H290	H	0.299402	0.292856	0.533366
	O291	O	0.290471	0.527559	0.569805
	H292	H	0.298186	0.535919	0.561677
	H293	H	0.283532	0.514353	0.548979
	O294	O	1.033791	0.980132	0.855522
	H295	H	1.062851	0.977537	0.852378
	H296	H	1.024666	0.972192	0.834357
	O297	O	0.631820	0.400024	0.439043
	H298	H	0.644800	0.406047	0.412545
	H299	H	0.635703	0.384109	0.438517
	O300	O	0.812554	0.027937	0.822923
	H301	H	0.810686	0.021700	0.827813
	H302	H	0.812867	0.036125	0.818382
	O303	O	0.578116	0.473437	0.650619
	H304	H	0.573166	0.478486	0.638686
	H305	H	0.564967	0.468467	0.655100
	O306	O	0.083052	-0.197022	0.992762
	H307	H	0.076956	-0.185924	0.971357
	H308	H	0.091795	-0.212323	0.989842
	O309	O	0.814715	-0.178552	-0.000565
	H310	H	0.816588	-0.189952	-0.005090
	H311	H	0.821794	-0.183960	-0.016263
	O312	O	0.703903	0.398035	0.573509
	H313	H	0.712343	0.395011	0.588212
	H314	H	0.699602	0.385113	0.568606
	O315	O	0.431467	0.296946	0.436006
	H316	H	0.427527	0.302135	0.438150
	H317	H	0.431565	0.302322	0.447074
	O318	O	0.004792	0.132419	-0.107108
	H319	H	-0.011663	0.129890	-0.094250
	H320	H	0.004316	0.145044	-0.112484
	O321	O	0.492239	0.533825	0.422410
	H322	H	0.491742	0.555386	0.403779
	H323	H	0.489676	0.529714	0.437352
	O324	O	0.821453	-0.173544	1.154994
	H325	H	0.808112	-0.151464	1.145396
	H326	H	0.839733	-0.176103	1.127092
	O327	O	0.301821	0.487302	0.604080
	H328	H	0.301967	0.495794	0.606933
	H329	H	0.294538	0.484119	0.595452
	O330	O	-0.006603	0.978796	1.180937
	H331	H	-0.004599	0.982245	1.176481
	H332	H	-0.014420	0.966359	1.191884
	O333	O	0.234450	0.769892	-0.242863
	H334	H	0.236308	0.765644	-0.261586
	H335	H	0.230974	0.759894	-0.248756
	O336	O	1.151441	1.156790	0.172321
	H337	H	1.157991	1.132229	0.167666
	H338	H	1.145993	1.165356	0.138896
	O339	O	0.015685	1.215324	1.203646
	H340	H	0.014054	1.237717	1.240252
	H341	H	0.038791	1.202450	1.193201
	O342	O	-0.136774	1.004757	-0.095833
	H343	H	-0.132522	1.009896	-0.106552
	H344	H	-0.120383	0.989933	-0.096321
	O345	O	0.100923	0.035080	0.965107
	H346	H	0.103241	0.022624	0.948448
	H347	H	0.097964	0.037959	0.976264
	O348	O	0.294482	0.706560	0.475573
	H349	H	0.296067	0.710175	0.491855
	H350	H	0.307360	0.720588	0.490985
	O351	O	1.191337	1.178956	0.003032
	H352	H	1.201449	1.176958	-0.003191
	H353	H	1.191965	1.175008	-0.011499
	O354	O	1.163548	0.901587	1.045329
	H355	H	1.152264	0.878132	1.039471
	H356	H	1.162582	0.918758	1.057024
	O357	O	-0.110339	0.190021	-0.034738
	H358	H	-0.109721	0.187203	-0.022678
	H359	H	-0.112996	0.198584	-0.026150
	O360	O	0.318222	0.329962	0.678006
	H361	H	0.305843	0.366440	0.678497
	H362	H	0.355670	0.319397	0.674817
	O363	O	0.595912	-0.616657	-0.439391
	H364	H	0.595909	-0.631689	-0.422962
	H365	H	0.588261	-0.618362	-0.436602
	O366	O	-0.133976	-0.019635	0.940776
	H367	H	-0.137141	-0.016618	0.952114
	H368	H	-0.131793	-0.015618	0.927732
	O369	O	0.880061	0.119022	1.067555
	H370	H	0.886821	0.098190	1.080356
	H371	H	0.874475	0.123899	1.082464
	O372	O	0.504754	0.515372	0.423834
	H373	H	0.508517	0.498685	0.450332
	H374	H	0.510174	0.516916	0.428294
	O375	O	0.613888	0.505453	1.516815
	H376	H	0.625816	0.512913	1.522294
	H377	H	0.624512	0.506460	1.510581
	O378	O	0.663423	0.652018	0.676757
	H379	H	0.673986	0.651029	0.643734
	H380	H	0.680453	0.619858	0.674586
	O381	O	0.012975	1.024347	-0.094793
	H382	H	0.032761	1.017623	-0.092598
	H383	H	0.011693	1.032943	-0.079971
	O384	O	0.684927	0.315114	0.353645
	H385	H	0.644847	0.312889	0.334423
	H386	H	0.697751	0.324955	0.363281
	O387	O	0.365136	0.465459	0.348407
	H388	H	0.374366	0.475801	0.352549
	H389	H	0.343023	0.461361	0.332659
	O390	O	0.477721	0.710276	0.284363
	H391	H	0.446372	0.716182	0.278478
	H392	H	0.469509	0.714935	0.261514
	O393	O	0.790181	-0.015258	1.102613
	H394	H	0.798368	0.004770	1.091325
	H395	H	0.769619	-0.008981	1.117788
	O396	O	0.638550	0.690642	0.462006
	H397	H	0.626734	0.682261	0.442873
	H398	H	0.630067	0.687680	0.455293
	O399	O	1.197585	0.882729	-0.087697
	H400	H	1.187820	0.886793	-0.066544
	H401	H	1.213067	0.865405	-0.095728
	O402	O	0.960957	0.969437	0.171286
	H403	H	0.981214	0.969511	0.183575
	H404	H	0.961211	0.949131	0.163022
	O405	O	0.474732	0.302267	0.698659
	H406	H	0.476491	0.275783	0.722407
	H407	H	0.483733	0.318609	0.684707
	O408	O	0.489753	0.700818	0.648060
	H409	H	0.521527	0.683452	0.648869
	H410	H	0.510282	0.728394	0.668681
	O411	O	0.862019	1.157119	1.011073
	H412	H	0.858883	1.170984	1.012681
	H413	H	0.869310	1.136630	1.016234
	O414	O	0.636390	0.716420	0.598733
	H415	H	0.636261	0.707425	0.576353
	H416	H	0.659487	0.754641	0.614646
	O417	O	0.016461	0.843648	1.202786
	H418	H	0.002724	0.825361	1.209795
	H419	H	-0.021534	0.860552	1.204148
	O420	O	0.059113	0.893988	0.957737
	H421	H	0.074711	0.883135	0.963521
	H422	H	0.067298	0.888547	0.966023
	O423	O	-0.170243	1.172688	-0.146181
	H424	H	-0.166327	1.165216	-0.128794
	H425	H	-0.162097	1.181174	-0.136067
	O426	O	0.327005	0.514573	0.305432
	H427	H	0.317799	0.516587	0.281825
	H428	H	0.333912	0.504191	0.308622
	O429	O	0.488832	0.720136	0.502705
	H430	H	0.494929	0.723626	0.505332
	H431	H	0.498088	0.706967	0.503039
	O432	O	0.686795	0.457784	0.351538
	H433	H	0.685445	0.476374	0.345129
	H434	H	0.675335	0.470907	0.336741
	O435	O	0.316601	-0.318706	0.314069
	H436	H	0.313632	-0.344551	0.322447
	H437	H	0.306877	-0.317865	0.350063
	O438	O	0.137599	0.970963	0.820488
	H439	H	0.154797	0.977234	0.802531
	H440	H	0.136961	0.938769	0.816679
	O441	O	0.527683	0.538930	0.662507
	H442	H	0.534944	0.534640	0.666744
	H443	H	0.529282	0.541811	0.643006
