data_Molecule from HDF5

_cell_length_a		16.300176
_cell_length_b		16.283563
_cell_length_c		16.196155
_cell_angle_alpha	89.849984
_cell_angle_beta	89.895633
_cell_angle_gamma	90.002963
_symmetry_space_group_name_H-M	'P 1'
_symmetry_Int_Tables_number		1

loop_
	_symmetry_equiv_pos_as_xyz
	x,y,z

loop_
	_atom_site_label
	_atom_site_type_symbol
	_atom_site_fract_x
	_atom_site_fract_y
	_atom_site_fract_z
	H0	H	0.400145	0.839003	0.716275
	H1	H	0.593665	0.168135	0.715064
	H2	H	0.595783	0.839625	0.290148
	H3	H	0.401266	0.167965	0.289312
	H4	H	0.710868	0.404749	0.837765
	H5	H	0.709354	0.599681	0.167128
	H6	H	0.283867	0.601701	0.837483
	H7	H	0.283976	0.406228	0.166772
	H8	H	0.834087	0.719577	0.403065
	H9	H	0.161600	0.718003	0.599603
	H10	H	0.834411	0.288220	0.601592
	H11	H	0.161132	0.289606	0.403775
	H12	H	0.833344	0.406333	0.715446
	H13	H	0.161846	0.600230	0.715154
	H14	H	0.833159	0.602076	0.289074
	H15	H	0.161418	0.407626	0.289013
	H16	H	0.398937	0.717786	0.837834
	H17	H	0.593871	0.714881	0.167815
	H18	H	0.594109	0.290703	0.837327
	H19	H	0.398817	0.289214	0.166394
	H20	H	0.713093	0.840425	0.404313
	H21	H	0.712032	0.167584	0.601824
	H22	H	0.281974	0.840162	0.602693
	H23	H	0.283556	0.167211	0.403801
	H24	H	0.899278	0.338672	0.215941
	H25	H	0.091639	0.668539	0.212945
	H26	H	0.094512	0.338659	0.789831
	H27	H	0.900604	0.667273	0.788322
	H28	H	0.212149	0.905532	0.338295
	H29	H	0.210508	0.100810	0.667090
	H30	H	0.783943	0.102499	0.338021
	H31	H	0.783701	0.904939	0.666960
	H32	H	0.333087	0.216823	0.904297
	H33	H	0.659860	0.218655	0.101233
	H34	H	0.333280	0.788139	0.101906
	H35	H	0.660447	0.788076	0.903913
	H36	H	0.333208	0.905727	0.217582
	H37	H	0.661883	0.099573	0.214247
	H38	H	0.333630	0.101389	0.788529
	H39	H	0.661629	0.906050	0.789972
	H40	H	0.899275	0.218098	0.337711
	H41	H	0.094977	0.215769	0.666815
	H42	H	0.095912	0.790768	0.337073
	H43	H	0.900289	0.789716	0.666852
	H44	H	0.211097	0.339042	0.904979
	H45	H	0.212327	0.666552	0.100591
	H46	H	0.782254	0.339074	0.100974
	H47	H	0.782915	0.667609	0.903377
	H48	H	0.394945	0.120754	0.588969
	H49	H	0.589445	0.887035	0.596160
	H50	H	0.588040	0.121427	0.403633
	H51	H	0.402637	0.885219	0.406178
	H52	H	0.587267	0.396441	0.122830
	H53	H	0.589232	0.585925	0.888236
	H54	H	0.412310	0.599172	0.118552
	H55	H	0.411083	0.410966	0.886376
	H56	H	0.113645	0.595566	0.406411
	H57	H	0.880172	0.598891	0.597024
	H58	H	0.114880	0.415712	0.603548
	H59	H	0.884188	0.409466	0.421198
	H60	H	0.118501	0.399379	0.598547
	H61	H	0.881551	0.598282	0.593013
	H62	H	0.115077	0.600026	0.405290
	H63	H	0.881182	0.419611	0.404023
	H64	H	0.396559	0.600581	0.123087
	H65	H	0.581302	0.602618	0.885697
	H66	H	0.602299	0.414773	0.121731
	H67	H	0.399778	0.401685	0.881654
	H68	H	0.589939	0.118296	0.412954
	H69	H	0.591880	0.887493	0.593948
	H70	H	0.401637	0.123844	0.606396
	H71	H	0.409805	0.888573	0.411613
	H72	H	0.908141	0.616275	0.090212
	H73	H	0.099358	0.387605	0.083820
	H74	H	0.098932	0.623421	0.902844
	H75	H	0.900405	0.386956	0.911764
	H76	H	0.088331	0.916714	0.617698
	H77	H	0.096935	0.098149	0.382969
	H78	H	0.900694	0.096926	0.621410
	H79	H	0.893642	0.907452	0.380768
	H80	H	0.615836	0.100673	0.906553
	H81	H	0.381135	0.096941	0.093897
	H82	H	0.612485	0.904808	0.088993
	H83	H	0.379270	0.907509	0.908494
	H84	H	0.611831	0.916140	0.096464
	H85	H	0.380877	0.094541	0.098265
	H86	H	0.613332	0.098099	0.913129
	H87	H	0.381454	0.909234	0.913153
	H88	H	0.904600	0.092398	0.618261
	H89	H	0.089933	0.090058	0.386825
	H90	H	0.086345	0.903215	0.620363
	H91	H	0.906280	0.924355	0.388670
	H92	H	0.080675	0.618713	0.904138
	H93	H	0.095426	0.381711	0.107875
	H94	H	0.894300	0.621359	0.091741
	H95	H	0.901884	0.385593	0.906066
	H96	H	0.412488	0.116684	0.592722
	H97	H	0.592719	0.886358	0.597700
	H98	H	0.597049	0.123033	0.407928
	H99	H	0.401037	0.887754	0.415426
	H100	H	0.579860	0.417026	0.114394
	H101	H	0.599418	0.599788	0.880917
	H102	H	0.401737	0.586317	0.117163
	H103	H	0.397035	0.416828	0.883302
	H104	H	0.113497	0.598221	0.409830
	H105	H	0.881937	0.595355	0.595289
	H106	H	0.111197	0.411011	0.587093
	H107	H	0.876272	0.400047	0.404868
	H108	H	0.903902	0.622046	0.103327
	H109	H	0.076916	0.390658	0.093898
	H110	H	0.091211	0.616723	0.919355
	H111	H	0.905655	0.387223	0.909421
	H112	H	0.098273	0.909256	0.622418
	H113	H	0.086174	0.100735	0.384706
	H114	H	0.906633	0.098283	0.618928
	H115	H	0.915452	0.903931	0.385604
	H116	H	0.613108	0.093782	0.907117
	H117	H	0.379235	0.099217	0.097619
	H118	H	0.616862	0.904607	0.101770
	H119	H	0.381047	0.912323	0.908993
	C120	C	0.375438	0.011642	0.624411
	C121	C	0.619422	0.995325	0.624401
	C122	C	0.619740	0.012468	0.380830
	C123	C	0.376356	0.995359	0.381845
	C124	C	0.617971	0.381635	0.010867
	C125	C	0.617940	0.624236	0.994057
	C126	C	0.375429	0.624180	0.010480
	C127	C	0.375381	0.382105	0.993102
	C128	C	0.005719	0.625985	0.379834
	C129	C	0.989255	0.625409	0.623196
	C130	C	0.006353	0.380978	0.624212
	C131	C	0.989120	0.382089	0.381252
	C132	C	0.874445	0.511350	0.123960
	C133	C	0.118662	0.495128	0.123636
	C134	C	0.118585	0.511191	0.880782
	C135	C	0.874571	0.494897	0.880321
	C136	C	0.118888	0.882152	0.510638
	C137	C	0.119222	0.124728	0.493857
	C138	C	0.876061	0.124781	0.510684
	C139	C	0.876432	0.882581	0.493635
	C140	C	0.505439	0.125061	0.881081
	C141	C	0.488805	0.124584	0.123993
	C142	C	0.505614	0.880669	0.124649
	C143	C	0.488909	0.881541	0.881669
	C144	C	0.379101	0.888174	0.678784
	C145	C	0.615186	0.119090	0.677943
	C146	C	0.616460	0.888772	0.327125
	C147	C	0.379717	0.118765	0.326577
	C148	C	0.672855	0.384660	0.886757
	C149	C	0.672067	0.620722	0.117976
	C150	C	0.321172	0.621941	0.886521
	C151	C	0.321182	0.385051	0.117506
	C152	C	0.882576	0.681168	0.383081
	C153	C	0.112646	0.680173	0.620652
	C154	C	0.883059	0.326241	0.621516
	C155	C	0.112442	0.327918	0.383408
	C156	C	0.882423	0.384749	0.678093
	C157	C	0.112842	0.621504	0.677576
	C158	C	0.881998	0.622687	0.326450
	C159	C	0.112333	0.386071	0.326154
	C160	C	0.378257	0.679723	0.886737
	C161	C	0.614894	0.678256	0.118218
	C162	C	0.614943	0.327761	0.886651
	C163	C	0.378920	0.327849	0.117556
	C164	C	0.674710	0.889128	0.384014
	C165	C	0.673926	0.118644	0.621681
	C166	C	0.320397	0.888613	0.622170
	C167	C	0.321448	0.118482	0.383545
	C168	C	0.877622	0.387944	0.179149
	C169	C	0.113569	0.619218	0.176329
	C170	C	0.115068	0.387567	0.827303
	C171	C	0.878792	0.618223	0.825672
	C172	C	0.173944	0.884974	0.387003
	C173	C	0.173072	0.121277	0.617777
	C174	C	0.821440	0.122982	0.387118
	C175	C	0.821429	0.884503	0.617735
	C176	C	0.382013	0.179330	0.883843
	C177	C	0.611547	0.179872	0.121362
	C178	C	0.381955	0.826517	0.122113
	C179	C	0.612069	0.826764	0.884112
	C180	C	0.381996	0.884269	0.179863
	C181	C	0.612490	0.120820	0.177540
	C182	C	0.382102	0.121725	0.826615
	C183	C	0.612394	0.885103	0.827195
	C184	C	0.879033	0.180136	0.386890
	C185	C	0.115864	0.178689	0.617478
	C186	C	0.116216	0.828051	0.386390
	C187	C	0.879175	0.827157	0.617812
	C188	C	0.173240	0.387989	0.884170
	C189	C	0.173684	0.618168	0.120668
	C190	C	0.820144	0.387796	0.121367
	C191	C	0.820432	0.618446	0.883075
	C192	C	0.396609	0.098046	0.602561
	C193	C	0.597797	0.909232	0.602536
	C194	C	0.598270	0.098636	0.401978
	C195	C	0.398100	0.909379	0.404430
	C196	C	0.596333	0.403190	0.097327
	C197	C	0.596153	0.602707	0.907414
	C198	C	0.397142	0.602079	0.097136
	C199	C	0.396510	0.403336	0.906255
	C200	C	0.091843	0.604255	0.400895
	C201	C	0.903484	0.603885	0.601494
	C202	C	0.092549	0.402350	0.602791
	C203	C	0.902866	0.403498	0.403500
	C204	C	0.895674	0.597543	0.101809
	C205	C	0.097001	0.408801	0.101773
	C206	C	0.096622	0.597535	0.902341
	C207	C	0.896063	0.408796	0.902680
	C208	C	0.097293	0.903456	0.597626
	C209	C	0.097579	0.102767	0.407046
	C210	C	0.897727	0.102525	0.597241
	C211	C	0.898718	0.905146	0.407443
	C212	C	0.591738	0.103844	0.902621
	C213	C	0.402554	0.103401	0.102704
	C214	C	0.591502	0.901989	0.102346
	C215	C	0.402976	0.903282	0.903685
	Zn216	Zn	0.497389	0.003426	0.752792
	Zn217	Zn	0.497262	0.003127	0.252510
	Zn218	Zn	0.746129	0.503006	0.002303
	Zn219	Zn	0.247489	0.503189	0.002030
	Zn220	Zn	-0.002059	0.754268	0.501549
	Zn221	Zn	-0.002268	0.252474	0.502134
	Zn222	Zn	-0.002505	0.502920	0.751893
	Zn223	Zn	-0.003591	0.503525	0.252013
	Zn224	Zn	0.497038	0.752403	0.002605
	Zn225	Zn	0.496734	0.253748	0.001716
	Zn226	Zn	0.747632	0.003913	0.502546
	Zn227	Zn	0.246882	0.003435	0.502453
	N228	N	0.412523	0.965732	0.680281
	N229	N	0.581662	0.041501	0.679682
	N230	N	0.582862	0.966354	0.325019
	N231	N	0.413261	0.041259	0.325465
	N232	N	0.674637	0.417678	0.964970
	N233	N	0.674326	0.588200	0.039751
	N234	N	0.319661	0.588225	0.964401
	N235	N	0.319026	0.418148	0.039272
	N236	N	0.960561	0.683285	0.415603
	N237	N	0.035183	0.682631	0.587474
	N238	N	0.961169	0.323664	0.588771
	N239	N	0.034871	0.325366	0.416950
	N240	N	0.959871	0.418042	0.679866
	N241	N	0.035134	0.588097	0.679403
	N242	N	0.959349	0.588968	0.324300
	N243	N	0.034480	0.419060	0.324837
	N244	N	0.411238	0.681357	0.964995
	N245	N	0.581849	0.680436	0.040105
	N246	N	0.581653	0.325789	0.964617
	N247	N	0.411557	0.325515	0.039260
	N248	N	0.676734	0.966888	0.416676
	N249	N	0.676530	0.040739	0.589027
	N250	N	0.318049	0.966437	0.588941
	N251	N	0.319180	0.040690	0.417060
	N252	N	0.910953	0.465680	0.180538
	N253	N	0.080220	0.541627	0.178177
	N254	N	0.081861	0.465288	0.825011
	N255	N	0.911613	0.540573	0.823818
	N256	N	0.175830	0.917756	0.465228
	N257	N	0.175033	0.088230	0.539694
	N258	N	0.819604	0.089163	0.464985
	N259	N	0.819535	0.918217	0.539721
	N260	N	0.459769	0.181431	0.916917
	N261	N	0.533734	0.182338	0.088758
	N262	N	0.459612	0.824006	0.088616
	N263	N	0.534358	0.824403	0.917048
	N264	N	0.459798	0.917129	0.181650
	N265	N	0.535027	0.087025	0.179313
	N266	N	0.459741	0.088652	0.824656
	N267	N	0.534739	0.918542	0.825515
	N268	N	0.912250	0.181372	0.464901
	N269	N	0.083090	0.180711	0.539323
	N270	N	0.082838	0.826347	0.464455
	N271	N	0.912688	0.825895	0.539837
	N272	N	0.175498	0.465921	0.916606
	N273	N	0.176735	0.539969	0.088692
	N274	N	0.817905	0.465551	0.088016
	N275	N	0.817782	0.540592	0.916424
	O276	O	-0.048994	-0.018002	1.002885
	H277	H	-0.061562	-0.015108	0.999939
	H278	H	-0.041528	-0.023301	1.002606
	O279	O	0.525467	0.588558	0.486830
	H280	H	0.526713	0.588246	0.483316
	H281	H	0.525646	0.587366	0.492427
	O282	O	1.000601	-0.010891	0.014561
	H283	H	0.998408	-0.009208	0.017193
	H284	H	1.001158	-0.015186	0.016301
	O285	O	0.540063	0.594977	0.474358
	H286	H	0.542538	0.594125	0.477532
	H287	H	0.537299	0.604237	0.470526
	O288	O	0.558087	0.570130	0.487941
	H289	H	0.553961	0.577807	0.494515
	H290	H	0.558834	0.568273	0.475875
	O291	O	-0.009889	0.979768	0.988139
	H292	H	-0.007546	0.984661	0.993115
	H293	H	-0.006280	0.973720	0.986374
	O294	O	0.553631	0.569444	0.496407
	H295	H	0.560066	0.571441	0.494239
	H296	H	0.555108	0.566885	0.497052
	O297	O	0.970114	0.030884	-0.009908
	H298	H	0.967796	0.034461	-0.005037
	H299	H	0.967941	0.034943	-0.019233
