data_Molecule from HDF5

_cell_length_a		16.333786
_cell_length_b		16.290681
_cell_length_c		15.999894
_cell_angle_alpha	89.613701
_cell_angle_beta	90.632814
_cell_angle_gamma	90.280614
_symmetry_space_group_name_H-M	'P 1'
_symmetry_Int_Tables_number		1

loop_
	_symmetry_equiv_pos_as_xyz
	x,y,z

loop_
	_atom_site_label
	_atom_site_type_symbol
	_atom_site_fract_x
	_atom_site_fract_y
	_atom_site_fract_z
	H0	H	0.392547	0.836913	0.714266
	H1	H	0.587546	0.165696	0.712732
	H2	H	0.579600	0.835057	0.291063
	H3	H	0.390555	0.164974	0.284842
	H4	H	0.698663	0.403111	0.834412
	H5	H	0.705928	0.600842	0.165265
	H6	H	0.269011	0.602459	0.836317
	H7	H	0.276247	0.398525	0.167181
	H8	H	0.826331	0.716676	0.396454
	H9	H	0.149390	0.716936	0.608700
	H10	H	0.824681	0.279739	0.601449
	H11	H	0.150014	0.283891	0.403105
	H12	H	0.822235	0.400819	0.712763
	H13	H	0.151053	0.594127	0.716847
	H14	H	0.824620	0.595840	0.284894
	H15	H	0.150992	0.402719	0.291340
	H16	H	0.386550	0.715067	0.834917
	H17	H	0.589324	0.713019	0.166056
	H18	H	0.584753	0.288169	0.834658
	H19	H	0.391735	0.285998	0.166265
	H20	H	0.702022	0.836554	0.399821
	H21	H	0.707063	0.162400	0.600554
	H22	H	0.272694	0.837368	0.601593
	H23	H	0.270071	0.162968	0.395482
	H24	H	0.892871	0.334013	0.211692
	H25	H	0.087279	0.663635	0.215976
	H26	H	0.080618	0.334229	0.794180
	H27	H	0.891732	0.664132	0.786443
	H28	H	0.197542	0.901790	0.334241
	H29	H	0.205047	0.098741	0.665649
	H30	H	0.772906	0.099496	0.335551
	H31	H	0.773321	0.896849	0.666939
	H32	H	0.326066	0.218481	0.894956
	H33	H	0.649785	0.216982	0.103080
	H34	H	0.325720	0.781156	0.100191
	H35	H	0.649936	0.783626	0.899530
	H36	H	0.322355	0.902716	0.210427
	H37	H	0.650799	0.095961	0.214215
	H38	H	0.324985	0.098722	0.783892
	H39	H	0.652638	0.907319	0.791999
	H40	H	0.887521	0.212838	0.335689
	H41	H	0.088576	0.211154	0.667469
	H42	H	0.085396	0.784351	0.336681
	H43	H	0.891527	0.784700	0.668617
	H44	H	0.202775	0.337298	0.902171
	H45	H	0.208345	0.661220	0.105821
	H46	H	0.769395	0.338114	0.103165
	H47	H	0.771352	0.662797	0.896147
	H48	H	0.399490	0.116128	0.590261
	H49	H	0.577414	0.888048	0.589436
	H50	H	0.580107	0.116868	0.404805
	H51	H	0.378434	0.881163	0.412116
	H52	H	0.579438	0.414190	0.116977
	H53	H	0.571072	0.585005	0.886439
	H54	H	0.401596	0.591737	0.118493
	H55	H	0.393761	0.415335	0.883710
	H56	H	0.100895	0.589147	0.416374
	H57	H	0.869085	0.594914	0.595074
	H58	H	0.106529	0.388859	0.594096
	H59	H	0.870568	0.407067	0.404879
	H60	H	0.098757	0.412256	0.587329
	H61	H	0.872086	0.593882	0.588509
	H62	H	0.104927	0.590868	0.406492
	H63	H	0.868771	0.399560	0.407232
	H64	H	0.396194	0.592854	0.120685
	H65	H	0.575678	0.606135	0.878272
	H66	H	0.575595	0.404112	0.119907
	H67	H	0.396854	0.406138	0.881335
	H68	H	0.581242	0.115606	0.411155
	H69	H	0.588232	0.882087	0.593621
	H70	H	0.393355	0.117013	0.586202
	H71	H	0.393489	0.880720	0.393875
	H72	H	0.900230	0.614753	0.089925
	H73	H	0.075734	0.381447	0.105694
	H74	H	0.080798	0.617648	0.904805
	H75	H	0.892772	0.383085	0.910110
	H76	H	0.079291	0.901283	0.620379
	H77	H	0.075480	0.096570	0.381569
	H78	H	0.895273	0.095816	0.623048
	H79	H	0.888103	0.901614	0.379174
	H80	H	0.603008	0.089255	0.910950
	H81	H	0.371603	0.094314	0.085180
	H82	H	0.608213	0.900566	0.106074
	H83	H	0.373680	0.905205	0.915105
	H84	H	0.602794	0.899027	0.087121
	H85	H	0.371063	0.089949	0.092954
	H86	H	0.607271	0.098467	0.902492
	H87	H	0.372321	0.912915	0.904752
	H88	H	0.891381	0.084815	0.621221
	H89	H	0.081493	0.092752	0.380625
	H90	H	0.089653	0.908847	0.622062
	H91	H	0.892341	0.916890	0.385162
	H92	H	0.075252	0.614364	0.911911
	H93	H	0.079397	0.386733	0.085121
	H94	H	0.892392	0.616806	0.088227
	H95	H	0.889015	0.382522	0.910624
	H96	H	0.393755	0.118893	0.593033
	H97	H	0.577861	0.882069	0.601749
	H98	H	0.585998	0.118228	0.407291
	H99	H	0.400741	0.888750	0.415600
	H100	H	0.586638	0.407860	0.121639
	H101	H	0.591547	0.589749	0.879063
	H102	H	0.397729	0.586672	0.118870
	H103	H	0.387636	0.408427	0.878678
	H104	H	0.105258	0.599072	0.414751
	H105	H	0.872660	0.588632	0.593110
	H106	H	0.106364	0.408836	0.611043
	H107	H	0.872051	0.404899	0.412536
	H108	H	0.895227	0.617698	0.096588
	H109	H	0.094937	0.378691	0.097939
	H110	H	0.085099	0.616719	0.913708
	H111	H	0.890308	0.382167	0.907625
	H112	H	0.077502	0.913792	0.617382
	H113	H	0.076602	0.089747	0.383228
	H114	H	0.902605	0.087235	0.619055
	H115	H	0.903293	0.905178	0.385397
	H116	H	0.604190	0.101754	0.915457
	H117	H	0.367951	0.098458	0.092536
	H118	H	0.601065	0.916729	0.095511
	H119	H	0.367967	0.900348	0.903396
	C120	C	0.366802	0.009460	0.620840
	C121	C	0.610821	0.992264	0.623076
	C122	C	0.608906	0.008261	0.379334
	C123	C	0.363443	0.991646	0.376825
	C124	C	0.608185	0.380476	0.009220
	C125	C	0.609781	0.622326	0.990836
	C126	C	0.367375	0.620784	0.009828
	C127	C	0.366068	0.379483	0.991541
	C128	C	-0.003588	0.621426	0.380559
	C129	C	0.978983	0.620595	0.623344
	C130	C	-0.004498	0.375196	0.624837
	C131	C	0.978297	0.376423	0.380409
	C132	C	0.866985	0.508080	0.121362
	C133	C	0.111931	0.490532	0.125068
	C134	C	0.108390	0.508216	0.881603
	C135	C	0.863940	0.490989	0.878620
	C136	C	0.109090	0.878953	0.510306
	C137	C	0.108496	0.121278	0.491576
	C138	C	0.867396	0.118887	0.510733
	C139	C	0.866420	0.877818	0.492715
	C140	C	0.497036	0.124437	0.878309
	C141	C	0.478572	0.122073	0.120758
	C142	C	0.495868	0.877094	0.123468
	C143	C	0.479328	0.879056	0.879529
	C144	C	0.370669	0.886160	0.677049
	C145	C	0.608479	0.115919	0.676404
	C146	C	0.602851	0.884578	0.326342
	C147	C	0.368386	0.115513	0.321685
	C148	C	0.661689	0.383141	0.883959
	C149	C	0.667262	0.620843	0.115735
	C150	C	0.308983	0.621093	0.885458
	C151	C	0.312744	0.379365	0.116818
	C152	C	0.874318	0.677729	0.378585
	C153	C	0.101226	0.677207	0.625688
	C154	C	0.872995	0.319126	0.621433
	C155	C	0.101319	0.321683	0.383029
	C156	C	0.871760	0.379290	0.676968
	C157	C	0.102170	0.616062	0.679543
	C158	C	0.873605	0.617703	0.323017
	C159	C	0.102065	0.381077	0.327796
	C160	C	0.367481	0.677002	0.884687
	C161	C	0.609253	0.676422	0.116185
	C162	C	0.605086	0.325901	0.884258
	C163	C	0.370158	0.323109	0.116408
	C164	C	0.663577	0.885338	0.380872
	C165	C	0.667813	0.114427	0.620604
	C166	C	0.311076	0.886389	0.620749
	C167	C	0.308502	0.114423	0.376532
	C168	C	0.870547	0.384148	0.175823
	C169	C	0.108837	0.614014	0.179625
	C170	C	0.103033	0.384099	0.829339
	C171	C	0.868827	0.614534	0.822409
	C172	C	0.161443	0.881355	0.384443
	C173	C	0.166193	0.118989	0.616428
	C174	C	0.811312	0.118132	0.385353
	C175	C	0.811481	0.877927	0.617631
	C176	C	0.374288	0.179838	0.876790
	C177	C	0.601116	0.178051	0.121767
	C178	C	0.373796	0.820351	0.120451
	C179	C	0.601869	0.823570	0.881030
	C180	C	0.372172	0.880838	0.175175
	C181	C	0.601782	0.118026	0.177191
	C182	C	0.373709	0.120706	0.821506
	C183	C	0.603040	0.884501	0.826824
	C184	C	0.867973	0.174982	0.385540
	C185	C	0.108186	0.174676	0.617218
	C186	C	0.105252	0.823243	0.385523
	C187	C	0.869808	0.821962	0.618328
	C188	C	0.163796	0.385501	0.883182
	C189	C	0.168939	0.612900	0.124707
	C190	C	0.809568	0.386046	0.121435
	C191	C	0.809574	0.614117	0.877601
	C192	C	0.389021	0.095290	0.596823
	C193	C	0.587918	0.906334	0.601450
	C194	C	0.588453	0.094606	0.401264
	C195	C	0.384581	0.905866	0.400207
	C196	C	0.586948	0.402383	0.096596
	C197	C	0.586338	0.600112	0.903835
	C198	C	0.391358	0.597273	0.096783
	C199	C	0.386691	0.403000	0.903857
	C200	C	0.081600	0.599589	0.405263
	C201	C	0.893453	0.598877	0.599255
	C202	C	0.081661	0.396967	0.603897
	C203	C	0.892790	0.397589	0.401837
	C204	C	0.889406	0.594181	0.098287
	C205	C	0.089915	0.404506	0.102791
	C206	C	0.086926	0.594240	0.903710
	C207	C	0.884656	0.404919	0.902439
	C208	C	0.088246	0.901275	0.597477
	C209	C	0.084923	0.099486	0.404270
	C210	C	0.889727	0.096004	0.598362
	C211	C	0.888138	0.901074	0.405758
	C212	C	0.582453	0.102946	0.902422
	C213	C	0.392556	0.100424	0.097097
	C214	C	0.581669	0.899128	0.102485
	C215	C	0.393681	0.899841	0.901259
	Zn216	Zn	0.488616	0.002006	0.751385
	Zn217	Zn	0.486079	0.000252	0.250337
	Zn218	Zn	0.736326	0.500833	0.000190
	Zn219	Zn	0.238932	0.499968	0.001729
	Zn220	Zn	-0.012152	0.750408	0.502682
	Zn221	Zn	-0.012870	0.246797	0.501580
	Zn222	Zn	-0.013304	0.498879	0.752443
	Zn223	Zn	-0.011824	0.498862	0.251657
	Zn224	Zn	0.488334	0.748732	0.000749
	Zn225	Zn	0.487285	0.252673	-0.000020
	Zn226	Zn	0.738904	-0.001091	0.500974
	Zn227	Zn	0.236280	0.000742	0.499559
	N228	N	0.404716	0.963642	0.676940
	N229	N	0.573510	0.038747	0.677944
	N230	N	0.569402	0.961960	0.325266
	N231	N	0.401978	0.038172	0.321794
	N232	N	0.663523	0.416546	0.962714
	N233	N	0.668037	0.588386	0.036662
	N234	N	0.309055	0.586552	0.964095
	N235	N	0.310214	0.413810	0.037982
	N236	N	0.951544	0.680109	0.413646
	N237	N	0.023606	0.679972	0.591261
	N238	N	0.950925	0.316505	0.589781
	N239	N	0.023425	0.318576	0.415131
	N240	N	0.949003	0.413567	0.679068
	N241	N	0.025359	0.581441	0.678008
	N242	N	0.950517	0.583507	0.323949
	N243	N	0.024859	0.414279	0.325756
	N244	N	0.403062	0.677035	0.963123
	N245	N	0.574280	0.677554	0.037539
	N246	N	0.572560	0.324144	0.963214
	N247	N	0.402594	0.323108	0.037405
	N248	N	0.667560	0.963451	0.412932
	N249	N	0.669787	0.036399	0.588563
	N250	N	0.308610	0.964142	0.586393
	N251	N	0.305094	0.036524	0.410087
	N252	N	0.905701	0.461123	0.175779
	N253	N	0.074127	0.536818	0.180210
	N254	N	0.069429	0.461511	0.827966
	N255	N	0.901814	0.536900	0.822758
	N256	N	0.164025	0.915226	0.463003
	N257	N	0.166492	0.086465	0.537247
	N258	N	0.810779	0.083966	0.464258
	N259	N	0.808997	0.911751	0.538456
	N260	N	0.451808	0.182410	0.911392
	N261	N	0.523664	0.180603	0.087543
	N262	N	0.451773	0.817886	0.089225
	N263	N	0.523976	0.819787	0.912931
	N264	N	0.449228	0.915340	0.177384
	N265	N	0.524365	0.083783	0.176757
	N266	N	0.450907	0.087223	0.822001
	N267	N	0.526062	0.918551	0.825867
	N268	N	0.902117	0.175599	0.464441
	N269	N	0.073130	0.176195	0.538485
	N270	N	0.073580	0.821548	0.464838
	N271	N	0.903234	0.821779	0.539767
	N272	N	0.167061	0.463739	0.915092
	N273	N	0.170984	0.535224	0.091553
	N274	N	0.807038	0.464369	0.088434
	N275	N	0.806197	0.536398	0.911691
	O276	O	-0.005672	0.046513	-0.031432
	H277	H	-0.011244	0.043802	-0.027778
	H278	H	-0.008444	0.041955	-0.034368
	O279	O	0.430188	0.489127	0.496704
	H280	H	0.430632	0.476075	0.494028
	H281	H	0.429006	0.481393	0.489605
	O282	O	0.381800	0.420940	0.555814
	H283	H	0.389101	0.436910	0.544938
	H284	H	0.378530	0.413948	0.540777
	O285	O	-0.088256	0.924545	1.016084
	H286	H	-0.089388	0.937334	1.015597
	H287	H	-0.088979	0.922947	1.016799
	O288	O	0.608772	0.477398	0.511393
	H289	H	0.617496	0.479658	0.517674
	H290	H	0.616227	0.481960	0.508242
	O291	O	0.939860	0.957328	1.028953
	H292	H	0.941256	0.957494	1.022634
	H293	H	0.939645	0.948420	1.018262
	O294	O	1.552752	0.398261	0.487555
	H295	H	1.559916	0.398919	0.490611
	H296	H	1.555922	0.391664	0.493408
	O297	O	0.978843	-0.077666	1.047830
	H298	H	0.985453	-0.079381	1.043869
	H299	H	0.976078	-0.082342	1.049264
	O300	O	0.475730	0.594446	0.542661
	H301	H	0.469428	0.597800	0.540020
	H302	H	0.469712	0.599067	0.547929
	O303	O	0.948344	0.059182	0.025407
	H304	H	0.955192	0.054796	0.031138
	H305	H	0.948544	0.049083	0.022198
	O306	O	-0.051868	0.962714	1.053008
	H307	H	-0.057034	0.967558	1.047146
	H308	H	-0.069454	0.963041	1.066847
	O309	O	0.423837	0.524302	0.446699
	H310	H	0.426415	0.531539	0.446798
	H311	H	0.420017	0.520427	0.448345
	O312	O	0.954430	-0.020684	0.971292
	H313	H	0.948203	-0.016016	0.969247
	H314	H	0.952746	-0.021036	0.977569
	O315	O	0.462733	0.570842	0.434613
	H316	H	0.461058	0.563456	0.429669
	H317	H	0.457012	0.573311	0.439804
	O318	O	0.554700	0.486230	0.560596
	H319	H	0.559862	0.477377	0.564460
	H320	H	0.560851	0.479852	0.565153
	O321	O	0.950793	0.998671	0.932090
	H322	H	0.940852	1.008028	0.932755
	H323	H	0.944735	0.994590	0.924835
	O324	O	0.935090	-0.080339	0.097293
	H325	H	0.942502	-0.080440	0.097677
	H326	H	0.930319	-0.088120	0.104722
	O327	O	0.525143	0.539805	0.474091
	H328	H	0.531090	0.540333	0.475078
	H329	H	0.523693	0.547283	0.481491
	O330	O	1.019909	0.110770	0.995178
	H331	H	1.015163	0.111311	1.001414
	H332	H	1.032676	0.112802	0.998677
	O333	O	1.443595	1.637194	-0.512886
	H334	H	1.451791	1.619030	-0.502979
	H335	H	1.421963	1.643425	-0.519840
	O336	O	1.012209	0.933322	1.034263
	H337	H	1.017386	0.927273	1.046379
	H338	H	1.012470	0.926194	1.034470
	O339	O	0.457444	0.570142	0.376621
	H340	H	0.462883	0.574043	0.382816
	H341	H	0.450804	0.578400	0.384009
	O342	O	0.039972	1.081856	0.025612
	H343	H	0.046290	1.083804	0.036526
	H344	H	0.047218	1.082197	0.023488
	O345	O	-0.032065	0.047622	-0.033195
	H346	H	-0.031589	0.047604	-0.031451
	H347	H	-0.031381	0.045947	-0.032317
	O348	O	0.534826	0.523244	0.557070
	H349	H	0.535985	0.525756	0.545563
	H350	H	0.529224	0.529080	0.557862
	O351	O	0.520972	0.590502	0.519129
	H352	H	0.513264	0.597853	0.525938
	H353	H	0.525537	0.591185	0.519509
	O354	O	0.586162	0.504336	0.500155
	H355	H	0.578338	0.502595	0.508713
	H356	H	0.596088	0.498894	0.503592
	O357	O	0.479853	0.465118	0.607749
	H358	H	0.481649	0.462203	0.615239
	H359	H	0.469629	0.456135	0.607483
	O360	O	0.055408	0.032766	-0.037161
	H361	H	0.044778	0.031966	-0.029656
	H362	H	0.055425	0.023921	-0.035343
	O363	O	0.432613	0.598977	0.568513
	H364	H	0.420984	0.596397	0.559880
	H365	H	0.434685	0.593497	0.570022
	O366	O	-0.055961	0.011070	1.042962
	H367	H	-0.055895	0.015098	1.035872
	H368	H	-0.061946	0.017389	1.035522
	O369	O	0.379358	0.477424	0.419508
	H370	H	0.386256	0.498334	0.418749
	H371	H	0.365946	0.484742	0.408531
