data_Molecule from HDF5

_cell_length_a		16.030948
_cell_length_b		16.273236
_cell_length_c		16.605311
_cell_angle_alpha	90.366247
_cell_angle_beta	90.088965
_cell_angle_gamma	90.363496
_symmetry_space_group_name_H-M	'P 1'
_symmetry_Int_Tables_number		1

loop_
	_symmetry_equiv_pos_as_xyz
	x,y,z

loop_
	_atom_site_label
	_atom_site_type_symbol
	_atom_site_fract_x
	_atom_site_fract_y
	_atom_site_fract_z
	H0	H	0.389999	0.827650	0.713090
	H1	H	0.611476	0.145378	0.715081
	H2	H	0.607713	0.826978	0.269798
	H3	H	0.394200	0.146031	0.270993
	H4	H	0.717031	0.386040	0.830518
	H5	H	0.721354	0.590073	0.150254
	H6	H	0.283414	0.582724	0.830608
	H7	H	0.281381	0.386747	0.150995
	H8	H	0.837013	0.699558	0.389982
	H9	H	0.166041	0.702129	0.591658
	H10	H	0.834973	0.271675	0.585356
	H11	H	0.166255	0.271799	0.391013
	H12	H	0.837320	0.377151	0.708289
	H13	H	0.162454	0.592745	0.711022
	H14	H	0.839371	0.590318	0.270674
	H15	H	0.164934	0.382062	0.271436
	H16	H	0.393719	0.707588	0.833668
	H17	H	0.605883	0.708490	0.150463
	H18	H	0.605758	0.263073	0.834135
	H19	H	0.396480	0.266931	0.151313
	H20	H	0.711977	0.822236	0.393787
	H21	H	0.716108	0.149852	0.588413
	H22	H	0.284800	0.823799	0.589404
	H23	H	0.289819	0.150219	0.396677
	H24	H	0.891192	0.326379	0.210334
	H25	H	0.111034	0.644188	0.212536
	H26	H	0.107270	0.326452	0.765982
	H27	H	0.891034	0.644623	0.767000
	H28	H	0.217845	0.886929	0.332086
	H29	H	0.219416	0.090302	0.651800
	H30	H	0.783772	0.082027	0.330245
	H31	H	0.782059	0.885177	0.650540
	H32	H	0.335523	0.197717	0.894487
	H33	H	0.665363	0.204448	0.093944
	H34	H	0.336237	0.772636	0.089824
	H35	H	0.664673	0.771294	0.891864
	H36	H	0.339288	0.880016	0.211232
	H37	H	0.663754	0.094425	0.212945
	H38	H	0.339278	0.091319	0.772392
	H39	H	0.662809	0.879773	0.771499
	H40	H	0.896684	0.203070	0.330354
	H41	H	0.104901	0.210005	0.648504
	H42	H	0.106282	0.765544	0.332891
	H43	H	0.895544	0.764614	0.649161
	H44	H	0.212277	0.321690	0.891028
	H45	H	0.214019	0.648907	0.087170
	H46	H	0.783662	0.323807	0.086583
	H47	H	0.787395	0.650275	0.892686
	H48	H	0.417020	0.103316	0.590864
	H49	H	0.585617	0.872210	0.579813
	H50	H	0.588000	0.100996	0.402156
	H51	H	0.410331	0.870925	0.400783
	H52	H	0.594319	0.397551	0.104535
	H53	H	0.594394	0.582837	0.876701
	H54	H	0.413905	0.577783	0.101239
	H55	H	0.414612	0.394169	0.881624
	H56	H	0.118058	0.579519	0.406586
	H57	H	0.883451	0.570504	0.582872
	H58	H	0.115651	0.395482	0.572104
	H59	H	0.882097	0.393579	0.396075
	H60	H	0.114205	0.408589	0.580350
	H61	H	0.882713	0.576683	0.580249
	H62	H	0.116491	0.566361	0.399729
	H63	H	0.884417	0.396107	0.398837
	H64	H	0.408603	0.585060	0.105456
	H65	H	0.591994	0.574445	0.879606
	H66	H	0.587924	0.398827	0.102112
	H67	H	0.408216	0.383683	0.876402
	H68	H	0.592958	0.102608	0.401750
	H69	H	0.593928	0.868892	0.584503
	H70	H	0.419380	0.098770	0.580794
	H71	H	0.411589	0.869834	0.395923
	H72	H	0.915222	0.600699	0.079846
	H73	H	0.080668	0.372177	0.080913
	H74	H	0.084287	0.597790	0.901858
	H75	H	0.914649	0.370892	0.895134
	H76	H	0.088062	0.889866	0.605466
	H77	H	0.092912	0.080999	0.376898
	H78	H	0.908549	0.079301	0.603921
	H79	H	0.909883	0.894026	0.379152
	H80	H	0.617574	0.082786	0.913367
	H81	H	0.384462	0.071362	0.086385
	H82	H	0.616098	0.900731	0.076326
	H83	H	0.387017	0.903363	0.903727
	H84	H	0.618119	0.904413	0.088005
	H85	H	0.382587	0.078058	0.083683
	H86	H	0.612667	0.061139	0.903778
	H87	H	0.382140	0.899552	0.895349
	H88	H	0.912339	0.077771	0.602639
	H89	H	0.097145	0.076952	0.377879
	H90	H	0.096025	0.894986	0.606049
	H91	H	0.910000	0.889170	0.377188
	H92	H	0.094616	0.602205	0.900311
	H93	H	0.092131	0.369621	0.076074
	H94	H	0.910496	0.602330	0.084221
	H95	H	0.910661	0.372566	0.901000
	H96	H	0.408417	0.102914	0.583090
	H97	H	0.585537	0.870334	0.588854
	H98	H	0.589379	0.103097	0.397203
	H99	H	0.415189	0.871686	0.399575
	H100	H	0.589578	0.392766	0.104035
	H101	H	0.585838	0.580838	0.879223
	H102	H	0.404457	0.575656	0.104929
	H103	H	0.402325	0.395507	0.877917
	H104	H	0.122048	0.578686	0.392393
	H105	H	0.886614	0.572180	0.576786
	H106	H	0.120298	0.395594	0.587073
	H107	H	0.883615	0.397014	0.395302
	H108	H	0.917576	0.601182	0.086155
	H109	H	0.089962	0.366640	0.088524
	H110	H	0.086849	0.602584	0.892134
	H111	H	0.906614	0.369368	0.894726
	H112	H	0.088082	0.899042	0.602501
	H113	H	0.091636	0.076581	0.379076
	H114	H	0.912535	0.082208	0.602806
	H115	H	0.905757	0.891984	0.376945
	H116	H	0.623105	0.077866	0.891402
	H117	H	0.386300	0.073179	0.080411
	H118	H	0.621154	0.892791	0.084132
	H119	H	0.382860	0.893400	0.903973
	C120	C	0.380583	-0.004600	0.614045
	C121	C	0.622037	0.977315	0.614092
	C122	C	0.621438	-0.004677	0.369727
	C123	C	0.380644	0.977594	0.369747
	C124	C	0.621914	0.365154	-0.001079
	C125	C	0.622797	0.610362	0.983324
	C126	C	0.377722	0.608623	-0.000917
	C127	C	0.377085	0.362024	0.983599
	C128	C	0.010772	0.605748	0.369299
	C129	C	0.992298	0.605906	0.611308
	C130	C	0.008663	0.366623	0.609623
	C131	C	0.991985	0.364626	0.367311
	C132	C	0.880762	0.494844	0.112183
	C133	C	0.120705	0.476393	0.111534
	C134	C	0.120045	0.494124	0.867692
	C135	C	0.878898	0.477545	0.867359
	C136	C	0.122355	0.864471	0.499511
	C137	C	0.124448	0.109882	0.483086
	C138	C	0.879476	0.108075	0.498225
	C139	C	0.877618	0.861934	0.482400
	C140	C	0.509900	0.105502	0.872290
	C141	C	0.492379	0.107193	0.114352
	C142	C	0.510147	0.867193	0.112453
	C143	C	0.491516	0.866156	0.870087
	C144	C	0.374972	0.875076	0.672555
	C145	C	0.627187	0.098132	0.673467
	C146	C	0.624293	0.874519	0.310525
	C147	C	0.377849	0.098387	0.311752
	C148	C	0.679116	0.365461	0.878867
	C149	C	0.681773	0.609993	0.102677
	C150	C	0.320836	0.604920	0.878933
	C151	C	0.319516	0.365071	0.103416
	C152	C	0.886636	0.662311	0.369939
	C153	C	0.116150	0.664175	0.611225
	C154	C	0.884642	0.308920	0.607009
	C155	C	0.116423	0.308531	0.369567
	C156	C	0.885888	0.361927	0.667882
	C157	C	0.114177	0.609843	0.670977
	C158	C	0.887871	0.607726	0.310663
	C159	C	0.115544	0.363205	0.310081
	C160	C	0.376152	0.666680	0.880343
	C161	C	0.624292	0.669096	0.102852
	C162	C	0.623752	0.304154	0.880655
	C163	C	0.377106	0.305751	0.103524
	C164	C	0.675879	0.872013	0.372608
	C165	C	0.679549	0.100061	0.610841
	C166	C	0.321992	0.873136	0.611331
	C167	C	0.325518	0.100476	0.374203
	C168	C	0.875542	0.373979	0.169895
	C169	C	0.126560	0.596845	0.171319
	C170	C	0.123481	0.373585	0.807595
	C171	C	0.875191	0.597667	0.808077
	C172	C	0.179837	0.866159	0.379923
	C173	C	0.181460	0.110178	0.603255
	C174	C	0.821944	0.103825	0.378031
	C175	C	0.819909	0.863989	0.602311
	C176	C	0.385691	0.161290	0.873749
	C177	C	0.615716	0.166354	0.114107
	C178	C	0.385977	0.809806	0.111039
	C179	C	0.615033	0.808687	0.871246
	C180	C	0.387553	0.863629	0.171031
	C181	C	0.614862	0.111562	0.173405
	C182	C	0.387462	0.108077	0.813171
	C183	C	0.614144	0.862993	0.811563
	C184	C	0.878258	0.163964	0.378072
	C185	C	0.124324	0.169646	0.601806
	C186	C	0.124090	0.805713	0.380386
	C187	C	0.876619	0.804007	0.601775
	C188	C	0.176059	0.371273	0.869663
	C189	C	0.177684	0.599286	0.108828
	C190	C	0.821580	0.372863	0.108568
	C191	C	0.823254	0.600392	0.870520
	C192	C	0.407158	0.079727	0.591644
	C193	C	0.596031	0.892527	0.591305
	C194	C	0.597331	0.080236	0.393311
	C195	C	0.405097	0.892889	0.392178
	C196	C	0.597725	0.389454	0.082000
	C197	C	0.597975	0.586442	0.900122
	C198	C	0.401975	0.586287	0.082194
	C199	C	0.401315	0.384344	0.900282
	C200	C	0.096366	0.581887	0.392668
	C201	C	0.906559	0.580529	0.586906
	C202	C	0.094538	0.392408	0.586548
	C203	C	0.905926	0.388433	0.390086
	C204	C	0.906902	0.579481	0.089829
	C205	C	0.094961	0.391632	0.088514
	C206	C	0.095545	0.578763	0.891163
	C207	C	0.903453	0.392939	0.890178
	C208	C	0.097631	0.887959	0.583015
	C209	C	0.100790	0.085377	0.399689
	C210	C	0.904083	0.086313	0.581401
	C211	C	0.901689	0.884820	0.399389
	C212	C	0.595561	0.081046	0.896059
	C213	C	0.406669	0.081545	0.090504
	C214	C	0.596132	0.892003	0.089418
	C215	C	0.406097	0.891462	0.894024
	Zn216	Zn	0.501186	-0.013380	0.742834
	Zn217	Zn	0.501790	-0.013602	0.241301
	Zn218	Zn	0.752474	0.487414	-0.009939
	Zn219	Zn	0.247427	0.484718	-0.009719
	Zn220	Zn	0.001346	0.733161	0.490735
	Zn221	Zn	0.000875	0.239158	0.489433
	Zn222	Zn	-0.000536	0.485225	0.738905
	Zn223	Zn	0.001688	0.485632	0.240769
	Zn224	Zn	0.500168	0.739929	-0.007987
	Zn225	Zn	0.500799	0.233412	-0.007580
	Zn226	Zn	0.749090	-0.014191	0.490905
	Zn227	Zn	0.253282	-0.013646	0.492312
	N228	N	0.410976	0.952058	0.674282
	N229	N	0.592315	0.020720	0.675778
	N230	N	0.591179	0.952122	0.308699
	N231	N	0.411226	0.020798	0.308678
	N232	N	0.677874	0.402895	0.953230
	N233	N	0.681149	0.574267	0.027484
	N234	N	0.321539	0.569512	0.953756
	N235	N	0.319346	0.399145	0.027978
	N236	N	0.963882	0.661539	0.405745
	N237	N	0.039048	0.661931	0.575006
	N238	N	0.962029	0.311707	0.571544
	N239	N	0.038598	0.309213	0.404350
	N240	N	0.964126	0.397161	0.669593
	N241	N	0.036059	0.574502	0.671353
	N242	N	0.966167	0.573474	0.309681
	N243	N	0.037169	0.396992	0.308334
	N244	N	0.410673	0.669133	0.956032
	N245	N	0.588167	0.669360	0.027500
	N246	N	0.589142	0.303800	0.956464
	N247	N	0.411943	0.303691	0.027890
	N248	N	0.674348	0.948265	0.408835
	N249	N	0.676618	0.023788	0.574789
	N250	N	0.325415	0.948913	0.575483
	N251	N	0.327095	0.024389	0.409648
	N252	N	0.911469	0.450944	0.172338
	N253	N	0.091686	0.519483	0.173033
	N254	N	0.089639	0.451026	0.806032
	N255	N	0.909118	0.520156	0.806086
	N256	N	0.178738	0.902081	0.455026
	N257	N	0.181458	0.073523	0.528329
	N258	N	0.822560	0.069710	0.453482
	N259	N	0.820283	0.899144	0.527327
	N260	N	0.462925	0.159839	0.909839
	N261	N	0.538554	0.163818	0.077973
	N262	N	0.463211	0.811745	0.075389
	N263	N	0.537762	0.810441	0.907011
	N264	N	0.465828	0.898404	0.172135
	N265	N	0.537065	0.075513	0.173660
	N266	N	0.465781	0.074114	0.812108
	N267	N	0.536172	0.897742	0.810584
	N268	N	0.913587	0.166604	0.453603
	N269	N	0.089915	0.169837	0.525978
	N270	N	0.089019	0.804553	0.455872
	N271	N	0.911618	0.802363	0.526165
	N272	N	0.174264	0.447277	0.906314
	N273	N	0.174371	0.523303	0.072434
	N274	N	0.824831	0.449016	0.073287
	N275	N	0.825353	0.524681	0.906503
	O276	O	0.534802	0.511071	0.329381
	H277	H	0.551471	0.507230	0.321160
	H278	H	0.543991	0.518190	0.326407
	O279	O	0.992096	0.890823	0.842468
	H280	H	0.981008	0.887272	0.859820
	H281	H	1.010859	0.873234	0.839997
	O282	O	0.826348	0.086889	0.834004
	H283	H	0.841273	0.082597	0.829179
	H284	H	0.816221	0.083447	0.828365
	O285	O	0.423135	0.431604	0.474514
	H286	H	0.429197	0.444372	0.481520
	H287	H	0.432208	0.434854	0.450386
	O288	O	1.013765	1.031548	1.023265
	H289	H	1.028333	1.022660	1.018491
	H290	H	1.007124	1.042897	1.011498
	O291	O	-0.066405	1.163474	-0.146494
	H292	H	-0.069067	1.162843	-0.151443
	H293	H	-0.052234	1.171125	-0.145871
	O294	O	0.531923	0.376189	0.309181
	H295	H	0.544036	0.370264	0.301194
	H296	H	0.551083	0.373986	0.312632
	O297	O	0.864283	0.833403	0.993493
	H298	H	0.852949	0.845808	1.009675
	H299	H	0.880374	0.832845	0.994628
	O300	O	0.361633	0.491655	0.593748
	H301	H	0.372347	0.486358	0.586476
	H302	H	0.357886	0.489630	0.592856
	O303	O	0.482925	0.661335	0.662211
	H304	H	0.470446	0.662920	0.651416
	H305	H	0.480744	0.680245	0.673261
	O306	O	0.683249	0.398772	0.418216
	H307	H	0.671668	0.386591	0.426163
	H308	H	0.691706	0.404074	0.420035
	O309	O	0.550352	0.533430	0.476391
	H310	H	0.563863	0.536664	0.484424
	H311	H	0.547436	0.542986	0.479915
	O312	O	-0.134138	0.115434	0.013409
	H313	H	-0.119214	0.110642	0.016349
	H314	H	-0.147695	0.132641	-0.004190
	O315	O	0.396207	0.638154	0.415348
	H316	H	0.402386	0.629924	0.413215
	H317	H	0.391857	0.639129	0.424917
	O318	O	0.116822	0.982261	1.140645
	H319	H	0.126458	0.986752	1.142668
	H320	H	0.120721	0.971710	1.147598
	O321	O	0.546805	0.507987	0.430491
	H322	H	0.554088	0.513279	0.430995
	H323	H	0.550066	0.514536	0.438120
	O324	O	-0.323229	1.644992	-0.478918
	H325	H	-0.323298	1.633167	-0.475191
	H326	H	-0.313916	1.649001	-0.472621
	O327	O	0.496126	0.320605	0.479566
	H328	H	0.482834	0.314689	0.466208
	H329	H	0.484158	0.320117	0.475355
	O330	O	-0.000877	-0.130594	1.031834
	H331	H	-0.023117	-0.141307	1.039436
	H332	H	-0.010595	-0.126436	1.030922
	O333	O	-0.617274	0.355059	1.623437
	H334	H	-0.615150	0.356939	1.639851
	H335	H	-0.640921	0.345557	1.618351
	O336	O	0.683574	0.462383	0.395532
	H337	H	0.677777	0.450320	0.398151
	H338	H	0.690957	0.457660	0.411370
	O339	O	0.937647	0.040586	0.048818
	H340	H	0.945414	0.046916	0.046020
	H341	H	0.951154	0.052872	0.053335
	O342	O	0.119689	-0.082857	-0.082700
	H343	H	0.116428	-0.083080	-0.063576
	H344	H	0.107578	-0.070315	-0.092348
	O345	O	1.140255	-0.066287	1.125897
	H346	H	1.141245	-0.084646	1.101186
	H347	H	1.162879	-0.067808	1.146046
	O348	O	0.929277	0.880494	-0.091411
	H349	H	0.926453	0.877654	-0.082611
	H350	H	0.925115	0.870121	-0.090418
	O351	O	0.379596	0.396789	0.521051
	H352	H	0.383511	0.397544	0.528484
	H353	H	0.367202	0.403233	0.523295
	O354	O	1.053751	0.098015	0.827951
	H355	H	1.068424	0.082803	0.818042
	H356	H	1.045287	0.106760	0.852053
	O357	O	0.109298	-0.089943	0.836566
	H358	H	0.105295	-0.103616	0.827795
	H359	H	0.110839	-0.083836	0.837068
	O360	O	0.469900	0.601972	0.534130
	H361	H	0.460260	0.590275	0.532030
	H362	H	0.481107	0.594710	0.528143
	O363	O	0.106189	1.182371	1.123047
	H364	H	0.116322	1.194501	1.134959
	H365	H	0.130571	1.181386	1.130976
	O366	O	0.657422	0.619493	0.645609
	H367	H	0.655963	0.608068	0.625756
	H368	H	0.625987	0.625571	0.655847
	O369	O	-0.568217	0.536226	0.320087
	H370	H	-0.570459	0.538659	0.324308
	H371	H	-0.543655	0.535852	0.315944
	O372	O	0.582329	0.365438	0.573319
	H373	H	0.574502	0.367036	0.585667
	H374	H	0.574997	0.362561	0.576222
	O375	O	0.429998	0.474580	0.439283
	H376	H	0.427786	0.478462	0.443536
	H377	H	0.425105	0.466977	0.436263
	O378	O	1.103559	0.842768	0.002273
	H379	H	1.065332	0.836854	-0.004044
	H380	H	1.097334	0.846531	0.008953
	O381	O	0.955492	0.176406	-0.029595
	H382	H	0.943897	0.176618	-0.035188
	H383	H	0.948625	0.177354	-0.016345
	O384	O	1.337782	0.672367	0.203911
	H385	H	1.349326	0.681800	0.200793
	H386	H	1.338208	0.669369	0.194695
	O387	O	-0.109975	-0.143389	0.189746
	H388	H	-0.123991	-0.131770	0.194050
	H389	H	-0.104513	-0.147127	0.195947
	O390	O	-0.181633	0.999598	-0.181053
	H391	H	-0.179059	0.997432	-0.184196
	H392	H	-0.186624	0.981246	-0.195002
	O393	O	0.996170	1.070638	1.179642
	H394	H	1.003253	1.068142	1.179653
	H395	H	0.995850	1.079195	1.192294
	O396	O	0.425332	0.346694	0.661358
	H397	H	0.429964	0.358414	0.677734
	H398	H	0.412061	0.332897	0.658195
	O399	O	0.082521	0.788264	0.930078
	H400	H	0.087503	0.794661	0.913258
	H401	H	0.094242	0.775095	0.912965
	O402	O	0.468615	0.581098	0.576119
	H403	H	0.465259	0.567351	0.582089
	H404	H	0.461658	0.574711	0.578491
	O405	O	0.875151	0.850032	0.095679
	H406	H	0.865386	0.854442	0.102832
	H407	H	0.876370	0.858989	0.100066
	O408	O	1.117605	1.063691	-0.052321
	H409	H	1.093504	1.066501	-0.043792
	H410	H	1.107571	1.064033	-0.047288
	O411	O	1.143313	0.124831	1.105301
	H412	H	1.139990	0.118127	1.096309
	H413	H	1.157912	0.114810	1.111397
	O414	O	0.682979	0.469565	0.661870
	H415	H	0.673462	0.487849	0.653703
	H416	H	0.694120	0.468275	0.684970
	O417	O	0.450824	0.544033	0.471900
	H418	H	0.461317	0.553590	0.464230
	H419	H	0.434122	0.538068	0.471084
