data_Molecule from HDF5

_cell_length_a		16.027866
_cell_length_b		16.386482
_cell_length_c		16.220506
_cell_angle_alpha	90.361396
_cell_angle_beta	90.025291
_cell_angle_gamma	90.699398
_symmetry_space_group_name_H-M	'P 1'
_symmetry_Int_Tables_number		1

loop_
	_symmetry_equiv_pos_as_xyz
	x,y,z

loop_
	_atom_site_label
	_atom_site_type_symbol
	_atom_site_fract_x
	_atom_site_fract_y
	_atom_site_fract_z
	H0	H	0.399364	0.843954	0.715070
	H1	H	0.605553	0.168761	0.717614
	H2	H	0.599063	0.843540	0.282740
	H3	H	0.404971	0.169171	0.285880
	H4	H	0.712671	0.413759	0.833905
	H5	H	0.716539	0.605732	0.165562
	H6	H	0.292540	0.599872	0.834257
	H7	H	0.290469	0.409535	0.164575
	H8	H	0.836317	0.715446	0.402683
	H9	H	0.166256	0.724760	0.603204
	H10	H	0.837834	0.287131	0.600724
	H11	H	0.167749	0.291792	0.398061
	H12	H	0.836507	0.406291	0.713836
	H13	H	0.168960	0.605896	0.711419
	H14	H	0.836443	0.600238	0.288988
	H15	H	0.168229	0.408518	0.286914
	H16	H	0.404347	0.720749	0.835865
	H17	H	0.607125	0.726711	0.163198
	H18	H	0.603736	0.290854	0.836117
	H19	H	0.399119	0.289660	0.162050
	H20	H	0.712299	0.841324	0.402291
	H21	H	0.718555	0.169702	0.597847
	H22	H	0.286470	0.842725	0.594651
	H23	H	0.290826	0.169746	0.403614
	H24	H	0.896775	0.344556	0.215985
	H25	H	0.106542	0.667837	0.219752
	H26	H	0.102601	0.344732	0.781467
	H27	H	0.905650	0.668810	0.785037
	H28	H	0.211993	0.908792	0.334627
	H29	H	0.216280	0.104565	0.664493
	H30	H	0.791657	0.097792	0.334146
	H31	H	0.786463	0.908473	0.665149
	H32	H	0.337779	0.219632	0.897215
	H33	H	0.668104	0.224251	0.100499
	H34	H	0.338897	0.789529	0.100747
	H35	H	0.669231	0.795266	0.898812
	H36	H	0.335681	0.909168	0.209360
	H37	H	0.669140	0.107930	0.213347
	H38	H	0.336558	0.102051	0.787615
	H39	H	0.668359	0.909142	0.785103
	H40	H	0.898953	0.220995	0.337605
	H41	H	0.107562	0.224641	0.662038
	H42	H	0.101757	0.788434	0.337538
	H43	H	0.898057	0.789312	0.665080
	H44	H	0.213620	0.342916	0.902214
	H45	H	0.219287	0.669429	0.098662
	H46	H	0.785082	0.344617	0.096094
	H47	H	0.794457	0.671862	0.905156
	H48	H	0.407449	0.123336	0.595900
	H49	H	0.597240	0.889804	0.588040
	H50	H	0.594775	0.122780	0.402715
	H51	H	0.410218	0.888090	0.397216
	H52	H	0.586491	0.403229	0.118286
	H53	H	0.602765	0.606099	0.880015
	H54	H	0.403537	0.603642	0.120974
	H55	H	0.417571	0.405554	0.882067
	H56	H	0.121254	0.602615	0.413961
	H57	H	0.879441	0.602604	0.597148
	H58	H	0.125241	0.414101	0.603216
	H59	H	0.889016	0.414561	0.421789
	H60	H	0.121151	0.404919	0.583798
	H61	H	0.883663	0.598693	0.588530
	H62	H	0.120306	0.595967	0.410926
	H63	H	0.883658	0.418803	0.398572
	H64	H	0.414307	0.591814	0.114011
	H65	H	0.597489	0.597848	0.883853
	H66	H	0.606031	0.415824	0.120654
	H67	H	0.402663	0.406553	0.878263
	H68	H	0.596495	0.121041	0.409766
	H69	H	0.593706	0.887266	0.599349
	H70	H	0.413121	0.122616	0.598873
	H71	H	0.409508	0.891960	0.408159
	H72	H	0.904337	0.626086	0.096891
	H73	H	0.087368	0.393146	0.089976
	H74	H	0.095774	0.622278	0.906567
	H75	H	0.915772	0.392903	0.908199
	H76	H	0.088780	0.912361	0.616285
	H77	H	0.102123	0.095328	0.380874
	H78	H	0.914629	0.098678	0.616310
	H79	H	0.908809	0.906814	0.383056
	H80	H	0.625297	0.111468	0.907689
	H81	H	0.384792	0.099656	0.088644
	H82	H	0.622921	0.920649	0.096514
	H83	H	0.383842	0.916069	0.902349
	H84	H	0.624341	0.910642	0.092796
	H85	H	0.383752	0.095530	0.094641
	H86	H	0.617392	0.097810	0.919631
	H87	H	0.382284	0.903645	0.906959
	H88	H	0.911550	0.098505	0.617556
	H89	H	0.087567	0.096288	0.384740
	H90	H	0.097604	0.909899	0.620055
	H91	H	0.907745	0.909531	0.383555
	H92	H	0.101513	0.622555	0.909177
	H93	H	0.102896	0.388422	0.090010
	H94	H	0.916294	0.623628	0.103824
	H95	H	0.903645	0.391320	0.911190
	H96	H	0.412372	0.121299	0.592299
	H97	H	0.585814	0.893847	0.591369
	H98	H	0.601012	0.123251	0.405665
	H99	H	0.399414	0.888106	0.402373
	H100	H	0.587189	0.425443	0.111786
	H101	H	0.592802	0.606834	0.881980
	H102	H	0.419800	0.607611	0.116532
	H103	H	0.410529	0.418189	0.883799
	H104	H	0.123137	0.601469	0.406740
	H105	H	0.883608	0.592679	0.596017
	H106	H	0.116469	0.425357	0.586991
	H107	H	0.879167	0.398118	0.407671
	H108	H	0.915223	0.620223	0.090418
	H109	H	0.094459	0.387561	0.103629
	H110	H	0.100120	0.624149	0.903429
	H111	H	0.907362	0.388648	0.900606
	H112	H	0.095408	0.919622	0.616974
	H113	H	0.095224	0.107426	0.379672
	H114	H	0.913097	0.096853	0.616905
	H115	H	0.910355	0.908968	0.384076
	H116	H	0.622127	0.093866	0.900556
	H117	H	0.382057	0.102126	0.094867
	H118	H	0.620437	0.918461	0.086280
	H119	H	0.386732	0.914010	0.914591
	C120	C	0.380193	0.014752	0.622548
	C121	C	0.624035	0.997773	0.622638
	C122	C	0.624160	0.014202	0.377679
	C123	C	0.379745	0.997743	0.376284
	C124	C	0.622794	0.386697	0.008111
	C125	C	0.626843	0.631775	0.991034
	C126	C	0.383350	0.628237	0.008398
	C127	C	0.380944	0.382926	0.990014
	C128	C	0.011512	0.626027	0.381372
	C129	C	0.992444	0.627641	0.622194
	C130	C	0.011532	0.384572	0.620899
	C131	C	0.993704	0.383436	0.379635
	C132	C	0.880751	0.515632	0.123740
	C133	C	0.125745	0.497542	0.123478
	C134	C	0.126102	0.515256	0.877259
	C135	C	0.881838	0.498763	0.878722
	C136	C	0.122202	0.884865	0.508880
	C137	C	0.124837	0.128714	0.490412
	C138	C	0.882866	0.125735	0.508838
	C139	C	0.878905	0.881254	0.492280
	C140	C	0.511830	0.127667	0.879925
	C141	C	0.493567	0.128896	0.121710
	C142	C	0.512442	0.886811	0.120462
	C143	C	0.494303	0.884963	0.879124
	C144	C	0.380254	0.892245	0.676901
	C145	C	0.624610	0.120273	0.678770
	C146	C	0.619899	0.891821	0.321439
	C147	C	0.383850	0.120311	0.322938
	C148	C	0.676683	0.390970	0.883750
	C149	C	0.680482	0.627434	0.115584
	C150	C	0.329279	0.622322	0.883975
	C151	C	0.326814	0.387982	0.114690
	C152	C	0.885894	0.678584	0.382902
	C153	C	0.117087	0.685524	0.621679
	C154	C	0.887021	0.326549	0.620508
	C155	C	0.118319	0.329435	0.379649
	C156	C	0.886208	0.385763	0.676381
	C157	C	0.118689	0.626164	0.675448
	C158	C	0.886095	0.621418	0.326285
	C159	C	0.118455	0.387228	0.324043
	C160	C	0.384863	0.682227	0.884630
	C161	C	0.625896	0.687425	0.114484
	C162	C	0.622346	0.330007	0.884894
	C163	C	0.380558	0.327973	0.113489
	C164	C	0.676155	0.890682	0.381016
	C165	C	0.680636	0.120755	0.619134
	C166	C	0.324333	0.891664	0.616741
	C167	C	0.327286	0.120679	0.381770
	C168	C	0.879014	0.393357	0.177989
	C169	C	0.125939	0.619437	0.180291
	C170	C	0.123046	0.392988	0.820204
	C171	C	0.885432	0.620988	0.823608
	C172	C	0.175940	0.887589	0.384612
	C173	C	0.179936	0.125879	0.614589
	C174	C	0.827929	0.120614	0.384095
	C175	C	0.823581	0.886286	0.615814
	C176	C	0.387066	0.181776	0.879469
	C177	C	0.618641	0.185759	0.120294
	C178	C	0.387744	0.829143	0.119342
	C179	C	0.619496	0.831965	0.879700
	C180	C	0.386354	0.888507	0.173424
	C181	C	0.619090	0.127780	0.176294
	C182	C	0.386398	0.123363	0.824733
	C183	C	0.619167	0.888893	0.823192
	C184	C	0.881737	0.181418	0.385800
	C185	C	0.125426	0.185491	0.613338
	C186	C	0.120919	0.827699	0.386002
	C187	C	0.879050	0.826991	0.615743
	C188	C	0.178093	0.391979	0.880457
	C189	C	0.181900	0.620291	0.119952
	C190	C	0.823093	0.393348	0.118539
	C191	C	0.830022	0.622427	0.883356
	C192	C	0.403926	0.100453	0.601873
	C193	C	0.599438	0.912419	0.599906
	C194	C	0.603521	0.100095	0.399703
	C195	C	0.400312	0.911695	0.396449
	C196	C	0.599978	0.408453	0.094588
	C197	C	0.604304	0.610119	0.904217
	C198	C	0.405890	0.607275	0.094854
	C199	C	0.403614	0.403727	0.903819
	C200	C	0.098853	0.606037	0.403923
	C201	C	0.904942	0.604639	0.600432
	C202	C	0.098447	0.407905	0.598263
	C203	C	0.906405	0.404175	0.402563
	C204	C	0.904929	0.601122	0.103222
	C205	C	0.102001	0.412032	0.101041
	C206	C	0.105349	0.600883	0.899631
	C207	C	0.902704	0.413208	0.900091
	C208	C	0.100361	0.907358	0.595439
	C209	C	0.101771	0.106314	0.404116
	C210	C	0.906207	0.104400	0.594715
	C211	C	0.902193	0.901993	0.405881
	C212	C	0.598996	0.107148	0.902506
	C213	C	0.406106	0.105968	0.099227
	C214	C	0.599832	0.909756	0.098430
	C215	C	0.406914	0.905104	0.901418
	Zn216	Zn	0.502394	0.006307	0.752560
	Zn217	Zn	0.502592	0.007146	0.247607
	Zn218	Zn	0.752395	0.507944	0.000156
	Zn219	Zn	0.254592	0.505300	-0.000279
	Zn220	Zn	0.001291	0.754270	0.501519
	Zn221	Zn	0.002927	0.255694	0.499253
	Zn222	Zn	0.002956	0.506825	0.748918
	Zn223	Zn	0.002637	0.505587	0.252816
	Zn224	Zn	0.504447	0.758389	0.000043
	Zn225	Zn	0.502182	0.255885	-0.000073
	Zn226	Zn	0.752850	0.005290	0.500180
	Zn227	Zn	0.251137	0.006785	0.499501
	N228	N	0.414437	0.969781	0.680601
	N229	N	0.590136	0.042964	0.681060
	N230	N	0.588716	0.969807	0.318921
	N231	N	0.415888	0.042800	0.319693
	N232	N	0.676886	0.425505	0.961319
	N233	N	0.681127	0.593459	0.037602
	N234	N	0.328162	0.589523	0.961888
	N235	N	0.326534	0.421440	0.036962
	N236	N	0.964834	0.681698	0.416367
	N237	N	0.037677	0.686598	0.589369
	N238	N	0.965585	0.326069	0.586549
	N239	N	0.039484	0.326926	0.413344
	N240	N	0.964684	0.421345	0.676781
	N241	N	0.040149	0.590919	0.675921
	N242	N	0.965161	0.589511	0.325236
	N243	N	0.039799	0.419987	0.323624
	N244	N	0.417683	0.685989	0.963114
	N245	N	0.593323	0.690190	0.035975
	N246	N	0.589598	0.327241	0.963456
	N247	N	0.413592	0.324674	0.035211
	N248	N	0.678805	0.967759	0.415258
	N249	N	0.680524	0.043363	0.585034
	N250	N	0.324142	0.968911	0.583812
	N251	N	0.324769	0.043462	0.414542
	N252	N	0.914414	0.470396	0.181215
	N253	N	0.091409	0.542125	0.182467
	N254	N	0.091217	0.470655	0.818073
	N255	N	0.916846	0.543112	0.820433
	N256	N	0.176794	0.922508	0.462115
	N257	N	0.179580	0.091021	0.537147
	N258	N	0.828414	0.086514	0.461480
	N259	N	0.823405	0.919369	0.538080
	N260	N	0.465892	0.184591	0.913215
	N261	N	0.539488	0.186720	0.086928
	N262	N	0.467179	0.827882	0.087018
	N263	N	0.540871	0.829423	0.913833
	N264	N	0.464869	0.923672	0.174194
	N265	N	0.540439	0.093170	0.177242
	N266	N	0.465078	0.090414	0.824593
	N267	N	0.540333	0.921323	0.822835
	N268	N	0.915456	0.184441	0.463980
	N269	N	0.091806	0.187304	0.535131
	N270	N	0.088134	0.825864	0.464409
	N271	N	0.912700	0.823715	0.537676
	N272	N	0.180284	0.468888	0.914974
	N273	N	0.181931	0.543340	0.085508
	N274	N	0.824037	0.470393	0.085400
	N275	N	0.827621	0.545481	0.916996
	O276	O	0.071030	-0.033402	0.093661
	H277	H	0.074948	-0.026557	0.088552
	H278	H	0.066783	-0.046148	0.089721
	O279	O	0.484994	0.524728	0.468300
	H280	H	0.486793	0.527533	0.464654
	H281	H	0.473131	0.531887	0.469705
	O282	O	0.972968	1.153785	1.064149
	H283	H	0.973551	1.148587	1.076239
	H284	H	0.993491	1.157281	1.066774
	O285	O	1.009226	-0.090032	0.949808
	H286	H	0.999144	-0.092356	0.944003
	H287	H	1.016979	-0.093717	0.957739
	O288	O	1.073754	0.066182	0.007864
	H289	H	1.091556	0.067573	0.002339
	H290	H	1.068040	0.064046	-0.002495
	O291	O	0.429476	0.569041	0.496847
	H292	H	0.427246	0.563531	0.500448
	H293	H	0.430951	0.558401	0.495644
	O294	O	0.927265	0.074649	0.965041
	H295	H	0.927088	0.085210	0.966481
	H296	H	0.927571	0.079066	0.975430
	O297	O	-0.040754	0.028707	-0.098757
	H298	H	-0.051379	0.019891	-0.103541
	H299	H	-0.032599	0.029740	-0.106449
	O300	O	0.518556	0.480453	0.453790
	H301	H	0.518057	0.471890	0.457847
	H302	H	0.524149	0.480585	0.463068
	O303	O	1.113145	-0.039318	-0.043124
	H304	H	1.116738	-0.030480	-0.046643
	H305	H	1.120355	-0.042813	-0.052375
	O306	O	0.945215	0.000942	0.051822
	H307	H	0.947037	-0.009089	0.061317
	H308	H	0.945844	0.000154	0.042806
	O309	O	0.041422	0.061249	0.905973
	H310	H	0.028032	0.065959	0.905219
	H311	H	0.040551	0.059868	0.906438
	O312	O	1.039608	0.940040	0.967610
	H313	H	1.030006	0.939382	0.972053
	H314	H	1.032047	0.940683	0.966645
	O315	O	0.516065	0.542739	0.534553
	H316	H	0.518694	0.546126	0.542680
	H317	H	0.509537	0.542273	0.523209
	O318	O	0.473224	0.496877	0.517762
	H319	H	0.475961	0.490208	0.517298
	H320	H	0.471627	0.510568	0.519522
	O321	O	-0.113365	0.922421	1.080109
	H322	H	-0.107166	0.923847	1.081820
	H323	H	-0.112944	0.918834	1.081207
	O324	O	0.026776	-0.100909	-0.069529
	H325	H	0.020992	-0.103474	-0.070513
	H326	H	0.011679	-0.105582	-0.071880
	O327	O	0.042161	0.110875	1.022645
	H328	H	0.037813	0.114877	1.021560
	H329	H	0.041657	0.103396	1.031277
	O330	O	1.023651	1.021510	0.093603
	H331	H	1.016711	1.011448	0.089390
	H332	H	1.047642	1.032054	0.088375
	O333	O	0.451465	0.526527	0.527334
	H334	H	0.446211	0.528854	0.516252
	H335	H	0.450748	0.521193	0.520629
	O336	O	0.477880	0.541737	0.489373
	H337	H	0.467985	0.532588	0.490903
	H338	H	0.477944	0.536475	0.485654
	O339	O	1.010542	0.983210	0.044076
	H340	H	1.018213	0.978701	0.042975
	H341	H	1.010020	0.984663	0.052083
	O342	O	0.429103	0.472271	0.521415
	H343	H	0.423245	0.466980	0.529191
	H344	H	0.429950	0.465070	0.517433
	O345	O	0.533519	0.534340	0.467797
	H346	H	0.538296	0.543868	0.470987
	H347	H	0.532428	0.531309	0.476040
	O348	O	0.002073	0.103406	-0.023184
	H349	H	0.002317	0.115776	-0.029325
	H350	H	-0.003602	0.099906	-0.016641
	O351	O	-0.056266	1.009195	1.100882
	H352	H	-0.064203	0.996750	1.100219
	H353	H	-0.064832	1.014314	1.111816
	O354	O	0.520647	0.494714	0.456303
	H355	H	0.527448	0.505987	0.455854
	H356	H	0.528168	0.489212	0.458049
	O357	O	0.023783	0.973206	0.884063
	H358	H	0.025320	0.976893	0.882089
	H359	H	0.021415	0.973680	0.885406
