data_Molecule from HDF5

_cell_length_a		16.401987
_cell_length_b		16.191768
_cell_length_c		16.029995
_cell_angle_alpha	89.048024
_cell_angle_beta	88.733113
_cell_angle_gamma	91.353789
_symmetry_space_group_name_H-M	'P 1'
_symmetry_Int_Tables_number		1

loop_
	_symmetry_equiv_pos_as_xyz
	x,y,z

loop_
	_atom_site_label
	_atom_site_type_symbol
	_atom_site_fract_x
	_atom_site_fract_y
	_atom_site_fract_z
	H0	H	0.400040	0.833987	0.710101
	H1	H	0.600221	0.165036	0.697501
	H2	H	0.599357	0.832505	0.279275
	H3	H	0.414798	0.163602	0.276628
	H4	H	0.724220	0.402441	0.826996
	H5	H	0.719177	0.599274	0.156991
	H6	H	0.297828	0.602609	0.825313
	H7	H	0.280033	0.389843	0.153344
	H8	H	0.841660	0.713741	0.388600
	H9	H	0.165469	0.719298	0.582641
	H10	H	0.843176	0.274537	0.596998
	H11	H	0.167886	0.291294	0.387494
	H12	H	0.842696	0.392823	0.711008
	H13	H	0.168064	0.599347	0.695531
	H14	H	0.839713	0.591990	0.277955
	H15	H	0.167226	0.408542	0.272318
	H16	H	0.416455	0.712397	0.824979
	H17	H	0.602691	0.711155	0.158020
	H18	H	0.602663	0.295143	0.822511
	H19	H	0.397623	0.278659	0.154659
	H20	H	0.718967	0.835131	0.389443
	H21	H	0.723903	0.161589	0.589559
	H22	H	0.277961	0.837515	0.603538
	H23	H	0.297485	0.164770	0.391954
	H24	H	0.902214	0.334017	0.206407
	H25	H	0.101118	0.664946	0.194294
	H26	H	0.100756	0.333400	0.776017
	H27	H	0.914951	0.663512	0.774540
	H28	H	0.223930	0.904145	0.327925
	H29	H	0.215442	0.099769	0.657946
	H30	H	0.794168	0.101736	0.325313
	H31	H	0.780709	0.890933	0.654275
	H32	H	0.341954	0.214603	0.891191
	H33	H	0.665814	0.220467	0.085785
	H34	H	0.344470	0.772739	0.100049
	H35	H	0.667685	0.792692	0.890217
	H36	H	0.342388	0.893603	0.211932
	H37	H	0.669258	0.098491	0.196568
	H38	H	0.338859	0.092921	0.782270
	H39	H	0.665183	0.906376	0.771949
	H40	H	0.915187	0.209312	0.323114
	H41	H	0.100801	0.212112	0.655558
	H42	H	0.101240	0.797148	0.322508
	H43	H	0.895447	0.777305	0.654486
	H44	H	0.221395	0.335916	0.886660
	H45	H	0.224084	0.661262	0.087224
	H46	H	0.780781	0.336924	0.100410
	H47	H	0.796755	0.664325	0.888326
	H48	H	0.423547	0.111347	0.575774
	H49	H	0.590704	0.877230	0.596509
	H50	H	0.601741	0.116293	0.391887
	H51	H	0.405475	0.880910	0.404845
	H52	H	0.586150	0.413467	0.105757
	H53	H	0.606048	0.600598	0.870675
	H54	H	0.408153	0.587816	0.111970
	H55	H	0.422649	0.415845	0.876947
	H56	H	0.121077	0.605768	0.393358
	H57	H	0.890411	0.578713	0.584473
	H58	H	0.120826	0.411199	0.583994
	H59	H	0.889801	0.397884	0.409373
	H60	H	0.122744	0.401011	0.581163
	H61	H	0.884724	0.591051	0.589471
	H62	H	0.117897	0.593995	0.395151
	H63	H	0.889048	0.408758	0.397470
	H64	H	0.408995	0.579209	0.108548
	H65	H	0.608911	0.593186	0.873853
	H66	H	0.588988	0.399520	0.110557
	H67	H	0.415579	0.397031	0.867374
	H68	H	0.601338	0.114830	0.397103
	H69	H	0.580370	0.887324	0.576678
	H70	H	0.394113	0.120278	0.576815
	H71	H	0.410635	0.881413	0.403630
	H72	H	0.913430	0.618561	0.088654
	H73	H	0.094426	0.379252	0.084239
	H74	H	0.105802	0.613682	0.904319
	H75	H	0.906831	0.380604	0.902492
	H76	H	0.097755	0.905635	0.613009
	H77	H	0.100046	0.091485	0.373873
	H78	H	0.908147	0.089693	0.611099
	H79	H	0.918714	0.913857	0.374656
	H80	H	0.618923	0.099626	0.899129
	H81	H	0.389900	0.087390	0.082149
	H82	H	0.626106	0.900718	0.092735
	H83	H	0.385432	0.894408	0.904578
	H84	H	0.619731	0.899586	0.072739
	H85	H	0.388515	0.084238	0.087884
	H86	H	0.618273	0.092738	0.890838
	H87	H	0.390717	0.903718	0.909851
	H88	H	0.906884	0.082178	0.609511
	H89	H	0.103708	0.101587	0.370456
	H90	H	0.087327	0.914880	0.606390
	H91	H	0.912734	0.899190	0.368762
	H92	H	0.112948	0.620193	0.886153
	H93	H	0.090436	0.381125	0.082173
	H94	H	0.914815	0.615052	0.077040
	H95	H	0.914135	0.382336	0.903523
	H96	H	0.410527	0.122080	0.602577
	H97	H	0.602862	0.879805	0.575594
	H98	H	0.606390	0.117007	0.395657
	H99	H	0.409225	0.881899	0.408082
	H100	H	0.600209	0.410024	0.111072
	H101	H	0.599720	0.594840	0.873767
	H102	H	0.415465	0.584648	0.107913
	H103	H	0.402879	0.413773	0.869219
	H104	H	0.120939	0.597886	0.384414
	H105	H	0.889344	0.590026	0.577017
	H106	H	0.118704	0.407675	0.573429
	H107	H	0.883600	0.393986	0.394564
	H108	H	0.904545	0.620499	0.080822
	H109	H	0.094890	0.381250	0.079518
	H110	H	0.094892	0.614634	0.888364
	H111	H	0.908563	0.384255	0.908486
	H112	H	0.083816	0.900244	0.610131
	H113	H	0.110457	0.092356	0.370811
	H114	H	0.913967	0.084832	0.607685
	H115	H	0.903063	0.912476	0.369441
	H116	H	0.622051	0.103102	0.888546
	H117	H	0.386924	0.090231	0.087104
	H118	H	0.617973	0.917242	0.084081
	H119	H	0.385664	0.904393	0.898158
	C120	C	0.378476	0.008936	0.616849
	C121	C	0.622346	0.990189	0.610388
	C122	C	0.628472	0.007097	0.367536
	C123	C	0.384347	0.990588	0.373684
	C124	C	0.623173	0.380705	-0.000694
	C125	C	0.629939	0.622661	0.982973
	C126	C	0.386687	0.616631	-0.000320
	C127	C	0.380889	0.376338	0.980492
	C128	C	0.012100	0.623674	0.364725
	C129	C	0.995754	0.618862	0.609225
	C130	C	0.013597	0.374051	0.612600
	C131	C	0.995368	0.376585	0.368458
	C132	C	0.879880	0.508767	0.113876
	C133	C	0.123871	0.489639	0.108617
	C134	C	0.130023	0.507617	0.865394
	C135	C	0.884881	0.490576	0.871900
	C136	C	0.122100	0.880641	0.500017
	C137	C	0.129179	0.122460	0.481855
	C138	C	0.884736	0.116633	0.499284
	C139	C	0.879596	0.875969	0.480471
	C140	C	0.511988	0.123671	0.866838
	C141	C	0.496151	0.119569	0.111364
	C142	C	0.514212	0.873546	0.115604
	C143	C	0.494809	0.877090	0.871655
	C144	C	0.379341	0.884092	0.673379
	C145	C	0.621219	0.114961	0.662101
	C146	C	0.621584	0.882369	0.315282
	C147	C	0.391687	0.114563	0.315201
	C148	C	0.683418	0.383428	0.875465
	C149	C	0.682498	0.619547	0.107531
	C150	C	0.334985	0.619854	0.874916
	C151	C	0.320440	0.372703	0.104259
	C152	C	0.889941	0.676024	0.368455
	C153	C	0.117302	0.678887	0.603705
	C154	C	0.891764	0.314481	0.615118
	C155	C	0.118839	0.327091	0.368322
	C156	C	0.891501	0.373213	0.672199
	C157	C	0.118912	0.619163	0.659973
	C158	C	0.888958	0.615690	0.313150
	C159	C	0.118546	0.385449	0.310940
	C160	C	0.394277	0.674283	0.874738
	C161	C	0.624617	0.675398	0.107781
	C162	C	0.622713	0.329923	0.873294
	C163	C	0.378883	0.317338	0.104980
	C164	C	0.681227	0.883597	0.370043
	C165	C	0.682779	0.113280	0.608350
	C166	C	0.318717	0.885884	0.620178
	C167	C	0.333757	0.115023	0.372952
	C168	C	0.881109	0.384178	0.170316
	C169	C	0.122102	0.614811	0.159426
	C170	C	0.123772	0.383195	0.812047
	C171	C	0.892144	0.614496	0.813492
	C172	C	0.183073	0.884302	0.376377
	C173	C	0.179705	0.119668	0.607659
	C174	C	0.832008	0.118958	0.374494
	C175	C	0.820131	0.872691	0.604872
	C176	C	0.389868	0.176585	0.871309
	C177	C	0.617881	0.179874	0.106525
	C178	C	0.392510	0.813284	0.117997
	C179	C	0.618371	0.827712	0.870876
	C180	C	0.391491	0.873440	0.173651
	C181	C	0.619724	0.118774	0.161570
	C182	C	0.388546	0.116260	0.816503
	C183	C	0.617115	0.884531	0.812251
	C184	C	0.892099	0.172698	0.373300
	C185	C	0.122359	0.175310	0.606502
	C186	C	0.121883	0.831067	0.373639
	C187	C	0.877166	0.816057	0.604737
	C188	C	0.183588	0.384396	0.867113
	C189	C	0.183048	0.613128	0.105848
	C190	C	0.820675	0.385799	0.117301
	C191	C	0.833311	0.614759	0.869929
	C192	C	0.402500	0.095561	0.592253
	C193	C	0.598319	0.903885	0.589214
	C194	C	0.609007	0.093582	0.388583
	C195	C	0.403053	0.904080	0.398265
	C196	C	0.598804	0.401522	0.086525
	C197	C	0.610690	0.602207	0.895410
	C198	C	0.405337	0.591328	0.086998
	C199	C	0.406237	0.401542	0.893673
	C200	C	0.097624	0.604702	0.384891
	C201	C	0.910251	0.593760	0.589532
	C202	C	0.098654	0.399333	0.587050
	C203	C	0.909756	0.394841	0.393121
	C204	C	0.903919	0.595524	0.089249
	C205	C	0.100180	0.403082	0.088113
	C206	C	0.110419	0.593768	0.886655
	C207	C	0.904146	0.404578	0.897421
	C208	C	0.096841	0.900874	0.587309
	C209	C	0.110460	0.101195	0.394312
	C210	C	0.903812	0.092533	0.586656
	C211	C	0.904129	0.901367	0.393415
	C212	C	0.597679	0.104381	0.886890
	C213	C	0.410613	0.094721	0.091585
	C214	C	0.599400	0.898609	0.090572
	C215	C	0.409332	0.895418	0.896887
	Zn216	Zn	0.501461	-0.000476	0.741156
	Zn217	Zn	0.505487	-0.002236	0.241949
	Zn218	Zn	0.754350	0.500099	-0.007968
	Zn219	Zn	0.255570	0.498302	-0.010893
	Zn220	Zn	0.002141	0.751068	0.488470
	Zn221	Zn	0.005436	0.245699	0.489691
	Zn222	Zn	0.005722	0.497720	0.740153
	Zn223	Zn	0.002918	0.499240	0.237784
	Zn224	Zn	0.505901	0.746561	-0.008006
	Zn225	Zn	0.503302	0.251519	-0.011153
	Zn226	Zn	0.754193	-0.002236	0.490423
	Zn227	Zn	0.253142	0.000391	0.494397
	N228	N	0.416035	0.961689	0.671411
	N229	N	0.584146	0.037708	0.663462
	N230	N	0.589653	0.960219	0.313368
	N231	N	0.422486	0.036141	0.315525
	N232	N	0.683688	0.414411	0.954913
	N233	N	0.686000	0.587544	0.028816
	N234	N	0.330166	0.584635	0.953556
	N235	N	0.321316	0.408447	0.025652
	N236	N	0.967476	0.681522	0.399340
	N237	N	0.039499	0.678797	0.573032
	N238	N	0.968637	0.314804	0.578942
	N239	N	0.041424	0.321353	0.403449
	N240	N	0.968366	0.409844	0.670727
	N241	N	0.042335	0.582301	0.663470
	N242	N	0.965975	0.583916	0.310541
	N243	N	0.040780	0.415280	0.310675
	N244	N	0.425706	0.672516	0.953629
	N245	N	0.592870	0.677771	0.029106
	N246	N	0.585807	0.328152	0.951458
	N247	N	0.415986	0.319613	0.027000
	N248	N	0.685604	0.962018	0.401928
	N249	N	0.683585	0.034564	0.576987
	N250	N	0.318009	0.964469	0.585893
	N251	N	0.328893	0.036924	0.408478
	N252	N	0.917365	0.461837	0.168410
	N253	N	0.085738	0.537082	0.161407
	N254	N	0.091231	0.460741	0.810555
	N255	N	0.923507	0.536468	0.814514
	N256	N	0.183328	0.914249	0.456079
	N257	N	0.184416	0.087773	0.528853
	N258	N	0.827329	0.084751	0.453719
	N259	N	0.821454	0.909317	0.526589
	N260	N	0.467657	0.181424	0.901623
	N261	N	0.540069	0.180472	0.075780
	N262	N	0.469866	0.813333	0.082703
	N263	N	0.541463	0.822964	0.907269
	N264	N	0.468136	0.910195	0.172415
	N265	N	0.543045	0.082098	0.164884
	N266	N	0.465482	0.084103	0.813507
	N267	N	0.539358	0.914372	0.812500
	N268	N	0.924127	0.171519	0.452018
	N269	N	0.092005	0.177478	0.527243
	N270	N	0.084450	0.828788	0.451555
	N271	N	0.913404	0.817866	0.526225
	N272	N	0.187733	0.462643	0.899283
	N273	N	0.184228	0.534279	0.075164
	N274	N	0.819749	0.464447	0.083232
	N275	N	0.828745	0.536724	0.905733
	O276	O	0.575151	0.377981	0.397485
	H277	H	0.559216	0.370134	0.388970
	H278	H	0.584046	0.377510	0.380537
	O279	O	0.412728	0.415959	0.527939
	H280	H	0.404351	0.419259	0.538831
	H281	H	0.415644	0.408694	0.523838
	O282	O	1.029698	1.032586	-0.103190
	H283	H	1.028583	1.040633	-0.101694
	H284	H	1.023168	1.038616	-0.113416
	O285	O	0.955072	0.042539	0.883456
	H286	H	0.953552	0.049242	0.881248
	H287	H	0.953325	0.054320	0.877680
	O288	O	0.534092	0.544118	0.493846
	H289	H	0.535214	0.550284	0.498445
	H290	H	0.527114	0.546491	0.494820
	O291	O	0.538709	0.397577	0.544789
	H292	H	0.543718	0.400784	0.537074
	H293	H	0.539155	0.386071	0.547852
	O294	O	0.343349	0.508824	0.493267
	H295	H	0.347863	0.500784	0.496118
	H296	H	0.344702	0.496833	0.502524
	O297	O	-0.012554	-0.058165	1.016714
	H298	H	-0.007075	-0.045219	1.012160
	H299	H	-0.022199	-0.060669	1.013222
	O300	O	0.469046	0.488695	0.618210
	H301	H	0.473340	0.477052	0.613978
	H302	H	0.466241	0.491015	0.618363
	O303	O	0.570729	0.430701	-0.485954
	H304	H	0.565121	0.433774	-0.486381
	H305	H	0.579121	0.427419	-0.477015
	O306	O	-0.085945	0.987648	1.042577
	H307	H	-0.081777	0.981596	1.045071
	H308	H	-0.092187	0.984446	1.046612
	O309	O	0.592457	0.476210	0.484646
	H310	H	0.598417	0.479949	0.486131
	H311	H	0.598414	0.485696	0.490669
	O312	O	0.014743	0.051162	0.060015
	H313	H	0.004691	0.047595	0.051581
	H314	H	0.025838	0.041902	0.065521
	O315	O	1.111628	-0.001975	0.047363
	H316	H	1.107117	-0.008207	0.047873
	H317	H	1.108210	-0.000789	0.058762
	O318	O	0.982531	0.993963	0.985226
	H319	H	0.979027	0.985685	0.985926
	H320	H	0.988076	0.987997	0.980852
	O321	O	0.485688	0.536385	1.451833
	H322	H	0.483866	0.521659	1.450591
	H323	H	0.505408	0.537005	1.453898
	O324	O	0.575511	0.535847	0.391290
	H325	H	0.567436	0.522664	0.396004
	H326	H	0.572443	0.536246	0.374529
	O327	O	-0.060505	0.023557	0.060254
	H328	H	-0.077890	0.011102	0.071155
	H329	H	-0.063824	0.020539	0.046121
	O330	O	0.506103	0.433925	0.455877
	H331	H	0.496024	0.444162	0.460114
	H332	H	0.496866	0.424781	0.452151
	O333	O	-0.044926	0.978541	0.936994
	H334	H	-0.037560	0.985885	0.936406
	H335	H	-0.039692	0.984109	0.938986
	O336	O	-0.014463	0.045856	-0.048949
	H337	H	-0.008529	0.045591	-0.046806
	H338	H	-0.015824	0.052956	-0.040784
	O339	O	0.490115	0.471688	0.522713
	H340	H	0.479146	0.464542	0.519337
	H341	H	0.486767	0.476348	0.524502
	O342	O	1.094171	0.951128	1.008652
	H343	H	1.101904	0.967067	1.014181
	H344	H	1.101656	0.947379	0.999864
	O345	O	1.029715	1.070362	-0.016020
	H346	H	1.033777	1.071167	-0.007168
	H347	H	1.023220	1.064545	-0.003118
	O348	O	0.510365	0.611733	0.386516
	H349	H	0.505505	0.603527	0.393821
	H350	H	0.519069	0.618444	0.381936
	O351	O	0.400374	0.292032	0.615750
	H352	H	0.393356	0.303257	0.621509
	H353	H	0.406441	0.292513	0.611878
	O354	O	0.473446	0.647030	0.513995
	H355	H	0.476868	0.645964	0.518071
	H356	H	0.467832	0.639169	0.507725
	O357	O	0.415289	0.521594	1.580333
	H358	H	0.401745	0.515185	1.579614
	H359	H	0.416054	0.523588	1.583568
	O360	O	0.520582	0.438720	0.546485
	H361	H	0.531642	0.438032	0.547676
	H362	H	0.515132	0.458950	0.542567
	O363	O	1.041894	0.989565	0.929827
	H364	H	1.043890	0.995914	0.943208
	H365	H	1.045362	0.974676	0.941225
	O366	O	0.922080	1.019271	1.013311
	H367	H	0.924965	1.013760	1.018538
	H368	H	0.936910	1.017842	1.009852
	O369	O	1.033046	-0.055876	1.115244
	H370	H	1.014021	-0.048925	1.115138
	H371	H	1.017774	-0.068405	1.125228
	O372	O	0.018166	-0.086275	0.073408
	H373	H	0.019967	-0.093870	0.060353
	H374	H	0.011927	-0.097035	0.082369
	O375	O	0.614371	-0.363594	0.306647
	H376	H	0.611224	-0.362027	0.321770
	H377	H	0.608322	-0.377146	0.309524
	O378	O	0.533632	0.557958	0.538704
	H379	H	0.527222	0.562096	0.533566
	H380	H	0.538301	0.560163	0.538565
	O381	O	0.382742	0.487058	0.465615
	H382	H	0.381867	0.495600	0.463171
	H383	H	0.382979	0.489447	0.469418
