data_Molecule from HDF5

_cell_length_a		16.219263
_cell_length_b		16.234132
_cell_length_c		16.312818
_cell_angle_alpha	89.921433
_cell_angle_beta	90.129592
_cell_angle_gamma	90.025084
_symmetry_space_group_name_H-M	'P 1'
_symmetry_Int_Tables_number		1

loop_
	_symmetry_equiv_pos_as_xyz
	x,y,z

loop_
	_atom_site_label
	_atom_site_type_symbol
	_atom_site_fract_x
	_atom_site_fract_y
	_atom_site_fract_z
	H0	H	0.402359	0.840130	0.721238
	H1	H	0.600098	0.168129	0.720011
	H2	H	0.600835	0.840190	0.293163
	H3	H	0.402564	0.167261	0.290839
	H4	H	0.716562	0.404329	0.842801
	H5	H	0.716475	0.599419	0.169631
	H6	H	0.287788	0.600898	0.842688
	H7	H	0.289650	0.406153	0.170272
	H8	H	0.837361	0.716853	0.408087
	H9	H	0.166549	0.717952	0.604228
	H10	H	0.837671	0.290812	0.603362
	H11	H	0.166566	0.289779	0.408593
	H12	H	0.838024	0.405054	0.720147
	H13	H	0.166102	0.603191	0.722280
	H14	H	0.838821	0.604232	0.290727
	H15	H	0.166492	0.404589	0.292583
	H16	H	0.404431	0.717628	0.842331
	H17	H	0.603010	0.717297	0.169626
	H18	H	0.600364	0.288898	0.842601
	H19	H	0.403261	0.288335	0.169826
	H20	H	0.715496	0.840389	0.408618
	H21	H	0.716357	0.167998	0.604809
	H22	H	0.287578	0.840166	0.604367
	H23	H	0.288514	0.168606	0.408371
	H24	H	0.903647	0.340152	0.221682
	H25	H	0.101901	0.668082	0.221498
	H26	H	0.102193	0.339956	0.792198
	H27	H	0.902881	0.667215	0.792144
	H28	H	0.215321	0.905416	0.342333
	H29	H	0.217262	0.102192	0.669422
	H30	H	0.786852	0.103078	0.342742
	H31	H	0.788656	0.906492	0.669742
	H32	H	0.337831	0.217492	0.907407
	H33	H	0.667460	0.215902	0.103111
	H34	H	0.338248	0.789088	0.103758
	H35	H	0.667903	0.791079	0.909284
	H36	H	0.338263	0.904796	0.220230
	H37	H	0.666715	0.101218	0.221051
	H38	H	0.338324	0.102549	0.790907
	H39	H	0.666909	0.905786	0.792494
	H40	H	0.903446	0.219391	0.342832
	H41	H	0.101954	0.218801	0.670139
	H42	H	0.100132	0.789053	0.342582
	H43	H	0.902542	0.788058	0.669479
	H44	H	0.215500	0.339463	0.909986
	H45	H	0.217126	0.668262	0.104890
	H46	H	0.788849	0.339585	0.103700
	H47	H	0.789441	0.667549	0.908381
	H48	H	0.404581	0.123355	0.602774
	H49	H	0.599204	0.884953	0.603034
	H50	H	0.597959	0.121027	0.419620
	H51	H	0.404844	0.885410	0.410905
	H52	H	0.589844	0.411044	0.119987
	H53	H	0.596119	0.596731	0.889753
	H54	H	0.409788	0.601351	0.123809
	H55	H	0.406645	0.410112	0.889673
	H56	H	0.117875	0.596436	0.418460
	H57	H	0.888405	0.587952	0.597542
	H58	H	0.119826	0.413432	0.603683
	H59	H	0.883990	0.409261	0.411080
	H60	H	0.120558	0.408326	0.599438
	H61	H	0.881997	0.599269	0.608332
	H62	H	0.118410	0.593137	0.412081
	H63	H	0.885400	0.410818	0.415554
	H64	H	0.406415	0.595037	0.123306
	H65	H	0.594323	0.597948	0.889483
	H66	H	0.596678	0.404191	0.125390
	H67	H	0.409193	0.410883	0.890469
	H68	H	0.598406	0.124266	0.407462
	H69	H	0.590329	0.887580	0.602711
	H70	H	0.415115	0.120183	0.601962
	H71	H	0.412718	0.887480	0.410792
	H72	H	0.912993	0.619990	0.099681
	H73	H	0.095030	0.387491	0.100034
	H74	H	0.094715	0.622029	0.909669
	H75	H	0.914512	0.386764	0.910374
	H76	H	0.092998	0.907501	0.621736
	H77	H	0.098221	0.095030	0.389897
	H78	H	0.910978	0.099241	0.622877
	H79	H	0.904848	0.902702	0.385908
	H80	H	0.618221	0.094148	0.915363
	H81	H	0.385342	0.093058	0.101126
	H82	H	0.616557	0.916280	0.094476
	H83	H	0.387684	0.914829	0.917431
	H84	H	0.622279	0.913105	0.110752
	H85	H	0.384106	0.098565	0.099569
	H86	H	0.620618	0.095370	0.909130
	H87	H	0.385173	0.913086	0.908939
	H88	H	0.907212	0.097302	0.623076
	H89	H	0.090312	0.096363	0.391628
	H90	H	0.098938	0.911562	0.623347
	H91	H	0.902453	0.918369	0.390685
	H92	H	0.090723	0.618562	0.915527
	H93	H	0.097767	0.385969	0.100672
	H94	H	0.908354	0.620598	0.096650
	H95	H	0.907562	0.387578	0.918031
	H96	H	0.408857	0.119199	0.593236
	H97	H	0.595570	0.887490	0.594420
	H98	H	0.587800	0.119147	0.412283
	H99	H	0.408294	0.887797	0.417574
	H100	H	0.599953	0.414786	0.122211
	H101	H	0.596347	0.598053	0.888335
	H102	H	0.413443	0.594944	0.120833
	H103	H	0.408891	0.408380	0.888841
	H104	H	0.120846	0.599509	0.412790
	H105	H	0.884658	0.603675	0.592664
	H106	H	0.117811	0.414270	0.597807
	H107	H	0.885788	0.414002	0.411916
	H108	H	0.907865	0.621812	0.101650
	H109	H	0.095878	0.386513	0.102622
	H110	H	0.097976	0.620872	0.916406
	H111	H	0.905008	0.383149	0.908532
	H112	H	0.093170	0.914320	0.620747
	H113	H	0.094579	0.102582	0.388976
	H114	H	0.910535	0.095333	0.621312
	H115	H	0.917128	0.911596	0.393035
	H116	H	0.620293	0.100594	0.913734
	H117	H	0.386866	0.094825	0.096013
	H118	H	0.622292	0.900703	0.098808
	H119	H	0.385463	0.906337	0.915244
	C120	C	0.380183	0.012757	0.628009
	C121	C	0.623482	0.995265	0.627988
	C122	C	0.622901	0.012642	0.385534
	C123	C	0.380048	0.995477	0.384485
	C124	C	0.623496	0.381975	0.014495
	C125	C	0.624509	0.625258	0.997394
	C126	C	0.380824	0.625542	0.014395
	C127	C	0.380505	0.381630	0.997904
	C128	C	0.010647	0.625463	0.385288
	C129	C	0.993380	0.625813	0.628437
	C130	C	0.010829	0.383027	0.628226
	C131	C	0.994081	0.382943	0.384974
	C132	C	0.881257	0.512263	0.127791
	C133	C	0.124705	0.495374	0.128976
	C134	C	0.123249	0.512273	0.885482
	C135	C	0.880679	0.494646	0.884275
	C136	C	0.123755	0.882325	0.514384
	C137	C	0.123622	0.126223	0.498175
	C138	C	0.880241	0.126312	0.514623
	C139	C	0.880139	0.882294	0.497987
	C140	C	0.510805	0.125451	0.884211
	C141	C	0.494035	0.124373	0.127652
	C142	C	0.511196	0.881738	0.128562
	C143	C	0.494614	0.882772	0.885310
	C144	C	0.382233	0.889214	0.683079
	C145	C	0.620958	0.118935	0.682535
	C146	C	0.620974	0.889223	0.330744
	C147	C	0.382152	0.118553	0.328809
	C148	C	0.678575	0.384158	0.891509
	C149	C	0.679406	0.621130	0.120488
	C150	C	0.325456	0.622337	0.891464
	C151	C	0.326454	0.384947	0.121242
	C152	C	0.886795	0.679765	0.387876
	C153	C	0.117357	0.680604	0.625678
	C154	C	0.886714	0.328334	0.624265
	C155	C	0.117624	0.327794	0.388068
	C156	C	0.887206	0.384784	0.682631
	C157	C	0.117148	0.623565	0.683832
	C158	C	0.887548	0.623905	0.329060
	C159	C	0.117572	0.384802	0.330355
	C160	C	0.383349	0.680303	0.891440
	C161	C	0.622421	0.679317	0.120737
	C162	C	0.620721	0.326946	0.891309
	C163	C	0.382859	0.326324	0.120920
	C164	C	0.677708	0.889203	0.388304
	C165	C	0.678420	0.118946	0.625072
	C166	C	0.325452	0.889085	0.624776
	C167	C	0.325476	0.119301	0.387201
	C168	C	0.883374	0.388981	0.183393
	C169	C	0.122152	0.619223	0.183548
	C170	C	0.122096	0.388809	0.830300
	C171	C	0.882842	0.618150	0.829674
	C172	C	0.177965	0.885142	0.391183
	C173	C	0.179323	0.123064	0.620872
	C174	C	0.824621	0.123882	0.391561
	C175	C	0.825723	0.885200	0.620856
	C176	C	0.387136	0.179875	0.887128
	C177	C	0.618178	0.178542	0.124327
	C178	C	0.387262	0.826966	0.124712
	C179	C	0.618551	0.828526	0.888366
	C180	C	0.387320	0.884172	0.182776
	C181	C	0.617788	0.121872	0.182891
	C182	C	0.387294	0.123122	0.828987
	C183	C	0.617976	0.885302	0.830104
	C184	C	0.882667	0.181412	0.391472
	C185	C	0.121804	0.181081	0.621229
	C186	C	0.120668	0.827252	0.391338
	C187	C	0.882464	0.826470	0.620608
	C188	C	0.178230	0.388504	0.889003
	C189	C	0.179651	0.619254	0.125993
	C190	C	0.826284	0.388650	0.124928
	C191	C	0.826319	0.618301	0.887606
	C192	C	0.402686	0.098786	0.605746
	C193	C	0.601502	0.909105	0.606415
	C194	C	0.601085	0.099222	0.406871
	C195	C	0.402022	0.909270	0.406563
	C196	C	0.601792	0.403636	0.100224
	C197	C	0.602073	0.603830	0.911325
	C198	C	0.403166	0.603524	0.100497
	C199	C	0.401892	0.403269	0.911981
	C200	C	0.096921	0.602937	0.407798
	C201	C	0.907436	0.603411	0.606163
	C202	C	0.097135	0.405360	0.606788
	C203	C	0.907424	0.404912	0.406435
	C204	C	0.903356	0.598565	0.105844
	C205	C	0.102622	0.409169	0.107588
	C206	C	0.100965	0.598248	0.907395
	C207	C	0.902761	0.408094	0.905900
	C208	C	0.101657	0.904576	0.599909
	C209	C	0.101267	0.104294	0.412296
	C210	C	0.902856	0.104072	0.600198
	C211	C	0.901795	0.904310	0.412027
	C212	C	0.597320	0.103212	0.906341
	C213	C	0.407809	0.101967	0.105502
	C214	C	0.597901	0.903709	0.107721
	C215	C	0.408381	0.904992	0.907408
	Zn216	Zn	0.502168	0.003961	0.756075
	Zn217	Zn	0.502493	0.003836	0.257233
	Zn218	Zn	0.752971	0.503239	0.005322
	Zn219	Zn	0.252006	0.503960	0.006540
	Zn220	Zn	0.002117	0.753543	0.506056
	Zn221	Zn	0.002244	0.254814	0.506839
	Zn222	Zn	0.002434	0.503702	0.756731
	Zn223	Zn	0.002771	0.504400	0.257023
	Zn224	Zn	0.503226	0.754446	0.006251
	Zn225	Zn	0.502038	0.253089	0.006258
	Zn226	Zn	0.751446	0.004176	0.506191
	Zn227	Zn	0.251793	0.003898	0.505857
	N228	N	0.415589	0.966958	0.685181
	N229	N	0.587567	0.041004	0.684527
	N230	N	0.587465	0.967018	0.329014
	N231	N	0.415257	0.040628	0.327085
	N232	N	0.680325	0.417782	0.968925
	N233	N	0.680838	0.588390	0.042756
	N234	N	0.324027	0.588979	0.968934
	N235	N	0.324897	0.418862	0.043953
	N236	N	0.964326	0.680553	0.422228
	N237	N	0.039560	0.682150	0.592103
	N238	N	0.964769	0.326882	0.591274
	N239	N	0.039747	0.326696	0.421480
	N240	N	0.965068	0.418246	0.684887
	N241	N	0.039098	0.590212	0.685720
	N242	N	0.965556	0.590571	0.327508
	N243	N	0.039743	0.418596	0.328591
	N244	N	0.416941	0.682411	0.969031
	N245	N	0.588809	0.681884	0.043148
	N246	N	0.587231	0.325188	0.968680
	N247	N	0.415839	0.324088	0.043425
	N248	N	0.678753	0.966816	0.421896
	N249	N	0.680125	0.041127	0.591797
	N250	N	0.324104	0.966938	0.591231
	N251	N	0.324126	0.041776	0.421129
	N252	N	0.916703	0.466787	0.185317
	N253	N	0.088789	0.541329	0.185525
	N254	N	0.088680	0.466723	0.827930
	N255	N	0.915996	0.540307	0.827609
	N256	N	0.180257	0.918432	0.468698
	N257	N	0.180254	0.089532	0.543509
	N258	N	0.823146	0.090078	0.469082
	N259	N	0.824279	0.919234	0.543612
	N260	N	0.465212	0.181631	0.920416
	N261	N	0.540206	0.180360	0.090838
	N262	N	0.465436	0.825017	0.092155
	N263	N	0.540906	0.826884	0.921946
	N264	N	0.465226	0.917553	0.185243
	N265	N	0.539599	0.089112	0.185212
	N266	N	0.465199	0.089915	0.827198
	N267	N	0.539842	0.918431	0.828138
	N268	N	0.916378	0.183012	0.468806
	N269	N	0.087676	0.182998	0.543969
	N270	N	0.087430	0.825584	0.468813
	N271	N	0.915668	0.824725	0.543147
	N272	N	0.178881	0.466040	0.922860
	N273	N	0.181484	0.541338	0.092884
	N274	N	0.824755	0.466253	0.091212
	N275	N	0.824798	0.540205	0.920574
	O276	O	0.490615	0.541078	0.486477
	H277	H	0.501122	0.536275	0.488694
	H278	H	0.492524	0.540033	0.481139
	O279	O	0.082730	0.002953	-0.055724
	H280	H	0.092091	0.001248	-0.058508
	H281	H	0.087995	-0.001366	-0.054855
	O282	O	0.542817	0.523769	0.505582
	H283	H	0.552871	0.523871	0.503320
	H284	H	0.547716	0.530511	0.507680
	O285	O	0.556003	0.552055	0.449982
	H286	H	0.537522	0.549270	0.442812
	H287	H	0.558563	0.562250	0.441902
	O288	O	1.073070	0.004422	-0.040839
	H289	H	1.067042	0.008211	-0.050641
	H290	H	1.075508	-0.002495	-0.044224
	O291	O	-0.483645	0.571477	-0.517266
	H292	H	-0.487503	0.576593	-0.526734
	H293	H	-0.484902	0.570783	-0.514901
	O294	O	0.507081	0.478774	0.404054
	H295	H	0.499231	0.464712	0.402002
	H296	H	0.507857	0.474713	0.402755
	O297	O	0.069530	1.034730	-0.024670
	H298	H	0.065030	1.034590	-0.026435
	H299	H	0.068566	1.036907	-0.015094
	O300	O	1.093223	0.013023	0.936500
	H301	H	1.098166	0.014779	0.946341
	H302	H	1.099112	0.014643	0.932181
	O303	O	0.499972	0.555166	0.477608
	H304	H	0.501617	0.553461	0.471150
	H305	H	0.495145	0.559624	0.483885
	O306	O	0.097673	1.005143	0.923045
	H307	H	0.092791	1.009876	0.917157
	H308	H	0.101486	1.006161	0.919335
	O309	O	0.488924	0.503365	0.443037
	H310	H	0.493173	0.503632	0.448258
	H311	H	0.488643	0.502980	0.451972
