data_Molecule from HDF5

_cell_length_a		16.235953
_cell_length_b		16.347600
_cell_length_c		16.200680
_cell_angle_alpha	89.845178
_cell_angle_beta	90.150451
_cell_angle_gamma	90.339550
_symmetry_space_group_name_H-M	'P 1'
_symmetry_Int_Tables_number		1

loop_
	_symmetry_equiv_pos_as_xyz
	x,y,z

loop_
	_atom_site_label
	_atom_site_type_symbol
	_atom_site_fract_x
	_atom_site_fract_y
	_atom_site_fract_z
	H0	H	0.409062	0.841592	0.714744
	H1	H	0.606873	0.169103	0.715061
	H2	H	0.604859	0.841870	0.287256
	H3	H	0.411281	0.168279	0.285292
	H4	H	0.718590	0.408897	0.835728
	H5	H	0.720456	0.601579	0.165775
	H6	H	0.295196	0.600567	0.836076
	H7	H	0.292943	0.405266	0.165408
	H8	H	0.844072	0.721859	0.399351
	H9	H	0.171089	0.721849	0.600780
	H10	H	0.845414	0.288123	0.600649
	H11	H	0.170725	0.291325	0.400303
	H12	H	0.842946	0.407497	0.711789
	H13	H	0.171279	0.604759	0.715052
	H14	H	0.842750	0.602531	0.286919
	H15	H	0.171487	0.409114	0.287454
	H16	H	0.407772	0.719032	0.837138
	H17	H	0.607366	0.719521	0.164600
	H18	H	0.604998	0.292308	0.836458
	H19	H	0.408234	0.289402	0.165426
	H20	H	0.721812	0.842554	0.404041
	H21	H	0.723590	0.168989	0.600174
	H22	H	0.291604	0.843041	0.599123
	H23	H	0.295467	0.169667	0.401280
	H24	H	0.907808	0.342390	0.215837
	H25	H	0.106122	0.668782	0.215280
	H26	H	0.103641	0.341658	0.785831
	H27	H	0.910026	0.669367	0.786030
	H28	H	0.218757	0.911126	0.335207
	H29	H	0.223196	0.104289	0.664664
	H30	H	0.793226	0.104145	0.337185
	H31	H	0.795382	0.907088	0.665885
	H32	H	0.343160	0.218319	0.900223
	H33	H	0.670899	0.220994	0.100640
	H34	H	0.343744	0.789460	0.099457
	H35	H	0.671357	0.791152	0.901716
	H36	H	0.342649	0.906372	0.213050
	H37	H	0.672211	0.102124	0.213894
	H38	H	0.342581	0.099890	0.788103
	H39	H	0.671811	0.908432	0.788242
	H40	H	0.908946	0.219509	0.336577
	H41	H	0.108340	0.220491	0.663885
	H42	H	0.106773	0.791864	0.336979
	H43	H	0.909482	0.791068	0.664661
	H44	H	0.220358	0.341591	0.902807
	H45	H	0.224523	0.667510	0.101000
	H46	H	0.791882	0.341822	0.098740
	H47	H	0.792710	0.668738	0.901542
	H48	H	0.415774	0.120916	0.590920
	H49	H	0.607480	0.886242	0.599472
	H50	H	0.600160	0.121714	0.405812
	H51	H	0.422817	0.891043	0.404203
	H52	H	0.599039	0.401285	0.121452
	H53	H	0.589619	0.604633	0.884832
	H54	H	0.420967	0.595014	0.116529
	H55	H	0.421879	0.411952	0.886117
	H56	H	0.120791	0.597254	0.416717
	H57	H	0.890313	0.598329	0.594411
	H58	H	0.122963	0.412567	0.583427
	H59	H	0.889098	0.407308	0.407298
	H60	H	0.123574	0.422732	0.598236
	H61	H	0.889516	0.601358	0.593221
	H62	H	0.124173	0.595104	0.402599
	H63	H	0.891773	0.412015	0.412141
	H64	H	0.414995	0.602217	0.120145
	H65	H	0.608693	0.604234	0.879011
	H66	H	0.608692	0.418079	0.118545
	H67	H	0.410001	0.402791	0.880735
	H68	H	0.599494	0.120204	0.410234
	H69	H	0.594549	0.890544	0.598430
	H70	H	0.412920	0.123161	0.595049
	H71	H	0.408804	0.891176	0.417944
	H72	H	0.913389	0.620109	0.087511
	H73	H	0.096394	0.389828	0.097421
	H74	H	0.105345	0.622605	0.906816
	H75	H	0.911783	0.388522	0.903287
	H76	H	0.098491	0.913634	0.617285
	H77	H	0.095879	0.097779	0.385184
	H78	H	0.920097	0.092051	0.615134
	H79	H	0.914400	0.915291	0.383707
	H80	H	0.622797	0.097121	0.913355
	H81	H	0.391926	0.097598	0.089228
	H82	H	0.627218	0.909221	0.102400
	H83	H	0.390118	0.912771	0.904073
	H84	H	0.624654	0.905513	0.087855
	H85	H	0.391478	0.094299	0.094334
	H86	H	0.624808	0.097051	0.903441
	H87	H	0.388999	0.906107	0.907778
	H88	H	0.920421	0.106406	0.618533
	H89	H	0.101761	0.107663	0.380824
	H90	H	0.101689	0.910914	0.618329
	H91	H	0.916749	0.913453	0.384425
	H92	H	0.099231	0.620754	0.903750
	H93	H	0.096628	0.391058	0.090204
	H94	H	0.909049	0.623803	0.095866
	H95	H	0.914718	0.390481	0.907156
	H96	H	0.418455	0.121580	0.595873
	H97	H	0.602727	0.890998	0.587761
	H98	H	0.604206	0.121959	0.408315
	H99	H	0.405088	0.884740	0.399389
	H100	H	0.589815	0.417095	0.113463
	H101	H	0.600111	0.587880	0.887133
	H102	H	0.411347	0.593069	0.117832
	H103	H	0.407465	0.417713	0.883924
	H104	H	0.126482	0.607972	0.408660
	H105	H	0.890507	0.598612	0.591112
	H106	H	0.128935	0.405906	0.598572
	H107	H	0.890091	0.413937	0.404899
	H108	H	0.918800	0.620589	0.095607
	H109	H	0.102649	0.387833	0.094212
	H110	H	0.099678	0.619909	0.910815
	H111	H	0.909406	0.388228	0.908926
	H112	H	0.102502	0.914940	0.618089
	H113	H	0.107064	0.096678	0.381897
	H114	H	0.907651	0.098806	0.621762
	H115	H	0.913760	0.912873	0.383000
	H116	H	0.625080	0.105635	0.908747
	H117	H	0.388944	0.099991	0.093822
	H118	H	0.622022	0.919967	0.092543
	H119	H	0.392302	0.912382	0.911654
	C120	C	0.386354	0.013965	0.622450
	C121	C	0.630272	0.997653	0.623801
	C122	C	0.629419	0.013670	0.379671
	C123	C	0.385323	0.997033	0.378680
	C124	C	0.627815	0.384230	0.008942
	C125	C	0.628844	0.627149	0.992149
	C126	C	0.386500	0.625536	0.009825
	C127	C	0.384605	0.382254	0.992446
	C128	C	0.015472	0.627884	0.379548
	C129	C	0.998749	0.627947	0.621917
	C130	C	0.016607	0.384396	0.621745
	C131	C	0.998733	0.384151	0.379225
	C132	C	0.885250	0.513476	0.121907
	C133	C	0.128641	0.496989	0.123136
	C134	C	0.128865	0.513250	0.878696
	C135	C	0.884421	0.497038	0.877983
	C136	C	0.128959	0.885276	0.509150
	C137	C	0.130438	0.128790	0.491246
	C138	C	0.887444	0.127029	0.509582
	C139	C	0.886836	0.884899	0.492451
	C140	C	0.515831	0.127117	0.879400
	C141	C	0.499019	0.126470	0.121816
	C142	C	0.515897	0.882831	0.122574
	C143	C	0.498970	0.882988	0.879605
	C144	C	0.388375	0.890835	0.677306
	C145	C	0.627312	0.120285	0.677950
	C146	C	0.626039	0.890769	0.324890
	C147	C	0.389751	0.119982	0.323126
	C148	C	0.681466	0.387938	0.884865
	C149	C	0.683676	0.623433	0.116303
	C150	C	0.331877	0.622212	0.885564
	C151	C	0.330181	0.384353	0.116231
	C152	C	0.892459	0.682996	0.380384
	C153	C	0.122207	0.683511	0.620401
	C154	C	0.893842	0.327299	0.620087
	C155	C	0.122109	0.329571	0.380573
	C156	C	0.892592	0.386698	0.675280
	C157	C	0.122272	0.625199	0.677132
	C158	C	0.891870	0.623967	0.324282
	C159	C	0.122355	0.388005	0.324457
	C160	C	0.387832	0.680913	0.886159
	C161	C	0.627215	0.681716	0.115812
	C162	C	0.624881	0.330094	0.885254
	C163	C	0.387546	0.326943	0.116075
	C164	C	0.684033	0.891152	0.383016
	C165	C	0.685396	0.120249	0.620831
	C166	C	0.329920	0.891686	0.619890
	C167	C	0.332280	0.120664	0.380736
	C168	C	0.887150	0.391136	0.177918
	C169	C	0.126769	0.619975	0.177753
	C170	C	0.124586	0.390282	0.824062
	C171	C	0.888528	0.620374	0.823443
	C172	C	0.182347	0.889393	0.384718
	C173	C	0.185654	0.125600	0.615410
	C174	C	0.831900	0.124369	0.385774
	C175	C	0.832352	0.886708	0.616401
	C176	C	0.392055	0.180825	0.880879
	C177	C	0.622345	0.182147	0.120121
	C178	C	0.392637	0.827440	0.119816
	C179	C	0.622340	0.828676	0.881706
	C180	C	0.391974	0.885623	0.176285
	C181	C	0.622897	0.123211	0.176524
	C182	C	0.391758	0.122039	0.824830
	C183	C	0.622716	0.887000	0.825376
	C184	C	0.889034	0.181967	0.385763
	C185	C	0.128833	0.183331	0.614971
	C186	C	0.126665	0.830331	0.385514
	C187	C	0.888974	0.829026	0.615870
	C188	C	0.182801	0.390446	0.881844
	C189	C	0.185326	0.619281	0.120840
	C190	C	0.829651	0.390691	0.119525
	C191	C	0.830391	0.620157	0.880898
	C192	C	0.409170	0.099710	0.600417
	C193	C	0.608153	0.911403	0.601708
	C194	C	0.607586	0.099222	0.401512
	C195	C	0.405997	0.911261	0.400839
	C196	C	0.605732	0.405834	0.095549
	C197	C	0.606165	0.605496	0.905920
	C198	C	0.409079	0.603292	0.095757
	C199	C	0.406524	0.404294	0.905872
	C200	C	0.101540	0.606341	0.402348
	C201	C	0.912419	0.606061	0.599405
	C202	C	0.102850	0.407020	0.599624
	C203	C	0.912501	0.404982	0.401533
	C204	C	0.907414	0.599267	0.099570
	C205	C	0.105476	0.411816	0.100703
	C206	C	0.107701	0.599039	0.900690
	C207	C	0.905597	0.411250	0.899867
	C208	C	0.107254	0.906665	0.595575
	C209	C	0.108170	0.107258	0.404975
	C210	C	0.909602	0.105434	0.595908
	C211	C	0.908542	0.907297	0.406149
	C212	C	0.601964	0.106258	0.901902
	C213	C	0.413012	0.103967	0.099198
	C214	C	0.602239	0.905121	0.100720
	C215	C	0.412548	0.904106	0.901453
	Zn216	Zn	0.508137	0.005090	0.751939
	Zn217	Zn	0.506922	0.004923	0.250325
	Zn218	Zn	0.755927	0.505143	0.000145
	Zn219	Zn	0.257752	0.504539	0.001168
	Zn220	Zn	0.007462	0.756803	0.500497
	Zn221	Zn	0.008537	0.256017	0.500374
	Zn222	Zn	0.007037	0.505485	0.749356
	Zn223	Zn	0.006823	0.505700	0.251585
	Zn224	Zn	0.507551	0.754751	0.000978
	Zn225	Zn	0.506993	0.255493	0.000383
	Zn226	Zn	0.758964	0.006010	0.501824
	Zn227	Zn	0.256978	0.006852	0.500112
	N228	N	0.422815	0.967955	0.679109
	N229	N	0.593631	0.042818	0.679821
	N230	N	0.592609	0.967906	0.322820
	N231	N	0.421860	0.042293	0.321603
	N232	N	0.683146	0.421079	0.962889
	N233	N	0.684797	0.590213	0.038431
	N234	N	0.330751	0.588446	0.963412
	N235	N	0.328441	0.418067	0.038354
	N236	N	0.970441	0.685685	0.413934
	N237	N	0.044302	0.685216	0.586627
	N238	N	0.972036	0.325941	0.587353
	N239	N	0.044391	0.327134	0.413993
	N240	N	0.969848	0.421777	0.676065
	N241	N	0.044578	0.591272	0.678125
	N242	N	0.969301	0.590403	0.323822
	N243	N	0.044650	0.421077	0.323434
	N244	N	0.421382	0.683103	0.964139
	N245	N	0.593745	0.684078	0.037652
	N246	N	0.592284	0.327793	0.963425
	N247	N	0.420689	0.325581	0.037960
	N248	N	0.686249	0.968541	0.416239
	N249	N	0.687300	0.042780	0.588063
	N250	N	0.328774	0.969118	0.586397
	N251	N	0.329471	0.043312	0.414504
	N252	N	0.921105	0.468443	0.179213
	N253	N	0.092130	0.543012	0.179187
	N254	N	0.091835	0.467723	0.821946
	N255	N	0.921373	0.542961	0.821474
	N256	N	0.184036	0.922613	0.462417
	N257	N	0.186612	0.092335	0.537508
	N258	N	0.830719	0.090967	0.463719
	N259	N	0.830971	0.920871	0.538614
	N260	N	0.470200	0.184264	0.913887
	N261	N	0.544366	0.184313	0.086885
	N262	N	0.470718	0.825615	0.087225
	N263	N	0.544328	0.826058	0.914712
	N264	N	0.469707	0.919413	0.178106
	N265	N	0.545265	0.088896	0.177375
	N266	N	0.469569	0.089105	0.823837
	N267	N	0.545018	0.919828	0.823704
	N268	N	0.923130	0.183723	0.463544
	N269	N	0.095061	0.185360	0.537020
	N270	N	0.094066	0.827818	0.463954
	N271	N	0.922176	0.827755	0.537911
	N272	N	0.185516	0.467841	0.914964
	N273	N	0.186740	0.541759	0.087669
	N274	N	0.828518	0.467816	0.085305
	N275	N	0.827727	0.542602	0.914174
	O276	O	0.439911	0.522946	0.515478
	H277	H	0.440414	0.525665	0.524469
	H278	H	0.434371	0.519035	0.514664
	O279	O	-0.036358	-0.021559	0.010411
	H280	H	-0.041541	-0.030331	0.019077
	H281	H	-0.033272	-0.018120	0.016591
	O282	O	0.468189	0.492506	0.487962
	H283	H	0.472910	0.496651	0.487278
	H284	H	0.460118	0.497199	0.492357
	O285	O	0.475766	0.539647	0.510631
	H286	H	0.474683	0.537176	0.515575
	H287	H	0.472375	0.544084	0.517065
	O288	O	0.964084	-0.019468	0.021061
	H289	H	0.960458	-0.021539	0.023337
	H290	H	0.963010	-0.032628	0.030672
	O291	O	-0.498805	0.582951	-0.469014
	H292	H	-0.491302	0.587637	-0.466931
	H293	H	-0.499419	0.586044	-0.463536
	O294	O	0.483820	0.529912	0.570305
	H295	H	0.483614	0.532618	0.571515
	H296	H	0.492981	0.526303	0.564864
	O297	O	-0.025031	0.933322	0.073798
	H298	H	-0.027602	0.945875	0.068941
	H299	H	-0.023021	0.935196	0.073209
	O300	O	0.987441	0.003200	0.997939
	H301	H	0.983019	0.005676	0.987867
	H302	H	0.987998	0.011685	0.992387
	O303	O	0.501590	0.507355	0.562552
	H304	H	0.505899	0.502394	0.554531
	H305	H	0.503841	0.502317	0.567949
	O306	O	-0.004860	0.956837	1.064146
	H307	H	-0.000506	0.952588	1.060856
	H308	H	-0.002139	0.953123	1.068317
	O309	O	0.478180	0.511143	0.502844
	H310	H	0.471576	0.520384	0.495493
	H311	H	0.470721	0.509206	0.497375
