data_Molecule from HDF5

_cell_length_a		16.207497
_cell_length_b		16.285455
_cell_length_c		16.306066
_cell_angle_alpha	89.872666
_cell_angle_beta	90.002223
_cell_angle_gamma	89.789731
_symmetry_space_group_name_H-M	'P 1'
_symmetry_Int_Tables_number		1

loop_
	_symmetry_equiv_pos_as_xyz
	x,y,z

loop_
	_atom_site_label
	_atom_site_type_symbol
	_atom_site_fract_x
	_atom_site_fract_y
	_atom_site_fract_z
	H0	H	0.407615	0.827256	0.710428
	H1	H	0.603693	0.154745	0.710596
	H2	H	0.604199	0.826788	0.281591
	H3	H	0.406438	0.154863	0.280293
	H4	H	0.720501	0.393777	0.832465
	H5	H	0.719155	0.586833	0.159862
	H6	H	0.293047	0.588100	0.832594
	H7	H	0.293438	0.393627	0.160558
	H8	H	0.841231	0.705318	0.397390
	H9	H	0.170530	0.704878	0.593481
	H10	H	0.840715	0.279777	0.592551
	H11	H	0.170783	0.277434	0.398969
	H12	H	0.841612	0.393791	0.710614
	H13	H	0.171457	0.587929	0.708381
	H14	H	0.842285	0.590549	0.280423
	H15	H	0.170946	0.393340	0.282909
	H16	H	0.409065	0.704447	0.832025
	H17	H	0.604973	0.704893	0.159480
	H18	H	0.605148	0.276630	0.832593
	H19	H	0.407297	0.275925	0.159432
	H20	H	0.719405	0.826825	0.398951
	H21	H	0.717845	0.155727	0.592131
	H22	H	0.294410	0.826457	0.591942
	H23	H	0.291852	0.155106	0.398008
	H24	H	0.908788	0.327727	0.210902
	H25	H	0.106091	0.654867	0.211394
	H26	H	0.105960	0.327167	0.782866
	H27	H	0.907608	0.655037	0.780671
	H28	H	0.220734	0.892799	0.332504
	H29	H	0.218213	0.086567	0.659761
	H30	H	0.792363	0.088622	0.331217
	H31	H	0.792616	0.893581	0.660040
	H32	H	0.341439	0.206748	0.896354
	H33	H	0.670697	0.202942	0.093040
	H34	H	0.340887	0.777866	0.093921
	H35	H	0.670550	0.776783	0.897539
	H36	H	0.340965	0.893121	0.209632
	H37	H	0.670482	0.087429	0.208841
	H38	H	0.340941	0.089807	0.782121
	H39	H	0.670111	0.892139	0.782244
	H40	H	0.906193	0.206888	0.331839
	H41	H	0.104334	0.204825	0.659192
	H42	H	0.105953	0.775442	0.333001
	H43	H	0.908297	0.777481	0.659110
	H44	H	0.219652	0.326947	0.901104
	H45	H	0.219064	0.655842	0.093532
	H46	H	0.792992	0.327859	0.094799
	H47	H	0.792373	0.655847	0.898088
	H48	H	0.405123	0.112113	0.596970
	H49	H	0.610509	0.870570	0.589842
	H50	H	0.611613	0.111090	0.401671
	H51	H	0.407597	0.872601	0.400628
	H52	H	0.603856	0.397626	0.113513
	H53	H	0.601118	0.588779	0.877962
	H54	H	0.418738	0.589328	0.112137
	H55	H	0.414407	0.406206	0.882164
	H56	H	0.124396	0.584002	0.399868
	H57	H	0.887102	0.584270	0.593643
	H58	H	0.125276	0.395377	0.595636
	H59	H	0.887161	0.401781	0.394372
	H60	H	0.124590	0.393182	0.587495
	H61	H	0.888698	0.588273	0.585870
	H62	H	0.123075	0.587340	0.405748
	H63	H	0.887579	0.391552	0.404648
	H64	H	0.406608	0.588245	0.115965
	H65	H	0.602118	0.581427	0.879745
	H66	H	0.597608	0.398630	0.111653
	H67	H	0.419212	0.393362	0.880488
	H68	H	0.593876	0.109919	0.388122
	H69	H	0.592855	0.873773	0.599408
	H70	H	0.422872	0.105164	0.592759
	H71	H	0.418023	0.874467	0.396566
	H72	H	0.906086	0.609190	0.085900
	H73	H	0.090019	0.380267	0.082613
	H74	H	0.097582	0.608849	0.896491
	H75	H	0.919175	0.377863	0.906773
	H76	H	0.104236	0.898348	0.613108
	H77	H	0.098115	0.082278	0.379594
	H78	H	0.913561	0.073336	0.608195
	H79	H	0.906412	0.890321	0.374869
	H80	H	0.626224	0.091685	0.898174
	H81	H	0.389941	0.090461	0.076774
	H82	H	0.625445	0.897623	0.097772
	H83	H	0.388563	0.897042	0.902739
	H84	H	0.623265	0.889466	0.084109
	H85	H	0.391503	0.071949	0.090167
	H86	H	0.619220	0.083535	0.913103
	H87	H	0.388297	0.898218	0.902408
	H88	H	0.922353	0.093269	0.611182
	H89	H	0.096269	0.087108	0.379329
	H90	H	0.095794	0.900709	0.609383
	H91	H	0.908439	0.907729	0.380925
	H92	H	0.097593	0.607316	0.905288
	H93	H	0.113023	0.372429	0.085464
	H94	H	0.915960	0.610462	0.096207
	H95	H	0.908545	0.374039	0.906185
	H96	H	0.408270	0.105997	0.578802
	H97	H	0.594313	0.879191	0.579986
	H98	H	0.592320	0.103716	0.409497
	H99	H	0.415618	0.876477	0.407567
	H100	H	0.599290	0.392632	0.112983
	H101	H	0.595718	0.585246	0.880407
	H102	H	0.413760	0.578615	0.111256
	H103	H	0.405914	0.396325	0.877576
	H104	H	0.121184	0.581024	0.405348
	H105	H	0.891447	0.580347	0.586715
	H106	H	0.122525	0.400470	0.589913
	H107	H	0.892004	0.404773	0.407928
	H108	H	0.920140	0.604193	0.083591
	H109	H	0.097102	0.372242	0.103364
	H110	H	0.105840	0.609795	0.900494
	H111	H	0.915107	0.373781	0.897017
	H112	H	0.097391	0.892297	0.613590
	H113	H	0.101400	0.086480	0.377498
	H114	H	0.900781	0.089724	0.616317
	H115	H	0.923213	0.896370	0.381286
	H116	H	0.621520	0.074359	0.897196
	H117	H	0.383393	0.091411	0.098621
	H118	H	0.619596	0.905506	0.084251
	H119	H	0.387842	0.897329	0.901693
	C120	C	0.384041	-0.000683	0.617478
	C121	C	0.627248	0.982937	0.617717
	C122	C	0.627214	-0.000676	0.372980
	C123	C	0.384188	0.982587	0.373030
	C124	C	0.628416	0.368723	0.004441
	C125	C	0.627670	0.612727	0.987469
	C126	C	0.384805	0.612977	0.004752
	C127	C	0.385065	0.369611	0.988009
	C128	C	0.014458	0.612798	0.374428
	C129	C	0.997992	0.612371	0.616775
	C130	C	0.014782	0.369116	0.618194
	C131	C	0.997619	0.370536	0.374620
	C132	C	0.885430	0.499706	0.117406
	C133	C	0.128578	0.483205	0.118285
	C134	C	0.128575	0.499854	0.874452
	C135	C	0.885213	0.483452	0.874455
	C136	C	0.127473	0.869413	0.504009
	C137	C	0.126870	0.112860	0.487076
	C138	C	0.883482	0.113893	0.503763
	C139	C	0.884401	0.869841	0.487372
	C140	C	0.513881	0.112501	0.874327
	C141	C	0.497258	0.112159	0.116748
	C142	C	0.513871	0.869576	0.117014
	C143	C	0.497364	0.869237	0.874271
	C144	C	0.387210	0.876083	0.672318
	C145	C	0.624068	0.106038	0.672521
	C146	C	0.624791	0.875696	0.319408
	C147	C	0.386299	0.106044	0.318159
	C148	C	0.682898	0.372697	0.881234
	C149	C	0.681856	0.608519	0.111154
	C150	C	0.330311	0.609378	0.881364
	C151	C	0.330972	0.372915	0.111574
	C152	C	0.890525	0.667590	0.376828
	C153	C	0.121686	0.666724	0.613789
	C154	C	0.890171	0.316369	0.613965
	C155	C	0.121755	0.315128	0.377807
	C156	C	0.890592	0.372940	0.672499
	C157	C	0.121915	0.608707	0.670918
	C158	C	0.890940	0.610624	0.318926
	C159	C	0.121960	0.372550	0.320341
	C160	C	0.387823	0.667122	0.881107
	C161	C	0.625191	0.667130	0.110795
	C162	C	0.625600	0.314377	0.881312
	C163	C	0.387484	0.314360	0.111022
	C164	C	0.682073	0.875871	0.377501
	C165	C	0.680635	0.106661	0.613443
	C166	C	0.330884	0.875610	0.613573
	C167	C	0.329125	0.106050	0.376462
	C168	C	0.888473	0.376681	0.172754
	C169	C	0.125959	0.606359	0.173037
	C170	C	0.126026	0.376105	0.820925
	C171	C	0.887202	0.606361	0.818771
	C172	C	0.182691	0.872180	0.381153
	C173	C	0.181136	0.108425	0.610702
	C174	C	0.829512	0.110113	0.380240
	C175	C	0.830047	0.873122	0.610833
	C176	C	0.390179	0.168221	0.876739
	C177	C	0.621305	0.166179	0.114217
	C178	C	0.390153	0.815247	0.114678
	C179	C	0.621314	0.814837	0.877716
	C180	C	0.390213	0.872309	0.172185
	C181	C	0.621339	0.108504	0.171350
	C182	C	0.389996	0.110396	0.819605
	C183	C	0.621083	0.871909	0.819967
	C184	C	0.886257	0.168631	0.380405
	C185	C	0.124587	0.167361	0.610378
	C186	C	0.125281	0.814345	0.381117
	C187	C	0.887113	0.814899	0.610420
	C188	C	0.182544	0.376100	0.879547
	C189	C	0.182414	0.606566	0.114644
	C190	C	0.830940	0.376692	0.114711
	C191	C	0.829964	0.606718	0.877088
	C192	C	0.405599	0.085678	0.595669
	C193	C	0.605527	0.896706	0.596200
	C194	C	0.605621	0.085941	0.393735
	C195	C	0.406900	0.896597	0.395168
	C196	C	0.606696	0.390082	0.090534
	C197	C	0.605899	0.591567	0.901556
	C198	C	0.406597	0.591644	0.090909
	C199	C	0.406991	0.392062	0.902095
	C200	C	0.100686	0.590476	0.397013
	C201	C	0.911258	0.590884	0.595046
	C202	C	0.101676	0.390098	0.597132
	C203	C	0.911320	0.392683	0.396004
	C204	C	0.907470	0.585907	0.095080
	C205	C	0.106447	0.397119	0.096768
	C206	C	0.106658	0.586293	0.894762
	C207	C	0.907702	0.397361	0.896770
	C208	C	0.105514	0.890737	0.589893
	C209	C	0.104971	0.091664	0.401150
	C210	C	0.905658	0.092081	0.589681
	C211	C	0.906301	0.891676	0.401324
	C212	C	0.600042	0.089843	0.896328
	C213	C	0.410667	0.090984	0.094919
	C214	C	0.600441	0.891098	0.095104
	C215	C	0.410470	0.891202	0.895979
	Zn216	Zn	0.505092	-0.008986	0.746493
	Zn217	Zn	0.505554	-0.008968	0.244624
	Zn218	Zn	0.756556	0.491908	-0.003856
	Zn219	Zn	0.256267	0.491611	-0.003257
	Zn220	Zn	0.005803	0.741292	0.495655
	Zn221	Zn	0.005519	0.242141	0.495344
	Zn222	Zn	0.006692	0.490750	0.745863
	Zn223	Zn	0.006873	0.491521	0.246131
	Zn224	Zn	0.505751	0.741520	-0.003919
	Zn225	Zn	0.505833	0.240681	-0.003972
	Zn226	Zn	0.755621	-0.008514	0.495496
	Zn227	Zn	0.255979	-0.009092	0.495650
	N228	N	0.419651	0.953987	0.674729
	N229	N	0.591691	0.027968	0.675268
	N230	N	0.591591	0.953474	0.316374
	N231	N	0.419564	0.028171	0.315737
	N232	N	0.684823	0.405758	0.958898
	N233	N	0.683691	0.575636	0.033574
	N234	N	0.328428	0.576548	0.959241
	N235	N	0.329210	0.406360	0.034087
	N236	N	0.968403	0.669085	0.410756
	N237	N	0.043556	0.669107	0.580879
	N238	N	0.968307	0.313749	0.581096
	N239	N	0.043555	0.313757	0.410677
	N240	N	0.969073	0.404919	0.675239
	N241	N	0.044023	0.575265	0.672476
	N242	N	0.969055	0.577512	0.317240
	N243	N	0.044028	0.406414	0.318119
	N244	N	0.420827	0.669593	0.958793
	N245	N	0.592168	0.669794	0.032985
	N246	N	0.592720	0.311735	0.958948
	N247	N	0.420419	0.312301	0.033103
	N248	N	0.683603	0.953832	0.410146
	N249	N	0.682739	0.029204	0.580262
	N250	N	0.328903	0.953254	0.580120
	N251	N	0.328130	0.028464	0.410290
	N252	N	0.921735	0.454361	0.174332
	N253	N	0.093163	0.528506	0.175364
	N254	N	0.092963	0.454021	0.817576
	N255	N	0.920933	0.528610	0.817237
	N256	N	0.183908	0.905786	0.458390
	N257	N	0.182649	0.075134	0.533184
	N258	N	0.827709	0.076864	0.457838
	N259	N	0.828420	0.906569	0.533264
	N260	N	0.468318	0.169659	0.909984
	N261	N	0.543263	0.168438	0.080956
	N262	N	0.468006	0.813390	0.081053
	N263	N	0.543112	0.813043	0.910685
	N264	N	0.468311	0.905362	0.173691
	N265	N	0.543241	0.075646	0.173039
	N266	N	0.467801	0.076406	0.817948
	N267	N	0.542875	0.904933	0.817760
	N268	N	0.919257	0.170933	0.458224
	N269	N	0.091421	0.170106	0.532600
	N270	N	0.091842	0.812313	0.458625
	N271	N	0.920138	0.812732	0.532608
	N272	N	0.184254	0.454003	0.911892
	N273	N	0.183985	0.529028	0.081323
	N274	N	0.828994	0.454271	0.081240
	N275	N	0.828651	0.529271	0.910913
	O276	O	0.904216	0.063904	0.964667
	H277	H	0.902951	0.068685	0.967722
	H278	H	0.898963	0.068610	0.967616
	O279	O	-0.103031	1.072624	0.931294
	H280	H	-0.102070	1.071930	0.924183
	H281	H	-0.102775	1.069959	0.928397
	O282	O	0.889090	1.087055	-0.041209
	H283	H	0.886110	1.090329	-0.035451
	H284	H	0.888018	1.088196	-0.053430
	O285	O	-0.097477	1.058125	0.924408
	H286	H	-0.103495	1.061723	0.936821
	H287	H	-0.101533	1.055626	0.915504
