data_Molecule from HDF5

_cell_length_a		16.291921
_cell_length_b		16.303185
_cell_length_c		16.125307
_cell_angle_alpha	90.083955
_cell_angle_beta	90.123775
_cell_angle_gamma	89.884330
_symmetry_space_group_name_H-M	'P 1'
_symmetry_Int_Tables_number		1

loop_
	_symmetry_equiv_pos_as_xyz
	x,y,z

loop_
	_atom_site_label
	_atom_site_type_symbol
	_atom_site_fract_x
	_atom_site_fract_y
	_atom_site_fract_z
	H0	H	0.402436	0.836229	0.713877
	H1	H	0.596210	0.163518	0.714696
	H2	H	0.596794	0.836619	0.285380
	H3	H	0.401172	0.164628	0.287819
	H4	H	0.710968	0.402061	0.834474
	H5	H	0.712419	0.600557	0.164782
	H6	H	0.282842	0.600309	0.835511
	H7	H	0.286203	0.404179	0.165655
	H8	H	0.836580	0.716930	0.399025
	H9	H	0.162713	0.714265	0.600490
	H10	H	0.837089	0.283695	0.601794
	H11	H	0.162473	0.285185	0.401268
	H12	H	0.835218	0.402961	0.712001
	H13	H	0.163075	0.596424	0.713930
	H14	H	0.834577	0.597366	0.287268
	H15	H	0.163420	0.403492	0.287568
	H16	H	0.397893	0.715428	0.835414
	H17	H	0.597151	0.715547	0.164802
	H18	H	0.597551	0.285847	0.835206
	H19	H	0.399195	0.287080	0.164679
	H20	H	0.715403	0.836852	0.399041
	H21	H	0.714922	0.162484	0.602317
	H22	H	0.284754	0.836472	0.598857
	H23	H	0.282133	0.162869	0.399283
	H24	H	0.900578	0.335764	0.213081
	H25	H	0.093648	0.664129	0.213334
	H26	H	0.093873	0.335844	0.788232
	H27	H	0.900076	0.664133	0.785680
	H28	H	0.212850	0.900346	0.334832
	H29	H	0.212160	0.097074	0.665187
	H30	H	0.785488	0.097863	0.335413
	H31	H	0.786060	0.900762	0.665449
	H32	H	0.335260	0.215941	0.900278
	H33	H	0.661567	0.216892	0.101028
	H34	H	0.334666	0.786540	0.101247
	H35	H	0.661108	0.783948	0.900456
	H36	H	0.333863	0.904973	0.213194
	H37	H	0.661665	0.098823	0.215223
	H38	H	0.334885	0.098538	0.786529
	H39	H	0.663408	0.904284	0.788744
	H40	H	0.900439	0.214078	0.335604
	H41	H	0.100021	0.213682	0.664598
	H42	H	0.097794	0.785639	0.334933
	H43	H	0.901953	0.786485	0.665166
	H44	H	0.214202	0.337910	0.900587
	H45	H	0.210859	0.664405	0.100038
	H46	H	0.781728	0.337367	0.098561
	H47	H	0.781926	0.663979	0.899512
	H48	H	0.405189	0.115624	0.590806
	H49	H	0.584276	0.883660	0.600767
	H50	H	0.588495	0.117385	0.403375
	H51	H	0.403324	0.882190	0.404899
	H52	H	0.586204	0.408268	0.115996
	H53	H	0.591859	0.604000	0.878574
	H54	H	0.404904	0.585295	0.115609
	H55	H	0.404131	0.414082	0.883273
	H56	H	0.114706	0.590682	0.408252
	H57	H	0.878269	0.605261	0.597064
	H58	H	0.113719	0.406078	0.586788
	H59	H	0.880984	0.402341	0.404222
	H60	H	0.116213	0.411956	0.597494
	H61	H	0.886233	0.594717	0.579799
	H62	H	0.116745	0.593565	0.402658
	H63	H	0.883767	0.405360	0.413058
	H64	H	0.412352	0.601412	0.118211
	H65	H	0.596888	0.584582	0.882493
	H66	H	0.591880	0.406399	0.119071
	H67	H	0.409704	0.404592	0.882250
	H68	H	0.590450	0.114451	0.414493
	H69	H	0.590959	0.886779	0.582400
	H70	H	0.403593	0.117264	0.593113
	H71	H	0.408645	0.884582	0.406478
	H72	H	0.900784	0.618400	0.097135
	H73	H	0.094018	0.382877	0.093414
	H74	H	0.093126	0.619011	0.904134
	H75	H	0.892230	0.383715	0.916180
	H76	H	0.101726	0.904558	0.621451
	H77	H	0.087827	0.092536	0.382834
	H78	H	0.910176	0.084296	0.615060
	H79	H	0.902466	0.902632	0.379293
	H80	H	0.615466	0.097206	0.910055
	H81	H	0.378124	0.101886	0.098470
	H82	H	0.613823	0.908671	0.091331
	H83	H	0.380210	0.901260	0.908641
	H84	H	0.614516	0.907973	0.093371
	H85	H	0.383042	0.098114	0.085158
	H86	H	0.614085	0.092584	0.910332
	H87	H	0.384239	0.912359	0.910904
	H88	H	0.914087	0.099051	0.618134
	H89	H	0.093719	0.094653	0.380691
	H90	H	0.090903	0.915647	0.615032
	H91	H	0.904022	0.914742	0.384180
	H92	H	0.087532	0.616738	0.906105
	H93	H	0.092409	0.383714	0.093291
	H94	H	0.910010	0.615059	0.093268
	H95	H	0.901301	0.378795	0.892145
	H96	H	0.406501	0.116300	0.593597
	H97	H	0.602771	0.879191	0.595721
	H98	H	0.599024	0.118073	0.408343
	H99	H	0.404731	0.884427	0.410104
	H100	H	0.591122	0.413015	0.117091
	H101	H	0.577770	0.591192	0.886176
	H102	H	0.395148	0.598589	0.122250
	H103	H	0.399465	0.405133	0.878947
	H104	H	0.116388	0.596942	0.408876
	H105	H	0.883332	0.583963	0.599147
	H106	H	0.119174	0.400033	0.596277
	H107	H	0.883291	0.411505	0.406040
	H108	H	0.901306	0.615743	0.086967
	H109	H	0.092989	0.383523	0.091527
	H110	H	0.092672	0.616767	0.910399
	H111	H	0.916293	0.389083	0.910496
	H112	H	0.085720	0.899718	0.617743
	H113	H	0.092650	0.089556	0.382466
	H114	H	0.899236	0.093652	0.621098
	H115	H	0.914289	0.906236	0.384394
	H116	H	0.616064	0.094579	0.906276
	H117	H	0.383291	0.087208	0.096538
	H118	H	0.613864	0.906155	0.092247
	H119	H	0.380195	0.909359	0.900679
	C120	C	0.377035	0.008515	0.621645
	C121	C	0.621310	0.991129	0.622530
	C122	C	0.621004	0.008444	0.378969
	C123	C	0.376780	0.991668	0.378469
	C124	C	0.618636	0.379949	0.008222
	C125	C	0.618211	0.622040	0.991376
	C126	C	0.375771	0.623290	0.009314
	C127	C	0.376707	0.379899	0.991114
	C128	C	0.007848	0.622059	0.377906
	C129	C	0.990738	0.622026	0.621461
	C130	C	0.008078	0.378030	0.621778
	C131	C	0.990684	0.377994	0.378617
	C132	C	0.875797	0.508339	0.121273
	C133	C	0.120261	0.491841	0.121759
	C134	C	0.119605	0.509105	0.878726
	C135	C	0.875096	0.492083	0.877641
	C136	C	0.120939	0.878267	0.508606
	C137	C	0.120130	0.120591	0.491274
	C138	C	0.878352	0.121222	0.509104
	C139	C	0.878553	0.878710	0.491577
	C140	C	0.507143	0.122785	0.879390
	C141	C	0.489660	0.123584	0.122275
	C142	C	0.505951	0.879695	0.121446
	C143	C	0.489774	0.878976	0.878498
	C144	C	0.380986	0.885101	0.676393
	C145	C	0.617557	0.114535	0.677484
	C146	C	0.617782	0.885647	0.323092
	C147	C	0.380386	0.115532	0.324883
	C148	C	0.673394	0.382092	0.883873
	C149	C	0.674588	0.620499	0.115269
	C150	C	0.320798	0.620498	0.884658
	C151	C	0.323085	0.383291	0.116026
	C152	C	0.884954	0.678125	0.379259
	C153	C	0.113875	0.676527	0.620481
	C154	C	0.885576	0.322250	0.620389
	C155	C	0.113902	0.323312	0.380925
	C156	C	0.884472	0.381857	0.675485
	C157	C	0.113932	0.618350	0.677126
	C158	C	0.883950	0.618780	0.323844
	C159	C	0.114072	0.381590	0.323932
	C160	C	0.377831	0.677693	0.884679
	C161	C	0.616993	0.677555	0.115543
	C162	C	0.617152	0.324096	0.884326
	C163	C	0.379145	0.324962	0.115495
	C164	C	0.676689	0.885714	0.379640
	C165	C	0.676955	0.113733	0.621850
	C166	C	0.322835	0.885227	0.619055
	C167	C	0.320833	0.114482	0.379928
	C168	C	0.879552	0.384844	0.175734
	C169	C	0.115213	0.615211	0.176091
	C170	C	0.115769	0.385156	0.824995
	C171	C	0.878955	0.615281	0.823158
	C172	C	0.175115	0.880473	0.384163
	C173	C	0.175147	0.117839	0.615634
	C174	C	0.823213	0.118178	0.384733
	C175	C	0.823645	0.880767	0.615977
	C176	C	0.383886	0.177743	0.880801
	C177	C	0.612660	0.178679	0.120639
	C178	C	0.383199	0.824742	0.120530
	C179	C	0.612565	0.822759	0.880363
	C180	C	0.382974	0.883598	0.176415
	C181	C	0.613019	0.120187	0.177464
	C182	C	0.383824	0.119833	0.823654
	C183	C	0.613742	0.882320	0.824771
	C184	C	0.879880	0.176511	0.384980
	C185	C	0.119023	0.175709	0.615494
	C186	C	0.118117	0.823334	0.384345
	C187	C	0.881191	0.823750	0.615845
	C188	C	0.175320	0.386250	0.880942
	C189	C	0.173455	0.615278	0.119874
	C190	C	0.820467	0.385565	0.118976
	C191	C	0.820408	0.615260	0.879903
	C192	C	0.398772	0.094222	0.599161
	C193	C	0.599179	0.905207	0.599622
	C194	C	0.599070	0.094324	0.401906
	C195	C	0.398990	0.905836	0.400638
	C196	C	0.596368	0.402641	0.094945
	C197	C	0.595550	0.599660	0.904769
	C198	C	0.397699	0.601656	0.096112
	C199	C	0.398187	0.401569	0.904070
	C200	C	0.093607	0.600292	0.400092
	C201	C	0.904816	0.600879	0.598795
	C202	C	0.094144	0.399710	0.599995
	C203	C	0.904849	0.400058	0.401068
	C204	C	0.897522	0.594152	0.099007
	C205	C	0.099196	0.405720	0.099437
	C206	C	0.097613	0.595202	0.900375
	C207	C	0.896619	0.405930	0.899693
	C208	C	0.099289	0.900241	0.595589
	C209	C	0.097875	0.098726	0.404374
	C210	C	0.901039	0.098927	0.595783
	C211	C	0.900463	0.901090	0.405006
	C212	C	0.592948	0.101105	0.902167
	C213	C	0.403707	0.102184	0.099918
	C214	C	0.591837	0.901346	0.098902
	C215	C	0.403851	0.901066	0.900248
	Zn216	Zn	0.498590	0.000869	0.750615
	Zn217	Zn	0.498414	0.000841	0.250360
	Zn218	Zn	0.746487	0.500605	-0.000818
	Zn219	Zn	0.248727	0.501301	0.000358
	Zn220	Zn	-0.000205	0.750322	0.499942
	Zn221	Zn	0.000100	0.249475	0.500399
	Zn222	Zn	-0.001442	0.500092	0.749675
	Zn223	Zn	-0.001374	0.499841	0.249848
	Zn224	Zn	0.497321	0.750333	0.000533
	Zn225	Zn	0.498057	0.252174	0.000179
	Zn226	Zn	0.750137	-0.000638	0.500757
	Zn227	Zn	0.248311	-0.000069	0.499647
	N228	N	0.414140	0.962736	0.677952
	N229	N	0.583689	0.037294	0.678247
	N230	N	0.583897	0.963155	0.322435
	N231	N	0.414240	0.038170	0.323547
	N232	N	0.674380	0.415947	0.962049
	N233	N	0.675639	0.586727	0.037018
	N234	N	0.319344	0.587404	0.963018
	N235	N	0.321114	0.416308	0.037539
	N236	N	0.962789	0.680260	0.412321
	N237	N	0.036421	0.678918	0.586518
	N238	N	0.963437	0.319787	0.587665
	N239	N	0.036184	0.320762	0.413983
	N240	N	0.961643	0.415865	0.676637
	N241	N	0.036463	0.584946	0.677603
	N242	N	0.961220	0.584496	0.322750
	N243	N	0.036354	0.414872	0.322558
	N244	N	0.411372	0.679550	0.963111
	N245	N	0.582522	0.678513	0.037669
	N246	N	0.583743	0.322746	0.962675
	N247	N	0.411972	0.322827	0.036940
	N248	N	0.678734	0.963146	0.413724
	N249	N	0.679170	0.036096	0.588248
	N250	N	0.320206	0.962863	0.585863
	N251	N	0.318656	0.036599	0.412638
	N252	N	0.913230	0.462280	0.177334
	N253	N	0.082835	0.537403	0.177466
	N254	N	0.081992	0.462453	0.823550
	N255	N	0.912294	0.537658	0.821575
	N256	N	0.176848	0.914098	0.462335
	N257	N	0.175955	0.084232	0.537393
	N258	N	0.821881	0.084937	0.463088
	N259	N	0.821938	0.914106	0.537761
	N260	N	0.461513	0.179903	0.914440
	N261	N	0.534873	0.181088	0.087287
	N262	N	0.460702	0.822173	0.087073
	N263	N	0.534491	0.820348	0.912946
	N264	N	0.460311	0.917128	0.177001
	N265	N	0.535681	0.086678	0.178717
	N266	N	0.461279	0.086171	0.822811
	N267	N	0.536373	0.916435	0.823191
	N268	N	0.913702	0.178385	0.463306
	N269	N	0.085789	0.177831	0.537065
	N270	N	0.085051	0.821851	0.462803
	N271	N	0.914626	0.822289	0.537470
	N272	N	0.177647	0.464349	0.913627
	N273	N	0.176649	0.537507	0.086553
	N274	N	0.817967	0.463271	0.086137
	N275	N	0.817915	0.537543	0.913070
	O276	O	1.009796	0.990547	-0.035811
	H277	H	1.006737	0.991254	-0.027317
	H278	H	1.007889	1.000949	-0.039777
	O279	O	-0.025268	-0.040040	0.024035
	H280	H	-0.028900	-0.040485	0.034040
	H281	H	-0.027661	-0.050663	0.023344
	O282	O	-0.041230	-0.050054	0.985581
	H283	H	-0.043762	-0.058789	0.984433
	H284	H	-0.042109	-0.046144	0.990230
	O285	O	0.584826	0.451880	0.456312
	H286	H	0.592291	0.444813	0.451957
	H287	H	0.584260	0.448436	0.457225
	O288	O	0.515686	0.447344	0.464501
	H289	H	0.512219	0.450906	0.463796
	H290	H	0.521593	0.450801	0.477284
	O291	O	0.584276	0.475421	0.474216
	H292	H	0.591897	0.471232	0.468521
	H293	H	0.584579	0.479248	0.468510
	O294	O	-0.023116	0.014307	0.016588
	H295	H	-0.017849	0.013198	0.018319
	H296	H	-0.022349	0.013656	0.013205
	O297	O	0.565096	0.467909	0.463696
	H298	H	0.572678	0.465633	0.462964
	H299	H	0.561954	0.457364	0.468112
	O300	O	-0.024798	0.995002	1.054374
	H301	H	-0.025766	0.999237	1.049802
	H302	H	-0.027878	1.000446	1.055771
	O303	O	0.581110	0.486532	0.506903
	H304	H	0.583082	0.495133	0.503513
	H305	H	0.591168	0.476445	0.504486
	O306	O	-0.009510	0.023994	1.030998
	H307	H	-0.004804	0.022652	1.035771
	H308	H	-0.010492	0.027875	1.025930
	O309	O	1.051854	0.928708	0.976186
	H310	H	1.050525	0.926680	0.963773
	H311	H	1.054107	0.921202	0.977010
	O312	O	0.586749	0.440894	0.465724
	H313	H	0.584460	0.444659	0.472856
	H314	H	0.586970	0.441389	0.468113
	O315	O	0.566425	0.482280	0.519184
	H316	H	0.566706	0.480278	0.523354
	H317	H	0.572200	0.492619	0.519479
	O318	O	-0.017891	1.007158	0.041656
	H319	H	-0.020496	1.005265	0.046511
	H320	H	-0.016624	1.008080	0.039955
	O321	O	0.975594	0.957178	-0.015310
	H322	H	0.980424	0.961972	-0.017786
	H323	H	0.984481	0.953821	-0.010408
