data_Molecule from HDF5

_cell_length_a		16.275246
_cell_length_b		16.242500
_cell_length_c		16.303807
_cell_angle_alpha	89.908220
_cell_angle_beta	90.088800
_cell_angle_gamma	90.020485
_symmetry_space_group_name_H-M	'P 1'
_symmetry_Int_Tables_number		1

loop_
	_symmetry_equiv_pos_as_xyz
	x,y,z

loop_
	_atom_site_label
	_atom_site_type_symbol
	_atom_site_fract_x
	_atom_site_fract_y
	_atom_site_fract_z
	H0	H	0.401255	0.835518	0.714196
	H1	H	0.597312	0.164008	0.713394
	H2	H	0.598179	0.836092	0.285467
	H3	H	0.400692	0.163892	0.284764
	H4	H	0.715018	0.400944	0.837173
	H5	H	0.714566	0.597602	0.163365
	H6	H	0.285307	0.598398	0.836908
	H7	H	0.286400	0.401891	0.164048
	H8	H	0.836097	0.714029	0.401918
	H9	H	0.164106	0.714795	0.597534
	H10	H	0.835923	0.286575	0.597229
	H11	H	0.163918	0.286212	0.403150
	H12	H	0.836608	0.401723	0.714069
	H13	H	0.163624	0.598519	0.714810
	H14	H	0.836286	0.599058	0.285296
	H15	H	0.164216	0.401841	0.286554
	H16	H	0.402963	0.713461	0.836057
	H17	H	0.597489	0.713443	0.163606
	H18	H	0.598204	0.285769	0.836643
	H19	H	0.403163	0.286335	0.163983
	H20	H	0.712699	0.835416	0.402576
	H21	H	0.712479	0.164410	0.596240
	H22	H	0.286964	0.835820	0.597186
	H23	H	0.286408	0.163851	0.401372
	H24	H	0.901291	0.336636	0.215190
	H25	H	0.098628	0.664113	0.214339
	H26	H	0.098826	0.336056	0.786238
	H27	H	0.901902	0.663216	0.785158
	H28	H	0.214726	0.902001	0.336618
	H29	H	0.215218	0.098376	0.663315
	H30	H	0.785818	0.098474	0.335771
	H31	H	0.786934	0.902163	0.663483
	H32	H	0.336252	0.214267	0.902013
	H33	H	0.663843	0.214186	0.098688
	H34	H	0.335863	0.785979	0.097146
	H35	H	0.663776	0.786519	0.903739
	H36	H	0.335871	0.900724	0.214775
	H37	H	0.663025	0.098163	0.214158
	H38	H	0.336108	0.097792	0.786287
	H39	H	0.663840	0.902582	0.787744
	H40	H	0.902154	0.215562	0.336296
	H41	H	0.096085	0.212272	0.664297
	H42	H	0.097125	0.786883	0.336244
	H43	H	0.902592	0.785672	0.663553
	H44	H	0.213982	0.335803	0.903054
	H45	H	0.214091	0.663938	0.097781
	H46	H	0.787013	0.335627	0.097635
	H47	H	0.786423	0.663992	0.901535
	H48	H	0.414251	0.116498	0.597311
	H49	H	0.593265	0.879771	0.601759
	H50	H	0.594672	0.117709	0.405528
	H51	H	0.402404	0.880895	0.404600
	H52	H	0.589300	0.401331	0.117271
	H53	H	0.598185	0.603684	0.879412
	H54	H	0.405183	0.588612	0.116511
	H55	H	0.409073	0.403677	0.883458
	H56	H	0.119387	0.597625	0.402093
	H57	H	0.884410	0.584256	0.598920
	H58	H	0.117464	0.412852	0.599671
	H59	H	0.882489	0.402162	0.410031
	H60	H	0.120301	0.399020	0.596373
	H61	H	0.879736	0.601184	0.596820
	H62	H	0.115651	0.595592	0.412019
	H63	H	0.885766	0.412709	0.409712
	H64	H	0.410512	0.594012	0.115564
	H65	H	0.600317	0.585135	0.883408
	H66	H	0.600719	0.405277	0.119143
	H67	H	0.402081	0.405902	0.882083
	H68	H	0.591207	0.117077	0.404638
	H69	H	0.587820	0.885107	0.591487
	H70	H	0.406144	0.115494	0.586516
	H71	H	0.411615	0.883021	0.403514
	H72	H	0.912103	0.617360	0.099256
	H73	H	0.091008	0.381781	0.099650
	H74	H	0.098877	0.619421	0.902600
	H75	H	0.913734	0.383375	0.902542
	H76	H	0.098655	0.907335	0.618034
	H77	H	0.086370	0.096782	0.385248
	H78	H	0.912160	0.089628	0.613733
	H79	H	0.911731	0.911546	0.386401
	H80	H	0.615665	0.086943	0.904941
	H81	H	0.381171	0.089487	0.101226
	H82	H	0.617061	0.900551	0.091219
	H83	H	0.387537	0.916050	0.913367
	H84	H	0.613792	0.911621	0.089322
	H85	H	0.380697	0.101566	0.089654
	H86	H	0.619205	0.097636	0.902059
	H87	H	0.379467	0.908092	0.893321
	H88	H	0.905857	0.100552	0.618274
	H89	H	0.099371	0.099189	0.380300
	H90	H	0.090940	0.908788	0.614939
	H91	H	0.907856	0.899829	0.381736
	H92	H	0.086001	0.616030	0.903081
	H93	H	0.089520	0.384909	0.090050
	H94	H	0.909133	0.614382	0.085945
	H95	H	0.907515	0.385253	0.914862
	H96	H	0.401136	0.119679	0.597794
	H97	H	0.599954	0.881519	0.590883
	H98	H	0.592990	0.115942	0.408005
	H99	H	0.407427	0.884680	0.411837
	H100	H	0.592170	0.413035	0.114357
	H101	H	0.583600	0.593472	0.886135
	H102	H	0.404141	0.596031	0.118154
	H103	H	0.406855	0.410999	0.884898
	H104	H	0.116122	0.587849	0.404649
	H105	H	0.886793	0.591901	0.583539
	H106	H	0.114572	0.408065	0.586089
	H107	H	0.881836	0.407760	0.400897
	H108	H	0.899130	0.619793	0.093980
	H109	H	0.099236	0.381607	0.092640
	H110	H	0.093402	0.614944	0.913628
	H111	H	0.900263	0.379710	0.904363
	H112	H	0.093320	0.901198	0.617430
	H113	H	0.095862	0.086185	0.385295
	H114	H	0.899524	0.089523	0.616421
	H115	H	0.899796	0.910061	0.381802
	H116	H	0.616176	0.095568	0.912297
	H117	H	0.387180	0.086615	0.085789
	H118	H	0.618020	0.908552	0.099847
	H119	H	0.380167	0.893980	0.911274
	C120	C	0.378802	0.008278	0.621705
	C121	C	0.621483	0.991114	0.621869
	C122	C	0.621364	0.008449	0.377918
	C123	C	0.378896	0.991391	0.378188
	C124	C	0.621888	0.378446	0.008574
	C125	C	0.621706	0.621525	0.991184
	C126	C	0.378102	0.621397	0.008480
	C127	C	0.378460	0.378669	0.992026
	C128	C	0.008588	0.621922	0.377972
	C129	C	0.991892	0.621011	0.621139
	C130	C	0.008752	0.378617	0.621757
	C131	C	0.991718	0.378972	0.379063
	C132	C	0.878581	0.508663	0.121552
	C133	C	0.121481	0.491595	0.121661
	C134	C	0.121119	0.508499	0.878778
	C135	C	0.878248	0.491056	0.878224
	C136	C	0.121765	0.878552	0.508387
	C137	C	0.121808	0.122116	0.491706
	C138	C	0.877751	0.122105	0.508132
	C139	C	0.878205	0.878472	0.491451
	C140	C	0.508381	0.121662	0.878416
	C141	C	0.491334	0.121379	0.121049
	C142	C	0.507940	0.878091	0.121692
	C143	C	0.490919	0.878360	0.878544
	C144	C	0.381043	0.884685	0.676374
	C145	C	0.618437	0.115054	0.676015
	C146	C	0.618473	0.884900	0.323394
	C147	C	0.380860	0.114866	0.322680
	C148	C	0.676981	0.381033	0.885691
	C149	C	0.676821	0.618694	0.114661
	C150	C	0.322985	0.619255	0.885410
	C151	C	0.324255	0.381312	0.115178
	C152	C	0.885028	0.676616	0.381083
	C153	C	0.115261	0.676375	0.618238
	C154	C	0.885051	0.323874	0.618575
	C155	C	0.115256	0.323904	0.382372
	C156	C	0.885360	0.381039	0.676412
	C157	C	0.115135	0.618854	0.676430
	C158	C	0.885245	0.619559	0.323069
	C159	C	0.115260	0.381488	0.324590
	C160	C	0.381693	0.675804	0.885091
	C161	C	0.618767	0.676068	0.114778
	C162	C	0.618998	0.323600	0.885613
	C163	C	0.382098	0.323936	0.115174
	C164	C	0.675623	0.884738	0.381389
	C165	C	0.675473	0.115279	0.617889
	C166	C	0.324145	0.884781	0.618325
	C167	C	0.324066	0.114750	0.380772
	C168	C	0.881053	0.385244	0.176757
	C169	C	0.119111	0.615037	0.176449
	C170	C	0.119024	0.384821	0.824212
	C171	C	0.881280	0.614434	0.822932
	C172	C	0.176508	0.881635	0.385297
	C173	C	0.176938	0.119211	0.614772
	C174	C	0.823497	0.119498	0.384678
	C175	C	0.823768	0.881290	0.614624
	C176	C	0.385005	0.176403	0.881663
	C177	C	0.614768	0.176195	0.118661
	C178	C	0.384776	0.823044	0.118655
	C179	C	0.614595	0.823849	0.882081
	C180	C	0.384834	0.880385	0.176579
	C181	C	0.614437	0.118723	0.176079
	C182	C	0.385076	0.118806	0.823815
	C183	C	0.614888	0.881525	0.824675
	C184	C	0.881281	0.177465	0.385055
	C185	C	0.117953	0.175868	0.615392
	C186	C	0.118329	0.824316	0.384845
	C187	C	0.881394	0.823612	0.614560
	C188	C	0.176083	0.384885	0.882150
	C189	C	0.176183	0.615283	0.118493
	C190	C	0.824190	0.384882	0.118564
	C191	C	0.823949	0.614852	0.880770
	C192	C	0.400782	0.094836	0.600213
	C193	C	0.599943	0.904525	0.600942
	C194	C	0.599578	0.094676	0.399641
	C195	C	0.400815	0.905065	0.400236
	C196	C	0.600371	0.400079	0.094716
	C197	C	0.600265	0.600321	0.905393
	C198	C	0.400083	0.599487	0.094424
	C199	C	0.399621	0.400453	0.905670
	C200	C	0.094852	0.600099	0.399924
	C201	C	0.905923	0.598883	0.599487
	C202	C	0.095243	0.400171	0.600267
	C203	C	0.905500	0.401111	0.400356
	C204	C	0.900393	0.595003	0.099569
	C205	C	0.099672	0.405106	0.100323
	C206	C	0.099253	0.594636	0.900134
	C207	C	0.900686	0.404939	0.900621
	C208	C	0.100493	0.899573	0.594515
	C209	C	0.100212	0.100601	0.405725
	C210	C	0.899345	0.099807	0.594105
	C211	C	0.900088	0.900586	0.405285
	C212	C	0.594854	0.099796	0.900147
	C213	C	0.405143	0.099055	0.098666
	C214	C	0.594207	0.900445	0.099848
	C215	C	0.404589	0.899731	0.899735
	Zn216	Zn	0.499943	-0.000476	0.750040
	Zn217	Zn	0.499571	-0.000060	0.249567
	Zn218	Zn	0.750308	0.500038	-0.000067
	Zn219	Zn	0.249628	0.500015	0.000315
	Zn220	Zn	-0.000188	0.749929	0.499506
	Zn221	Zn	-0.000237	0.250353	0.500386
	Zn222	Zn	0.000395	0.499464	0.750332
	Zn223	Zn	0.000052	0.500253	0.249777
	Zn224	Zn	0.499593	0.749786	0.000173
	Zn225	Zn	0.500160	0.249944	0.000068
	Zn226	Zn	0.749355	0.000118	0.499631
	Zn227	Zn	0.250891	0.000368	0.500138
	N228	N	0.414424	0.962417	0.678462
	N229	N	0.585658	0.036915	0.678713
	N230	N	0.585365	0.962900	0.321162
	N231	N	0.414462	0.037129	0.321171
	N232	N	0.678924	0.414419	0.963278
	N233	N	0.679005	0.585651	0.036897
	N234	N	0.320934	0.586021	0.963049
	N235	N	0.321808	0.414790	0.037398
	N236	N	0.962711	0.678044	0.414632
	N237	N	0.037794	0.677696	0.584390
	N238	N	0.962724	0.322549	0.585156
	N239	N	0.037445	0.322163	0.415378
	N240	N	0.963321	0.414085	0.678573
	N241	N	0.037440	0.585335	0.678334
	N242	N	0.963001	0.586258	0.321150
	N243	N	0.037432	0.415004	0.322281
	N244	N	0.415172	0.677336	0.962671
	N245	N	0.584907	0.677778	0.037441
	N246	N	0.585393	0.322078	0.962998
	N247	N	0.414993	0.322293	0.037534
	N248	N	0.677291	0.962503	0.414655
	N249	N	0.677453	0.037335	0.584951
	N250	N	0.322736	0.962798	0.585037
	N251	N	0.322543	0.037058	0.414570
	N252	N	0.914354	0.463055	0.178405
	N253	N	0.085793	0.537097	0.178473
	N254	N	0.085346	0.462482	0.822148
	N255	N	0.914469	0.536477	0.821474
	N256	N	0.178909	0.914384	0.463148
	N257	N	0.179124	0.086240	0.537088
	N258	N	0.821100	0.085904	0.462298
	N259	N	0.821858	0.914960	0.537035
	N260	N	0.462760	0.178012	0.914913
	N261	N	0.537076	0.177853	0.085071
	N262	N	0.462398	0.821653	0.085100
	N263	N	0.536649	0.821838	0.915018
	N264	N	0.462590	0.913867	0.178567
	N265	N	0.536605	0.085361	0.177711
	N266	N	0.462868	0.085495	0.821651
	N267	N	0.537015	0.914623	0.822299
	N268	N	0.914440	0.178794	0.462838
	N269	N	0.084384	0.177762	0.537880
	N270	N	0.084883	0.822278	0.462368
	N271	N	0.914358	0.821808	0.536830
	N272	N	0.177692	0.462831	0.915371
	N273	N	0.177718	0.537544	0.085274
	N274	N	0.822629	0.462749	0.084864
	N275	N	0.821905	0.536998	0.914292
