data_Molecule from HDF5

_cell_length_a		16.242196
_cell_length_b		16.191856
_cell_length_c		16.367219
_cell_angle_alpha	90.029648
_cell_angle_beta	89.948188
_cell_angle_gamma	89.879481
_symmetry_space_group_name_H-M	'P 1'
_symmetry_Int_Tables_number		1

loop_
	_symmetry_equiv_pos_as_xyz
	x,y,z

loop_
	_atom_site_label
	_atom_site_type_symbol
	_atom_site_fract_x
	_atom_site_fract_y
	_atom_site_fract_z
	H0	H	0.401426	0.835656	0.715544
	H1	H	0.599161	0.164913	0.714149
	H2	H	0.600346	0.835799	0.284650
	H3	H	0.400814	0.163852	0.286629
	H4	H	0.715664	0.402186	0.837263
	H5	H	0.714919	0.598632	0.162619
	H6	H	0.284700	0.598621	0.836998
	H7	H	0.285026	0.402498	0.163219
	H8	H	0.834970	0.713678	0.403947
	H9	H	0.164660	0.712423	0.596086
	H10	H	0.835099	0.288260	0.596407
	H11	H	0.165408	0.287260	0.404376
	H12	H	0.836231	0.401177	0.714710
	H13	H	0.163362	0.599242	0.714693
	H14	H	0.835739	0.599833	0.285348
	H15	H	0.163318	0.399958	0.284448
	H16	H	0.401992	0.714665	0.837202
	H17	H	0.595634	0.712659	0.164381
	H18	H	0.597745	0.286436	0.836782
	H19	H	0.402880	0.287655	0.163956
	H20	H	0.713999	0.835475	0.402127
	H21	H	0.713099	0.164185	0.597043
	H22	H	0.289020	0.834293	0.596693
	H23	H	0.287130	0.164109	0.404084
	H24	H	0.901353	0.335892	0.214755
	H25	H	0.098781	0.664863	0.213806
	H26	H	0.099680	0.335442	0.785451
	H27	H	0.900377	0.664094	0.785245
	H28	H	0.215321	0.901605	0.336682
	H29	H	0.214217	0.097577	0.663377
	H30	H	0.785641	0.098230	0.337034
	H31	H	0.785692	0.900962	0.662393
	H32	H	0.335510	0.213038	0.904076
	H33	H	0.664529	0.212650	0.096096
	H34	H	0.334734	0.788057	0.096707
	H35	H	0.663567	0.785592	0.902525
	H36	H	0.336428	0.901421	0.215190
	H37	H	0.663421	0.100510	0.215765
	H38	H	0.335679	0.099189	0.786342
	H39	H	0.663811	0.899810	0.784910
	H40	H	0.903196	0.213352	0.336263
	H41	H	0.096165	0.212923	0.663523
	H42	H	0.096843	0.786349	0.336044
	H43	H	0.904174	0.787494	0.663904
	H44	H	0.213838	0.335498	0.902699
	H45	H	0.210731	0.665209	0.095085
	H46	H	0.788344	0.334997	0.096041
	H47	H	0.787938	0.665546	0.904409
	H48	H	0.407448	0.115055	0.585365
	H49	H	0.588689	0.886380	0.586910
	H50	H	0.588344	0.115681	0.409238
	H51	H	0.410509	0.880442	0.397534
	H52	H	0.591084	0.402474	0.116592
	H53	H	0.600423	0.593025	0.882035
	H54	H	0.408244	0.588412	0.113691
	H55	H	0.399800	0.405690	0.881986
	H56	H	0.117545	0.590037	0.398915
	H57	H	0.882589	0.590906	0.597923
	H58	H	0.121656	0.400529	0.603497
	H59	H	0.883558	0.407620	0.408237
	H60	H	0.115456	0.401768	0.582756
	H61	H	0.881604	0.597495	0.593435
	H62	H	0.118664	0.599425	0.408303
	H63	H	0.882843	0.408394	0.403552
	H64	H	0.408005	0.599218	0.116747
	H65	H	0.591525	0.588299	0.886092
	H66	H	0.599562	0.406951	0.117307
	H67	H	0.407861	0.413083	0.886997
	H68	H	0.596083	0.117316	0.408870
	H69	H	0.600381	0.880098	0.593055
	H70	H	0.396710	0.121613	0.598119
	H71	H	0.415544	0.885030	0.412572
	H72	H	0.904105	0.620561	0.101271
	H73	H	0.097422	0.384552	0.083275
	H74	H	0.088936	0.615012	0.910439
	H75	H	0.899602	0.380054	0.906055
	H76	H	0.093571	0.900847	0.617142
	H77	H	0.092927	0.091546	0.384095
	H78	H	0.894284	0.092288	0.619539
	H79	H	0.907922	0.902370	0.382540
	H80	H	0.617310	0.094651	0.906939
	H81	H	0.386271	0.093631	0.083732
	H82	H	0.615508	0.916267	0.099421
	H83	H	0.384963	0.907984	0.912351
	H84	H	0.621390	0.897406	0.098854
	H85	H	0.384584	0.082961	0.098978
	H86	H	0.616504	0.091119	0.907070
	H87	H	0.382320	0.913075	0.902256
	H88	H	0.912013	0.084906	0.611624
	H89	H	0.093672	0.095747	0.383251
	H90	H	0.098815	0.907405	0.617030
	H91	H	0.902625	0.907994	0.383305
	H92	H	0.097930	0.619329	0.905925
	H93	H	0.099028	0.378463	0.102334
	H94	H	0.915585	0.615536	0.093361
	H95	H	0.911562	0.382149	0.898876
	H96	H	0.413804	0.117651	0.601714
	H97	H	0.588120	0.881057	0.600619
	H98	H	0.591636	0.117890	0.402768
	H99	H	0.399809	0.880567	0.409918
	H100	H	0.591533	0.411446	0.114346
	H101	H	0.591095	0.598380	0.884052
	H102	H	0.398250	0.593454	0.117991
	H103	H	0.411466	0.401817	0.884069
	H104	H	0.113314	0.587808	0.410822
	H105	H	0.884438	0.590418	0.590024
	H106	H	0.113884	0.418552	0.595437
	H107	H	0.882008	0.404218	0.404932
	H108	H	0.902462	0.617028	0.087287
	H109	H	0.081603	0.385108	0.095058
	H110	H	0.088985	0.618488	0.900397
	H111	H	0.911382	0.385459	0.912495
	H112	H	0.091654	0.908266	0.614497
	H113	H	0.096642	0.093272	0.383791
	H114	H	0.910501	0.104798	0.617821
	H115	H	0.909786	0.908986	0.384778
	H116	H	0.617993	0.093068	0.903992
	H117	H	0.379283	0.100859	0.099274
	H118	H	0.614409	0.905899	0.082898
	H119	H	0.380097	0.901564	0.903439
	C120	C	0.378735	0.008207	0.622213
	C121	C	0.620940	0.991602	0.621742
	C122	C	0.621340	0.008347	0.378324
	C123	C	0.379455	0.990962	0.379011
	C124	C	0.622170	0.378632	0.008464
	C125	C	0.621941	0.621774	0.991855
	C126	C	0.376868	0.622206	0.008480
	C127	C	0.377996	0.378573	0.992049
	C128	C	0.007849	0.621154	0.378311
	C129	C	0.991423	0.621193	0.621523
	C130	C	0.008724	0.378687	0.621714
	C131	C	0.991649	0.378191	0.377945
	C132	C	0.879063	0.508795	0.121634
	C133	C	0.120773	0.491665	0.121356
	C134	C	0.120673	0.508600	0.877729
	C135	C	0.879026	0.491724	0.878413
	C136	C	0.122557	0.877749	0.508067
	C137	C	0.121824	0.121345	0.491602
	C138	C	0.878076	0.121876	0.508124
	C139	C	0.878775	0.878238	0.491621
	C140	C	0.508475	0.121433	0.878634
	C141	C	0.491617	0.121329	0.121713
	C142	C	0.508398	0.878454	0.121773
	C143	C	0.491148	0.878706	0.878153
	C144	C	0.381551	0.884469	0.676831
	C145	C	0.619034	0.115433	0.676216
	C146	C	0.619907	0.884504	0.323341
	C147	C	0.380857	0.114791	0.324473
	C148	C	0.677397	0.381484	0.885700
	C149	C	0.676780	0.619085	0.114502
	C150	C	0.322529	0.619205	0.885504
	C151	C	0.323278	0.381778	0.114679
	C152	C	0.884136	0.676293	0.382340
	C153	C	0.115367	0.675064	0.617387
	C154	C	0.884368	0.325010	0.617850
	C155	C	0.115838	0.324062	0.382538
	C156	C	0.884882	0.381065	0.676513
	C157	C	0.114808	0.618953	0.676367
	C158	C	0.884557	0.619703	0.323638
	C159	C	0.114964	0.380254	0.323214
	C160	C	0.381030	0.676436	0.885564
	C161	C	0.617513	0.675485	0.115089
	C162	C	0.618674	0.324395	0.885329
	C163	C	0.381443	0.324368	0.114965
	C164	C	0.676524	0.884456	0.381417
	C165	C	0.675737	0.115188	0.618128
	C166	C	0.325422	0.883870	0.618066
	C167	C	0.324710	0.115048	0.383080
	C168	C	0.881381	0.384869	0.176424
	C169	C	0.118288	0.615845	0.175515
	C170	C	0.119262	0.384471	0.823442
	C171	C	0.880897	0.615378	0.823480
	C172	C	0.177493	0.880871	0.385303
	C173	C	0.176320	0.118352	0.614670
	C174	C	0.823277	0.119069	0.385458
	C175	C	0.823628	0.880770	0.614036
	C176	C	0.384445	0.175872	0.882800
	C177	C	0.615398	0.175703	0.117634
	C178	C	0.384372	0.824810	0.118062
	C179	C	0.614897	0.823668	0.881843
	C180	C	0.385093	0.881161	0.176916
	C181	C	0.614895	0.119681	0.176637
	C182	C	0.384780	0.119394	0.824151
	C183	C	0.614792	0.880165	0.823239
	C184	C	0.881667	0.176166	0.385195
	C185	C	0.117619	0.175612	0.614995
	C186	C	0.118708	0.823774	0.384720
	C187	C	0.882742	0.824549	0.614640
	C188	C	0.175975	0.384632	0.881506
	C189	C	0.174286	0.616150	0.116848
	C190	C	0.825080	0.384449	0.117829
	C191	C	0.825445	0.616171	0.882889
	C192	C	0.399879	0.095617	0.601296
	C193	C	0.598839	0.904829	0.600033
	C194	C	0.598641	0.094675	0.400233
	C195	C	0.401982	0.904418	0.400525
	C196	C	0.600378	0.400512	0.094066
	C197	C	0.600666	0.599813	0.906061
	C198	C	0.398275	0.600192	0.094101
	C199	C	0.399865	0.400424	0.906433
	C200	C	0.094500	0.598822	0.399697
	C201	C	0.905058	0.599577	0.600129
	C202	C	0.094755	0.400489	0.600317
	C203	C	0.905173	0.400310	0.399245
	C204	C	0.901038	0.595375	0.100055
	C205	C	0.099127	0.405043	0.099905
	C206	C	0.098490	0.595229	0.899124
	C207	C	0.900977	0.404976	0.899578
	C208	C	0.101108	0.899233	0.593865
	C209	C	0.100609	0.100023	0.405993
	C210	C	0.899329	0.100324	0.594099
	C211	C	0.900486	0.899999	0.405619
	C212	C	0.594885	0.099407	0.899632
	C213	C	0.405575	0.099047	0.100312
	C214	C	0.594867	0.900256	0.100054
	C215	C	0.404852	0.901047	0.899673
	Zn216	Zn	0.500093	0.000446	0.750169
	Zn217	Zn	0.500252	-0.000204	0.250367
	Zn218	Zn	0.751416	0.500374	0.000061
	Zn219	Zn	0.248304	0.499831	-0.000091
	Zn220	Zn	0.000130	0.749440	0.499907
	Zn221	Zn	-0.000220	0.250560	0.500305
	Zn222	Zn	-0.000440	0.499761	0.749607
	Zn223	Zn	-0.000272	0.500667	0.249238
	Zn224	Zn	0.499820	0.750317	-0.000104
	Zn225	Zn	0.500098	0.249541	0.000098
	Zn226	Zn	0.749191	-0.000383	0.499887
	Zn227	Zn	0.251354	-0.000729	0.500221
	N228	N	0.413870	0.962995	0.679390
	N229	N	0.585803	0.037368	0.678530
	N230	N	0.586380	0.962465	0.321287
	N231	N	0.414450	0.036782	0.321932
	N232	N	0.679641	0.414456	0.963228
	N233	N	0.679755	0.586647	0.036869
	N234	N	0.319818	0.586276	0.962981
	N235	N	0.320894	0.414634	0.037181
	N236	N	0.961866	0.676970	0.415750
	N237	N	0.037657	0.676611	0.583927
	N238	N	0.962064	0.323297	0.584410
	N239	N	0.037973	0.322627	0.415806
	N240	N	0.962927	0.413753	0.678950
	N241	N	0.036719	0.586323	0.679021
	N242	N	0.962484	0.586225	0.321246
	N243	N	0.036955	0.413591	0.320609
	N244	N	0.414209	0.678475	0.962797
	N245	N	0.584050	0.677117	0.037861
	N246	N	0.585043	0.322429	0.962466
	N247	N	0.415059	0.322485	0.037786
	N248	N	0.677389	0.962407	0.415131
	N249	N	0.677120	0.037106	0.584860
	N250	N	0.323634	0.961975	0.584807
	N251	N	0.323838	0.037083	0.416113
	N252	N	0.914068	0.463108	0.178850
	N253	N	0.085770	0.537500	0.178273
	N254	N	0.085507	0.462525	0.821005
	N255	N	0.913413	0.536962	0.820656
	N256	N	0.179848	0.913591	0.462883
	N257	N	0.179222	0.085281	0.537232
	N258	N	0.820847	0.085917	0.463026
	N259	N	0.821237	0.913737	0.536498
	N260	N	0.462330	0.177255	0.915966
	N261	N	0.537893	0.176622	0.083923
	N262	N	0.462040	0.823421	0.084251
	N263	N	0.537250	0.822673	0.915373
	N264	N	0.463242	0.913892	0.179305
	N265	N	0.536955	0.086476	0.179267
	N266	N	0.462785	0.086361	0.821416
	N267	N	0.536794	0.913696	0.820880
	N268	N	0.915044	0.177745	0.462292
	N269	N	0.084587	0.177709	0.537615
	N270	N	0.085331	0.821637	0.461969
	N271	N	0.916209	0.822970	0.537431
	N272	N	0.177041	0.462791	0.914520
	N273	N	0.175902	0.538104	0.083715
	N274	N	0.823497	0.462528	0.084548
	N275	N	0.824123	0.538197	0.916228
