data_Molecule from HDF5

_cell_length_a		16.480564
_cell_length_b		16.532456
_cell_length_c		16.420842
_cell_angle_alpha	90.024490
_cell_angle_beta	89.965827
_cell_angle_gamma	90.022814
_symmetry_space_group_name_H-M	'P 1'
_symmetry_Int_Tables_number		1

loop_
	_symmetry_equiv_pos_as_xyz
	x,y,z

loop_
	_atom_site_label
	_atom_site_type_symbol
	_atom_site_fract_x
	_atom_site_fract_y
	_atom_site_fract_z
	H0	H	0.391283	0.845874	0.750726
	H1	H	0.605857	0.159447	0.750893
	H2	H	0.604515	0.845972	0.305351
	H3	H	0.395166	0.160713	0.305747
	H4	H	0.718944	0.398729	0.868454
	H5	H	0.716478	0.605092	0.186605
	H6	H	0.274159	0.608500	0.870454
	H7	H	0.277007	0.397434	0.184916
	H8	H	0.842160	0.725937	0.422684
	H9	H	0.156512	0.724141	0.633759
	H10	H	0.843110	0.274912	0.639461
	H11	H	0.154753	0.281759	0.421587
	H12	H	0.839111	0.398597	0.748076
	H13	H	0.156875	0.605891	0.748461
	H14	H	0.840834	0.608343	0.307091
	H15	H	0.154672	0.398301	0.306442
	H16	H	0.389544	0.724876	0.869466
	H17	H	0.599813	0.722328	0.185780
	H18	H	0.606181	0.280604	0.868841
	H19	H	0.391962	0.279497	0.183845
	H20	H	0.722081	0.846690	0.420208
	H21	H	0.724037	0.158758	0.635406
	H22	H	0.275550	0.845510	0.633342
	H23	H	0.276248	0.159030	0.419983
	H24	H	0.889021	0.345268	0.251916
	H25	H	0.102498	0.658936	0.250037
	H26	H	0.102026	0.345111	0.805945
	H27	H	0.895950	0.660612	0.809375
	H28	H	0.218728	0.898597	0.366827
	H29	H	0.221153	0.108303	0.684780
	H30	H	0.775118	0.111981	0.369257
	H31	H	0.776516	0.897423	0.683591
	H32	H	0.342977	0.227648	0.919060
	H33	H	0.657490	0.224545	0.132198
	H34	H	0.341336	0.780353	0.134661
	H35	H	0.654657	0.781976	0.922451
	H36	H	0.341031	0.898585	0.249091
	H37	H	0.658467	0.106831	0.246313
	H38	H	0.341090	0.109844	0.803917
	H39	H	0.655951	0.899829	0.807563
	H40	H	0.890224	0.227789	0.370693
	H41	H	0.105811	0.224788	0.684792
	H42	H	0.105068	0.780388	0.368500
	H43	H	0.895474	0.783490	0.685143
	H44	H	0.220558	0.345065	0.921183
	H45	H	0.221263	0.657531	0.135239
	H46	H	0.774342	0.345232	0.134703
	H47	H	0.778336	0.660079	0.925781
	H48	H	0.411097	0.114428	0.618609
	H49	H	0.588885	0.892110	0.612455
	H50	H	0.587127	0.115643	0.437907
	H51	H	0.407262	0.888247	0.432981
	H52	H	0.583293	0.418142	0.137909
	H53	H	0.589916	0.593087	0.912541
	H54	H	0.414736	0.598697	0.141115
	H55	H	0.406770	0.410034	0.911738
	H56	H	0.108201	0.590019	0.446022
	H57	H	0.882065	0.597124	0.624381
	H58	H	0.109879	0.411501	0.614619
	H59	H	0.883109	0.413777	0.436715
	H60	H	0.109038	0.416616	0.616314
	H61	H	0.885977	0.598448	0.609970
	H62	H	0.111434	0.585482	0.434273
	H63	H	0.885755	0.411158	0.445956
	H64	H	0.400679	0.592320	0.143056
	H65	H	0.586879	0.590084	0.914272
	H66	H	0.583719	0.408451	0.140575
	H67	H	0.407924	0.421433	0.915487
	H68	H	0.589819	0.116326	0.438071
	H69	H	0.587619	0.890733	0.616638
	H70	H	0.413562	0.111805	0.611652
	H71	H	0.414730	0.891779	0.436763
	H72	H	0.909721	0.612069	0.112939
	H73	H	0.085540	0.390120	0.115834
	H74	H	0.083812	0.612131	0.942351
	H75	H	0.913177	0.388853	0.932995
	H76	H	0.088058	0.914538	0.639222
	H77	H	0.091219	0.097052	0.411270
	H78	H	0.912005	0.085607	0.637186
	H79	H	0.910269	0.918232	0.414091
	H80	H	0.609620	0.085010	0.936402
	H81	H	0.386756	0.090812	0.118042
	H82	H	0.611956	0.907618	0.114774
	H83	H	0.384659	0.922384	0.930370
	H84	H	0.609100	0.914868	0.111792
	H85	H	0.386203	0.095227	0.115339
	H86	H	0.614705	0.096075	0.934285
	H87	H	0.380109	0.903233	0.936026
	H88	H	0.915473	0.089705	0.637713
	H89	H	0.090149	0.085685	0.415842
	H90	H	0.088593	0.912262	0.639300
	H91	H	0.915302	0.913245	0.413764
	H92	H	0.090782	0.615171	0.941861
	H93	H	0.085947	0.390106	0.115302
	H94	H	0.902491	0.616057	0.118259
	H95	H	0.909513	0.391414	0.945352
	H96	H	0.406203	0.114738	0.612757
	H97	H	0.584295	0.892717	0.613945
	H98	H	0.588231	0.116180	0.436209
	H99	H	0.407180	0.891227	0.441526
	H100	H	0.591812	0.414343	0.141613
	H101	H	0.585392	0.594490	0.913238
	H102	H	0.412300	0.583456	0.136430
	H103	H	0.417844	0.413766	0.916441
	H104	H	0.113724	0.598425	0.437047
	H105	H	0.888656	0.585821	0.617480
	H106	H	0.111282	0.413002	0.620105
	H107	H	0.887562	0.420146	0.442455
	H108	H	0.911075	0.614622	0.122369
	H109	H	0.085903	0.390234	0.116201
	H110	H	0.085958	0.615172	0.935645
	H111	H	0.901165	0.386686	0.936941
	H112	H	0.090078	0.913938	0.639746
	H113	H	0.080191	0.093467	0.415428
	H114	H	0.910378	0.090125	0.639103
	H115	H	0.908422	0.911552	0.411988
	H116	H	0.608323	0.093913	0.945083
	H117	H	0.388355	0.090472	0.113080
	H118	H	0.613245	0.914672	0.119288
	H119	H	0.388927	0.916340	0.949419
	C120	C	0.377282	0.010513	0.647781
	C121	C	0.620267	0.994823	0.647903
	C122	C	0.620860	0.011728	0.405084
	C123	C	0.377386	0.994133	0.404401
	C124	C	0.619396	0.381534	0.035389
	C125	C	0.618475	0.623678	1.018603
	C126	C	0.375658	0.624382	0.036157
	C127	C	0.378181	0.381879	1.018636
	C128	C	0.007334	0.623995	0.406779
	C129	C	0.990099	0.624833	0.649423
	C130	C	0.006138	0.380711	0.649978
	C131	C	0.989002	0.382121	0.407871
	C132	C	0.874851	0.510823	0.150645
	C133	C	0.118557	0.493554	0.148763
	C134	C	0.119358	0.510374	0.906784
	C135	C	0.876397	0.493830	0.906727
	C136	C	0.120808	0.881289	0.534742
	C137	C	0.120473	0.124416	0.518325
	C138	C	0.878264	0.123484	0.534931
	C139	C	0.878528	0.882244	0.517629
	C140	C	0.507223	0.125045	0.905272
	C141	C	0.491300	0.124260	0.147730
	C142	C	0.507166	0.880792	0.148595
	C143	C	0.488599	0.881662	0.905953
	C144	C	0.373666	0.892822	0.709744
	C145	C	0.623612	0.112507	0.709733
	C146	C	0.622755	0.893393	0.345218
	C147	C	0.375863	0.112893	0.345064
	C148	C	0.679835	0.379677	0.916187
	C149	C	0.676801	0.624156	0.138749
	C150	C	0.314333	0.626965	0.917690
	C151	C	0.317407	0.378928	0.137522
	C152	C	0.888996	0.685153	0.404396
	C153	C	0.109141	0.684056	0.651927
	C154	C	0.889210	0.317635	0.655404
	C155	C	0.107323	0.321612	0.403700
	C156	C	0.887229	0.378980	0.709661
	C157	C	0.109251	0.625437	0.709117
	C158	C	0.888445	0.626806	0.346811
	C159	C	0.107248	0.379619	0.346440
	C160	C	0.371942	0.684887	0.917311
	C161	C	0.619081	0.682384	0.138386
	C162	C	0.623158	0.321142	0.916381
	C163	C	0.374737	0.320683	0.137020
	C164	C	0.681471	0.893857	0.402271
	C165	C	0.682541	0.112292	0.652423
	C166	C	0.316105	0.892394	0.651128
	C167	C	0.316908	0.112327	0.402145
	C168	C	0.871466	0.392838	0.211745
	C169	C	0.121128	0.611606	0.209911
	C170	C	0.120811	0.391996	0.846247
	C171	C	0.876287	0.613202	0.848663
	C172	C	0.179515	0.879916	0.414772
	C173	C	0.181110	0.126619	0.636913
	C174	C	0.815790	0.128888	0.416928
	C175	C	0.817367	0.879433	0.636529
	C176	C	0.389531	0.186869	0.901348
	C177	C	0.610209	0.184445	0.150214
	C178	C	0.388403	0.820961	0.152147
	C179	C	0.607424	0.821800	0.903854
	C180	C	0.388445	0.879493	0.209163
	C181	C	0.610855	0.125559	0.206835
	C182	C	0.388711	0.128107	0.844221
	C183	C	0.608059	0.880309	0.846668
	C184	C	0.873346	0.186651	0.417499
	C185	C	0.123613	0.184877	0.637182
	C186	C	0.122882	0.820979	0.415648
	C187	C	0.876134	0.822585	0.637217
	C188	C	0.179528	0.392002	0.903613
	C189	C	0.180231	0.610959	0.152829
	C190	C	0.814226	0.392675	0.153147
	C191	C	0.817689	0.612819	0.906197
	C192	C	0.403024	0.092299	0.621825
	C193	C	0.594289	0.913078	0.621653
	C194	C	0.595685	0.094483	0.430142
	C195	C	0.402494	0.911704	0.429729
	C196	C	0.593701	0.406404	0.118423
	C197	C	0.594302	0.599424	0.935112
	C198	C	0.401800	0.598884	0.118588
	C199	C	0.403351	0.407739	0.936068
	C200	C	0.089600	0.598522	0.431971
	C201	C	0.907084	0.600546	0.624515
	C202	C	0.088618	0.406326	0.624254
	C203	C	0.906885	0.407491	0.434343
	C204	C	0.900413	0.593008	0.125022
	C205	C	0.093220	0.411506	0.122981
	C206	C	0.094124	0.592768	0.932342
	C207	C	0.900805	0.410718	0.931248
	C208	C	0.096121	0.906216	0.617863
	C209	C	0.094492	0.099424	0.435746
	C210	C	0.905071	0.096401	0.616663
	C211	C	0.904067	0.907191	0.434992
	C212	C	0.589285	0.099148	0.931133
	C213	C	0.408719	0.099358	0.122720
	C214	C	0.589813	0.905331	0.122850
	C215	C	0.406132	0.906886	0.931227
	Zn216	Zn	0.498387	0.002598	0.777418
	Zn217	Zn	0.499908	0.003297	0.275722
	Zn218	Zn	0.747475	0.502206	0.027741
	Zn219	Zn	0.248313	0.501920	0.027774
	Zn220	Zn	-0.000242	0.753313	0.527364
	Zn221	Zn	-0.001975	0.252945	0.527876
	Zn222	Zn	-0.002204	0.502581	0.777989
	Zn223	Zn	-0.002946	0.501742	0.278157
	Zn224	Zn	0.496971	0.752568	0.027238
	Zn225	Zn	0.499386	0.253066	0.026919
	Zn226	Zn	0.749735	0.003319	0.526524
	Zn227	Zn	0.248774	0.002369	0.525900
	N228	N	0.410734	0.967217	0.707977
	N229	N	0.585734	0.038510	0.707205
	N230	N	0.585914	0.967822	0.346964
	N231	N	0.412675	0.038327	0.346277
	N232	N	0.677502	0.416563	0.991247
	N233	N	0.676718	0.588539	0.063172
	N234	N	0.316493	0.590169	0.992611
	N235	N	0.319532	0.416302	0.063021
	N236	N	0.963793	0.683418	0.441146
	N237	N	0.034160	0.683912	0.615522
	N238	N	0.964226	0.318543	0.619017
	N239	N	0.032789	0.323035	0.441252
	N240	N	0.961083	0.417430	0.706390
	N241	N	0.034180	0.589234	0.707572
	N242	N	0.962860	0.589675	0.348072
	N243	N	0.032570	0.416272	0.348823
	N244	N	0.409296	0.683586	0.992132
	N245	N	0.583817	0.682346	0.062633
	N246	N	0.586317	0.322311	0.991449
	N247	N	0.411578	0.322026	0.061885
	N248	N	0.680509	0.968670	0.438661
	N249	N	0.680560	0.038131	0.614587
	N250	N	0.317890	0.966711	0.613737
	N251	N	0.317875	0.037540	0.438292
	N252	N	0.908202	0.467515	0.210519
	N253	N	0.083212	0.537684	0.207343
	N254	N	0.084117	0.466551	0.848286
	N255	N	0.911841	0.538064	0.848876
	N256	N	0.178531	0.916384	0.489945
	N257	N	0.179531	0.090086	0.561894
	N258	N	0.818720	0.090276	0.490848
	N259	N	0.818412	0.915305	0.561159
	N260	N	0.464328	0.185222	0.938141
	N261	N	0.534754	0.183972	0.114339
	N262	N	0.463207	0.821566	0.115270
	N263	N	0.532104	0.822202	0.939806
	N264	N	0.463453	0.915826	0.207171
	N265	N	0.535946	0.089129	0.205722
	N266	N	0.463019	0.090609	0.846221
	N267	N	0.533165	0.916516	0.847850
	N268	N	0.911567	0.183323	0.491929
	N269	N	0.086701	0.183905	0.562140
	N270	N	0.087415	0.821502	0.491473
	N271	N	0.913400	0.823934	0.562355
	N272	N	0.178954	0.466770	0.940298
	N273	N	0.178693	0.536593	0.115566
	N274	N	0.815872	0.467111	0.116066
	N275	N	0.817666	0.537438	0.941333
	O276	O	-0.191702	0.190034	-0.117611
	H277	H	-0.144600	0.200893	-0.115783
	H278	H	-0.207431	0.207798	-0.077803
	O279	O	1.193705	1.200189	0.222192
	H280	H	1.180161	1.214738	0.219930
	H281	H	1.195209	1.194140	0.201830
	O282	O	0.026503	0.220313	0.244512
	H283	H	0.028913	0.214639	0.257835
	H284	H	0.026365	0.231089	0.261398
	O285	O	0.538931	0.720712	0.486329
	H286	H	0.546643	0.711928	0.509240
	H287	H	0.544667	0.725643	0.502383
	O288	O	-0.162890	-0.158496	-0.164483
	H289	H	-0.144470	-0.149349	-0.133271
	H290	H	-0.169721	-0.133674	-0.166356
	O291	O	0.782011	0.786177	0.062700
	H292	H	0.763531	0.789395	0.053722
	H293	H	0.779242	0.780134	0.083061
	O294	O	0.117939	0.843761	-0.137038
	H295	H	0.087012	0.832807	-0.125766
	H296	H	0.113096	0.856541	-0.122883
	O297	O	0.692954	0.702494	0.721941
	H298	H	0.719571	0.706113	0.746984
	H299	H	0.696715	0.669343	0.715292
	O300	O	0.706958	0.422406	0.601503
	H301	H	0.694749	0.412842	0.591814
	H302	H	0.713874	0.398094	0.602395
	O303	O	0.655915	0.667043	0.341990
	H304	H	0.638219	0.664295	0.363143
	H305	H	0.639928	0.646598	0.357649
	O306	O	-0.721486	1.284446	1.552948
	H307	H	-0.742851	1.265431	1.576959
	H308	H	-0.724769	1.279105	1.585273
	O309	O	0.961588	1.108673	0.084059
	H310	H	0.976784	1.101838	0.102030
	H311	H	0.974139	1.111619	0.072707
	O312	O	0.202508	0.981048	-0.190648
	H313	H	0.205604	0.947372	-0.177885
	H314	H	0.232446	0.972197	-0.213439
	O315	O	-0.200883	0.060412	0.822557
	H316	H	-0.203812	0.075693	0.806284
	H317	H	-0.200227	0.094320	0.847343
	O318	O	0.545653	0.468917	0.739036
	H319	H	0.533041	0.473686	0.742198
	H320	H	0.546888	0.474064	0.738748
	O321	O	0.504321	0.432231	0.570120
	H322	H	0.499730	0.435885	0.581946
	H323	H	0.484852	0.426303	0.565794
	O324	O	0.910677	1.019117	0.063819
	H325	H	0.917007	1.027635	0.060028
	H326	H	0.912904	1.024972	0.067521
	O327	O	1.060866	-0.072922	1.229498
	H328	H	1.067796	-0.089828	1.243476
	H329	H	1.065000	-0.085184	1.222413
	O330	O	0.340644	0.446456	-0.624855
	H331	H	0.337598	0.428808	-0.611224
	H332	H	0.332940	0.433158	-0.634072
	O333	O	1.210934	1.212392	1.049983
	H334	H	1.216311	1.199293	1.041218
	H335	H	1.225886	1.225025	1.047840
	O336	O	0.409536	-0.304613	0.332619
	H337	H	0.408109	-0.315914	0.339297
	H338	H	0.427134	-0.287904	0.319365
	O339	O	0.364522	0.483025	0.638795
	H340	H	0.361880	0.502522	0.635805
	H341	H	0.364040	0.479385	0.638576
	O342	O	0.967808	-0.210291	0.239182
	H343	H	0.969479	-0.229552	0.244070
	H344	H	0.942686	-0.215988	0.247331
	O345	O	0.432073	0.655673	0.650759
	H346	H	0.432339	0.657011	0.635624
	H347	H	0.445770	0.651111	0.650684
	O348	O	1.453169	-0.543719	1.380334
	H349	H	1.484222	-0.535285	1.379375
	H350	H	1.461998	-0.556168	1.376364
	O351	O	1.120002	1.130421	-0.170444
	H352	H	1.107138	1.107599	-0.146862
	H353	H	1.133568	1.108854	-0.167284
	O354	O	0.703138	0.536503	0.731689
	H355	H	0.689363	0.516211	0.720960
	H356	H	0.720726	0.517910	0.739967
	O357	O	1.152040	1.066227	1.037216
	H358	H	1.145825	1.062983	1.043593
	H359	H	1.148484	1.067403	1.060526
	O360	O	0.720603	0.553279	0.475824
	H361	H	0.723491	0.557028	0.482018
	H362	H	0.722496	0.544803	0.492162
	O363	O	1.007970	0.038943	0.025123
	H364	H	1.008855	0.014719	0.016144
	H365	H	1.016061	0.021603	0.035376
	O366	O	1.515441	-0.390279	1.310203
	H367	H	1.515999	-0.385807	1.314731
	H368	H	1.516354	-0.374411	1.312319
	O369	O	0.283652	0.715259	-0.496920
	H370	H	0.291590	0.711424	-0.526370
	H371	H	0.265826	0.740651	-0.507227
	O372	O	0.291283	0.393906	0.742150
	H373	H	0.280417	0.400103	0.758352
	H374	H	0.281011	0.425813	0.756221
	O375	O	-0.321002	0.319317	1.351573
	H376	H	-0.308400	0.363740	1.343091
	H377	H	-0.336364	0.311954	1.371284
	O378	O	0.712059	0.720420	0.556026
	H379	H	0.719426	0.728968	0.578895
	H380	H	0.724636	0.726986	0.560065
	O381	O	1.191010	-0.103160	0.121366
	H382	H	1.210957	-0.134778	0.137746
	H383	H	1.186463	-0.107774	0.105996
	O384	O	0.218868	0.034411	1.242385
	H385	H	0.226789	0.029577	1.267061
	H386	H	0.220704	0.066846	1.250176
	O387	O	0.216505	0.785736	1.005664
	H388	H	0.236909	0.769716	0.994417
	H389	H	0.207743	0.780986	0.989275
	O390	O	-0.024098	-0.022331	0.806902
	H391	H	-0.023884	-0.016716	0.806754
	H392	H	-0.040475	-0.026427	0.817190
	O393	O	0.390509	0.307873	-0.286062
	H394	H	0.396319	0.309313	-0.285079
	H395	H	0.380598	0.319185	-0.260841
	O396	O	0.484134	0.509715	0.620341
	H397	H	0.488640	0.519755	0.620279
	H398	H	0.477394	0.505035	0.609818
	O399	O	1.300440	-0.376675	1.328570
	H400	H	1.308879	-0.379160	1.347630
	H401	H	1.314487	-0.405852	1.324996
	O402	O	-0.022153	0.213701	0.822604
	H403	H	-0.012085	0.220055	0.803342
	H404	H	-0.001624	0.192627	0.811644
	O405	O	0.121910	-0.111206	-0.071582
	H406	H	0.094095	-0.112406	-0.062367
	H407	H	0.132151	-0.124306	-0.092339
	O408	O	0.943671	0.822796	0.005828
	H409	H	0.929899	0.826361	0.016647
	H410	H	0.950656	0.825904	0.013181
	O411	O	0.013897	0.798949	0.022799
	H412	H	0.021751	0.803905	0.026973
	H413	H	0.025249	0.797733	0.010184
	O414	O	-0.173555	1.008958	0.198621
	H415	H	-0.159803	0.979841	0.197338
	H416	H	-0.183161	1.003059	0.212597
	O417	O	-0.216290	-0.022712	1.063950
	H418	H	-0.224537	0.000584	1.071572
	H419	H	-0.201325	-0.001147	1.071311
	O420	O	0.473482	0.292726	0.503488
	H421	H	0.459642	0.283509	0.508731
	H422	H	0.467705	0.289095	0.506337
	O423	O	-0.175538	1.203763	0.029420
	H424	H	-0.171095	1.189008	0.052468
	H425	H	-0.170342	1.223188	0.032798
	O426	O	0.320700	1.502103	0.536082
	H427	H	0.309674	1.492337	0.534920
	H428	H	0.317804	1.503456	0.533717
	O429	O	0.346872	0.572942	0.662021
	H430	H	0.356707	0.593508	0.664628
	H431	H	0.349874	0.575501	0.631268
	O432	O	0.526114	0.288887	0.312254
	H433	H	0.527233	0.268366	0.291815
	H434	H	0.545222	0.287297	0.325751
	O435	O	-0.425991	0.287627	-0.357723
	H436	H	-0.425307	0.301064	-0.378604
	H437	H	-0.428165	0.262079	-0.331324
	O438	O	0.869104	0.108517	0.078636
	H439	H	0.882137	0.126874	0.072079
	H440	H	0.861354	0.092360	0.092955
	O441	O	1.054366	1.036052	0.171406
	H442	H	1.069033	1.008170	0.173162
	H443	H	1.043029	1.025202	0.167861
	O444	O	0.621871	0.358392	0.455289
	H445	H	0.640243	0.328018	0.466425
	H446	H	0.598126	0.350753	0.460218
	O447	O	0.301523	0.372418	0.394237
	H448	H	0.291262	0.359773	0.394854
	H449	H	0.316065	0.384898	0.395948
	O450	O	0.708901	0.482848	0.320377
	H451	H	0.715740	0.488865	0.306982
	H452	H	0.711542	0.498393	0.321974
	O453	O	0.994057	0.796232	-0.119106
	H454	H	0.980046	0.815708	-0.112466
	H455	H	0.973754	0.781578	-0.135154
	O456	O	0.799932	-0.197148	0.229300
	H457	H	0.790755	-0.221886	0.253322
	H458	H	0.793487	-0.174659	0.206543
	O459	O	0.542779	0.558037	0.525361
	H460	H	0.553372	0.553662	0.528061
	H461	H	0.531387	0.541219	0.525935
	O462	O	0.521767	0.720830	0.725604
	H463	H	0.523710	0.746067	0.756957
	H464	H	0.555062	0.715188	0.722583
	O465	O	1.037970	0.143092	-0.052727
	H466	H	1.047101	0.135683	-0.066006
	H467	H	1.043501	0.130904	-0.054029
