data_Molecule from HDF5

_cell_length_a		16.261706
_cell_length_b		16.196995
_cell_length_c		16.343542
_cell_angle_alpha	89.946085
_cell_angle_beta	89.857440
_cell_angle_gamma	89.958810
_symmetry_space_group_name_H-M	'P 1'
_symmetry_Int_Tables_number		1

loop_
	_symmetry_equiv_pos_as_xyz
	x,y,z

loop_
	_atom_site_label
	_atom_site_type_symbol
	_atom_site_fract_x
	_atom_site_fract_y
	_atom_site_fract_z
	H0	H	0.402921	0.829523	0.709424
	H1	H	0.601818	0.157580	0.708811
	H2	H	0.601701	0.828790	0.280521
	H3	H	0.404555	0.157801	0.278518
	H4	H	0.717974	0.395080	0.830600
	H5	H	0.716642	0.591057	0.156997
	H6	H	0.289068	0.590648	0.830816
	H7	H	0.287068	0.393537	0.157147
	H8	H	0.837492	0.707366	0.398329
	H9	H	0.167460	0.707092	0.589909
	H10	H	0.838080	0.281172	0.590732
	H11	H	0.166916	0.280774	0.395949
	H12	H	0.839261	0.394504	0.709780
	H13	H	0.166140	0.593131	0.708225
	H14	H	0.839059	0.594517	0.278670
	H15	H	0.166425	0.396494	0.279899
	H16	H	0.404517	0.707984	0.830419
	H17	H	0.599521	0.706757	0.157426
	H18	H	0.600133	0.279786	0.830124
	H19	H	0.405625	0.279232	0.157670
	H20	H	0.717863	0.829913	0.395851
	H21	H	0.714899	0.159347	0.590913
	H22	H	0.288767	0.828848	0.592082
	H23	H	0.290554	0.159398	0.396564
	H24	H	0.903368	0.329702	0.209594
	H25	H	0.102639	0.658104	0.207997
	H26	H	0.102760	0.329792	0.778523
	H27	H	0.903670	0.658344	0.780175
	H28	H	0.217454	0.896300	0.330370
	H29	H	0.218011	0.093432	0.657484
	H30	H	0.787148	0.093926	0.330788
	H31	H	0.787228	0.895989	0.657286
	H32	H	0.337898	0.205780	0.897623
	H33	H	0.667400	0.205069	0.088394
	H34	H	0.337651	0.780722	0.091536
	H35	H	0.666268	0.780480	0.896397
	H36	H	0.339101	0.893054	0.210025
	H37	H	0.666308	0.092709	0.208079
	H38	H	0.339655	0.093816	0.778411
	H39	H	0.665598	0.893774	0.778757
	H40	H	0.904940	0.208628	0.330308
	H41	H	0.100444	0.208972	0.657447
	H42	H	0.101103	0.780652	0.330247
	H43	H	0.904703	0.780714	0.657881
	H44	H	0.216867	0.329097	0.896166
	H45	H	0.215420	0.658924	0.089931
	H46	H	0.789915	0.328629	0.091568
	H47	H	0.790193	0.658739	0.897404
	H48	H	0.411035	0.109543	0.585698
	H49	H	0.599214	0.873761	0.595119
	H50	H	0.605884	0.113216	0.403165
	H51	H	0.412661	0.878889	0.404964
	H52	H	0.598126	0.405238	0.108889
	H53	H	0.601954	0.581097	0.877497
	H54	H	0.407328	0.581668	0.109271
	H55	H	0.410540	0.407152	0.880490
	H56	H	0.117797	0.588941	0.406982
	H57	H	0.883617	0.591834	0.590086
	H58	H	0.118863	0.401482	0.585135
	H59	H	0.884727	0.397135	0.403573
	H60	H	0.119146	0.403065	0.588284
	H61	H	0.887242	0.586916	0.582862
	H62	H	0.119191	0.579787	0.397389
	H63	H	0.887595	0.406855	0.402644
	H64	H	0.413497	0.588809	0.109409
	H65	H	0.589313	0.585575	0.880112
	H66	H	0.591332	0.396276	0.109275
	H67	H	0.414628	0.395021	0.877755
	H68	H	0.592300	0.113161	0.389153
	H69	H	0.586931	0.878899	0.586542
	H70	H	0.407238	0.111893	0.587242
	H71	H	0.402479	0.874948	0.401791
	H72	H	0.912902	0.612581	0.095190
	H73	H	0.084855	0.379646	0.089514
	H74	H	0.088786	0.607748	0.906441
	H75	H	0.920996	0.379295	0.900564
	H76	H	0.094160	0.904164	0.609048
	H77	H	0.088356	0.083768	0.382175
	H78	H	0.918678	0.090306	0.608040
	H79	H	0.917121	0.894602	0.378476
	H80	H	0.619301	0.089887	0.906629
	H81	H	0.388688	0.088121	0.077021
	H82	H	0.618374	0.895644	0.078829
	H83	H	0.391229	0.916022	0.904827
	H84	H	0.617139	0.909583	0.088021
	H85	H	0.387141	0.075924	0.093107
	H86	H	0.616777	0.078563	0.899753
	H87	H	0.380236	0.898648	0.885908
	H88	H	0.901717	0.094570	0.613784
	H89	H	0.097304	0.097698	0.375195
	H90	H	0.094377	0.896213	0.610887
	H91	H	0.900333	0.899495	0.374902
	H92	H	0.103806	0.612397	0.903269
	H93	H	0.098904	0.377891	0.077660
	H94	H	0.914475	0.607371	0.080940
	H95	H	0.904620	0.377235	0.909828
	H96	H	0.410870	0.111326	0.589555
	H97	H	0.601482	0.877390	0.579256
	H98	H	0.587308	0.106806	0.407633
	H99	H	0.411054	0.875180	0.394205
	H100	H	0.601357	0.395876	0.113398
	H101	H	0.598694	0.594050	0.874433
	H102	H	0.404426	0.590551	0.112888
	H103	H	0.402035	0.398285	0.875163
	H104	H	0.121692	0.592834	0.394845
	H105	H	0.886190	0.582548	0.591165
	H106	H	0.120224	0.399411	0.587813
	H107	H	0.883666	0.401770	0.394580
	H108	H	0.901121	0.613166	0.085804
	H109	H	0.101306	0.373139	0.095188
	H110	H	0.092694	0.612627	0.891392
	H111	H	0.905843	0.371716	0.891607
	H112	H	0.101314	0.900696	0.611433
	H113	H	0.104905	0.082028	0.376703
	H114	H	0.905444	0.078076	0.607839
	H115	H	0.912102	0.911518	0.381441
	H116	H	0.622457	0.088781	0.893222
	H117	H	0.380867	0.095173	0.094038
	H118	H	0.623153	0.895896	0.094856
	H119	H	0.385241	0.889638	0.911478
	C120	C	0.381230	0.001951	0.615822
	C121	C	0.623777	0.985724	0.614941
	C122	C	0.623987	0.002201	0.372111
	C123	C	0.381193	0.985408	0.372404
	C124	C	0.624981	0.371131	0.002103
	C125	C	0.624675	0.615291	0.985457
	C126	C	0.380588	0.615368	0.002408
	C127	C	0.380741	0.371199	0.985710
	C128	C	0.010948	0.615922	0.372126
	C129	C	0.994264	0.615437	0.615446
	C130	C	0.010742	0.373152	0.615229
	C131	C	0.994134	0.373330	0.372374
	C132	C	0.881230	0.502189	0.115788
	C133	C	0.123641	0.485460	0.114955
	C134	C	0.123933	0.502090	0.872266
	C135	C	0.881435	0.485072	0.872479
	C136	C	0.124576	0.872578	0.502110
	C137	C	0.124638	0.116180	0.485977
	C138	C	0.880672	0.115940	0.501964
	C139	C	0.880903	0.872819	0.485922
	C140	C	0.511087	0.114623	0.872027
	C141	C	0.494265	0.114622	0.115432
	C142	C	0.510794	0.871978	0.115490
	C143	C	0.493696	0.872554	0.872497
	C144	C	0.383435	0.878236	0.670849
	C145	C	0.621421	0.108983	0.670228
	C146	C	0.622084	0.878323	0.317559
	C147	C	0.384333	0.109162	0.317191
	C148	C	0.679980	0.374294	0.879361
	C149	C	0.679056	0.611894	0.108281
	C150	C	0.326477	0.612079	0.879367
	C151	C	0.325871	0.373801	0.108737
	C152	C	0.886843	0.670322	0.376433
	C153	C	0.118264	0.669582	0.611100
	C154	C	0.887027	0.318642	0.612053
	C155	C	0.117825	0.318444	0.375448
	C156	C	0.887635	0.374799	0.670913
	C157	C	0.117734	0.613337	0.670016
	C158	C	0.887662	0.614496	0.317106
	C159	C	0.117631	0.375672	0.317681
	C160	C	0.383672	0.670301	0.879353
	C161	C	0.620801	0.669552	0.108533
	C162	C	0.621528	0.317047	0.879022
	C163	C	0.384469	0.316538	0.108813
	C164	C	0.679590	0.878517	0.375132
	C165	C	0.677744	0.109874	0.611589
	C166	C	0.326460	0.877998	0.612816
	C167	C	0.327383	0.109819	0.375403
	C168	C	0.883256	0.378521	0.171469
	C169	C	0.121959	0.609288	0.169747
	C170	C	0.122083	0.378447	0.817284
	C171	C	0.883564	0.609057	0.817771
	C172	C	0.179474	0.875842	0.379126
	C173	C	0.179599	0.113489	0.608921
	C174	C	0.825443	0.113917	0.379307
	C175	C	0.825702	0.875428	0.608800
	C176	C	0.387264	0.168991	0.876158
	C177	C	0.618153	0.168488	0.110778
	C178	C	0.386825	0.818043	0.112334
	C179	C	0.617344	0.817685	0.875401
	C180	C	0.387683	0.873777	0.171373
	C181	C	0.617550	0.112342	0.169900
	C182	C	0.387852	0.113066	0.817260
	C183	C	0.617098	0.874284	0.817172
	C184	C	0.884153	0.170708	0.379019
	C185	C	0.121205	0.170817	0.608929
	C186	C	0.121891	0.817922	0.379139
	C187	C	0.883997	0.818237	0.608920
	C188	C	0.178971	0.378137	0.875521
	C189	C	0.178395	0.609744	0.111367
	C190	C	0.826873	0.377970	0.113039
	C191	C	0.827154	0.609210	0.876148
	C192	C	0.403207	0.088559	0.594019
	C193	C	0.602112	0.898941	0.593342
	C194	C	0.601806	0.088814	0.393717
	C195	C	0.402371	0.898600	0.393989
	C196	C	0.603349	0.392723	0.088350
	C197	C	0.602971	0.593386	0.899552
	C198	C	0.402014	0.593530	0.088243
	C199	C	0.402534	0.393547	0.899852
	C200	C	0.097220	0.593819	0.393437
	C201	C	0.908061	0.593571	0.594368
	C202	C	0.096987	0.394854	0.593538
	C203	C	0.907713	0.395351	0.393971
	C204	C	0.903100	0.588645	0.093914
	C205	C	0.101608	0.399206	0.093624
	C206	C	0.101674	0.588634	0.894108
	C207	C	0.903789	0.398349	0.894225
	C208	C	0.103051	0.893943	0.588186
	C209	C	0.103201	0.094144	0.400153
	C210	C	0.902316	0.094011	0.587741
	C211	C	0.903198	0.895232	0.400357
	C212	C	0.597178	0.092357	0.893385
	C213	C	0.407720	0.092772	0.094352
	C214	C	0.597093	0.893942	0.093731
	C215	C	0.407846	0.894839	0.894364
	Zn216	Zn	0.502493	-0.006429	0.743823
	Zn217	Zn	0.502433	-0.006705	0.244087
	Zn218	Zn	0.753591	0.493208	-0.006249
	Zn219	Zn	0.251792	0.493202	-0.005614
	Zn220	Zn	0.002483	0.743709	0.493984
	Zn221	Zn	0.002361	0.244825	0.493855
	Zn222	Zn	0.002543	0.494187	0.743932
	Zn223	Zn	0.002655	0.494392	0.243730
	Zn224	Zn	0.502181	0.744165	-0.006208
	Zn225	Zn	0.502663	0.242537	-0.006583
	Zn226	Zn	0.751936	-0.005634	0.493816
	Zn227	Zn	0.253242	-0.005879	0.493960
	N228	N	0.416667	0.956397	0.672845
	N229	N	0.588690	0.030768	0.672336
	N230	N	0.588337	0.956326	0.315510
	N231	N	0.416741	0.030661	0.315133
	N232	N	0.682163	0.407115	0.956973
	N233	N	0.681516	0.578980	0.030729
	N234	N	0.324244	0.578674	0.956778
	N235	N	0.323324	0.406806	0.031176
	N236	N	0.964444	0.671526	0.409721
	N237	N	0.040476	0.671002	0.577861
	N238	N	0.964443	0.317514	0.578133
	N239	N	0.039929	0.316866	0.408637
	N240	N	0.965469	0.407984	0.672895
	N241	N	0.039778	0.580451	0.672720
	N242	N	0.965614	0.581374	0.314375
	N243	N	0.039881	0.409071	0.315771
	N244	N	0.416649	0.672383	0.956906
	N245	N	0.587681	0.671647	0.031019
	N246	N	0.588076	0.315043	0.956465
	N247	N	0.417664	0.314836	0.031305
	N248	N	0.680841	0.956387	0.408345
	N249	N	0.679286	0.031948	0.577984
	N250	N	0.324997	0.955902	0.579293
	N251	N	0.325769	0.032084	0.409353
	N252	N	0.916456	0.456764	0.173305
	N253	N	0.088677	0.531202	0.172289
	N254	N	0.088718	0.456614	0.815039
	N255	N	0.916929	0.530801	0.815510
	N256	N	0.181238	0.908901	0.456623
	N257	N	0.181824	0.080277	0.531438
	N258	N	0.823155	0.080455	0.456726
	N259	N	0.823665	0.908660	0.531313
	N260	N	0.464889	0.170144	0.909375
	N261	N	0.540545	0.169843	0.077630
	N262	N	0.464299	0.816803	0.078064
	N263	N	0.539727	0.816511	0.909086
	N264	N	0.465716	0.906736	0.173343
	N265	N	0.539442	0.079648	0.172852
	N266	N	0.465710	0.079945	0.814715
	N267	N	0.539315	0.907656	0.815273
	N268	N	0.917581	0.172158	0.456235
	N269	N	0.087670	0.172493	0.531707
	N270	N	0.088411	0.815581	0.456590
	N271	N	0.917547	0.816454	0.531535
	N272	N	0.180443	0.456129	0.908816
	N273	N	0.179540	0.531800	0.077973
	N274	N	0.825602	0.455717	0.079084
	N275	N	0.825741	0.531067	0.909161
	O276	O	0.998725	-0.040104	0.998335
	H277	H	0.997136	-0.038007	0.996033
	H278	H	0.996421	-0.035922	1.001306
	O279	O	0.033800	0.995810	1.015500
	H280	H	0.039878	1.001649	1.016009
	H281	H	0.029938	0.995839	1.017899
	O282	O	1.044834	0.986932	0.019022
	H283	H	1.046813	0.981790	0.020707
	H284	H	1.054671	0.980790	0.019631
	O285	O	0.039418	0.942487	1.039099
	H286	H	0.033815	0.941010	1.038636
	H287	H	0.038344	0.944797	1.038110
