data_Molecule from HDF5

_cell_length_a		16.216784
_cell_length_b		16.244207
_cell_length_c		16.328405
_cell_angle_alpha	89.965823
_cell_angle_beta	90.051666
_cell_angle_gamma	90.005207
_symmetry_space_group_name_H-M	'P 1'
_symmetry_Int_Tables_number		1

loop_
	_symmetry_equiv_pos_as_xyz
	x,y,z

loop_
	_atom_site_label
	_atom_site_type_symbol
	_atom_site_fract_x
	_atom_site_fract_y
	_atom_site_fract_z
	H0	H	0.404778	0.829552	0.707795
	H1	H	0.603218	0.157223	0.709297
	H2	H	0.601965	0.829367	0.278490
	H3	H	0.404444	0.157377	0.278628
	H4	H	0.715703	0.396421	0.828456
	H5	H	0.717003	0.590341	0.157118
	H6	H	0.288827	0.590375	0.829704
	H7	H	0.289003	0.395698	0.156539
	H8	H	0.838278	0.706372	0.394699
	H9	H	0.167862	0.705326	0.590910
	H10	H	0.837768	0.279423	0.589734
	H11	H	0.167583	0.279688	0.396232
	H12	H	0.838801	0.392809	0.708139
	H13	H	0.166852	0.590285	0.706961
	H14	H	0.838705	0.590373	0.278806
	H15	H	0.167108	0.394455	0.279107
	H16	H	0.403968	0.707980	0.830189
	H17	H	0.602208	0.707862	0.156455
	H18	H	0.600812	0.278423	0.829630
	H19	H	0.405804	0.279744	0.157424
	H20	H	0.715311	0.828586	0.396616
	H21	H	0.716728	0.157562	0.590276
	H22	H	0.291832	0.827730	0.589074
	H23	H	0.290271	0.158197	0.397508
	H24	H	0.904155	0.327960	0.207332
	H25	H	0.103207	0.656495	0.208169
	H26	H	0.101152	0.328906	0.778447
	H27	H	0.903409	0.656477	0.776927
	H28	H	0.217691	0.894238	0.330273
	H29	H	0.216069	0.089225	0.657910
	H30	H	0.787691	0.091792	0.329774
	H31	H	0.789377	0.895395	0.656880
	H32	H	0.338029	0.205251	0.897380
	H33	H	0.668151	0.206551	0.091216
	H34	H	0.338685	0.779332	0.091416
	H35	H	0.667064	0.778999	0.895004
	H36	H	0.339359	0.894201	0.207959
	H37	H	0.667079	0.092775	0.208410
	H38	H	0.338564	0.092434	0.779492
	H39	H	0.666703	0.894787	0.779163
	H40	H	0.903841	0.207403	0.329629
	H41	H	0.100092	0.206497	0.657074
	H42	H	0.100789	0.779069	0.329265
	H43	H	0.905271	0.778738	0.656573
	H44	H	0.216167	0.328447	0.896248
	H45	H	0.216731	0.657189	0.090607
	H46	H	0.789816	0.327709	0.089445
	H47	H	0.790774	0.658041	0.895570
	H48	H	0.409651	0.109298	0.583146
	H49	H	0.605350	0.876036	0.577892
	H50	H	0.593199	0.109783	0.399569
	H51	H	0.419219	0.878322	0.398549
	H52	H	0.597588	0.409983	0.106273
	H53	H	0.594903	0.583836	0.877967
	H54	H	0.409975	0.586719	0.109751
	H55	H	0.408165	0.392344	0.874444
	H56	H	0.120999	0.587924	0.398724
	H57	H	0.885178	0.586493	0.585394
	H58	H	0.118946	0.402049	0.586258
	H59	H	0.885086	0.402471	0.394399
	H60	H	0.120356	0.397532	0.588345
	H61	H	0.885903	0.585279	0.584873
	H62	H	0.119113	0.585528	0.402832
	H63	H	0.882815	0.393973	0.397334
	H64	H	0.409233	0.586527	0.110039
	H65	H	0.595332	0.590812	0.875435
	H66	H	0.587416	0.393889	0.108013
	H67	H	0.403698	0.402892	0.876186
	H68	H	0.594959	0.109326	0.402458
	H69	H	0.597537	0.873011	0.600358
	H70	H	0.405119	0.112448	0.589419
	H71	H	0.405915	0.877036	0.406783
	H72	H	0.908730	0.608268	0.080704
	H73	H	0.099832	0.374197	0.087221
	H74	H	0.090113	0.604663	0.910991
	H75	H	0.912511	0.375621	0.896066
	H76	H	0.089531	0.896638	0.607540
	H77	H	0.102141	0.092035	0.373617
	H78	H	0.908441	0.083869	0.609088
	H79	H	0.908920	0.896367	0.375446
	H80	H	0.622468	0.089822	0.895069
	H81	H	0.382777	0.093555	0.090312
	H82	H	0.618139	0.906652	0.084720
	H83	H	0.380953	0.897014	0.889054
	H84	H	0.622175	0.898906	0.092186
	H85	H	0.388894	0.086007	0.078361
	H86	H	0.619654	0.088926	0.905424
	H87	H	0.386625	0.892251	0.909826
	H88	H	0.911490	0.085669	0.608063
	H89	H	0.099749	0.078344	0.378319
	H90	H	0.101180	0.892484	0.612894
	H91	H	0.907166	0.900767	0.376833
	H92	H	0.108337	0.614083	0.898345
	H93	H	0.092392	0.376036	0.089878
	H94	H	0.905416	0.612400	0.091276
	H95	H	0.911996	0.377753	0.903167
	H96	H	0.413389	0.110441	0.590440
	H97	H	0.582121	0.881726	0.583334
	H98	H	0.596390	0.110548	0.399542
	H99	H	0.405483	0.872847	0.392146
	H100	H	0.605362	0.394383	0.112942
	H101	H	0.601097	0.586940	0.875437
	H102	H	0.409782	0.586078	0.109781
	H103	H	0.414646	0.400534	0.879374
	H104	H	0.120318	0.583349	0.398278
	H105	H	0.885094	0.584985	0.586340
	H106	H	0.119393	0.398613	0.583185
	H107	H	0.887502	0.400449	0.403816
	H108	H	0.915925	0.608325	0.089591
	H109	H	0.094224	0.377931	0.081927
	H110	H	0.087035	0.610570	0.888484
	H111	H	0.906143	0.375194	0.899153
	H112	H	0.099739	0.904612	0.608731
	H113	H	0.089178	0.087723	0.378705
	H114	H	0.908795	0.087697	0.609849
	H115	H	0.911597	0.899314	0.377817
	H116	H	0.618953	0.080916	0.898836
	H117	H	0.386656	0.078990	0.091511
	H118	H	0.620085	0.895958	0.081051
	H119	H	0.389541	0.912191	0.902003
	C120	C	0.381259	0.002013	0.615391
	C121	C	0.624345	0.985216	0.615297
	C122	C	0.623855	0.001332	0.371783
	C123	C	0.381545	0.984815	0.371353
	C124	C	0.624751	0.371266	0.001092
	C125	C	0.625212	0.615047	0.984580
	C126	C	0.381187	0.614690	0.001580
	C127	C	0.380897	0.370610	0.984899
	C128	C	0.011539	0.613907	0.371362
	C129	C	0.994290	0.613660	0.614088
	C130	C	0.010765	0.370962	0.614406
	C131	C	0.993988	0.370718	0.370951
	C132	C	0.881562	0.500724	0.114780
	C133	C	0.124000	0.484636	0.114511
	C134	C	0.123396	0.501115	0.871585
	C135	C	0.881928	0.484810	0.871235
	C136	C	0.125197	0.869819	0.501818
	C137	C	0.124441	0.113972	0.485168
	C138	C	0.880976	0.114159	0.501272
	C139	C	0.880818	0.870621	0.484686
	C140	C	0.511348	0.114362	0.872045
	C141	C	0.494912	0.114945	0.114855
	C142	C	0.511478	0.872057	0.114399
	C143	C	0.494108	0.871738	0.871941
	C144	C	0.384151	0.878098	0.669845
	C145	C	0.622760	0.108450	0.670584
	C146	C	0.622024	0.878146	0.316603
	C147	C	0.383836	0.108421	0.316545
	C148	C	0.678692	0.375103	0.877613
	C149	C	0.679886	0.611493	0.107967
	C150	C	0.326521	0.611316	0.878430
	C151	C	0.327115	0.374772	0.108002
	C152	C	0.887456	0.668787	0.373783
	C153	C	0.118490	0.667931	0.611205
	C154	C	0.887054	0.316451	0.611351
	C155	C	0.118324	0.316865	0.375072
	C156	C	0.887404	0.373337	0.669602
	C157	C	0.118063	0.610983	0.669064
	C158	C	0.887613	0.611274	0.316241
	C159	C	0.118212	0.373777	0.316974
	C160	C	0.383720	0.669641	0.878726
	C161	C	0.622341	0.669439	0.107867
	C162	C	0.621326	0.316616	0.878013
	C163	C	0.385118	0.317227	0.108359
	C164	C	0.678257	0.877740	0.375107
	C165	C	0.679222	0.108562	0.611648
	C166	C	0.328252	0.877260	0.610865
	C167	C	0.327467	0.108739	0.375824
	C168	C	0.884030	0.377065	0.169397
	C169	C	0.122605	0.607834	0.169986
	C170	C	0.121633	0.377714	0.816366
	C171	C	0.883551	0.608027	0.815475
	C172	C	0.179788	0.873598	0.378825
	C173	C	0.178726	0.110485	0.608848
	C174	C	0.825844	0.111940	0.378301
	C175	C	0.826241	0.873985	0.607677
	C176	C	0.387249	0.168544	0.875774
	C177	C	0.618803	0.169321	0.111672
	C178	C	0.388050	0.816728	0.112164
	C179	C	0.617936	0.817054	0.874925
	C180	C	0.388194	0.874119	0.169892
	C181	C	0.618334	0.112787	0.170067
	C182	C	0.387550	0.112189	0.817381
	C183	C	0.617919	0.874583	0.817450
	C184	C	0.883407	0.169499	0.378315
	C185	C	0.121297	0.168857	0.608270
	C186	C	0.121352	0.816424	0.378288
	C187	C	0.884135	0.816260	0.607655
	C188	C	0.178109	0.377227	0.875184
	C189	C	0.179099	0.608422	0.111445
	C190	C	0.827052	0.376963	0.111020
	C191	C	0.827854	0.608647	0.874695
	C192	C	0.402961	0.088359	0.594097
	C193	C	0.601749	0.899026	0.593601
	C194	C	0.601410	0.087754	0.393910
	C195	C	0.403743	0.898311	0.392824
	C196	C	0.603213	0.393008	0.086972
	C197	C	0.603469	0.593754	0.898467
	C198	C	0.402982	0.593044	0.087525
	C199	C	0.402455	0.392087	0.898901
	C200	C	0.097840	0.592127	0.393429
	C201	C	0.907813	0.592038	0.592157
	C202	C	0.097339	0.392912	0.592406
	C203	C	0.907568	0.392517	0.392186
	C204	C	0.903635	0.587320	0.093454
	C205	C	0.101992	0.398367	0.092761
	C206	C	0.101531	0.587504	0.893081
	C207	C	0.903892	0.398544	0.892844
	C208	C	0.103249	0.891528	0.587768
	C209	C	0.103311	0.092434	0.399127
	C210	C	0.903030	0.092238	0.586886
	C211	C	0.902788	0.892376	0.398829
	C212	C	0.598047	0.092797	0.893351
	C213	C	0.408484	0.092871	0.093121
	C214	C	0.597790	0.894226	0.092445
	C215	C	0.407910	0.894011	0.893871
	Zn216	Zn	0.502265	-0.006611	0.743918
	Zn217	Zn	0.503449	-0.006971	0.242952
	Zn218	Zn	0.753598	0.493121	-0.007168
	Zn219	Zn	0.251956	0.493061	-0.006790
	Zn220	Zn	0.002733	0.741644	0.492964
	Zn221	Zn	0.002485	0.242865	0.492566
	Zn222	Zn	0.002724	0.492950	0.742321
	Zn223	Zn	0.003187	0.492408	0.243343
	Zn224	Zn	0.502907	0.743566	-0.006765
	Zn225	Zn	0.503007	0.242405	-0.006822
	Zn226	Zn	0.752431	-0.006834	0.492791
	Zn227	Zn	0.253436	-0.007487	0.493870
	N228	N	0.416515	0.956444	0.672689
	N229	N	0.588855	0.030833	0.672747
	N230	N	0.589094	0.956221	0.314426
	N231	N	0.416851	0.030325	0.313767
	N232	N	0.680898	0.408328	0.955086
	N233	N	0.681601	0.578312	0.030418
	N234	N	0.324946	0.577648	0.955846
	N235	N	0.324440	0.407453	0.030253
	N236	N	0.965339	0.670391	0.407378
	N237	N	0.040361	0.669802	0.577736
	N238	N	0.964718	0.315202	0.577573
	N239	N	0.040159	0.314928	0.407849
	N240	N	0.965497	0.406597	0.671464
	N241	N	0.040041	0.578016	0.670636
	N242	N	0.965768	0.578091	0.314412
	N243	N	0.040005	0.406294	0.314140
	N244	N	0.417035	0.671733	0.956211
	N245	N	0.589163	0.671943	0.030217
	N246	N	0.588569	0.314192	0.955684
	N247	N	0.417604	0.314481	0.030684
	N248	N	0.679413	0.955443	0.408739
	N249	N	0.680171	0.030977	0.578053
	N250	N	0.326579	0.955084	0.577661
	N251	N	0.325850	0.030856	0.409076
	N252	N	0.917030	0.455202	0.172052
	N253	N	0.089174	0.529992	0.171993
	N254	N	0.088308	0.455557	0.814225
	N255	N	0.916531	0.530115	0.813386
	N256	N	0.182004	0.906319	0.456501
	N257	N	0.180648	0.077123	0.531399
	N258	N	0.824219	0.078168	0.455710
	N259	N	0.824293	0.907268	0.530200
	N260	N	0.465162	0.169906	0.909047
	N261	N	0.540993	0.170536	0.077814
	N262	N	0.465622	0.815463	0.078332
	N263	N	0.539947	0.815241	0.908024
	N264	N	0.466100	0.907547	0.171434
	N265	N	0.540367	0.079562	0.172060
	N266	N	0.465721	0.079321	0.814886
	N267	N	0.539866	0.907766	0.815374
	N268	N	0.916974	0.170982	0.455609
	N269	N	0.088004	0.170896	0.530558
	N270	N	0.088205	0.813955	0.455815
	N271	N	0.917244	0.813882	0.530159
	N272	N	0.179499	0.454980	0.908750
	N273	N	0.180209	0.530694	0.077817
	N274	N	0.825735	0.454774	0.077694
	N275	N	0.826544	0.530967	0.908534
	O276	O	1.017600	0.002359	1.047507
	H277	H	1.020644	0.002450	1.057497
	H278	H	1.028019	0.006457	1.045342
	O279	O	0.041455	1.016816	1.060688
	H280	H	0.049725	1.022792	1.059750
	H281	H	0.035132	1.015362	1.065024
	O282	O	0.998509	0.997269	0.012067
	H283	H	1.000720	0.992620	0.016049
	H284	H	0.994551	0.990956	0.004133
	O285	O	0.017292	1.016844	1.066291
	H286	H	0.005852	1.017414	1.068254
	H287	H	0.016761	1.025201	1.067656
