data_Molecule from HDF5

_cell_length_a		16.551952
_cell_length_b		16.439454
_cell_length_c		16.601903
_cell_angle_alpha	89.957580
_cell_angle_beta	90.047006
_cell_angle_gamma	89.922398
_symmetry_space_group_name_H-M	'P 1'
_symmetry_Int_Tables_number		1

loop_
	_symmetry_equiv_pos_as_xyz
	x,y,z

loop_
	_atom_site_label
	_atom_site_type_symbol
	_atom_site_fract_x
	_atom_site_fract_y
	_atom_site_fract_z
	H0	H	0.400475	0.849792	0.720829
	H1	H	0.609280	0.166257	0.721225
	H2	H	0.610178	0.850532	0.280052
	H3	H	0.400128	0.165292	0.279912
	H4	H	0.726654	0.401463	0.844353
	H5	H	0.724083	0.610125	0.156520
	H6	H	0.282323	0.613392	0.842641
	H7	H	0.282530	0.402849	0.155687
	H8	H	0.847009	0.728126	0.397230
	H9	H	0.163552	0.724848	0.601498
	H10	H	0.847004	0.287923	0.602191
	H11	H	0.161748	0.287280	0.395765
	H12	H	0.848053	0.400252	0.721995
	H13	H	0.162393	0.609673	0.719649
	H14	H	0.847486	0.614193	0.278472
	H15	H	0.160018	0.401934	0.277177
	H16	H	0.400693	0.728311	0.841432
	H17	H	0.605420	0.726779	0.156503
	H18	H	0.608433	0.286948	0.843206
	H19	H	0.401141	0.287332	0.157127
	H20	H	0.725625	0.850879	0.396817
	H21	H	0.725332	0.166842	0.605323
	H22	H	0.283896	0.849754	0.606070
	H23	H	0.284530	0.164573	0.396250
	H24	H	0.900682	0.350173	0.220973
	H25	H	0.109963	0.665569	0.220261
	H26	H	0.109273	0.349036	0.780229
	H27	H	0.899873	0.665550	0.780079
	H28	H	0.223650	0.906141	0.342539
	H29	H	0.226165	0.111888	0.656929
	H30	H	0.783059	0.115490	0.345104
	H31	H	0.785442	0.904925	0.655540
	H32	H	0.345917	0.227220	0.897230
	H33	H	0.661879	0.226574	0.102412
	H34	H	0.346715	0.788141	0.102171
	H35	H	0.663718	0.792284	0.900702
	H36	H	0.347290	0.904782	0.219399
	H37	H	0.661254	0.112151	0.220312
	H38	H	0.348065	0.115431	0.777036
	H39	H	0.662515	0.906297	0.781608
	H40	H	0.904331	0.225703	0.341982
	H41	H	0.110062	0.228827	0.656979
	H42	H	0.107829	0.788082	0.342629
	H43	H	0.902162	0.788211	0.656672
	H44	H	0.223703	0.348045	0.896647
	H45	H	0.225230	0.665437	0.104352
	H46	H	0.786533	0.348750	0.103917
	H47	H	0.784309	0.664922	0.896567
	H48	H	0.416444	0.120925	0.590116
	H49	H	0.597604	0.894607	0.590387
	H50	H	0.596166	0.121620	0.410859
	H51	H	0.416956	0.892009	0.404711
	H52	H	0.598587	0.420034	0.112342
	H53	H	0.595729	0.596623	0.887038
	H54	H	0.410693	0.597059	0.111587
	H55	H	0.416978	0.420765	0.890015
	H56	H	0.118417	0.594543	0.403767
	H57	H	0.889933	0.604179	0.590458
	H58	H	0.116697	0.418239	0.588796
	H59	H	0.891255	0.417289	0.409697
	H60	H	0.115846	0.420380	0.590608
	H61	H	0.895055	0.594933	0.583733
	H62	H	0.118638	0.602628	0.411193
	H63	H	0.893462	0.419104	0.413388
	H64	H	0.416542	0.593123	0.109252
	H65	H	0.594312	0.598563	0.886598
	H66	H	0.590547	0.418870	0.110280
	H67	H	0.415430	0.415928	0.886528
	H68	H	0.591959	0.121691	0.407877
	H69	H	0.592505	0.895649	0.590963
	H70	H	0.417885	0.118824	0.587306
	H71	H	0.419518	0.896353	0.413252
	H72	H	0.910954	0.621867	0.088214
	H73	H	0.090634	0.396966	0.086685
	H74	H	0.096006	0.622546	0.906711
	H75	H	0.915545	0.389967	0.899971
	H76	H	0.094622	0.914020	0.613233
	H77	H	0.093472	0.093397	0.390038
	H78	H	0.914554	0.092939	0.611763
	H79	H	0.914921	0.922285	0.387867
	H80	H	0.616190	0.098027	0.911199
	H81	H	0.391168	0.098535	0.087699
	H82	H	0.614401	0.919804	0.082403
	H83	H	0.392308	0.921589	0.906592
	H84	H	0.617885	0.924118	0.097983
	H85	H	0.392121	0.094447	0.090118
	H86	H	0.615343	0.094997	0.909459
	H87	H	0.390393	0.916570	0.907858
	H88	H	0.920096	0.098333	0.611310
	H89	H	0.092631	0.100974	0.387803
	H90	H	0.099696	0.917986	0.613524
	H91	H	0.918638	0.918236	0.388656
	H92	H	0.088016	0.618841	0.909475
	H93	H	0.094252	0.395382	0.088056
	H94	H	0.915589	0.621873	0.093007
	H95	H	0.924631	0.398552	0.913947
	H96	H	0.414705	0.120465	0.587049
	H97	H	0.594452	0.896709	0.586531
	H98	H	0.591611	0.119859	0.412824
	H99	H	0.410441	0.892454	0.411798
	H100	H	0.594877	0.412254	0.114004
	H101	H	0.597036	0.598933	0.886130
	H102	H	0.417224	0.600713	0.110834
	H103	H	0.411464	0.420437	0.887065
	H104	H	0.114524	0.593119	0.413464
	H105	H	0.892231	0.593230	0.595788
	H106	H	0.117652	0.418295	0.591827
	H107	H	0.893258	0.421332	0.409370
	H108	H	0.916866	0.619880	0.086917
	H109	H	0.090722	0.394287	0.090444
	H110	H	0.095389	0.618865	0.915000
	H111	H	0.907124	0.393312	0.916392
	H112	H	0.094094	0.920006	0.611389
	H113	H	0.099944	0.097121	0.386449
	H114	H	0.913364	0.100255	0.613859
	H115	H	0.914089	0.917312	0.385808
	H116	H	0.617148	0.097608	0.907656
	H117	H	0.390856	0.098021	0.092572
	H118	H	0.620747	0.908335	0.092447
	H119	H	0.392189	0.919783	0.911777
	C120	C	0.384424	0.015658	0.620590
	C121	C	0.626417	1.000134	0.621257
	C122	C	0.625855	0.016850	0.379145
	C123	C	0.384071	0.998362	0.378631
	C124	C	0.626191	0.385183	0.008515
	C125	C	0.625935	0.628770	0.990844
	C126	C	0.382375	0.629861	0.007163
	C127	C	0.383212	0.386959	0.991647
	C128	C	0.013139	0.629382	0.377987
	C129	C	0.996339	0.628545	0.621141
	C130	C	0.012961	0.386089	0.621644
	C131	C	0.996134	0.386985	0.378821
	C132	C	0.883338	0.516508	0.121229
	C133	C	0.124805	0.499497	0.120544
	C134	C	0.125101	0.515337	0.878851
	C135	C	0.883520	0.498325	0.878672
	C136	C	0.126905	0.886036	0.508490
	C137	C	0.127604	0.129973	0.491386
	C138	C	0.884257	0.129375	0.508771
	C139	C	0.884322	0.887493	0.491088
	C140	C	0.512596	0.129616	0.877396
	C141	C	0.495598	0.128734	0.121101
	C142	C	0.513460	0.885972	0.121547
	C143	C	0.495901	0.887673	0.878465
	C144	C	0.382247	0.897090	0.680720
	C145	C	0.628060	0.118901	0.681283
	C146	C	0.628410	0.898067	0.319780
	C147	C	0.381832	0.117638	0.319495
	C148	C	0.686053	0.383203	0.891005
	C149	C	0.684128	0.629512	0.109606
	C150	C	0.322317	0.632064	0.889443
	C151	C	0.323370	0.384745	0.109436
	C152	C	0.894520	0.688793	0.377464
	C153	C	0.115846	0.686102	0.621046
	C154	C	0.894452	0.326991	0.621831
	C155	C	0.114347	0.327150	0.376875
	C156	C	0.894847	0.382915	0.681403
	C157	C	0.115075	0.629027	0.679912
	C158	C	0.894687	0.632084	0.318504
	C159	C	0.113585	0.384121	0.318156
	C160	C	0.381333	0.689011	0.888837
	C161	C	0.625422	0.687093	0.109662
	C162	C	0.627302	0.326234	0.890428
	C163	C	0.382173	0.327312	0.109873
	C164	C	0.686206	0.898539	0.377568
	C165	C	0.685764	0.119289	0.623680
	C166	C	0.324479	0.896933	0.623442
	C167	C	0.324359	0.117451	0.377271
	C168	C	0.882007	0.397351	0.180918
	C169	C	0.127701	0.618219	0.180280
	C170	C	0.127153	0.396404	0.819893
	C171	C	0.881627	0.617811	0.819728
	C172	C	0.184770	0.886195	0.389810
	C173	C	0.186651	0.130977	0.609614
	C174	C	0.823824	0.132595	0.391252
	C175	C	0.824977	0.885860	0.608906
	C176	C	0.393909	0.188583	0.877143
	C177	C	0.614435	0.187404	0.121501
	C178	C	0.394131	0.827844	0.121579
	C179	C	0.615780	0.830729	0.880174
	C180	C	0.394503	0.885420	0.180002
	C181	C	0.614174	0.130541	0.180097
	C182	C	0.394662	0.132583	0.817664
	C183	C	0.615432	0.887616	0.821286
	C184	C	0.884014	0.187578	0.389855
	C185	C	0.128675	0.188979	0.609670
	C186	C	0.127207	0.827838	0.389711
	C187	C	0.883090	0.828121	0.609336
	C188	C	0.184192	0.396029	0.877898
	C189	C	0.185184	0.618085	0.122618
	C190	C	0.825450	0.396608	0.122340
	C191	C	0.824145	0.617528	0.877597
	C192	C	0.409395	0.098646	0.595314
	C193	C	0.602021	0.917250	0.596407
	C194	C	0.600365	0.099602	0.403724
	C195	C	0.408619	0.915196	0.403013
	C196	C	0.601632	0.410102	0.090736
	C197	C	0.602460	0.605027	0.908179
	C198	C	0.407467	0.604157	0.089297
	C199	C	0.407571	0.411911	0.909432
	C200	C	0.095697	0.603864	0.402415
	C201	C	0.913848	0.604413	0.596964
	C202	C	0.095190	0.411641	0.597472
	C203	C	0.913927	0.412256	0.403773
	C204	C	0.907631	0.599687	0.096500
	C205	C	0.099095	0.417085	0.095745
	C206	C	0.100343	0.598422	0.903484
	C207	C	0.908512	0.415471	0.903208
	C208	C	0.102845	0.910300	0.591208
	C209	C	0.102597	0.104772	0.409369
	C210	C	0.908948	0.104336	0.590810
	C211	C	0.908841	0.912197	0.408797
	C212	C	0.594948	0.104214	0.902228
	C213	C	0.413011	0.104237	0.097068
	C214	C	0.596110	0.910301	0.097892
	C215	C	0.413116	0.912216	0.902081
	Zn216	Zn	0.504380	0.008260	0.749272
	Zn217	Zn	0.505063	0.007862	0.250128
	Zn218	Zn	0.755030	0.506833	0.000091
	Zn219	Zn	0.253495	0.508016	-0.000740
	Zn220	Zn	0.004897	0.757728	0.499756
	Zn221	Zn	0.005041	0.257642	0.500211
	Zn222	Zn	0.004219	0.506987	0.750026
	Zn223	Zn	0.004197	0.508407	0.249271
	Zn224	Zn	0.504044	0.758220	-0.001250
	Zn225	Zn	0.504301	0.256989	-0.000629
	Zn226	Zn	0.755372	0.009247	0.500144
	Zn227	Zn	0.256175	0.006925	0.500114
	N228	N	0.418798	0.972040	0.678955
	N229	N	0.591859	0.043884	0.680021
	N230	N	0.591779	0.972833	0.320346
	N231	N	0.418202	0.042542	0.320219
	N232	N	0.685532	0.419060	0.965589
	N233	N	0.684822	0.594158	0.034710
	N234	N	0.322857	0.596068	0.964205
	N235	N	0.323666	0.420795	0.034845
	N236	N	0.969293	0.687477	0.413520
	N237	N	0.040940	0.686246	0.585417
	N238	N	0.968825	0.328795	0.585466
	N239	N	0.040301	0.328723	0.413904
	N240	N	0.969738	0.418949	0.681550
	N241	N	0.039758	0.594066	0.680259
	N242	N	0.969642	0.596114	0.318618
	N243	N	0.038984	0.420633	0.319129
	N244	N	0.417848	0.687897	0.963180
	N245	N	0.590033	0.686865	0.034837
	N246	N	0.590946	0.327274	0.964590
	N247	N	0.418339	0.328274	0.035502
	N248	N	0.684540	0.973457	0.413978
	N249	N	0.685143	0.044287	0.587156
	N250	N	0.325626	0.971836	0.586749
	N251	N	0.325473	0.042199	0.413382
	N252	N	0.917110	0.473049	0.180409
	N253	N	0.090851	0.543428	0.179213
	N254	N	0.091126	0.471697	0.820238
	N255	N	0.917664	0.542564	0.820074
	N256	N	0.184921	0.921142	0.464873
	N257	N	0.186348	0.094933	0.534929
	N258	N	0.823838	0.097195	0.466336
	N259	N	0.825667	0.922053	0.534326
	N260	N	0.468279	0.186902	0.913458
	N261	N	0.539669	0.186586	0.085593
	N262	N	0.469073	0.827796	0.086219
	N263	N	0.540335	0.830372	0.914659
	N264	N	0.469730	0.920850	0.180087
	N265	N	0.539232	0.094912	0.180096
	N266	N	0.469681	0.096759	0.817619
	N267	N	0.539808	0.922016	0.819955
	N268	N	0.920633	0.185945	0.463879
	N269	N	0.092981	0.188506	0.535066
	N270	N	0.092174	0.827444	0.464734
	N271	N	0.919153	0.828797	0.534986
	N272	N	0.183258	0.471243	0.913802
	N273	N	0.183774	0.543201	0.086265
	N274	N	0.825908	0.471838	0.086163
	N275	N	0.824827	0.542188	0.913285
	O276	O	0.978077	0.790130	0.218048
	H277	H	0.966280	0.760352	0.247664
	H278	H	0.936139	0.804056	0.211647
	O279	O	0.199166	0.054855	0.801980
	H280	H	0.208003	0.067151	0.823464
	H281	H	0.204170	0.065810	0.784784
	O282	O	0.721477	0.533100	0.717290
	H283	H	0.723247	0.545385	0.725523
	H284	H	0.733413	0.554639	0.733107
	O285	O	0.333950	0.349795	0.543590
	H286	H	0.326475	0.337021	0.538116
	H287	H	0.316655	0.350449	0.548100
	O288	O	1.079343	0.033237	0.811857
	H289	H	1.072941	0.042679	0.811513
	H290	H	1.094460	0.043266	0.815294
	O291	O	0.709386	0.686032	0.549166
	H292	H	0.692677	0.675680	0.574405
	H293	H	0.725880	0.706092	0.553579
	O294	O	0.128766	0.019874	-0.020418
	H295	H	0.136390	0.017768	-0.012598
	H296	H	0.132323	0.023538	-0.013905
	O297	O	0.969073	-0.046505	0.065226
	H298	H	0.980182	-0.054466	0.070447
	H299	H	0.963322	-0.039391	0.060198
	O300	O	0.208832	0.046958	0.198720
	H301	H	0.201983	0.040861	0.214453
	H302	H	0.214053	0.037182	0.187071
	O303	O	-0.019298	-0.102938	-0.144006
	H304	H	0.002382	-0.120385	-0.155220
	H305	H	-0.005215	-0.099320	-0.136075
	O306	O	0.996536	0.026459	0.214708
	H307	H	0.987421	0.035068	0.217351
	H308	H	0.986069	0.024848	0.206289
	O309	O	0.695087	0.423814	0.447724
	H310	H	0.703132	0.409841	0.466022
	H311	H	0.688028	0.420584	0.454393
	O312	O	0.317073	0.319500	0.313889
	H313	H	0.331748	0.342191	0.327891
	H314	H	0.342116	0.331038	0.335130
	O315	O	0.608710	0.609216	0.462677
	H316	H	0.597918	0.601587	0.483325
	H317	H	0.604127	0.615753	0.473589
	O318	O	0.973114	1.187066	0.020965
	H319	H	0.982140	1.191466	0.031209
	H320	H	0.991102	1.172916	0.007205
	O321	O	0.243568	0.661035	0.653596
	H322	H	0.257486	0.657090	0.629852
	H323	H	0.235363	0.672468	0.658690
	O324	O	0.755611	0.219204	1.193638
	H325	H	0.771625	0.216262	1.168917
	H326	H	0.759952	0.241001	1.198127
	O327	O	0.507042	0.669048	0.562038
	H328	H	0.505442	0.667937	0.557455
	H329	H	0.495927	0.664676	0.556325
	O330	O	0.205836	0.813340	0.195425
	H331	H	0.196925	0.823884	0.190803
	H332	H	0.192640	0.811110	0.200969
	O333	O	0.322676	0.477933	0.630914
	H334	H	0.332098	0.482934	0.637625
	H335	H	0.318588	0.492896	0.628890
	O336	O	0.440210	0.412598	0.358417
	H337	H	0.462447	0.391558	0.373903
	H338	H	0.452290	0.417296	0.358927
	O339	O	0.284801	0.728246	0.467519
	H340	H	0.262500	0.754215	0.457465
	H341	H	0.285803	0.728507	0.425939
	O342	O	0.204324	0.807758	-0.107034
	H343	H	0.212687	0.804521	-0.096928
	H344	H	0.218345	0.817584	-0.119735
	O345	O	0.495505	0.515171	0.696395
	H346	H	0.497159	0.504682	0.707275
	H347	H	0.494675	0.504733	0.681972
	O348	O	0.426027	0.353777	0.711585
	H349	H	0.420296	0.358096	0.703519
	H350	H	0.434892	0.343203	0.727954
	O351	O	0.069285	-0.008668	1.019709
	H352	H	0.069306	-0.007152	1.018630
	H353	H	0.065014	-0.006887	1.025916
	O354	O	0.816240	-0.023793	1.002658
	H355	H	0.814109	-0.021346	0.991513
	H356	H	0.813309	-0.037459	1.002482
	O357	O	0.464836	0.717896	0.290721
	H358	H	0.476334	0.731711	0.266353
	H359	H	0.476927	0.702032	0.305642
	O360	O	0.564066	0.561314	0.282625
	H361	H	0.567804	0.551542	0.290570
	H362	H	0.581192	0.553544	0.281991
	O363	O	0.806612	0.231222	0.202582
	H364	H	0.810000	0.226896	0.186016
	H365	H	0.833543	0.218378	0.184386
	O366	O	0.817131	0.213595	0.791280
	H367	H	0.824865	0.216077	0.822947
	H368	H	0.835683	0.195970	0.784678
	O369	O	0.022407	0.192975	0.902577
	H370	H	0.033049	0.199759	0.889672
	H371	H	0.028260	0.193462	0.924222
	O372	O	-0.148111	1.033863	0.780287
	H373	H	-0.142805	1.027395	0.769842
	H374	H	-0.146079	1.049033	0.774514
	O375	O	0.803836	-0.004059	0.212191
	H376	H	0.787780	-0.016633	0.234450
	H377	H	0.809411	-0.022873	0.187973
	O378	O	0.676287	0.292393	0.426922
	H379	H	0.683895	0.292608	0.406247
	H380	H	0.696074	0.274225	0.420355
	O381	O	0.157052	0.941487	0.123658
	H382	H	0.153824	0.940540	0.127231
	H383	H	0.145484	0.919701	0.118971
	O384	O	0.368003	0.304038	0.710047
	H385	H	0.379171	0.317533	0.705008
	H386	H	0.372066	0.308656	0.705192
	O387	O	0.041120	0.811416	0.782569
	H388	H	0.076802	0.817579	0.791505
	H389	H	0.052206	0.783691	0.758650
	O390	O	0.217572	1.229444	1.029585
	H391	H	0.237971	1.251229	1.044098
	H392	H	0.223682	1.232664	1.066070
	O393	O	1.208096	0.216662	0.206836
	H394	H	1.239963	0.245465	0.242135
	H395	H	1.195346	0.181892	0.213014
	O396	O	0.522559	0.527251	0.507643
	H397	H	0.522142	0.506684	0.507851
	H398	H	0.525416	0.520123	0.502697
	O399	O	0.680641	0.716777	0.713243
	H400	H	0.693781	0.736135	0.729084
	H401	H	0.671207	0.735891	0.719261
	O402	O	0.975047	0.166979	0.831053
	H403	H	0.982388	0.155949	0.846258
	H404	H	0.979093	0.187781	0.824151
	O405	O	0.726459	0.495112	0.327290
	H406	H	0.729271	0.488384	0.355293
	H407	H	0.751514	0.502312	0.321867
	O408	O	0.817062	1.030402	0.892269
	H409	H	0.829442	1.029058	0.877868
	H410	H	0.812353	1.040568	0.884248
	O411	O	0.711741	0.716448	0.285656
	H412	H	0.697330	0.699808	0.290578
	H413	H	0.690774	0.700794	0.313705
	O414	O	-0.149368	-0.153170	0.210032
	H415	H	-0.154324	-0.148222	0.180072
	H416	H	-0.182775	-0.174959	0.232362
	O417	O	0.616612	0.440119	0.565335
	H418	H	0.618839	0.431868	0.550587
	H419	H	0.624118	0.446727	0.569147
	O420	O	0.832481	-0.161148	0.809618
	H421	H	0.863658	-0.144878	0.812346
	H422	H	0.837473	-0.152642	0.829925
	O423	O	0.959173	1.005912	0.097699
	H424	H	0.962933	1.006666	0.085417
	H425	H	0.944577	0.994262	0.096914
	O426	O	0.315007	0.697754	0.314390
	H427	H	0.301150	0.681419	0.301628
	H428	H	0.356930	0.705463	0.305848
	O429	O	0.346579	0.457489	0.526771
	H430	H	0.334938	0.462950	0.511204
	H431	H	0.331936	0.460129	0.536722
	O432	O	0.795508	0.211253	0.958762
	H433	H	0.811669	0.217701	0.967578
	H434	H	0.789772	0.222610	0.956354
	O435	O	0.525108	0.289741	0.353295
	H436	H	0.535667	0.286703	0.344414
	H437	H	0.536340	0.279867	0.336652
	O438	O	0.293948	0.539603	0.288140
	H439	H	0.298264	0.545791	0.270114
	H440	H	0.290293	0.530122	0.282273
	O441	O	0.643921	0.696349	0.433344
	H442	H	0.652291	0.692760	0.450174
	H443	H	0.638066	0.684826	0.448330
	O444	O	0.490007	0.505406	0.364198
	H445	H	0.474764	0.502040	0.359399
	H446	H	0.483137	0.508405	0.369132
	O447	O	0.655362	0.361038	0.685864
	H448	H	0.667885	0.374860	0.688985
	H449	H	0.660250	0.344672	0.692846
	O450	O	1.040344	0.213673	0.206282
	H451	H	1.042390	0.211293	0.219553
	H452	H	1.056069	0.221081	0.205581
	O453	O	0.297957	0.528308	0.491140
	H454	H	0.289996	0.546676	0.484992
	H455	H	0.295722	0.520746	0.488039
	O456	O	0.180231	0.852243	0.944542
	H457	H	0.184842	0.845409	0.966527
	H458	H	0.157985	0.845160	0.949445
	O459	O	0.579436	0.391919	0.533138
	H460	H	0.584215	0.390621	0.519202
	H461	H	0.581877	0.379036	0.540177
	O462	O	0.503787	0.348093	0.470944
	H463	H	0.514780	0.346946	0.493301
	H464	H	0.510296	0.337317	0.461915
	O465	O	0.366100	0.691942	0.652935
	H466	H	0.369818	0.684151	0.649619
	H467	H	0.381470	0.684790	0.648535
	O468	O	-0.028592	0.800620	-0.001016
	H469	H	-0.010538	0.804282	0.002006
	H470	H	-0.021432	0.799341	0.006658
	O471	O	0.521099	0.688426	0.712140
	H472	H	0.524863	0.691241	0.705113
	H473	H	0.518646	0.696789	0.720456
	O474	O	0.796771	0.798663	0.039338
	H475	H	0.808262	0.783619	0.023199
	H476	H	0.792835	0.793813	0.036209
	O477	O	0.236607	0.176751	0.811371
	H478	H	0.254540	0.174134	0.802993
	H479	H	0.235053	0.190404	0.831788
