data_Molecule from HDF5

_cell_length_a		16.203292
_cell_length_b		16.080583
_cell_length_c		16.423906
_cell_angle_alpha	89.681511
_cell_angle_beta	90.448246
_cell_angle_gamma	89.026927
_symmetry_space_group_name_H-M	'P 1'
_symmetry_Int_Tables_number		1

loop_
	_symmetry_equiv_pos_as_xyz
	x,y,z

loop_
	_atom_site_label
	_atom_site_type_symbol
	_atom_site_fract_x
	_atom_site_fract_y
	_atom_site_fract_z
	H0	H	0.400117	0.833637	0.720078
	H1	H	0.601139	0.161014	0.718611
	H2	H	0.607220	0.834323	0.287190
	H3	H	0.393100	0.160514	0.282207
	H4	H	0.719769	0.392180	0.837366
	H5	H	0.719860	0.591588	0.162107
	H6	H	0.281272	0.601510	0.840385
	H7	H	0.288153	0.394092	0.162135
	H8	H	0.838105	0.714712	0.398956
	H9	H	0.168450	0.704768	0.595243
	H10	H	0.836206	0.286732	0.598059
	H11	H	0.164600	0.277852	0.403240
	H12	H	0.840571	0.395597	0.717633
	H13	H	0.164046	0.598805	0.718828
	H14	H	0.839081	0.603464	0.278895
	H15	H	0.164507	0.390569	0.284915
	H16	H	0.398043	0.716781	0.840239
	H17	H	0.602495	0.707265	0.164254
	H18	H	0.601314	0.278106	0.837790
	H19	H	0.407106	0.281761	0.163546
	H20	H	0.718535	0.834332	0.404304
	H21	H	0.712680	0.163276	0.601649
	H22	H	0.292443	0.831787	0.599626
	H23	H	0.282868	0.161640	0.400516
	H24	H	0.903092	0.332983	0.216944
	H25	H	0.102334	0.659680	0.215805
	H26	H	0.107209	0.332414	0.784979
	H27	H	0.897109	0.661705	0.781923
	H28	H	0.220294	0.895642	0.339120
	H29	H	0.217220	0.095074	0.663013
	H30	H	0.778466	0.103626	0.341398
	H31	H	0.790613	0.897762	0.664020
	H32	H	0.337495	0.213170	0.902295
	H33	H	0.667418	0.203398	0.097275
	H34	H	0.336932	0.785766	0.099503
	H35	H	0.666546	0.780571	0.907638
	H36	H	0.339678	0.896567	0.219681
	H37	H	0.663068	0.099089	0.221456
	H38	H	0.338236	0.102185	0.783654
	H39	H	0.664904	0.891186	0.786833
	H40	H	0.897224	0.216493	0.339609
	H41	H	0.100433	0.210132	0.663455
	H42	H	0.102401	0.781354	0.336973
	H43	H	0.907493	0.781465	0.662031
	H44	H	0.218515	0.331135	0.903934
	H45	H	0.211613	0.661870	0.096760
	H46	H	0.796207	0.328717	0.095720
	H47	H	0.781906	0.660209	0.898098
	H48	H	0.411966	0.114286	0.594101
	H49	H	0.593798	0.881904	0.591345
	H50	H	0.583240	0.115963	0.406031
	H51	H	0.406736	0.877473	0.408997
	H52	H	0.606762	0.391684	0.120301
	H53	H	0.592061	0.587484	0.885729
	H54	H	0.405835	0.598903	0.120033
	H55	H	0.410294	0.406086	0.885872
	H56	H	0.121036	0.588294	0.402587
	H57	H	0.884947	0.592443	0.590108
	H58	H	0.120868	0.406126	0.602227
	H59	H	0.881072	0.399199	0.404625
	H60	H	0.120280	0.394535	0.589341
	H61	H	0.886027	0.587306	0.588705
	H62	H	0.118887	0.587910	0.408656
	H63	H	0.888020	0.413281	0.414839
	H64	H	0.398644	0.584047	0.117450
	H65	H	0.591105	0.586746	0.886564
	H66	H	0.604829	0.408575	0.113379
	H67	H	0.410433	0.406546	0.886018
	H68	H	0.587431	0.113435	0.415595
	H69	H	0.602231	0.877543	0.595735
	H70	H	0.408559	0.114887	0.590929
	H71	H	0.418719	0.880466	0.405424
	H72	H	0.921352	0.608078	0.081446
	H73	H	0.094225	0.377707	0.096381
	H74	H	0.090825	0.613825	0.908340
	H75	H	0.907809	0.378101	0.911006
	H76	H	0.102274	0.899676	0.617232
	H77	H	0.089592	0.092161	0.385959
	H78	H	0.905189	0.090115	0.616952
	H79	H	0.906153	0.910586	0.385257
	H80	H	0.619297	0.086839	0.910182
	H81	H	0.386278	0.092479	0.082764
	H82	H	0.619400	0.899068	0.094897
	H83	H	0.383949	0.904025	0.908921
	H84	H	0.617022	0.906521	0.094883
	H85	H	0.386515	0.078365	0.096829
	H86	H	0.617573	0.081623	0.909803
	H87	H	0.387483	0.910806	0.913150
	H88	H	0.910159	0.089072	0.616285
	H89	H	0.095562	0.086837	0.384959
	H90	H	0.096018	0.906458	0.613365
	H91	H	0.910192	0.907806	0.385673
	H92	H	0.090445	0.614601	0.906340
	H93	H	0.095817	0.379223	0.090340
	H94	H	0.897087	0.615565	0.083091
	H95	H	0.914384	0.376546	0.898252
	H96	H	0.406892	0.115992	0.594950
	H97	H	0.593483	0.878114	0.601837
	H98	H	0.593334	0.117967	0.408659
	H99	H	0.415763	0.883566	0.417060
	H100	H	0.591271	0.397876	0.112898
	H101	H	0.590041	0.588392	0.886698
	H102	H	0.415136	0.586116	0.114014
	H103	H	0.410650	0.406743	0.885749
	H104	H	0.118136	0.582098	0.404844
	H105	H	0.885904	0.588476	0.593420
	H106	H	0.114125	0.410800	0.587370
	H107	H	0.884662	0.415891	0.397753
	H108	H	0.912263	0.617030	0.103399
	H109	H	0.099222	0.376586	0.094306
	H110	H	0.088778	0.613743	0.907675
	H111	H	0.921225	0.382531	0.909370
	H112	H	0.093597	0.897605	0.614984
	H113	H	0.088909	0.084245	0.388782
	H114	H	0.909062	0.093319	0.617397
	H115	H	0.906512	0.905443	0.383895
	H116	H	0.619036	0.084684	0.906400
	H117	H	0.380030	0.097267	0.100792
	H118	H	0.620273	0.902761	0.100512
	H119	H	0.384009	0.911678	0.904078
	C120	C	0.381531	0.005946	0.622503
	C121	C	0.623667	0.988457	0.624796
	C122	C	0.620812	0.007320	0.381528
	C123	C	0.380541	0.988604	0.379760
	C124	C	0.627966	0.370211	0.008443
	C125	C	0.622117	0.615762	0.993037
	C126	C	0.377280	0.620613	0.010024
	C127	C	0.382227	0.376213	0.992626
	C128	C	0.010864	0.618575	0.375808
	C129	C	0.993688	0.618117	0.620451
	C130	C	0.010569	0.375515	0.621801
	C131	C	0.992564	0.376189	0.378196
	C132	C	0.882533	0.504525	0.118856
	C133	C	0.124092	0.486992	0.121939
	C134	C	0.122430	0.505425	0.879089
	C135	C	0.881053	0.487530	0.876558
	C136	C	0.126040	0.872937	0.508233
	C137	C	0.121659	0.117261	0.493161
	C138	C	0.877033	0.121684	0.510115
	C139	C	0.880621	0.877231	0.492251
	C140	C	0.510284	0.117313	0.879162
	C141	C	0.492594	0.117193	0.122678
	C142	C	0.510851	0.874728	0.125065
	C143	C	0.493103	0.876018	0.880531
	C144	C	0.382266	0.882497	0.680413
	C145	C	0.620987	0.112032	0.680411
	C146	C	0.624524	0.883472	0.325575
	C147	C	0.376354	0.111695	0.321683
	C148	C	0.681877	0.372252	0.886103
	C149	C	0.680490	0.612299	0.114386
	C150	C	0.320136	0.620614	0.888679
	C151	C	0.326723	0.375578	0.114070
	C152	C	0.887230	0.676631	0.377849
	C153	C	0.118005	0.670415	0.617452
	C154	C	0.886306	0.322656	0.618972
	C155	C	0.115631	0.317031	0.382366
	C156	C	0.888326	0.377175	0.678514
	C157	C	0.115932	0.617645	0.678952
	C158	C	0.887884	0.621197	0.318333
	C159	C	0.115582	0.372984	0.323224
	C160	C	0.378209	0.678363	0.888926
	C161	C	0.621983	0.669957	0.115432
	C162	C	0.622956	0.315386	0.886228
	C163	C	0.386275	0.319877	0.114796
	C164	C	0.679741	0.883478	0.384044
	C165	C	0.676224	0.113359	0.621930
	C166	C	0.328249	0.881411	0.620401
	C167	C	0.320998	0.112136	0.380143
	C168	C	0.884346	0.381040	0.176725
	C169	C	0.121796	0.610745	0.177476
	C170	C	0.124954	0.381496	0.823537
	C171	C	0.878294	0.611752	0.819895
	C172	C	0.181831	0.875594	0.387030
	C173	C	0.178448	0.115362	0.614751
	C174	C	0.818163	0.122217	0.389230
	C175	C	0.827716	0.878113	0.614828
	C176	C	0.386932	0.175641	0.881041
	C177	C	0.617098	0.168950	0.119354
	C178	C	0.386721	0.821690	0.121292
	C179	C	0.616934	0.817972	0.885163
	C180	C	0.387810	0.877005	0.180931
	C181	C	0.615033	0.116559	0.180825
	C182	C	0.387419	0.119945	0.822350
	C183	C	0.616193	0.873430	0.825351
	C184	C	0.877427	0.178438	0.388321
	C185	C	0.120392	0.172761	0.614957
	C186	C	0.123240	0.818579	0.385930
	C187	C	0.885960	0.820056	0.613888
	C188	C	0.180471	0.380898	0.882394
	C189	C	0.176184	0.611751	0.118274
	C190	C	0.831027	0.379151	0.116547
	C191	C	0.821379	0.611248	0.877777
	C192	C	0.403069	0.092629	0.599909
	C193	C	0.602714	0.901750	0.602822
	C194	C	0.595383	0.093373	0.403415
	C195	C	0.406201	0.902648	0.403472
	C196	C	0.607015	0.392617	0.093379
	C197	C	0.598155	0.593922	0.908303
	C198	C	0.399952	0.596671	0.095098
	C199	C	0.404094	0.399666	0.907768
	C200	C	0.096832	0.593591	0.398684
	C201	C	0.907900	0.595974	0.597553
	C202	C	0.096333	0.397275	0.599604
	C203	C	0.906900	0.401915	0.399452
	C204	C	0.903946	0.591116	0.095855
	C205	C	0.102757	0.400152	0.100152
	C206	C	0.097291	0.591723	0.901008
	C207	C	0.906950	0.401500	0.899436
	C208	C	0.103918	0.894778	0.593247
	C209	C	0.098382	0.094500	0.408527
	C210	C	0.901264	0.097815	0.594965
	C211	C	0.901478	0.900961	0.407092
	C212	C	0.596373	0.091820	0.902232
	C213	C	0.406537	0.095736	0.099987
	C214	C	0.596497	0.896395	0.103351
	C215	C	0.407308	0.901479	0.902150
	Zn216	Zn	0.501690	-0.003088	0.750952
	Zn217	Zn	0.501240	-0.002446	0.252351
	Zn218	Zn	0.754120	0.494792	-0.000887
	Zn219	Zn	0.250375	0.496153	0.000750
	Zn220	Zn	0.002619	0.745542	0.498183
	Zn221	Zn	0.000375	0.248025	0.501346
	Zn222	Zn	0.002930	0.496778	0.749353
	Zn223	Zn	0.002118	0.496528	0.248425
	Zn224	Zn	0.501479	0.747290	0.002861
	Zn225	Zn	0.502272	0.244605	0.000738
	Zn226	Zn	0.749285	-0.001051	0.502177
	Zn227	Zn	0.253680	-0.003334	0.501277
	N228	N	0.414701	0.960970	0.681623
	N229	N	0.589114	0.033398	0.682315
	N230	N	0.588443	0.961458	0.323731
	N231	N	0.412588	0.033938	0.321169
	N232	N	0.685402	0.405448	0.962965
	N233	N	0.680509	0.579163	0.037314
	N234	N	0.319337	0.585305	0.965166
	N235	N	0.324090	0.410031	0.037234
	N236	N	0.964740	0.675233	0.412727
	N237	N	0.040853	0.671046	0.581738
	N238	N	0.963314	0.321635	0.584289
	N239	N	0.038066	0.318683	0.415699
	N240	N	0.966536	0.409404	0.680367
	N241	N	0.037848	0.585668	0.680863
	N242	N	0.965842	0.585879	0.316901
	N243	N	0.038023	0.409087	0.320512
	N244	N	0.413039	0.678235	0.965445
	N245	N	0.586391	0.672267	0.039056
	N246	N	0.590325	0.313703	0.963210
	N247	N	0.420219	0.320116	0.038307
	N248	N	0.677597	0.961298	0.418265
	N249	N	0.678209	0.035271	0.588042
	N250	N	0.327676	0.959184	0.585018
	N251	N	0.323462	0.034573	0.415884
	N252	N	0.915792	0.459964	0.178361
	N253	N	0.090188	0.531972	0.179847
	N254	N	0.089540	0.459953	0.821315
	N255	N	0.914782	0.533805	0.819026
	N256	N	0.183974	0.908436	0.464306
	N257	N	0.179407	0.081478	0.538090
	N258	N	0.817626	0.087956	0.466226
	N259	N	0.824084	0.912804	0.538110
	N260	N	0.464358	0.173914	0.915894
	N261	N	0.540040	0.169409	0.083451
	N262	N	0.464107	0.820113	0.087327
	N263	N	0.539445	0.819601	0.918799
	N264	N	0.466029	0.908802	0.183922
	N265	N	0.536630	0.085360	0.183207
	N266	N	0.465345	0.084514	0.821007
	N267	N	0.538227	0.908881	0.822248
	N268	N	0.912954	0.178311	0.464636
	N269	N	0.085549	0.174049	0.538296
	N270	N	0.089400	0.816697	0.462208
	N271	N	0.917967	0.819202	0.536492
	N272	N	0.178923	0.458837	0.916351
	N273	N	0.177935	0.533615	0.084548
	N274	N	0.829924	0.456887	0.081077
	N275	N	0.822719	0.532989	0.912017
	O276	O	1.077096	-0.105074	0.968975
	H277	H	1.089981	-0.106043	0.967679
	H278	H	1.068869	-0.105479	0.952459
	O279	O	0.587722	0.528604	0.549973
	H280	H	0.588587	0.519393	0.549441
	H281	H	0.598117	0.534363	0.547525
	O282	O	0.357585	0.561272	0.456770
	H283	H	0.350999	0.568134	0.461860
	H284	H	0.364910	0.561905	0.478022
	O285	O	0.533828	0.420578	0.685492
	H286	H	0.526204	0.416829	0.687671
	H287	H	0.533822	0.415072	0.682583
	O288	O	0.571295	0.339410	0.562253
	H289	H	0.575863	0.336677	0.574406
	H290	H	0.583204	0.333663	0.553284
	O291	O	0.073761	-0.091527	1.017124
	H292	H	0.079723	-0.087191	1.009387
	H293	H	0.080172	-0.092415	1.013521
	O294	O	0.982917	0.964899	0.127678
	H295	H	0.984707	0.966080	0.136720
	H296	H	0.986733	0.958471	0.123408
	O297	O	0.958364	0.921551	0.074898
	H298	H	0.966954	0.914066	0.076577
	H299	H	0.957737	0.932512	0.052996
	O300	O	0.634966	0.594590	0.614080
	H301	H	0.625526	0.591502	0.604648
	H302	H	0.647622	0.606393	0.619347
	O303	O	0.379567	0.437117	0.559311
	H304	H	0.389034	0.433345	0.547826
	H305	H	0.375940	0.440077	0.563877
	O306	O	0.422128	0.510373	0.573689
	H307	H	0.418642	0.504900	0.574011
	H308	H	0.430954	0.511037	0.576312
	O309	O	0.407808	0.525884	0.439388
	H310	H	0.412600	0.534681	0.437301
	H311	H	0.411663	0.523821	0.451050
	O312	O	0.962396	0.965146	0.951341
	H313	H	0.954835	0.974239	0.944180
	H314	H	0.950569	0.966350	0.961397
	O315	O	0.897962	1.096166	-0.004815
	H316	H	0.892979	1.099495	-0.001846
	H317	H	0.905839	1.095684	-0.000829
	O318	O	0.396789	0.582693	0.573134
	H319	H	0.414181	0.581596	0.582421
	H320	H	0.396106	0.593703	0.574597
	O321	O	0.558339	0.486126	0.427736
	H322	H	0.552325	0.480261	0.422104
	H323	H	0.549785	0.490632	0.420752
	O324	O	-0.489343	1.402963	0.352806
	H325	H	-0.484985	1.413709	0.360454
	H326	H	-0.492878	1.413104	0.346467
	O327	O	-0.678140	1.405913	1.596516
	H328	H	-0.693252	1.405985	1.604927
	H329	H	-0.677116	1.393804	1.589305
	O330	O	0.066050	0.075515	0.029668
	H331	H	0.060605	0.075606	0.018706
	H332	H	0.069813	0.076286	0.034323
	O333	O	0.663773	0.477325	0.451307
	H334	H	0.667442	0.474637	0.449996
	H335	H	0.660571	0.479829	0.438146
	O336	O	-0.059581	-0.042876	0.135778
	H337	H	-0.064423	-0.039083	0.137560
	H338	H	-0.076397	-0.039578	0.140663
	O339	O	-0.114679	0.074745	-0.115461
	H340	H	-0.129928	0.086577	-0.120043
	H341	H	-0.116059	0.095503	-0.113456
	O342	O	0.502714	0.543799	0.499562
	H343	H	0.495714	0.540575	0.505610
	H344	H	0.510170	0.544595	0.499193
	O345	O	0.124606	0.996777	0.892597
	H346	H	0.116215	0.994462	0.884047
	H347	H	0.117873	0.990605	0.884322
	O348	O	0.376145	0.473059	0.425665
	H349	H	0.370031	0.469328	0.431842
	H350	H	0.365683	0.466662	0.419329
	O351	O	0.547864	0.436069	0.470890
	H352	H	0.539408	0.437135	0.460354
	H353	H	0.561698	0.425270	0.476352
	O354	O	-0.032528	1.046386	-0.096632
	H355	H	-0.043882	1.046714	-0.102238
	H356	H	-0.032448	1.038141	-0.100400
	O357	O	0.515180	0.489275	0.491379
	H358	H	0.508274	0.489432	0.497897
	H359	H	0.510654	0.497220	0.478495
	O360	O	0.846968	0.096491	0.953181
	H361	H	0.846085	0.098599	0.960418
	H362	H	0.855355	0.103425	0.951632
	O363	O	0.528901	0.626776	0.519038
	H364	H	0.522736	0.629079	0.517526
	H365	H	0.536235	0.637687	0.522526
	O366	O	0.497565	0.628465	0.422167
	H367	H	0.484421	0.635965	0.437503
	H368	H	0.497181	0.640604	0.411663
	O369	O	0.960333	0.007280	-0.005580
	H370	H	0.957971	0.012438	0.004757
	H371	H	0.953416	0.001207	0.003794
	O372	O	0.662691	0.514906	0.429581
	H373	H	0.655238	0.510844	0.424069
	H374	H	0.658530	0.516242	0.422672
	O375	O	0.981434	0.011385	1.030127
	H376	H	0.985345	0.000241	1.043404
	H377	H	0.987046	0.015379	1.028400
	O378	O	0.038018	0.986532	0.015107
	H379	H	0.041298	0.979446	0.018001
	H380	H	0.054010	0.986439	0.013439
	O381	O	0.528675	0.628538	0.468527
	H382	H	0.524050	0.628782	0.464871
	H383	H	0.518483	0.634831	0.476126
	O384	O	1.090219	1.031748	-0.036297
	H385	H	1.088547	1.031880	-0.039241
	H386	H	1.084318	1.026486	-0.033973
	O387	O	1.124373	-0.115124	0.980660
	H388	H	1.120599	-0.118103	0.975796
	H389	H	1.123198	-0.117113	0.973511
	O390	O	0.939188	0.978218	0.053899
	H391	H	0.945527	0.980589	0.056372
	H392	H	0.932125	0.976966	0.065188
	O393	O	0.457189	0.384638	0.399010
	H394	H	0.453720	0.397487	0.393920
	H395	H	0.460246	0.382564	0.379736
