data_Molecule from HDF5

_cell_length_a		16.152041
_cell_length_b		16.439608
_cell_length_c		16.004054
_cell_angle_alpha	89.331065
_cell_angle_beta	90.049554
_cell_angle_gamma	90.866961
_symmetry_space_group_name_H-M	'P 1'
_symmetry_Int_Tables_number		1

loop_
	_symmetry_equiv_pos_as_xyz
	x,y,z

loop_
	_atom_site_label
	_atom_site_type_symbol
	_atom_site_fract_x
	_atom_site_fract_y
	_atom_site_fract_z
	H0	H	0.403815	0.834844	0.714105
	H1	H	0.603098	0.161200	0.708895
	H2	H	0.598212	0.834789	0.286023
	H3	H	0.408765	0.161008	0.280148
	H4	H	0.711053	0.404856	0.830170
	H5	H	0.715797	0.594698	0.163511
	H6	H	0.292867	0.593908	0.829584
	H7	H	0.289177	0.397573	0.163685
	H8	H	0.838898	0.714867	0.390367
	H9	H	0.165354	0.717419	0.598604
	H10	H	0.841330	0.276184	0.601896
	H11	H	0.168496	0.288722	0.396497
	H12	H	0.836978	0.398813	0.708378
	H13	H	0.168533	0.594883	0.707416
	H14	H	0.836819	0.593055	0.284036
	H15	H	0.168957	0.407873	0.286176
	H16	H	0.403321	0.715091	0.832648
	H17	H	0.607751	0.713184	0.162381
	H18	H	0.599944	0.286845	0.831452
	H19	H	0.396459	0.276439	0.160461
	H20	H	0.716657	0.835339	0.399595
	H21	H	0.723691	0.159111	0.596373
	H22	H	0.282237	0.836797	0.599691
	H23	H	0.292087	0.161953	0.396841
	H24	H	0.902869	0.335259	0.213632
	H25	H	0.100684	0.662893	0.206740
	H26	H	0.096035	0.334757	0.786098
	H27	H	0.905713	0.659878	0.778281
	H28	H	0.212947	0.906539	0.329792
	H29	H	0.217209	0.096108	0.663897
	H30	H	0.794808	0.094444	0.329896
	H31	H	0.790253	0.897616	0.663348
	H32	H	0.338585	0.212212	0.891891
	H33	H	0.664231	0.219334	0.099845
	H34	H	0.341235	0.773943	0.103971
	H35	H	0.667869	0.785620	0.895445
	H36	H	0.337689	0.898409	0.209649
	H37	H	0.669672	0.095043	0.205533
	H38	H	0.338240	0.092074	0.783271
	H39	H	0.670288	0.908407	0.788956
	H40	H	0.905588	0.213884	0.331831
	H41	H	0.109411	0.215926	0.661963
	H42	H	0.103335	0.786711	0.331543
	H43	H	0.897913	0.777167	0.660650
	H44	H	0.215803	0.335814	0.897136
	H45	H	0.222650	0.659481	0.095092
	H46	H	0.781780	0.336577	0.100430
	H47	H	0.789439	0.660895	0.895364
	H48	H	0.414935	0.116601	0.605437
	H49	H	0.607108	0.877903	0.597736
	H50	H	0.607972	0.116577	0.402085
	H51	H	0.410152	0.886301	0.414690
	H52	H	0.588431	0.407570	0.114392
	H53	H	0.591556	0.595395	0.878829
	H54	H	0.404087	0.588898	0.119809
	H55	H	0.400095	0.410253	0.876413
	H56	H	0.119674	0.595339	0.406502
	H57	H	0.880472	0.590480	0.598862
	H58	H	0.120422	0.404056	0.583436
	H59	H	0.886894	0.411553	0.405106
	H60	H	0.120121	0.412598	0.593826
	H61	H	0.884560	0.598560	0.577738
	H62	H	0.121141	0.594981	0.402688
	H63	H	0.882356	0.398056	0.401428
	H64	H	0.415970	0.577702	0.111569
	H65	H	0.596520	0.597396	0.876212
	H66	H	0.589496	0.403100	0.116173
	H67	H	0.418297	0.407729	0.881522
	H68	H	0.596437	0.114084	0.395313
	H69	H	0.587404	0.881558	0.600792
	H70	H	0.420884	0.108184	0.580052
	H71	H	0.394909	0.880036	0.405621
	H72	H	0.919884	0.613381	0.098144
	H73	H	0.092288	0.383920	0.089578
	H74	H	0.095198	0.617161	0.889872
	H75	H	0.906753	0.384143	0.908237
	H76	H	0.089445	0.892380	0.619477
	H77	H	0.104379	0.093371	0.376431
	H78	H	0.912700	0.091380	0.617004
	H79	H	0.918320	0.898922	0.378503
	H80	H	0.619066	0.085230	0.903901
	H81	H	0.385285	0.078688	0.096280
	H82	H	0.621253	0.903858	0.086921
	H83	H	0.385036	0.904143	0.904243
	H84	H	0.621563	0.907497	0.090247
	H85	H	0.379870	0.099158	0.090340
	H86	H	0.626416	0.103329	0.896816
	H87	H	0.385132	0.899307	0.908922
	H88	H	0.913872	0.085241	0.615757
	H89	H	0.090751	0.092532	0.379974
	H90	H	0.103978	0.911455	0.618079
	H91	H	0.901385	0.901833	0.373536
	H92	H	0.088628	0.609278	0.911353
	H93	H	0.098108	0.382032	0.093055
	H94	H	0.910212	0.609894	0.076009
	H95	H	0.899551	0.381557	0.906648
	H96	H	0.395866	0.117184	0.585827
	H97	H	0.595040	0.885372	0.581935
	H98	H	0.597722	0.110894	0.408962
	H99	H	0.412253	0.881627	0.396453
	H100	H	0.592313	0.406643	0.116569
	H101	H	0.595913	0.591222	0.878574
	H102	H	0.420815	0.594723	0.115578
	H103	H	0.407224	0.394159	0.874555
	H104	H	0.121664	0.599086	0.404033
	H105	H	0.889423	0.576993	0.582213
	H106	H	0.125284	0.400171	0.595817
	H107	H	0.887132	0.400238	0.415288
	H108	H	0.896547	0.618853	0.093973
	H109	H	0.093635	0.381953	0.095944
	H110	H	0.110900	0.615279	0.906208
	H111	H	0.905549	0.381376	0.901077
	H112	H	0.081014	0.912747	0.609808
	H113	H	0.096430	0.104984	0.375741
	H114	H	0.918708	0.089899	0.615042
	H115	H	0.910531	0.915395	0.380082
	H116	H	0.619121	0.101544	0.916087
	H117	H	0.389182	0.085339	0.075668
	H118	H	0.622210	0.903009	0.092050
	H119	H	0.387389	0.905710	0.911618
	C120	C	0.380514	0.006676	0.620236
	C121	C	0.626399	0.989167	0.620255
	C122	C	0.626322	0.006030	0.375017
	C123	C	0.380324	0.990292	0.375251
	C124	C	0.619622	0.378889	0.005973
	C125	C	0.624756	0.621487	0.987771
	C126	C	0.383866	0.617333	0.006006
	C127	C	0.378647	0.374139	0.987056
	C128	C	0.011690	0.622356	0.374227
	C129	C	0.993222	0.618982	0.617194
	C130	C	0.012980	0.375049	0.620095
	C131	C	0.994895	0.378303	0.377780
	C132	C	0.878700	0.506776	0.120366
	C133	C	0.124939	0.490208	0.119742
	C134	C	0.124594	0.506352	0.875089
	C135	C	0.878153	0.489605	0.874600
	C136	C	0.121158	0.879082	0.505745
	C137	C	0.126608	0.123108	0.487898
	C138	C	0.884961	0.118573	0.506295
	C139	C	0.880825	0.875255	0.487148
	C140	C	0.512298	0.121905	0.875107
	C141	C	0.493607	0.118586	0.116860
	C142	C	0.512681	0.874396	0.119806
	C143	C	0.495009	0.877316	0.878533
	C144	C	0.382705	0.883785	0.676268
	C145	C	0.624342	0.112027	0.672651
	C146	C	0.620242	0.883702	0.322277
	C147	C	0.386446	0.112426	0.318239
	C148	C	0.674671	0.383297	0.880382
	C149	C	0.679475	0.616786	0.113290
	C150	C	0.329778	0.615135	0.879968
	C151	C	0.324819	0.376240	0.113027
	C152	C	0.887765	0.676375	0.372959
	C153	C	0.116825	0.677426	0.617519
	C154	C	0.889718	0.316480	0.619929
	C155	C	0.119357	0.326235	0.378128
	C156	C	0.887621	0.377284	0.673172
	C157	C	0.118327	0.616607	0.671730
	C158	C	0.886688	0.615862	0.319972
	C159	C	0.119666	0.385266	0.323035
	C160	C	0.384234	0.675600	0.881629
	C161	C	0.625477	0.675525	0.112701
	C162	C	0.619515	0.324532	0.880918
	C163	C	0.378287	0.316147	0.111545
	C164	C	0.679292	0.884011	0.379017
	C165	C	0.684815	0.110882	0.617348
	C166	C	0.322501	0.884731	0.619198
	C167	C	0.328620	0.113037	0.376526
	C168	C	0.881478	0.384242	0.175964
	C169	C	0.122308	0.613355	0.171293
	C170	C	0.118098	0.383679	0.822507
	C171	C	0.883755	0.611428	0.817231
	C172	C	0.176057	0.884682	0.380062
	C173	C	0.180927	0.117874	0.613751
	C174	C	0.830765	0.115740	0.380463
	C175	C	0.826338	0.876539	0.613095
	C176	C	0.387849	0.174527	0.874257
	C177	C	0.616325	0.178236	0.117502
	C178	C	0.389683	0.815046	0.121118
	C179	C	0.618769	0.823676	0.877461
	C180	C	0.387777	0.876755	0.173761
	C181	C	0.618906	0.116509	0.170251
	C182	C	0.387704	0.115120	0.820041
	C183	C	0.620282	0.884968	0.824719
	C184	C	0.885748	0.175551	0.381449
	C185	C	0.127157	0.177554	0.612693
	C186	C	0.121329	0.825193	0.380782
	C187	C	0.880053	0.816878	0.611529
	C188	C	0.177913	0.384353	0.877805
	C189	C	0.182859	0.611923	0.115792
	C190	C	0.821377	0.384946	0.119776
	C191	C	0.826002	0.612087	0.875637
	C192	C	0.403661	0.091794	0.597042
	C193	C	0.603304	0.903776	0.599526
	C194	C	0.606581	0.091743	0.395975
	C195	C	0.399911	0.904663	0.398649
	C196	C	0.596772	0.399777	0.093032
	C197	C	0.601414	0.600805	0.900362
	C198	C	0.406844	0.593825	0.093030
	C199	C	0.401734	0.397193	0.900031
	C200	C	0.098175	0.602435	0.397445
	C201	C	0.907143	0.595651	0.593467
	C202	C	0.099466	0.398562	0.597884
	C203	C	0.908243	0.397668	0.400543
	C204	C	0.902131	0.591970	0.096571
	C205	C	0.101671	0.404809	0.098907
	C206	C	0.104199	0.591778	0.896274
	C207	C	0.898102	0.404474	0.898308
	C208	C	0.098264	0.899573	0.593062
	C209	C	0.104146	0.102790	0.400083
	C210	C	0.908039	0.095539	0.593467
	C211	C	0.903407	0.898515	0.399950
	C212	C	0.599020	0.102615	0.898650
	C213	C	0.407192	0.094979	0.093951
	C214	C	0.599242	0.897966	0.096587
	C215	C	0.408276	0.897085	0.901377
	Zn216	Zn	0.504259	-0.001532	0.749954
	Zn217	Zn	0.503581	-0.002452	0.245862
	Zn218	Zn	0.748852	0.498763	-0.002330
	Zn219	Zn	0.254271	0.497200	-0.002980
	Zn220	Zn	0.001843	0.748555	0.495850
	Zn221	Zn	0.005112	0.248661	0.497787
	Zn222	Zn	0.002453	0.497630	0.745882
	Zn223	Zn	0.002375	0.499207	0.249035
	Zn224	Zn	0.504523	0.747089	-0.001818
	Zn225	Zn	0.500841	0.248671	-0.003577
	Zn226	Zn	0.755989	-0.002817	0.497556
	Zn227	Zn	0.250316	-0.000643	0.497046
	N228	N	0.418006	0.960581	0.677123
	N229	N	0.588648	0.035559	0.674562
	N230	N	0.588215	0.960758	0.319595
	N231	N	0.417816	0.034995	0.317328
	N232	N	0.675014	0.416239	0.959186
	N233	N	0.679232	0.583725	0.034687
	N234	N	0.329245	0.579714	0.958351
	N235	N	0.324751	0.411533	0.034656
	N236	N	0.966466	0.680580	0.405962
	N237	N	0.038156	0.678929	0.584247
	N238	N	0.968569	0.315116	0.587542
	N239	N	0.040877	0.321776	0.411462
	N240	N	0.965098	0.413230	0.673399
	N241	N	0.040624	0.580984	0.671634
	N242	N	0.964608	0.583015	0.320302
	N243	N	0.041258	0.417024	0.322554
	N244	N	0.417146	0.676977	0.961025
	N245	N	0.592396	0.678656	0.033378
	N246	N	0.585884	0.321609	0.959811
	N247	N	0.410750	0.314363	0.032073
	N248	N	0.683142	0.961206	0.411138
	N249	N	0.686222	0.033377	0.585322
	N250	N	0.320734	0.962102	0.585579
	N251	N	0.324606	0.036075	0.411154
	N252	N	0.916594	0.461103	0.176374
	N253	N	0.087210	0.536493	0.174148
	N254	N	0.085819	0.460671	0.820394
	N255	N	0.915466	0.534356	0.816301
	N256	N	0.176290	0.917366	0.458940
	N257	N	0.180742	0.084760	0.535116
	N258	N	0.830249	0.080905	0.459143
	N259	N	0.826687	0.912208	0.534932
	N260	N	0.466417	0.179066	0.907847
	N261	N	0.537287	0.179718	0.085190
	N262	N	0.468556	0.813403	0.088504
	N263	N	0.540187	0.818980	0.910294
	N264	N	0.465306	0.913019	0.173053
	N265	N	0.541733	0.080043	0.170048
	N266	N	0.466085	0.083507	0.819991
	N267	N	0.542104	0.917628	0.824901
	N268	N	0.918856	0.177314	0.460672
	N269	N	0.094263	0.181139	0.533324
	N270	N	0.087996	0.821368	0.459916
	N271	N	0.913255	0.815950	0.532297
	N272	N	0.182080	0.461604	0.910000
	N273	N	0.184790	0.534250	0.084782
	N274	N	0.819785	0.462219	0.085724
	N275	N	0.822063	0.535134	0.910429
	O276	O	0.490975	0.436668	0.468773
	H277	H	0.504499	0.438161	0.484963
	H278	H	0.487380	0.423082	0.468257
	O279	O	0.539311	0.526579	0.457853
	H280	H	0.540887	0.532229	0.460088
	H281	H	0.535631	0.531871	0.471400
	O282	O	0.968902	0.928368	-0.139020
	H283	H	0.969950	0.930641	-0.143199
	H284	H	0.969699	0.926310	-0.130700
	O285	O	1.052459	0.099045	1.011871
	H286	H	1.042793	0.106585	1.021456
	H287	H	1.051919	0.103787	1.015809
	O288	O	0.562414	0.385731	0.390850
	H289	H	0.567370	0.384472	0.400127
	H290	H	0.566503	0.379020	0.384881
	O291	O	0.550960	0.453431	0.419382
	H292	H	0.546007	0.452893	0.433420
	H293	H	0.551320	0.456975	0.422794
	O294	O	0.473783	0.478525	0.466880
	H295	H	0.471149	0.471124	0.462459
	H296	H	0.479082	0.481630	0.472300
	O297	O	0.060609	-0.114397	1.009031
	H298	H	0.053119	-0.109806	1.013009
	H299	H	0.065332	-0.113097	1.014125
	O300	O	0.522303	0.517271	0.586739
	H301	H	0.517820	0.516509	0.573089
	H302	H	0.533377	0.521808	0.593454
	O303	O	0.486055	0.479833	-0.433947
	H304	H	0.490897	0.477133	-0.422511
	H305	H	0.492940	0.483629	-0.437308
	O306	O	-0.039535	1.021839	1.099576
	H307	H	-0.053238	1.014374	1.110000
	H308	H	-0.032767	1.016776	1.097936
	O309	O	0.584600	0.562286	0.496044
	H310	H	0.572057	0.566455	0.503831
	H311	H	0.588784	0.562548	0.475626
	O312	O	0.058857	0.051610	0.043751
	H313	H	0.061107	0.047123	0.048267
	H314	H	0.063955	0.046786	0.024699
	O315	O	1.044294	0.015823	-0.117123
	H316	H	1.064135	0.018195	-0.103022
	H317	H	1.053357	0.005667	-0.124494
	O318	O	0.905999	1.073713	0.921089
	H319	H	0.904603	1.072535	0.916995
	H320	H	0.909120	1.077951	0.917582
	O321	O	-0.023904	0.089180	0.947284
	H322	H	-0.024463	0.096536	0.935985
	H323	H	-0.024463	0.091719	0.942627
	O324	O	0.387628	0.536376	0.527833
	H325	H	0.385854	0.547143	0.530877
	H326	H	0.370721	0.530182	0.537984
	O327	O	0.051872	-0.033289	0.109925
	H328	H	0.043917	-0.024645	0.120001
	H329	H	0.038039	-0.036611	0.125962
	O330	O	0.542093	0.568759	0.468585
	H331	H	0.543311	0.556813	0.463526
	H332	H	0.542442	0.556715	0.462677
	O333	O	0.092922	0.865386	0.939018
	H334	H	0.103282	0.838682	0.948350
	H335	H	0.095417	0.857304	0.914883
	O336	O	0.044835	0.088473	0.060013
	H337	H	0.042541	0.093615	0.061560
	H338	H	0.041119	0.087864	0.053768
	O339	O	0.493558	0.579159	0.437941
	H340	H	0.495826	0.581216	0.435156
	H341	H	0.491753	0.578813	0.438881
	O342	O	0.915814	0.973734	1.004399
	H343	H	0.918438	0.970651	1.010017
	H344	H	0.913829	0.976137	1.002306
	O345	O	1.019118	1.024147	-0.046875
	H346	H	1.022970	1.021154	-0.050732
	H347	H	1.030706	1.018887	-0.031220
	O348	O	0.475105	0.506460	0.487863
	H349	H	0.473738	0.509728	0.495471
	H350	H	0.469640	0.509831	0.482079
	O351	O	0.543518	0.467743	0.579640
	H352	H	0.544975	0.457083	0.579636
	H353	H	0.547330	0.461895	0.581519
	O354	O	0.461956	0.499335	0.459554
	H355	H	0.456673	0.508983	0.466110
	H356	H	0.472207	0.500826	0.452085
	O357	O	0.527488	0.518965	1.545867
	H358	H	0.526490	0.518200	1.548457
	H359	H	0.523388	0.511849	1.548833
	O360	O	0.473228	0.489118	0.562911
	H361	H	0.476128	0.492507	0.549144
	H362	H	0.478704	0.489831	0.566701
	O363	O	1.062668	0.970448	0.984376
	H364	H	1.059672	0.979639	0.982903
	H365	H	1.059341	0.973181	0.988620
	O366	O	0.971751	1.005121	1.042108
	H367	H	0.963956	1.005316	1.041608
	H368	H	0.972403	1.015752	1.037973
	O369	O	0.864788	-0.139669	1.104851
	H370	H	0.865192	-0.137425	1.086862
	H371	H	0.854443	-0.153324	1.102934
	O372	O	0.117417	-0.095131	-0.036858
	H373	H	0.125242	-0.089885	-0.048564
	H374	H	0.117958	-0.091610	-0.028529
	O375	O	0.933711	0.036347	-0.027222
	H376	H	0.937565	0.035273	-0.034339
	H377	H	0.943279	0.044803	-0.024136
	O378	O	0.458744	0.451962	0.439264
	H379	H	0.458300	0.450733	0.445301
	H380	H	0.461438	0.454639	0.432269
	O381	O	0.491004	0.563876	0.563650
	H382	H	0.492508	0.575336	0.559405
	H383	H	0.488616	0.568310	0.557500
