data_Molecule from HDF5

_cell_length_a		16.280589
_cell_length_b		16.068319
_cell_length_c		16.406487
_cell_angle_alpha	90.099792
_cell_angle_beta	90.305265
_cell_angle_gamma	90.967951
_symmetry_space_group_name_H-M	'P 1'
_symmetry_Int_Tables_number		1

loop_
	_symmetry_equiv_pos_as_xyz
	x,y,z

loop_
	_atom_site_label
	_atom_site_type_symbol
	_atom_site_fract_x
	_atom_site_fract_y
	_atom_site_fract_z
	H0	H	0.388694	0.821884	0.723827
	H1	H	0.596141	0.150550	0.721544
	H2	H	0.594778	0.822829	0.289077
	H3	H	0.391529	0.147796	0.288319
	H4	H	0.706730	0.384581	0.843990
	H5	H	0.717259	0.594136	0.164920
	H6	H	0.275533	0.582647	0.844675
	H7	H	0.273156	0.380453	0.167345
	H8	H	0.826009	0.690984	0.412288
	H9	H	0.154939	0.702681	0.605430
	H10	H	0.829442	0.265551	0.605656
	H11	H	0.155266	0.271227	0.408102
	H12	H	0.830610	0.379530	0.725159
	H13	H	0.155272	0.591886	0.724123
	H14	H	0.832179	0.588774	0.285860
	H15	H	0.153425	0.382842	0.287382
	H16	H	0.394334	0.697818	0.843959
	H17	H	0.596912	0.704857	0.167716
	H18	H	0.585101	0.272826	0.842378
	H19	H	0.392915	0.267785	0.168458
	H20	H	0.698895	0.817645	0.412100
	H21	H	0.713745	0.146957	0.613159
	H22	H	0.275093	0.819863	0.606604
	H23	H	0.278189	0.148265	0.405151
	H24	H	0.886691	0.321540	0.222383
	H25	H	0.097824	0.649577	0.223442
	H26	H	0.091900	0.321668	0.790523
	H27	H	0.896783	0.650766	0.792371
	H28	H	0.209192	0.879985	0.346948
	H29	H	0.213421	0.090549	0.667022
	H30	H	0.774290	0.082191	0.346159
	H31	H	0.775025	0.881295	0.670727
	H32	H	0.326851	0.189054	0.912753
	H33	H	0.655624	0.203293	0.105606
	H34	H	0.329579	0.767685	0.104034
	H35	H	0.657099	0.774441	0.910129
	H36	H	0.331992	0.877106	0.226539
	H37	H	0.654473	0.093862	0.227186
	H38	H	0.331380	0.086141	0.789280
	H39	H	0.655344	0.887412	0.790874
	H40	H	0.892155	0.197630	0.345298
	H41	H	0.093405	0.201870	0.669081
	H42	H	0.084785	0.771546	0.344256
	H43	H	0.892959	0.767417	0.671291
	H44	H	0.198301	0.318328	0.910524
	H45	H	0.213324	0.648271	0.108775
	H46	H	0.774889	0.321226	0.103286
	H47	H	0.779109	0.650611	0.903622
	H48	H	0.403948	0.102730	0.596707
	H49	H	0.579288	0.865999	0.604789
	H50	H	0.588480	0.102996	0.420946
	H51	H	0.393185	0.865434	0.416958
	H52	H	0.585518	0.405437	0.117810
	H53	H	0.587808	0.567978	0.893681
	H54	H	0.403318	0.570759	0.120483
	H55	H	0.395902	0.392474	0.892323
	H56	H	0.110148	0.583926	0.415432
	H57	H	0.877709	0.567713	0.603427
	H58	H	0.109428	0.404004	0.612836
	H59	H	0.876094	0.388529	0.415965
	H60	H	0.111445	0.383152	0.598994
	H61	H	0.873284	0.576501	0.605018
	H62	H	0.106295	0.575351	0.419079
	H63	H	0.878601	0.395970	0.416726
	H64	H	0.404551	0.575703	0.120502
	H65	H	0.575654	0.582061	0.892925
	H66	H	0.575607	0.390082	0.120088
	H67	H	0.396695	0.381422	0.889007
	H68	H	0.585137	0.103891	0.414094
	H69	H	0.580714	0.867878	0.598300
	H70	H	0.401698	0.103607	0.599115
	H71	H	0.405012	0.867590	0.410271
	H72	H	0.899515	0.602873	0.089885
	H73	H	0.082425	0.367869	0.094294
	H74	H	0.088505	0.605671	0.911793
	H75	H	0.896334	0.367837	0.916777
	H76	H	0.090803	0.890849	0.625423
	H77	H	0.097931	0.069886	0.389447
	H78	H	0.904891	0.077223	0.623154
	H79	H	0.897512	0.881119	0.392098
	H80	H	0.606758	0.073705	0.919253
	H81	H	0.375497	0.079498	0.097009
	H82	H	0.612052	0.889427	0.100657
	H83	H	0.384679	0.904675	0.927212
	H84	H	0.604760	0.900788	0.090798
	H85	H	0.379305	0.067162	0.096727
	H86	H	0.613040	0.078119	0.903579
	H87	H	0.373011	0.899144	0.895681
	H88	H	0.897798	0.074504	0.623543
	H89	H	0.074295	0.068003	0.398007
	H90	H	0.083957	0.902649	0.619609
	H91	H	0.885540	0.887262	0.389549
	H92	H	0.082384	0.602983	0.914211
	H93	H	0.082228	0.365654	0.102623
	H94	H	0.903487	0.606792	0.105889
	H95	H	0.898192	0.366925	0.912028
	H96	H	0.404876	0.102873	0.600240
	H97	H	0.585584	0.864694	0.602705
	H98	H	0.581099	0.101110	0.419779
	H99	H	0.403429	0.870905	0.423752
	H100	H	0.593398	0.390650	0.124735
	H101	H	0.593853	0.584858	0.886546
	H102	H	0.400560	0.574527	0.121122
	H103	H	0.386874	0.387183	0.888473
	H104	H	0.109812	0.576312	0.409946
	H105	H	0.876050	0.574575	0.596001
	H106	H	0.101796	0.403739	0.588556
	H107	H	0.875840	0.393194	0.409885
	H108	H	0.914841	0.599185	0.095371
	H109	H	0.075213	0.369595	0.098830
	H110	H	0.088406	0.603749	0.918525
	H111	H	0.901694	0.369145	0.915887
	H112	H	0.077509	0.890077	0.621937
	H113	H	0.082341	0.090163	0.388414
	H114	H	0.902157	0.069914	0.620654
	H115	H	0.895981	0.894969	0.395429
	H116	H	0.612032	0.089505	0.916199
	H117	H	0.375176	0.071727	0.107552
	H118	H	0.608542	0.904959	0.107273
	H119	H	0.372310	0.873289	0.917916
	C120	C	0.371711	-0.005908	0.628127
	C121	C	0.613858	0.975265	0.630972
	C122	C	0.612791	-0.006167	0.388733
	C123	C	0.370937	0.975960	0.385648
	C124	C	0.612328	0.365586	0.013717
	C125	C	0.617017	0.609698	0.997215
	C126	C	0.371949	0.603855	0.014449
	C127	C	0.366322	0.358960	0.997260
	C128	C	0.000811	0.606502	0.385986
	C129	C	0.983412	0.605776	0.630108
	C130	C	0.000721	0.363777	0.629336
	C131	C	0.984050	0.363788	0.385192
	C132	C	0.872049	0.494907	0.126825
	C133	C	0.112908	0.476152	0.128364
	C134	C	0.113180	0.494488	0.886178
	C135	C	0.871338	0.477059	0.884827
	C136	C	0.112015	0.864097	0.515568
	C137	C	0.115350	0.107393	0.498347
	C138	C	0.870850	0.103785	0.515780
	C139	C	0.866218	0.859029	0.499970
	C140	C	0.501932	0.106807	0.885065
	C141	C	0.483866	0.106639	0.129749
	C142	C	0.501745	0.864674	0.128954
	C143	C	0.484492	0.864377	0.885069
	C144	C	0.370335	0.870614	0.684664
	C145	C	0.615373	0.100207	0.685232
	C146	C	0.612456	0.870824	0.329917
	C147	C	0.372207	0.098728	0.327591
	C148	C	0.667764	0.365711	0.891954
	C149	C	0.676599	0.611432	0.117488
	C150	C	0.314714	0.602769	0.892933
	C151	C	0.311145	0.360634	0.119023
	C152	C	0.876393	0.657317	0.389754
	C153	C	0.106193	0.664339	0.626783
	C154	C	0.878396	0.304597	0.626571
	C155	C	0.106532	0.308960	0.387508
	C156	C	0.879039	0.361216	0.686135
	C157	C	0.106271	0.608928	0.685662
	C158	C	0.879333	0.605952	0.327188
	C159	C	0.105586	0.364781	0.327696
	C160	C	0.373657	0.660129	0.892682
	C161	C	0.617212	0.667213	0.118667
	C162	C	0.607277	0.309907	0.891462
	C163	C	0.370812	0.304674	0.119564
	C164	C	0.664394	0.868276	0.391050
	C165	C	0.673862	0.098448	0.630892
	C166	C	0.313800	0.869565	0.626401
	C167	C	0.315829	0.099162	0.385749
	C168	C	0.869211	0.370841	0.183394
	C169	C	0.116108	0.600268	0.185201
	C170	C	0.110658	0.370575	0.829574
	C171	C	0.875171	0.601367	0.829472
	C172	C	0.169059	0.862519	0.394467
	C173	C	0.173371	0.108607	0.619197
	C174	C	0.813204	0.102469	0.394404
	C175	C	0.812451	0.861096	0.622189
	C176	C	0.377284	0.155972	0.890348
	C177	C	0.606544	0.165500	0.127149
	C178	C	0.378956	0.805348	0.126129
	C179	C	0.607585	0.810807	0.888552
	C180	C	0.379969	0.860541	0.186478
	C181	C	0.605983	0.110802	0.187516
	C182	C	0.379541	0.104643	0.828733
	C183	C	0.606714	0.866855	0.829192
	C184	C	0.871990	0.159772	0.393827
	C185	C	0.113782	0.164223	0.620148
	C186	C	0.107459	0.808155	0.393271
	C187	C	0.871356	0.804495	0.622335
	C188	C	0.163956	0.368925	0.889055
	C189	C	0.173429	0.599477	0.128091
	C190	C	0.813201	0.370724	0.124567
	C191	C	0.816981	0.601328	0.885209
	C192	C	0.396199	0.080750	0.605229
	C193	C	0.588931	0.888701	0.608582
	C194	C	0.591243	0.080205	0.411560
	C195	C	0.393859	0.890182	0.409768
	C196	C	0.591053	0.388825	0.098894
	C197	C	0.592946	0.585542	0.912818
	C198	C	0.395818	0.580433	0.098931
	C199	C	0.386986	0.380696	0.911989
	C200	C	0.086422	0.584980	0.408319
	C201	C	0.897800	0.580260	0.608020
	C202	C	0.085735	0.389448	0.606646
	C203	C	0.898997	0.385931	0.407549
	C204	C	0.898216	0.580659	0.103822
	C205	C	0.087265	0.390269	0.105450
	C206	C	0.092687	0.581498	0.908461
	C207	C	0.892537	0.390360	0.908076
	C208	C	0.090564	0.887931	0.600410
	C209	C	0.091778	0.083064	0.413804
	C210	C	0.894596	0.080663	0.600519
	C211	C	0.886826	0.881263	0.414452
	C212	C	0.588260	0.086334	0.906551
	C213	C	0.398794	0.080612	0.107102
	C214	C	0.586401	0.890763	0.106298
	C215	C	0.398759	0.886081	0.907039
	Zn216	Zn	0.492845	-0.013260	0.756355
	Zn217	Zn	0.494069	-0.014614	0.259337
	Zn218	Zn	0.744015	0.486568	0.005266
	Zn219	Zn	0.239834	0.483192	0.006489
	Zn220	Zn	-0.009473	0.733341	0.507610
	Zn221	Zn	-0.007567	0.234442	0.506793
	Zn222	Zn	-0.006638	0.485798	0.758918
	Zn223	Zn	-0.007546	0.486189	0.256563
	Zn224	Zn	0.493053	0.735867	0.006737
	Zn225	Zn	0.491667	0.233307	0.006084
	Zn226	Zn	0.739536	-0.017007	0.509050
	Zn227	Zn	0.243286	-0.015540	0.507025
	N228	N	0.405524	0.949017	0.685872
	N229	N	0.578787	0.022543	0.685629
	N230	N	0.581225	0.949769	0.328239
	N231	N	0.406087	0.020949	0.327557
	N232	N	0.670838	0.399725	0.968913
	N233	N	0.676589	0.576290	0.040972
	N234	N	0.313596	0.568413	0.969596
	N235	N	0.307994	0.393584	0.041838
	N236	N	0.953101	0.657908	0.425759
	N237	N	0.028952	0.662567	0.592740
	N238	N	0.955082	0.306235	0.591779
	N239	N	0.030135	0.308239	0.422609
	N240	N	0.956197	0.397278	0.687993
	N241	N	0.028752	0.573139	0.687805
	N242	N	0.957598	0.575355	0.324500
	N243	N	0.028346	0.398144	0.325990
	N244	N	0.408597	0.660855	0.969239
	N245	N	0.580562	0.666047	0.042954
	N246	N	0.573357	0.309676	0.968205
	N247	N	0.404215	0.303258	0.043003
	N248	N	0.664869	0.945875	0.426994
	N249	N	0.673240	0.019737	0.597807
	N250	N	0.314987	0.947504	0.591555
	N251	N	0.314933	0.021720	0.421131
	N252	N	0.904965	0.449106	0.185256
	N253	N	0.079219	0.522662	0.185676
	N254	N	0.080053	0.449628	0.827646
	N255	N	0.908081	0.523180	0.829134
	N256	N	0.172157	0.896360	0.471577
	N257	N	0.174498	0.073978	0.542491
	N258	N	0.812125	0.068653	0.471496
	N259	N	0.809044	0.894269	0.545174
	N260	N	0.454403	0.157537	0.924727
	N261	N	0.529718	0.163037	0.091947
	N262	N	0.455556	0.807687	0.091208
	N263	N	0.530605	0.809346	0.922638
	N264	N	0.457197	0.896775	0.188482
	N265	N	0.528691	0.074896	0.189500
	N266	N	0.458085	0.074813	0.825241
	N267	N	0.528918	0.899344	0.826761
	N268	N	0.907181	0.160574	0.470251
	N269	N	0.078384	0.163666	0.543793
	N270	N	0.072625	0.808937	0.469381
	N271	N	0.903889	0.803018	0.545172
	N272	N	0.165610	0.446977	0.923759
	N273	N	0.171764	0.521373	0.093608
	N274	N	0.814761	0.448695	0.090285
	N275	N	0.814380	0.522870	0.918936
	O276	O	0.997493	0.001099	1.115318
	H277	H	1.004088	0.005251	1.123754
	H278	H	0.990853	0.015647	1.110161
	O279	O	0.343021	0.613690	0.457374
	H280	H	0.351304	0.621834	0.476739
	H281	H	0.341117	0.589942	0.460986
	O282	O	0.458483	0.451250	0.313700
	H283	H	0.424791	0.445103	0.296956
	H284	H	0.462327	0.485161	0.316586
	O285	O	0.436331	0.537564	0.425334
	H286	H	0.418877	0.542494	0.417049
	H287	H	0.437634	0.527247	0.435979
	O288	O	0.557874	0.421390	0.564911
	H289	H	0.568185	0.438423	0.558657
	H290	H	0.563423	0.420441	0.549890
	O291	O	0.060629	0.130520	0.980072
	H292	H	0.074131	0.132063	0.985237
	H293	H	0.051714	0.129814	0.993015
	O294	O	1.012905	1.041173	-0.062223
	H295	H	1.011509	1.044243	-0.056767
	H296	H	1.009621	1.038247	-0.063388
	O297	O	1.394612	0.378513	0.510095
	H298	H	1.383009	0.379525	0.514521
	H299	H	1.390780	0.359088	0.533164
	O300	O	0.508736	0.391220	0.464570
	H301	H	0.498265	0.404062	0.459872
	H302	H	0.529817	0.384400	0.465499
	O303	O	0.486705	0.481771	0.678947
	H304	H	0.506094	0.484682	0.679339
	H305	H	0.507741	0.494398	0.665709
	O306	O	0.478322	0.646901	0.345556
	H307	H	0.447265	0.637792	0.356535
	H308	H	0.461994	0.661877	0.327061
	O309	O	0.535577	0.481017	0.384231
	H310	H	0.515700	0.491453	0.371345
	H311	H	0.539877	0.489475	0.399157
	O312	O	0.943391	0.938091	1.066056
	H313	H	0.953406	0.940098	1.068166
	H314	H	0.933894	0.943125	1.072627
	O315	O	1.016871	1.090942	0.144082
	H316	H	1.026106	1.098055	0.149156
	H317	H	1.044191	1.088262	0.150433
	O318	O	0.439721	0.634976	0.516820
	H319	H	0.453069	0.631080	0.515580
	H320	H	0.453045	0.644494	0.521807
	O321	O	0.968068	0.970921	-0.084945
	H322	H	0.972846	0.962679	-0.087466
	H323	H	0.961044	0.972376	-0.086451
	O324	O	-0.478890	1.438009	0.398265
	H325	H	-0.468572	1.416331	0.393312
	H326	H	-0.483101	1.447068	0.385962
	O327	O	-0.516558	1.490881	1.581630
	H328	H	-0.499162	1.479277	1.579760
	H329	H	-0.503499	1.506180	1.592784
	O330	O	-0.061682	-0.054978	-0.003929
	H331	H	-0.060538	-0.059446	-0.001429
	H332	H	-0.066125	-0.053013	-0.003115
	O333	O	0.952210	0.985580	0.104918
	H334	H	0.958331	0.990704	0.102613
	H335	H	0.957588	0.988036	0.104593
	O336	O	-0.076895	-0.032238	0.029006
	H337	H	-0.080858	-0.034870	0.037762
	H338	H	-0.074982	-0.031253	0.029709
	O339	O	0.023959	0.036487	0.000432
	H340	H	0.026503	0.030664	-0.001770
	H341	H	0.021565	0.050407	0.008916
	O342	O	0.467090	0.463110	0.629437
	H343	H	0.465847	0.465091	0.629961
	H344	H	0.470076	0.455025	0.641433
	O345	O	-0.384968	1.447308	1.565667
	H346	H	-0.391894	1.441055	1.559031
	H347	H	-0.382651	1.457399	1.557285
	O348	O	0.588588	0.584661	0.593355
	H349	H	0.585565	0.579678	0.592725
	H350	H	0.594574	0.592103	0.578170
	O351	O	0.640967	0.401864	0.489967
	H352	H	0.642526	0.398386	0.484248
	H353	H	0.648074	0.395935	0.477221
	O354	O	0.296493	0.292531	-0.388311
	H355	H	0.273541	0.285992	-0.381179
	H356	H	0.296333	0.295635	-0.371505
	O357	O	0.980288	0.978562	1.031157
	H358	H	0.983956	0.992425	1.030527
	H359	H	0.979634	0.982347	1.032553
	O360	O	0.595752	0.570648	0.437316
	H361	H	0.595312	0.550791	0.438125
	H362	H	0.581129	0.577520	0.427775
	O363	O	0.658627	0.424473	0.378858
	H364	H	0.643412	0.426564	0.373882
	H365	H	0.665344	0.418896	0.379188
	O366	O	1.086089	1.017533	-0.019690
	H367	H	1.101587	1.024561	-0.017769
	H368	H	1.089814	1.008574	-0.025060
	O369	O	1.098469	-0.030352	0.032102
	H370	H	1.094710	-0.038099	0.038126
	H371	H	1.096899	-0.046293	0.025427
	O372	O	0.451389	0.587412	0.597092
	H373	H	0.473617	0.588941	0.605529
	H374	H	0.458848	0.585404	0.596542
	O375	O	1.072213	-0.126956	1.012589
	H376	H	1.071459	-0.128754	1.015151
	H377	H	1.074077	-0.112731	1.010860
	O378	O	0.004362	0.942092	0.037555
	H379	H	-0.012527	0.945592	0.040833
	H380	H	0.011946	0.950039	0.023323
	O381	O	0.510225	0.482821	0.441398
	H382	H	0.504332	0.469947	0.444467
	H383	H	0.514535	0.480081	0.445977
	O384	O	0.976099	0.976809	0.013863
	H385	H	0.969959	0.961442	0.013721
	H386	H	0.979026	0.973334	0.018464
	O387	O	0.977223	-0.091035	1.087084
	H388	H	0.987032	-0.086907	1.090357
	H389	H	0.963522	-0.101806	1.088491
	O390	O	0.458658	1.371266	-0.344177
	H391	H	0.461034	1.388621	-0.330987
	H392	H	0.472712	1.356944	-0.334832
	O393	O	0.377949	0.325375	0.432711
	H394	H	0.390037	0.327608	0.428424
	H395	H	0.370849	0.325270	0.456162
