data_Molecule from HDF5

_cell_length_a		16.269928
_cell_length_b		16.316745
_cell_length_c		16.374580
_cell_angle_alpha	90.207327
_cell_angle_beta	89.542272
_cell_angle_gamma	89.697082
_symmetry_space_group_name_H-M	'P 1'
_symmetry_Int_Tables_number		1

loop_
	_symmetry_equiv_pos_as_xyz
	x,y,z

loop_
	_atom_site_label
	_atom_site_type_symbol
	_atom_site_fract_x
	_atom_site_fract_y
	_atom_site_fract_z
	H0	H	0.395953	0.828517	0.710933
	H1	H	0.598195	0.150857	0.708478
	H2	H	0.608540	0.829629	0.266716
	H3	H	0.395738	0.149610	0.274588
	H4	H	0.721195	0.383032	0.828430
	H5	H	0.719854	0.592349	0.148961
	H6	H	0.285632	0.590006	0.827135
	H7	H	0.280392	0.389023	0.148594
	H8	H	0.838968	0.708013	0.385496
	H9	H	0.161904	0.704585	0.588405
	H10	H	0.838475	0.271770	0.592273
	H11	H	0.160192	0.267878	0.383041
	H12	H	0.840821	0.385062	0.709753
	H13	H	0.162029	0.591134	0.704117
	H14	H	0.838277	0.592355	0.272046
	H15	H	0.160515	0.384228	0.267831
	H16	H	0.399317	0.707424	0.829737
	H17	H	0.604810	0.709530	0.149591
	H18	H	0.603002	0.268359	0.828716
	H19	H	0.396483	0.273370	0.150191
	H20	H	0.721069	0.828078	0.385451
	H21	H	0.713407	0.151029	0.592199
	H22	H	0.281907	0.827549	0.594877
	H23	H	0.282730	0.149717	0.393313
	H24	H	0.896294	0.328163	0.208420
	H25	H	0.104813	0.648902	0.209716
	H26	H	0.107216	0.328430	0.766973
	H27	H	0.898035	0.649234	0.771231
	H28	H	0.221164	0.885198	0.330351
	H29	H	0.211545	0.088006	0.652721
	H30	H	0.778796	0.092234	0.331134
	H31	H	0.778329	0.886219	0.650561
	H32	H	0.337134	0.207176	0.889798
	H33	H	0.661111	0.206935	0.091028
	H34	H	0.338187	0.771785	0.095590
	H35	H	0.660426	0.769497	0.885271
	H36	H	0.339039	0.886694	0.210986
	H37	H	0.660392	0.094095	0.209718
	H38	H	0.335998	0.090922	0.776901
	H39	H	0.659509	0.884640	0.769482
	H40	H	0.894325	0.208493	0.329852
	H41	H	0.101808	0.209139	0.648867
	H42	H	0.105177	0.769624	0.328591
	H43	H	0.895785	0.769329	0.650354
	H44	H	0.219092	0.326701	0.885423
	H45	H	0.215186	0.650640	0.089755
	H46	H	0.783906	0.326298	0.089017
	H47	H	0.779706	0.647987	0.883936
	H48	H	0.406962	0.106047	0.589571
	H49	H	0.580543	0.876537	0.579975
	H50	H	0.583605	0.103530	0.392802
	H51	H	0.409272	0.871531	0.396822
	H52	H	0.585565	0.399670	0.101380
	H53	H	0.585449	0.576562	0.877510
	H54	H	0.410058	0.584484	0.105146
	H55	H	0.412528	0.391994	0.872986
	H56	H	0.115949	0.571842	0.390229
	H57	H	0.887179	0.572088	0.580978
	H58	H	0.117287	0.396139	0.579630
	H59	H	0.884308	0.401952	0.394953
	H60	H	0.114626	0.395967	0.571330
	H61	H	0.882012	0.581449	0.585805
	H62	H	0.118590	0.586434	0.397408
	H63	H	0.882855	0.394073	0.398026
	H64	H	0.402748	0.580975	0.105949
	H65	H	0.590862	0.582703	0.873931
	H66	H	0.591544	0.394169	0.105322
	H67	H	0.405646	0.397756	0.871573
	H68	H	0.584118	0.098885	0.407196
	H69	H	0.592534	0.874883	0.574139
	H70	H	0.408430	0.103493	0.581412
	H71	H	0.416110	0.874354	0.399972
	H72	H	0.912024	0.603446	0.081808
	H73	H	0.093755	0.374919	0.072082
	H74	H	0.098518	0.607869	0.890245
	H75	H	0.910739	0.374443	0.904495
	H76	H	0.089042	0.899877	0.603817
	H77	H	0.093126	0.077524	0.375559
	H78	H	0.907208	0.074410	0.602325
	H79	H	0.910380	0.906067	0.377983
	H80	H	0.617964	0.086268	0.897183
	H81	H	0.385174	0.082111	0.079424
	H82	H	0.612949	0.900254	0.073343
	H83	H	0.386502	0.897730	0.909962
	H84	H	0.613926	0.903569	0.081732
	H85	H	0.385387	0.076581	0.084016
	H86	H	0.610354	0.076965	0.907387
	H87	H	0.385586	0.906145	0.898533
	H88	H	0.913482	0.083779	0.603993
	H89	H	0.090213	0.074937	0.375749
	H90	H	0.084506	0.894910	0.603761
	H91	H	0.916674	0.895250	0.377272
	H92	H	0.082134	0.602556	0.892492
	H93	H	0.091768	0.371867	0.082975
	H94	H	0.912372	0.600900	0.076401
	H95	H	0.908361	0.370868	0.893491
	H96	H	0.399694	0.106174	0.583976
	H97	H	0.590613	0.871051	0.587406
	H98	H	0.596193	0.106138	0.401328
	H99	H	0.409228	0.873661	0.404471
	H100	H	0.593930	0.402275	0.103273
	H101	H	0.594046	0.574590	0.875140
	H102	H	0.409238	0.576368	0.102403
	H103	H	0.413279	0.400327	0.875268
	H104	H	0.111457	0.574669	0.405875
	H105	H	0.885293	0.581903	0.574683
	H106	H	0.113604	0.403299	0.576845
	H107	H	0.886358	0.400097	0.403627
	H108	H	0.906894	0.604032	0.078402
	H109	H	0.083028	0.377463	0.076683
	H110	H	0.093265	0.601636	0.905063
	H111	H	0.919029	0.375685	0.896268
	H112	H	0.091412	0.894217	0.606224
	H113	H	0.089721	0.079091	0.375020
	H114	H	0.902792	0.083507	0.607577
	H115	H	0.904476	0.895711	0.373186
	H116	H	0.614581	0.071964	0.893128
	H117	H	0.382182	0.082363	0.086138
	H118	H	0.615659	0.894922	0.079756
	H119	H	0.380340	0.892782	0.897311
	C120	C	0.375754	-0.001760	0.614728
	C121	C	0.618224	0.980715	0.611401
	C122	C	0.621495	-0.002750	0.368153
	C123	C	0.379553	0.979757	0.370835
	C124	C	0.622043	0.366597	-0.002668
	C125	C	0.621608	0.609729	0.981105
	C126	C	0.377870	0.610961	-0.001703
	C127	C	0.378430	0.367219	0.979842
	C128	C	0.008405	0.609233	0.367390
	C129	C	0.991645	0.609737	0.609737
	C130	C	0.009154	0.367351	0.608741
	C131	C	0.990680	0.366316	0.366316
	C132	C	0.878843	0.496791	0.110192
	C133	C	0.120696	0.480684	0.109227
	C134	C	0.123044	0.497369	0.865347
	C135	C	0.880383	0.479575	0.867153
	C136	C	0.121380	0.865487	0.498733
	C137	C	0.120321	0.108550	0.481334
	C138	C	0.877050	0.111054	0.498811
	C139	C	0.878075	0.867323	0.481961
	C140	C	0.507294	0.109737	0.870021
	C141	C	0.490533	0.111445	0.113197
	C142	C	0.508002	0.868280	0.111123
	C143	C	0.490436	0.867425	0.869267
	C144	C	0.376406	0.876831	0.672196
	C145	C	0.617661	0.102323	0.669423
	C146	C	0.625463	0.877177	0.307583
	C147	C	0.377681	0.101126	0.313680
	C148	C	0.681300	0.364569	0.876702
	C149	C	0.680442	0.611463	0.101145
	C150	C	0.322403	0.610107	0.876440
	C151	C	0.319855	0.369064	0.100978
	C152	C	0.887040	0.668129	0.367257
	C153	C	0.113064	0.667058	0.608606
	C154	C	0.887408	0.310270	0.610631
	C155	C	0.111717	0.307024	0.364004
	C156	C	0.888400	0.366613	0.669194
	C157	C	0.113255	0.610027	0.665964
	C158	C	0.886972	0.610970	0.310120
	C159	C	0.111972	0.365075	0.306912
	C160	C	0.379338	0.668441	0.877494
	C161	C	0.622856	0.669495	0.101532
	C162	C	0.623137	0.306998	0.877087
	C163	C	0.377460	0.311607	0.101644
	C164	C	0.681577	0.876523	0.366690
	C165	C	0.675189	0.102388	0.611626
	C166	C	0.319591	0.876363	0.614298
	C167	C	0.321265	0.101354	0.372730
	C168	C	0.877643	0.376052	0.168854
	C169	C	0.122522	0.600824	0.169585
	C170	C	0.125116	0.376399	0.806733
	C171	C	0.878770	0.600789	0.809533
	C172	C	0.182296	0.864970	0.378479
	C173	C	0.174937	0.108648	0.603381
	C174	C	0.818027	0.111397	0.378721
	C175	C	0.818333	0.866797	0.602680
	C176	C	0.385357	0.168060	0.870890
	C177	C	0.612271	0.168701	0.111630
	C178	C	0.386924	0.810310	0.113754
	C179	C	0.611855	0.808689	0.867005
	C180	C	0.387228	0.867572	0.171286
	C181	C	0.612075	0.112434	0.170613
	C182	C	0.384839	0.110321	0.814426
	C183	C	0.611442	0.865859	0.809173
	C184	C	0.876112	0.168859	0.377926
	C185	C	0.120310	0.168912	0.601450
	C186	C	0.123875	0.807891	0.377419
	C187	C	0.876272	0.808419	0.602319
	C188	C	0.180914	0.375849	0.865748
	C189	C	0.177554	0.601801	0.109552
	C190	C	0.821507	0.375180	0.109741
	C191	C	0.819867	0.600203	0.865649
	C192	C	0.398292	0.083099	0.591712
	C193	C	0.594808	0.896224	0.587469
	C194	C	0.595438	0.081172	0.393259
	C195	C	0.404463	0.895210	0.393869
	C196	C	0.597464	0.391561	0.081546
	C197	C	0.597168	0.585031	0.897334
	C198	C	0.400713	0.587412	0.082656
	C199	C	0.403184	0.390021	0.895262
	C200	C	0.093110	0.584546	0.390957
	C201	C	0.906833	0.585605	0.586821
	C202	C	0.093222	0.391593	0.583310
	C203	C	0.906322	0.391473	0.391582
	C204	C	0.903180	0.580805	0.085876
	C205	C	0.096451	0.396375	0.084524
	C206	C	0.098496	0.582067	0.888931
	C207	C	0.905363	0.395590	0.891116
	C208	C	0.095709	0.889373	0.582604
	C209	C	0.097524	0.084242	0.397194
	C210	C	0.900979	0.087489	0.582762
	C211	C	0.903395	0.891696	0.398083
	C212	C	0.592174	0.085476	0.892815
	C213	C	0.406285	0.087463	0.090035
	C214	C	0.592254	0.892678	0.085564
	C215	C	0.405924	0.891727	0.894552
	Zn216	Zn	0.497989	-0.010571	0.741383
	Zn217	Zn	0.499831	-0.011146	0.240294
	Zn218	Zn	0.750990	0.488315	-0.011448
	Zn219	Zn	0.250011	0.488796	-0.011972
	Zn220	Zn	-0.000589	0.737213	0.488421
	Zn221	Zn	-0.000211	0.238255	0.488406
	Zn222	Zn	0.001063	0.488487	0.737829
	Zn223	Zn	-0.000264	0.489146	0.239180
	Zn224	Zn	0.499791	0.738971	-0.009439
	Zn225	Zn	0.499359	0.238425	-0.010119
	Zn226	Zn	0.748065	-0.010918	0.491391
	Zn227	Zn	0.249315	-0.012468	0.491785
	N228	N	0.410424	0.953667	0.672744
	N229	N	0.582933	0.025590	0.669344
	N230	N	0.588880	0.953375	0.308238
	N231	N	0.413391	0.024624	0.312499
	N232	N	0.680630	0.401101	0.952602
	N233	N	0.679866	0.574982	0.025312
	N234	N	0.321203	0.575199	0.952898
	N235	N	0.320075	0.402671	0.024181
	N236	N	0.963753	0.667615	0.401880
	N237	N	0.036365	0.666960	0.574326
	N238	N	0.963477	0.310724	0.573579
	N239	N	0.035214	0.307492	0.399989
	N240	N	0.965114	0.401366	0.668312
	N241	N	0.036486	0.575176	0.666975
	N242	N	0.963497	0.575016	0.310285
	N243	N	0.035439	0.401056	0.308104
	N244	N	0.413053	0.669021	0.954081
	N245	N	0.587059	0.668698	0.025717
	N246	N	0.587146	0.308064	0.953291
	N247	N	0.413064	0.310469	0.025256
	N248	N	0.679324	0.952448	0.403418
	N249	N	0.675637	0.025789	0.576326
	N250	N	0.318896	0.952862	0.579480
	N251	N	0.322213	0.024816	0.407532
	N252	N	0.912272	0.452662	0.169500
	N253	N	0.087826	0.524294	0.169432
	N254	N	0.089779	0.453133	0.806248
	N255	N	0.915555	0.524951	0.810187
	N256	N	0.180901	0.900059	0.454996
	N257	N	0.175211	0.071822	0.527762
	N258	N	0.818493	0.075966	0.454759
	N259	N	0.819165	0.902447	0.526805
	N260	N	0.462462	0.167805	0.904710
	N261	N	0.535827	0.168520	0.076945
	N262	N	0.463221	0.810529	0.077015
	N263	N	0.535460	0.809339	0.903429
	N264	N	0.463587	0.903018	0.169726
	N265	N	0.535231	0.077593	0.171949
	N266	N	0.461452	0.074524	0.813754
	N267	N	0.534837	0.901768	0.810305
	N268	N	0.911933	0.168861	0.453575
	N269	N	0.087303	0.169304	0.524465
	N270	N	0.086638	0.808125	0.452995
	N271	N	0.912708	0.808698	0.526166
	N272	N	0.179853	0.452112	0.901423
	N273	N	0.176345	0.526044	0.072434
	N274	N	0.822024	0.451299	0.074055
	N275	N	0.820799	0.523840	0.900956
	O276	O	0.502384	0.677171	0.542692
	H277	H	0.498094	0.685013	0.530017
	H278	H	0.497696	0.675728	0.554713
	O279	O	0.887579	1.038431	0.944539
	H280	H	0.898899	1.034978	0.939327
	H281	H	0.900129	1.039365	0.934454
	O282	O	0.915988	0.047824	1.092059
	H283	H	0.907987	0.056929	1.078864
	H284	H	0.925499	0.034067	1.086994
	O285	O	0.474272	0.393782	0.346993
	H286	H	0.461489	0.387895	0.370237
	H287	H	0.469080	0.389544	0.351564
	O288	O	1.174285	0.906596	0.820709
	H289	H	1.183094	0.894816	0.818009
	H290	H	1.166099	0.887109	0.811354
	O291	O	-0.029778	0.919934	-0.089653
	H292	H	-0.043767	0.915216	-0.085778
	H293	H	-0.029890	0.927115	-0.071376
	O294	O	0.487504	0.384558	0.411787
	H295	H	0.491314	0.383307	0.405729
	H296	H	0.478794	0.390148	0.417921
	O297	O	0.969216	0.874968	1.090343
	H298	H	0.966921	0.899279	1.094187
	H299	H	0.968983	0.873508	1.063401
	O300	O	0.367163	0.505771	0.406037
	H301	H	0.372334	0.502439	0.415034
	H302	H	0.372671	0.505343	0.390876
	O303	O	0.503721	0.616123	0.554603
	H304	H	0.509212	0.612772	0.542939
	H305	H	0.502065	0.628303	0.559686
	O306	O	0.542553	0.549212	0.360546
	H307	H	0.549357	0.539579	0.357931
	H308	H	0.536363	0.545326	0.342818
	O309	O	0.531882	0.622708	0.406162
	H310	H	0.538000	0.631325	0.413981
	H311	H	0.538458	0.615406	0.399588
	O312	O	0.015780	-0.098645	-0.042780
	H313	H	0.012716	-0.094065	-0.045593
	H314	H	0.008024	-0.095184	-0.030647
	O315	O	0.420594	0.594430	0.515419
	H316	H	0.430740	0.586728	0.508232
	H317	H	0.428701	0.587114	0.510650
	O318	O	0.161813	1.007441	0.979797
	H319	H	0.165388	1.000324	0.960856
	H320	H	0.157051	1.001976	0.967124
	O321	O	0.467768	0.465766	0.506310
	H322	H	0.480917	0.461057	0.508232
	H323	H	0.458437	0.445861	0.511853
	O324	O	-0.511551	1.421030	-0.625821
	H325	H	-0.492594	1.422387	-0.625214
	H326	H	-0.516992	1.426679	-0.617226
	O327	O	0.584238	0.358917	0.469423
	H328	H	0.581006	0.360381	0.463351
	H329	H	0.595569	0.370397	0.473642
	O330	O	0.031861	0.035699	1.065649
	H331	H	0.034201	0.043893	1.058212
	H332	H	0.035274	0.033716	1.063652
	O333	O	-0.458188	0.529675	1.652683
	H334	H	-0.457982	0.531741	1.659479
	H335	H	-0.466649	0.533562	1.631246
	O336	O	0.659947	0.369737	0.539899
	H337	H	0.664162	0.363708	0.544606
	H338	H	0.664637	0.384135	0.544004
	O339	O	1.174591	0.128382	0.147863
	H340	H	1.173192	0.119036	0.133665
	H341	H	1.184100	0.113242	0.155561
	O342	O	-0.021904	0.018722	-0.190848
	H343	H	-0.015876	0.022496	-0.185470
	H344	H	-0.014136	0.009954	-0.199513
	O345	O	1.019056	0.083936	0.941737
	H346	H	1.015980	0.085491	0.947635
	H347	H	1.030443	0.077181	0.953280
	O348	O	0.933926	1.118322	0.058136
	H349	H	0.946548	1.098463	0.057361
	H350	H	0.931089	1.118546	0.057520
	O351	O	0.372706	0.508945	0.655288
	H352	H	0.369836	0.507063	0.644675
	H353	H	0.372382	0.491117	0.662911
	O354	O	0.876745	0.136644	0.827129
	H355	H	0.878389	0.129694	0.828447
	H356	H	0.876655	0.136954	0.824005
	O357	O	0.076435	-0.119564	1.029347
	H358	H	0.096406	-0.109868	1.014649
	H359	H	0.083010	-0.118157	1.030252
	O360	O	0.607372	0.670985	0.620000
	H361	H	0.604337	0.665133	0.618106
	H362	H	0.615419	0.657781	0.614667
	O363	O	0.032997	1.126498	1.196302
	H364	H	0.038231	1.121734	1.181474
	H365	H	0.035838	1.143524	1.212349
	O366	O	0.435689	0.419403	0.412758
	H367	H	0.439904	0.427007	0.417606
	H368	H	0.429332	0.427729	0.415034
	O369	O	-0.397073	0.412826	0.548432
	H370	H	-0.388397	0.402163	0.551030
	H371	H	-0.392381	0.409728	0.541990
	O372	O	0.517056	0.495924	0.629668
	H373	H	0.525198	0.500374	0.621341
	H374	H	0.507308	0.493597	0.635332
	O375	O	0.367036	0.411653	0.528706
	H376	H	0.382929	0.420239	0.513939
	H377	H	0.354154	0.399063	0.531154
	O378	O	1.115527	0.976592	0.061617
	H379	H	1.127817	0.994776	0.070042
	H380	H	1.117768	0.976033	0.053163
	O381	O	1.032985	-0.030678	-0.183602
	H382	H	1.035494	-0.045627	-0.194157
	H383	H	1.004918	-0.031745	-0.189430
	O384	O	1.622460	0.432159	0.356679
	H385	H	1.627206	0.415103	0.358179
	H386	H	1.638824	0.424602	0.337324
	O387	O	-0.135204	-0.206873	0.089103
	H388	H	-0.134384	-0.212779	0.126548
	H389	H	-0.166243	-0.208667	0.091238
	O390	O	-0.153545	0.968226	-0.036420
	H391	H	-0.154874	0.971638	-0.044169
	H392	H	-0.161043	0.959945	-0.013598
	O393	O	1.150778	1.119374	0.970196
	H394	H	1.154120	1.124162	0.982260
	H395	H	1.157661	1.129848	0.972895
	O396	O	0.499444	0.506454	0.487714
	H397	H	0.490088	0.519854	0.486311
	H398	H	0.507881	0.502035	0.482124
	O399	O	-0.089993	0.831832	0.855273
	H400	H	-0.088423	0.812997	0.855599
	H401	H	-0.084257	0.824029	0.872046
	O402	O	0.521545	0.530117	0.467887
	H403	H	0.520543	0.535624	0.473358
	H404	H	0.518744	0.538178	0.490169
	O405	O	0.811215	0.888779	0.174063
	H406	H	0.824617	0.923746	0.181166
	H407	H	0.817143	0.889766	0.192633
	O408	O	0.974988	0.965613	0.139934
	H409	H	0.971746	0.954571	0.146242
	H410	H	0.983145	0.967895	0.133947
	O411	O	1.029687	-0.146612	0.940614
	H412	H	1.032633	-0.154349	0.943162
	H413	H	1.035363	-0.139049	0.928083
	O414	O	0.665657	0.333998	0.458901
	H415	H	0.672204	0.333215	0.443153
	H416	H	0.666843	0.348304	0.463530
	O417	O	0.468717	0.475561	0.574358
	H418	H	0.472718	0.458004	0.575220
	H419	H	0.480569	0.483521	0.572943
