data_Molecule from HDF5

_cell_length_a		16.382302
_cell_length_b		16.338708
_cell_length_c		16.412603
_cell_angle_alpha	90.093482
_cell_angle_beta	89.759779
_cell_angle_gamma	89.763081
_symmetry_space_group_name_H-M	'P 1'
_symmetry_Int_Tables_number		1

loop_
	_symmetry_equiv_pos_as_xyz
	x,y,z

loop_
	_atom_site_label
	_atom_site_type_symbol
	_atom_site_fract_x
	_atom_site_fract_y
	_atom_site_fract_z
	H0	H	0.383897	0.842052	0.719536
	H1	H	0.594599	0.159496	0.717311
	H2	H	0.598995	0.841123	0.273416
	H3	H	0.383766	0.159328	0.276599
	H4	H	0.713247	0.393725	0.837052
	H5	H	0.712313	0.606937	0.153734
	H6	H	0.269169	0.605753	0.839497
	H7	H	0.268881	0.393081	0.155799
	H8	H	0.829486	0.718795	0.393553
	H9	H	0.146889	0.722332	0.604170
	H10	H	0.829969	0.279403	0.602510
	H11	H	0.148902	0.277200	0.390990
	H12	H	0.831816	0.391213	0.721943
	H13	H	0.147800	0.607299	0.720341
	H14	H	0.831494	0.606040	0.274358
	H15	H	0.148223	0.390801	0.272591
	H16	H	0.385036	0.722152	0.839238
	H17	H	0.597867	0.722267	0.154093
	H18	H	0.598463	0.276624	0.837565
	H19	H	0.386864	0.279587	0.156723
	H20	H	0.713851	0.840493	0.389557
	H21	H	0.710592	0.158638	0.603621
	H22	H	0.270399	0.840466	0.602851
	H23	H	0.265013	0.157717	0.390149
	H24	H	0.886506	0.339955	0.215860
	H25	H	0.096066	0.657231	0.218676
	H26	H	0.095820	0.339140	0.776806
	H27	H	0.884156	0.657342	0.774398
	H28	H	0.213224	0.891141	0.339994
	H29	H	0.207701	0.103760	0.656664
	H30	H	0.770122	0.104161	0.338000
	H31	H	0.767134	0.894332	0.655986
	H32	H	0.331595	0.220817	0.895147
	H33	H	0.650456	0.219300	0.101589
	H34	H	0.331499	0.780414	0.101643
	H35	H	0.649643	0.777493	0.888561
	H36	H	0.332394	0.894470	0.219657
	H37	H	0.649531	0.105072	0.219929
	H38	H	0.331727	0.106784	0.777077
	H39	H	0.649689	0.894209	0.773943
	H40	H	0.884734	0.219927	0.338398
	H41	H	0.092114	0.219861	0.655953
	H42	H	0.094644	0.777565	0.338526
	H43	H	0.883668	0.778384	0.656660
	H44	H	0.211860	0.338989	0.892610
	H45	H	0.209499	0.658786	0.100958
	H46	H	0.768465	0.341094	0.102921
	H47	H	0.766417	0.657255	0.886527
	H48	H	0.401900	0.115447	0.591695
	H49	H	0.580649	0.885221	0.583970
	H50	H	0.579764	0.115303	0.403581
	H51	H	0.401119	0.886222	0.410252
	H52	H	0.582387	0.414678	0.109391
	H53	H	0.580670	0.588647	0.881901
	H54	H	0.397826	0.590503	0.112501
	H55	H	0.409953	0.403812	0.884042
	H56	H	0.102325	0.586357	0.410241
	H57	H	0.878902	0.584500	0.582033
	H58	H	0.100284	0.407585	0.578162
	H59	H	0.874226	0.407397	0.402977
	H60	H	0.101090	0.417289	0.587252
	H61	H	0.877627	0.582799	0.588091
	H62	H	0.102544	0.584205	0.405621
	H63	H	0.876256	0.408390	0.410206
	H64	H	0.401481	0.585716	0.109255
	H65	H	0.578969	0.585966	0.883608
	H66	H	0.577006	0.411496	0.108322
	H67	H	0.393135	0.407537	0.880381
	H68	H	0.574078	0.111007	0.409097
	H69	H	0.576361	0.886671	0.586820
	H70	H	0.402216	0.112465	0.582050
	H71	H	0.401860	0.885473	0.406858
	H72	H	0.906739	0.612119	0.086252
	H73	H	0.078340	0.386284	0.083838
	H74	H	0.084418	0.614329	0.908327
	H75	H	0.905846	0.388202	0.913020
	H76	H	0.070615	0.900020	0.611516
	H77	H	0.076276	0.088139	0.384218
	H78	H	0.894115	0.088971	0.612762
	H79	H	0.902371	0.918943	0.387771
	H80	H	0.606262	0.087649	0.901874
	H81	H	0.374501	0.090087	0.093671
	H82	H	0.605548	0.910347	0.086091
	H83	H	0.377182	0.915835	0.902428
	H84	H	0.603951	0.910423	0.083912
	H85	H	0.377439	0.094590	0.083235
	H86	H	0.605388	0.091549	0.907813
	H87	H	0.375042	0.905590	0.907669
	H88	H	0.901228	0.084392	0.608608
	H89	H	0.080054	0.087643	0.383400
	H90	H	0.089706	0.909441	0.614958
	H91	H	0.908330	0.902850	0.384104
	H92	H	0.078169	0.613681	0.903707
	H93	H	0.083696	0.383980	0.083583
	H94	H	0.901170	0.611688	0.079060
	H95	H	0.899222	0.384701	0.909852
	H96	H	0.393353	0.115611	0.586288
	H97	H	0.576379	0.887969	0.581653
	H98	H	0.581945	0.112805	0.412352
	H99	H	0.404883	0.886920	0.408582
	H100	H	0.581946	0.408397	0.110492
	H101	H	0.577269	0.588855	0.883169
	H102	H	0.404318	0.591903	0.110419
	H103	H	0.403869	0.419353	0.887707
	H104	H	0.104103	0.588614	0.406535
	H105	H	0.876246	0.588777	0.586075
	H106	H	0.106223	0.404981	0.590297
	H107	H	0.877051	0.414582	0.405347
	H108	H	0.898567	0.615581	0.086892
	H109	H	0.080198	0.382874	0.088453
	H110	H	0.077718	0.611056	0.910813
	H111	H	0.905883	0.385329	0.905567
	H112	H	0.073968	0.921289	0.606006
	H113	H	0.078065	0.084681	0.384160
	H114	H	0.902352	0.093656	0.611135
	H115	H	0.892097	0.906944	0.380087
	H116	H	0.603217	0.084584	0.907766
	H117	H	0.380246	0.083512	0.085212
	H118	H	0.604382	0.912687	0.085136
	H119	H	0.380445	0.914661	0.913910
	C120	C	0.367747	0.009146	0.619267
	C121	C	0.610407	0.991384	0.617198
	C122	C	0.611929	0.007818	0.375376
	C123	C	0.369106	0.991351	0.375884
	C124	C	0.613608	0.377851	0.004726
	C125	C	0.612164	0.621099	0.987189
	C126	C	0.369314	0.621503	0.005810
	C127	C	0.370213	0.378107	0.989174
	C128	C	-0.001889	0.619648	0.375243
	C129	C	0.981275	0.619727	0.618544
	C130	C	-0.002356	0.377961	0.618186
	C131	C	0.980801	0.377043	0.373688
	C132	C	0.869381	0.508283	0.116921
	C133	C	0.112406	0.489764	0.117730
	C134	C	0.113156	0.507799	0.874924
	C135	C	0.870345	0.490973	0.875943
	C136	C	0.111186	0.876915	0.506293
	C137	C	0.110006	0.119729	0.488431
	C138	C	0.867763	0.121005	0.505749
	C139	C	0.867908	0.877632	0.489006
	C140	C	0.499517	0.121104	0.874991
	C141	C	0.482713	0.121147	0.119041
	C142	C	0.499493	0.878817	0.117978
	C143	C	0.482476	0.878890	0.874897
	C144	C	0.365801	0.889520	0.679656
	C145	C	0.613029	0.111400	0.677721
	C146	C	0.615964	0.888459	0.314131
	C147	C	0.365460	0.111021	0.315681
	C148	C	0.673846	0.375070	0.885153
	C149	C	0.672782	0.624559	0.106177
	C150	C	0.309303	0.623960	0.886742
	C151	C	0.309310	0.375210	0.108159
	C152	C	0.877935	0.679646	0.374166
	C153	C	0.099872	0.681717	0.621914
	C154	C	0.877902	0.318547	0.620868
	C155	C	0.100723	0.316470	0.371789
	C156	C	0.879151	0.374097	0.680757
	C157	C	0.100027	0.624491	0.679971
	C158	C	0.878933	0.623572	0.314561
	C159	C	0.100393	0.373173	0.312924
	C160	C	0.366877	0.681996	0.886675
	C161	C	0.615367	0.681899	0.106392
	C162	C	0.616565	0.316783	0.885369
	C163	C	0.368110	0.318763	0.108903
	C164	C	0.673598	0.888513	0.371734
	C165	C	0.670910	0.110936	0.621021
	C166	C	0.309486	0.888709	0.621122
	C167	C	0.306661	0.110556	0.372819
	C168	C	0.867416	0.388019	0.176573
	C169	C	0.114193	0.609714	0.178157
	C170	C	0.114918	0.387255	0.815755
	C171	C	0.866622	0.610111	0.814528
	C172	C	0.172355	0.873609	0.387095
	C173	C	0.168723	0.122233	0.608599
	C174	C	0.809454	0.122507	0.385706
	C175	C	0.807728	0.875905	0.608590
	C176	C	0.379526	0.181182	0.875193
	C177	C	0.602815	0.179960	0.120375
	C178	C	0.379369	0.819725	0.120189
	C179	C	0.601805	0.817869	0.871339
	C180	C	0.379925	0.876218	0.179196
	C181	C	0.602127	0.123157	0.179269
	C182	C	0.379557	0.124365	0.816535
	C183	C	0.601865	0.875914	0.813825
	C184	C	0.866577	0.180298	0.385980
	C185	C	0.111265	0.180246	0.608211
	C186	C	0.113285	0.817147	0.386386
	C187	C	0.865688	0.818113	0.608860
	C188	C	0.172800	0.387495	0.873332
	C189	C	0.170904	0.610606	0.119702
	C190	C	0.808764	0.388732	0.120300
	C191	C	0.808087	0.609968	0.870867
	C192	C	0.392018	0.092698	0.593977
	C193	C	0.585172	0.908301	0.591537
	C194	C	0.586133	0.091376	0.401046
	C195	C	0.395162	0.908024	0.401336
	C196	C	0.587845	0.403871	0.087726
	C197	C	0.586448	0.595183	0.904536
	C198	C	0.394002	0.596456	0.088876
	C199	C	0.395204	0.403014	0.905791
	C200	C	0.081265	0.593928	0.400126
	C201	C	0.899074	0.592944	0.592812
	C202	C	0.080907	0.402872	0.592503
	C203	C	0.897461	0.402901	0.398800
	C204	C	0.894896	0.591273	0.091380
	C205	C	0.087901	0.406180	0.092535
	C206	C	0.087356	0.591303	0.900128
	C207	C	0.896284	0.407891	0.902062
	C208	C	0.085586	0.902821	0.589272
	C209	C	0.085440	0.094214	0.405595
	C210	C	0.892239	0.096168	0.589177
	C211	C	0.893523	0.902473	0.405694
	C212	C	0.583265	0.095357	0.898892
	C213	C	0.399206	0.096513	0.094533
	C214	C	0.582686	0.903905	0.092604
	C215	C	0.399032	0.904695	0.900667
	Zn216	Zn	0.490271	0.000154	0.745773
	Zn217	Zn	0.490983	-0.000116	0.247177
	Zn218	Zn	0.741014	0.499850	-0.004147
	Zn219	Zn	0.241195	0.499119	-0.002617
	Zn220	Zn	-0.010836	0.748563	0.497326
	Zn221	Zn	-0.010905	0.249272	0.496530
	Zn222	Zn	-0.009269	0.498576	0.747391
	Zn223	Zn	-0.009903	0.499154	0.245440
	Zn224	Zn	0.491107	0.750100	-0.003519
	Zn225	Zn	0.491821	0.249555	-0.002833
	Zn226	Zn	0.739533	-0.000175	0.497074
	Zn227	Zn	0.239995	-0.001059	0.497511
	N228	N	0.401374	0.965430	0.678534
	N229	N	0.575905	0.036149	0.675426
	N230	N	0.578474	0.963744	0.316200
	N231	N	0.403567	0.035946	0.317527
	N232	N	0.672018	0.412227	0.960321
	N233	N	0.670902	0.587314	0.031121
	N234	N	0.310627	0.587003	0.961728
	N235	N	0.310542	0.411499	0.032739
	N236	N	0.952992	0.677304	0.411303
	N237	N	0.025191	0.678934	0.584361
	N238	N	0.952665	0.320628	0.582545
	N239	N	0.025424	0.318723	0.409000
	N240	N	0.954547	0.410539	0.678799
	N241	N	0.025458	0.586227	0.677749
	N242	N	0.954795	0.587168	0.314851
	N243	N	0.024774	0.410011	0.313982
	N244	N	0.403374	0.680662	0.961859
	N245	N	0.578482	0.680089	0.031342
	N246	N	0.579761	0.318242	0.960882
	N247	N	0.405399	0.320541	0.033868
	N248	N	0.671118	0.963949	0.409043
	N249	N	0.669391	0.035464	0.583876
	N250	N	0.310714	0.964050	0.584021
	N251	N	0.308585	0.034950	0.409350
	N252	N	0.904335	0.463227	0.174686
	N253	N	0.078675	0.533807	0.177027
	N254	N	0.078815	0.463241	0.816483
	N255	N	0.904637	0.535178	0.817786
	N256	N	0.171233	0.910061	0.462588
	N257	N	0.168450	0.085375	0.533216
	N258	N	0.809965	0.086435	0.461250
	N259	N	0.808894	0.912123	0.533132
	N260	N	0.455299	0.179322	0.910921
	N261	N	0.527510	0.178924	0.083872
	N262	N	0.454713	0.821105	0.082951
	N263	N	0.526578	0.819791	0.908768
	N264	N	0.455460	0.912338	0.177795
	N265	N	0.526412	0.087410	0.178414
	N266	N	0.455256	0.087884	0.816346
	N267	N	0.526502	0.913406	0.816023
	N268	N	0.901900	0.179710	0.461811
	N269	N	0.075552	0.178821	0.532673
	N270	N	0.076025	0.818927	0.461496
	N271	N	0.902452	0.819264	0.533400
	N272	N	0.172110	0.463498	0.909296
	N273	N	0.169869	0.534956	0.082815
	N274	N	0.809607	0.464525	0.083918
	N275	N	0.810399	0.534815	0.908479
	O276	O	0.542501	0.540745	0.416325
	H277	H	0.535062	0.558307	0.428947
	H278	H	0.538033	0.533476	0.419329
	O279	O	0.292012	0.494949	0.695652
	H280	H	0.285869	0.474361	0.718046
	H281	H	0.291480	0.494799	0.713112
	O282	O	0.517988	0.665375	0.491834
	H283	H	0.501545	0.657163	0.494100
	H284	H	0.507831	0.664818	0.482871
	O285	O	1.102250	1.136208	0.002728
	H286	H	1.080180	1.135567	0.003272
	H287	H	1.094073	1.133202	0.006441
	O288	O	0.473579	0.460331	0.436657
	H289	H	0.476858	0.450567	0.427035
	H290	H	0.463507	0.459659	0.439186
	O291	O	0.694967	0.488603	0.418521
	H292	H	0.702273	0.482506	0.403073
	H293	H	0.679346	0.500100	0.417427
	O294	O	0.972368	0.829464	0.859016
	H295	H	0.967636	0.823217	0.865742
	H296	H	0.957418	0.812010	0.868413
	O297	O	0.283932	0.524216	0.287830
	H298	H	0.285008	0.511004	0.287132
	H299	H	0.273551	0.527483	0.287330
	O300	O	0.936680	0.023977	0.863033
	H301	H	0.942885	0.010230	0.870536
	H302	H	0.950000	0.013047	0.867759
	O303	O	0.619323	0.293340	0.515527
	H304	H	0.629621	0.301255	0.533417
	H305	H	0.633911	0.281508	0.527182
	O306	O	0.051043	-0.050001	1.105876
	H307	H	0.049863	-0.043144	1.107789
	H308	H	0.067021	-0.068247	1.116014
	O309	O	1.110189	-0.061493	0.126772
	H310	H	1.094856	-0.063175	0.131179
	H311	H	1.110287	-0.048206	0.132251
	O312	O	0.284731	0.708232	0.478278
	H313	H	0.279210	0.691982	0.483353
	H314	H	0.270838	0.731900	0.475594
	O315	O	0.635236	0.691617	0.457255
	H316	H	0.653032	0.692803	0.453963
	H317	H	0.621883	0.682426	0.466489
	O318	O	-0.091453	0.149440	-0.033785
	H319	H	-0.101051	0.166921	-0.051441
	H320	H	-0.089732	0.135743	-0.046780
	O321	O	0.303079	0.326532	0.684547
	H322	H	0.310069	0.345216	0.676589
	H323	H	0.289607	0.303782	0.668069
	O324	O	0.815041	-0.185777	1.139224
	H325	H	0.840955	-0.190455	1.147854
	H326	H	0.816047	-0.151025	1.141652
	O327	O	0.424864	0.556020	0.356864
	H328	H	0.422438	0.559952	0.375820
	H329	H	0.429620	0.583743	0.357018
	O330	O	-0.017787	1.084957	0.913639
	H331	H	-0.049467	1.085040	0.925749
	H332	H	-0.030789	1.100220	0.894729
	O333	O	-0.206689	0.976439	0.197981
	H334	H	-0.225071	0.978480	0.211994
	H335	H	-0.198085	0.983654	0.197001
	O336	O	0.915152	1.165482	0.115087
	H337	H	0.911210	1.180604	0.113136
	H338	H	0.922302	1.162499	0.099905
	O339	O	0.095859	0.998310	0.967189
	H340	H	0.100062	1.000847	0.976981
	H341	H	0.102071	0.990232	0.986551
	O342	O	0.517903	0.695100	0.632971
	H343	H	0.505638	0.689837	0.635361
	H344	H	0.518315	0.693011	0.635865
	O345	O	-0.198202	0.058766	0.914878
	H346	H	-0.215706	0.056399	0.894793
	H347	H	-0.178401	0.047729	0.921050
	O348	O	0.294131	0.621838	0.344125
	H349	H	0.296747	0.630806	0.369511
	H350	H	0.308725	0.593388	0.345729
	O351	O	1.165482	1.113901	0.187742
	H352	H	1.157161	1.114187	0.177537
	H353	H	1.161292	1.115051	0.203529
	O354	O	0.947563	0.987436	0.897584
	H355	H	0.952783	0.973425	0.900452
	H356	H	0.948308	0.998658	0.890628
	O357	O	-0.109227	0.131747	-0.187648
	H358	H	-0.112065	0.121011	-0.163971
	H359	H	-0.112194	0.109681	-0.195663
	O360	O	0.481163	0.714453	0.339599
	H361	H	0.483942	0.723189	0.343489
	H362	H	0.487083	0.724805	0.332746
	O363	O	0.674948	-0.371715	-0.322066
	H364	H	0.664854	-0.374593	-0.316316
	H365	H	0.677863	-0.380738	-0.335683
	O366	O	-0.149027	-0.064133	0.994991
	H367	H	-0.157345	-0.077437	1.023142
	H368	H	-0.145936	-0.064691	1.005347
	O369	O	1.175327	-0.059936	0.802729
	H370	H	1.198528	-0.068704	0.798008
	H371	H	1.176013	-0.030150	0.818374
	O372	O	0.283647	0.292648	0.520440
	H373	H	0.280475	0.286934	0.512731
	H374	H	0.283723	0.282485	0.517622
	O375	O	0.650620	0.335789	1.521497
	H376	H	0.663756	0.333009	1.512543
	H377	H	0.648985	0.345494	1.497642
	O378	O	0.645259	0.669117	0.567217
	H379	H	0.659650	0.692079	0.571922
	H380	H	0.651384	0.656339	0.571361
	O381	O	0.188747	1.183559	0.040604
	H382	H	0.184656	1.181154	0.038166
	H383	H	0.188473	1.193979	0.042215
	O384	O	0.437475	0.529713	0.385265
	H385	H	0.440813	0.521385	0.374562
	H386	H	0.439763	0.522751	0.391557
	O387	O	0.459809	0.294718	0.703796
	H388	H	0.441707	0.298129	0.704515
	H389	H	0.458014	0.276121	0.709165
	O390	O	1.093412	1.121394	0.042085
	H391	H	1.089945	1.112115	0.025063
	H392	H	1.092455	1.120337	0.048819
	O393	O	1.112693	-0.076282	1.081459
	H394	H	1.119331	-0.091054	1.089849
	H395	H	1.106099	-0.077031	1.072645
	O396	O	0.517888	0.285593	0.289469
	H397	H	0.520417	0.267902	0.261646
	H398	H	0.518832	0.298328	0.294143
	O399	O	1.051296	0.865618	0.196821
	H400	H	1.049339	0.864679	0.193285
	H401	H	1.072283	0.869507	0.191088
	O402	O	1.034961	0.791816	0.063681
	H403	H	1.044271	0.799377	0.051098
	H404	H	1.041592	0.793571	0.051382
	O405	O	0.344546	0.604270	0.661266
	H406	H	0.348166	0.615549	0.664836
	H407	H	0.352414	0.596535	0.662801
	O408	O	0.366447	0.551097	0.538153
	H409	H	0.368270	0.542459	0.557817
	H410	H	0.367617	0.544675	0.547999
	O411	O	0.906450	1.076980	1.055692
	H412	H	0.905176	1.073720	1.065864
	H413	H	0.906640	1.081125	1.046175
	O414	O	0.480936	0.374325	0.380803
	H415	H	0.488050	0.387930	0.393398
	H416	H	0.465521	0.363415	0.376605
	O417	O	0.189675	0.804159	0.927009
	H418	H	0.184882	0.816168	0.937291
	H419	H	0.203425	0.801544	0.914008
	O420	O	-0.120693	1.155990	0.976038
	H421	H	-0.124462	1.159938	0.968610
	H422	H	-0.126998	1.138170	0.976567
	O423	O	0.075293	0.865684	-0.206826
	H424	H	0.075475	0.854038	-0.203062
	H425	H	0.076051	0.869028	-0.209605
	O426	O	0.474658	0.498038	0.696486
	H427	H	0.472661	0.487861	0.678630
	H428	H	0.465893	0.480479	0.703532
	O429	O	0.689201	0.469213	0.387031
	H430	H	0.682402	0.481433	0.378484
	H431	H	0.694024	0.474748	0.396855
	O432	O	0.680754	0.312764	0.305411
	H433	H	0.656440	0.300371	0.323763
	H434	H	0.691489	0.353665	0.296200
	O435	O	0.314915	-0.611699	0.420174
	H436	H	0.322342	-0.606035	0.421318
	H437	H	0.316821	-0.600592	0.430254
	O438	O	-0.222688	0.826282	0.999328
	H439	H	-0.223342	0.828721	1.025092
	H440	H	-0.237316	0.815020	1.008562
	O441	O	0.634790	0.497756	0.702627
	H442	H	0.632980	0.483233	0.697301
	H443	H	0.637380	0.488618	0.712940
