data_Molecule from HDF5

_cell_length_a		16.244424
_cell_length_b		16.210516
_cell_length_c		16.366242
_cell_angle_alpha	90.090487
_cell_angle_beta	89.780587
_cell_angle_gamma	89.958722
_symmetry_space_group_name_H-M	'P 1'
_symmetry_Int_Tables_number		1

loop_
	_symmetry_equiv_pos_as_xyz
	x,y,z

loop_
	_atom_site_label
	_atom_site_type_symbol
	_atom_site_fract_x
	_atom_site_fract_y
	_atom_site_fract_z
	H0	H	0.397004	0.831559	0.711543
	H1	H	0.603182	0.156274	0.709061
	H2	H	0.605579	0.831318	0.273560
	H3	H	0.397428	0.155523	0.275035
	H4	H	0.722061	0.390005	0.834150
	H5	H	0.717303	0.596911	0.155507
	H6	H	0.285825	0.594170	0.831133
	H7	H	0.283266	0.392776	0.154690
	H8	H	0.838097	0.709547	0.393991
	H9	H	0.164423	0.710958	0.594837
	H10	H	0.837284	0.278704	0.593776
	H11	H	0.163678	0.275738	0.391485
	H12	H	0.840049	0.389842	0.714032
	H13	H	0.165314	0.594662	0.710108
	H14	H	0.840648	0.596931	0.275406
	H15	H	0.163889	0.389391	0.275690
	H16	H	0.402573	0.710164	0.830753
	H17	H	0.601971	0.711877	0.154593
	H18	H	0.604229	0.277497	0.831883
	H19	H	0.396913	0.275262	0.154420
	H20	H	0.718637	0.831337	0.389334
	H21	H	0.716244	0.156306	0.592492
	H22	H	0.284842	0.829870	0.594077
	H23	H	0.284037	0.156237	0.394270
	H24	H	0.899326	0.330972	0.211153
	H25	H	0.104283	0.655518	0.212057
	H26	H	0.104527	0.330893	0.776547
	H27	H	0.901759	0.658129	0.778341
	H28	H	0.219619	0.887283	0.333777
	H29	H	0.218186	0.095716	0.655096
	H30	H	0.784111	0.094274	0.331675
	H31	H	0.782210	0.892647	0.654878
	H32	H	0.338554	0.209834	0.894434
	H33	H	0.664924	0.210050	0.091860
	H34	H	0.339097	0.779755	0.090027
	H35	H	0.665323	0.778591	0.891951
	H36	H	0.340190	0.889043	0.210080
	H37	H	0.663277	0.097672	0.211489
	H38	H	0.338542	0.096061	0.777367
	H39	H	0.664089	0.892541	0.774248
	H40	H	0.898606	0.211405	0.332229
	H41	H	0.101913	0.211332	0.654763
	H42	H	0.102135	0.775356	0.332949
	H43	H	0.898152	0.776371	0.655987
	H44	H	0.217265	0.330186	0.894154
	H45	H	0.214683	0.658073	0.092058
	H46	H	0.785250	0.331185	0.094512
	H47	H	0.787360	0.658492	0.896100
	H48	H	0.413587	0.108352	0.583484
	H49	H	0.582586	0.880861	0.578900
	H50	H	0.594473	0.113067	0.394286
	H51	H	0.405084	0.874639	0.399386
	H52	H	0.595429	0.401231	0.110083
	H53	H	0.599138	0.578780	0.878703
	H54	H	0.407723	0.582814	0.107358
	H55	H	0.407739	0.401263	0.876856
	H56	H	0.116012	0.580327	0.401341
	H57	H	0.888433	0.583060	0.580927
	H58	H	0.118471	0.397731	0.584062
	H59	H	0.887935	0.409513	0.406409
	H60	H	0.115207	0.404535	0.580984
	H61	H	0.886003	0.578909	0.591265
	H62	H	0.118633	0.585690	0.400792
	H63	H	0.884362	0.404890	0.395167
	H64	H	0.413136	0.587695	0.107610
	H65	H	0.587443	0.585014	0.879342
	H66	H	0.592135	0.406167	0.108619
	H67	H	0.409433	0.406310	0.879678
	H68	H	0.581857	0.106241	0.401613
	H69	H	0.598675	0.875765	0.579188
	H70	H	0.405400	0.109832	0.581465
	H71	H	0.414228	0.877019	0.396470
	H72	H	0.909794	0.608991	0.079956
	H73	H	0.104998	0.373826	0.081551
	H74	H	0.092392	0.609445	0.902906
	H75	H	0.914389	0.379281	0.902423
	H76	H	0.088532	0.903977	0.608503
	H77	H	0.096613	0.081135	0.377519
	H78	H	0.915198	0.086470	0.605774
	H79	H	0.913829	0.906732	0.382650
	H80	H	0.616456	0.083632	0.898827
	H81	H	0.387480	0.082664	0.083301
	H82	H	0.617504	0.905516	0.083246
	H83	H	0.385249	0.906820	0.893900
	H84	H	0.618481	0.903130	0.085643
	H85	H	0.385676	0.083560	0.086408
	H86	H	0.618404	0.086330	0.898966
	H87	H	0.382348	0.894709	0.900004
	H88	H	0.903951	0.090981	0.611217
	H89	H	0.088577	0.081425	0.380620
	H90	H	0.091073	0.897735	0.610463
	H91	H	0.912301	0.892432	0.377409
	H92	H	0.095606	0.611509	0.901789
	H93	H	0.089894	0.373486	0.097231
	H94	H	0.906747	0.613162	0.090082
	H95	H	0.910971	0.379101	0.905774
	H96	H	0.408343	0.110769	0.589415
	H97	H	0.589125	0.874374	0.592974
	H98	H	0.595084	0.107981	0.409568
	H99	H	0.410711	0.878607	0.405598
	H100	H	0.588548	0.401480	0.108551
	H101	H	0.597675	0.591682	0.875563
	H102	H	0.406069	0.589385	0.109857
	H103	H	0.413376	0.401222	0.879249
	H104	H	0.116387	0.583750	0.406456
	H105	H	0.883174	0.589577	0.589378
	H106	H	0.118668	0.404098	0.588565
	H107	H	0.885484	0.396755	0.405775
	H108	H	0.917289	0.608713	0.088382
	H109	H	0.084606	0.382408	0.077721
	H110	H	0.091718	0.610932	0.899491
	H111	H	0.909920	0.376740	0.901483
	H112	H	0.095752	0.903628	0.609770
	H113	H	0.091886	0.087866	0.377718
	H114	H	0.905230	0.077733	0.606446
	H115	H	0.900807	0.902233	0.375611
	H116	H	0.617707	0.084890	0.901762
	H117	H	0.386152	0.085985	0.083601
	H118	H	0.619153	0.902130	0.082086
	H119	H	0.388676	0.905284	0.907574
	C120	C	0.378674	0.001956	0.614906
	C121	C	0.621096	0.984855	0.613641
	C122	C	0.622060	0.001963	0.370923
	C123	C	0.379058	0.984385	0.370998
	C124	C	0.623102	0.372390	0.002611
	C125	C	0.623944	0.616346	0.984473
	C126	C	0.379770	0.616228	0.001772
	C127	C	0.379317	0.372294	0.985026
	C128	C	0.010170	0.614483	0.372593
	C129	C	0.993465	0.614611	0.615823
	C130	C	0.009803	0.371456	0.615380
	C131	C	0.993072	0.371926	0.371724
	C132	C	0.880669	0.502352	0.115806
	C133	C	0.123119	0.484570	0.115196
	C134	C	0.123722	0.502530	0.871986
	C135	C	0.881339	0.486002	0.873339
	C136	C	0.122159	0.870932	0.502985
	C137	C	0.122121	0.114193	0.485113
	C138	C	0.878268	0.115335	0.501630
	C139	C	0.878269	0.870793	0.485232
	C140	C	0.510020	0.115501	0.870918
	C141	C	0.493336	0.115167	0.114447
	C142	C	0.510731	0.872990	0.113043
	C143	C	0.493044	0.872234	0.870296
	C144	C	0.378256	0.879945	0.672840
	C145	C	0.621603	0.107482	0.670344
	C146	C	0.623581	0.879983	0.312765
	C147	C	0.378338	0.106857	0.314002
	C148	C	0.682112	0.371705	0.881761
	C149	C	0.679491	0.616207	0.106718
	C150	C	0.323688	0.614750	0.879725
	C151	C	0.322038	0.373153	0.106450
	C152	C	0.887515	0.671603	0.374070
	C153	C	0.116006	0.671950	0.614336
	C154	C	0.886846	0.315964	0.614151
	C155	C	0.114929	0.314052	0.372019
	C156	C	0.888207	0.371292	0.674317
	C157	C	0.116386	0.614628	0.672057
	C158	C	0.888624	0.615749	0.314774
	C159	C	0.114935	0.370799	0.314340
	C160	C	0.382042	0.671944	0.879358
	C161	C	0.622224	0.673703	0.106233
	C162	C	0.623106	0.315911	0.880487
	C163	C	0.378998	0.314738	0.106276
	C164	C	0.679854	0.879690	0.370638
	C165	C	0.678073	0.107502	0.612622
	C166	C	0.322468	0.878938	0.614178
	C167	C	0.321786	0.107212	0.373158
	C168	C	0.880460	0.379833	0.172594
	C169	C	0.123097	0.607102	0.172746
	C170	C	0.123672	0.379721	0.815152
	C171	C	0.882491	0.609173	0.816924
	C172	C	0.180197	0.869516	0.381883
	C173	C	0.179554	0.114859	0.606592
	C174	C	0.821821	0.114560	0.380219
	C175	C	0.820657	0.872122	0.606630
	C176	C	0.387365	0.171742	0.873775
	C177	C	0.615907	0.172176	0.112697
	C178	C	0.387927	0.817178	0.110619
	C179	C	0.616114	0.816023	0.871461
	C180	C	0.388673	0.871715	0.170394
	C181	C	0.615004	0.116271	0.172262
	C182	C	0.387391	0.115317	0.815300
	C183	C	0.615413	0.872756	0.813093
	C184	C	0.879002	0.172716	0.380479
	C185	C	0.121684	0.172384	0.606399
	C186	C	0.121632	0.813844	0.381302
	C187	C	0.878513	0.814313	0.607087
	C188	C	0.179596	0.379240	0.873845
	C189	C	0.178180	0.608315	0.113244
	C190	C	0.823703	0.379806	0.114545
	C191	C	0.825652	0.609502	0.875660
	C192	C	0.402238	0.087393	0.591666
	C193	C	0.597136	0.899256	0.590375
	C194	C	0.597634	0.086948	0.394889
	C195	C	0.402891	0.899034	0.393858
	C196	C	0.598962	0.396025	0.087019
	C197	C	0.601493	0.592292	0.899720
	C198	C	0.402321	0.593370	0.086219
	C199	C	0.403317	0.395809	0.900305
	C200	C	0.094946	0.590339	0.396043
	C201	C	0.908166	0.590897	0.593635
	C202	C	0.095107	0.395063	0.591463
	C203	C	0.907957	0.396548	0.395578
	C204	C	0.904244	0.588127	0.092821
	C205	C	0.099976	0.398848	0.092349
	C206	C	0.100223	0.588413	0.894746
	C207	C	0.904791	0.400618	0.896451
	C208	C	0.098508	0.894917	0.587621
	C209	C	0.099104	0.090318	0.400681
	C210	C	0.901312	0.091920	0.585942
	C211	C	0.902086	0.893658	0.400532
	C212	C	0.595521	0.091863	0.893144
	C213	C	0.408344	0.091171	0.091087
	C214	C	0.596146	0.896701	0.090278
	C215	C	0.407716	0.895368	0.893674
	Zn216	Zn	0.500936	-0.006103	0.742148
	Zn217	Zn	0.501636	-0.006978	0.242557
	Zn218	Zn	0.751739	0.494208	-0.005315
	Zn219	Zn	0.250765	0.494169	-0.006635
	Zn220	Zn	0.001127	0.742784	0.494561
	Zn221	Zn	0.000949	0.243714	0.493027
	Zn222	Zn	0.002372	0.493922	0.744082
	Zn223	Zn	0.002254	0.493308	0.243582
	Zn224	Zn	0.502774	0.744524	-0.007422
	Zn225	Zn	0.501671	0.244027	-0.007083
	Zn226	Zn	0.749186	-0.006947	0.493007
	Zn227	Zn	0.250912	-0.007837	0.493796
	N228	N	0.412381	0.957627	0.673568
	N229	N	0.586986	0.030140	0.671117
	N230	N	0.588072	0.956957	0.313055
	N231	N	0.413124	0.029528	0.312503
	N232	N	0.681996	0.406383	0.958428
	N233	N	0.680706	0.581237	0.029999
	N234	N	0.322098	0.580814	0.956692
	N235	N	0.322239	0.408284	0.030142
	N236	N	0.964050	0.670792	0.409720
	N237	N	0.038613	0.672197	0.580299
	N238	N	0.963607	0.315883	0.578389
	N239	N	0.037891	0.314555	0.406978
	N240	N	0.965844	0.405182	0.675254
	N241	N	0.039316	0.579579	0.672997
	N242	N	0.965768	0.580857	0.313857
	N243	N	0.037857	0.406084	0.313907
	N244	N	0.416043	0.673502	0.956066
	N245	N	0.588548	0.673900	0.029247
	N246	N	0.586856	0.316182	0.956542
	N247	N	0.413777	0.313979	0.029558
	N248	N	0.679252	0.956546	0.406143
	N249	N	0.677810	0.030144	0.577958
	N250	N	0.322336	0.955833	0.579043
	N251	N	0.321957	0.029800	0.407759
	N252	N	0.915058	0.457215	0.173499
	N253	N	0.089779	0.529142	0.174090
	N254	N	0.089788	0.457462	0.813796
	N255	N	0.916369	0.531301	0.815180
	N256	N	0.180684	0.904383	0.458605
	N257	N	0.179786	0.079021	0.530390
	N258	N	0.821103	0.079511	0.456593
	N259	N	0.820237	0.906319	0.529972
	N260	N	0.464671	0.172221	0.907408
	N261	N	0.539259	0.171599	0.077533
	N262	N	0.464850	0.817999	0.075573
	N263	N	0.538983	0.815585	0.906315
	N264	N	0.466208	0.905853	0.171850
	N265	N	0.537720	0.081545	0.173481
	N266	N	0.464731	0.081055	0.813419
	N267	N	0.537925	0.906762	0.811942
	N268	N	0.913453	0.173340	0.456826
	N269	N	0.086782	0.172047	0.529957
	N270	N	0.086320	0.814474	0.457627
	N271	N	0.913655	0.813278	0.530476
	N272	N	0.179834	0.456838	0.908169
	N273	N	0.178523	0.531088	0.078344
	N274	N	0.823635	0.457145	0.080141
	N275	N	0.824546	0.531999	0.909610
	O276	O	0.083756	0.031311	-0.116941
	H277	H	0.072556	0.033871	-0.116657
	H278	H	0.087243	0.022821	-0.127153
	O279	O	0.986094	-0.032057	1.025598
	H280	H	0.988117	-0.033596	1.018227
	H281	H	0.975974	-0.030026	1.033014
	O282	O	1.162074	-0.040995	0.062106
	H283	H	1.183909	-0.033536	0.075478
	H284	H	1.153845	-0.021142	0.053277
	O285	O	0.044960	0.981622	-0.087136
	H286	H	0.039218	0.979017	-0.095820
	H287	H	0.053610	0.988065	-0.101018
	O288	O	0.499380	0.356109	0.490638
	H289	H	0.498739	0.351165	0.491639
	H290	H	0.497778	0.363512	0.479332
	O291	O	0.391351	0.581907	0.477672
	H292	H	0.393302	0.571145	0.476036
	H293	H	0.376892	0.595563	0.470031
	O294	O	0.994521	0.938321	0.891243
	H295	H	0.990541	0.943575	0.908555
	H296	H	1.001546	0.939240	0.889479
	O297	O	-0.095981	0.105570	-0.103081
	H298	H	-0.099291	0.120607	-0.096976
	H299	H	-0.103872	0.100647	-0.111463
	O300	O	0.536355	0.639841	0.599214
	H301	H	0.541557	0.648328	0.595754
	H302	H	0.526942	0.648831	0.583697
	O303	O	0.085137	1.028505	1.072060
	H304	H	0.063365	1.045361	1.078513
	H305	H	0.096767	1.033829	1.055598
	O306	O	0.392164	0.374842	0.451252
	H307	H	0.382472	0.368840	0.456712
	H308	H	0.397484	0.371732	0.445536
	O309	O	1.109057	-0.093996	0.064640
	H310	H	1.114585	-0.091110	0.062557
	H311	H	1.112928	-0.090867	0.058084
	O312	O	0.006282	-0.026492	1.025471
	H313	H	0.011359	-0.031841	1.023410
	H314	H	0.000853	-0.033405	1.026313
	O315	O	0.611343	0.425271	0.584911
	H316	H	0.616209	0.425934	0.591582
	H317	H	0.609434	0.419117	0.582255
	O318	O	0.563780	0.461304	0.332346
	H319	H	0.559531	0.456812	0.333941
	H320	H	0.569876	0.467180	0.345570
	O321	O	0.429500	0.481260	0.403604
	H322	H	0.428705	0.481643	0.394874
	H323	H	0.436141	0.459067	0.407418
	O324	O	0.454787	0.477256	0.626760
	H325	H	0.442271	0.490313	0.627572
	H326	H	0.440609	0.478309	0.636658
	O327	O	0.061653	1.148962	1.102577
	H328	H	0.042544	1.140028	1.099582
	H329	H	0.062344	1.153576	1.116205
	O330	O	0.419684	0.534821	0.364681
	H331	H	0.422538	0.525924	0.367518
	H332	H	0.424749	0.529577	0.355883
	O333	O	-0.071442	1.073446	0.938823
	H334	H	-0.067780	1.065565	0.949520
	H335	H	-0.067692	1.082364	0.945155
	O336	O	0.984862	0.986497	0.982694
	H337	H	0.987553	0.989761	0.993608
	H338	H	0.981757	0.978895	0.988914
	O339	O	0.677959	0.491501	0.626162
	H340	H	0.684847	0.517800	0.637618
	H341	H	0.675504	0.498956	0.630385
	O342	O	1.035944	-0.053693	0.061759
	H343	H	1.037402	-0.054791	0.053545
	H344	H	1.043547	-0.050291	0.055414
	O345	O	0.482599	0.597565	0.480893
	H346	H	0.487767	0.602183	0.475487
	H347	H	0.485494	0.592701	0.472631
	O348	O	1.023210	1.019161	1.028193
	H349	H	1.024673	1.023710	1.037562
	H350	H	1.025722	1.033827	1.027435
	O351	O	0.935179	1.026289	-0.052420
	H352	H	0.935468	1.020821	-0.058345
	H353	H	0.943654	1.032871	-0.045193
	O354	O	0.460284	0.524785	0.373931
	H355	H	0.464045	0.524847	0.370073
	H356	H	0.449284	0.519053	0.379232
	O357	O	0.666044	0.419736	0.327091
	H358	H	0.659434	0.411089	0.333569
	H359	H	0.674158	0.425020	0.324171
	O360	O	-0.479064	0.566497	-0.375234
	H361	H	-0.497877	0.574067	-0.375748
	H362	H	-0.470263	0.569931	-0.373203
	O363	O	0.543519	0.363710	0.543353
	H364	H	0.541975	0.371043	0.545025
	H365	H	0.548093	0.353404	0.558858
	O366	O	0.493885	0.488458	0.521280
	H367	H	0.489198	0.480050	0.530427
	H368	H	0.487101	0.498720	0.521816
	O369	O	0.600102	0.671971	0.588835
	H370	H	0.607524	0.679888	0.582329
	H371	H	0.594835	0.683032	0.585118
	O372	O	0.459357	0.435505	0.399127
	H373	H	0.466681	0.433534	0.400005
	H374	H	0.457126	0.438542	0.393433
	O375	O	0.194909	0.786874	0.724036
	H376	H	0.194342	0.789105	0.730266
	H377	H	0.196237	0.787014	0.711463
	O378	O	0.391436	0.401307	0.542459
	H379	H	0.384444	0.405337	0.553661
	H380	H	0.385781	0.392402	0.547067
	O381	O	0.589843	0.549293	0.443135
	H382	H	0.593820	0.539124	0.454629
	H383	H	0.599574	0.557539	0.442285
	O384	O	0.006116	0.977796	-0.041630
	H385	H	0.001263	0.972250	-0.050730
	H386	H	0.016100	0.977633	-0.045711
	O387	O	0.922733	-0.073594	1.027488
	H388	H	0.919898	-0.076902	1.024557
	H389	H	0.919820	-0.078513	1.030019
	O390	O	-0.543500	0.443079	0.653115
	H391	H	-0.547652	0.455875	0.641661
	H392	H	-0.538830	0.450858	0.649779
	O393	O	0.966258	1.040075	0.134028
	H394	H	0.954828	1.021730	0.135382
	H395	H	0.958396	1.048527	0.133855
	O396	O	0.544332	0.451070	0.395948
	H397	H	0.537303	0.434360	0.404939
	H398	H	0.543065	0.446348	0.401562
	O399	O	0.023695	0.943343	0.954956
	H400	H	0.027410	0.944385	0.946853
	H401	H	0.017474	0.935528	0.969041
	O402	O	0.914757	0.982477	1.057132
	H403	H	0.918940	0.980306	1.043582
	H404	H	0.920294	0.966424	1.056972
	O405	O	0.497667	1.547974	0.500869
	H406	H	0.502113	1.539151	0.492108
	H407	H	0.510695	1.565855	0.505007
