data_Molecule from HDF5

_cell_length_a		16.359903
_cell_length_b		16.306322
_cell_length_c		16.253775
_cell_angle_alpha	89.949503
_cell_angle_beta	90.025685
_cell_angle_gamma	89.890953
_symmetry_space_group_name_H-M	'P 1'
_symmetry_Int_Tables_number		1

loop_
	_symmetry_equiv_pos_as_xyz
	x,y,z

loop_
	_atom_site_label
	_atom_site_type_symbol
	_atom_site_fract_x
	_atom_site_fract_y
	_atom_site_fract_z
	H0	H	0.404784	0.827098	0.713155
	H1	H	0.608058	0.150970	0.716316
	H2	H	0.607229	0.827527	0.279823
	H3	H	0.402273	0.149980	0.276994
	H4	H	0.723464	0.381572	0.837091
	H5	H	0.722515	0.593525	0.157031
	H6	H	0.284168	0.589160	0.834707
	H7	H	0.286833	0.387568	0.159290
	H8	H	0.845396	0.711588	0.391531
	H9	H	0.165179	0.706490	0.599674
	H10	H	0.843752	0.270469	0.599751
	H11	H	0.164839	0.271779	0.393320
	H12	H	0.842678	0.383616	0.716161
	H13	H	0.163577	0.591234	0.716922
	H14	H	0.845663	0.596434	0.275812
	H15	H	0.166161	0.389430	0.280487
	H16	H	0.398463	0.706421	0.834927
	H17	H	0.604129	0.705396	0.158475
	H18	H	0.604820	0.269783	0.835531
	H19	H	0.398712	0.270019	0.158406
	H20	H	0.728266	0.830411	0.389546
	H21	H	0.723661	0.151782	0.598598
	H22	H	0.285572	0.829349	0.601664
	H23	H	0.286738	0.151340	0.394381
	H24	H	0.900882	0.328953	0.218057
	H25	H	0.106940	0.650396	0.212824
	H26	H	0.102921	0.326607	0.778594
	H27	H	0.898152	0.649659	0.777418
	H28	H	0.221771	0.891310	0.334826
	H29	H	0.222600	0.094065	0.659392
	H30	H	0.785923	0.095574	0.334978
	H31	H	0.785812	0.886063	0.656597
	H32	H	0.341667	0.204580	0.894090
	H33	H	0.661663	0.209739	0.103427
	H34	H	0.342400	0.769731	0.099966
	H35	H	0.662649	0.766479	0.892546
	H36	H	0.344249	0.884988	0.217044
	H37	H	0.664085	0.092179	0.215944
	H38	H	0.343179	0.090176	0.778226
	H39	H	0.665643	0.885312	0.779515
	H40	H	0.902659	0.208636	0.334768
	H41	H	0.105480	0.208289	0.659135
	H42	H	0.108771	0.773130	0.334642
	H43	H	0.902212	0.772038	0.657654
	H44	H	0.220550	0.326054	0.893130
	H45	H	0.221523	0.649040	0.098482
	H46	H	0.781668	0.328514	0.105064
	H47	H	0.780565	0.648705	0.891918
	H48	H	0.416211	0.105384	0.592341
	H49	H	0.604915	0.872782	0.586775
	H50	H	0.598452	0.103351	0.411637
	H51	H	0.416071	0.875367	0.406327
	H52	H	0.591212	0.396007	0.112614
	H53	H	0.585502	0.570034	0.885853
	H54	H	0.415788	0.573429	0.108970
	H55	H	0.418305	0.401544	0.884475
	H56	H	0.117704	0.576032	0.408158
	H57	H	0.892033	0.573948	0.582505
	H58	H	0.119064	0.395355	0.584547
	H59	H	0.888534	0.399133	0.405783
	H60	H	0.114863	0.404297	0.583475
	H61	H	0.886399	0.582235	0.593781
	H62	H	0.121670	0.580748	0.398093
	H63	H	0.889238	0.400439	0.408269
	H64	H	0.414417	0.586024	0.113825
	H65	H	0.587977	0.582858	0.881266
	H66	H	0.594421	0.400435	0.112867
	H67	H	0.411974	0.385525	0.877239
	H68	H	0.596492	0.106233	0.401296
	H69	H	0.590591	0.875008	0.592965
	H70	H	0.416020	0.102958	0.583472
	H71	H	0.413467	0.874666	0.410960
	H72	H	0.911757	0.601147	0.077538
	H73	H	0.099389	0.370688	0.091284
	H74	H	0.092838	0.603164	0.907200
	H75	H	0.906123	0.372306	0.907695
	H76	H	0.099497	0.899395	0.613572
	H77	H	0.096157	0.084572	0.380573
	H78	H	0.912579	0.083063	0.613563
	H79	H	0.912525	0.905391	0.380764
	H80	H	0.619616	0.080649	0.906396
	H81	H	0.391384	0.070964	0.084522
	H82	H	0.619106	0.897959	0.090182
	H83	H	0.388571	0.902227	0.898057
	H84	H	0.619227	0.893704	0.086280
	H85	H	0.386501	0.078899	0.095386
	H86	H	0.618470	0.079472	0.909530
	H87	H	0.386907	0.889665	0.905159
	H88	H	0.912685	0.077226	0.611415
	H89	H	0.098485	0.079604	0.380896
	H90	H	0.094196	0.902006	0.611857
	H91	H	0.921806	0.904654	0.383899
	H92	H	0.094635	0.602549	0.907337
	H93	H	0.090705	0.372727	0.092122
	H94	H	0.906496	0.605789	0.088219
	H95	H	0.916737	0.373249	0.901246
	H96	H	0.409020	0.107019	0.587490
	H97	H	0.593800	0.878902	0.577975
	H98	H	0.588165	0.101623	0.407593
	H99	H	0.411727	0.873346	0.406544
	H100	H	0.588990	0.400808	0.110018
	H101	H	0.598173	0.573006	0.879975
	H102	H	0.404083	0.577350	0.114252
	H103	H	0.401452	0.400311	0.878925
	H104	H	0.121534	0.587200	0.408337
	H105	H	0.889410	0.587558	0.580018
	H106	H	0.119118	0.401752	0.591892
	H107	H	0.890500	0.401773	0.405674
	H108	H	0.918869	0.602124	0.088064
	H109	H	0.095342	0.374174	0.083980
	H110	H	0.094321	0.603494	0.906356
	H111	H	0.916001	0.377353	0.913866
	H112	H	0.094402	0.896335	0.613514
	H113	H	0.093240	0.080328	0.382834
	H114	H	0.917304	0.081153	0.611001
	H115	H	0.917908	0.896760	0.380176
	H116	H	0.617503	0.077524	0.906385
	H117	H	0.388301	0.084402	0.082530
	H118	H	0.616034	0.898927	0.084982
	H119	H	0.392176	0.901891	0.912531
	C120	C	0.383386	-0.001456	0.618638
	C121	C	0.627604	0.981611	0.617945
	C122	C	0.626894	-0.001972	0.374900
	C123	C	0.383152	0.980950	0.375905
	C124	C	0.623295	0.366668	0.005857
	C125	C	0.622905	0.607995	0.988325
	C126	C	0.380323	0.609611	0.005541
	C127	C	0.380559	0.365988	0.987735
	C128	C	0.014349	0.613025	0.373540
	C129	C	0.995326	0.611421	0.617668
	C130	C	0.011604	0.368519	0.617685
	C131	C	0.995657	0.369377	0.375327
	C132	C	0.881340	0.497172	0.118398
	C133	C	0.125415	0.479518	0.118581
	C134	C	0.123946	0.496579	0.875362
	C135	C	0.880529	0.479879	0.875312
	C136	C	0.126757	0.868885	0.505944
	C137	C	0.126247	0.112205	0.488766
	C138	C	0.883555	0.112000	0.505082
	C139	C	0.885086	0.869837	0.487603
	C140	C	0.512398	0.109929	0.875684
	C141	C	0.494987	0.109353	0.118764
	C142	C	0.512104	0.866338	0.118380
	C143	C	0.495103	0.866368	0.874577
	C144	C	0.384397	0.876194	0.675643
	C145	C	0.627662	0.102640	0.676877
	C146	C	0.627435	0.876468	0.317384
	C147	C	0.382865	0.101967	0.316636
	C148	C	0.683143	0.364049	0.885005
	C149	C	0.682327	0.610708	0.108986
	C150	C	0.323004	0.608988	0.883250
	C151	C	0.324314	0.367464	0.110409
	C152	C	0.893570	0.672088	0.372571
	C153	C	0.116608	0.668247	0.618799
	C154	C	0.891457	0.309455	0.618526
	C155	C	0.116666	0.310777	0.374634
	C156	C	0.890835	0.366147	0.676384
	C157	C	0.115565	0.611170	0.677540
	C158	C	0.893603	0.614660	0.315114
	C159	C	0.117220	0.369393	0.318261
	C160	C	0.379485	0.667579	0.883555
	C161	C	0.623451	0.666785	0.109625
	C162	C	0.623958	0.308306	0.884283
	C163	C	0.380372	0.309246	0.110027
	C164	C	0.687223	0.877777	0.372675
	C165	C	0.685290	0.103129	0.618444
	C166	C	0.325032	0.877429	0.620218
	C167	C	0.325463	0.102690	0.375165
	C168	C	0.881327	0.376961	0.178716
	C169	C	0.125556	0.601590	0.174810
	C170	C	0.122850	0.375111	0.817204
	C171	C	0.879096	0.601353	0.816690
	C172	C	0.183707	0.870676	0.383325
	C173	C	0.183649	0.112917	0.610652
	C174	C	0.825355	0.113463	0.383402
	C175	C	0.825363	0.867530	0.608462
	C176	C	0.390443	0.166565	0.875185
	C177	C	0.614567	0.169215	0.120792
	C178	C	0.391103	0.808384	0.119493
	C179	C	0.615493	0.806526	0.873772
	C180	C	0.391763	0.865639	0.177702
	C181	C	0.615611	0.110593	0.177162
	C182	C	0.391210	0.109583	0.817412
	C183	C	0.616928	0.865878	0.817754
	C184	C	0.883501	0.169854	0.383169
	C185	C	0.125323	0.169875	0.610539
	C186	C	0.127677	0.811844	0.383523
	C187	C	0.883424	0.810708	0.608941
	C188	C	0.181454	0.374821	0.874304
	C189	C	0.182962	0.600891	0.117911
	C190	C	0.821961	0.376798	0.122184
	C191	C	0.820743	0.600811	0.873641
	C192	C	0.406923	0.083162	0.594788
	C193	C	0.603458	0.897480	0.593254
	C194	C	0.601681	0.082077	0.399630
	C195	C	0.406881	0.896491	0.400723
	C196	C	0.598613	0.391708	0.089920
	C197	C	0.597787	0.582667	0.903963
	C198	C	0.404325	0.585777	0.090261
	C199	C	0.403882	0.388925	0.902413
	C200	C	0.098307	0.588520	0.397815
	C201	C	0.911057	0.587832	0.592714
	C202	C	0.095771	0.393264	0.593486
	C203	C	0.911276	0.393419	0.399619
	C204	C	0.905446	0.581360	0.092222
	C205	C	0.101901	0.394488	0.095683
	C206	C	0.100493	0.581202	0.899883
	C207	C	0.905491	0.396011	0.900283
	C208	C	0.102880	0.892381	0.590747
	C209	C	0.102866	0.088383	0.403675
	C210	C	0.907142	0.087670	0.590011
	C211	C	0.910124	0.894985	0.403558
	C212	C	0.596441	0.086236	0.900205
	C213	C	0.410739	0.084875	0.094518
	C214	C	0.596315	0.889959	0.094038
	C215	C	0.411170	0.890797	0.898122
	Zn216	Zn	0.505188	-0.011039	0.746543
	Zn217	Zn	0.504557	-0.012005	0.247010
	Zn218	Zn	0.752122	0.487772	-0.003295
	Zn219	Zn	0.252837	0.487357	-0.003078
	Zn220	Zn	0.005361	0.740460	0.496017
	Zn221	Zn	0.004258	0.240466	0.496777
	Zn222	Zn	0.001857	0.489057	0.746374
	Zn223	Zn	0.004763	0.490134	0.246549
	Zn224	Zn	0.502629	0.737243	-0.003614
	Zn225	Zn	0.501849	0.238296	-0.002469
	Zn226	Zn	0.755963	-0.009516	0.495640
	Zn227	Zn	0.254517	-0.009646	0.498008
	N228	N	0.420215	0.952457	0.674728
	N229	N	0.592688	0.026003	0.676874
	N230	N	0.590395	0.952310	0.318720
	N231	N	0.418091	0.025315	0.317220
	N232	N	0.683091	0.399506	0.961656
	N233	N	0.681899	0.574837	0.032496
	N234	N	0.323495	0.573770	0.960023
	N235	N	0.324171	0.401953	0.033303
	N236	N	0.969701	0.671376	0.408046
	N237	N	0.040720	0.668454	0.582370
	N238	N	0.967605	0.311011	0.582767
	N239	N	0.040015	0.310567	0.409428
	N240	N	0.966576	0.402337	0.675907
	N241	N	0.038964	0.576678	0.676986
	N242	N	0.969658	0.578537	0.315638
	N243	N	0.040915	0.404874	0.318572
	N244	N	0.414529	0.668168	0.960544
	N245	N	0.587125	0.664999	0.033443
	N246	N	0.587540	0.309716	0.960522
	N247	N	0.414526	0.308105	0.032733
	N248	N	0.687122	0.954400	0.407483
	N249	N	0.685299	0.026936	0.582476
	N250	N	0.324191	0.954407	0.585635
	N251	N	0.325706	0.026475	0.411419
	N252	N	0.917666	0.452915	0.176506
	N253	N	0.090315	0.525114	0.175160
	N254	N	0.087731	0.451892	0.817854
	N255	N	0.915624	0.525324	0.817627
	N256	N	0.183562	0.905158	0.460474
	N257	N	0.184242	0.077931	0.533857
	N258	N	0.825560	0.077977	0.460164
	N259	N	0.826114	0.903581	0.532052
	N260	N	0.466886	0.167104	0.910590
	N261	N	0.538425	0.168656	0.085396
	N262	N	0.466976	0.808568	0.083157
	N263	N	0.538955	0.806475	0.908311
	N264	N	0.467951	0.900804	0.177116
	N265	N	0.540138	0.073699	0.175659
	N266	N	0.467955	0.074956	0.817330
	N267	N	0.541016	0.902262	0.818002
	N268	N	0.918822	0.169264	0.459923
	N269	N	0.090147	0.169576	0.533613
	N270	N	0.093209	0.810305	0.460661
	N271	N	0.920022	0.812182	0.532775
	N272	N	0.182496	0.451373	0.909540
	N273	N	0.182847	0.523958	0.083489
	N274	N	0.822142	0.452558	0.085251
	N275	N	0.821413	0.524244	0.909232
	O276	O	0.610100	0.455998	0.433204
	H277	H	0.622647	0.453604	0.414577
	H278	H	0.622439	0.474402	0.439044
	O279	O	0.512511	0.594930	0.457339
	H280	H	0.498075	0.601714	0.447104
	H281	H	0.509073	0.582511	0.444288
	O282	O	1.177316	0.170961	1.085085
	H283	H	1.172181	0.175569	1.094053
	H284	H	1.182775	0.187707	1.095006
	O285	O	0.555545	0.449594	0.544461
	H286	H	0.554188	0.463112	0.553769
	H287	H	0.565496	0.452331	0.556715
	O288	O	0.895703	0.801243	1.096043
	H289	H	0.892922	0.819031	1.078605
	H290	H	0.904791	0.776169	1.113107
	O291	O	-0.006142	0.888062	-0.126447
	H292	H	-0.006043	0.888381	-0.130419
	H293	H	0.009087	0.878287	-0.124295
	O294	O	0.370283	0.403573	0.529311
	H295	H	0.366460	0.411591	0.522291
	H296	H	0.372190	0.397366	0.525751
	O297	O	0.948605	0.827365	0.977224
	H298	H	0.947474	0.805679	0.974726
	H299	H	0.950360	0.830081	0.977220
	O300	O	0.600170	0.404598	0.326219
	H301	H	0.593060	0.383811	0.331750
	H302	H	0.606479	0.399735	0.319397
	O303	O	0.599489	0.486107	0.423670
	H304	H	0.589190	0.481384	0.440139
	H305	H	0.585588	0.480604	0.417147
	O306	O	0.627566	0.535123	0.407078
	H307	H	0.641029	0.534641	0.398033
	H308	H	0.624646	0.546927	0.406266
	O309	O	0.564645	0.650081	0.587046
	H310	H	0.561356	0.654569	0.590615
	H311	H	0.564488	0.654409	0.615564
	O312	O	-0.004603	-0.053301	0.077408
	H313	H	-0.019922	-0.049646	0.070919
	H314	H	-0.013921	-0.066509	0.084263
	O315	O	0.423116	0.364420	0.477991
	H316	H	0.434219	0.369553	0.473641
	H317	H	0.426105	0.362907	0.479679
	O318	O	-0.118046	1.044009	0.854929
	H319	H	-0.103274	1.031293	0.848959
	H320	H	-0.107075	1.035580	0.853704
	O321	O	0.415621	0.466445	0.481643
	H322	H	0.417268	0.458677	0.477295
	H323	H	0.417738	0.478697	0.469840
	O324	O	-0.564935	1.480158	-0.422022
	H325	H	-0.565733	1.480492	-0.433215
	H326	H	-0.574509	1.487182	-0.423374
	O327	O	0.445657	0.608146	0.514839
	H328	H	0.441749	0.612030	0.519604
	H329	H	0.441129	0.605156	0.524891
	O330	O	-0.027091	0.006686	1.067831
	H331	H	-0.032080	0.018778	1.056075
	H332	H	-0.032102	-0.004948	1.056765
	O333	O	-0.193219	0.210084	1.276293
	H334	H	-0.198408	0.202810	1.288366
	H335	H	-0.194125	0.204223	1.272093
	O336	O	0.435215	0.569656	0.333262
	H337	H	0.428034	0.556330	0.328015
	H338	H	0.448799	0.561343	0.331551
	O339	O	1.102633	0.116754	-0.004098
	H340	H	1.079138	0.111369	0.019535
	H341	H	1.121473	0.123958	0.018631
	O342	O	0.114370	-0.140200	-0.050328
	H343	H	0.126850	-0.133326	-0.046830
	H344	H	0.129274	-0.143172	-0.050939
	O345	O	0.810875	-0.156952	1.098773
	H346	H	0.800094	-0.166412	1.094109
	H347	H	0.812380	-0.158451	1.096936
	O348	O	1.107636	0.962492	-0.110375
	H349	H	1.121093	0.969727	-0.116387
	H350	H	1.084205	0.975969	-0.107422
	O351	O	0.412729	0.342407	0.624765
	H352	H	0.422552	0.341588	0.622225
	H353	H	0.410054	0.348785	0.618899
	O354	O	0.862212	0.057512	1.005975
	H355	H	0.858137	0.044747	1.012720
	H356	H	0.861446	0.064967	0.990651
	O357	O	0.000604	0.152791	0.991473
	H358	H	-0.017336	0.154665	0.995494
	H359	H	-0.009213	0.147515	1.001995
	O360	O	0.522990	0.279455	0.605154
	H361	H	0.522923	0.268658	0.614415
	H362	H	0.539119	0.283962	0.626435
	O363	O	0.163548	1.062303	1.158958
	H364	H	0.157132	1.060739	1.154884
	H365	H	0.155963	1.059781	1.177105
	O366	O	0.570978	0.488022	0.431662
	H367	H	0.580633	0.485057	0.426851
	H368	H	0.574183	0.481273	0.421218
	O369	O	-0.541017	0.623944	0.532445
	H370	H	-0.556103	0.609245	0.536765
	H371	H	-0.544885	0.630332	0.532021
	O372	O	0.613463	0.495182	0.566806
	H373	H	0.611705	0.487993	0.566781
	H374	H	0.628789	0.509266	0.571322
	O375	O	0.676254	0.588505	0.675998
	H376	H	0.663636	0.618151	0.667327
	H377	H	0.686715	0.575405	0.684882
	O378	O	0.875819	1.131766	-0.092801
	H379	H	0.870334	1.139028	-0.115692
	H380	H	0.856783	1.146394	-0.094032
	O381	O	0.910866	0.103592	-0.122275
	H382	H	0.925087	0.104893	-0.129327
	H383	H	0.919947	0.113355	-0.129676
	O384	O	1.071816	1.160332	0.157459
	H385	H	1.063102	1.150991	0.171350
	H386	H	1.054837	1.156098	0.164369
	O387	O	-0.032263	-0.091777	-0.101394
	H388	H	-0.016628	-0.091654	-0.103520
	H389	H	-0.033813	-0.078655	-0.107625
	O390	O	0.185297	1.008493	-0.031604
	H391	H	0.189632	1.023640	-0.015773
	H392	H	0.188092	1.022967	-0.043007
	O393	O	0.957381	0.965184	0.923114
	H394	H	0.976660	0.949754	0.904402
	H395	H	0.962137	0.969662	0.903955
	O396	O	0.599897	0.589144	0.524585
	H397	H	0.606741	0.598512	0.515879
	H398	H	0.582745	0.598605	0.526220
	O399	O	-0.026395	0.910166	1.179201
	H400	H	-0.021874	0.907894	1.186237
	H401	H	-0.044346	0.914896	1.165501
	O402	O	0.394765	0.539502	0.364897
	H403	H	0.398191	0.531945	0.362332
	H404	H	0.397338	0.532880	0.373974
	O405	O	0.977260	0.954855	0.097388
	H406	H	0.969266	0.952943	0.119844
	H407	H	0.979657	0.955177	0.085335
	O408	O	0.926727	0.939218	-0.097646
	H409	H	0.929572	0.934382	-0.115804
	H410	H	0.927664	0.946462	-0.091860
	O411	O	1.172823	-0.176532	0.891908
	H412	H	1.179036	-0.172795	0.892376
	H413	H	1.174955	-0.172412	0.903203
	O414	O	0.383410	0.461979	0.604095
	H415	H	0.379011	0.459807	0.612394
	H416	H	0.377354	0.450229	0.595678
	O417	O	0.501284	0.463493	0.397093
	H418	H	0.498628	0.471727	0.401416
	H419	H	0.511736	0.458201	0.401436
