data_Molecule from HDF5

_cell_length_a		16.268066
_cell_length_b		16.599034
_cell_length_c		16.267543
_cell_angle_alpha	89.955662
_cell_angle_beta	89.800940
_cell_angle_gamma	89.991998
_symmetry_space_group_name_H-M	'P 1'
_symmetry_Int_Tables_number		1

loop_
	_symmetry_equiv_pos_as_xyz
	x,y,z

loop_
	_atom_site_label
	_atom_site_type_symbol
	_atom_site_fract_x
	_atom_site_fract_y
	_atom_site_fract_z
	H0	H	0.384968	0.838765	0.717071
	H1	H	0.594896	0.154541	0.718796
	H2	H	0.595533	0.840377	0.272088
	H3	H	0.381587	0.154308	0.271012
	H4	H	0.706289	0.395531	0.832630
	H5	H	0.703785	0.595707	0.156811
	H6	H	0.270296	0.600656	0.833632
	H7	H	0.266244	0.392407	0.154063
	H8	H	0.829844	0.718026	0.389714
	H9	H	0.147750	0.720020	0.603035
	H10	H	0.829248	0.274487	0.604143
	H11	H	0.146288	0.272747	0.384407
	H12	H	0.826084	0.396707	0.712614
	H13	H	0.150238	0.599337	0.713628
	H14	H	0.825654	0.595985	0.281003
	H15	H	0.147637	0.391414	0.271913
	H16	H	0.379847	0.720805	0.836590
	H17	H	0.597427	0.719593	0.153726
	H18	H	0.597668	0.273542	0.836398
	H19	H	0.376563	0.272827	0.153056
	H20	H	0.708916	0.839139	0.392386
	H21	H	0.712292	0.153977	0.602234
	H22	H	0.269231	0.837803	0.598345
	H23	H	0.263618	0.153180	0.386319
	H24	H	0.882805	0.338844	0.217569
	H25	H	0.093415	0.654556	0.216752
	H26	H	0.096230	0.339946	0.769925
	H27	H	0.887835	0.655750	0.776507
	H28	H	0.210912	0.892135	0.334989
	H29	H	0.206094	0.099469	0.656404
	H30	H	0.769320	0.100122	0.334187
	H31	H	0.771580	0.895469	0.656405
	H32	H	0.330153	0.219499	0.887776
	H33	H	0.645732	0.221819	0.105097
	H34	H	0.330349	0.772190	0.105902
	H35	H	0.646388	0.775608	0.888250
	H36	H	0.328201	0.892627	0.216825
	H37	H	0.649469	0.099283	0.212554
	H38	H	0.327485	0.101358	0.777217
	H39	H	0.648109	0.895248	0.777197
	H40	H	0.878534	0.221367	0.337131
	H41	H	0.096588	0.220275	0.653497
	H42	H	0.100966	0.772868	0.336769
	H43	H	0.884871	0.776800	0.654926
	H44	H	0.214079	0.340636	0.885298
	H45	H	0.210137	0.655029	0.099362
	H46	H	0.766924	0.338270	0.099409
	H47	H	0.768636	0.654767	0.892304
	H48	H	0.401456	0.109264	0.588976
	H49	H	0.585700	0.882698	0.587139
	H50	H	0.574280	0.105511	0.413783
	H51	H	0.412678	0.890069	0.407814
	H52	H	0.575053	0.402902	0.110592
	H53	H	0.579371	0.584782	0.880349
	H54	H	0.392471	0.583361	0.111468
	H55	H	0.401783	0.407992	0.880606
	H56	H	0.106376	0.593603	0.405769
	H57	H	0.874674	0.590018	0.580037
	H58	H	0.102115	0.404711	0.579634
	H59	H	0.869996	0.401287	0.403295
	H60	H	0.100733	0.409717	0.578702
	H61	H	0.875467	0.584323	0.583208
	H62	H	0.100947	0.583405	0.412019
	H63	H	0.877004	0.406030	0.417780
	H64	H	0.406471	0.578082	0.104425
	H65	H	0.572753	0.588426	0.880910
	H66	H	0.579670	0.408785	0.109468
	H67	H	0.404601	0.409106	0.881953
	H68	H	0.587321	0.111734	0.404402
	H69	H	0.574095	0.884660	0.591874
	H70	H	0.397187	0.108136	0.581751
	H71	H	0.393041	0.887670	0.416752
	H72	H	0.901000	0.606293	0.080417
	H73	H	0.072716	0.388481	0.079940
	H74	H	0.082846	0.610160	0.902560
	H75	H	0.903289	0.385125	0.902971
	H76	H	0.071803	0.896204	0.611073
	H77	H	0.075645	0.088310	0.380357
	H78	H	0.892637	0.083952	0.611229
	H79	H	0.902659	0.903651	0.379718
	H80	H	0.605634	0.085505	0.899160
	H81	H	0.375102	0.085609	0.080291
	H82	H	0.600557	0.909108	0.077859
	H83	H	0.375271	0.908490	0.913663
	H84	H	0.604090	0.908781	0.086131
	H85	H	0.373403	0.084833	0.083606
	H86	H	0.603632	0.094838	0.913989
	H87	H	0.372474	0.910537	0.905198
	H88	H	0.907782	0.079577	0.604824
	H89	H	0.076336	0.083660	0.381250
	H90	H	0.086177	0.908344	0.612556
	H91	H	0.898118	0.905812	0.378473
	H92	H	0.075301	0.608195	0.901041
	H93	H	0.079712	0.386092	0.079840
	H94	H	0.888292	0.611127	0.084936
	H95	H	0.896321	0.384711	0.909009
	H96	H	0.393588	0.111586	0.588754
	H97	H	0.576751	0.888035	0.579552
	H98	H	0.571639	0.109630	0.397699
	H99	H	0.396751	0.881674	0.396575
	H100	H	0.572311	0.409137	0.107244
	H101	H	0.578567	0.591657	0.878106
	H102	H	0.405464	0.593727	0.110789
	H103	H	0.404659	0.405738	0.881120
	H104	H	0.104610	0.582478	0.399404
	H105	H	0.872725	0.589118	0.586525
	H106	H	0.102897	0.408780	0.583442
	H107	H	0.876346	0.416464	0.405232
	H108	H	0.899002	0.610720	0.094569
	H109	H	0.075553	0.385159	0.085464
	H110	H	0.078571	0.607531	0.907985
	H111	H	0.895332	0.382314	0.900636
	H112	H	0.069825	0.913462	0.604975
	H113	H	0.072261	0.086049	0.382617
	H114	H	0.905229	0.095185	0.610628
	H115	H	0.901678	0.908588	0.380734
	H116	H	0.598430	0.078570	0.913267
	H117	H	0.373501	0.088436	0.082206
	H118	H	0.603377	0.901913	0.080872
	H119	H	0.371263	0.902362	0.908286
	C120	C	0.366062	0.005027	0.618005
	C121	C	0.611060	0.989134	0.618241
	C122	C	0.610899	0.005498	0.372844
	C123	C	0.366869	0.989433	0.373426
	C124	C	0.609134	0.374873	0.003578
	C125	C	0.609209	0.618523	0.985764
	C126	C	0.368486	0.617800	0.003053
	C127	C	0.368240	0.375330	0.986141
	C128	C	-0.002363	0.617863	0.374350
	C129	C	0.980674	0.618279	0.615248
	C130	C	-0.003587	0.376103	0.614977
	C131	C	0.979304	0.374981	0.373831
	C132	C	0.864995	0.504912	0.117971
	C133	C	0.109505	0.489551	0.115318
	C134	C	0.111791	0.504997	0.870912
	C135	C	0.867148	0.488728	0.873447
	C136	C	0.109999	0.874529	0.503736
	C137	C	0.108578	0.118241	0.486575
	C138	C	0.867616	0.118794	0.503690
	C139	C	0.868882	0.875461	0.486036
	C140	C	0.497211	0.118502	0.875339
	C141	C	0.479431	0.118507	0.115375
	C142	C	0.497180	0.874619	0.116200
	C143	C	0.478714	0.875962	0.875642
	C144	C	0.366037	0.885946	0.676871
	C145	C	0.613258	0.107252	0.678497
	C146	C	0.613668	0.887352	0.312657
	C147	C	0.363391	0.106954	0.311327
	C148	C	0.668390	0.375001	0.881901
	C149	C	0.666624	0.617108	0.107840
	C150	C	0.309212	0.619360	0.882163
	C151	C	0.306376	0.373759	0.106256
	C152	C	0.877189	0.677308	0.371931
	C153	C	0.100626	0.678704	0.619384
	C154	C	0.876348	0.315725	0.619894
	C155	C	0.098972	0.313856	0.368166
	C156	C	0.875152	0.376011	0.674511
	C157	C	0.101603	0.618836	0.674596
	C158	C	0.875257	0.616936	0.317576
	C159	C	0.099438	0.372692	0.311857
	C160	C	0.363716	0.679587	0.883929
	C161	C	0.613333	0.678427	0.106072
	C162	C	0.614161	0.314291	0.883657
	C163	C	0.361623	0.314180	0.105625
	C164	C	0.670366	0.886795	0.372196
	C165	C	0.671835	0.107078	0.620313
	C166	C	0.308131	0.885481	0.618044
	C167	C	0.304703	0.106602	0.369287
	C168	C	0.864209	0.385961	0.177241
	C169	C	0.112105	0.607395	0.176350
	C170	C	0.114542	0.387214	0.810038
	C171	C	0.867702	0.608280	0.815665
	C172	C	0.170868	0.873537	0.383177
	C173	C	0.167984	0.119155	0.607589
	C174	C	0.808124	0.119776	0.382821
	C175	C	0.810406	0.875688	0.607876
	C176	C	0.377388	0.178918	0.871063
	C177	C	0.598620	0.180238	0.120781
	C178	C	0.377537	0.813667	0.121744
	C179	C	0.598874	0.816290	0.871369
	C180	C	0.376514	0.873534	0.177147
	C181	C	0.600508	0.119125	0.174363
	C182	C	0.376283	0.119882	0.816123
	C183	C	0.599693	0.875692	0.816042
	C184	C	0.862884	0.179824	0.384097
	C185	C	0.113131	0.179322	0.606137
	C186	C	0.116265	0.813773	0.384152
	C187	C	0.866860	0.816902	0.607116
	C188	C	0.173254	0.387437	0.867777
	C189	C	0.170473	0.607497	0.117938
	C190	C	0.806227	0.385875	0.118606
	C191	C	0.808639	0.607726	0.873236
	C192	C	0.390139	0.088008	0.593543
	C193	C	0.585938	0.906624	0.593219
	C194	C	0.585135	0.087555	0.397967
	C195	C	0.393257	0.907653	0.399587
	C196	C	0.583094	0.399574	0.087186
	C197	C	0.584163	0.595089	0.901802
	C198	C	0.394064	0.592285	0.086845
	C199	C	0.395736	0.400380	0.902935
	C200	C	0.081838	0.593751	0.398759
	C201	C	0.896333	0.594658	0.590359
	C202	C	0.080214	0.400771	0.588327
	C203	C	0.896047	0.400407	0.400993
	C204	C	0.889230	0.587772	0.093691
	C205	C	0.083571	0.407832	0.089245
	C206	C	0.086277	0.587309	0.896568
	C207	C	0.891114	0.405634	0.897317
	C208	C	0.083663	0.898934	0.587744
	C209	C	0.082584	0.093154	0.403139
	C210	C	0.894165	0.093591	0.586920
	C211	C	0.893756	0.899139	0.401589
	C212	C	0.580861	0.093465	0.901346
	C213	C	0.395874	0.093577	0.089579
	C214	C	0.580830	0.899608	0.089542
	C215	C	0.394739	0.899937	0.901586
	Zn216	Zn	0.487853	-0.002236	0.747848
	Zn217	Zn	0.488586	-0.003119	0.243377
	Zn218	Zn	0.736434	0.496757	-0.005443
	Zn219	Zn	0.240454	0.496668	-0.005958
	Zn220	Zn	-0.010287	0.746787	0.494365
	Zn221	Zn	-0.011753	0.247353	0.495312
	Zn222	Zn	-0.011836	0.497155	0.742879
	Zn223	Zn	-0.012059	0.496983	0.246273
	Zn224	Zn	0.488112	0.746276	-0.004296
	Zn225	Zn	0.488438	0.246943	-0.005483
	Zn226	Zn	0.740445	-0.002632	0.495149
	Zn227	Zn	0.236405	-0.003380	0.495472
	N228	N	0.400793	0.961434	0.677245
	N229	N	0.576220	0.032824	0.677403
	N230	N	0.577566	0.962151	0.312580
	N231	N	0.401383	0.033041	0.313863
	N232	N	0.665557	0.411836	0.957523
	N233	N	0.664325	0.580599	0.032202
	N234	N	0.311938	0.581618	0.957315
	N235	N	0.310190	0.411009	0.030958
	N236	N	0.954446	0.678483	0.405748
	N237	N	0.024619	0.678196	0.582729
	N238	N	0.952937	0.315553	0.583713
	N239	N	0.023098	0.315003	0.405772
	N240	N	0.950831	0.412560	0.671720
	N241	N	0.026294	0.581644	0.671733
	N242	N	0.951310	0.580723	0.318824
	N243	N	0.024233	0.410094	0.315445
	N244	N	0.399566	0.678707	0.960318
	N245	N	0.578480	0.679607	0.029162
	N246	N	0.578166	0.314017	0.960254
	N247	N	0.399570	0.315257	0.029973
	N248	N	0.668642	0.961289	0.409017
	N249	N	0.670455	0.032669	0.583509
	N250	N	0.307926	0.960639	0.582292
	N251	N	0.306780	0.032547	0.407136
	N252	N	0.899916	0.460981	0.177016
	N253	N	0.075100	0.533024	0.175091
	N254	N	0.077030	0.461393	0.811946
	N255	N	0.903185	0.533144	0.815683
	N256	N	0.167030	0.910712	0.458583
	N257	N	0.165664	0.082042	0.532088
	N258	N	0.810980	0.082432	0.458084
	N259	N	0.811488	0.911603	0.531628
	N260	N	0.453690	0.178348	0.906905
	N261	N	0.522090	0.180124	0.085003
	N262	N	0.453585	0.814193	0.084976
	N263	N	0.522522	0.816280	0.907694
	N264	N	0.451984	0.910673	0.173909
	N265	N	0.525425	0.081497	0.171265
	N266	N	0.451808	0.082898	0.818615
	N267	N	0.523947	0.912107	0.818570
	N268	N	0.899071	0.179333	0.460352
	N269	N	0.077244	0.179180	0.529814
	N270	N	0.079029	0.814403	0.460128
	N271	N	0.902178	0.816426	0.530212
	N272	N	0.171800	0.461834	0.904670
	N273	N	0.168771	0.533190	0.080538
	N274	N	0.806529	0.460766	0.082432
	N275	N	0.808316	0.532448	0.908409
	O276	O	0.690805	0.321011	0.455421
	H277	H	0.693693	0.308444	0.435545
	H278	H	0.707788	0.314667	0.436231
	O279	O	0.504105	0.430322	0.640208
	H280	H	0.481251	0.421285	0.648887
	H281	H	0.500119	0.441629	0.630428
	O282	O	0.393218	0.319842	0.411390
	H283	H	0.410431	0.339485	0.422950
	H284	H	0.412126	0.316162	0.381242
	O285	O	0.949663	1.017228	0.204563
	H286	H	0.955259	1.007515	0.202719
	H287	H	0.944884	1.013890	0.208831
	O288	O	0.297103	0.480155	0.699471
	H289	H	0.302126	0.488544	0.694157
	H290	H	0.285530	0.474463	0.726663
	O291	O	0.664939	0.620897	0.538095
	H292	H	0.661993	0.609888	0.551020
	H293	H	0.658466	0.623673	0.544560
	O294	O	1.188394	0.825363	1.000059
	H295	H	1.206005	0.824931	1.008208
	H296	H	1.180258	0.837715	0.994652
	O297	O	0.278563	0.309015	0.506798
	H298	H	0.277546	0.303284	0.487387
	H299	H	0.273594	0.284499	0.496996
	O300	O	0.969445	0.204699	0.795958
	H301	H	0.981523	0.217615	0.780351
	H302	H	0.994247	0.214511	0.814278
	O303	O	0.589121	0.521685	0.397688
	H304	H	0.580899	0.526813	0.400473
	H305	H	0.585501	0.517598	0.417084
	O306	O	0.046197	0.055266	0.925068
	H307	H	0.032332	0.048774	0.914140
	H308	H	0.057443	0.052166	0.934198
	O309	O	1.159583	0.044329	-0.032083
	H310	H	1.145835	0.038340	-0.041335
	H311	H	1.151465	0.045737	-0.064010
	O312	O	0.366960	0.621789	0.498853
	H313	H	0.362708	0.623606	0.484525
	H314	H	0.354767	0.607844	0.514454
	O315	O	0.402173	0.525776	0.523262
	H316	H	0.410147	0.514080	0.540953
	H317	H	0.403489	0.510718	0.536768
	O318	O	-0.209225	-0.073162	0.063690
	H319	H	-0.214584	-0.077360	0.078705
	H320	H	-0.212928	-0.085995	0.064623
	O321	O	0.451622	0.286542	0.705655
	H322	H	0.447479	0.278051	0.721099
	H323	H	0.437213	0.283513	0.704500
	O324	O	1.019097	-0.157416	1.007681
	H325	H	1.034784	-0.169605	1.010153
	H326	H	1.021151	-0.149661	1.026034
	O327	O	0.509121	0.683607	0.522666
	H328	H	0.501772	0.684331	0.516975
	H329	H	0.521184	0.687615	0.517650
	O330	O	0.127711	0.929423	1.120587
	H331	H	0.141332	0.945880	1.110457
	H332	H	0.131325	0.926728	1.108707
	O333	O	-0.202814	0.855751	0.090960
	H334	H	-0.202171	0.878086	0.096452
	H335	H	-0.186082	0.854067	0.096418
	O336	O	0.829753	1.194403	0.048262
	H337	H	0.860993	1.196864	0.058863
	H338	H	0.820414	1.206490	0.049102
	O339	O	0.139090	1.017921	0.819968
	H340	H	0.145855	0.992667	0.808625
	H341	H	0.140623	0.999701	0.802337
	O342	O	0.620689	0.558351	0.416923
	H343	H	0.621960	0.550726	0.440268
	H344	H	0.605504	0.533877	0.422885
	O345	O	-0.216695	0.009120	0.795555
	H346	H	-0.216503	0.037966	0.804306
	H347	H	-0.235366	0.033092	0.773896
	O348	O	0.303709	0.627282	0.523347
	H349	H	0.329315	0.617548	0.531676
	H350	H	0.281205	0.635373	0.529254
	O351	O	0.969802	1.196105	0.107241
	H352	H	0.980209	1.204735	0.132100
	H353	H	1.005460	1.187973	0.087207
	O354	O	1.059336	1.007731	1.045602
	H355	H	1.059608	1.030215	1.046426
	H356	H	1.053878	1.025723	1.050906
	O357	O	0.046286	0.203193	-0.064956
	H358	H	0.051725	0.177363	-0.065796
	H359	H	0.056118	0.211160	-0.045135
	O360	O	0.314422	0.674902	0.324398
	H361	H	0.324962	0.680600	0.349121
	H362	H	0.318458	0.660151	0.334965
	O363	O	0.824363	-0.166281	-0.152586
	H364	H	0.839240	-0.159998	-0.155635
	H365	H	0.823653	-0.168327	-0.139999
	O366	O	0.188072	-0.109375	0.787232
	H367	H	0.174806	-0.124273	0.775333
	H368	H	0.195183	-0.138450	0.776848
	O369	O	1.044914	0.029900	1.154584
	H370	H	1.031083	0.008963	1.162803
	H371	H	1.046597	0.033813	1.157682
	O372	O	0.304759	0.310676	0.656376
	H373	H	0.298517	0.303688	0.621133
	H374	H	0.303122	0.322895	0.664417
	O375	O	0.673761	0.318167	1.373328
	H376	H	0.638539	0.311133	1.367336
	H377	H	0.681226	0.345572	1.371349
	O378	O	0.485074	0.704905	0.649875
	H379	H	0.499832	0.699511	0.655625
	H380	H	0.491318	0.709885	0.652658
	O381	O	-0.214156	1.133894	0.019488
	H382	H	-0.219777	1.140036	0.015301
	H383	H	-0.217068	1.140037	0.007880
	O384	O	0.574280	0.597949	0.320047
	H385	H	0.577731	0.600011	0.318679
	H386	H	0.586639	0.610359	0.341594
	O387	O	0.431396	0.505314	0.473275
	H388	H	0.422512	0.516982	0.464039
	H389	H	0.422092	0.501273	0.480630
	O390	O	0.810168	1.163848	-0.179704
	H391	H	0.829055	1.174525	-0.167573
	H392	H	0.829654	1.178872	-0.162697
	O393	O	1.180588	0.203228	1.082661
	H394	H	1.179193	0.175012	1.102152
	H395	H	1.199940	0.216405	1.075015
	O396	O	0.569345	0.478293	0.435089
	H397	H	0.577664	0.485166	0.434784
	H398	H	0.567044	0.473915	0.432217
	O399	O	0.842632	0.795578	0.057364
	H400	H	0.848717	0.798763	0.070939
	H401	H	0.837395	0.793833	0.071198
	O402	O	1.076280	0.808142	-0.135903
	H403	H	1.069117	0.804887	-0.099618
	H404	H	1.045874	0.801095	-0.130706
	O405	O	0.597148	0.545223	0.686543
	H406	H	0.619585	0.553313	0.682934
	H407	H	0.594901	0.517590	0.683578
	O408	O	0.639656	0.497973	0.663211
	H409	H	0.627170	0.502416	0.672077
	H410	H	0.647690	0.496983	0.661604
	O411	O	1.150843	1.105116	1.166625
	H412	H	1.139689	1.077486	1.148987
	H413	H	1.143449	1.105344	1.182432
	O414	O	0.437517	0.436807	0.292561
	H415	H	0.441453	0.457170	0.299469
	H416	H	0.422900	0.437106	0.297085
	O417	O	-0.024582	0.797158	1.160334
	H418	H	-0.032476	0.782972	1.180050
	H419	H	-0.026061	0.788426	1.160973
	O420	O	-0.021338	0.942115	0.827387
	H421	H	-0.025529	0.953438	0.826254
	H422	H	-0.038458	0.938093	0.831798
	O423	O	-0.021271	0.886621	-0.091834
	H424	H	-0.020464	0.884404	-0.080578
	H425	H	-0.044534	0.888295	-0.082567
	O426	O	0.489888	0.708023	0.370273
	H427	H	0.468785	0.695146	0.387301
	H428	H	0.497635	0.718178	0.357237
	O429	O	0.533364	0.338573	0.463508
	H430	H	0.528553	0.348973	0.463603
	H431	H	0.551874	0.325297	0.462606
	O432	O	0.552551	0.280066	0.280681
	H433	H	0.555114	0.277735	0.260136
	H434	H	0.555104	0.289415	0.262587
	O435	O	0.284201	-0.482820	0.285650
	H436	H	0.273152	-0.489973	0.291913
	H437	H	0.277205	-0.463666	0.276067
	O438	O	-0.213090	0.905625	1.191538
	H439	H	-0.230058	0.906134	1.189040
	H440	H	-0.226833	0.916139	1.186036
	O441	O	0.654465	0.689525	0.695828
	H442	H	0.650453	0.695556	0.697759
	H443	H	0.677486	0.691190	0.710081
