data_Molecule from HDF5

_cell_length_a		16.336602
_cell_length_b		16.208016
_cell_length_c		16.218556
_cell_angle_alpha	89.839289
_cell_angle_beta	90.152358
_cell_angle_gamma	90.136222
_symmetry_space_group_name_H-M	'P 1'
_symmetry_Int_Tables_number		1

loop_
	_symmetry_equiv_pos_as_xyz
	x,y,z

loop_
	_atom_site_label
	_atom_site_type_symbol
	_atom_site_fract_x
	_atom_site_fract_y
	_atom_site_fract_z
	H0	H	0.404951	0.843796	0.718408
	H1	H	0.599660	0.173497	0.717364
	H2	H	0.598573	0.843402	0.294261
	H3	H	0.403751	0.172431	0.290423
	H4	H	0.716211	0.408538	0.840314
	H5	H	0.717660	0.606522	0.168146
	H6	H	0.286759	0.608906	0.840700
	H7	H	0.286614	0.407776	0.167895
	H8	H	0.838563	0.723134	0.406005
	H9	H	0.165656	0.722184	0.601166
	H10	H	0.839497	0.293284	0.603815
	H11	H	0.165826	0.295071	0.407843
	H12	H	0.838521	0.409978	0.718474
	H13	H	0.165051	0.608335	0.719508
	H14	H	0.838198	0.607353	0.289377
	H15	H	0.165219	0.410802	0.290445
	H16	H	0.405545	0.721706	0.840477
	H17	H	0.600600	0.720363	0.170014
	H18	H	0.597675	0.295895	0.840206
	H19	H	0.403302	0.293253	0.169056
	H20	H	0.717319	0.845091	0.406302
	H21	H	0.718038	0.171666	0.606357
	H22	H	0.286362	0.844761	0.606403
	H23	H	0.287174	0.172716	0.405328
	H24	H	0.904252	0.344009	0.218107
	H25	H	0.100791	0.673228	0.217252
	H26	H	0.098050	0.343930	0.792150
	H27	H	0.905390	0.672895	0.790804
	H28	H	0.215823	0.909997	0.342025
	H29	H	0.215934	0.106838	0.670139
	H30	H	0.785584	0.109545	0.342232
	H31	H	0.788134	0.908503	0.669938
	H32	H	0.338573	0.221204	0.906678
	H33	H	0.665107	0.224139	0.104057
	H34	H	0.338709	0.792570	0.103499
	H35	H	0.665847	0.796580	0.909675
	H36	H	0.338520	0.908507	0.219923
	H37	H	0.664877	0.107967	0.221401
	H38	H	0.338608	0.105642	0.790574
	H39	H	0.665032	0.911516	0.791792
	H40	H	0.903923	0.222516	0.341051
	H41	H	0.099442	0.221693	0.670415
	H42	H	0.097389	0.797812	0.340525
	H43	H	0.903958	0.793036	0.669380
	H44	H	0.215794	0.344582	0.904418
	H45	H	0.217873	0.672179	0.103730
	H46	H	0.786323	0.344443	0.104807
	H47	H	0.787387	0.671939	0.903720
	H48	H	0.405009	0.127319	0.598593
	H49	H	0.591983	0.893783	0.592080
	H50	H	0.591531	0.122772	0.418735
	H51	H	0.425556	0.896223	0.409558
	H52	H	0.594002	0.423391	0.118983
	H53	H	0.595163	0.609808	0.885308
	H54	H	0.411804	0.601420	0.120787
	H55	H	0.407050	0.418568	0.888376
	H56	H	0.119506	0.599913	0.402155
	H57	H	0.886070	0.588923	0.606606
	H58	H	0.117245	0.415617	0.595187
	H59	H	0.888794	0.417189	0.416945
	H60	H	0.118096	0.418550	0.601293
	H61	H	0.879933	0.614088	0.603428
	H62	H	0.120531	0.612296	0.411849
	H63	H	0.885907	0.419352	0.407423
	H64	H	0.405461	0.600400	0.122782
	H65	H	0.602354	0.599436	0.886013
	H66	H	0.588970	0.411641	0.121329
	H67	H	0.410183	0.413029	0.887047
	H68	H	0.599847	0.126781	0.414463
	H69	H	0.603029	0.889101	0.597825
	H70	H	0.410994	0.126426	0.599627
	H71	H	0.403575	0.895842	0.432217
	H72	H	0.908756	0.625606	0.096979
	H73	H	0.095204	0.392577	0.093169
	H74	H	0.094309	0.628203	0.902094
	H75	H	0.905210	0.391522	0.918150
	H76	H	0.078869	0.926901	0.615368
	H77	H	0.086955	0.109708	0.388689
	H78	H	0.905128	0.100286	0.623587
	H79	H	0.912647	0.916255	0.389652
	H80	H	0.623345	0.110601	0.903123
	H81	H	0.390692	0.091605	0.091928
	H82	H	0.616347	0.914782	0.094921
	H83	H	0.383768	0.908084	0.911524
	H84	H	0.617399	0.919341	0.103184
	H85	H	0.383912	0.098990	0.107619
	H86	H	0.615923	0.106539	0.922681
	H87	H	0.387275	0.917261	0.916823
	H88	H	0.910665	0.098797	0.621802
	H89	H	0.105390	0.104431	0.384373
	H90	H	0.092860	0.895106	0.628613
	H91	H	0.905035	0.914477	0.386666
	H92	H	0.087355	0.621740	0.916858
	H93	H	0.097163	0.389846	0.099702
	H94	H	0.909420	0.625653	0.096048
	H95	H	0.902641	0.388086	0.906818
	H96	H	0.408625	0.124469	0.594717
	H97	H	0.591991	0.889997	0.604304
	H98	H	0.591162	0.126165	0.408472
	H99	H	0.396630	0.884268	0.402826
	H100	H	0.601396	0.414232	0.123872
	H101	H	0.590380	0.598042	0.890173
	H102	H	0.409107	0.595834	0.120893
	H103	H	0.403670	0.414213	0.885498
	H104	H	0.115161	0.598878	0.416694
	H105	H	0.890040	0.600643	0.583287
	H106	H	0.120218	0.412474	0.600392
	H107	H	0.883844	0.409928	0.410532
	H108	H	0.907769	0.625526	0.095413
	H109	H	0.090110	0.392581	0.098732
	H110	H	0.104338	0.627198	0.917004
	H111	H	0.914850	0.391937	0.909367
	H112	H	0.113915	0.924483	0.626455
	H113	H	0.093731	0.091054	0.392556
	H114	H	0.910211	0.104594	0.623641
	H115	H	0.907181	0.921613	0.390059
	H116	H	0.616750	0.090229	0.908701
	H117	H	0.385328	0.110358	0.091804
	H118	H	0.620804	0.910547	0.102501
	H119	H	0.384451	0.917566	0.905543
	C120	C	0.380112	0.017290	0.627090
	C121	C	0.623564	0.999760	0.626831
	C122	C	0.623049	0.016963	0.384872
	C123	C	0.379819	1.000188	0.384447
	C124	C	0.622554	0.387961	0.012819
	C125	C	0.624209	0.630072	0.996003
	C126	C	0.380841	0.628578	0.012999
	C127	C	0.379194	0.385990	0.995658
	C128	C	0.010271	0.631663	0.381786
	C129	C	0.993378	0.630031	0.625794
	C130	C	0.010588	0.387008	0.626631
	C131	C	0.994008	0.387351	0.383439
	C132	C	0.880403	0.516960	0.125343
	C133	C	0.123104	0.500150	0.125725
	C134	C	0.123254	0.517182	0.883240
	C135	C	0.880185	0.499588	0.882562
	C136	C	0.123006	0.887392	0.514538
	C137	C	0.123369	0.129958	0.497369
	C138	C	0.880291	0.130280	0.514166
	C139	C	0.879720	0.887396	0.496991
	C140	C	0.510584	0.130461	0.882863
	C141	C	0.493794	0.129792	0.126485
	C142	C	0.510278	0.885892	0.128208
	C143	C	0.493311	0.886330	0.883255
	C144	C	0.383579	0.893181	0.681469
	C145	C	0.620248	0.123903	0.680713
	C146	C	0.619914	0.892904	0.330935
	C147	C	0.382996	0.123611	0.328564
	C148	C	0.677905	0.389025	0.889309
	C149	C	0.679523	0.627198	0.119528
	C150	C	0.325311	0.627858	0.889467
	C151	C	0.324547	0.387603	0.119169
	C152	C	0.887204	0.685664	0.385125
	C153	C	0.116755	0.684785	0.622700
	C154	C	0.887778	0.331575	0.624042
	C155	C	0.116980	0.332534	0.386431
	C156	C	0.887559	0.389638	0.681095
	C157	C	0.116338	0.628272	0.681257
	C158	C	0.887089	0.628015	0.327329
	C159	C	0.116693	0.390199	0.328381
	C160	C	0.384190	0.684185	0.889351
	C161	C	0.620959	0.683323	0.120526
	C162	C	0.619084	0.333135	0.889190
	C163	C	0.382753	0.331030	0.119567
	C164	C	0.678560	0.893689	0.386883
	C165	C	0.678932	0.123252	0.625110
	C166	C	0.325053	0.893575	0.625587
	C167	C	0.325074	0.123599	0.385741
	C168	C	0.883103	0.393254	0.180710
	C169	C	0.121271	0.623996	0.180253
	C170	C	0.119373	0.393102	0.829291
	C171	C	0.884149	0.623704	0.828160
	C172	C	0.178012	0.889919	0.391080
	C173	C	0.178394	0.127494	0.621052
	C174	C	0.824377	0.128956	0.390902
	C175	C	0.825647	0.888705	0.620749
	C176	C	0.387639	0.184307	0.885638
	C177	C	0.616604	0.185981	0.124654
	C178	C	0.387357	0.830312	0.124943
	C179	C	0.616631	0.833084	0.887564
	C180	C	0.387253	0.888123	0.182716
	C181	C	0.616469	0.128267	0.182888
	C182	C	0.387636	0.126780	0.828090
	C183	C	0.616181	0.890247	0.829089
	C184	C	0.882954	0.185390	0.390413
	C185	C	0.120363	0.184410	0.621218
	C186	C	0.119445	0.833838	0.390178
	C187	C	0.883240	0.831463	0.620688
	C188	C	0.177595	0.393364	0.885568
	C189	C	0.178942	0.623608	0.123216
	C190	C	0.824878	0.393363	0.123979
	C191	C	0.825318	0.623094	0.883917
	C192	C	0.401959	0.103746	0.604400
	C193	C	0.601896	0.913221	0.604784
	C194	C	0.600646	0.102912	0.407079
	C195	C	0.402061	0.914376	0.407883
	C196	C	0.601225	0.410137	0.099212
	C197	C	0.602366	0.608635	0.909553
	C198	C	0.402401	0.605730	0.099316
	C199	C	0.400660	0.408433	0.909296
	C200	C	0.096269	0.610106	0.403754
	C201	C	0.907573	0.607777	0.603989
	C202	C	0.096425	0.409007	0.605299
	C203	C	0.908262	0.409166	0.405229
	C204	C	0.902143	0.603324	0.102673
	C205	C	0.100776	0.414021	0.103620
	C206	C	0.101693	0.603472	0.905390
	C207	C	0.901350	0.412917	0.904800
	C208	C	0.101517	0.908981	0.600960
	C209	C	0.101488	0.108223	0.410958
	C210	C	0.902287	0.107798	0.600612
	C211	C	0.901712	0.910602	0.410967
	C212	C	0.596592	0.109001	0.904962
	C213	C	0.408660	0.107048	0.103858
	C214	C	0.595789	0.908194	0.106704
	C215	C	0.407247	0.907941	0.904921
	Zn216	Zn	0.502067	0.008778	0.754347
	Zn217	Zn	0.501760	0.008088	0.256489
	Zn218	Zn	0.751928	0.508257	0.003809
	Zn219	Zn	0.251351	0.507744	0.004530
	Zn220	Zn	0.001312	0.759737	0.504948
	Zn221	Zn	0.002375	0.258040	0.505338
	Zn222	Zn	0.002059	0.508829	0.754748
	Zn223	Zn	0.001751	0.509343	0.253612
	Zn224	Zn	0.502223	0.757928	0.005615
	Zn225	Zn	0.501841	0.258786	0.004710
	Zn226	Zn	0.751598	0.008801	0.506325
	Zn227	Zn	0.251387	0.008636	0.506221
	N228	N	0.417221	0.971074	0.682363
	N229	N	0.586471	0.046020	0.681838
	N230	N	0.585985	0.970559	0.329491
	N231	N	0.416345	0.045875	0.327819
	N232	N	0.680095	0.422502	0.967309
	N233	N	0.681892	0.595144	0.041123
	N234	N	0.323070	0.594070	0.967500
	N235	N	0.321989	0.420962	0.041190
	N236	N	0.964861	0.688149	0.418293
	N237	N	0.039316	0.686099	0.589091
	N238	N	0.965203	0.330007	0.590748
	N239	N	0.039759	0.330371	0.419803
	N240	N	0.964741	0.423614	0.682690
	N241	N	0.038798	0.594771	0.683211
	N242	N	0.964684	0.595460	0.324982
	N243	N	0.039221	0.423485	0.326364
	N244	N	0.417806	0.684950	0.967166
	N245	N	0.587258	0.685510	0.042558
	N246	N	0.585329	0.332400	0.966715
	N247	N	0.415940	0.329894	0.041705
	N248	N	0.680611	0.971786	0.419715
	N249	N	0.681018	0.045143	0.592156
	N250	N	0.322632	0.971772	0.592420
	N251	N	0.322960	0.045818	0.419761
	N252	N	0.916868	0.470979	0.181592
	N253	N	0.087264	0.546380	0.181952
	N254	N	0.086312	0.470983	0.827592
	N255	N	0.917432	0.545852	0.827203
	N256	N	0.180634	0.922232	0.469496
	N257	N	0.180145	0.094186	0.543312
	N258	N	0.822419	0.095548	0.468900
	N259	N	0.823581	0.922943	0.542931
	N260	N	0.465138	0.186550	0.919190
	N261	N	0.539485	0.187097	0.090470
	N262	N	0.464767	0.828720	0.092024
	N263	N	0.539174	0.830638	0.920633
	N264	N	0.464593	0.922003	0.184891
	N265	N	0.539257	0.094197	0.184374
	N266	N	0.465173	0.093992	0.826414
	N267	N	0.538518	0.922788	0.826549
	N268	N	0.917039	0.186367	0.468172
	N269	N	0.086966	0.186011	0.543205
	N270	N	0.085666	0.832378	0.467727
	N271	N	0.916325	0.830635	0.542766
	N272	N	0.180446	0.471552	0.918200
	N273	N	0.180413	0.545472	0.090276
	N274	N	0.823006	0.471407	0.090237
	N275	N	0.822862	0.544903	0.917268
	O276	O	0.505553	0.483235	0.453390
	H277	H	0.508733	0.489691	0.453231
	H278	H	0.509428	0.480409	0.453641
	O279	O	-0.015530	-0.001306	0.136229
	H280	H	-0.023489	-0.004049	0.130651
	H281	H	-0.011497	-0.001358	0.139968
	O282	O	0.424521	0.557951	0.414572
	H283	H	0.433886	0.545351	0.407893
	H284	H	0.420539	0.564099	0.411733
	O285	O	0.546559	0.480877	0.503244
	H286	H	0.547425	0.487453	0.504291
	H287	H	0.534724	0.474920	0.506758
	O288	O	1.501580	-0.534196	-0.537624
	H289	H	1.501553	-0.533298	-0.549132
	H290	H	1.503633	-0.533542	-0.532534
	O291	O	-0.435692	0.465070	-0.543864
	H292	H	-0.442672	0.474818	-0.544716
	H293	H	-0.428584	0.469538	-0.539145
	O294	O	0.494957	0.506333	0.460709
	H295	H	0.495137	0.509890	0.456239
	H296	H	0.494239	0.505070	0.464169
	O297	O	0.016164	1.003555	0.128563
	H298	H	0.030255	1.006485	0.123529
	H299	H	0.007320	1.004246	0.135081
	O300	O	1.032774	0.007775	1.126683
	H301	H	1.035296	0.006044	1.136305
	H302	H	1.034749	0.009071	1.124050
	O303	O	0.462978	0.539323	0.449031
	H304	H	0.456520	0.545861	0.451255
	H305	H	0.470816	0.525207	0.450413
	O306	O	0.052222	0.985343	1.122350
	H307	H	0.055603	0.987539	1.127803
	H308	H	0.042554	0.979815	1.128973
	O309	O	0.501296	0.585609	0.477485
	H310	H	0.493299	0.576465	0.476387
	H311	H	0.499886	0.592913	0.477617
