data_Molecule from HDF5

_cell_length_a		16.170619
_cell_length_b		16.277706
_cell_length_c		16.261061
_cell_angle_alpha	90.023069
_cell_angle_beta	90.048400
_cell_angle_gamma	90.100775
_symmetry_space_group_name_H-M	'P 1'
_symmetry_Int_Tables_number		1

loop_
	_symmetry_equiv_pos_as_xyz
	x,y,z

loop_
	_atom_site_label
	_atom_site_type_symbol
	_atom_site_fract_x
	_atom_site_fract_y
	_atom_site_fract_z
	H0	H	0.392471	0.840792	0.707160
	H1	H	0.592800	0.167825	0.706130
	H2	H	0.591403	0.840169	0.276312
	H3	H	0.393238	0.167422	0.275959
	H4	H	0.704746	0.406068	0.827209
	H5	H	0.703615	0.602079	0.156243
	H6	H	0.277106	0.601292	0.827226
	H7	H	0.278561	0.406095	0.155856
	H8	H	0.828152	0.718272	0.392620
	H9	H	0.156891	0.718623	0.591417
	H10	H	0.827974	0.288219	0.591896
	H11	H	0.156180	0.290804	0.393618
	H12	H	0.827154	0.404930	0.705688
	H13	H	0.155673	0.604322	0.707789
	H14	H	0.827173	0.602559	0.277714
	H15	H	0.156495	0.405227	0.277795
	H16	H	0.391523	0.719107	0.827105
	H17	H	0.590772	0.719797	0.154326
	H18	H	0.590867	0.288879	0.827746
	H19	H	0.391838	0.288921	0.154041
	H20	H	0.707303	0.840514	0.392215
	H21	H	0.706333	0.168388	0.587901
	H22	H	0.278699	0.839710	0.588682
	H23	H	0.278398	0.167577	0.393012
	H24	H	0.891092	0.340357	0.206572
	H25	H	0.091080	0.666903	0.207112
	H26	H	0.090058	0.340617	0.776301
	H27	H	0.892023	0.667613	0.775710
	H28	H	0.205567	0.906332	0.327065
	H29	H	0.206995	0.101837	0.655347
	H30	H	0.778645	0.102006	0.327864
	H31	H	0.777954	0.906056	0.655077
	H32	H	0.326314	0.216281	0.892173
	H33	H	0.655304	0.220000	0.090449
	H34	H	0.326948	0.790292	0.089658
	H35	H	0.655717	0.789078	0.891161
	H36	H	0.327800	0.904769	0.206083
	H37	H	0.656588	0.103248	0.204805
	H38	H	0.328524	0.102325	0.775821
	H39	H	0.657540	0.906206	0.778055
	H40	H	0.893454	0.218599	0.328600
	H41	H	0.093570	0.220507	0.654368
	H42	H	0.092188	0.788612	0.328296
	H43	H	0.891962	0.788413	0.655269
	H44	H	0.203517	0.339384	0.894710
	H45	H	0.205026	0.667854	0.089420
	H46	H	0.777565	0.340001	0.088165
	H47	H	0.777177	0.668360	0.893944
	H48	H	0.394848	0.122395	0.584298
	H49	H	0.593322	0.883587	0.589313
	H50	H	0.576085	0.117041	0.400637
	H51	H	0.396060	0.884324	0.390777
	H52	H	0.587374	0.417926	0.107575
	H53	H	0.580014	0.601927	0.874388
	H54	H	0.402722	0.600467	0.107354
	H55	H	0.396968	0.414007	0.874883
	H56	H	0.111650	0.592949	0.387335
	H57	H	0.875212	0.595941	0.583242
	H58	H	0.109195	0.407153	0.578981
	H59	H	0.872827	0.409607	0.395651
	H60	H	0.106628	0.418919	0.582244
	H61	H	0.875003	0.596520	0.582227
	H62	H	0.111935	0.608045	0.402138
	H63	H	0.874196	0.408385	0.401134
	H64	H	0.394754	0.600859	0.110375
	H65	H	0.589239	0.596159	0.872983
	H66	H	0.575413	0.410263	0.105297
	H67	H	0.401379	0.409662	0.875122
	H68	H	0.593392	0.121232	0.404496
	H69	H	0.574994	0.889499	0.589374
	H70	H	0.403503	0.120238	0.589335
	H71	H	0.408779	0.890027	0.397852
	H72	H	0.900950	0.620418	0.084836
	H73	H	0.084006	0.384996	0.089638
	H74	H	0.087746	0.621704	0.899452
	H75	H	0.900421	0.388725	0.899934
	H76	H	0.087555	0.919148	0.605878
	H77	H	0.086539	0.087985	0.377548
	H78	H	0.899347	0.096442	0.608395
	H79	H	0.890494	0.906732	0.370959
	H80	H	0.613756	0.099141	0.886317
	H81	H	0.372149	0.099065	0.087917
	H82	H	0.608031	0.912607	0.081395
	H83	H	0.375607	0.912413	0.900457
	H84	H	0.610002	0.912485	0.085583
	H85	H	0.374268	0.098526	0.080578
	H86	H	0.610699	0.108634	0.905664
	H87	H	0.374938	0.913677	0.896522
	H88	H	0.901686	0.096142	0.608135
	H89	H	0.076747	0.102732	0.374889
	H90	H	0.077438	0.908886	0.606686
	H91	H	0.901097	0.920995	0.377681
	H92	H	0.081294	0.620845	0.895679
	H93	H	0.082508	0.387871	0.083563
	H94	H	0.896721	0.620866	0.083388
	H95	H	0.894893	0.386918	0.899047
	H96	H	0.402534	0.118153	0.579200
	H97	H	0.585362	0.891148	0.573766
	H98	H	0.586839	0.124332	0.387641
	H99	H	0.394620	0.888541	0.405892
	H100	H	0.587263	0.404330	0.110804
	H101	H	0.580408	0.591355	0.876996
	H102	H	0.397613	0.593850	0.107235
	H103	H	0.395694	0.407879	0.872396
	H104	H	0.104848	0.588729	0.406459
	H105	H	0.875832	0.595056	0.582617
	H106	H	0.110945	0.410891	0.591416
	H107	H	0.875089	0.413420	0.399092
	H108	H	0.897594	0.621215	0.087626
	H109	H	0.088496	0.386341	0.084546
	H110	H	0.081663	0.618306	0.903012
	H111	H	0.898422	0.387788	0.894710
	H112	H	0.091092	0.905538	0.611716
	H113	H	0.093490	0.102571	0.370425
	H114	H	0.900590	0.098473	0.609251
	H115	H	0.908631	0.903977	0.375702
	H116	H	0.604810	0.087785	0.903976
	H117	H	0.374624	0.092841	0.084900
	H118	H	0.610180	0.908610	0.083201
	H119	H	0.374173	0.909072	0.897633
	C120	C	0.371121	0.012385	0.612890
	C121	C	0.613828	0.996050	0.612438
	C122	C	0.614435	0.012644	0.368850
	C123	C	0.370554	0.995438	0.369040
	C124	C	0.612212	0.382569	-0.000235
	C125	C	0.612507	0.626055	0.982744
	C126	C	0.369560	0.626160	-0.000334
	C127	C	0.369547	0.382242	0.982615
	C128	C	0.000682	0.625383	0.369871
	C129	C	0.983738	0.625164	0.612419
	C130	C	0.000247	0.383006	0.613200
	C131	C	0.983013	0.382413	0.370392
	C132	C	0.869534	0.512414	0.113396
	C133	C	0.113768	0.494888	0.114424
	C134	C	0.112556	0.512350	0.870209
	C135	C	0.868955	0.495841	0.869162
	C136	C	0.114312	0.882185	0.499893
	C137	C	0.114789	0.126503	0.482700
	C138	C	0.871571	0.125518	0.500492
	C139	C	0.870852	0.881768	0.482961
	C140	C	0.500658	0.126040	0.869820
	C141	C	0.482597	0.125786	0.112986
	C142	C	0.500480	0.882540	0.112188
	C143	C	0.483639	0.882830	0.869256
	C144	C	0.372870	0.889279	0.668432
	C145	C	0.612362	0.119107	0.667955
	C146	C	0.611924	0.889460	0.313758
	C147	C	0.372627	0.118528	0.313945
	C148	C	0.667373	0.385226	0.876359
	C149	C	0.667222	0.623480	0.106527
	C150	C	0.314713	0.622435	0.876261
	C151	C	0.315396	0.385445	0.106291
	C152	C	0.877215	0.680683	0.372416
	C153	C	0.107748	0.680866	0.611257
	C154	C	0.876708	0.326701	0.611665
	C155	C	0.107112	0.328125	0.373161
	C156	C	0.876244	0.384862	0.668124
	C157	C	0.107087	0.624179	0.669238
	C158	C	0.876643	0.623032	0.315213
	C159	C	0.107113	0.384792	0.315491
	C160	C	0.371703	0.680771	0.876061
	C161	C	0.610670	0.681753	0.105782
	C162	C	0.610365	0.327211	0.876372
	C163	C	0.371399	0.326807	0.105470
	C164	C	0.669406	0.889447	0.371612
	C165	C	0.668804	0.119399	0.609134
	C166	C	0.316158	0.888814	0.609605
	C167	C	0.315713	0.118696	0.372086
	C168	C	0.871422	0.389122	0.168493
	C169	C	0.111288	0.618330	0.168997
	C170	C	0.110288	0.389309	0.814610
	C171	C	0.871110	0.618849	0.813627
	C172	C	0.168739	0.885262	0.376311
	C173	C	0.169813	0.123381	0.606261
	C174	C	0.816583	0.122445	0.376807
	C175	C	0.815353	0.884857	0.606178
	C176	C	0.376129	0.179517	0.871819
	C177	C	0.606433	0.181607	0.110520
	C178	C	0.376348	0.827646	0.110178
	C179	C	0.607015	0.827525	0.871584
	C180	C	0.376712	0.884708	0.167790
	C181	C	0.607062	0.123659	0.167532
	C182	C	0.377277	0.122970	0.814007
	C183	C	0.607817	0.885557	0.815063
	C184	C	0.873245	0.180570	0.377219
	C185	C	0.113224	0.181976	0.605681
	C186	C	0.112063	0.826842	0.376960
	C187	C	0.872091	0.826492	0.606240
	C188	C	0.166813	0.388635	0.873401
	C189	C	0.168045	0.618581	0.110723
	C190	C	0.814627	0.388932	0.109932
	C191	C	0.814029	0.619238	0.872358
	C192	C	0.393563	0.098129	0.590737
	C193	C	0.591141	0.910180	0.590653
	C194	C	0.592064	0.098550	0.390886
	C195	C	0.393080	0.909909	0.391549
	C196	C	0.589922	0.404318	0.085560
	C197	C	0.589913	0.603233	0.897020
	C198	C	0.391888	0.604917	0.085956
	C199	C	0.391578	0.404212	0.896350
	C200	C	0.087279	0.603131	0.392163
	C201	C	0.897613	0.602478	0.589338
	C202	C	0.086587	0.405653	0.590944
	C203	C	0.896275	0.404105	0.392119
	C204	C	0.891849	0.598461	0.091715
	C205	C	0.091514	0.408689	0.092516
	C206	C	0.090052	0.598041	0.892590
	C207	C	0.891316	0.409979	0.891448
	C208	C	0.091953	0.904637	0.585895
	C209	C	0.092295	0.104208	0.396698
	C210	C	0.893992	0.103480	0.586357
	C211	C	0.893457	0.904059	0.396988
	C212	C	0.587355	0.104949	0.892173
	C213	C	0.396122	0.103417	0.090940
	C214	C	0.587081	0.904732	0.089964
	C215	C	0.397123	0.905177	0.891492
	Zn216	Zn	0.493255	0.004423	0.741985
	Zn217	Zn	0.492073	0.003798	0.240415
	Zn218	Zn	0.740541	0.504148	-0.008220
	Zn219	Zn	0.240956	0.503774	-0.008376
	Zn220	Zn	-0.007316	0.753520	0.491998
	Zn221	Zn	-0.008018	0.254661	0.491967
	Zn222	Zn	-0.008222	0.504347	0.740889
	Zn223	Zn	-0.008280	0.503443	0.242212
	Zn224	Zn	0.491593	0.755249	-0.009385
	Zn225	Zn	0.490896	0.254090	-0.009078
	Zn226	Zn	0.743166	0.003901	0.490956
	Zn227	Zn	0.242303	0.003726	0.490951
	N228	N	0.406472	0.967018	0.670526
	N229	N	0.578748	0.041404	0.669963
	N230	N	0.578452	0.967150	0.311852
	N231	N	0.406009	0.040886	0.311829
	N232	N	0.668307	0.419287	0.953775
	N233	N	0.668366	0.589422	0.029003
	N234	N	0.313303	0.589217	0.953965
	N235	N	0.314116	0.419348	0.028721
	N236	N	0.955482	0.682379	0.405510
	N237	N	0.029983	0.681587	0.576639
	N238	N	0.954769	0.325689	0.577955
	N239	N	0.028993	0.326405	0.406486
	N240	N	0.954038	0.419177	0.669132
	N241	N	0.029272	0.590105	0.669721
	N242	N	0.954524	0.589280	0.313536
	N243	N	0.028807	0.417930	0.313548
	N244	N	0.405276	0.683083	0.953862
	N245	N	0.577540	0.683736	0.027838
	N246	N	0.576853	0.325295	0.954000
	N247	N	0.404178	0.324798	0.027585
	N248	N	0.671149	0.966984	0.405024
	N249	N	0.669888	0.041884	0.575413
	N250	N	0.314914	0.966239	0.575799
	N251	N	0.314417	0.041353	0.405916
	N252	N	0.904776	0.466909	0.170753
	N253	N	0.078229	0.540435	0.171326
	N254	N	0.077450	0.467172	0.812602
	N255	N	0.904382	0.541210	0.811545
	N256	N	0.170213	0.918943	0.453975
	N257	N	0.171062	0.089638	0.528696
	N258	N	0.815400	0.089112	0.454496
	N259	N	0.814661	0.918650	0.528523
	N260	N	0.453845	0.181394	0.906079
	N261	N	0.528237	0.182930	0.077233
	N262	N	0.454304	0.826417	0.076228
	N263	N	0.528762	0.825826	0.904603
	N264	N	0.454842	0.918217	0.169090
	N265	N	0.529138	0.089680	0.169179
	N266	N	0.455654	0.090360	0.812653
	N267	N	0.529977	0.919393	0.813700
	N268	N	0.906972	0.182364	0.454962
	N269	N	0.079895	0.184098	0.527871
	N270	N	0.078854	0.825168	0.454716
	N271	N	0.905645	0.824256	0.528583
	N272	N	0.168194	0.466054	0.907505
	N273	N	0.169635	0.540799	0.077536
	N274	N	0.813412	0.466526	0.076288
	N275	N	0.812580	0.541634	0.905999
	O276	O	0.594174	0.534318	0.599853
	H277	H	0.588366	0.529579	0.595667
	H278	H	0.598674	0.527565	0.607215
	O279	O	0.535523	0.534573	0.474109
	H280	H	0.533039	0.529136	0.486425
	H281	H	0.538765	0.539681	0.487852
	O282	O	0.464385	0.579871	0.484701
	H283	H	0.462614	0.581215	0.488495
	H284	H	0.462228	0.586858	0.489329
	O285	O	0.519051	0.422041	1.435288
	H286	H	0.523558	0.421728	1.442285
	H287	H	0.515716	0.430957	1.436796
	O288	O	0.468719	0.484732	0.590154
	H289	H	0.474255	0.491193	0.581630
	H290	H	0.458112	0.494706	0.591234
	O291	O	-0.001295	-0.063257	0.937825
	H292	H	-0.007506	-0.063337	0.935385
	H293	H	0.003336	-0.066686	0.939582
	O294	O	0.981061	0.954874	1.022492
	H295	H	0.982011	0.945148	1.018658
	H296	H	0.989465	0.956317	1.020195
	O297	O	0.530733	0.544500	0.508518
	H298	H	0.530568	0.541561	0.506135
	H299	H	0.528367	0.550701	0.498079
	O300	O	0.502269	0.529352	0.507344
	H301	H	0.501396	0.533985	0.498316
	H302	H	0.499118	0.517867	0.510980
	O303	O	0.491872	0.519020	0.556513
	H304	H	0.492096	0.518510	0.551127
	H305	H	0.491937	0.509799	0.550261
	O306	O	1.517256	0.447853	0.547264
	H307	H	1.524315	0.451884	0.555027
	H308	H	1.516745	0.452947	0.553464
	O309	O	0.415684	0.441528	0.530390
	H310	H	0.421935	0.434343	0.524777
	H311	H	0.407205	0.441870	0.535927
	O312	O	0.475648	0.491829	0.552204
	H313	H	0.482224	0.491265	0.562067
	H314	H	0.471878	0.506588	0.555834
	O315	O	0.950921	-0.038500	1.059244
	H316	H	0.958413	-0.037953	1.048337
	H317	H	0.954698	-0.038226	1.070005
	O318	O	-0.503119	-0.418068	0.477452
	H319	H	-0.495396	-0.421841	0.469499
	H320	H	-0.508427	-0.416201	0.463745
	O321	O	0.484631	0.427154	0.477929
	H322	H	0.487724	0.423341	0.480638
	H323	H	0.478935	0.424236	0.481194
	O324	O	0.968045	-0.041347	-0.008327
	H325	H	0.957663	-0.040716	-0.006292
	H326	H	0.960552	-0.039148	-0.000797
	O327	O	0.965290	0.949330	0.011117
	H328	H	0.961081	0.945901	0.013299
	H329	H	0.963115	0.956954	0.013206
	O330	O	0.466550	0.476653	0.410178
	H331	H	0.469697	0.471556	0.401606
	H332	H	0.458076	0.475196	0.410812
	O333	O	0.465445	0.477494	0.392682
	H334	H	0.474299	0.470563	0.390558
	H335	H	0.468354	0.472484	0.393469
