data_Molecule from HDF5

_cell_length_a		16.307287
_cell_length_b		16.256638
_cell_length_c		16.242135
_cell_angle_alpha	89.957548
_cell_angle_beta	90.006655
_cell_angle_gamma	89.973084
_symmetry_space_group_name_H-M	'P 1'
_symmetry_Int_Tables_number		1

loop_
	_symmetry_equiv_pos_as_xyz
	x,y,z

loop_
	_atom_site_label
	_atom_site_type_symbol
	_atom_site_fract_x
	_atom_site_fract_y
	_atom_site_fract_z
	H0	H	0.402571	0.835920	0.713410
	H1	H	0.597172	0.164078	0.712564
	H2	H	0.595939	0.835406	0.287402
	H3	H	0.402643	0.163754	0.285971
	H4	H	0.714503	0.402183	0.835727
	H5	H	0.714815	0.598968	0.163495
	H6	H	0.285362	0.598774	0.835907
	H7	H	0.285942	0.401699	0.164137
	H8	H	0.836035	0.714414	0.401292
	H9	H	0.163104	0.715358	0.598725
	H10	H	0.836365	0.285260	0.598600
	H11	H	0.163326	0.284071	0.401899
	H12	H	0.835967	0.402029	0.714262
	H13	H	0.163853	0.596881	0.713258
	H14	H	0.836424	0.598170	0.285162
	H15	H	0.164108	0.402372	0.286923
	H16	H	0.402636	0.713597	0.835230
	H17	H	0.597758	0.714402	0.164305
	H18	H	0.598323	0.286622	0.836093
	H19	H	0.402308	0.285807	0.163973
	H20	H	0.713767	0.835598	0.401188
	H21	H	0.713688	0.163265	0.597917
	H22	H	0.285680	0.835817	0.598642
	H23	H	0.284931	0.163735	0.401111
	H24	H	0.903303	0.335839	0.213698
	H25	H	0.098296	0.664352	0.214004
	H26	H	0.097176	0.335824	0.787518
	H27	H	0.902540	0.664544	0.785602
	H28	H	0.215031	0.900754	0.336134
	H29	H	0.214568	0.098070	0.664243
	H30	H	0.786226	0.098547	0.335752
	H31	H	0.785362	0.900779	0.663820
	H32	H	0.336200	0.213650	0.902199
	H33	H	0.663527	0.215573	0.098950
	H34	H	0.336543	0.785962	0.098480
	H35	H	0.663543	0.786389	0.902511
	H36	H	0.336194	0.902491	0.213813
	H37	H	0.664321	0.098904	0.214951
	H38	H	0.336574	0.098446	0.785048
	H39	H	0.663555	0.901860	0.785760
	H40	H	0.902458	0.213381	0.335953
	H41	H	0.096904	0.212419	0.664962
	H42	H	0.097883	0.785575	0.336042
	H43	H	0.901711	0.785551	0.664235
	H44	H	0.215154	0.336918	0.901539
	H45	H	0.214329	0.663937	0.098582
	H46	H	0.785906	0.336840	0.099206
	H47	H	0.785330	0.664394	0.900609
	H48	H	0.408039	0.116744	0.593752
	H49	H	0.592206	0.884305	0.587415
	H50	H	0.589198	0.117048	0.402481
	H51	H	0.407378	0.881480	0.401415
	H52	H	0.589281	0.401635	0.117905
	H53	H	0.600264	0.591844	0.880953
	H54	H	0.409980	0.604891	0.118848
	H55	H	0.413986	0.403723	0.883944
	H56	H	0.116697	0.599479	0.411569
	H57	H	0.886365	0.585025	0.592443
	H58	H	0.116655	0.402115	0.589836
	H59	H	0.879351	0.391658	0.406500
	H60	H	0.114845	0.410102	0.592318
	H61	H	0.880577	0.595334	0.600102
	H62	H	0.113435	0.586953	0.409506
	H63	H	0.889437	0.412222	0.419860
	H64	H	0.395018	0.590229	0.119109
	H65	H	0.589189	0.587361	0.886216
	H66	H	0.600400	0.407101	0.119660
	H67	H	0.400464	0.402729	0.880480
	H68	H	0.592391	0.114827	0.413099
	H69	H	0.598710	0.880254	0.593756
	H70	H	0.407005	0.115975	0.590190
	H71	H	0.411302	0.885290	0.410379
	H72	H	0.900008	0.619077	0.093021
	H73	H	0.098942	0.379042	0.103986
	H74	H	0.089891	0.613860	0.915419
	H75	H	0.901729	0.383549	0.911992
	H76	H	0.087680	0.919814	0.610858
	H77	H	0.095560	0.096834	0.380991
	H78	H	0.907591	0.082118	0.614241
	H79	H	0.899965	0.916041	0.383810
	H80	H	0.613710	0.084053	0.907180
	H81	H	0.381923	0.101873	0.093725
	H82	H	0.615991	0.898667	0.083847
	H83	H	0.381688	0.908326	0.898592
	H84	H	0.613296	0.918435	0.092480
	H85	H	0.387336	0.090020	0.085680
	H86	H	0.620424	0.097594	0.896807
	H87	H	0.381860	0.899564	0.909692
	H88	H	0.914853	0.099623	0.617023
	H89	H	0.096547	0.086605	0.383787
	H90	H	0.084305	0.893898	0.618252
	H91	H	0.917095	0.906841	0.385774
	H92	H	0.102519	0.620005	0.905645
	H93	H	0.080380	0.387206	0.093227
	H94	H	0.912148	0.618203	0.098667
	H95	H	0.905166	0.381322	0.901661
	H96	H	0.404425	0.117329	0.592604
	H97	H	0.589392	0.882710	0.597245
	H98	H	0.600263	0.119463	0.404951
	H99	H	0.401064	0.882319	0.409786
	H100	H	0.590612	0.413680	0.113941
	H101	H	0.589883	0.599890	0.882236
	H102	H	0.414961	0.585229	0.112185
	H103	H	0.405475	0.415621	0.884278
	H104	H	0.118107	0.594265	0.400401
	H105	H	0.883922	0.597358	0.586666
	H106	H	0.117110	0.404393	0.598438
	H107	H	0.882421	0.415237	0.394276
	H108	H	0.910092	0.613721	0.085323
	H109	H	0.099916	0.384671	0.082048
	H110	H	0.087092	0.617485	0.898997
	H111	H	0.912647	0.385944	0.909122
	H112	H	0.108211	0.905917	0.621674
	H113	H	0.087134	0.091551	0.385327
	H114	H	0.896539	0.096820	0.620982
	H115	H	0.901746	0.896635	0.378671
	H116	H	0.615912	0.100140	0.914208
	H117	H	0.383291	0.088132	0.100383
	H118	H	0.621345	0.902485	0.104625
	H119	H	0.386705	0.913061	0.911769
	C120	C	0.378196	0.008572	0.621144
	C121	C	0.621402	0.991078	0.621424
	C122	C	0.621438	0.008240	0.378637
	C123	C	0.378094	0.991271	0.378720
	C124	C	0.621675	0.378912	0.008570
	C125	C	0.621808	0.621686	0.991585
	C126	C	0.378367	0.621867	0.008014
	C127	C	0.378325	0.378782	0.991335
	C128	C	0.008136	0.621890	0.378138
	C129	C	0.991551	0.620859	0.621201
	C130	C	0.008214	0.377592	0.622172
	C131	C	0.991940	0.377954	0.378544
	C132	C	0.878574	0.508725	0.121510
	C133	C	0.121614	0.491841	0.121734
	C134	C	0.121719	0.508915	0.878323
	C135	C	0.878212	0.492230	0.878537
	C136	C	0.121800	0.878478	0.508443
	C137	C	0.121154	0.120480	0.491989
	C138	C	0.878206	0.121307	0.508568
	C139	C	0.878213	0.878314	0.491492
	C140	C	0.508570	0.122038	0.877692
	C141	C	0.492239	0.121809	0.121775
	C142	C	0.508696	0.878301	0.121661
	C143	C	0.491181	0.878594	0.878159
	C144	C	0.381522	0.884804	0.675767
	C145	C	0.618157	0.114674	0.675744
	C146	C	0.618041	0.884502	0.324069
	C147	C	0.381653	0.115121	0.324095
	C148	C	0.676665	0.381789	0.884910
	C149	C	0.677077	0.619744	0.114790
	C150	C	0.323070	0.619479	0.884734
	C151	C	0.323664	0.381305	0.115100
	C152	C	0.884810	0.676577	0.380835
	C153	C	0.114719	0.676380	0.618687
	C154	C	0.885096	0.323129	0.619318
	C155	C	0.114727	0.322659	0.381387
	C156	C	0.884983	0.381165	0.676725
	C157	C	0.114935	0.618088	0.675967
	C158	C	0.885059	0.619220	0.322992
	C159	C	0.115167	0.381472	0.324345
	C160	C	0.381464	0.676384	0.884458
	C161	C	0.618802	0.676809	0.115106
	C162	C	0.618842	0.324525	0.884781
	C163	C	0.381355	0.323500	0.114950
	C164	C	0.676385	0.884773	0.380665
	C165	C	0.676044	0.114485	0.618756
	C166	C	0.323786	0.884693	0.618603
	C167	C	0.323283	0.115047	0.381125
	C168	C	0.881794	0.385279	0.176309
	C169	C	0.118833	0.615444	0.176425
	C170	C	0.118688	0.384994	0.824197
	C171	C	0.881516	0.615543	0.823617
	C172	C	0.176540	0.881256	0.384906
	C173	C	0.176366	0.118312	0.615435
	C174	C	0.823762	0.118432	0.384977
	C175	C	0.823074	0.880247	0.614816
	C176	C	0.385121	0.176365	0.881246
	C177	C	0.615205	0.177042	0.119056
	C178	C	0.385236	0.823795	0.118831
	C179	C	0.614603	0.823769	0.881133
	C180	C	0.385225	0.881499	0.176261
	C181	C	0.615345	0.119180	0.176719
	C182	C	0.385391	0.119175	0.823002
	C183	C	0.614479	0.881293	0.823377
	C184	C	0.881559	0.175705	0.384986
	C185	C	0.117925	0.174915	0.615857
	C186	C	0.118115	0.824186	0.384557
	C187	C	0.880850	0.822870	0.614910
	C188	C	0.177011	0.385682	0.881131
	C189	C	0.176587	0.615135	0.119144
	C190	C	0.823698	0.385475	0.119408
	C191	C	0.823321	0.615567	0.880683
	C192	C	0.400094	0.094465	0.598929
	C193	C	0.599840	0.904654	0.599369
	C194	C	0.600082	0.094654	0.400393
	C195	C	0.399913	0.905469	0.400676
	C196	C	0.599906	0.400782	0.094829
	C197	C	0.599655	0.599541	0.905378
	C198	C	0.400151	0.599884	0.094313
	C199	C	0.400109	0.400736	0.905096
	C200	C	0.093844	0.600113	0.400534
	C201	C	0.905776	0.598964	0.599450
	C202	C	0.094147	0.399221	0.600031
	C203	C	0.905852	0.399885	0.400436
	C204	C	0.900893	0.594855	0.099062
	C205	C	0.099539	0.405965	0.099656
	C206	C	0.099609	0.594968	0.900228
	C207	C	0.900318	0.405848	0.900838
	C208	C	0.099918	0.900269	0.594856
	C209	C	0.099322	0.098259	0.405706
	C210	C	0.899883	0.099402	0.595308
	C211	C	0.899868	0.899920	0.404846
	C212	C	0.594489	0.100327	0.899458
	C213	C	0.406340	0.099786	0.099876
	C214	C	0.594586	0.899989	0.100068
	C215	C	0.405558	0.900466	0.900187
	Zn216	Zn	0.499835	-0.000244	0.749306
	Zn217	Zn	0.500500	0.000111	0.250168
	Zn218	Zn	0.750649	0.500200	-0.000029
	Zn219	Zn	0.250090	0.500530	0.000127
	Zn220	Zn	-0.000624	0.749802	0.499904
	Zn221	Zn	-0.000275	0.248981	0.500589
	Zn222	Zn	0.000257	0.499921	0.750435
	Zn223	Zn	0.000038	0.500310	0.249776
	Zn224	Zn	0.499898	0.750059	0.000085
	Zn225	Zn	0.500424	0.250647	-0.000242
	Zn226	Zn	0.749905	-0.000317	0.500193
	Zn227	Zn	0.249765	-0.000187	0.500194
	N228	N	0.414404	0.962667	0.677654
	N229	N	0.584797	0.037006	0.677147
	N230	N	0.584582	0.962166	0.322786
	N231	N	0.415023	0.037376	0.322382
	N232	N	0.678624	0.414830	0.962862
	N233	N	0.679033	0.586343	0.037112
	N234	N	0.321148	0.586399	0.962743
	N235	N	0.321801	0.414992	0.037341
	N236	N	0.962279	0.678433	0.414466
	N237	N	0.037141	0.678426	0.585529
	N238	N	0.962609	0.321135	0.585884
	N239	N	0.037091	0.320680	0.414557
	N240	N	0.962556	0.414177	0.678657
	N241	N	0.037683	0.584192	0.677289
	N242	N	0.962643	0.586086	0.321260
	N243	N	0.037788	0.415105	0.322532
	N244	N	0.414983	0.678055	0.962134
	N245	N	0.585182	0.678118	0.037457
	N246	N	0.585209	0.322924	0.962419
	N247	N	0.414749	0.321949	0.037228
	N248	N	0.678501	0.962628	0.414052
	N249	N	0.678088	0.036694	0.585605
	N250	N	0.321747	0.962453	0.585187
	N251	N	0.321108	0.037336	0.414496
	N252	N	0.915092	0.463052	0.177743
	N253	N	0.085502	0.537771	0.178277
	N254	N	0.084996	0.462612	0.822425
	N255	N	0.914917	0.537771	0.822225
	N256	N	0.178571	0.914178	0.462896
	N257	N	0.178370	0.085234	0.537556
	N258	N	0.821808	0.084992	0.462931
	N259	N	0.821351	0.913981	0.537153
	N260	N	0.462725	0.178324	0.914576
	N261	N	0.537751	0.178516	0.085387
	N262	N	0.462823	0.821741	0.085555
	N263	N	0.537295	0.822171	0.914848
	N264	N	0.462704	0.914923	0.178034
	N265	N	0.537926	0.085595	0.178525
	N266	N	0.462980	0.086105	0.820838
	N267	N	0.536936	0.914798	0.821567
	N268	N	0.914630	0.177433	0.462804
	N269	N	0.084268	0.176330	0.538061
	N270	N	0.084882	0.822073	0.462413
	N271	N	0.914620	0.821869	0.537301
	N272	N	0.178849	0.463558	0.914062
	N273	N	0.178270	0.537496	0.085720
	N274	N	0.821743	0.463204	0.086032
	N275	N	0.821213	0.537686	0.913891
