data_Molecule from HDF5

_cell_length_a		16.202313
_cell_length_b		16.289133
_cell_length_c		16.296147
_cell_angle_alpha	89.965875
_cell_angle_beta	90.003306
_cell_angle_gamma	89.943807
_symmetry_space_group_name_H-M	'P 1'
_symmetry_Int_Tables_number		1

loop_
	_symmetry_equiv_pos_as_xyz
	x,y,z

loop_
	_atom_site_label
	_atom_site_type_symbol
	_atom_site_fract_x
	_atom_site_fract_y
	_atom_site_fract_z
	H0	H	0.408902	0.828437	0.708009
	H1	H	0.604344	0.155268	0.710343
	H2	H	0.603916	0.828442	0.280577
	H3	H	0.406783	0.155862	0.279673
	H4	H	0.718118	0.395665	0.829573
	H5	H	0.718522	0.589220	0.158416
	H6	H	0.291618	0.589939	0.829592
	H7	H	0.291706	0.395574	0.158061
	H8	H	0.841293	0.706179	0.397345
	H9	H	0.169900	0.705906	0.592777
	H10	H	0.840915	0.277976	0.592324
	H11	H	0.170258	0.279263	0.397163
	H12	H	0.840475	0.393858	0.708162
	H13	H	0.169358	0.589421	0.708676
	H14	H	0.840935	0.591122	0.281082
	H15	H	0.169986	0.394335	0.280605
	H16	H	0.406384	0.707645	0.830968
	H17	H	0.602316	0.705928	0.158496
	H18	H	0.602192	0.278209	0.830424
	H19	H	0.407043	0.278307	0.158723
	H20	H	0.718398	0.827923	0.398560
	H21	H	0.717616	0.157456	0.590928
	H22	H	0.292841	0.828440	0.591074
	H23	H	0.292412	0.156602	0.397107
	H24	H	0.906453	0.328086	0.209028
	H25	H	0.104503	0.655720	0.208691
	H26	H	0.103290	0.328567	0.780172
	H27	H	0.906285	0.655574	0.779246
	H28	H	0.219382	0.895979	0.329928
	H29	H	0.218305	0.087902	0.658989
	H30	H	0.791803	0.091090	0.330784
	H31	H	0.791857	0.894744	0.658253
	H32	H	0.340384	0.205783	0.897744
	H33	H	0.669234	0.206187	0.093117
	H34	H	0.340157	0.778212	0.092396
	H35	H	0.668946	0.778062	0.896754
	H36	H	0.340028	0.894047	0.207873
	H37	H	0.669741	0.090196	0.208304
	H38	H	0.340412	0.090731	0.780215
	H39	H	0.669851	0.893056	0.781535
	H40	H	0.906721	0.207822	0.331790
	H41	H	0.103440	0.205646	0.658663
	H42	H	0.105142	0.777146	0.330605
	H43	H	0.907833	0.778031	0.658189
	H44	H	0.219259	0.328365	0.896275
	H45	H	0.218586	0.656448	0.091025
	H46	H	0.792094	0.327879	0.091172
	H47	H	0.791832	0.656239	0.896765
	H48	H	0.419588	0.110357	0.596958
	H49	H	0.597472	0.877941	0.583626
	H50	H	0.603548	0.108529	0.405794
	H51	H	0.417295	0.876804	0.402060
	H52	H	0.599090	0.390194	0.112911
	H53	H	0.600118	0.585698	0.877517
	H54	H	0.409292	0.588194	0.112091
	H55	H	0.416617	0.393802	0.877947
	H56	H	0.120514	0.584008	0.409408
	H57	H	0.885951	0.593797	0.585380
	H58	H	0.118975	0.404956	0.582152
	H59	H	0.883375	0.386953	0.398571
	H60	H	0.124547	0.400700	0.596124
	H61	H	0.891720	0.579943	0.582252
	H62	H	0.122649	0.578790	0.395209
	H63	H	0.892795	0.403020	0.413631
	H64	H	0.410030	0.582045	0.109561
	H65	H	0.596935	0.584199	0.878364
	H66	H	0.606765	0.402984	0.111750
	H67	H	0.405708	0.395781	0.875486
	H68	H	0.601404	0.111537	0.392986
	H69	H	0.603964	0.874105	0.589173
	H70	H	0.414837	0.105580	0.579090
	H71	H	0.408784	0.875320	0.403412
	H72	H	0.903064	0.613158	0.094934
	H73	H	0.098383	0.375913	0.086838
	H74	H	0.104408	0.612457	0.894831
	H75	H	0.911863	0.375715	0.899997
	H76	H	0.105039	0.902744	0.611735
	H77	H	0.096162	0.095887	0.376033
	H78	H	0.917983	0.086959	0.610856
	H79	H	0.917253	0.901102	0.379337
	H80	H	0.622756	0.083399	0.898854
	H81	H	0.390997	0.078439	0.084722
	H82	H	0.623318	0.896823	0.091563
	H83	H	0.383528	0.889644	0.898995
	H84	H	0.621806	0.896365	0.084602
	H85	H	0.385313	0.085814	0.095902
	H86	H	0.621741	0.088357	0.902709
	H87	H	0.391164	0.902419	0.910811
	H88	H	0.908936	0.088577	0.612674
	H89	H	0.108549	0.084533	0.376077
	H90	H	0.092115	0.900650	0.607873
	H91	H	0.912096	0.892419	0.375837
	H92	H	0.089900	0.607552	0.897362
	H93	H	0.098084	0.375375	0.088946
	H94	H	0.923022	0.606231	0.091891
	H95	H	0.912493	0.375543	0.900732
	H96	H	0.401067	0.113463	0.590833
	H97	H	0.595578	0.875814	0.592134
	H98	H	0.590965	0.106361	0.400951
	H99	H	0.412108	0.874069	0.395663
	H100	H	0.592154	0.402808	0.107619
	H101	H	0.596983	0.587979	0.877699
	H102	H	0.414983	0.586325	0.109910
	H103	H	0.412581	0.404695	0.879854
	H104	H	0.126472	0.593246	0.398234
	H105	H	0.885626	0.583189	0.596147
	H106	H	0.124032	0.390896	0.584481
	H107	H	0.888205	0.409024	0.390955
	H108	H	0.909620	0.606058	0.076396
	H109	H	0.096460	0.376355	0.088190
	H110	H	0.100225	0.607214	0.909053
	H111	H	0.910979	0.375347	0.901172
	H112	H	0.099885	0.890642	0.613412
	H113	H	0.093175	0.080453	0.382070
	H114	H	0.911200	0.080130	0.609993
	H115	H	0.906602	0.901480	0.377115
	H116	H	0.620490	0.082552	0.904503
	H117	H	0.386727	0.092261	0.083106
	H118	H	0.620781	0.902796	0.087293
	H119	H	0.387884	0.907396	0.892713
	C120	C	0.384283	0.001037	0.616369
	C121	C	0.627449	0.984170	0.616751
	C122	C	0.626816	0.000554	0.372398
	C123	C	0.384122	0.983938	0.372739
	C124	C	0.627232	0.370301	0.002614
	C125	C	0.626570	0.613961	0.986209
	C126	C	0.382989	0.614230	0.002330
	C127	C	0.383565	0.370321	0.986145
	C128	C	0.014096	0.613999	0.372780
	C129	C	0.996550	0.613591	0.616002
	C130	C	0.013642	0.370689	0.616113
	C131	C	0.997021	0.371076	0.372906
	C132	C	0.883556	0.500266	0.116237
	C133	C	0.126390	0.484162	0.115806
	C134	C	0.126678	0.500811	0.872382
	C135	C	0.883531	0.483848	0.872546
	C136	C	0.127382	0.870513	0.502636
	C137	C	0.127440	0.114369	0.486158
	C138	C	0.884194	0.113988	0.503211
	C139	C	0.884222	0.870849	0.486149
	C140	C	0.513462	0.113639	0.873380
	C141	C	0.496652	0.113593	0.116100
	C142	C	0.512923	0.870503	0.115947
	C143	C	0.496561	0.871168	0.872971
	C144	C	0.387711	0.877234	0.670225
	C145	C	0.624688	0.107101	0.671880
	C146	C	0.624194	0.877240	0.318284
	C147	C	0.386335	0.107108	0.317664
	C148	C	0.680834	0.374062	0.878724
	C149	C	0.680890	0.610233	0.109526
	C150	C	0.328896	0.610832	0.878750
	C151	C	0.329099	0.373927	0.109487
	C152	C	0.890391	0.668898	0.375924
	C153	C	0.120905	0.668035	0.613288
	C154	C	0.889650	0.316046	0.613066
	C155	C	0.120941	0.316602	0.376076
	C156	C	0.889779	0.373295	0.670886
	C157	C	0.120665	0.610100	0.670514
	C158	C	0.890332	0.611583	0.318291
	C159	C	0.120887	0.373650	0.318288
	C160	C	0.385577	0.669533	0.879301
	C161	C	0.623260	0.668256	0.109539
	C162	C	0.623859	0.315521	0.879170
	C163	C	0.386618	0.316145	0.109823
	C164	C	0.681339	0.877009	0.376524
	C165	C	0.681197	0.107955	0.612916
	C166	C	0.329921	0.877394	0.612568
	C167	C	0.329943	0.107727	0.376281
	C168	C	0.885930	0.377335	0.171333
	C169	C	0.124637	0.606977	0.170773
	C170	C	0.124086	0.377323	0.817795
	C171	C	0.886080	0.606986	0.817496
	C172	C	0.181827	0.874431	0.379010
	C173	C	0.181149	0.109916	0.610007
	C174	C	0.829343	0.111799	0.379813
	C175	C	0.829887	0.873996	0.609495
	C176	C	0.389632	0.168809	0.876080
	C177	C	0.620360	0.168346	0.113605
	C178	C	0.389220	0.815867	0.113124
	C179	C	0.620091	0.815765	0.876109
	C180	C	0.389421	0.873013	0.170747
	C181	C	0.620370	0.110612	0.170728
	C182	C	0.389589	0.111270	0.818382
	C183	C	0.620431	0.872998	0.818573
	C184	C	0.886599	0.169618	0.380299
	C185	C	0.124460	0.168699	0.609646
	C186	C	0.125214	0.815304	0.379425
	C187	C	0.887029	0.815829	0.609261
	C188	C	0.181404	0.377272	0.875463
	C189	C	0.181487	0.607387	0.112438
	C190	C	0.828938	0.376940	0.112842
	C191	C	0.828845	0.607204	0.875468
	C192	C	0.405585	0.087485	0.595347
	C193	C	0.605659	0.898138	0.594791
	C194	C	0.605093	0.086635	0.393646
	C195	C	0.406044	0.897685	0.394130
	C196	C	0.605548	0.391985	0.088558
	C197	C	0.604491	0.592373	0.900097
	C198	C	0.404923	0.592009	0.088345
	C199	C	0.405377	0.391755	0.900076
	C200	C	0.100990	0.591926	0.394500
	C201	C	0.910230	0.592096	0.594254
	C202	C	0.100179	0.392497	0.594112
	C203	C	0.910287	0.393062	0.394823
	C204	C	0.905556	0.586284	0.094314
	C205	C	0.104318	0.398170	0.094081
	C206	C	0.104728	0.586788	0.893985
	C207	C	0.905450	0.397955	0.894131
	C208	C	0.105559	0.891760	0.588808
	C209	C	0.105791	0.093057	0.400220
	C210	C	0.906231	0.091810	0.588961
	C211	C	0.905810	0.891910	0.399811
	C212	C	0.599535	0.091265	0.895493
	C213	C	0.409997	0.091842	0.094196
	C214	C	0.599616	0.892136	0.094087
	C215	C	0.409875	0.893384	0.894571
	Zn216	Zn	0.505335	-0.007601	0.744837
	Zn217	Zn	0.504708	-0.007746	0.243782
	Zn218	Zn	0.755433	0.492204	-0.005951
	Zn219	Zn	0.254750	0.491994	-0.005781
	Zn220	Zn	0.005685	0.741761	0.494430
	Zn221	Zn	0.005603	0.243209	0.494557
	Zn222	Zn	0.005106	0.491835	0.744179
	Zn223	Zn	0.005250	0.492402	0.244946
	Zn224	Zn	0.504512	0.742799	-0.005930
	Zn225	Zn	0.505335	0.242163	-0.004969
	Zn226	Zn	0.755681	-0.007486	0.494394
	Zn227	Zn	0.255913	-0.007458	0.494640
	N228	N	0.420545	0.955116	0.672713
	N229	N	0.592006	0.029212	0.674277
	N230	N	0.591119	0.954981	0.315462
	N231	N	0.419402	0.029252	0.315408
	N232	N	0.682957	0.407559	0.956214
	N233	N	0.682868	0.577210	0.031929
	N234	N	0.327275	0.577067	0.956258
	N235	N	0.327062	0.406716	0.031817
	N236	N	0.968416	0.670298	0.409144
	N237	N	0.042866	0.670392	0.580092
	N238	N	0.967703	0.314198	0.579821
	N239	N	0.042829	0.314804	0.409202
	N240	N	0.967744	0.406726	0.672520
	N241	N	0.042619	0.577008	0.672270
	N242	N	0.968492	0.578332	0.316327
	N243	N	0.042778	0.406881	0.316440
	N244	N	0.418630	0.671592	0.956986
	N245	N	0.590243	0.670828	0.031613
	N246	N	0.591332	0.313097	0.957151
	N247	N	0.419838	0.313736	0.032090
	N248	N	0.683284	0.954731	0.409391
	N249	N	0.683018	0.030509	0.579346
	N250	N	0.327861	0.955344	0.579761
	N251	N	0.328223	0.030048	0.409702
	N252	N	0.918935	0.455099	0.173498
	N253	N	0.090981	0.529454	0.172969
	N254	N	0.090712	0.455052	0.815797
	N255	N	0.919157	0.529304	0.815428
	N256	N	0.183391	0.907985	0.456535
	N257	N	0.183036	0.076957	0.532484
	N258	N	0.827740	0.077836	0.457196
	N259	N	0.827959	0.907481	0.532134
	N260	N	0.467500	0.170241	0.909932
	N261	N	0.542354	0.170400	0.080318
	N262	N	0.467296	0.814193	0.079615
	N263	N	0.541942	0.814541	0.909171
	N264	N	0.467349	0.906481	0.172335
	N265	N	0.542433	0.077170	0.172111
	N266	N	0.467416	0.077708	0.816568
	N267	N	0.542603	0.906917	0.816807
	N268	N	0.920188	0.171079	0.457866
	N269	N	0.091587	0.171627	0.531669
	N270	N	0.091931	0.812882	0.457168
	N271	N	0.920249	0.813851	0.531460
	N272	N	0.183123	0.454897	0.908686
	N273	N	0.182370	0.530008	0.078723
	N274	N	0.827379	0.454456	0.079130
	N275	N	0.827442	0.529850	0.909287
	O276	O	0.927525	0.019384	1.018707
	H277	H	0.941124	0.015723	1.020507
	H278	H	0.923845	0.026260	1.021744
	O279	O	-0.065902	1.016562	0.996780
	H280	H	-0.072316	1.020154	0.996439
	H281	H	-0.075064	1.017212	0.993318
	O282	O	0.947232	1.056831	-0.013245
	H283	H	0.940602	1.060694	-0.012282
	H284	H	0.950524	1.057071	-0.018526
	O285	O	-0.098416	1.023451	0.987229
	H286	H	-0.108713	1.015363	0.987163
	H287	H	-0.092577	1.024987	0.991079
