data_Molecule from HDF5

_cell_length_a		16.213711
_cell_length_b		16.205818
_cell_length_c		16.300381
_cell_angle_alpha	89.926871
_cell_angle_beta	90.068263
_cell_angle_gamma	89.734403
_symmetry_space_group_name_H-M	'P 1'
_symmetry_Int_Tables_number		1

loop_
	_symmetry_equiv_pos_as_xyz
	x,y,z

loop_
	_atom_site_label
	_atom_site_type_symbol
	_atom_site_fract_x
	_atom_site_fract_y
	_atom_site_fract_z
	H0	H	0.396186	0.836375	0.716507
	H1	H	0.594076	0.164326	0.717311
	H2	H	0.595576	0.835707	0.289029
	H3	H	0.392226	0.162611	0.286458
	H4	H	0.710955	0.400681	0.837431
	H5	H	0.710241	0.598863	0.164790
	H6	H	0.278455	0.602170	0.838252
	H7	H	0.281106	0.401660	0.163952
	H8	H	0.830073	0.715075	0.404071
	H9	H	0.159889	0.712742	0.599382
	H10	H	0.829902	0.288408	0.600696
	H11	H	0.157776	0.285190	0.403133
	H12	H	0.831513	0.403099	0.717015
	H13	H	0.158054	0.601368	0.718296
	H14	H	0.831072	0.602495	0.284402
	H15	H	0.158587	0.400114	0.288309
	H16	H	0.394090	0.717375	0.838483
	H17	H	0.594036	0.715613	0.164984
	H18	H	0.594151	0.284453	0.837631
	H19	H	0.395046	0.284595	0.163345
	H20	H	0.710544	0.836792	0.404433
	H21	H	0.707791	0.165205	0.601399
	H22	H	0.281286	0.835733	0.601543
	H23	H	0.280222	0.164245	0.404274
	H24	H	0.895889	0.336722	0.216487
	H25	H	0.095198	0.663298	0.216793
	H26	H	0.095552	0.337172	0.786505
	H27	H	0.894059	0.664642	0.787098
	H28	H	0.210227	0.901631	0.339106
	H29	H	0.207825	0.097749	0.665829
	H30	H	0.777970	0.102054	0.339257
	H31	H	0.781104	0.902526	0.665505
	H32	H	0.330535	0.214336	0.903319
	H33	H	0.658733	0.213703	0.101554
	H34	H	0.329707	0.786187	0.100626
	H35	H	0.658782	0.785971	0.904661
	H36	H	0.330647	0.899726	0.218383
	H37	H	0.658379	0.098490	0.218540
	H38	H	0.331549	0.101275	0.786390
	H39	H	0.658582	0.899827	0.787494
	H40	H	0.893741	0.217337	0.339157
	H41	H	0.092091	0.214734	0.665323
	H42	H	0.094884	0.785657	0.338362
	H43	H	0.896824	0.785984	0.665182
	H44	H	0.210206	0.336560	0.902655
	H45	H	0.208671	0.664358	0.099728
	H46	H	0.781420	0.336050	0.100499
	H47	H	0.779157	0.664117	0.902731
	H48	H	0.392900	0.121399	0.597425
	H49	H	0.586440	0.880469	0.608360
	H50	H	0.585555	0.118745	0.404727
	H51	H	0.401366	0.882865	0.410991
	H52	H	0.587752	0.403961	0.117732
	H53	H	0.591102	0.602540	0.881429
	H54	H	0.390372	0.591444	0.120257
	H55	H	0.400914	0.409313	0.884228
	H56	H	0.108232	0.596146	0.421793
	H57	H	0.880463	0.591631	0.589552
	H58	H	0.116710	0.408839	0.609528
	H59	H	0.878797	0.412047	0.411110
	H60	H	0.112901	0.395490	0.585511
	H61	H	0.877280	0.590446	0.600258
	H62	H	0.109691	0.579458	0.402453
	H63	H	0.877223	0.412504	0.405719
	H64	H	0.408331	0.583473	0.111997
	H65	H	0.593611	0.583723	0.886619
	H66	H	0.590978	0.407477	0.117583
	H67	H	0.405001	0.409355	0.885512
	H68	H	0.581503	0.115458	0.412250
	H69	H	0.577906	0.888732	0.588013
	H70	H	0.408489	0.116995	0.601253
	H71	H	0.402910	0.881986	0.408349
	H72	H	0.904586	0.614894	0.086377
	H73	H	0.094059	0.380493	0.095731
	H74	H	0.086112	0.618253	0.908107
	H75	H	0.900130	0.384198	0.916320
	H76	H	0.087329	0.903372	0.619735
	H77	H	0.085387	0.099588	0.384142
	H78	H	0.900269	0.095050	0.619247
	H79	H	0.906861	0.905236	0.385990
	H80	H	0.613619	0.092899	0.905649
	H81	H	0.380045	0.085373	0.095827
	H82	H	0.610180	0.911160	0.096027
	H83	H	0.378757	0.909218	0.912428
	H84	H	0.611773	0.905520	0.098408
	H85	H	0.375213	0.096109	0.101335
	H86	H	0.612975	0.094227	0.910478
	H87	H	0.377655	0.911487	0.906713
	H88	H	0.901660	0.095086	0.618448
	H89	H	0.093296	0.092030	0.383185
	H90	H	0.090714	0.907357	0.618860
	H91	H	0.897225	0.907125	0.383905
	H92	H	0.084907	0.616193	0.910488
	H93	H	0.084987	0.382432	0.099233
	H94	H	0.897088	0.619586	0.093893
	H95	H	0.897690	0.378849	0.901659
	H96	H	0.402670	0.114051	0.584718
	H97	H	0.600613	0.881758	0.589665
	H98	H	0.589723	0.118097	0.412251
	H99	H	0.404304	0.882731	0.410885
	H100	H	0.587230	0.408182	0.116280
	H101	H	0.576365	0.592367	0.888548
	H102	H	0.407942	0.603568	0.118893
	H103	H	0.402963	0.405371	0.883674
	H104	H	0.118082	0.603263	0.398537
	H105	H	0.876140	0.599803	0.594958
	H106	H	0.105449	0.421818	0.587632
	H107	H	0.876150	0.408097	0.409016
	H108	H	0.907111	0.617195	0.097243
	H109	H	0.087318	0.384682	0.089885
	H110	H	0.088055	0.617459	0.910518
	H111	H	0.911550	0.385105	0.906270
	H112	H	0.086392	0.907498	0.617399
	H113	H	0.083582	0.089080	0.388496
	H114	H	0.900517	0.096553	0.620355
	H115	H	0.903480	0.914404	0.387527
	H116	H	0.611068	0.089836	0.909024
	H117	H	0.378453	0.095732	0.088254
	H118	H	0.610838	0.905938	0.092113
	H119	H	0.375566	0.905201	0.907536
	C120	C	0.373138	0.008849	0.623877
	C121	C	0.616496	0.992141	0.624030
	C122	C	0.615704	0.008977	0.381239
	C123	C	0.373176	0.991132	0.381376
	C124	C	0.617106	0.378083	0.009232
	C125	C	0.616211	0.621637	0.993316
	C126	C	0.372611	0.622672	0.009672
	C127	C	0.373415	0.378788	0.991871
	C128	C	0.003248	0.622626	0.378601
	C129	C	0.986365	0.622197	0.623380
	C130	C	0.003302	0.380118	0.623165
	C131	C	0.985631	0.380204	0.380230
	C132	C	0.874169	0.509030	0.122234
	C133	C	0.117402	0.491142	0.123489
	C134	C	0.116344	0.509210	0.880290
	C135	C	0.873496	0.491485	0.879888
	C136	C	0.117163	0.877904	0.510508
	C137	C	0.115525	0.121827	0.493615
	C138	C	0.871735	0.124022	0.511074
	C139	C	0.873623	0.879552	0.493890
	C140	C	0.503924	0.121541	0.879778
	C141	C	0.485884	0.121274	0.124323
	C142	C	0.502694	0.878362	0.123805
	C143	C	0.485959	0.879006	0.880411
	C144	C	0.375702	0.885374	0.679122
	C145	C	0.613844	0.115628	0.679125
	C146	C	0.615190	0.885132	0.326455
	C147	C	0.373443	0.114030	0.325335
	C148	C	0.672723	0.380422	0.886293
	C149	C	0.672484	0.619527	0.115939
	C150	C	0.316386	0.621882	0.887169
	C151	C	0.318591	0.381018	0.115020
	C152	C	0.879472	0.677841	0.382462
	C153	C	0.110287	0.675957	0.620425
	C154	C	0.879359	0.325487	0.621072
	C155	C	0.108925	0.323535	0.382719
	C156	C	0.879992	0.382609	0.678813
	C157	C	0.109359	0.620766	0.679713
	C158	C	0.879998	0.621843	0.322962
	C159	C	0.109114	0.380668	0.325381
	C160	C	0.374142	0.679001	0.887079
	C161	C	0.614682	0.677517	0.116106
	C162	C	0.614513	0.322809	0.886192
	C163	C	0.375317	0.322730	0.114650
	C164	C	0.672502	0.885690	0.383892
	C165	C	0.670616	0.116038	0.621464
	C166	C	0.318582	0.884997	0.621856
	C167	C	0.317685	0.114703	0.383795
	C168	C	0.875790	0.385717	0.178617
	C169	C	0.114916	0.614765	0.178315
	C170	C	0.115046	0.385895	0.824652
	C171	C	0.874598	0.615513	0.825215
	C172	C	0.172486	0.880773	0.387617
	C173	C	0.170084	0.118681	0.616981
	C174	C	0.815920	0.122327	0.388135
	C175	C	0.818744	0.881755	0.616736
	C176	C	0.379745	0.176515	0.883160
	C177	C	0.609764	0.175800	0.121815
	C178	C	0.379056	0.823237	0.121769
	C179	C	0.609757	0.823874	0.883761
	C180	C	0.379377	0.879898	0.179898
	C181	C	0.609337	0.119207	0.180665
	C182	C	0.380209	0.120517	0.824870
	C183	C	0.609400	0.880183	0.825238
	C184	C	0.873541	0.179378	0.387868
	C185	C	0.112594	0.176796	0.616791
	C186	C	0.115061	0.823307	0.387284
	C187	C	0.876104	0.823682	0.616390
	C188	C	0.171961	0.385581	0.882485
	C189	C	0.171348	0.615200	0.120143
	C190	C	0.819203	0.385127	0.120800
	C191	C	0.817581	0.615203	0.882565
	C192	C	0.394948	0.095155	0.601194
	C193	C	0.594682	0.906026	0.601834
	C194	C	0.592231	0.095303	0.403165
	C195	C	0.396299	0.904666	0.403703
	C196	C	0.595078	0.400109	0.095148
	C197	C	0.593707	0.599455	0.907643
	C198	C	0.395509	0.599578	0.095140
	C199	C	0.396119	0.401516	0.906340
	C200	C	0.089779	0.599778	0.401074
	C201	C	0.900022	0.600239	0.601310
	C202	C	0.089331	0.402112	0.600860
	C203	C	0.899572	0.403768	0.402240
	C204	C	0.896393	0.595014	0.099188
	C205	C	0.095383	0.404936	0.101498
	C206	C	0.093189	0.595229	0.902990
	C207	C	0.896304	0.405004	0.901701
	C208	C	0.094913	0.899639	0.596470
	C209	C	0.093846	0.099924	0.407745
	C210	C	0.894108	0.102124	0.597015
	C211	C	0.895815	0.902367	0.407935
	C212	C	0.590230	0.098969	0.901752
	C213	C	0.400154	0.098863	0.101904
	C214	C	0.588588	0.900837	0.101967
	C215	C	0.399625	0.901959	0.902399
	Zn216	Zn	0.494329	0.000302	0.751884
	Zn217	Zn	0.494106	-0.000828	0.252949
	Zn218	Zn	0.745983	0.499750	0.001195
	Zn219	Zn	0.244838	0.500456	0.000989
	Zn220	Zn	-0.004729	0.749934	0.501636
	Zn221	Zn	-0.006027	0.251501	0.501587
	Zn222	Zn	-0.005310	0.501133	0.751850
	Zn223	Zn	-0.005563	0.500427	0.250762
	Zn224	Zn	0.493797	0.750932	0.001534
	Zn225	Zn	0.495059	0.249490	0.001037
	Zn226	Zn	0.744609	0.001483	0.502391
	Zn227	Zn	0.245289	-0.000093	0.502685
	N228	N	0.409040	0.963276	0.680246
	N229	N	0.580964	0.037481	0.680926
	N230	N	0.580590	0.962789	0.324726
	N231	N	0.407481	0.036201	0.323952
	N232	N	0.674075	0.414240	0.963700
	N233	N	0.673303	0.585294	0.038757
	N234	N	0.315451	0.587358	0.964393
	N235	N	0.317553	0.415488	0.037788
	N236	N	0.957478	0.678514	0.416199
	N237	N	0.032725	0.677094	0.586058
	N238	N	0.956965	0.323939	0.587070
	N239	N	0.031168	0.323122	0.416254
	N240	N	0.957757	0.415997	0.680168
	N241	N	0.031231	0.587879	0.681466
	N242	N	0.958131	0.588438	0.320608
	N243	N	0.031582	0.415690	0.324063
	N244	N	0.408572	0.679383	0.964176
	N245	N	0.580438	0.679050	0.038851
	N246	N	0.581052	0.321034	0.963753
	N247	N	0.408805	0.321267	0.037209
	N248	N	0.673064	0.963743	0.417053
	N249	N	0.672207	0.038433	0.587529
	N250	N	0.316830	0.962936	0.588230
	N251	N	0.317346	0.037029	0.417875
	N252	N	0.909072	0.463629	0.179577
	N253	N	0.081916	0.536795	0.180372
	N254	N	0.081039	0.463826	0.823406
	N255	N	0.908705	0.537644	0.823491
	N256	N	0.173862	0.913990	0.465188
	N257	N	0.172087	0.085225	0.539505
	N258	N	0.814610	0.088659	0.465699
	N259	N	0.817218	0.915808	0.539413
	N260	N	0.457668	0.177190	0.916786
	N261	N	0.532222	0.177658	0.087851
	N262	N	0.456626	0.822305	0.087639
	N263	N	0.531926	0.822982	0.917151
	N264	N	0.457319	0.913211	0.181803
	N265	N	0.531271	0.085889	0.182419
	N266	N	0.458233	0.086973	0.822695
	N267	N	0.531348	0.913819	0.823029
	N268	N	0.907423	0.180694	0.465240
	N269	N	0.079302	0.178875	0.539216
	N270	N	0.081498	0.821204	0.464687
	N271	N	0.909707	0.822460	0.538861
	N272	N	0.172818	0.463157	0.916404
	N273	N	0.173061	0.537295	0.086706
	N274	N	0.817720	0.462846	0.086652
	N275	N	0.816629	0.537020	0.915717
	O276	O	0.507681	0.502281	0.466335
	H277	H	0.507030	0.498551	0.466460
	H278	H	0.505927	0.498984	0.468279
	O279	O	0.570302	0.454910	0.520766
	H280	H	0.573156	0.478060	0.513843
	H281	H	0.573754	0.450665	0.522480
	O282	O	0.468799	0.567597	0.429616
	H283	H	0.463140	0.564733	0.423581
	H284	H	0.468976	0.580176	0.421923
	O285	O	-0.062315	0.929122	1.034260
	H286	H	-0.055556	0.939042	1.028014
	H287	H	-0.068298	0.929852	1.031615
	O288	O	0.573222	0.457599	0.532024
	H289	H	0.574497	0.465508	0.533361
	H290	H	0.566660	0.457309	0.542803
	O291	O	-0.022649	-0.060570	1.033742
	H292	H	-0.018711	-0.058107	1.038370
	H293	H	-0.016958	-0.048695	1.031622
	O294	O	0.633090	0.662751	0.544489
	H295	H	0.614946	0.670164	0.534809
	H296	H	0.629936	0.659440	0.539869
	O297	O	0.490027	0.483318	0.473206
	H298	H	0.486035	0.477543	0.467872
	H299	H	0.494575	0.475732	0.482000
	O300	O	0.444229	0.379502	0.537118
	H301	H	0.447541	0.372559	0.539525
	H302	H	0.450172	0.385250	0.537454
	O303	O	0.561580	0.488893	0.507242
	H304	H	0.559405	0.477957	0.511226
	H305	H	0.560113	0.482119	0.499923
	O306	O	1.448124	0.468496	0.436621
	H307	H	1.449645	0.466475	0.440091
	H308	H	1.453490	0.465792	0.433265
	O309	O	0.424908	0.528263	0.480799
	H310	H	0.431947	0.517432	0.485409
	H311	H	0.424389	0.519543	0.477547
	O312	O	0.573303	0.481640	0.448299
	H313	H	0.580791	0.472703	0.455487
	H314	H	0.575736	0.493013	0.448849
	O315	O	0.952479	-0.034133	1.022266
	H316	H	0.951778	-0.042959	1.020893
	H317	H	0.946811	-0.030095	1.027832
	O318	O	-0.061472	-0.027085	-0.001149
	H319	H	-0.058543	-0.029263	0.002326
	H320	H	-0.072308	-0.033911	0.002728
	O321	O	0.477089	0.544970	0.485921
	H322	H	0.483036	0.535819	0.481927
	H323	H	0.475507	0.540388	0.487805
	O324	O	0.982158	-0.072769	0.038716
	H325	H	0.975078	-0.081600	0.050641
	H326	H	0.975522	-0.076094	0.035099
	O327	O	0.931912	0.934265	0.045949
	H328	H	0.924942	0.932722	0.049201
	H329	H	0.939374	0.920856	0.050495
	O330	O	0.535270	0.539497	0.519509
	H331	H	0.538237	0.545402	0.527246
	H332	H	0.531150	0.543847	0.522018
	O333	O	0.433766	0.575063	0.419869
	H334	H	0.425404	0.574549	0.413976
	H335	H	0.437014	0.587101	0.414885
