data_Molecule from HDF5

_cell_length_a		16.112800
_cell_length_b		16.036267
_cell_length_c		16.446554
_cell_angle_alpha	89.821073
_cell_angle_beta	89.348931
_cell_angle_gamma	88.965532
_symmetry_space_group_name_H-M	'P 1'
_symmetry_Int_Tables_number		1

loop_
	_symmetry_equiv_pos_as_xyz
	x,y,z

loop_
	_atom_site_label
	_atom_site_type_symbol
	_atom_site_fract_x
	_atom_site_fract_y
	_atom_site_fract_z
	H0	H	0.394092	0.841342	0.729916
	H1	H	0.593472	0.169749	0.726335
	H2	H	0.602256	0.841357	0.294226
	H3	H	0.389971	0.169527	0.295483
	H4	H	0.715841	0.403743	0.849770
	H5	H	0.707459	0.604796	0.173589
	H6	H	0.279866	0.608934	0.848891
	H7	H	0.277038	0.409666	0.173872
	H8	H	0.829984	0.722372	0.416395
	H9	H	0.161338	0.710350	0.602522
	H10	H	0.828245	0.298465	0.609607
	H11	H	0.160345	0.289951	0.412748
	H12	H	0.832074	0.404834	0.731867
	H13	H	0.156982	0.606773	0.724519
	H14	H	0.831496	0.614607	0.295673
	H15	H	0.157481	0.398638	0.290447
	H16	H	0.395092	0.724924	0.850213
	H17	H	0.586839	0.718090	0.175002
	H18	H	0.597467	0.289507	0.848935
	H19	H	0.395566	0.293264	0.174458
	H20	H	0.711051	0.840341	0.413745
	H21	H	0.699680	0.173473	0.605638
	H22	H	0.286747	0.837801	0.609176
	H23	H	0.279805	0.171204	0.415072
	H24	H	0.891251	0.343449	0.232104
	H25	H	0.092461	0.670548	0.224140
	H26	H	0.100951	0.341674	0.794407
	H27	H	0.889684	0.670736	0.796262
	H28	H	0.216154	0.902971	0.350178
	H29	H	0.206621	0.102583	0.674665
	H30	H	0.778637	0.109852	0.348391
	H31	H	0.777336	0.908168	0.672943
	H32	H	0.329035	0.222837	0.915720
	H33	H	0.660003	0.214768	0.105415
	H34	H	0.326901	0.802291	0.108639
	H35	H	0.659273	0.790322	0.914590
	H36	H	0.332914	0.903585	0.232879
	H37	H	0.658695	0.105704	0.224698
	H38	H	0.330891	0.112865	0.796408
	H39	H	0.657745	0.898787	0.792922
	H40	H	0.895505	0.225746	0.349683
	H41	H	0.089103	0.218658	0.674388
	H42	H	0.097397	0.790115	0.348373
	H43	H	0.898261	0.793615	0.674321
	H44	H	0.211642	0.341265	0.912901
	H45	H	0.195843	0.675081	0.102528
	H46	H	0.784811	0.339092	0.110044
	H47	H	0.780337	0.672014	0.915262
	H48	H	0.395918	0.123638	0.598788
	H49	H	0.605468	0.881726	0.601292
	H50	H	0.584169	0.127445	0.409342
	H51	H	0.398555	0.884104	0.421404
	H52	H	0.598659	0.403116	0.131767
	H53	H	0.583088	0.592252	0.900129
	H54	H	0.397236	0.607599	0.128282
	H55	H	0.400260	0.405735	0.892125
	H56	H	0.115285	0.598409	0.411990
	H57	H	0.875478	0.596396	0.607799
	H58	H	0.115526	0.404218	0.605304
	H59	H	0.882165	0.430048	0.423253
	H60	H	0.110377	0.414081	0.595547
	H61	H	0.873251	0.601839	0.607354
	H62	H	0.111779	0.594422	0.417950
	H63	H	0.873596	0.418198	0.408810
	H64	H	0.387337	0.606005	0.131609
	H65	H	0.583653	0.604051	0.895686
	H66	H	0.591050	0.423894	0.123637
	H67	H	0.396045	0.424115	0.896462
	H68	H	0.578662	0.122571	0.417273
	H69	H	0.578379	0.884017	0.620074
	H70	H	0.396547	0.127059	0.612579
	H71	H	0.411653	0.885066	0.410230
	H72	H	0.898769	0.625385	0.101963
	H73	H	0.100026	0.382778	0.102924
	H74	H	0.081770	0.626792	0.910461
	H75	H	0.903536	0.387727	0.925816
	H76	H	0.093235	0.906350	0.628518
	H77	H	0.078626	0.098243	0.397972
	H78	H	0.890542	0.101336	0.628226
	H79	H	0.911988	0.921938	0.400235
	H80	H	0.610818	0.088558	0.916452
	H81	H	0.377947	0.093244	0.107050
	H82	H	0.609255	0.918940	0.094598
	H83	H	0.374851	0.922571	0.910503
	H84	H	0.615654	0.915921	0.115404
	H85	H	0.373602	0.101494	0.110790
	H86	H	0.614388	0.096174	0.911679
	H87	H	0.372927	0.909171	0.920131
	H88	H	0.898652	0.095801	0.625054
	H89	H	0.093115	0.104757	0.392941
	H90	H	0.089619	0.909528	0.628176
	H91	H	0.906329	0.903576	0.392690
	H92	H	0.083319	0.625413	0.916827
	H93	H	0.077586	0.386480	0.113973
	H94	H	0.897407	0.626171	0.105946
	H95	H	0.905802	0.385239	0.912918
	H96	H	0.407935	0.121932	0.606330
	H97	H	0.577595	0.893922	0.588962
	H98	H	0.588669	0.126021	0.418395
	H99	H	0.414451	0.890361	0.426418
	H100	H	0.576034	0.405962	0.125428
	H101	H	0.593904	0.596226	0.894515
	H102	H	0.393762	0.597090	0.126664
	H103	H	0.413075	0.416629	0.899400
	H104	H	0.113518	0.591380	0.411006
	H105	H	0.876191	0.600013	0.602593
	H106	H	0.113284	0.416970	0.609126
	H107	H	0.876896	0.411102	0.427949
	H108	H	0.900955	0.624276	0.105954
	H109	H	0.080280	0.392459	0.090337
	H110	H	0.088108	0.627491	0.912767
	H111	H	0.915987	0.390439	0.920001
	H112	H	0.088968	0.904694	0.628419
	H113	H	0.092443	0.088661	0.398130
	H114	H	0.899282	0.106089	0.626520
	H115	H	0.892401	0.920144	0.392908
	H116	H	0.611989	0.097703	0.920099
	H117	H	0.377066	0.101162	0.101385
	H118	H	0.616028	0.897912	0.102090
	H119	H	0.379329	0.922752	0.926449
	C120	C	0.372833	0.014427	0.634249
	C121	C	0.613702	0.996583	0.631143
	C122	C	0.615993	0.015594	0.387760
	C123	C	0.375861	0.996404	0.391140
	C124	C	0.619194	0.381816	0.019852
	C125	C	0.614323	0.626622	1.003741
	C126	C	0.367612	0.631803	0.020825
	C127	C	0.372887	0.386642	1.003607
	C128	C	0.004459	0.627304	0.387651
	C129	C	0.984757	0.626406	0.631771
	C130	C	0.003944	0.384290	0.633130
	C131	C	0.985969	0.386273	0.389920
	C132	C	0.871771	0.515503	0.134072
	C133	C	0.112666	0.497442	0.130099
	C134	C	0.116300	0.516384	0.886532
	C135	C	0.875714	0.496854	0.890579
	C136	C	0.120049	0.879679	0.520438
	C137	C	0.115085	0.125438	0.503824
	C138	C	0.869067	0.131167	0.519748
	C139	C	0.874030	0.885778	0.502786
	C140	C	0.503482	0.126810	0.888952
	C141	C	0.485477	0.126332	0.132922
	C142	C	0.504039	0.884573	0.133658
	C143	C	0.485092	0.885476	0.890134
	C144	C	0.375210	0.890127	0.690684
	C145	C	0.611699	0.121011	0.687111
	C146	C	0.619340	0.890743	0.332801
	C147	C	0.372832	0.120528	0.334711
	C148	C	0.676800	0.383885	0.897990
	C149	C	0.669160	0.624830	0.125491
	C150	C	0.315755	0.629493	0.897994
	C151	C	0.316261	0.389475	0.125620
	C152	C	0.879749	0.685198	0.393435
	C153	C	0.110727	0.676489	0.625236
	C154	C	0.878516	0.333196	0.631080
	C155	C	0.110516	0.328007	0.391861
	C156	C	0.880538	0.386137	0.691622
	C157	C	0.108557	0.624697	0.685884
	C158	C	0.880406	0.631208	0.333883
	C159	C	0.109126	0.382259	0.331256
	C160	C	0.373443	0.687049	0.898533
	C161	C	0.609022	0.681148	0.126304
	C162	C	0.618150	0.326695	0.897643
	C163	C	0.375074	0.331189	0.125987
	C164	C	0.673604	0.890236	0.391938
	C165	C	0.664906	0.122972	0.627113
	C166	C	0.321836	0.888367	0.630532
	C167	C	0.317813	0.121409	0.394082
	C168	C	0.872975	0.392059	0.192264
	C169	C	0.110713	0.621862	0.185437
	C170	C	0.118632	0.391257	0.832586
	C171	C	0.872251	0.621173	0.834532
	C172	C	0.177243	0.882893	0.398489
	C173	C	0.168749	0.122745	0.626199
	C174	C	0.816021	0.129421	0.397142
	C175	C	0.816970	0.888445	0.624870
	C176	C	0.378830	0.185055	0.893820
	C177	C	0.610319	0.179152	0.127617
	C178	C	0.377970	0.835403	0.130576
	C179	C	0.609541	0.827838	0.892941
	C180	C	0.380990	0.885960	0.192357
	C181	C	0.609436	0.124913	0.187113
	C182	C	0.379821	0.130337	0.834572
	C183	C	0.608745	0.881804	0.832522
	C184	C	0.873687	0.187500	0.397883
	C185	C	0.110355	0.180629	0.626081
	C186	C	0.118354	0.826561	0.397572
	C187	C	0.877008	0.831126	0.625261
	C188	C	0.173820	0.391111	0.891360
	C189	C	0.162182	0.624105	0.124912
	C190	C	0.819884	0.389799	0.131667
	C191	C	0.817846	0.622098	0.893801
	C192	C	0.393688	0.101790	0.612405
	C193	C	0.593213	0.909284	0.609774
	C194	C	0.591129	0.102863	0.408862
	C195	C	0.400815	0.909201	0.413003
	C196	C	0.595363	0.404159	0.105080
	C197	C	0.593267	0.604113	0.918800
	C198	C	0.387122	0.610142	0.106645
	C199	C	0.396306	0.408871	0.918109
	C200	C	0.091257	0.602043	0.407697
	C201	C	0.897581	0.605658	0.611723
	C202	C	0.090478	0.405446	0.610066
	C203	C	0.899780	0.412264	0.413342
	C204	C	0.893019	0.602758	0.111385
	C205	C	0.092185	0.409939	0.108770
	C206	C	0.091576	0.603871	0.906946
	C207	C	0.900965	0.410124	0.913102
	C208	C	0.097321	0.900520	0.606234
	C209	C	0.094302	0.103594	0.418570
	C210	C	0.889955	0.107983	0.604602
	C211	C	0.896959	0.908683	0.417390
	C212	C	0.590037	0.101604	0.909865
	C213	C	0.398783	0.104998	0.112499
	C214	C	0.591302	0.904945	0.110939
	C215	C	0.398212	0.910750	0.912494
	Zn216	Zn	0.494647	0.005796	0.760968
	Zn217	Zn	0.495529	0.004957	0.260947
	Zn218	Zn	0.746893	0.505028	0.011374
	Zn219	Zn	0.240559	0.507960	0.010941
	Zn220	Zn	-0.004197	0.753030	0.510566
	Zn221	Zn	-0.006237	0.257846	0.511581
	Zn222	Zn	-0.005248	0.506389	0.760294
	Zn223	Zn	-0.005480	0.506999	0.259589
	Zn224	Zn	0.492495	0.758281	0.012900
	Zn225	Zn	0.494846	0.254215	0.011505
	Zn226	Zn	0.741171	0.007451	0.510204
	Zn227	Zn	0.246843	0.004260	0.512467
	N228	N	0.406197	0.969596	0.693263
	N229	N	0.580729	0.041565	0.690000
	N230	N	0.584237	0.969611	0.330131
	N231	N	0.408202	0.041705	0.332816
	N232	N	0.677578	0.417130	0.975121
	N233	N	0.672516	0.591345	0.048460
	N234	N	0.312029	0.595768	0.974914
	N235	N	0.315006	0.423008	0.048388
	N236	N	0.957766	0.682863	0.426286
	N237	N	0.032712	0.677674	0.591934
	N238	N	0.956186	0.331845	0.595429
	N239	N	0.032791	0.330264	0.427439
	N240	N	0.959687	0.417131	0.693180
	N241	N	0.029314	0.594132	0.690119
	N242	N	0.958972	0.595866	0.330088
	N243	N	0.030692	0.417788	0.329809
	N244	N	0.405118	0.688701	0.975951
	N245	N	0.575645	0.682483	0.049662
	N246	N	0.582732	0.325481	0.974274
	N247	N	0.409693	0.329363	0.049050
	N248	N	0.671580	0.968873	0.425550
	N249	N	0.666339	0.044727	0.592967
	N250	N	0.320094	0.966656	0.596133
	N251	N	0.319393	0.043084	0.428271
	N252	N	0.904288	0.471493	0.193918
	N253	N	0.080512	0.542075	0.188925
	N254	N	0.083933	0.470187	0.829353
	N255	N	0.907574	0.542295	0.832405
	N256	N	0.178564	0.915210	0.476052
	N257	N	0.171655	0.089093	0.549295
	N258	N	0.812739	0.095135	0.473924
	N259	N	0.814790	0.921271	0.547445
	N260	N	0.456875	0.183145	0.927120
	N261	N	0.532268	0.180363	0.094431
	N262	N	0.455613	0.834123	0.094650
	N263	N	0.531613	0.829967	0.927941
	N264	N	0.460548	0.915884	0.194371
	N265	N	0.530821	0.092856	0.190652
	N266	N	0.458210	0.094695	0.831522
	N267	N	0.530240	0.917221	0.830856
	N268	N	0.905653	0.188943	0.475029
	N269	N	0.077434	0.182307	0.549172
	N270	N	0.083480	0.824341	0.474282
	N271	N	0.911973	0.829727	0.548377
	N272	N	0.172661	0.470141	0.924108
	N273	N	0.163645	0.545795	0.091081
	N274	N	0.818778	0.467662	0.096324
	N275	N	0.819754	0.543753	0.928184
	O276	O	-0.107537	-0.018224	-0.046691
	H277	H	-0.114351	-0.028030	-0.038429
	H278	H	-0.095063	-0.005194	-0.057165
	O279	O	0.534292	0.425063	0.542557
	H280	H	0.548715	0.414134	0.543963
	H281	H	0.533895	0.425942	0.529290
	O282	O	0.478620	0.469358	0.407628
	H283	H	0.480061	0.474440	0.409148
	H284	H	0.473248	0.463600	0.403225
	O285	O	-0.047411	0.935092	1.115521
	H286	H	-0.049668	0.940322	1.117611
	H287	H	-0.044101	0.940029	1.104557
	O288	O	0.457754	0.411650	0.523149
	H289	H	0.469410	0.405402	0.523080
	H290	H	0.457865	0.406323	0.518147
	O291	O	0.482224	1.515635	0.502621
	H292	H	0.486113	1.504749	0.516494
	H293	H	0.479897	1.513009	0.498360
	O294	O	1.537297	0.522338	0.455879
	H295	H	1.536135	0.518493	0.459863
	H296	H	1.523884	0.529402	0.458184
	O297	O	0.976250	0.079900	1.018166
	H298	H	0.977294	0.083511	1.008229
	H299	H	0.965304	0.071637	1.013122
	O300	O	0.502680	0.459730	0.581289
	H301	H	0.509853	0.458451	0.582483
	H302	H	0.503315	0.459565	0.583438
	O303	O	0.986314	0.112190	0.020333
	H304	H	0.988357	0.104423	0.027666
	H305	H	0.985741	0.108956	0.016007
	O306	O	-0.055015	0.902187	0.984426
	H307	H	-0.057207	0.910572	0.980444
	H308	H	-0.047039	0.902505	0.987387
	O309	O	0.482476	0.555683	0.473504
	H310	H	0.481038	0.572899	0.464849
	H311	H	0.474111	0.564570	0.470093
	O312	O	1.067267	-0.066109	0.956715
	H313	H	1.063463	-0.062611	0.964173
	H314	H	1.065245	-0.075012	0.963201
	O315	O	0.047702	-0.028497	-0.052773
	H316	H	0.052072	-0.027276	-0.067837
	H317	H	0.043591	-0.037032	-0.059700
	O318	O	0.448042	0.422362	0.542299
	H319	H	0.453069	0.430932	0.537215
	H320	H	0.437162	0.410941	0.545362
	O321	O	1.038349	0.934126	0.980907
	H322	H	1.036226	0.931346	0.980029
	H323	H	1.041611	0.924482	0.978819
	O324	O	0.920863	0.069663	-0.017626
	H325	H	0.928753	0.078241	-0.015647
	H326	H	0.916898	0.072190	-0.013414
	O327	O	0.473497	0.614863	0.562628
	H328	H	0.480103	0.614960	0.554785
	H329	H	0.473025	0.611573	0.564875
	O330	O	0.998235	-0.012179	1.085718
	H331	H	0.996917	-0.014731	1.094828
	H332	H	0.996664	-0.007265	1.083957
	O333	O	0.979414	1.086181	-0.918175
	H334	H	0.986135	1.084295	-0.917284
	H335	H	0.976635	1.083732	-0.920906
	O336	O	0.979190	1.080176	0.983223
	H337	H	0.982953	1.083823	0.981049
	H338	H	0.978581	1.073225	0.981604
	O339	O	0.500253	0.476964	0.457548
	H340	H	0.497788	0.476061	0.459080
	H341	H	0.493796	0.476971	0.458883
	O342	O	-0.038165	1.068349	-0.037565
	H343	H	-0.036977	1.070684	-0.028583
	H344	H	-0.046639	1.070390	-0.040928
	O345	O	0.053573	0.026108	-0.148587
	H346	H	0.054704	0.028481	-0.145702
	H347	H	0.048260	0.017134	-0.156925
	O348	O	0.447351	0.512258	0.621978
	H349	H	0.447304	0.510358	0.627191
	H350	H	0.456700	0.497391	0.621080
	O351	O	0.542322	0.486636	0.379993
	H352	H	0.549756	0.477485	0.372489
	H353	H	0.532273	0.500518	0.390936
	O354	O	0.532674	0.411349	0.516380
	H355	H	0.533728	0.412940	0.510998
	H356	H	0.538128	0.423594	0.512110
	O357	O	0.433980	0.514673	0.431286
	H358	H	0.433319	0.511171	0.432960
	H359	H	0.419526	0.523513	0.426786
	O360	O	0.065382	-0.025920	0.142193
	H361	H	0.052942	-0.009536	0.156855
	H362	H	0.052744	-0.030447	0.137554
	O363	O	0.498483	0.429353	0.501450
	H364	H	0.501323	0.428759	0.504385
	H365	H	0.505117	0.416521	0.505566
	O366	O	0.107529	0.013843	1.009663
	H367	H	0.113469	0.026137	1.006939
	H368	H	0.115089	0.013570	1.008473
	O369	O	0.508980	0.521928	0.602399
	H370	H	0.502687	0.528653	0.596550
	H371	H	0.507622	0.533579	0.616945
