data_Molecule from HDF5

_cell_length_a		16.287800
_cell_length_b		16.134164
_cell_length_c		16.333237
_cell_angle_alpha	90.075836
_cell_angle_beta	89.967897
_cell_angle_gamma	89.941510
_symmetry_space_group_name_H-M	'P 1'
_symmetry_Int_Tables_number		1

loop_
	_symmetry_equiv_pos_as_xyz
	x,y,z

loop_
	_atom_site_label
	_atom_site_type_symbol
	_atom_site_fract_x
	_atom_site_fract_y
	_atom_site_fract_z
	H0	H	0.404393	0.834101	0.717250
	H1	H	0.601689	0.164793	0.717683
	H2	H	0.602502	0.834687	0.289195
	H3	H	0.403129	0.164026	0.288641
	H4	H	0.719303	0.397267	0.840789
	H5	H	0.719348	0.601209	0.165571
	H6	H	0.287057	0.599209	0.840189
	H7	H	0.286626	0.399291	0.166086
	H8	H	0.838919	0.713637	0.406234
	H9	H	0.167828	0.712687	0.600441
	H10	H	0.838900	0.286427	0.600111
	H11	H	0.167647	0.286772	0.406550
	H12	H	0.839276	0.399839	0.718259
	H13	H	0.166248	0.599949	0.719363
	H14	H	0.840185	0.601255	0.286755
	H15	H	0.166562	0.399964	0.288255
	H16	H	0.406690	0.712850	0.838803
	H17	H	0.599193	0.713104	0.166857
	H18	H	0.600333	0.284778	0.840484
	H19	H	0.406526	0.287927	0.167234
	H20	H	0.716423	0.834118	0.405552
	H21	H	0.717032	0.164938	0.602699
	H22	H	0.289524	0.834341	0.601502
	H23	H	0.290509	0.164780	0.406433
	H24	H	0.903444	0.334936	0.218776
	H25	H	0.100885	0.664108	0.217047
	H26	H	0.100889	0.334972	0.789473
	H27	H	0.902650	0.663905	0.788966
	H28	H	0.219400	0.899800	0.340143
	H29	H	0.219187	0.099356	0.666204
	H30	H	0.787503	0.098498	0.340628
	H31	H	0.787165	0.900275	0.666042
	H32	H	0.338271	0.211595	0.908686
	H33	H	0.667884	0.213388	0.100949
	H34	H	0.338517	0.787415	0.099696
	H35	H	0.666866	0.785958	0.906287
	H36	H	0.340175	0.900231	0.218879
	H37	H	0.666638	0.099755	0.219403
	H38	H	0.339964	0.100252	0.787882
	H39	H	0.666023	0.898289	0.787347
	H40	H	0.905911	0.212721	0.339034
	H41	H	0.099876	0.213232	0.667187
	H42	H	0.101077	0.785220	0.339855
	H43	H	0.907140	0.787895	0.667670
	H44	H	0.216716	0.334832	0.903874
	H45	H	0.215396	0.664303	0.101099
	H46	H	0.789074	0.334213	0.102164
	H47	H	0.788575	0.664217	0.905316
	H48	H	0.403400	0.120257	0.600424
	H49	H	0.599009	0.884234	0.588270
	H50	H	0.590694	0.116415	0.407510
	H51	H	0.406360	0.881333	0.415227
	H52	H	0.591367	0.409301	0.117548
	H53	H	0.600739	0.601129	0.882961
	H54	H	0.403334	0.591757	0.120457
	H55	H	0.408716	0.408255	0.887231
	H56	H	0.122545	0.595160	0.403459
	H57	H	0.888167	0.585328	0.599980
	H58	H	0.119794	0.404280	0.592664
	H59	H	0.885825	0.407625	0.408712
	H60	H	0.118055	0.412667	0.597720
	H61	H	0.882977	0.599006	0.602225
	H62	H	0.117822	0.594286	0.416322
	H63	H	0.885632	0.405778	0.409918
	H64	H	0.411295	0.589071	0.116987
	H65	H	0.602426	0.582231	0.887729
	H66	H	0.597442	0.401872	0.121592
	H67	H	0.409944	0.406129	0.886873
	H68	H	0.594347	0.115059	0.416665
	H69	H	0.601561	0.879014	0.601956
	H70	H	0.419492	0.115186	0.601491
	H71	H	0.409325	0.879240	0.403355
	H72	H	0.906972	0.615315	0.086771
	H73	H	0.101819	0.379116	0.096576
	H74	H	0.090455	0.615725	0.913231
	H75	H	0.906876	0.381375	0.910559
	H76	H	0.100228	0.904134	0.620043
	H77	H	0.094941	0.090012	0.388058
	H78	H	0.915326	0.092084	0.617861
	H79	H	0.906249	0.898653	0.383909
	H80	H	0.616889	0.094038	0.918875
	H81	H	0.381714	0.102242	0.104506
	H82	H	0.620371	0.905338	0.096553
	H83	H	0.389597	0.917236	0.910953
	H84	H	0.619131	0.908679	0.096098
	H85	H	0.389941	0.094235	0.086810
	H86	H	0.617705	0.082628	0.907066
	H87	H	0.382111	0.903735	0.898210
	H88	H	0.907165	0.097516	0.621223
	H89	H	0.097278	0.096674	0.385645
	H90	H	0.099114	0.910173	0.619277
	H91	H	0.903211	0.913997	0.387779
	H92	H	0.100467	0.618189	0.913142
	H93	H	0.091713	0.380473	0.101284
	H94	H	0.905457	0.620761	0.103130
	H95	H	0.911735	0.380713	0.906461
	H96	H	0.410791	0.113889	0.586788
	H97	H	0.587834	0.884097	0.598444
	H98	H	0.599924	0.118470	0.409640
	H99	H	0.417368	0.883981	0.411352
	H100	H	0.600509	0.411961	0.119419
	H101	H	0.585259	0.591616	0.890395
	H102	H	0.410373	0.597986	0.119999
	H103	H	0.407562	0.406026	0.887063
	H104	H	0.117540	0.583802	0.408152
	H105	H	0.888454	0.595399	0.589420
	H106	H	0.121344	0.404753	0.602793
	H107	H	0.886794	0.407508	0.411046
	H108	H	0.920075	0.614156	0.097155
	H109	H	0.093202	0.383391	0.091375
	H110	H	0.094917	0.619648	0.904214
	H111	H	0.912415	0.382446	0.913082
	H112	H	0.094157	0.906461	0.619035
	H113	H	0.102288	0.090585	0.386211
	H114	H	0.905970	0.087605	0.618496
	H115	H	0.918228	0.907542	0.389766
	H116	H	0.623216	0.098543	0.904061
	H117	H	0.388345	0.082479	0.103046
	H118	H	0.619831	0.907889	0.098917
	H119	H	0.386086	0.898295	0.916929
	C120	C	0.382287	0.007560	0.624834
	C121	C	0.624829	0.991291	0.624830
	C122	C	0.624129	0.007671	0.382683
	C123	C	0.382454	0.990744	0.382345
	C124	C	0.625051	0.377953	0.011703
	C125	C	0.624692	0.620954	0.994660
	C126	C	0.380181	0.621714	0.011360
	C127	C	0.380342	0.377835	0.994863
	C128	C	0.011297	0.620895	0.381349
	C129	C	0.994945	0.621591	0.625601
	C130	C	0.011153	0.378434	0.625256
	C131	C	0.994563	0.378214	0.381695
	C132	C	0.881411	0.507723	0.124828
	C133	C	0.124003	0.490470	0.124553
	C134	C	0.123425	0.508381	0.882013
	C135	C	0.881424	0.490781	0.881729
	C136	C	0.125837	0.877875	0.511569
	C137	C	0.125913	0.120967	0.494884
	C138	C	0.881399	0.120920	0.511293
	C139	C	0.881305	0.878255	0.495120
	C140	C	0.511386	0.120982	0.882070
	C141	C	0.495063	0.121832	0.126191
	C142	C	0.511463	0.878207	0.125268
	C143	C	0.494484	0.878049	0.881099
	C144	C	0.384415	0.883383	0.679558
	C145	C	0.622307	0.115436	0.680070
	C146	C	0.622620	0.883800	0.327234
	C147	C	0.383859	0.114989	0.327081
	C148	C	0.680915	0.378001	0.889372
	C149	C	0.680402	0.619943	0.117418
	C150	C	0.325485	0.619393	0.888534
	C151	C	0.325213	0.379953	0.117367
	C152	C	0.888088	0.676488	0.384843
	C153	C	0.118585	0.675538	0.621731
	C154	C	0.887716	0.323808	0.621294
	C155	C	0.118447	0.323917	0.385125
	C156	C	0.888044	0.380213	0.680013
	C157	C	0.117554	0.619791	0.681177
	C158	C	0.888582	0.620452	0.325389
	C159	C	0.117799	0.380127	0.326273
	C160	C	0.385006	0.675706	0.887783
	C161	C	0.621016	0.675936	0.117887
	C162	C	0.621831	0.322098	0.888986
	C163	C	0.384756	0.324227	0.118053
	C164	C	0.679379	0.883598	0.384875
	C165	C	0.679396	0.115673	0.622634
	C166	C	0.327208	0.883386	0.622201
	C167	C	0.327813	0.115433	0.385454
	C168	C	0.883294	0.383798	0.180194
	C169	C	0.121141	0.615023	0.179031
	C170	C	0.121200	0.384207	0.827158
	C171	C	0.883198	0.614997	0.827225
	C172	C	0.181097	0.879534	0.388729
	C173	C	0.180821	0.119269	0.617758
	C174	C	0.825918	0.118578	0.388795
	C175	C	0.825925	0.880083	0.617831
	C176	C	0.387680	0.175368	0.886150
	C177	C	0.618537	0.176410	0.122470
	C178	C	0.387814	0.824339	0.120792
	C179	C	0.618037	0.823350	0.885041
	C180	C	0.388635	0.880063	0.180296
	C181	C	0.618173	0.119769	0.180954
	C182	C	0.388271	0.119431	0.826740
	C183	C	0.617562	0.879427	0.826120
	C184	C	0.884799	0.175301	0.388024
	C185	C	0.121706	0.175713	0.618338
	C186	C	0.122108	0.823132	0.388397
	C187	C	0.885358	0.824127	0.618432
	C188	C	0.178441	0.383968	0.884121
	C189	C	0.177736	0.615126	0.121300
	C190	C	0.826829	0.383485	0.122080
	C191	C	0.826638	0.615226	0.884901
	C192	C	0.404632	0.094080	0.602776
	C193	C	0.602627	0.904719	0.602678
	C194	C	0.601739	0.094312	0.404846
	C195	C	0.404407	0.903906	0.403657
	C196	C	0.603047	0.401080	0.097341
	C197	C	0.602743	0.598309	0.909303
	C198	C	0.401898	0.599538	0.097019
	C199	C	0.402109	0.400235	0.909040
	C200	C	0.097106	0.597957	0.403049
	C201	C	0.908695	0.599800	0.603651
	C202	C	0.097194	0.400599	0.603770
	C203	C	0.908504	0.400514	0.403333
	C204	C	0.904035	0.594384	0.102286
	C205	C	0.101970	0.403516	0.102960
	C206	C	0.101716	0.595363	0.903845
	C207	C	0.903696	0.403930	0.903557
	C208	C	0.104173	0.900239	0.597440
	C209	C	0.104595	0.098891	0.408928
	C210	C	0.903168	0.098987	0.597056
	C211	C	0.902850	0.900247	0.409202
	C212	C	0.597238	0.098285	0.903515
	C213	C	0.408888	0.099441	0.104585
	C214	C	0.597701	0.900750	0.103722
	C215	C	0.408267	0.900108	0.902332
	Zn216	Zn	0.503546	-0.000627	0.752687
	Zn217	Zn	0.503268	-0.000440	0.254240
	Zn218	Zn	0.753581	0.499355	0.002982
	Zn219	Zn	0.251437	0.499303	0.002935
	Zn220	Zn	0.003631	0.749644	0.503615
	Zn221	Zn	0.003443	0.249613	0.503174
	Zn222	Zn	0.002599	0.499743	0.754162
	Zn223	Zn	0.002959	0.499433	0.252701
	Zn224	Zn	0.503221	0.750087	0.002951
	Zn225	Zn	0.503135	0.249567	0.003743
	Zn226	Zn	0.752299	-0.000214	0.503702
	Zn227	Zn	0.254717	-0.000789	0.503443
	N228	N	0.417972	0.961594	0.681215
	N229	N	0.589004	0.037079	0.681478
	N230	N	0.588978	0.961956	0.325657
	N231	N	0.417047	0.036507	0.325016
	N232	N	0.682817	0.412252	0.966683
	N233	N	0.682972	0.586620	0.039808
	N234	N	0.322439	0.586587	0.966178
	N235	N	0.322534	0.412675	0.039722
	N236	N	0.965438	0.676991	0.418752
	N237	N	0.041226	0.676908	0.587965
	N238	N	0.965319	0.322335	0.588042
	N239	N	0.040818	0.322298	0.418798
	N240	N	0.965769	0.413617	0.682467
	N241	N	0.039604	0.586899	0.683574
	N242	N	0.966067	0.586360	0.323333
	N243	N	0.039827	0.413119	0.324017
	N244	N	0.418576	0.677214	0.965107
	N245	N	0.587096	0.676598	0.040738
	N246	N	0.587632	0.322050	0.966089
	N247	N	0.418232	0.322751	0.040794
	N248	N	0.680156	0.961718	0.418876
	N249	N	0.680921	0.037548	0.588895
	N250	N	0.325926	0.961567	0.588749
	N251	N	0.326857	0.037276	0.419075
	N252	N	0.916874	0.462085	0.181770
	N253	N	0.088208	0.536459	0.181032
	N254	N	0.087693	0.462504	0.825845
	N255	N	0.916432	0.536637	0.825211
	N256	N	0.183465	0.912778	0.466317
	N257	N	0.183532	0.086102	0.540118
	N258	N	0.823879	0.085524	0.466375
	N259	N	0.823313	0.912902	0.540282
	N260	N	0.465086	0.176360	0.919886
	N261	N	0.540931	0.177696	0.089130
	N262	N	0.465469	0.822977	0.087240
	N263	N	0.540570	0.822319	0.918453
	N264	N	0.466448	0.912870	0.182948
	N265	N	0.540452	0.086388	0.183383
	N266	N	0.466172	0.086276	0.824164
	N267	N	0.539681	0.912682	0.823611
	N268	N	0.918533	0.176977	0.465180
	N269	N	0.087940	0.176714	0.541128
	N270	N	0.088543	0.822005	0.465765
	N271	N	0.919309	0.823115	0.541163
	N272	N	0.179964	0.462257	0.917609
	N273	N	0.179700	0.536647	0.088246
	N274	N	0.825457	0.461722	0.088532
	N275	N	0.825580	0.537015	0.918354
	O276	O	-0.503040	0.441872	1.464510
	H277	H	-0.501489	0.444888	1.484172
	H278	H	-0.504434	0.446223	1.463852
	O279	O	0.530198	0.498865	0.516537
	H280	H	0.532426	0.512612	0.520851
	H281	H	0.527722	0.499398	0.529017
	O282	O	0.513325	0.431367	-0.557418
	H283	H	0.513219	0.425623	-0.562134
	H284	H	0.526549	0.421971	-0.558748
	O285	O	0.549300	0.495575	0.511777
	H286	H	0.548922	0.505075	0.502028
	H287	H	0.559623	0.493852	0.509786
	O288	O	0.519093	0.505245	0.462676
	H289	H	0.506271	0.509215	0.464382
	H290	H	0.522969	0.501471	0.460460
	O291	O	-0.472124	1.462968	0.436598
	H292	H	-0.468039	1.464482	0.430521
	H293	H	-0.469759	1.459219	0.435779
	O294	O	0.536317	0.519988	0.435514
	H295	H	0.537947	0.517413	0.434723
	H296	H	0.530964	0.514819	0.426343
	O297	O	1.522974	-0.478888	0.515671
	H298	H	1.530766	-0.484109	0.507660
	H299	H	1.513587	-0.479756	0.512200
