data_Molecule from HDF5

_cell_length_a		16.271922
_cell_length_b		16.285314
_cell_length_c		16.107600
_cell_angle_alpha	90.062755
_cell_angle_beta	89.825746
_cell_angle_gamma	89.946693
_symmetry_space_group_name_H-M	'P 1'
_symmetry_Int_Tables_number		1

loop_
	_symmetry_equiv_pos_as_xyz
	x,y,z

loop_
	_atom_site_label
	_atom_site_type_symbol
	_atom_site_fract_x
	_atom_site_fract_y
	_atom_site_fract_z
	H0	H	0.418401	0.845028	0.702070
	H1	H	0.612008	0.174502	0.700650
	H2	H	0.613226	0.845328	0.275903
	H3	H	0.419095	0.173558	0.275483
	H4	H	0.732602	0.410249	0.824028
	H5	H	0.729034	0.609272	0.153383
	H6	H	0.302472	0.608468	0.824235
	H7	H	0.302039	0.410202	0.153945
	H8	H	0.851825	0.725543	0.390061
	H9	H	0.179483	0.725108	0.587941
	H10	H	0.852192	0.294119	0.591608
	H11	H	0.178447	0.294348	0.387803
	H12	H	0.851530	0.413208	0.704376
	H13	H	0.181097	0.607296	0.702082
	H14	H	0.850858	0.606250	0.276766
	H15	H	0.179354	0.412017	0.275126
	H16	H	0.419287	0.721954	0.823172
	H17	H	0.615967	0.724171	0.153205
	H18	H	0.616649	0.296108	0.823168
	H19	H	0.416783	0.296500	0.153273
	H20	H	0.732056	0.846669	0.388520
	H21	H	0.731601	0.172926	0.589645
	H22	H	0.299951	0.845740	0.588863
	H23	H	0.301281	0.172714	0.388809
	H24	H	0.918000	0.345654	0.202511
	H25	H	0.112084	0.673835	0.201511
	H26	H	0.114793	0.346157	0.773852
	H27	H	0.918180	0.673663	0.776730
	H28	H	0.229244	0.911203	0.323332
	H29	H	0.230683	0.109667	0.653510
	H30	H	0.802443	0.108676	0.324439
	H31	H	0.803007	0.912252	0.654045
	H32	H	0.353295	0.226901	0.887213
	H33	H	0.679416	0.227221	0.089580
	H34	H	0.353832	0.794127	0.089260
	H35	H	0.679602	0.793100	0.886350
	H36	H	0.352366	0.912719	0.200789
	H37	H	0.680363	0.107974	0.202525
	H38	H	0.351752	0.106173	0.776571
	H39	H	0.680968	0.913394	0.775367
	H40	H	0.917417	0.221741	0.324200
	H41	H	0.114904	0.224868	0.653778
	H42	H	0.114818	0.796052	0.323650
	H43	H	0.916622	0.796909	0.653712
	H44	H	0.231574	0.346488	0.888124
	H45	H	0.230617	0.672827	0.089500
	H46	H	0.798202	0.347428	0.091855
	H47	H	0.800563	0.672917	0.889505
	H48	H	0.424764	0.124350	0.579029
	H49	H	0.601214	0.896513	0.574041
	H50	H	0.612728	0.127248	0.394629
	H51	H	0.427261	0.893686	0.396990
	H52	H	0.601051	0.424277	0.101957
	H53	H	0.612036	0.598917	0.870237
	H54	H	0.413180	0.603642	0.110422
	H55	H	0.409364	0.418225	0.866374
	H56	H	0.131197	0.601578	0.397869
	H57	H	0.897785	0.605984	0.587895
	H58	H	0.130433	0.418801	0.577233
	H59	H	0.898814	0.412488	0.402706
	H60	H	0.131489	0.419827	0.584253
	H61	H	0.899751	0.607300	0.578893
	H62	H	0.132049	0.602461	0.392373
	H63	H	0.900298	0.421735	0.397206
	H64	H	0.426447	0.595106	0.103132
	H65	H	0.604973	0.601215	0.871537
	H66	H	0.604808	0.409802	0.107581
	H67	H	0.430453	0.431500	0.877067
	H68	H	0.606734	0.126253	0.395203
	H69	H	0.621607	0.891039	0.576552
	H70	H	0.418497	0.126733	0.580439
	H71	H	0.415673	0.891164	0.398211
	H72	H	0.914079	0.626600	0.077136
	H73	H	0.110394	0.390862	0.089296
	H74	H	0.104911	0.624357	0.898438
	H75	H	0.918336	0.391729	0.899806
	H76	H	0.105913	0.916868	0.605995
	H77	H	0.103623	0.102487	0.372709
	H78	H	0.928656	0.091893	0.602829
	H79	H	0.929053	0.919340	0.372985
	H80	H	0.632089	0.098798	0.894092
	H81	H	0.400807	0.103411	0.079275
	H82	H	0.632198	0.925515	0.086371
	H83	H	0.402941	0.918945	0.905666
	H84	H	0.638509	0.906688	0.087358
	H85	H	0.400072	0.103222	0.082369
	H86	H	0.635824	0.107175	0.892613
	H87	H	0.398496	0.921567	0.887967
	H88	H	0.930015	0.113977	0.609166
	H89	H	0.111250	0.106655	0.369275
	H90	H	0.110054	0.914942	0.607371
	H91	H	0.924122	0.911646	0.368743
	H92	H	0.114457	0.626836	0.901422
	H93	H	0.103505	0.394679	0.079491
	H94	H	0.921072	0.629185	0.090537
	H95	H	0.927435	0.392779	0.892601
	H96	H	0.422419	0.126557	0.585024
	H97	H	0.608811	0.890395	0.593018
	H98	H	0.609668	0.126383	0.399265
	H99	H	0.420699	0.889809	0.388083
	H100	H	0.616213	0.421558	0.108649
	H101	H	0.610352	0.606256	0.868414
	H102	H	0.428531	0.611354	0.108046
	H103	H	0.432913	0.404717	0.868857
	H104	H	0.133125	0.606724	0.396404
	H105	H	0.900643	0.599269	0.581975
	H106	H	0.132593	0.413144	0.581140
	H107	H	0.895462	0.413038	0.391537
	H108	H	0.929723	0.623506	0.079231
	H109	H	0.116122	0.391335	0.077519
	H110	H	0.111501	0.628932	0.891705
	H111	H	0.927548	0.396771	0.903182
	H112	H	0.109587	0.919701	0.607321
	H113	H	0.111450	0.098353	0.370936
	H114	H	0.910283	0.102965	0.611351
	H115	H	0.919226	0.921352	0.370394
	H116	H	0.631661	0.105355	0.900929
	H117	H	0.399331	0.105161	0.080740
	H118	H	0.632231	0.914625	0.069946
	H119	H	0.396470	0.905550	0.894846
	C120	C	0.393882	0.017383	0.610196
	C121	C	0.637870	1.001344	0.609904
	C122	C	0.638543	0.018400	0.367045
	C123	C	0.393741	1.000372	0.366524
	C124	C	0.637456	0.389082	-0.002902
	C125	C	0.637497	0.630833	0.979462
	C126	C	0.394292	0.631626	-0.002167
	C127	C	0.395129	0.389165	0.979950
	C128	C	0.023973	0.631842	0.367375
	C129	C	1.007655	0.632339	0.611220
	C130	C	0.023884	0.388222	0.611171
	C131	C	1.006686	0.387683	0.367676
	C132	C	0.893086	0.518422	0.111534
	C133	C	0.137719	0.500828	0.110669
	C134	C	0.138552	0.518548	0.867465
	C135	C	0.894918	0.501643	0.869015
	C136	C	0.137244	0.888397	0.497663
	C137	C	0.137457	0.131245	0.479988
	C138	C	0.894335	0.131275	0.498448
	C139	C	0.895091	0.889021	0.480177
	C140	C	0.524996	0.132230	0.866621
	C141	C	0.508105	0.132505	0.110055
	C142	C	0.525978	0.887623	0.110197
	C143	C	0.507711	0.887417	0.866846
	C144	C	0.397197	0.894287	0.664956
	C145	C	0.633617	0.124864	0.664403
	C146	C	0.634805	0.894701	0.312754
	C147	C	0.397714	0.124253	0.312601
	C148	C	0.694099	0.390306	0.873018
	C149	C	0.691550	0.628825	0.103998
	C150	C	0.340162	0.628568	0.873470
	C151	C	0.339701	0.390473	0.104444
	C152	C	0.900523	0.687157	0.369848
	C153	C	0.130936	0.687232	0.608419
	C154	C	0.901115	0.332229	0.611090
	C155	C	0.129671	0.332476	0.368712
	C156	C	0.900649	0.391475	0.667200
	C157	C	0.131604	0.628657	0.665313
	C158	C	0.900001	0.627907	0.313550
	C159	C	0.130223	0.391113	0.312454
	C160	C	0.397970	0.685363	0.873002
	C161	C	0.635263	0.686020	0.103917
	C162	C	0.636420	0.333654	0.872712
	C163	C	0.396451	0.333462	0.103912
	C164	C	0.693880	0.895429	0.368788
	C165	C	0.693076	0.124168	0.608767
	C166	C	0.338515	0.894481	0.608533
	C167	C	0.338882	0.123826	0.368543
	C168	C	0.896332	0.394964	0.165881
	C169	C	0.133792	0.624547	0.165021
	C170	C	0.135662	0.395196	0.811490
	C171	C	0.897423	0.624788	0.814208
	C172	C	0.191534	0.891117	0.372951
	C173	C	0.192569	0.129367	0.604586
	C174	C	0.839785	0.129045	0.373903
	C175	C	0.840427	0.892208	0.604634
	C176	C	0.401823	0.187654	0.868366
	C177	C	0.630702	0.188561	0.109144
	C178	C	0.402486	0.832454	0.108647
	C179	C	0.631022	0.832122	0.867622
	C180	C	0.401846	0.891112	0.164628
	C181	C	0.631220	0.128837	0.165329
	C182	C	0.401172	0.127929	0.813086
	C183	C	0.631681	0.891699	0.812321
	C184	C	0.896642	0.185717	0.373908
	C185	C	0.135078	0.186745	0.604541
	C186	C	0.134836	0.833749	0.373022
	C187	C	0.896959	0.834746	0.604641
	C188	C	0.193674	0.395364	0.868419
	C189	C	0.192685	0.623932	0.109213
	C190	C	0.837089	0.395840	0.110363
	C191	C	0.838829	0.624243	0.870137
	C192	C	0.415268	0.103570	0.587992
	C193	C	0.616832	0.914822	0.587645
	C194	C	0.616353	0.104426	0.389492
	C195	C	0.414867	0.914048	0.388053
	C196	C	0.614253	0.411745	0.083565
	C197	C	0.615546	0.608668	0.892386
	C198	C	0.416256	0.609907	0.084952
	C199	C	0.417685	0.411620	0.893304
	C200	C	0.109957	0.610095	0.389176
	C201	C	0.921710	0.610697	0.589408
	C202	C	0.109493	0.410490	0.587635
	C203	C	0.920540	0.409526	0.390407
	C204	C	0.915261	0.604352	0.089030
	C205	C	0.116374	0.414654	0.088635
	C206	C	0.116725	0.604450	0.890382
	C207	C	0.917775	0.415826	0.891912
	C208	C	0.114937	0.910445	0.584541
	C209	C	0.115195	0.109105	0.393511
	C210	C	0.916348	0.109473	0.585371
	C211	C	0.917435	0.910941	0.393049
	C212	C	0.611111	0.110357	0.889137
	C213	C	0.422165	0.110422	0.087565
	C214	C	0.611915	0.909263	0.087797
	C215	C	0.421551	0.908965	0.889451
	Zn216	Zn	0.515995	0.009540	0.738779
	Zn217	Zn	0.516267	0.009328	0.238699
	Zn218	Zn	0.765704	0.510000	-0.010793
	Zn219	Zn	0.266921	0.509432	-0.010531
	Zn220	Zn	0.015612	0.761367	0.488887
	Zn221	Zn	0.015037	0.258926	0.489314
	Zn222	Zn	0.015987	0.510458	0.740330
	Zn223	Zn	0.015507	0.509512	0.238876
	Zn224	Zn	0.516891	0.758902	-0.011277
	Zn225	Zn	0.516069	0.261601	-0.011953
	Zn226	Zn	0.767415	0.010198	0.488670
	Zn227	Zn	0.265155	0.009312	0.488461
	N228	N	0.430799	0.971722	0.666183
	N229	N	0.600096	0.047320	0.665047
	N230	N	0.601161	0.972217	0.311425
	N231	N	0.430982	0.046606	0.310975
	N232	N	0.694800	0.424074	0.951347
	N233	N	0.693011	0.595174	0.025677
	N234	N	0.337781	0.596008	0.952243
	N235	N	0.338723	0.424316	0.026297
	N236	N	0.978575	0.689749	0.402486
	N237	N	0.053100	0.689546	0.575356
	N238	N	0.978852	0.329981	0.577141
	N239	N	0.051882	0.330312	0.402400
	N240	N	0.977996	0.425578	0.667572
	N241	N	0.053949	0.595321	0.667347
	N242	N	0.977597	0.594207	0.311964
	N243	N	0.052609	0.424653	0.311560
	N244	N	0.431059	0.687345	0.951472
	N245	N	0.602375	0.687677	0.025198
	N246	N	0.601768	0.332837	0.950791
	N247	N	0.430172	0.332621	0.025563
	N248	N	0.696389	0.973445	0.401792
	N249	N	0.695831	0.046273	0.575547
	N250	N	0.336234	0.972275	0.575144
	N251	N	0.336278	0.045867	0.401487
	N252	N	0.930490	0.472185	0.166600
	N253	N	0.100168	0.546965	0.166102
	N254	N	0.102209	0.472804	0.810800
	N255	N	0.931648	0.547528	0.813567
	N256	N	0.193026	0.924472	0.451401
	N257	N	0.194360	0.095902	0.526151
	N258	N	0.838194	0.095988	0.452305
	N259	N	0.839217	0.925274	0.526059
	N260	N	0.479864	0.190567	0.900887
	N261	N	0.553197	0.190650	0.075384
	N262	N	0.480615	0.830011	0.075548
	N263	N	0.552933	0.829057	0.900700
	N264	N	0.479313	0.924906	0.165672
	N265	N	0.553777	0.094540	0.165891
	N266	N	0.478843	0.094303	0.811873
	N267	N	0.554091	0.925333	0.811677
	N268	N	0.930123	0.187039	0.452382
	N269	N	0.101506	0.188149	0.526365
	N270	N	0.101444	0.832183	0.451512
	N271	N	0.930414	0.832942	0.526258
	N272	N	0.195778	0.472963	0.902421
	N273	N	0.195102	0.546065	0.076140
	N274	N	0.834951	0.473861	0.077419
	N275	N	0.837421	0.546649	0.903612
	O276	O	1.001103	1.036105	-0.029284
	H277	H	0.993732	1.042646	-0.042810
	H278	H	1.005612	1.030036	-0.034015
	O279	O	-0.025982	-0.006719	1.039593
	H280	H	-0.021037	-0.006553	1.027661
	H281	H	-0.035076	-0.007006	1.036528
	O282	O	0.042147	0.028012	0.013876
	H283	H	0.047377	0.031889	0.011985
	H284	H	0.032667	0.042383	0.007966
	O285	O	0.475757	0.555291	0.408489
	H286	H	0.479424	0.555088	0.405958
	H287	H	0.488927	0.560065	0.410095
	O288	O	-0.919715	-0.986605	-0.078854
	H289	H	-0.906844	-0.985688	-0.073291
	H290	H	-0.919858	-1.000205	-0.075176
	O291	O	0.079599	1.047910	0.057110
	H292	H	0.080851	1.052810	0.065334
	H293	H	0.084142	1.043381	0.054783
	O294	O	0.006123	0.935011	-0.002387
	H295	H	0.006377	0.931620	0.000977
	H296	H	0.006745	0.921587	-0.003350
	O297	O	0.478996	0.506626	0.442529
	H298	H	0.470275	0.510903	0.437295
	H299	H	0.480886	0.517932	0.431412
	O300	O	0.452060	0.491419	0.507487
	H301	H	0.448398	0.488830	0.514978
	H302	H	0.437516	0.488103	0.508468
	O303	O	0.989743	0.011350	0.967797
	H304	H	0.999255	0.013268	0.968751
	H305	H	0.990887	0.002258	0.958424
	O306	O	0.004156	1.094475	0.999861
	H307	H	-0.007701	1.098867	0.999002
	H308	H	-0.000131	1.099295	0.992943
	O309	O	0.014336	1.014397	1.023022
	H310	H	0.016799	1.013657	1.025500
	H311	H	0.017034	1.023204	1.022748
	O312	O	-0.001476	0.051883	1.058865
	H313	H	-0.008884	0.053183	1.054669
	H314	H	-0.016652	0.052452	1.069706
	O315	O	0.515673	0.557881	0.458162
	H316	H	0.521683	0.551835	0.457730
	H317	H	0.522086	0.558710	0.469681
	O318	O	0.084484	0.109001	1.017955
	H319	H	0.084690	0.109153	1.015849
	H320	H	0.082578	0.109496	1.026939
	O321	O	0.449186	0.486323	0.541956
	H322	H	0.440790	0.484693	0.542948
	H323	H	0.449384	0.488782	0.536194
	O324	O	0.423412	-0.554010	1.469696
	H325	H	0.417902	-0.549239	1.474134
	H326	H	0.418566	-0.549183	1.458628
	O327	O	0.960039	1.010282	1.046908
	H328	H	0.955084	1.008033	1.045104
	H329	H	0.959804	1.008278	1.046804
	O330	O	0.098962	-0.066977	0.910187
	H331	H	0.103391	-0.073903	0.910750
	H332	H	0.104983	-0.050882	0.915137
	O333	O	0.513347	0.467697	0.575853
	H334	H	0.509706	0.462884	0.582394
	H335	H	0.517647	0.460835	0.570927
	O336	O	0.461432	0.481788	0.433664
	H337	H	0.463045	0.492767	0.431089
	H338	H	0.464549	0.486016	0.422023
	O339	O	0.480968	0.452020	0.514383
	H340	H	0.472490	0.454155	0.522610
	H341	H	0.483188	0.451071	0.511129
	O342	O	0.503455	0.427839	0.485891
	H343	H	0.494022	0.415827	0.480157
	H344	H	0.507327	0.420287	0.488927
	O345	O	0.506393	0.513633	0.410343
	H346	H	0.501012	0.502268	0.410274
	H347	H	0.510412	0.509151	0.412943
