data_Molecule from HDF5

_cell_length_a		16.258632
_cell_length_b		16.258928
_cell_length_c		16.294399
_cell_angle_alpha	89.915106
_cell_angle_beta	89.995361
_cell_angle_gamma	89.954160
_symmetry_space_group_name_H-M	'P 1'
_symmetry_Int_Tables_number		1

loop_
	_symmetry_equiv_pos_as_xyz
	x,y,z

loop_
	_atom_site_label
	_atom_site_type_symbol
	_atom_site_fract_x
	_atom_site_fract_y
	_atom_site_fract_z
	H0	H	0.400303	0.836726	0.715600
	H1	H	0.597758	0.163691	0.713217
	H2	H	0.597579	0.836309	0.285912
	H3	H	0.402208	0.163780	0.286373
	H4	H	0.714411	0.401808	0.836577
	H5	H	0.714538	0.597666	0.164260
	H6	H	0.287278	0.597821	0.836524
	H7	H	0.288243	0.402642	0.164518
	H8	H	0.836035	0.713244	0.403465
	H9	H	0.164302	0.713110	0.597671
	H10	H	0.835388	0.287467	0.597272
	H11	H	0.164051	0.285653	0.401659
	H12	H	0.836517	0.400891	0.714813
	H13	H	0.163570	0.598973	0.715142
	H14	H	0.836004	0.597735	0.286454
	H15	H	0.164796	0.401864	0.286337
	H16	H	0.403518	0.714310	0.836390
	H17	H	0.598268	0.713934	0.163594
	H18	H	0.598521	0.286276	0.836110
	H19	H	0.402152	0.285173	0.163741
	H20	H	0.713533	0.835745	0.401456
	H21	H	0.714374	0.163331	0.597765
	H22	H	0.284471	0.835904	0.598724
	H23	H	0.285153	0.164583	0.401994
	H24	H	0.902965	0.335752	0.214381
	H25	H	0.097947	0.663879	0.213546
	H26	H	0.098482	0.336448	0.786382
	H27	H	0.900801	0.662953	0.785160
	H28	H	0.212014	0.903104	0.335917
	H29	H	0.214088	0.097353	0.663031
	H30	H	0.786510	0.098002	0.335401
	H31	H	0.786348	0.901819	0.663271
	H32	H	0.335491	0.214061	0.902344
	H33	H	0.664995	0.212071	0.096218
	H34	H	0.336104	0.786588	0.097791
	H35	H	0.664633	0.786881	0.902531
	H36	H	0.336090	0.901820	0.213848
	H37	H	0.663752	0.097901	0.214281
	H38	H	0.335702	0.098534	0.785310
	H39	H	0.663667	0.901283	0.784089
	H40	H	0.901738	0.214845	0.336118
	H41	H	0.097494	0.213254	0.663922
	H42	H	0.097966	0.785481	0.336611
	H43	H	0.900823	0.784857	0.663412
	H44	H	0.214764	0.335732	0.903032
	H45	H	0.214137	0.664137	0.098061
	H46	H	0.786826	0.335598	0.097752
	H47	H	0.786127	0.664431	0.901870
	H48	H	0.400344	0.119371	0.597040
	H49	H	0.605836	0.880024	0.588142
	H50	H	0.596396	0.118939	0.402931
	H51	H	0.406798	0.885064	0.411575
	H52	H	0.593680	0.410084	0.115558
	H53	H	0.596091	0.595404	0.882288
	H54	H	0.409767	0.589380	0.114946
	H55	H	0.402390	0.403980	0.881367
	H56	H	0.115606	0.592295	0.411769
	H57	H	0.886388	0.585095	0.591062
	H58	H	0.116792	0.401280	0.587295
	H59	H	0.882835	0.413609	0.397707
	H60	H	0.113459	0.414396	0.591957
	H61	H	0.880726	0.593671	0.601001
	H62	H	0.116895	0.588894	0.403236
	H63	H	0.879717	0.397264	0.405082
	H64	H	0.410190	0.599269	0.118115
	H65	H	0.594349	0.590912	0.884187
	H66	H	0.590104	0.403222	0.116860
	H67	H	0.406098	0.414046	0.885557
	H68	H	0.588280	0.116024	0.404748
	H69	H	0.589031	0.880206	0.606173
	H70	H	0.413872	0.114750	0.595437
	H71	H	0.400134	0.880798	0.405362
	H72	H	0.912580	0.615673	0.096707
	H73	H	0.098680	0.380526	0.097909
	H74	H	0.093834	0.619756	0.896809
	H75	H	0.910823	0.385252	0.914247
	H76	H	0.089309	0.906415	0.615775
	H77	H	0.083883	0.099882	0.384477
	H78	H	0.904689	0.085062	0.613537
	H79	H	0.910713	0.905122	0.383557
	H80	H	0.617013	0.096032	0.908505
	H81	H	0.382356	0.094694	0.093122
	H82	H	0.616803	0.906947	0.092649
	H83	H	0.381564	0.900699	0.907242
	H84	H	0.616574	0.908514	0.093343
	H85	H	0.383977	0.092575	0.093351
	H86	H	0.615419	0.089890	0.906913
	H87	H	0.385922	0.910400	0.912806
	H88	H	0.913548	0.095451	0.614701
	H89	H	0.101369	0.097175	0.380052
	H90	H	0.094503	0.903545	0.618327
	H91	H	0.903504	0.904060	0.380898
	H92	H	0.084661	0.613354	0.911097
	H93	H	0.088921	0.383959	0.096182
	H94	H	0.905498	0.615399	0.086822
	H95	H	0.898387	0.380684	0.907121
	H96	H	0.404781	0.114179	0.584555
	H97	H	0.582910	0.888837	0.584063
	H98	H	0.594241	0.114870	0.410871
	H99	H	0.409127	0.883216	0.402147
	H100	H	0.598086	0.403681	0.118578
	H101	H	0.591204	0.594421	0.884193
	H102	H	0.401410	0.594134	0.119069
	H103	H	0.413156	0.405076	0.884600
	H104	H	0.118717	0.597877	0.405035
	H105	H	0.882719	0.599164	0.587632
	H106	H	0.119452	0.404549	0.600263
	H107	H	0.887266	0.410620	0.415569
	H108	H	0.900706	0.619243	0.097509
	H109	H	0.095740	0.384659	0.087984
	H110	H	0.102047	0.617500	0.913060
	H111	H	0.911401	0.382235	0.899618
	H112	H	0.095473	0.910092	0.616200
	H113	H	0.092208	0.083572	0.386194
	H114	H	0.901049	0.097360	0.618515
	H115	H	0.905426	0.910964	0.384786
	H116	H	0.617396	0.093790	0.902690
	H117	H	0.382539	0.093488	0.095063
	H118	H	0.617774	0.906930	0.094600
	H119	H	0.382890	0.911012	0.900448
	C120	C	0.377784	0.008148	0.621178
	C121	C	0.621113	0.991285	0.621154
	C122	C	0.620998	0.008205	0.378268
	C123	C	0.377376	0.991749	0.378183
	C124	C	0.622079	0.378078	0.008635
	C125	C	0.622024	0.621664	0.991706
	C126	C	0.378705	0.622259	0.008715
	C127	C	0.379179	0.378895	0.992184
	C128	C	0.008664	0.621550	0.378446
	C129	C	0.991718	0.621257	0.621625
	C130	C	0.008190	0.378199	0.621629
	C131	C	0.991998	0.378497	0.378181
	C132	C	0.878343	0.508131	0.121763
	C133	C	0.122326	0.491478	0.122187
	C134	C	0.121726	0.508241	0.878932
	C135	C	0.878717	0.491472	0.878795
	C136	C	0.121348	0.878520	0.508734
	C137	C	0.120971	0.121462	0.491359
	C138	C	0.877983	0.121578	0.507716
	C139	C	0.878365	0.878070	0.491515
	C140	C	0.508155	0.121633	0.877976
	C141	C	0.491805	0.121456	0.121548
	C142	C	0.508624	0.878835	0.121587
	C143	C	0.491798	0.879407	0.878655
	C144	C	0.379699	0.885205	0.677205
	C145	C	0.618414	0.114718	0.675739
	C146	C	0.618117	0.884897	0.323747
	C147	C	0.380870	0.115161	0.323822
	C148	C	0.676707	0.381284	0.885248
	C149	C	0.676910	0.618486	0.115266
	C150	C	0.324375	0.619172	0.885520
	C151	C	0.325504	0.381884	0.115633
	C152	C	0.884900	0.676057	0.382009
	C153	C	0.115329	0.675830	0.618699
	C154	C	0.884677	0.324221	0.618455
	C155	C	0.115140	0.323401	0.380984
	C156	C	0.885270	0.380737	0.676953
	C157	C	0.114845	0.618869	0.676793
	C158	C	0.885219	0.618579	0.324058
	C159	C	0.115572	0.381144	0.323747
	C160	C	0.382167	0.676967	0.885433
	C161	C	0.619250	0.676082	0.115069
	C162	C	0.619247	0.323720	0.885116
	C163	C	0.382288	0.323533	0.114983
	C164	C	0.675984	0.884775	0.380778
	C165	C	0.676128	0.114575	0.618174
	C166	C	0.322456	0.884828	0.618955
	C167	C	0.322972	0.115338	0.381409
	C168	C	0.882313	0.384615	0.176180
	C169	C	0.118960	0.615033	0.176162
	C170	C	0.119219	0.385111	0.824066
	C171	C	0.880712	0.614646	0.823237
	C172	C	0.175123	0.881825	0.384950
	C173	C	0.176105	0.118719	0.614541
	C174	C	0.823448	0.119115	0.384482
	C175	C	0.823696	0.880971	0.614349
	C176	C	0.384440	0.176408	0.881194
	C177	C	0.615426	0.175248	0.117789
	C178	C	0.384959	0.824061	0.118368
	C179	C	0.615601	0.824406	0.881329
	C180	C	0.384876	0.881421	0.176050
	C181	C	0.615000	0.118594	0.176517
	C182	C	0.384631	0.119079	0.823207
	C183	C	0.615238	0.881142	0.822736
	C184	C	0.880773	0.176959	0.384934
	C185	C	0.118385	0.176200	0.614830
	C186	C	0.118234	0.823631	0.385397
	C187	C	0.880646	0.822844	0.614465
	C188	C	0.176714	0.384837	0.882178
	C189	C	0.176574	0.615027	0.118924
	C190	C	0.824475	0.384511	0.118604
	C191	C	0.823869	0.615081	0.881369
	C192	C	0.399832	0.094029	0.598856
	C193	C	0.599064	0.905162	0.599170
	C194	C	0.599306	0.094208	0.399831
	C195	C	0.399091	0.905192	0.400009
	C196	C	0.600334	0.399433	0.094753
	C197	C	0.600373	0.599928	0.905733
	C198	C	0.400672	0.600651	0.095207
	C199	C	0.400877	0.401003	0.905890
	C200	C	0.094783	0.599475	0.400292
	C201	C	0.905490	0.599199	0.599434
	C202	C	0.094498	0.400175	0.599718
	C203	C	0.905639	0.400582	0.399775
	C204	C	0.899872	0.594507	0.100056
	C205	C	0.100806	0.405317	0.100491
	C206	C	0.099837	0.594530	0.900555
	C207	C	0.900441	0.405282	0.900468
	C208	C	0.099642	0.900313	0.594635
	C209	C	0.098932	0.099976	0.405705
	C210	C	0.899761	0.099169	0.593710
	C211	C	0.900195	0.900173	0.405142
	C212	C	0.594121	0.099634	0.899661
	C213	C	0.405231	0.099958	0.100190
	C214	C	0.594759	0.900907	0.100080
	C215	C	0.406054	0.900987	0.900410
	Zn216	Zn	0.499716	0.000052	0.749495
	Zn217	Zn	0.499575	-0.000026	0.250001
	Zn218	Zn	0.749961	0.499912	0.000024
	Zn219	Zn	0.250413	0.500289	0.000661
	Zn220	Zn	0.000332	0.749902	0.500622
	Zn221	Zn	-0.000420	0.250189	0.500170
	Zn222	Zn	-0.000145	0.500071	0.749993
	Zn223	Zn	0.000440	0.500049	0.250000
	Zn224	Zn	0.500693	0.750565	0.000150
	Zn225	Zn	0.500260	0.249986	-0.000207
	Zn226	Zn	0.749500	-0.000523	0.499190
	Zn227	Zn	0.249383	-0.000179	0.499806
	N228	N	0.413728	0.962628	0.678313
	N229	N	0.584668	0.037208	0.677230
	N230	N	0.584766	0.962545	0.322042
	N231	N	0.413833	0.037246	0.321744
	N232	N	0.678421	0.414583	0.962804
	N233	N	0.678367	0.585150	0.037797
	N234	N	0.322446	0.586051	0.963181
	N235	N	0.323345	0.415417	0.038196
	N236	N	0.962526	0.677835	0.415280
	N237	N	0.037785	0.677360	0.585108
	N238	N	0.962083	0.322724	0.584715
	N239	N	0.037355	0.321831	0.414248
	N240	N	0.963185	0.413690	0.678953
	N241	N	0.036862	0.585810	0.678659
	N242	N	0.963147	0.585549	0.321714
	N243	N	0.037902	0.414767	0.321839
	N244	N	0.415359	0.678788	0.963183
	N245	N	0.585868	0.678181	0.037505
	N246	N	0.586062	0.321583	0.962725
	N247	N	0.414905	0.321758	0.037152
	N248	N	0.677777	0.962428	0.414132
	N249	N	0.678033	0.036855	0.585066
	N250	N	0.321200	0.962252	0.584940
	N251	N	0.320685	0.037389	0.414269
	N252	N	0.915127	0.462539	0.178152
	N253	N	0.085974	0.537314	0.178289
	N254	N	0.085790	0.462837	0.822071
	N255	N	0.914148	0.536903	0.821541
	N256	N	0.177032	0.915287	0.462479
	N257	N	0.177775	0.085445	0.537132
	N258	N	0.821611	0.085277	0.461893
	N259	N	0.822288	0.914584	0.536803
	N260	N	0.462133	0.178251	0.914546
	N261	N	0.537834	0.176861	0.084207
	N262	N	0.462836	0.822270	0.085411
	N263	N	0.538241	0.823001	0.915420
	N264	N	0.462677	0.914547	0.178263
	N265	N	0.536983	0.085988	0.178913
	N266	N	0.462399	0.085643	0.821154
	N267	N	0.537610	0.914686	0.821122
	N268	N	0.913954	0.178534	0.462505
	N269	N	0.084793	0.178073	0.537391
	N270	N	0.085569	0.821445	0.463185
	N271	N	0.914018	0.821184	0.537048
	N272	N	0.178426	0.462425	0.915406
	N273	N	0.178513	0.537268	0.085753
	N274	N	0.821814	0.462349	0.085709
	N275	N	0.822549	0.537620	0.915264
