data_Molecule from HDF5

_cell_length_a		16.334580
_cell_length_b		16.107402
_cell_length_c		16.197765
_cell_angle_alpha	89.770057
_cell_angle_beta	89.877124
_cell_angle_gamma	89.950723
_symmetry_space_group_name_H-M	'P 1'
_symmetry_Int_Tables_number		1

loop_
	_symmetry_equiv_pos_as_xyz
	x,y,z

loop_
	_atom_site_label
	_atom_site_type_symbol
	_atom_site_fract_x
	_atom_site_fract_y
	_atom_site_fract_z
	H0	H	0.394744	0.840969	0.721329
	H1	H	0.593079	0.170109	0.718948
	H2	H	0.591240	0.840840	0.294113
	H3	H	0.394550	0.170088	0.291573
	H4	H	0.713002	0.405917	0.846873
	H5	H	0.707213	0.605805	0.174064
	H6	H	0.276377	0.609395	0.846153
	H7	H	0.277633	0.403955	0.173287
	H8	H	0.830740	0.722246	0.409871
	H9	H	0.157635	0.721014	0.607220
	H10	H	0.829658	0.292516	0.607604
	H11	H	0.157755	0.292427	0.411737
	H12	H	0.830675	0.406825	0.725888
	H13	H	0.156578	0.605620	0.724152
	H14	H	0.830854	0.605805	0.294853
	H15	H	0.157404	0.407232	0.293981
	H16	H	0.397429	0.718436	0.842190
	H17	H	0.589576	0.719457	0.173185
	H18	H	0.592044	0.295626	0.843155
	H19	H	0.396246	0.291208	0.173018
	H20	H	0.710691	0.842401	0.404302
	H21	H	0.706278	0.170452	0.603974
	H22	H	0.278439	0.842344	0.608647
	H23	H	0.278486	0.169868	0.403053
	H24	H	0.896246	0.341291	0.224346
	H25	H	0.092174	0.672128	0.222291
	H26	H	0.092722	0.340877	0.796327
	H27	H	0.894942	0.671567	0.795505
	H28	H	0.210024	0.905306	0.343353
	H29	H	0.212111	0.108659	0.670124
	H30	H	0.781132	0.107210	0.343168
	H31	H	0.774783	0.902753	0.669945
	H32	H	0.330728	0.223169	0.906680
	H33	H	0.656197	0.219043	0.105519
	H34	H	0.329849	0.791051	0.105440
	H35	H	0.657521	0.792559	0.909958
	H36	H	0.331246	0.902510	0.225394
	H37	H	0.655201	0.104397	0.221946
	H38	H	0.330892	0.106218	0.790208
	H39	H	0.656753	0.905887	0.792133
	H40	H	0.898080	0.221046	0.343669
	H41	H	0.089695	0.216777	0.674270
	H42	H	0.092090	0.791990	0.343714
	H43	H	0.896451	0.794018	0.673596
	H44	H	0.209450	0.341816	0.909566
	H45	H	0.209163	0.671304	0.110452
	H46	H	0.779414	0.342172	0.113026
	H47	H	0.778614	0.670267	0.908631
	H48	H	0.392913	0.124542	0.590512
	H49	H	0.585646	0.890254	0.589488
	H50	H	0.588378	0.127620	0.405871
	H51	H	0.395021	0.885913	0.418754
	H52	H	0.589671	0.417994	0.126478
	H53	H	0.580930	0.603623	0.892150
	H54	H	0.387030	0.594314	0.128389
	H55	H	0.407174	0.425268	0.896577
	H56	H	0.109273	0.599916	0.422788
	H57	H	0.877744	0.596502	0.605523
	H58	H	0.110287	0.415538	0.604584
	H59	H	0.874011	0.403268	0.415418
	H60	H	0.111143	0.410390	0.605291
	H61	H	0.875633	0.602972	0.604274
	H62	H	0.109305	0.592394	0.412078
	H63	H	0.881631	0.417031	0.425821
	H64	H	0.409446	0.588506	0.121224
	H65	H	0.597126	0.603407	0.888367
	H66	H	0.581045	0.411558	0.124735
	H67	H	0.405195	0.406223	0.890441
	H68	H	0.581079	0.122549	0.414851
	H69	H	0.594539	0.883564	0.600759
	H70	H	0.401705	0.126821	0.607624
	H71	H	0.402014	0.886246	0.409730
	H72	H	0.905728	0.622072	0.098774
	H73	H	0.086914	0.388401	0.104663
	H74	H	0.081752	0.623993	0.911658
	H75	H	0.895321	0.385855	0.917092
	H76	H	0.084284	0.920297	0.621653
	H77	H	0.082938	0.104736	0.390022
	H78	H	0.899128	0.098053	0.625740
	H79	H	0.903531	0.909914	0.389597
	H80	H	0.607576	0.089415	0.910219
	H81	H	0.375784	0.092496	0.107408
	H82	H	0.607333	0.916760	0.096063
	H83	H	0.376093	0.915187	0.909002
	H84	H	0.611304	0.914870	0.106160
	H85	H	0.374790	0.106840	0.097497
	H86	H	0.613319	0.105337	0.905357
	H87	H	0.375581	0.908416	0.912880
	H88	H	0.897919	0.098482	0.625887
	H89	H	0.094576	0.102105	0.388289
	H90	H	0.085044	0.909197	0.625865
	H91	H	0.897697	0.917783	0.390160
	H92	H	0.083887	0.621676	0.924132
	H93	H	0.085206	0.389655	0.101348
	H94	H	0.895238	0.625279	0.097248
	H95	H	0.907162	0.388333	0.914103
	H96	H	0.412340	0.119902	0.593073
	H97	H	0.579581	0.887683	0.604617
	H98	H	0.593419	0.124314	0.417953
	H99	H	0.405409	0.889827	0.420488
	H100	H	0.590663	0.407437	0.129305
	H101	H	0.589429	0.588570	0.894129
	H102	H	0.404270	0.611585	0.128073
	H103	H	0.388614	0.418254	0.888722
	H104	H	0.112393	0.604629	0.411061
	H105	H	0.878185	0.599001	0.599457
	H106	H	0.108748	0.412305	0.600647
	H107	H	0.877600	0.420680	0.408222
	H108	H	0.900067	0.627098	0.108315
	H109	H	0.088397	0.388708	0.100567
	H110	H	0.092636	0.626089	0.916274
	H111	H	0.902657	0.390877	0.925558
	H112	H	0.094118	0.915975	0.626340
	H113	H	0.086639	0.093932	0.393254
	H114	H	0.898020	0.097570	0.626307
	H115	H	0.907306	0.918183	0.393299
	H116	H	0.608167	0.102483	0.921786
	H117	H	0.379815	0.092315	0.090898
	H118	H	0.610404	0.906557	0.098822
	H119	H	0.378825	0.914296	0.917004
	C120	C	0.372993	0.014975	0.627413
	C121	C	0.615133	0.996327	0.626915
	C122	C	0.615599	0.015429	0.384743
	C123	C	0.372308	0.996465	0.385834
	C124	C	0.616044	0.384447	0.017990
	C125	C	0.616446	0.627541	1.000393
	C126	C	0.372045	0.627531	0.016858
	C127	C	0.371503	0.385180	1.000281
	C128	C	0.002504	0.628467	0.386784
	C129	C	0.985185	0.628216	0.631305
	C130	C	0.001956	0.384259	0.632025
	C131	C	0.985872	0.384758	0.387319
	C132	C	0.872361	0.515701	0.131733
	C133	C	0.115276	0.498121	0.130916
	C134	C	0.115530	0.515153	0.888194
	C135	C	0.872862	0.497538	0.889295
	C136	C	0.116471	0.885041	0.516328
	C137	C	0.116447	0.128617	0.499168
	C138	C	0.871651	0.127612	0.516803
	C139	C	0.872534	0.885318	0.499126
	C140	C	0.501992	0.128755	0.883619
	C141	C	0.484496	0.126145	0.127639
	C142	C	0.501987	0.883344	0.129583
	C143	C	0.485130	0.883915	0.884952
	C144	C	0.374948	0.890561	0.683267
	C145	C	0.612919	0.120487	0.682047
	C146	C	0.612466	0.890506	0.330737
	C147	C	0.374599	0.120846	0.329539
	C148	C	0.673058	0.386581	0.895052
	C149	C	0.670033	0.625955	0.124506
	C150	C	0.315601	0.627488	0.894198
	C151	C	0.315838	0.385064	0.123930
	C152	C	0.879514	0.684233	0.389694
	C153	C	0.108395	0.683521	0.628361
	C154	C	0.878834	0.329499	0.628995
	C155	C	0.109047	0.330093	0.390782
	C156	C	0.879228	0.386281	0.687798
	C157	C	0.108058	0.626008	0.686418
	C158	C	0.879836	0.626651	0.331912
	C159	C	0.108540	0.387052	0.332086
	C160	C	0.375692	0.681987	0.892252
	C161	C	0.611264	0.682268	0.124194
	C162	C	0.613139	0.331570	0.893259
	C163	C	0.374635	0.328587	0.123778
	C164	C	0.671805	0.891384	0.385559
	C165	C	0.669553	0.120750	0.624805
	C166	C	0.317025	0.891217	0.627181
	C167	C	0.316644	0.120617	0.384746
	C168	C	0.875406	0.391101	0.187157
	C169	C	0.112497	0.622757	0.185201
	C170	C	0.113184	0.390665	0.833427
	C171	C	0.874871	0.621910	0.833428
	C172	C	0.171743	0.885808	0.392717
	C173	C	0.172717	0.127326	0.621966
	C174	C	0.818181	0.126866	0.392610
	C175	C	0.814297	0.884663	0.621711
	C176	C	0.379615	0.185066	0.885955
	C177	C	0.607356	0.181113	0.125299
	C178	C	0.378925	0.828400	0.126416
	C179	C	0.608259	0.829146	0.888230
	C180	C	0.379686	0.883708	0.186389
	C181	C	0.606861	0.124140	0.183228
	C182	C	0.379765	0.126765	0.828107
	C183	C	0.608005	0.886005	0.829992
	C184	C	0.876417	0.183626	0.393018
	C185	C	0.112015	0.181401	0.624032
	C186	C	0.113107	0.829373	0.392824
	C187	C	0.874923	0.830608	0.623674
	C188	C	0.171274	0.391095	0.889767
	C189	C	0.170984	0.622184	0.129716
	C190	C	0.817133	0.391470	0.132116
	C191	C	0.817115	0.621344	0.889827
	C192	C	0.395487	0.101338	0.604029
	C193	C	0.593144	0.909611	0.604752
	C194	C	0.593872	0.102334	0.406419
	C195	C	0.394306	0.909735	0.409490
	C196	C	0.593686	0.405975	0.104404
	C197	C	0.595595	0.605103	0.913980
	C198	C	0.393887	0.605014	0.103446
	C199	C	0.393641	0.409404	0.914013
	C200	C	0.088101	0.605649	0.408836
	C201	C	0.899630	0.606122	0.609625
	C202	C	0.087786	0.406339	0.609966
	C203	C	0.899911	0.407076	0.409842
	C204	C	0.893975	0.602369	0.108297
	C205	C	0.093392	0.411332	0.108761
	C206	C	0.092686	0.601636	0.910559
	C207	C	0.895231	0.410711	0.912326
	C208	C	0.094462	0.908252	0.602396
	C209	C	0.094476	0.106805	0.412941
	C210	C	0.892287	0.104807	0.603619
	C211	C	0.895678	0.908539	0.413153
	C212	C	0.587691	0.105859	0.906061
	C213	C	0.398865	0.103844	0.105269
	C214	C	0.587584	0.905998	0.107049
	C215	C	0.399156	0.905942	0.906566
	Zn216	Zn	0.494191	0.005368	0.755060
	Zn217	Zn	0.492611	0.005507	0.258059
	Zn218	Zn	0.745310	0.505961	0.010651
	Zn219	Zn	0.243060	0.506946	0.009595
	Zn220	Zn	-0.006098	0.757070	0.509004
	Zn221	Zn	-0.006284	0.255885	0.509114
	Zn222	Zn	-0.006489	0.506172	0.760871
	Zn223	Zn	-0.005707	0.506812	0.258023
	Zn224	Zn	0.493617	0.755508	0.007292
	Zn225	Zn	0.493633	0.256912	0.007589
	Zn226	Zn	0.743190	0.005964	0.506252
	Zn227	Zn	0.245121	0.006942	0.506506
	N228	N	0.409115	0.968418	0.683500
	N229	N	0.579767	0.041936	0.683418
	N230	N	0.578285	0.968501	0.329940
	N231	N	0.408308	0.042580	0.329831
	N232	N	0.675070	0.418826	0.973692
	N233	N	0.673319	0.592658	0.046410
	N234	N	0.313268	0.594443	0.972749
	N235	N	0.313748	0.419596	0.045923
	N236	N	0.956977	0.685660	0.423080
	N237	N	0.031061	0.685284	0.594936
	N238	N	0.956231	0.327930	0.595362
	N239	N	0.031545	0.328457	0.424287
	N240	N	0.956886	0.419479	0.689913
	N241	N	0.030578	0.592539	0.688528
	N242	N	0.957079	0.592726	0.330095
	N243	N	0.030894	0.420231	0.330033
	N244	N	0.410055	0.682083	0.969649
	N245	N	0.578793	0.683695	0.045962
	N246	N	0.578307	0.330295	0.970625
	N247	N	0.408349	0.328751	0.045871
	N248	N	0.673757	0.969964	0.418498
	N249	N	0.671168	0.042570	0.591363
	N250	N	0.315637	0.969718	0.593101
	N251	N	0.315153	0.042495	0.419189
	N252	N	0.908800	0.469447	0.187234
	N253	N	0.078933	0.544552	0.186355
	N254	N	0.079172	0.468898	0.832360
	N255	N	0.908727	0.543762	0.832862
	N256	N	0.173781	0.919903	0.470433
	N257	N	0.175814	0.095269	0.543339
	N258	N	0.815166	0.092592	0.470701
	N259	N	0.812754	0.917871	0.543207
	N260	N	0.456937	0.186590	0.919421
	N261	N	0.530189	0.182563	0.091480
	N262	N	0.456157	0.827542	0.092176
	N263	N	0.530739	0.827594	0.921564
	N264	N	0.457034	0.917205	0.188311
	N265	N	0.529463	0.090637	0.184842
	N266	N	0.457026	0.092637	0.826356
	N267	N	0.530375	0.919420	0.827772
	N268	N	0.908880	0.184191	0.471221
	N269	N	0.077542	0.182261	0.546682
	N270	N	0.079213	0.828948	0.470633
	N271	N	0.910455	0.830724	0.546611
	N272	N	0.172893	0.469425	0.923002
	N273	N	0.172715	0.543683	0.096366
	N274	N	0.815050	0.469877	0.098001
	N275	N	0.815917	0.543047	0.924143
	O276	O	-0.016446	0.097780	0.035458
	H277	H	-0.020007	0.105881	0.023223
	H278	H	-0.027197	0.097394	0.031084
	O279	O	0.411073	0.463215	0.533806
	H280	H	0.411954	0.466209	0.532982
	H281	H	0.404390	0.463402	0.540091
	O282	O	0.520056	0.474544	0.522088
	H283	H	0.532092	0.467027	0.523174
	H284	H	0.522343	0.472800	0.524081
	O285	O	-0.058585	1.030873	0.972709
	H286	H	-0.055388	1.039694	0.966100
	H287	H	-0.057629	1.026306	0.982042
	O288	O	0.509388	0.513255	0.600978
	H289	H	0.508104	0.530281	0.598360
	H290	H	0.499355	0.505047	0.597280
	O291	O	0.771045	1.237012	0.778035
	H292	H	0.769888	1.240903	0.768806
	H293	H	0.773534	1.236564	0.784211
	O294	O	1.441175	0.556378	0.462447
	H295	H	1.454784	0.547264	0.468252
	H296	H	1.442746	0.562523	0.460133
	O297	O	1.004080	0.003666	1.053445
	H298	H	0.994000	0.007458	1.057232
	H299	H	1.004351	0.014447	1.063001
	O300	O	0.504160	0.449722	0.522582
	H301	H	0.504800	0.444542	0.524305
	H302	H	0.497557	0.438928	0.525229
	O303	O	1.008221	-0.018269	-0.012495
	H304	H	1.005882	-0.029929	-0.012179
	H305	H	1.011352	-0.018648	-0.000621
	O306	O	0.012629	1.039297	0.918741
	H307	H	0.015799	1.042972	0.930632
	H308	H	0.004803	1.032164	0.916708
	O309	O	0.466838	0.468961	0.541026
	H310	H	0.455923	0.463343	0.527668
	H311	H	0.472437	0.469185	0.546356
	O312	O	1.098681	-0.042432	0.993464
	H313	H	1.096915	-0.046369	0.998926
	H314	H	1.097404	-0.041664	0.999593
	O315	O	0.035326	0.041226	-0.013632
	H316	H	0.036854	0.031034	-0.009950
	H317	H	0.037525	0.042203	-0.008587
	O318	O	0.433385	0.438536	0.444652
	H319	H	0.423627	0.449072	0.449794
	H320	H	0.433623	0.440840	0.447668
	O321	O	0.908593	0.940228	1.098402
	H322	H	0.904835	0.935907	1.088466
	H323	H	0.912001	0.947140	1.098419
	O324	O	1.078316	-0.033747	-0.098838
	H325	H	1.094363	-0.034664	-0.104341
	H326	H	1.089255	-0.035556	-0.101256
	O327	O	0.559389	0.509146	0.616751
	H328	H	0.552770	0.509764	0.619295
	H329	H	0.556387	0.499409	0.615042
	O330	O	0.998702	-0.065266	1.061139
	H331	H	1.006417	-0.060271	1.057496
	H332	H	0.989730	-0.066035	1.058108
	O333	O	0.886367	0.969297	-0.983433
	H334	H	0.891927	0.970711	-0.966743
	H335	H	0.892015	0.968349	-0.990034
	O336	O	0.993492	1.091101	1.050995
	H337	H	0.989282	1.090648	1.053216
	H338	H	0.985638	1.089798	1.036734
	O339	O	0.448670	0.542547	0.480229
	H340	H	0.454596	0.538816	0.478276
	H341	H	0.448786	0.542082	0.486181
	O342	O	0.020241	0.948022	0.019771
	H343	H	0.010134	0.951746	0.022239
	H344	H	0.019759	0.949642	0.035043
	O345	O	0.036217	0.091292	0.031990
	H346	H	0.027041	0.082367	0.020811
	H347	H	0.027755	0.098092	0.030383
	O348	O	0.464366	0.542054	0.578186
	H349	H	0.456720	0.536922	0.579721
	H350	H	0.473698	0.555535	0.576673
	O351	O	0.494282	0.455035	0.451805
	H352	H	0.490697	0.455323	0.450200
	H353	H	0.491993	0.453515	0.450877
	O354	O	0.432187	0.566199	0.532559
	H355	H	0.432069	0.564601	0.527804
	H356	H	0.444460	0.566103	0.534398
	O357	O	0.503426	0.574656	0.528413
	H358	H	0.507629	0.572343	0.530172
	H359	H	0.496693	0.576852	0.534192
	O360	O	-0.091355	-0.058805	-0.008805
	H361	H	-0.083934	-0.050923	-0.009349
	H362	H	-0.099157	-0.073749	-0.006955
	O363	O	0.481127	0.462599	0.461096
	H364	H	0.481644	0.452168	0.454967
	H365	H	0.472326	0.477931	0.463718
	O366	O	-0.020750	0.058822	0.963355
	H367	H	-0.016530	0.062966	0.955693
	H368	H	-0.017111	0.053049	0.955870
	O369	O	0.570824	0.545199	0.497747
	H370	H	0.571743	0.540787	0.492587
	H371	H	0.573696	0.549363	0.509850
