data_Molecule from HDF5

_cell_length_a		16.605324
_cell_length_b		16.593130
_cell_length_c		16.704054
_cell_angle_alpha	89.863120
_cell_angle_beta	89.693626
_cell_angle_gamma	90.140353
_symmetry_space_group_name_H-M	'P 1'
_symmetry_Int_Tables_number		1

loop_
	_symmetry_equiv_pos_as_xyz
	x,y,z

loop_
	_atom_site_label
	_atom_site_type_symbol
	_atom_site_fract_x
	_atom_site_fract_y
	_atom_site_fract_z
	H0	H	0.392754	0.818482	0.710278
	H1	H	0.604568	0.129002	0.706462
	H2	H	0.607796	0.817373	0.267120
	H3	H	0.398911	0.129178	0.266642
	H4	H	0.717970	0.375045	0.828970
	H5	H	0.719031	0.574059	0.144584
	H6	H	0.282920	0.575475	0.832143
	H7	H	0.285602	0.372444	0.145317
	H8	H	0.848391	0.694160	0.382015
	H9	H	0.159793	0.691337	0.588388
	H10	H	0.848123	0.250821	0.593572
	H11	H	0.158320	0.253334	0.385029
	H12	H	0.847559	0.366166	0.709475
	H13	H	0.158753	0.577702	0.707004
	H14	H	0.845751	0.575898	0.268338
	H15	H	0.156546	0.366912	0.264711
	H16	H	0.395711	0.696130	0.833994
	H17	H	0.602511	0.690169	0.144327
	H18	H	0.600699	0.258603	0.828618
	H19	H	0.402272	0.255762	0.145622
	H20	H	0.722735	0.817723	0.383418
	H21	H	0.721538	0.127966	0.591119
	H22	H	0.277536	0.818080	0.594056
	H23	H	0.283873	0.129873	0.384816
	H24	H	0.899399	0.313852	0.205196
	H25	H	0.106782	0.627205	0.207644
	H26	H	0.106813	0.315380	0.767375
	H27	H	0.897433	0.626943	0.765059
	H28	H	0.224944	0.866870	0.331733
	H29	H	0.227585	0.080890	0.638926
	H30	H	0.775618	0.085441	0.338186
	H31	H	0.777423	0.864123	0.640584
	H32	H	0.344869	0.192588	0.883205
	H33	H	0.660087	0.187861	0.085395
	H34	H	0.346922	0.749952	0.094543
	H35	H	0.655687	0.749639	0.878713
	H36	H	0.347679	0.864678	0.211515
	H37	H	0.658238	0.075268	0.204932
	H38	H	0.346999	0.080010	0.765092
	H39	H	0.653941	0.863617	0.760839
	H40	H	0.896066	0.197570	0.335550
	H41	H	0.114334	0.199364	0.637685
	H42	H	0.111158	0.748298	0.333429
	H43	H	0.894198	0.747547	0.639623
	H44	H	0.219929	0.313539	0.885406
	H45	H	0.223870	0.627170	0.092477
	H46	H	0.784541	0.313636	0.088087
	H47	H	0.781904	0.627999	0.881800
	H48	H	0.421991	0.081606	0.577322
	H49	H	0.586836	0.862464	0.573366
	H50	H	0.591029	0.086443	0.392453
	H51	H	0.408591	0.859181	0.397292
	H52	H	0.591056	0.378809	0.099194
	H53	H	0.592521	0.559529	0.876861
	H54	H	0.412470	0.547486	0.094372
	H55	H	0.411924	0.378639	0.875313
	H56	H	0.115291	0.561232	0.395361
	H57	H	0.890163	0.564028	0.577009
	H58	H	0.117560	0.380801	0.578458
	H59	H	0.888726	0.378215	0.401252
	H60	H	0.113749	0.384666	0.571323
	H61	H	0.893872	0.557592	0.571852
	H62	H	0.112868	0.559986	0.398824
	H63	H	0.891898	0.386771	0.400879
	H64	H	0.424879	0.568350	0.097690
	H65	H	0.589513	0.562157	0.877539
	H66	H	0.596006	0.374733	0.101411
	H67	H	0.408851	0.379791	0.874117
	H68	H	0.585384	0.083228	0.398560
	H69	H	0.591613	0.860037	0.575542
	H70	H	0.412496	0.081231	0.567829
	H71	H	0.417530	0.861485	0.395021
	H72	H	0.913151	0.583016	0.076353
	H73	H	0.092186	0.359274	0.076142
	H74	H	0.090083	0.584828	0.888037
	H75	H	0.912443	0.361584	0.901148
	H76	H	0.089174	0.882002	0.597049
	H77	H	0.102784	0.058086	0.374007
	H78	H	0.917089	0.053428	0.594511
	H79	H	0.909476	0.891600	0.377488
	H80	H	0.613888	0.064993	0.894381
	H81	H	0.388807	0.058268	0.081468
	H82	H	0.613728	0.879739	0.073791
	H83	H	0.390874	0.884827	0.899929
	H84	H	0.611506	0.887506	0.074061
	H85	H	0.387308	0.066535	0.081102
	H86	H	0.612078	0.062564	0.897655
	H87	H	0.391230	0.884774	0.902107
	H88	H	0.917926	0.065809	0.598680
	H89	H	0.083411	0.054092	0.381335
	H90	H	0.091206	0.882866	0.597470
	H91	H	0.921546	0.886876	0.380289
	H92	H	0.085604	0.579070	0.902964
	H93	H	0.090739	0.359145	0.079204
	H94	H	0.907463	0.585685	0.077365
	H95	H	0.909322	0.359170	0.896796
	H96	H	0.409663	0.086185	0.580172
	H97	H	0.586735	0.860154	0.578845
	H98	H	0.593993	0.084768	0.400961
	H99	H	0.414277	0.863263	0.403356
	H100	H	0.596995	0.381259	0.100373
	H101	H	0.592693	0.563633	0.875798
	H102	H	0.401174	0.566354	0.104352
	H103	H	0.411061	0.381792	0.875789
	H104	H	0.113327	0.557495	0.395636
	H105	H	0.891477	0.556192	0.580448
	H106	H	0.113602	0.389369	0.579115
	H107	H	0.888356	0.382999	0.392991
	H108	H	0.911501	0.585837	0.081740
	H109	H	0.089512	0.360492	0.076701
	H110	H	0.101281	0.584573	0.900233
	H111	H	0.914766	0.360767	0.896249
	H112	H	0.089788	0.884258	0.596264
	H113	H	0.087965	0.072867	0.374224
	H114	H	0.906669	0.058582	0.600936
	H115	H	0.912328	0.879350	0.374204
	H116	H	0.612695	0.060723	0.894058
	H117	H	0.390567	0.062562	0.074194
	H118	H	0.614663	0.883655	0.080688
	H119	H	0.391252	0.886768	0.900990
	C120	C	0.379782	-0.018678	0.608643
	C121	C	0.621524	0.963627	0.608496
	C122	C	0.622931	-0.018340	0.366168
	C123	C	0.381240	0.964338	0.365931
	C124	C	0.623941	0.350340	-0.004435
	C125	C	0.622492	0.592791	0.979657
	C126	C	0.380805	0.593261	-0.003596
	C127	C	0.381104	0.350563	0.979426
	C128	C	0.010883	0.592471	0.365442
	C129	C	0.994631	0.592667	0.607920
	C130	C	0.012495	0.351034	0.609429
	C131	C	0.992877	0.350712	0.366218
	C132	C	0.880034	0.480338	0.108634
	C133	C	0.122941	0.462863	0.108839
	C134	C	0.123864	0.479563	0.866070
	C135	C	0.881205	0.463717	0.866319
	C136	C	0.123286	0.851036	0.494843
	C137	C	0.124111	0.094112	0.478207
	C138	C	0.880949	0.093791	0.497070
	C139	C	0.880786	0.851580	0.478596
	C140	C	0.509569	0.094057	0.865184
	C141	C	0.492996	0.092954	0.108213
	C142	C	0.510481	0.851329	0.108791
	C143	C	0.492831	0.851982	0.866740
	C144	C	0.375196	0.864912	0.669945
	C145	C	0.623320	0.081599	0.667210
	C146	C	0.625632	0.864233	0.306950
	C147	C	0.379944	0.082126	0.306649
	C148	C	0.679435	0.354261	0.876210
	C149	C	0.679925	0.593023	0.097455
	C150	C	0.321714	0.595106	0.879223
	C151	C	0.324619	0.352235	0.098316
	C152	C	0.894193	0.653167	0.363944
	C153	C	0.112423	0.652348	0.608177
	C154	C	0.894954	0.290757	0.612038
	C155	C	0.111187	0.292285	0.364966
	C156	C	0.894768	0.348106	0.669484
	C157	C	0.112213	0.595551	0.666866
	C158	C	0.893293	0.594873	0.307083
	C159	C	0.110262	0.348669	0.305754
	C160	C	0.378021	0.654644	0.879975
	C161	C	0.622167	0.650858	0.097432
	C162	C	0.621180	0.296420	0.876159
	C163	C	0.382468	0.294343	0.098211
	C164	C	0.682777	0.864617	0.364785
	C165	C	0.681551	0.081205	0.610007
	C166	C	0.318101	0.864697	0.612013
	C167	C	0.322642	0.082563	0.364982
	C168	C	0.880079	0.361328	0.165864
	C169	C	0.125126	0.580349	0.168009
	C170	C	0.124951	0.362004	0.807438
	C171	C	0.879394	0.580516	0.805670
	C172	C	0.184712	0.848569	0.378500
	C173	C	0.186350	0.098337	0.593056
	C174	C	0.817780	0.100823	0.383135
	C175	C	0.818488	0.846663	0.594192
	C176	C	0.392117	0.153202	0.864495
	C177	C	0.612102	0.150001	0.106299
	C178	C	0.393468	0.790626	0.112126
	C179	C	0.608942	0.790076	0.861584
	C180	C	0.393915	0.847552	0.170418
	C181	C	0.611432	0.093995	0.165517
	C182	C	0.392885	0.096973	0.805870
	C183	C	0.608215	0.846895	0.803009
	C184	C	0.877663	0.156633	0.382126
	C185	C	0.129922	0.157048	0.592679
	C186	C	0.127873	0.789801	0.379160
	C187	C	0.876367	0.788622	0.593724
	C188	C	0.181433	0.361369	0.865996
	C189	C	0.183087	0.580424	0.110457
	C190	C	0.823064	0.361136	0.107612
	C191	C	0.822081	0.581147	0.864062
	C192	C	0.406750	0.062174	0.582497
	C193	C	0.595846	0.881987	0.583220
	C194	C	0.597546	0.063642	0.390375
	C195	C	0.406360	0.882372	0.391339
	C196	C	0.601515	0.372047	0.078660
	C197	C	0.598546	0.568748	0.898109
	C198	C	0.405694	0.568045	0.077552
	C199	C	0.403795	0.373452	0.896654
	C200	C	0.092465	0.567045	0.389781
	C201	C	0.913073	0.566758	0.583484
	C202	C	0.093915	0.377199	0.583772
	C203	C	0.910950	0.375393	0.391250
	C204	C	0.903898	0.563200	0.085277
	C205	C	0.097929	0.381014	0.084364
	C206	C	0.099237	0.561664	0.890167
	C207	C	0.905713	0.381736	0.891191
	C208	C	0.097348	0.876038	0.575688
	C209	C	0.098382	0.068861	0.397424
	C210	C	0.906551	0.066779	0.577350
	C211	C	0.907053	0.878444	0.398276
	C212	C	0.591590	0.069710	0.888623
	C213	C	0.410430	0.069224	0.085437
	C214	C	0.592145	0.876470	0.083195
	C215	C	0.412032	0.878117	0.893437
	Zn216	Zn	0.499859	-0.027412	0.737029
	Zn217	Zn	0.502367	-0.027918	0.237099
	Zn218	Zn	0.752244	0.472698	-0.012473
	Zn219	Zn	0.251948	0.471176	-0.012473
	Zn220	Zn	0.002090	0.721384	0.486437
	Zn221	Zn	0.002793	0.222917	0.488529
	Zn222	Zn	0.003420	0.472203	0.736951
	Zn223	Zn	0.001223	0.471339	0.237098
	Zn224	Zn	0.502000	0.722595	-0.012298
	Zn225	Zn	0.501740	0.221409	-0.012855
	Zn226	Zn	0.751157	-0.027269	0.487821
	Zn227	Zn	0.252585	-0.027672	0.486612
	N228	N	0.412614	0.938620	0.668040
	N229	N	0.587051	0.007164	0.666691
	N230	N	0.589136	0.938308	0.307526
	N231	N	0.415227	0.007462	0.306820
	N232	N	0.681680	0.386515	0.951803
	N233	N	0.680482	0.557825	0.023244
	N234	N	0.322952	0.557838	0.952646
	N235	N	0.323281	0.386068	0.023280
	N236	N	0.968345	0.652071	0.399548
	N237	N	0.038100	0.650836	0.572392
	N238	N	0.969345	0.292307	0.575615
	N239	N	0.037095	0.293229	0.401946
	N240	N	0.969005	0.384703	0.668374
	N241	N	0.037680	0.559590	0.667387
	N242	N	0.966920	0.557984	0.307727
	N243	N	0.035617	0.383883	0.306234
	N244	N	0.413921	0.653825	0.953830
	N245	N	0.587268	0.651207	0.023025
	N246	N	0.587869	0.293242	0.951563
	N247	N	0.416406	0.292669	0.023118
	N248	N	0.681440	0.938872	0.400833
	N249	N	0.680779	0.006747	0.574280
	N250	N	0.320467	0.938355	0.574719
	N251	N	0.323265	0.008005	0.401001
	N252	N	0.914639	0.436604	0.166986
	N253	N	0.088234	0.506368	0.167003
	N254	N	0.089775	0.436770	0.807192
	N255	N	0.915505	0.506402	0.806781
	N256	N	0.182173	0.886010	0.451538
	N257	N	0.182968	0.059640	0.520909
	N258	N	0.819648	0.062334	0.455639
	N259	N	0.821044	0.885135	0.521459
	N260	N	0.465867	0.151902	0.900581
	N261	N	0.537406	0.149647	0.071402
	N262	N	0.466938	0.792914	0.074304
	N263	N	0.536166	0.793067	0.900701
	N264	N	0.467885	0.884574	0.168558
	N265	N	0.536368	0.059260	0.167039
	N266	N	0.467047	0.060820	0.806030
	N267	N	0.534867	0.884804	0.805918
	N268	N	0.916556	0.152371	0.454040
	N269	N	0.091624	0.154426	0.520245
	N270	N	0.090231	0.790970	0.452438
	N271	N	0.914457	0.791319	0.520841
	N272	N	0.180772	0.435589	0.902020
	N273	N	0.181861	0.506254	0.074128
	N274	N	0.822692	0.436376	0.073094
	N275	N	0.822962	0.507444	0.900987
	O276	O	-0.069622	1.066771	-0.122010
	H277	H	-0.075818	1.075879	-0.118915
	H278	H	-0.075284	1.059990	-0.117791
	O279	O	0.451732	0.520246	0.657137
	H280	H	0.436329	0.515972	0.660207
	H281	H	0.448028	0.518267	0.670455
	O282	O	1.511101	0.474201	0.364264
	H283	H	1.503206	0.473894	0.368577
	H284	H	1.523169	0.466860	0.361447
	O285	O	0.318652	0.656366	0.672647
	H286	H	0.339872	0.642910	0.671488
	H287	H	0.293760	0.684348	0.705546
	O288	O	-0.236702	0.927071	0.912224
	H289	H	-0.236549	0.922688	0.930085
	H290	H	-0.246881	0.915893	0.917033
	O291	O	0.486529	0.550626	0.517570
	H292	H	0.477623	0.559297	0.539696
	H293	H	0.488290	0.550539	0.520982
	O294	O	0.945172	0.035512	1.219967
	H295	H	0.934191	0.015037	1.210130
	H296	H	0.950569	0.015687	1.223189
	O297	O	0.469143	0.687624	0.276880
	H298	H	0.472603	0.688052	0.281941
	H299	H	0.468905	0.688045	0.265730
	O300	O	-0.060175	-0.094565	0.755887
	H301	H	-0.057784	-0.104320	0.752985
	H302	H	-0.078904	-0.096838	0.756682
	O303	O	0.295844	0.267753	0.694087
	H304	H	0.317759	0.262361	0.670002
	H305	H	0.263140	0.232565	0.723232
	O306	O	0.520856	0.665538	0.423506
	H307	H	0.513393	0.654665	0.424980
	H308	H	0.509800	0.664549	0.429362
	O309	O	0.231947	1.199843	1.026448
	H310	H	0.233183	1.201284	1.069283
	H311	H	0.259556	1.222342	1.032918
	O312	O	0.140792	1.086165	0.926002
	H313	H	0.138248	1.071495	0.918695
	H314	H	0.158772	1.106234	0.946487
	O315	O	0.873034	0.849575	1.913063
	H316	H	0.868373	0.846705	1.920190
	H317	H	0.868708	0.839516	1.905642
	O318	O	0.607578	0.414776	0.513684
	H319	H	0.603618	0.411853	0.515176
	H320	H	0.599282	0.426346	0.510869
	O321	O	-0.205356	1.175729	0.769914
	H322	H	-0.195296	1.139059	0.766582
	H323	H	-0.182131	1.191933	0.761534
	O324	O	0.966924	0.844893	-0.177376
	H325	H	0.945491	0.825107	-0.183328
	H326	H	0.946772	0.850850	-0.166142
	O327	O	0.035170	-0.049589	1.205189
	H328	H	0.060323	-0.036607	1.210890
	H329	H	0.036022	-0.048834	1.195197
	O330	O	0.579031	0.414098	0.682613
	H331	H	0.570613	0.409178	0.678767
	H332	H	0.593977	0.397082	0.683854
	O333	O	0.986743	0.105936	1.073298
	H334	H	0.967677	0.097014	1.077201
	H335	H	0.985078	0.110861	1.075498
	O336	O	0.281314	0.382202	0.396654
	H337	H	0.280873	0.391429	0.406039
	H338	H	0.287728	0.389968	0.421422
	O339	O	0.483749	0.451225	0.396436
	H340	H	0.473973	0.457348	0.408235
	H341	H	0.485280	0.459448	0.396055
	O342	O	-0.294671	0.270755	0.284972
	H343	H	-0.277935	0.240146	0.259826
	H344	H	-0.307134	0.264424	0.300762
	O345	O	0.285627	1.261208	1.274009
	H346	H	0.302895	1.283020	1.300284
	H347	H	0.291787	1.278630	1.285451
	O348	O	0.191790	-0.217208	0.174664
	H349	H	0.157203	-0.212523	0.165075
	H350	H	0.191966	-0.184640	0.149228
	O351	O	0.380054	0.638175	0.537900
	H352	H	0.369399	0.642232	0.547816
	H353	H	0.360942	0.645986	0.535023
	O354	O	-0.028812	-0.236413	1.206218
	H355	H	-0.017636	-0.237544	1.207654
	H356	H	-0.019736	-0.236645	1.211499
	O357	O	0.230315	0.901816	0.053778
	H358	H	0.225382	0.921483	0.043452
	H359	H	0.239233	0.931021	0.061713
	O360	O	0.288496	0.502569	0.276463
	H361	H	0.289077	0.515662	0.286746
	H362	H	0.283092	0.508550	0.266850
	O363	O	-0.203411	-0.026670	0.063957
	H364	H	-0.208332	-0.044389	0.094418
	H365	H	-0.177400	-0.023091	0.057403
	O366	O	0.469607	0.255295	0.700533
	H367	H	0.460833	0.252164	0.705048
	H368	H	0.463640	0.257838	0.717522
	O369	O	1.215335	-0.243062	-0.219067
	H370	H	1.193496	-0.214115	-0.220171
	H371	H	1.216874	-0.237040	-0.176355
	O372	O	1.221493	0.750906	-0.046319
	H373	H	1.242631	0.747081	-0.034340
	H374	H	1.228804	0.761274	-0.034419
	O375	O	1.069083	-0.034463	0.031076
	H376	H	1.065264	-0.010437	0.030338
	H377	H	1.069549	-0.028231	0.033031
	O378	O	0.729048	0.436303	0.262321
	H379	H	0.723320	0.399777	0.271346
	H380	H	0.763446	0.428344	0.231156
	O381	O	-0.009467	1.189247	0.782469
	H382	H	-0.009247	1.183890	0.811292
	H383	H	-0.010726	1.222012	0.763387
	O384	O	0.958237	-0.193834	1.092039
	H385	H	0.970253	-0.206556	1.077523
	H386	H	0.947881	-0.172572	1.077557
	O387	O	1.441979	1.258255	-0.585834
	H388	H	1.459170	1.250139	-0.586256
	H389	H	1.436724	1.278611	-0.583668
	O390	O	0.644419	0.450225	0.459191
	H391	H	0.640191	0.438544	0.453134
	H392	H	0.647769	0.456764	0.443758
	O393	O	0.787290	0.754884	0.206228
	H394	H	0.834496	0.749696	0.207453
	H395	H	0.764021	0.719745	0.239467
	O396	O	0.224254	1.004510	1.210990
	H397	H	0.233442	1.031604	1.218926
	H398	H	0.239260	1.026964	1.225365
	O399	O	-0.459066	-0.742873	1.278365
	H400	H	-0.452688	-0.731331	1.289054
	H401	H	-0.464449	-0.758061	1.253113
	O402	O	0.041145	1.186003	-0.053612
	H403	H	0.064790	1.179769	-0.058818
	H404	H	0.038586	1.185170	-0.036094
	O405	O	0.963671	-0.054821	1.016721
	H406	H	0.971363	-0.057399	1.009496
	H407	H	0.977076	-0.055055	1.014007
	O408	O	0.221642	-0.046628	-0.231575
	H409	H	0.225635	-0.056773	-0.255403
	H410	H	0.205909	-0.042728	-0.241256
	O411	O	1.194049	1.161904	0.788575
	H412	H	1.175269	1.145282	0.811488
	H413	H	1.174723	1.138862	0.794745
	O414	O	0.512012	0.548452	0.629745
	H415	H	0.521887	0.553953	0.631106
	H416	H	0.502653	0.556385	0.629072
	O417	O	0.700097	0.685497	0.491646
	H418	H	0.685928	0.685337	0.508644
	H419	H	0.718750	0.699577	0.504360
	O420	O	0.303137	0.498197	0.495060
	H421	H	0.291872	0.508172	0.519489
	H422	H	0.297044	0.528862	0.486137
	O423	O	-0.226970	0.201895	0.937601
	H424	H	-0.263442	0.238247	0.934473
	H425	H	-0.216159	0.195364	0.891273
	O426	O	0.282624	0.439291	0.710002
	H427	H	0.277769	0.415956	0.717808
	H428	H	0.266235	0.417501	0.725026
	O429	O	0.781223	1.008636	0.764787
	H430	H	0.767196	1.008490	0.773474
	H431	H	0.769095	1.001663	0.754832
	O432	O	0.812361	0.158997	1.189494
	H433	H	0.828256	0.136443	1.181039
	H434	H	0.824887	0.136414	1.166046
	O435	O	0.293705	1.266549	0.524855
	H436	H	0.299092	1.261913	0.531526
	H437	H	0.282726	1.261868	0.520255
	O438	O	0.690511	0.284213	-0.325102
	H439	H	0.687185	0.287204	-0.343215
	H440	H	0.701179	0.274823	-0.329586
	O441	O	-0.229063	-0.257167	0.011684
	H442	H	-0.258032	-0.281719	0.025692
	H443	H	-0.227677	-0.249950	0.050894
	O444	O	0.743236	0.711993	0.695732
	H445	H	0.732088	0.686077	0.688453
	H446	H	0.736839	0.717492	0.687658
	O447	O	0.061737	1.032301	0.746068
	H448	H	0.038187	1.027898	0.749001
	H449	H	0.050921	1.036256	0.745188
	O450	O	-0.134643	1.140924	1.043133
	H451	H	-0.134436	1.127918	1.029425
	H452	H	-0.154361	1.148730	1.007921
	O453	O	0.623205	0.637289	0.632706
	H454	H	0.626260	0.625283	0.647454
	H455	H	0.612237	0.634071	0.615388
	O456	O	-0.218543	-0.048573	1.222911
	H457	H	-0.246204	-0.055086	1.256290
	H458	H	-0.217790	-0.090574	1.209202
	O459	O	1.194750	1.152331	0.172915
	H460	H	1.152384	1.160235	0.181060
	H461	H	1.217464	1.183274	0.201479
	O462	O	0.596159	0.284252	0.541072
	H463	H	0.592868	0.283846	0.537311
	H464	H	0.591403	0.296874	0.561423
	O465	O	1.036598	-0.247490	-0.238481
	H466	H	1.037297	-0.271035	-0.267783
	H467	H	1.045866	-0.252757	-0.216397
	O468	O	0.716090	0.507294	0.702184
	H469	H	0.728472	0.496606	0.693172
	H470	H	0.725363	0.498701	0.700627
	O471	O	0.295855	0.674788	0.279799
	H472	H	0.318989	0.657779	0.276358
	H473	H	0.274246	0.704704	0.248074
	O474	O	0.494334	0.634252	0.702416
	H475	H	0.492584	0.630198	0.704935
	H476	H	0.486981	0.632266	0.707146
	O477	O	0.656856	0.609548	1.295520
	H478	H	0.644537	0.603313	1.320710
	H479	H	0.648871	0.589944	1.299567
	O480	O	0.670028	0.459268	0.429647
	H481	H	0.671098	0.450901	0.422889
	H482	H	0.659733	0.459212	0.414013
	O483	O	0.283633	0.685542	0.448979
	H484	H	0.270865	0.695924	0.427313
	H485	H	0.275836	0.701026	0.427924
	O486	O	0.529714	0.489990	0.280249
	H487	H	0.517249	0.492356	0.281432
	H488	H	0.535832	0.491564	0.285318
	O489	O	0.982853	0.806523	-0.063268
	H490	H	0.968191	0.798551	-0.058557
	H491	H	0.985087	0.801460	-0.055678
	O492	O	0.033265	-0.266995	-0.002867
	H493	H	0.025130	-0.276016	-0.005940
	H494	H	0.036728	-0.272155	-0.026369
	O495	O	0.199746	0.973896	0.927371
	H496	H	0.196938	0.985419	0.919008
	H497	H	0.194457	0.968686	0.911414
	O498	O	1.042714	1.185247	1.208009
	H499	H	1.025626	1.191407	1.222874
	H500	H	1.021134	1.176784	1.205534
	O501	O	0.715037	0.260893	0.463471
	H502	H	0.707925	0.255382	0.457943
	H503	H	0.719301	0.247685	0.456722
