data_Molecule from HDF5

_cell_length_a		16.595513
_cell_length_b		16.590960
_cell_length_c		16.559105
_cell_angle_alpha	90.059997
_cell_angle_beta	89.969556
_cell_angle_gamma	89.986799
_symmetry_space_group_name_H-M	'P 1'
_symmetry_Int_Tables_number		1

loop_
	_symmetry_equiv_pos_as_xyz
	x,y,z

loop_
	_atom_site_label
	_atom_site_type_symbol
	_atom_site_fract_x
	_atom_site_fract_y
	_atom_site_fract_z
	H0	H	0.412341	0.842170	0.728800
	H1	H	0.620943	0.154577	0.731560
	H2	H	0.617122	0.841172	0.290599
	H3	H	0.409413	0.156145	0.289071
	H4	H	0.733479	0.394778	0.853453
	H5	H	0.734314	0.605062	0.166850
	H6	H	0.294601	0.601261	0.853436
	H7	H	0.290180	0.391796	0.166362
	H8	H	0.858038	0.721658	0.406014
	H9	H	0.168213	0.721760	0.617189
	H10	H	0.859018	0.276351	0.615200
	H11	H	0.169706	0.277012	0.403382
	H12	H	0.856756	0.394682	0.729449
	H13	H	0.168694	0.604020	0.732410
	H14	H	0.856916	0.605133	0.289987
	H15	H	0.169094	0.393450	0.287350
	H16	H	0.410845	0.717675	0.853189
	H17	H	0.618616	0.721098	0.167238
	H18	H	0.618459	0.277860	0.853910
	H19	H	0.407603	0.276191	0.165710
	H20	H	0.734005	0.841696	0.406488
	H21	H	0.735637	0.154372	0.614069
	H22	H	0.295722	0.841669	0.612046
	H23	H	0.291930	0.155553	0.404423
	H24	H	0.904054	0.344579	0.233974
	H25	H	0.115615	0.655601	0.229505
	H26	H	0.117415	0.342183	0.789311
	H27	H	0.909286	0.654931	0.789959
	H28	H	0.236491	0.892565	0.354626
	H29	H	0.235924	0.105542	0.666771
	H30	H	0.791841	0.105347	0.353948
	H31	H	0.791606	0.893541	0.665046
	H32	H	0.357875	0.222086	0.902777
	H33	H	0.670268	0.220131	0.114069
	H34	H	0.357094	0.779221	0.115285
	H35	H	0.668915	0.776666	0.904478
	H36	H	0.357670	0.894584	0.232269
	H37	H	0.670544	0.104724	0.230879
	H38	H	0.357568	0.103915	0.788266
	H39	H	0.670424	0.894853	0.790166
	H40	H	0.907285	0.221883	0.354758
	H41	H	0.120761	0.221538	0.666333
	H42	H	0.121144	0.775852	0.354878
	H43	H	0.910086	0.779291	0.667014
	H44	H	0.235513	0.343423	0.903227
	H45	H	0.233693	0.654517	0.115486
	H46	H	0.789113	0.344372	0.116661
	H47	H	0.794148	0.656029	0.907056
	H48	H	0.428717	0.109720	0.598366
	H49	H	0.602771	0.888424	0.594894
	H50	H	0.596194	0.106979	0.422954
	H51	H	0.427164	0.888906	0.420742
	H52	H	0.603851	0.409760	0.123224
	H53	H	0.605725	0.584514	0.898526
	H54	H	0.422122	0.588289	0.123404
	H55	H	0.429077	0.413606	0.901746
	H56	H	0.128599	0.594495	0.419444
	H57	H	0.900943	0.590706	0.597908
	H58	H	0.126673	0.410655	0.601274
	H59	H	0.904257	0.415491	0.423279
	H60	H	0.126471	0.408441	0.598719
	H61	H	0.902498	0.586716	0.598095
	H62	H	0.122417	0.586159	0.428173
	H63	H	0.900512	0.408481	0.418551
	H64	H	0.423589	0.589833	0.122705
	H65	H	0.597872	0.589479	0.899616
	H66	H	0.600549	0.414424	0.119938
	H67	H	0.425632	0.405326	0.897349
	H68	H	0.610029	0.111417	0.425927
	H69	H	0.605927	0.885502	0.600541
	H70	H	0.422158	0.110891	0.596495
	H71	H	0.424206	0.888294	0.423280
	H72	H	0.925309	0.609641	0.098746
	H73	H	0.099332	0.386348	0.102042
	H74	H	0.102503	0.610200	0.920997
	H75	H	0.923831	0.384532	0.914976
	H76	H	0.108970	0.909618	0.624450
	H77	H	0.105165	0.087549	0.397393
	H78	H	0.927387	0.087741	0.620243
	H79	H	0.930477	0.918531	0.402282
	H80	H	0.627009	0.090351	0.917704
	H81	H	0.402427	0.088492	0.097473
	H82	H	0.625091	0.912534	0.100145
	H83	H	0.400833	0.908737	0.919201
	H84	H	0.626487	0.907724	0.100963
	H85	H	0.404097	0.085979	0.097159
	H86	H	0.624553	0.090763	0.924004
	H87	H	0.402621	0.909363	0.921778
	H88	H	0.924063	0.087418	0.621911
	H89	H	0.102438	0.084000	0.399961
	H90	H	0.102399	0.916513	0.619759
	H91	H	0.931711	0.900705	0.397233
	H92	H	0.101887	0.610455	0.921492
	H93	H	0.100187	0.388131	0.095475
	H94	H	0.922806	0.610712	0.098324
	H95	H	0.926656	0.388371	0.922996
	H96	H	0.424247	0.112426	0.602920
	H97	H	0.599259	0.887428	0.601088
	H98	H	0.603975	0.113904	0.412471
	H99	H	0.423487	0.887310	0.419058
	H100	H	0.597120	0.408889	0.121674
	H101	H	0.605577	0.592982	0.896082
	H102	H	0.421970	0.590536	0.124058
	H103	H	0.420032	0.413427	0.898779
	H104	H	0.124584	0.581883	0.415434
	H105	H	0.900997	0.588692	0.601668
	H106	H	0.125622	0.412077	0.598469
	H107	H	0.903045	0.407861	0.427361
	H108	H	0.924045	0.611603	0.101071
	H109	H	0.104604	0.385278	0.098715
	H110	H	0.103080	0.610445	0.921621
	H111	H	0.918029	0.385090	0.922312
	H112	H	0.099114	0.906617	0.621859
	H113	H	0.099836	0.088032	0.399522
	H114	H	0.925621	0.084291	0.621298
	H115	H	0.915955	0.910481	0.394622
	H116	H	0.623738	0.085053	0.920403
	H117	H	0.402188	0.086502	0.099515
	H118	H	0.625191	0.909421	0.096414
	H119	H	0.401965	0.911667	0.919729
	C120	C	0.393548	0.007454	0.630854
	C121	C	0.635442	0.990152	0.630860
	C122	C	0.635509	0.007147	0.388276
	C123	C	0.392272	0.991049	0.388379
	C124	C	0.633574	0.378811	0.018466
	C125	C	0.634580	0.620884	1.002063
	C126	C	0.391877	0.620335	0.019165
	C127	C	0.391847	0.377432	1.001926
	C128	C	0.021972	0.620413	0.389076
	C129	C	1.004551	0.620443	0.631961
	C130	C	0.022724	0.378260	0.631025
	C131	C	1.005294	0.377930	0.389100
	C132	C	0.890803	0.508126	0.132252
	C133	C	0.133410	0.489974	0.131106
	C134	C	0.134739	0.507117	0.888723
	C135	C	0.891651	0.490051	0.888682
	C136	C	0.136309	0.877200	0.519316
	C137	C	0.135486	0.119954	0.502064
	C138	C	0.893067	0.119680	0.518328
	C139	C	0.893657	0.878352	0.501357
	C140	C	0.522109	0.121059	0.887965
	C141	C	0.505975	0.119853	0.130575
	C142	C	0.522503	0.877843	0.131547
	C143	C	0.505298	0.877519	0.888454
	C144	C	0.393081	0.888928	0.689094
	C145	C	0.638411	0.107719	0.691151
	C146	C	0.635983	0.888569	0.329967
	C147	C	0.390536	0.108984	0.328757
	C148	C	0.693537	0.376633	0.900676
	C149	C	0.694436	0.623437	0.119757
	C150	C	0.334025	0.620395	0.900546
	C151	C	0.330713	0.373813	0.119399
	C152	C	0.904477	0.681057	0.387507
	C153	C	0.121706	0.681218	0.635267
	C154	C	0.905212	0.317549	0.633036
	C155	C	0.122717	0.317127	0.385380
	C156	C	0.904202	0.376217	0.689923
	C157	C	0.121844	0.622589	0.692332
	C158	C	0.904077	0.623156	0.329829
	C159	C	0.122445	0.375341	0.327975
	C160	C	0.391681	0.678290	0.900524
	C161	C	0.636800	0.681190	0.119817
	C162	C	0.636348	0.318489	0.900694
	C163	C	0.389231	0.316638	0.119306
	C164	C	0.694164	0.888852	0.387505
	C165	C	0.695442	0.107720	0.632640
	C166	C	0.335170	0.888849	0.631250
	C167	C	0.332253	0.108674	0.386218
	C168	C	0.887026	0.391077	0.193241
	C169	C	0.134702	0.608245	0.190245
	C170	C	0.136452	0.389408	0.828917
	C171	C	0.890646	0.607984	0.829719
	C172	C	0.196617	0.874297	0.401682
	C173	C	0.195867	0.123155	0.619586
	C174	C	0.832088	0.123265	0.400986
	C175	C	0.832553	0.875696	0.618625
	C176	C	0.404673	0.181455	0.885240
	C177	C	0.623462	0.180204	0.132523
	C178	C	0.404415	0.818353	0.134069
	C179	C	0.622527	0.817399	0.886577
	C180	C	0.404733	0.875812	0.192144
	C181	C	0.623343	0.122729	0.190689
	C182	C	0.404455	0.122847	0.828073
	C183	C	0.623156	0.876003	0.829638
	C184	C	0.889773	0.181085	0.401250
	C185	C	0.138666	0.181264	0.619243
	C186	C	0.139233	0.816197	0.401838
	C187	C	0.891300	0.818915	0.619668
	C188	C	0.195078	0.389891	0.885830
	C189	C	0.193381	0.607700	0.133592
	C190	C	0.829952	0.390819	0.134864
	C191	C	0.833265	0.608422	0.887882
	C192	C	0.418024	0.089716	0.606380
	C193	C	0.609942	0.908409	0.605969
	C194	C	0.610658	0.089378	0.413283
	C195	C	0.417756	0.909341	0.413599
	C196	C	0.607631	0.404013	0.100288
	C197	C	0.610026	0.596091	0.919636
	C198	C	0.415533	0.596467	0.101817
	C199	C	0.417602	0.403374	0.920404
	C200	C	0.104001	0.595038	0.413837
	C201	C	0.922659	0.595729	0.606415
	C202	C	0.104806	0.403215	0.606477
	C203	C	0.923841	0.403421	0.415360
	C204	C	0.916523	0.589601	0.106708
	C205	C	0.108548	0.407873	0.105946
	C206	C	0.109645	0.589023	0.914059
	C207	C	0.915890	0.407489	0.913128
	C208	C	0.110739	0.903364	0.600830
	C209	C	0.109724	0.093882	0.420080
	C210	C	0.918502	0.093816	0.599894
	C211	C	0.918913	0.902877	0.419359
	C212	C	0.603921	0.095837	0.913365
	C213	C	0.424093	0.094288	0.105320
	C214	C	0.604255	0.902894	0.106330
	C215	C	0.423201	0.902722	0.913139
	Zn216	Zn	0.514579	-0.000997	0.759723
	Zn217	Zn	0.514295	-0.000798	0.260083
	Zn218	Zn	0.762828	0.499508	0.010447
	Zn219	Zn	0.263270	0.498585	0.010602
	Zn220	Zn	0.014033	0.749013	0.510409
	Zn221	Zn	0.014706	0.248629	0.509966
	Zn222	Zn	0.013256	0.498518	0.760253
	Zn223	Zn	0.012587	0.499225	0.260442
	Zn224	Zn	0.513255	0.749334	0.009988
	Zn225	Zn	0.513507	0.249036	0.009944
	Zn226	Zn	0.764300	-0.001184	0.509753
	Zn227	Zn	0.264145	-0.000464	0.510359
	N228	N	0.428288	0.963765	0.689278
	N229	N	0.601658	0.033668	0.690084
	N230	N	0.600549	0.963341	0.330216
	N231	N	0.427084	0.034712	0.329815
	N232	N	0.692107	0.413364	0.974981
	N233	N	0.693355	0.586778	0.045492
	N234	N	0.333736	0.585311	0.975414
	N235	N	0.332274	0.410967	0.045454
	N236	N	0.978961	0.679588	0.423584
	N237	N	0.047693	0.680062	0.598429
	N238	N	0.979867	0.318396	0.597176
	N239	N	0.048815	0.318574	0.422679
	N240	N	0.978311	0.412984	0.689011
	N241	N	0.047969	0.585700	0.690533
	N242	N	0.978075	0.586056	0.330915
	N243	N	0.048363	0.412231	0.329955
	N244	N	0.426924	0.678581	0.975470
	N245	N	0.600232	0.679763	0.045457
	N246	N	0.599755	0.319552	0.974998
	N247	N	0.426378	0.318616	0.045172
	N248	N	0.694255	0.963785	0.422783
	N249	N	0.693774	0.033642	0.595911
	N250	N	0.335219	0.963759	0.596087
	N251	N	0.333135	0.034329	0.422418
	N252	N	0.924147	0.464967	0.191867
	N253	N	0.098201	0.533932	0.188959
	N254	N	0.099585	0.463382	0.830482
	N255	N	0.925900	0.533107	0.829802
	N256	N	0.195060	0.911520	0.475709
	N257	N	0.193912	0.085757	0.545618
	N258	N	0.833870	0.085711	0.474811
	N259	N	0.833852	0.911781	0.544095
	N260	N	0.479175	0.180769	0.921412
	N261	N	0.549201	0.178742	0.095978
	N262	N	0.478582	0.819313	0.097204
	N263	N	0.548029	0.818079	0.922318
	N264	N	0.479236	0.911882	0.190980
	N265	N	0.549234	0.085959	0.189735
	N266	N	0.478574	0.086244	0.829354
	N267	N	0.549150	0.912786	0.830913
	N268	N	0.926862	0.179209	0.475265
	N269	N	0.101741	0.179425	0.544971
	N270	N	0.102378	0.817865	0.476093
	N271	N	0.928735	0.820376	0.545685
	N272	N	0.194196	0.464245	0.922249
	N273	N	0.192860	0.533067	0.097568
	N274	N	0.832221	0.464540	0.097479
	N275	N	0.833590	0.533855	0.923649
	O276	O	-0.161826	0.809113	-0.170764
	H277	H	-0.147512	0.836125	-0.162927
	H278	H	-0.143640	0.816108	-0.142916
	O279	O	0.395309	0.705643	0.493865
	H280	H	0.402200	0.710147	0.490629
	H281	H	0.384046	0.713537	0.479298
	O282	O	1.724688	0.306992	0.491782
	H283	H	1.722094	0.311984	0.488128
	H284	H	1.725914	0.299952	0.489365
	O285	O	0.573332	0.405747	0.421330
	H286	H	0.580293	0.406769	0.429719
	H287	H	0.578230	0.392533	0.404178
	O288	O	-0.158222	1.169402	0.147530
	H289	H	-0.149041	1.148043	0.134024
	H290	H	-0.144081	1.168776	0.131602
	O291	O	0.321804	0.689409	0.699168
	H292	H	0.334512	0.666249	0.679350
	H293	H	0.343208	0.669447	0.685181
	O294	O	1.223647	-0.207117	0.800600
	H295	H	1.254324	-0.240314	0.767155
	H296	H	1.203069	-0.183165	0.796739
	O297	O	0.546696	0.392867	0.409758
	H298	H	0.542582	0.412640	0.413598
	H299	H	0.558868	0.386244	0.400641
	O300	O	-0.191215	0.205852	0.803374
	H301	H	-0.204605	0.226409	0.792774
	H302	H	-0.204791	0.203083	0.815985
	O303	O	0.621015	0.433598	0.370139
	H304	H	0.623952	0.432434	0.359059
	H305	H	0.628481	0.413865	0.363941
	O306	O	0.545414	0.296016	0.543387
	H307	H	0.550505	0.291362	0.559489
	H308	H	0.526857	0.302076	0.551409
	O309	O	0.733020	0.529584	0.733205
	H310	H	0.757112	0.548866	0.751106
	H311	H	0.739611	0.557171	0.729165
	O312	O	0.720332	0.445605	0.296498
	H313	H	0.732063	0.426832	0.285078
	H314	H	0.725115	0.429387	0.302310
	O315	O	1.100869	0.942021	1.200495
	H316	H	1.093555	0.949240	1.179711
	H317	H	1.081243	0.954271	1.189717
	O318	O	0.460773	0.533361	0.683175
	H319	H	0.476267	0.517344	0.680369
	H320	H	0.471221	0.546503	0.690052
	O321	O	0.093094	1.208646	0.914682
	H322	H	0.084247	1.216280	0.893795
	H323	H	0.109721	1.196927	0.924522
	O324	O	0.807089	1.213787	-0.025440
	H325	H	0.808217	1.203640	-0.030718
	H326	H	0.795364	1.226998	-0.015626
	O327	O	-0.019118	0.037139	0.977967
	H328	H	-0.008114	0.042241	0.982703
	H329	H	-0.026332	0.039754	0.980584
	O330	O	1.033502	0.218804	0.229812
	H331	H	1.053646	0.224697	0.241602
	H332	H	1.042441	0.227233	0.238300
	O333	O	0.474097	0.487466	0.388348
	H334	H	0.482723	0.485996	0.390139
	H335	H	0.485050	0.491282	0.388580
	O336	O	0.583731	0.533618	0.651863
	H337	H	0.591359	0.550404	0.646309
	H338	H	0.578183	0.536939	0.663707
	O339	O	1.227308	-0.039680	0.798429
	H340	H	1.237067	-0.047631	0.778680
	H341	H	1.229505	-0.034953	0.804079
	O342	O	-0.464670	-0.568293	0.512527
	H343	H	-0.451015	-0.560189	0.515335
	H344	H	-0.475049	-0.575222	0.527200
	O345	O	0.484344	1.278148	0.730850
	H346	H	0.470412	1.292029	0.741288
	H347	H	0.468447	1.256962	0.756088
	O348	O	-0.508273	0.648761	0.561382
	H349	H	-0.517279	0.641344	0.561777
	H350	H	-0.494195	0.638590	0.571039
	O351	O	0.287945	0.644139	0.517454
	H352	H	0.281672	0.648569	0.516587
	H353	H	0.284945	0.645834	0.515844
	O354	O	-0.204172	0.007571	1.054576
	H355	H	-0.205210	-0.009304	1.056463
	H356	H	-0.198703	0.003537	1.059493
	O357	O	0.413322	0.513793	0.644734
	H358	H	0.422277	0.499520	0.641880
	H359	H	0.415340	0.493598	0.646399
	O360	O	-0.202188	-0.216886	1.070246
	H361	H	-0.203303	-0.219146	1.082486
	H362	H	-0.213797	-0.227063	1.062678
	O363	O	0.075350	-0.172164	0.005770
	H364	H	0.066636	-0.177302	0.004675
	H365	H	0.071331	-0.174461	-0.013029
	O366	O	0.538664	0.621049	0.289999
	H367	H	0.526983	0.609778	0.297987
	H368	H	0.533100	0.640673	0.280343
	O369	O	1.134986	-0.036537	0.096738
	H370	H	1.125667	-0.026322	0.079982
	H371	H	1.131262	-0.039657	0.101639
	O372	O	0.968037	0.881597	-0.207354
	H373	H	0.982123	0.883759	-0.210036
	H374	H	0.973568	0.884372	-0.215094
	O375	O	0.929421	-0.030842	0.106656
	H376	H	0.924479	-0.029618	0.113016
	H377	H	0.923807	-0.038763	0.096509
	O378	O	0.228768	0.143353	0.848157
	H379	H	0.223304	0.146324	0.871639
	H380	H	0.225623	0.135371	0.851621
	O381	O	0.305975	0.289126	0.535259
	H382	H	0.295957	0.273110	0.525831
	H383	H	0.319414	0.286864	0.525589
	O384	O	0.559567	0.707524	0.720558
	H385	H	0.593558	0.708804	0.722786
	H386	H	0.570946	0.715333	0.733980
	O387	O	0.985371	0.785835	0.227788
	H388	H	0.982892	0.768176	0.223734
	H389	H	0.976707	0.791302	0.241359
	O390	O	0.454445	0.384282	0.533741
	H391	H	0.461822	0.378832	0.543078
	H392	H	0.449710	0.378928	0.530405
	O393	O	0.339004	0.442647	0.495454
	H394	H	0.342347	0.439712	0.485833
	H395	H	0.329754	0.438643	0.491710
	O396	O	0.034808	1.050591	0.826336
	H397	H	0.005060	1.063572	0.830944
	H398	H	0.045397	1.059066	0.817759
	O399	O	0.710355	0.451413	1.560055
	H400	H	0.706330	0.451254	1.556637
	H401	H	0.716613	0.464447	1.566423
	O402	O	0.009937	-0.115959	1.027761
	H403	H	0.018347	-0.118946	1.023283
	H404	H	0.019993	-0.106899	1.031910
	O405	O	1.133632	0.010799	0.869594
	H406	H	1.151600	0.006068	0.845526
	H407	H	1.123697	0.007602	0.875225
	O408	O	-0.161290	-0.106402	-0.041566
	H409	H	-0.158711	-0.105197	-0.044557
	H410	H	-0.152892	-0.106553	-0.034060
	O411	O	0.168175	1.041191	0.128302
	H412	H	0.170873	1.030352	0.132131
	H413	H	0.176480	1.046453	0.118824
	O414	O	0.231844	0.033841	0.230531
	H415	H	0.248790	0.029760	0.237912
	H416	H	0.244467	0.034526	0.225374
	O417	O	0.657774	0.288514	0.323004
	H418	H	0.673805	0.275468	0.312789
	H419	H	0.662891	0.282841	0.331946
	O420	O	0.333352	0.323369	0.688377
	H421	H	0.329230	0.320196	0.663997
	H422	H	0.320435	0.325279	0.694528
	O423	O	-0.209893	-0.036641	1.235225
	H424	H	-0.207495	-0.021465	1.251303
	H425	H	-0.223411	-0.058389	1.255729
	O426	O	1.213821	0.205241	0.211567
	H427	H	1.211216	0.209801	0.212831
	H428	H	1.224178	0.194605	0.213417
	O429	O	0.839390	0.816965	1.192937
	H430	H	0.825175	0.825140	1.209426
	H431	H	0.852976	0.818477	1.170473
	O432	O	0.984541	0.013926	-0.096699
	H433	H	0.978342	0.013324	-0.084376
	H434	H	0.977709	0.011475	-0.103208
	O435	O	0.273334	0.737662	0.265294
	H436	H	0.275534	0.746070	0.285371
	H437	H	0.250883	0.761974	0.252247
	O438	O	0.237833	-0.225320	-0.021815
	H439	H	0.247203	-0.235017	-0.050455
	H440	H	0.255697	-0.233721	-0.041297
	O441	O	0.233694	0.215666	0.037669
	H442	H	0.236453	0.226450	0.044831
	H443	H	0.243430	0.223461	0.038681
	O444	O	0.463617	0.413234	0.302905
	H445	H	0.479821	0.427106	0.299731
	H446	H	0.476967	0.430810	0.310143
	O447	O	-0.193561	1.041684	0.825483
	H448	H	-0.189514	1.051138	0.816524
	H449	H	-0.203485	1.052052	0.820863
	O450	O	-0.052253	1.198432	1.058409
	H451	H	-0.058428	1.196051	1.062788
	H452	H	-0.034906	1.199710	1.055025
	O453	O	0.701699	0.312553	0.686595
	H454	H	0.672839	0.322495	0.673714
	H455	H	0.696851	0.337139	0.663166
	O456	O	-0.697934	0.471331	0.717182
	H457	H	-0.702987	0.479123	0.717393
	H458	H	-0.702702	0.460871	0.730947
	O459	O	0.726930	0.572642	0.391662
	H460	H	0.720917	0.564933	0.390584
	H461	H	0.722969	0.550296	0.382636
	O462	O	0.577404	0.697337	0.307962
	H463	H	0.554652	0.684191	0.303670
	H464	H	0.571788	0.702474	0.307184
	O465	O	0.982608	0.213101	-0.210174
	H466	H	0.962111	0.225041	-0.221350
	H467	H	0.964565	0.223496	-0.213954
	O468	O	0.478076	0.706669	0.378900
	H469	H	0.473295	0.686982	0.379474
	H470	H	0.470113	0.709849	0.359094
	O471	O	0.722097	0.707245	0.541137
	H472	H	0.723982	0.714208	0.524996
	H473	H	0.714152	0.706038	0.524190
	O474	O	0.292529	0.532233	0.289467
	H475	H	0.283024	0.535162	0.270065
	H476	H	0.291176	0.543641	0.278780
	O477	O	0.393074	0.422965	1.347807
	H478	H	0.383126	0.433153	1.349953
	H479	H	0.410521	0.434374	1.346855
	O480	O	0.076923	0.834077	-0.143522
	H481	H	0.077580	0.834085	-0.141218
	H482	H	0.072189	0.826831	-0.153982
	O483	O	0.724287	0.710572	0.721252
	H484	H	0.726624	0.711371	0.675993
	H485	H	0.752434	0.741443	0.744449
	O486	O	0.081750	0.851610	0.147856
	H487	H	0.092178	0.840641	0.147830
	H488	H	0.091473	0.842725	0.131789
	O489	O	1.034220	1.055539	0.137328
	H490	H	1.054518	1.055422	0.133234
	H491	H	1.040842	1.063085	0.141191
