data_Molecule from HDF5

_cell_length_a		16.198946
_cell_length_b		16.384551
_cell_length_c		16.044792
_cell_angle_alpha	90.478219
_cell_angle_beta	89.594567
_cell_angle_gamma	89.933673
_symmetry_space_group_name_H-M	'P 1'
_symmetry_Int_Tables_number		1

loop_
	_symmetry_equiv_pos_as_xyz
	x,y,z

loop_
	_atom_site_label
	_atom_site_type_symbol
	_atom_site_fract_x
	_atom_site_fract_y
	_atom_site_fract_z
	H0	H	0.388904	0.837111	0.715089
	H1	H	0.583715	0.164524	0.717884
	H2	H	0.589077	0.839424	0.284441
	H3	H	0.391205	0.166219	0.290954
	H4	H	0.702873	0.401945	0.836890
	H5	H	0.699120	0.601908	0.169116
	H6	H	0.277581	0.597526	0.836942
	H7	H	0.274789	0.405051	0.168824
	H8	H	0.827152	0.719948	0.401113
	H9	H	0.151651	0.720319	0.606370
	H10	H	0.825820	0.285399	0.606018
	H11	H	0.151604	0.282416	0.397639
	H12	H	0.824062	0.407032	0.715499
	H13	H	0.154451	0.599860	0.714287
	H14	H	0.823827	0.597405	0.293607
	H15	H	0.153564	0.402536	0.287418
	H16	H	0.386597	0.715484	0.837819
	H17	H	0.587184	0.719070	0.166627
	H18	H	0.591741	0.284112	0.837737
	H19	H	0.385709	0.287915	0.167703
	H20	H	0.706412	0.839787	0.398334
	H21	H	0.704408	0.162994	0.605508
	H22	H	0.270731	0.839202	0.602333
	H23	H	0.273373	0.164814	0.405688
	H24	H	0.889355	0.337878	0.216839
	H25	H	0.085178	0.665302	0.217950
	H26	H	0.087400	0.338826	0.785910
	H27	H	0.893350	0.666465	0.791560
	H28	H	0.203447	0.902348	0.337640
	H29	H	0.199416	0.101424	0.669120
	H30	H	0.777657	0.097571	0.336729
	H31	H	0.774682	0.905539	0.668328
	H32	H	0.325008	0.218364	0.902078
	H33	H	0.650928	0.220586	0.105196
	H34	H	0.324638	0.786201	0.105785
	H35	H	0.650291	0.781413	0.896735
	H36	H	0.323302	0.907509	0.215503
	H37	H	0.653860	0.099748	0.213708
	H38	H	0.321271	0.095623	0.794279
	H39	H	0.653279	0.902635	0.786612
	H40	H	0.888289	0.214953	0.338179
	H41	H	0.087999	0.218657	0.667617
	H42	H	0.093983	0.783074	0.339300
	H43	H	0.887734	0.788156	0.668273
	H44	H	0.204605	0.338553	0.901437
	H45	H	0.203292	0.664413	0.103843
	H46	H	0.770442	0.339702	0.102400
	H47	H	0.772074	0.664355	0.904311
	H48	H	0.399599	0.115529	0.600572
	H49	H	0.580080	0.885260	0.592988
	H50	H	0.598475	0.121454	0.411871
	H51	H	0.394629	0.886046	0.409774
	H52	H	0.572775	0.413160	0.117758
	H53	H	0.573553	0.599604	0.884135
	H54	H	0.400150	0.596496	0.120771
	H55	H	0.400465	0.410402	0.885588
	H56	H	0.109609	0.594612	0.402350
	H57	H	0.875096	0.593468	0.586818
	H58	H	0.106958	0.410123	0.594296
	H59	H	0.872804	0.413514	0.410285
	H60	H	0.107919	0.405692	0.592765
	H61	H	0.870873	0.589939	0.605117
	H62	H	0.106908	0.600241	0.416996
	H63	H	0.869029	0.403191	0.407686
	H64	H	0.394232	0.599532	0.122966
	H65	H	0.590347	0.593747	0.880769
	H66	H	0.577696	0.403607	0.122668
	H67	H	0.398985	0.402913	0.883200
	H68	H	0.575723	0.120322	0.396371
	H69	H	0.584361	0.885308	0.592021
	H70	H	0.390829	0.115838	0.591825
	H71	H	0.396788	0.886217	0.408365
	H72	H	0.889356	0.619461	0.104558
	H73	H	0.075843	0.387095	0.096974
	H74	H	0.082355	0.614161	0.922916
	H75	H	0.899623	0.388155	0.912247
	H76	H	0.074354	0.908702	0.620494
	H77	H	0.086983	0.087043	0.384511
	H78	H	0.903727	0.099194	0.620754
	H79	H	0.890336	0.909587	0.382828
	H80	H	0.605109	0.096603	0.911859
	H81	H	0.373038	0.086219	0.100805
	H82	H	0.603732	0.906489	0.084511
	H83	H	0.372054	0.908684	0.914537
	H84	H	0.604610	0.913977	0.094796
	H85	H	0.366704	0.105175	0.102551
	H86	H	0.604452	0.092411	0.912575
	H87	H	0.370081	0.907521	0.906764
	H88	H	0.889698	0.099723	0.624842
	H89	H	0.072986	0.091763	0.386704
	H90	H	0.081297	0.906672	0.623183
	H91	H	0.904405	0.912791	0.388196
	H92	H	0.096705	0.622473	0.905075
	H93	H	0.083947	0.387258	0.087209
	H94	H	0.902236	0.615527	0.098228
	H95	H	0.891211	0.385844	0.910862
	H96	H	0.388470	0.120957	0.603192
	H97	H	0.583222	0.884237	0.595401
	H98	H	0.575136	0.111633	0.422814
	H99	H	0.397005	0.888115	0.410408
	H100	H	0.584260	0.413579	0.121748
	H101	H	0.577616	0.582457	0.887588
	H102	H	0.393023	0.592393	0.121455
	H103	H	0.392921	0.409041	0.882596
	H104	H	0.103255	0.585063	0.413144
	H105	H	0.868353	0.607134	0.597394
	H106	H	0.105139	0.408243	0.589584
	H107	H	0.872770	0.405117	0.417708
	H108	H	0.890594	0.615738	0.090112
	H109	H	0.088167	0.382518	0.098212
	H110	H	0.073755	0.617632	0.900573
	H111	H	0.897046	0.385510	0.903710
	H112	H	0.080710	0.913637	0.621274
	H113	H	0.084107	0.100814	0.380524
	H114	H	0.895588	0.086896	0.619689
	H115	H	0.901363	0.899326	0.382818
	H116	H	0.605618	0.093151	0.908991
	H117	H	0.373565	0.097821	0.085004
	H118	H	0.608287	0.902774	0.094996
	H119	H	0.368789	0.901648	0.911829
	C120	C	0.364547	0.009744	0.626232
	C121	C	0.609905	0.992539	0.623916
	C122	C	0.612126	0.010300	0.379658
	C123	C	0.366917	0.994187	0.381518
	C124	C	0.608788	0.380460	0.011412
	C125	C	0.608817	0.622475	0.993557
	C126	C	0.367245	0.623065	0.011809
	C127	C	0.367598	0.380164	0.993656
	C128	C	-0.001996	0.622197	0.382520
	C129	C	0.980416	0.624575	0.624718
	C130	C	-0.002082	0.380226	0.622941
	C131	C	0.980096	0.378629	0.381018
	C132	C	0.865028	0.509943	0.126040
	C133	C	0.110569	0.493263	0.124415
	C134	C	0.112741	0.510359	0.879757
	C135	C	0.867353	0.494129	0.881018
	C136	C	0.109885	0.880165	0.512421
	C137	C	0.109256	0.122643	0.493898
	C138	C	0.867402	0.122980	0.512191
	C139	C	0.868297	0.879698	0.493998
	C140	C	0.496216	0.122113	0.882388
	C141	C	0.479795	0.124935	0.124815
	C142	C	0.496988	0.880530	0.122366
	C143	C	0.478940	0.877591	0.880096
	C144	C	0.368077	0.886263	0.678753
	C145	C	0.605693	0.115175	0.680458
	C146	C	0.609563	0.888185	0.322597
	C147	C	0.370365	0.116943	0.327873
	C148	C	0.665655	0.381511	0.886640
	C149	C	0.662944	0.622094	0.118652
	C150	C	0.313689	0.618761	0.886781
	C151	C	0.311810	0.384105	0.118805
	C152	C	0.875386	0.679991	0.383117
	C153	C	0.103316	0.680974	0.624516
	C154	C	0.874608	0.324525	0.624044
	C155	C	0.102820	0.321431	0.379523
	C156	C	0.873725	0.384928	0.678668
	C157	C	0.104805	0.620777	0.677930
	C158	C	0.873522	0.619163	0.329403
	C159	C	0.103831	0.381066	0.324296
	C160	C	0.368027	0.677609	0.887310
	C161	C	0.607273	0.680442	0.117451
	C162	C	0.609895	0.323198	0.887088
	C163	C	0.367165	0.325833	0.118406
	C164	C	0.667826	0.888261	0.379707
	C165	C	0.665780	0.114779	0.624400
	C166	C	0.308935	0.887492	0.622794
	C167	C	0.311265	0.116275	0.384780
	C168	C	0.868518	0.387001	0.179591
	C169	C	0.106438	0.616276	0.180275
	C170	C	0.109002	0.387551	0.823799
	C171	C	0.871347	0.617284	0.827965
	C172	C	0.166332	0.881867	0.387519
	C173	C	0.163074	0.121727	0.619115
	C174	C	0.813981	0.118715	0.386751
	C175	C	0.812472	0.884139	0.618755
	C176	C	0.373147	0.178522	0.883594
	C177	C	0.602595	0.181307	0.123881
	C178	C	0.373485	0.825215	0.123462
	C179	C	0.602027	0.820796	0.878538
	C180	C	0.372752	0.885187	0.178357
	C181	C	0.603980	0.121369	0.178203
	C182	C	0.371484	0.117883	0.829464
	C183	C	0.603404	0.881361	0.824131
	C184	C	0.868896	0.177207	0.387450
	C185	C	0.107635	0.180008	0.618296
	C186	C	0.111868	0.822577	0.388313
	C187	C	0.868764	0.825943	0.618827
	C188	C	0.167268	0.387491	0.881312
	C189	C	0.165329	0.615846	0.123484
	C190	C	0.809202	0.387763	0.123042
	C191	C	0.810992	0.616156	0.883998
	C192	C	0.386515	0.095311	0.605016
	C193	C	0.588765	0.907100	0.600206
	C194	C	0.589654	0.095687	0.403359
	C195	C	0.389446	0.908699	0.403269
	C196	C	0.585222	0.403467	0.098089
	C197	C	0.586900	0.598669	0.906501
	C198	C	0.389452	0.602260	0.099154
	C199	C	0.390785	0.401192	0.906516
	C200	C	0.084379	0.599758	0.404376
	C201	C	0.893876	0.603174	0.602840
	C202	C	0.084146	0.401545	0.599185
	C203	C	0.893910	0.400926	0.404747
	C204	C	0.887389	0.594934	0.104046
	C205	C	0.089084	0.407738	0.100919
	C206	C	0.090708	0.596090	0.902896
	C207	C	0.889311	0.408472	0.902643
	C208	C	0.086044	0.903072	0.599175
	C209	C	0.087825	0.099830	0.406691
	C210	C	0.889692	0.101620	0.599241
	C211	C	0.891916	0.900915	0.407019
	C212	C	0.582756	0.100435	0.904542
	C213	C	0.393432	0.102881	0.102676
	C214	C	0.583203	0.901613	0.098365
	C215	C	0.392875	0.899430	0.903975
	Zn216	Zn	0.486975	0.000443	0.753471
	Zn217	Zn	0.489186	0.002571	0.251306
	Zn218	Zn	0.736190	0.501656	0.003214
	Zn219	Zn	0.240803	0.501529	0.002780
	Zn220	Zn	-0.010177	0.751972	0.503367
	Zn221	Zn	-0.011397	0.250239	0.502386
	Zn222	Zn	-0.010072	0.502995	0.751019
	Zn223	Zn	-0.011531	0.500976	0.253697
	Zn224	Zn	0.487701	0.750167	0.001917
	Zn225	Zn	0.488040	0.252407	0.003005
	Zn226	Zn	0.740314	0.001645	0.502152
	Zn227	Zn	0.236638	0.001709	0.503750
	N228	N	0.401809	0.963134	0.681027
	N229	N	0.571549	0.038318	0.680040
	N230	N	0.575316	0.965062	0.322670
	N231	N	0.404309	0.039882	0.325666
	N232	N	0.665056	0.416458	0.964849
	N233	N	0.664114	0.586780	0.040391
	N234	N	0.312934	0.585585	0.965315
	N235	N	0.311803	0.417228	0.040157
	N236	N	0.953961	0.682092	0.415490
	N237	N	0.024921	0.683637	0.592149
	N238	N	0.952794	0.321479	0.590051
	N239	N	0.024476	0.319400	0.413610
	N240	N	0.951430	0.418803	0.678253
	N241	N	0.027222	0.586679	0.678460
	N242	N	0.950601	0.583949	0.328856
	N243	N	0.026533	0.415886	0.325071
	N244	N	0.400689	0.680306	0.966271
	N245	N	0.574484	0.680750	0.038648
	N246	N	0.575283	0.322346	0.965597
	N247	N	0.401496	0.323456	0.039786
	N248	N	0.669467	0.965214	0.414562
	N249	N	0.668549	0.037570	0.589846
	N250	N	0.306595	0.965232	0.590665
	N251	N	0.309146	0.038924	0.417539
	N252	N	0.902434	0.463887	0.181595
	N253	N	0.073034	0.539009	0.180811
	N254	N	0.075962	0.465039	0.822583
	N255	N	0.905773	0.540431	0.826141
	N256	N	0.165171	0.917071	0.465721
	N257	N	0.164228	0.086743	0.540845
	N258	N	0.812672	0.085830	0.465438
	N259	N	0.811972	0.916851	0.540170
	N260	N	0.451797	0.181280	0.915849
	N261	N	0.524202	0.183681	0.091420
	N262	N	0.451790	0.822075	0.089359
	N263	N	0.523802	0.818235	0.912649
	N264	N	0.450465	0.918981	0.177894
	N265	N	0.526533	0.086917	0.178892
	N266	N	0.448967	0.083429	0.828572
	N267	N	0.525800	0.915765	0.824892
	N268	N	0.901541	0.179954	0.466353
	N269	N	0.074790	0.180520	0.539516
	N270	N	0.077488	0.821393	0.466942
	N271	N	0.902844	0.823028	0.540013
	N272	N	0.169681	0.464894	0.915321
	N273	N	0.167968	0.538495	0.089388
	N274	N	0.806949	0.465075	0.090184
	N275	N	0.808315	0.538480	0.916096
	O276	O	-0.015359	0.150367	0.049866
	H277	H	-0.010979	0.147800	0.053920
	H278	H	-0.017837	0.157083	0.053062
	O279	O	0.559243	0.453495	0.519471
	H280	H	0.560937	0.456669	0.525962
	H281	H	0.551900	0.455918	0.534660
	O282	O	0.454218	0.534100	0.414971
	H283	H	0.450697	0.535091	0.414653
	H284	H	0.451947	0.544890	0.408845
	O285	O	-0.026421	0.929505	0.983212
	H286	H	-0.021140	0.922871	0.976060
	H287	H	-0.025968	0.918373	0.991045
	O288	O	0.449745	0.470263	0.412560
	H289	H	0.448863	0.471685	0.402901
	H290	H	0.439643	0.477367	0.417927
	O291	O	1.010323	1.025319	0.938186
	H292	H	1.016178	1.029151	0.948801
	H293	H	1.012297	1.022583	0.934739
	O294	O	1.563058	0.352093	0.475014
	H295	H	1.556789	0.350577	0.475362
	H296	H	1.572180	0.351183	0.473617
	O297	O	0.948360	-0.033634	0.938050
	H298	H	0.951538	-0.038089	0.945814
	H299	H	0.943334	-0.040984	0.928634
	O300	O	0.593276	0.637133	0.536626
	H301	H	0.606163	0.642788	0.546462
	H302	H	0.595881	0.615569	0.538940
	O303	O	0.959269	-0.046962	0.016222
	H304	H	0.956976	-0.039883	0.016698
	H305	H	0.966512	-0.051191	0.025398
	O306	O	-0.034310	0.976476	0.941451
	H307	H	-0.027720	0.963570	0.938893
	H308	H	-0.032152	0.982955	0.932813
	O309	O	0.358719	0.412973	0.577258
	H310	H	0.353040	0.403942	0.572033
	H311	H	0.359123	0.420030	0.577899
	O312	O	1.058377	-0.047105	1.052237
	H313	H	1.052724	-0.047929	1.067611
	H314	H	1.059225	-0.049556	1.048489
	O315	O	0.430258	0.480524	0.536107
	H316	H	0.422422	0.475554	0.523499
	H317	H	0.430168	0.485394	0.518248
	O318	O	0.576423	0.550961	0.444416
	H319	H	0.580339	0.555824	0.439437
	H320	H	0.572184	0.546378	0.449040
	O321	O	0.980830	1.040747	1.108083
	H322	H	0.977487	1.048337	1.104728
	H323	H	0.970530	1.044402	1.111187
	O324	O	0.838403	0.282582	0.165104
	H325	H	0.837602	0.292317	0.162560
	H326	H	0.838122	0.280888	0.175909
	O327	O	0.517036	0.559373	0.566647
	H328	H	0.523332	0.563892	0.566146
	H329	H	0.517120	0.556383	0.574969
	O330	O	1.028944	0.106406	1.041850
	H331	H	1.006403	0.124286	1.042134
	H332	H	1.032106	0.106298	1.043364
	O333	O	1.375048	1.576311	-0.584655
	H334	H	1.369517	1.588633	-0.595332
	H335	H	1.376754	1.574662	-0.592191
	O336	O	0.596581	0.712724	0.699478
	H337	H	0.597482	0.714167	0.701379
	H338	H	0.604339	0.710895	0.702753
	O339	O	0.547219	0.418399	0.337973
	H340	H	0.544257	0.409519	0.331300
	H341	H	0.557504	0.420536	0.359761
	O342	O	-0.021805	1.022419	-0.000876
	H343	H	-0.015558	1.019417	0.004834
	H344	H	-0.027601	1.015077	-0.014553
	O345	O	-0.045673	-0.009181	-0.075931
	H346	H	-0.044792	-0.010747	-0.085670
	H347	H	-0.041835	-0.014223	-0.079779
	O348	O	0.568001	0.526251	0.567911
	H349	H	0.571458	0.537246	0.568096
	H350	H	0.577158	0.524023	0.572272
	O351	O	0.514742	0.520940	0.623564
	H352	H	0.525846	0.526932	0.634792
	H353	H	0.514375	0.514109	0.609056
	O354	O	0.465714	0.501527	0.586104
	H355	H	0.473496	0.499635	0.592276
	H356	H	0.466734	0.495883	0.585174
	O357	O	0.518358	0.543394	0.512620
	H358	H	0.519903	0.534070	0.505916
	H359	H	0.523224	0.541070	0.504207
	O360	O	-0.001303	-0.027227	0.011162
	H361	H	-0.007360	-0.015753	0.001760
	H362	H	0.007654	-0.026809	0.018004
	O363	O	0.514276	0.477736	0.592653
	H364	H	0.496682	0.473665	0.601627
	H365	H	0.501543	0.473591	0.597338
	O366	O	-0.067356	0.016358	1.029864
	H367	H	-0.072131	0.014531	1.022067
	H368	H	-0.062283	0.014494	1.036385
	O369	O	0.496690	0.483051	0.440736
	H370	H	0.493614	0.494220	0.452787
	H371	H	0.510319	0.483151	0.447200
