data_Molecule from HDF5

_cell_length_a		16.586506
_cell_length_b		16.271269
_cell_length_c		16.442214
_cell_angle_alpha	89.889390
_cell_angle_beta	89.951405
_cell_angle_gamma	89.904231
_symmetry_space_group_name_H-M	'P 1'
_symmetry_Int_Tables_number		1

loop_
	_symmetry_equiv_pos_as_xyz
	x,y,z

loop_
	_atom_site_label
	_atom_site_type_symbol
	_atom_site_fract_x
	_atom_site_fract_y
	_atom_site_fract_z
	H0	H	0.387978	0.848865	0.735253
	H1	H	0.600882	0.167193	0.731803
	H2	H	0.602208	0.850834	0.290513
	H3	H	0.388427	0.167552	0.289133
	H4	H	0.723042	0.397858	0.855712
	H5	H	0.721216	0.614318	0.168491
	H6	H	0.269855	0.623715	0.857411
	H7	H	0.270599	0.395338	0.165948
	H8	H	0.840318	0.726133	0.409495
	H9	H	0.153996	0.731816	0.619303
	H10	H	0.840757	0.287184	0.615646
	H11	H	0.154998	0.283164	0.404154
	H12	H	0.845003	0.396723	0.738945
	H13	H	0.154006	0.616608	0.736973
	H14	H	0.843056	0.613604	0.287725
	H15	H	0.153515	0.396434	0.284946
	H16	H	0.392039	0.732184	0.853790
	H17	H	0.600537	0.726451	0.171298
	H18	H	0.602816	0.287973	0.853413
	H19	H	0.390434	0.283723	0.167885
	H20	H	0.720245	0.852071	0.403640
	H21	H	0.718811	0.166923	0.619487
	H22	H	0.272325	0.849352	0.620678
	H23	H	0.270149	0.164563	0.400805
	H24	H	0.892740	0.348341	0.233316
	H25	H	0.102924	0.666178	0.232416
	H26	H	0.106535	0.348913	0.789789
	H27	H	0.894274	0.667157	0.790744
	H28	H	0.222038	0.896319	0.355836
	H29	H	0.222261	0.116569	0.667406
	H30	H	0.773984	0.117113	0.354655
	H31	H	0.772001	0.899242	0.668739
	H32	H	0.341674	0.232797	0.904328
	H33	H	0.655221	0.228253	0.114646
	H34	H	0.339786	0.787914	0.115449
	H35	H	0.656744	0.790281	0.909563
	H36	H	0.340850	0.902606	0.234903
	H37	H	0.652636	0.117147	0.235390
	H38	H	0.341248	0.116223	0.787353
	H39	H	0.653066	0.899662	0.786061
	H40	H	0.893554	0.229299	0.353205
	H41	H	0.101985	0.227882	0.669533
	H42	H	0.100441	0.786752	0.353478
	H43	H	0.890890	0.785342	0.670549
	H44	H	0.226387	0.352911	0.900530
	H45	H	0.222562	0.664777	0.122292
	H46	H	0.775908	0.348715	0.120218
	H47	H	0.778468	0.667516	0.905427
	H48	H	0.410715	0.119580	0.597249
	H49	H	0.589222	0.893752	0.595676
	H50	H	0.583307	0.123237	0.424299
	H51	H	0.413846	0.893594	0.417815
	H52	H	0.587866	0.420626	0.124954
	H53	H	0.595174	0.598072	0.895875
	H54	H	0.411287	0.602680	0.124891
	H55	H	0.412739	0.421390	0.899289
	H56	H	0.111563	0.594424	0.418986
	H57	H	0.886791	0.591120	0.604736
	H58	H	0.112100	0.414836	0.601035
	H59	H	0.887658	0.421084	0.419724
	H60	H	0.108737	0.420492	0.596221
	H61	H	0.884813	0.599443	0.601769
	H62	H	0.111076	0.598235	0.422529
	H63	H	0.885915	0.417001	0.421028
	H64	H	0.402813	0.592726	0.125761
	H65	H	0.588118	0.594011	0.899689
	H66	H	0.587476	0.419918	0.124738
	H67	H	0.408398	0.426188	0.899800
	H68	H	0.586950	0.124678	0.425953
	H69	H	0.584102	0.893556	0.601025
	H70	H	0.408155	0.119989	0.594790
	H71	H	0.414895	0.899430	0.431123
	H72	H	0.906876	0.620168	0.092568
	H73	H	0.086950	0.396484	0.091074
	H74	H	0.082937	0.618468	0.930875
	H75	H	0.902789	0.390024	0.921586
	H76	H	0.080435	0.925321	0.620888
	H77	H	0.083312	0.091491	0.400056
	H78	H	0.909987	0.096985	0.623756
	H79	H	0.911584	0.918875	0.401170
	H80	H	0.609709	0.097490	0.920934
	H81	H	0.384957	0.098376	0.099772
	H82	H	0.609306	0.916566	0.099144
	H83	H	0.386709	0.915518	0.929223
	H84	H	0.608236	0.924285	0.100570
	H85	H	0.386625	0.095599	0.097936
	H86	H	0.607895	0.094690	0.921660
	H87	H	0.387503	0.928153	0.922370
	H88	H	0.904997	0.098335	0.627306
	H89	H	0.084135	0.095892	0.398341
	H90	H	0.083160	0.914751	0.625447
	H91	H	0.904426	0.913707	0.396567
	H92	H	0.088091	0.622518	0.924370
	H93	H	0.089520	0.391856	0.099566
	H94	H	0.905418	0.624265	0.102782
	H95	H	0.916313	0.393888	0.920120
	H96	H	0.407549	0.120940	0.598414
	H97	H	0.582855	0.896470	0.594252
	H98	H	0.586005	0.125103	0.421396
	H99	H	0.402529	0.893366	0.426377
	H100	H	0.588173	0.420050	0.125905
	H101	H	0.587104	0.602768	0.896452
	H102	H	0.414576	0.590491	0.120035
	H103	H	0.414803	0.426672	0.902296
	H104	H	0.109721	0.593742	0.423487
	H105	H	0.889325	0.593244	0.596468
	H106	H	0.110258	0.422623	0.603624
	H107	H	0.888173	0.419949	0.424499
	H108	H	0.915390	0.619517	0.100385
	H109	H	0.080201	0.394546	0.098393
	H110	H	0.079441	0.620715	0.922808
	H111	H	0.910045	0.396033	0.932117
	H112	H	0.091233	0.923335	0.625346
	H113	H	0.087841	0.092399	0.398833
	H114	H	0.905640	0.092603	0.624544
	H115	H	0.903312	0.923304	0.399139
	H116	H	0.609994	0.095414	0.919196
	H117	H	0.385393	0.094916	0.101311
	H118	H	0.610894	0.919441	0.106163
	H119	H	0.382173	0.917025	0.915880
	C120	C	0.375326	0.015441	0.631229
	C121	C	0.617068	0.999846	0.630904
	C122	C	0.618121	0.019008	0.390722
	C123	C	0.375787	0.999678	0.390580
	C124	C	0.620394	0.386432	0.020756
	C125	C	0.620841	0.629869	1.002601
	C126	C	0.376049	0.630176	0.020042
	C127	C	0.377132	0.388574	1.003030
	C128	C	0.007125	0.628274	0.389537
	C129	C	0.990191	0.628508	0.633932
	C130	C	0.007395	0.385662	0.633866
	C131	C	0.990161	0.385423	0.388838
	C132	C	0.876999	0.516004	0.132255
	C133	C	0.119248	0.498597	0.131603
	C134	C	0.118959	0.516530	0.891166
	C135	C	0.877285	0.498679	0.891014
	C136	C	0.118264	0.886396	0.520333
	C137	C	0.118656	0.127747	0.502562
	C138	C	0.875459	0.129358	0.520479
	C139	C	0.873804	0.885454	0.503271
	C140	C	0.506027	0.129970	0.888483
	C141	C	0.488994	0.129992	0.132618
	C142	C	0.505905	0.887097	0.134320
	C143	C	0.488854	0.886444	0.889279
	C144	C	0.370911	0.896507	0.694007
	C145	C	0.619004	0.119422	0.692001
	C146	C	0.620578	0.898900	0.330325
	C147	C	0.370990	0.119352	0.329131
	C148	C	0.681837	0.381672	0.902717
	C149	C	0.680349	0.632232	0.121564
	C150	C	0.312258	0.638327	0.903678
	C151	C	0.313206	0.380650	0.119724
	C152	C	0.888103	0.687073	0.389375
	C153	C	0.107294	0.690831	0.637310
	C154	C	0.889079	0.325451	0.635534
	C155	C	0.107919	0.323767	0.386099
	C156	C	0.890740	0.380592	0.696480
	C157	C	0.107336	0.633366	0.695893
	C158	C	0.889328	0.631089	0.328980
	C159	C	0.107059	0.380041	0.326397
	C160	C	0.373334	0.692419	0.901791
	C161	C	0.620393	0.688027	0.122786
	C162	C	0.621881	0.326540	0.901607
	C163	C	0.372785	0.324551	0.120493
	C164	C	0.679354	0.899544	0.386593
	C165	C	0.677977	0.119284	0.636135
	C166	C	0.313142	0.896664	0.637024
	C167	C	0.312079	0.117767	0.384878
	C168	C	0.874410	0.396229	0.193657
	C169	C	0.121840	0.618221	0.192987
	C170	C	0.124098	0.397142	0.829668
	C171	C	0.875456	0.618986	0.830328
	C172	C	0.180362	0.880294	0.402585
	C173	C	0.180804	0.133085	0.620461
	C174	C	0.814888	0.133906	0.401880
	C175	C	0.812761	0.881826	0.621561
	C176	C	0.388487	0.192191	0.886073
	C177	C	0.607512	0.189375	0.134019
	C178	C	0.387273	0.827328	0.134974
	C179	C	0.608290	0.827969	0.888852
	C180	C	0.387635	0.884505	0.194190
	C181	C	0.606130	0.134192	0.194360
	C182	C	0.388310	0.134012	0.827942
	C183	C	0.606228	0.882454	0.827242
	C184	C	0.874308	0.189820	0.401056
	C185	C	0.121100	0.188756	0.621634
	C186	C	0.120141	0.825344	0.401421
	C187	C	0.871933	0.824794	0.622308
	C188	C	0.184068	0.399301	0.884360
	C189	C	0.181388	0.617392	0.138053
	C190	C	0.816179	0.396622	0.137221
	C191	C	0.817648	0.619051	0.887593
	C192	C	0.401253	0.098393	0.604593
	C193	C	0.592348	0.916346	0.604574
	C194	C	0.592811	0.102461	0.416519
	C195	C	0.402817	0.916977	0.417507
	C196	C	0.595120	0.412630	0.103576
	C197	C	0.596980	0.605415	0.919042
	C198	C	0.402090	0.603072	0.102151
	C199	C	0.403960	0.416819	0.921794
	C200	C	0.089285	0.602939	0.414391
	C201	C	0.908366	0.602121	0.608378
	C202	C	0.089037	0.411872	0.607945
	C203	C	0.908369	0.411792	0.414524
	C204	C	0.902058	0.599548	0.106205
	C205	C	0.093200	0.416067	0.104193
	C206	C	0.091389	0.598917	0.918443
	C207	C	0.902502	0.415144	0.917054
	C208	C	0.092466	0.913336	0.602329
	C209	C	0.092805	0.100949	0.420448
	C210	C	0.900047	0.103293	0.603474
	C211	C	0.899196	0.911297	0.420494
	C212	C	0.587703	0.103561	0.913486
	C213	C	0.407011	0.103758	0.107016
	C214	C	0.588033	0.912695	0.109187
	C215	C	0.407017	0.912495	0.915067
	Zn216	Zn	0.496298	0.007398	0.759205
	Zn217	Zn	0.496352	0.010198	0.263022
	Zn218	Zn	0.749061	0.507421	0.011804
	Zn219	Zn	0.247036	0.509134	0.011378
	Zn220	Zn	-0.002461	0.757305	0.512494
	Zn221	Zn	-0.001795	0.256551	0.511104
	Zn222	Zn	-0.000854	0.507337	0.763111
	Zn223	Zn	-0.000812	0.506709	0.259274
	Zn224	Zn	0.498203	0.757880	0.011894
	Zn225	Zn	0.498131	0.258940	0.011167
	Zn226	Zn	0.746388	0.009216	0.512158
	Zn227	Zn	0.247301	0.006971	0.510534
	N228	N	0.408889	0.971279	0.690665
	N229	N	0.581975	0.043976	0.688904
	N230	N	0.583335	0.974274	0.332592
	N231	N	0.410216	0.044957	0.332834
	N232	N	0.681134	0.418113	0.978138
	N233	N	0.680938	0.597066	0.045658
	N234	N	0.313988	0.600194	0.978259
	N235	N	0.315782	0.419832	0.045720
	N236	N	0.962438	0.685691	0.426174
	N237	N	0.033615	0.687957	0.599624
	N238	N	0.962681	0.328555	0.597091
	N239	N	0.034289	0.326893	0.424159
	N240	N	0.965222	0.417089	0.695661
	N241	N	0.033390	0.595210	0.693694
	N242	N	0.964444	0.595653	0.328707
	N243	N	0.032860	0.417657	0.327976
	N244	N	0.412476	0.687605	0.975308
	N245	N	0.584190	0.686759	0.047678
	N246	N	0.584582	0.329381	0.976078
	N247	N	0.412023	0.329315	0.046906
	N248	N	0.678085	0.975303	0.423305
	N249	N	0.677029	0.043734	0.598933
	N250	N	0.315864	0.971657	0.598532
	N251	N	0.314965	0.042338	0.422427
	N252	N	0.911684	0.471624	0.190844
	N253	N	0.084269	0.543202	0.189249
	N254	N	0.084519	0.471305	0.833720
	N255	N	0.911594	0.543016	0.831929
	N256	N	0.179307	0.917449	0.477442
	N257	N	0.179531	0.096105	0.545309
	N258	N	0.815284	0.097313	0.477394
	N259	N	0.813502	0.918414	0.546209
	N260	N	0.462795	0.190221	0.922814
	N261	N	0.533717	0.186915	0.096338
	N262	N	0.461922	0.828623	0.098576
	N263	N	0.534288	0.830018	0.926460
	N264	N	0.462437	0.920629	0.194045
	N265	N	0.531198	0.098115	0.193644
	N266	N	0.462114	0.096035	0.829323
	N267	N	0.530741	0.917702	0.827179
	N268	N	0.911152	0.187221	0.475828
	N269	N	0.083187	0.185571	0.547518
	N270	N	0.082182	0.828867	0.475639
	N271	N	0.909311	0.826886	0.547557
	N272	N	0.181200	0.474721	0.921561
	N273	N	0.179895	0.541923	0.100648
	N274	N	0.817612	0.472130	0.099968
	N275	N	0.818513	0.543053	0.924306
	O276	O	-0.039542	-0.038293	-0.015676
	H277	H	-0.029134	-0.044433	-0.021138
	H278	H	-0.051566	-0.045974	-0.010813
	O279	O	0.797223	-0.187392	1.211904
	H280	H	0.772500	-0.205157	1.239546
	H281	H	0.821138	-0.180437	1.206753
	O282	O	0.479552	0.541290	0.355298
	H283	H	0.473920	0.564373	0.355809
	H284	H	0.480338	0.537267	0.362261
	O285	O	0.299935	0.348046	0.653865
	H286	H	0.282590	0.380144	0.664070
	H287	H	0.326390	0.332689	0.661605
	O288	O	0.783460	0.813246	0.038247
	H289	H	0.756890	0.785647	0.048671
	H290	H	0.785527	0.819713	0.057698
	O291	O	0.418523	0.490639	0.729062
	H292	H	0.447688	0.519601	0.735856
	H293	H	0.437034	0.478129	0.715102
	O294	O	0.175875	-0.066480	1.198805
	H295	H	0.180935	-0.062677	1.202011
	H296	H	0.161825	-0.077273	1.207990
	O297	O	0.499542	0.326591	0.304755
	H298	H	0.502205	0.299846	0.294138
	H299	H	0.507557	0.327259	0.309979
	O300	O	0.554816	0.726209	0.451470
	H301	H	0.538035	0.735533	0.431085
	H302	H	0.526609	0.711029	0.475527
	O303	O	0.523029	0.307363	0.508996
	H304	H	0.510457	0.314579	0.510099
	H305	H	0.527113	0.303049	0.503518
	O306	O	0.847529	0.976719	0.191962
	H307	H	0.852722	0.968033	0.198711
	H308	H	0.847116	0.961187	0.199201
	O309	O	0.312018	0.695683	0.324999
	H310	H	0.315175	0.672375	0.327422
	H311	H	0.301674	0.676076	0.350192
	O312	O	0.166884	0.853171	0.846041
	H313	H	0.148911	0.849516	0.859785
	H314	H	0.179056	0.894306	0.837381
	O315	O	0.674503	0.502901	0.342924
	H316	H	0.673437	0.499535	0.350592
	H317	H	0.680990	0.509725	0.343524
	O318	O	1.102455	0.080459	-0.159159
	H319	H	1.077128	0.109949	-0.158460
	H320	H	1.100115	0.072068	-0.128388
	O321	O	0.201776	-0.187863	-0.012302
	H322	H	0.210980	-0.211212	-0.013602
	H323	H	0.194196	-0.184507	-0.023097
	O324	O	0.666798	0.520586	0.447298
	H325	H	0.654796	0.523848	0.460069
	H326	H	0.672302	0.521159	0.450894
	O327	O	0.399693	0.481533	0.507625
	H328	H	0.395298	0.466036	0.527978
	H329	H	0.408206	0.470786	0.501541
	O330	O	0.510785	1.714992	-0.271562
	H331	H	0.499591	1.736917	-0.272742
	H332	H	0.514680	1.732752	-0.278112
	O333	O	0.448104	0.460882	0.487422
	H334	H	0.436633	0.443974	0.502854
	H335	H	0.442799	0.464442	0.481120
	O336	O	0.016645	0.211126	0.213981
	H337	H	0.020123	0.218308	0.213197
	H338	H	0.014060	0.226471	0.224602
	O339	O	-0.198408	1.147673	1.020936
	H340	H	-0.210721	1.140907	1.038674
	H341	H	-0.214415	1.151745	1.031557
	O342	O	-0.043272	1.051462	1.101347
	H343	H	-0.033635	1.037401	1.108687
	H344	H	-0.026963	1.063716	1.105440
	O345	O	0.691008	0.717277	-0.450341
	H346	H	0.683536	0.732038	-0.463114
	H347	H	0.693557	0.729456	-0.461077
	O348	O	0.322311	0.488452	0.706723
	H349	H	0.350603	0.497826	0.706817
	H350	H	0.299887	0.487201	0.744417
	O351	O	0.003280	0.807899	0.970311
	H352	H	-0.008301	0.807413	0.961390
	H353	H	-0.016521	0.813372	0.983065
	O354	O	-0.033693	0.822844	-0.018299
	H355	H	-0.035272	0.823924	-0.036611
	H356	H	-0.061722	0.817309	-0.014761
	O357	O	-0.187754	0.133603	1.053648
	H358	H	-0.172944	0.123493	1.056967
	H359	H	-0.193470	0.131623	1.069837
	O360	O	0.520791	0.332535	0.664384
	H361	H	0.510068	0.325624	0.650384
	H362	H	0.544587	0.335585	0.671743
	O363	O	-0.021579	0.216856	0.803564
	H364	H	-0.018965	0.208880	0.828600
	H365	H	-0.027822	0.248975	0.773572
	O366	O	0.200591	0.213501	1.020890
	H367	H	0.194564	0.223163	1.015517
	H368	H	0.215345	0.215329	1.036732
	O369	O	0.320056	0.507315	0.532742
	H370	H	0.321177	0.496547	0.553938
	H371	H	0.320074	0.497414	0.517820
	O372	O	0.988087	0.192311	1.014334
	H373	H	0.995197	0.181285	1.028586
	H374	H	0.969153	0.200595	1.005692
	O375	O	0.677545	0.679562	0.690835
	H376	H	0.672904	0.677900	0.673351
	H377	H	0.659044	0.694337	0.667783
	O378	O	0.463201	0.478341	0.298842
	H379	H	0.475087	0.462747	0.297801
	H380	H	0.476471	0.486287	0.299479
	O381	O	0.939892	-0.154191	0.153285
	H382	H	0.947012	-0.159608	0.157425
	H383	H	0.930848	-0.163208	0.150253
	O384	O	0.442280	0.297339	0.663553
	H385	H	0.446945	0.277148	0.689399
	H386	H	0.459074	0.303594	0.661660
	O387	O	0.280257	-0.469174	0.294993
	H388	H	0.265736	-0.477288	0.274619
	H389	H	0.291566	-0.492198	0.286001
	O390	O	0.123275	-0.041316	0.116317
	H391	H	0.120134	-0.048339	0.095310
	H392	H	0.109633	-0.041192	0.113819
	O393	O	0.807217	1.194807	0.822275
	H394	H	0.839164	1.190169	0.823245
	H395	H	0.803941	1.194820	0.860736
	O396	O	1.415858	0.639637	0.618388
	H397	H	1.418751	0.617487	0.614786
	H398	H	1.395023	0.641942	0.619362
	O399	O	0.929410	-0.026427	0.945571
	H400	H	0.932901	-0.035056	0.959964
	H401	H	0.915252	-0.026327	0.943038
	O402	O	1.721191	0.526433	0.733576
	H403	H	1.747673	0.526895	0.754822
	H404	H	1.719296	0.562867	0.728552
	O405	O	0.797051	1.032602	-0.194756
	H406	H	0.780518	1.047032	-0.202508
	H407	H	0.809544	1.036459	-0.196870
	O408	O	1.181327	-0.003007	0.031335
	H409	H	1.190882	-0.019954	0.036110
	H410	H	1.185642	-0.004504	0.038796
	O411	O	1.169710	1.181394	0.179863
	H412	H	1.158716	1.165372	0.172511
	H413	H	1.165489	1.163737	0.175187
	O414	O	0.433856	0.599878	0.581045
	H415	H	0.431297	0.586328	0.591667
	H416	H	0.412972	0.584971	0.583374
	O417	O	0.471981	0.724772	0.298769
	H418	H	0.469281	0.751291	0.273166
	H419	H	0.440485	0.719776	0.306747
	O420	O	0.693736	0.676446	0.342832
	H421	H	0.674968	0.659346	0.367151
	H422	H	0.678354	0.654528	0.349478
	O423	O	0.648906	0.326883	0.323634
	H424	H	0.661033	0.329025	0.356677
	H425	H	0.642440	0.339304	0.311670
	O426	O	0.696952	0.303579	0.466171
	H427	H	0.705317	0.303082	0.477709
	H428	H	0.701395	0.297454	0.473645
	O429	O	0.703737	0.488237	0.543569
	H430	H	0.703364	0.491023	0.551268
	H431	H	0.689473	0.493308	0.534171
	O432	O	0.630059	0.392579	0.705574
	H433	H	0.650609	0.391362	0.701818
	H434	H	0.639215	0.403443	0.712864
	O435	O	0.182063	1.000645	-0.192161
	H436	H	0.194645	1.008905	-0.206469
	H437	H	0.171926	1.026661	-0.190809
	O438	O	-0.115540	-0.034892	0.011346
	H439	H	-0.106558	-0.051062	0.010066
	H440	H	-0.113318	-0.040664	-0.006131
	O441	O	1.064730	0.140024	-0.127250
	H442	H	1.062818	0.130175	-0.100638
	H443	H	1.070104	0.140771	-0.126232
	O444	O	0.041039	0.897360	1.224698
	H445	H	0.053831	0.891234	1.219481
	H446	H	0.048833	0.873614	1.224473
	O447	O	0.290518	0.713180	0.492071
	H448	H	0.283659	0.693884	0.502135
	H449	H	0.274445	0.729412	0.489908
	O450	O	0.303521	0.332637	0.487583
	H451	H	0.297881	0.310479	0.490241
	H452	H	0.302029	0.339433	0.524271
	O453	O	-0.003707	-0.017295	0.897069
	H454	H	0.007921	-0.022453	0.895673
	H455	H	-0.000809	-0.025019	0.878335
