data_Molecule from HDF5

_cell_length_a		16.573957
_cell_length_b		16.510827
_cell_length_c		16.628819
_cell_angle_alpha	89.870298
_cell_angle_beta	89.921265
_cell_angle_gamma	89.905217
_symmetry_space_group_name_H-M	'P 1'
_symmetry_Int_Tables_number		1

loop_
	_symmetry_equiv_pos_as_xyz
	x,y,z

loop_
	_atom_site_label
	_atom_site_type_symbol
	_atom_site_fract_x
	_atom_site_fract_y
	_atom_site_fract_z
	H0	H	0.396663	0.845541	0.727005
	H1	H	0.609553	0.157400	0.721035
	H2	H	0.608140	0.841804	0.282355
	H3	H	0.399488	0.156192	0.280259
	H4	H	0.729173	0.394396	0.845613
	H5	H	0.727656	0.604673	0.157028
	H6	H	0.283549	0.606364	0.845933
	H7	H	0.282532	0.391317	0.154516
	H8	H	0.850686	0.722076	0.394101
	H9	H	0.162667	0.717420	0.603228
	H10	H	0.847536	0.280202	0.603976
	H11	H	0.161667	0.277301	0.397872
	H12	H	0.848696	0.393879	0.722917
	H13	H	0.162823	0.599847	0.719815
	H14	H	0.851355	0.606028	0.277482
	H15	H	0.160297	0.389890	0.277152
	H16	H	0.400792	0.722416	0.845966
	H17	H	0.610443	0.720351	0.157565
	H18	H	0.613902	0.276558	0.845615
	H19	H	0.402417	0.279156	0.156677
	H20	H	0.723304	0.841574	0.399148
	H21	H	0.724160	0.157184	0.602778
	H22	H	0.281764	0.844665	0.610383
	H23	H	0.283701	0.156104	0.397055
	H24	H	0.899372	0.342756	0.223925
	H25	H	0.114665	0.652626	0.226330
	H26	H	0.110864	0.341477	0.781084
	H27	H	0.902466	0.656290	0.780715
	H28	H	0.228906	0.893177	0.347110
	H29	H	0.229255	0.106514	0.656599
	H30	H	0.787105	0.102643	0.343107
	H31	H	0.783413	0.893481	0.656179
	H32	H	0.349194	0.221392	0.897460
	H33	H	0.663496	0.218481	0.103215
	H34	H	0.349877	0.777899	0.107271
	H35	H	0.661348	0.778586	0.897250
	H36	H	0.349440	0.894282	0.223734
	H37	H	0.661480	0.105796	0.223293
	H38	H	0.351117	0.108499	0.778241
	H39	H	0.660266	0.893586	0.778629
	H40	H	0.903017	0.219771	0.344695
	H41	H	0.110092	0.220329	0.658060
	H42	H	0.112020	0.777072	0.346264
	H43	H	0.900995	0.778027	0.657001
	H44	H	0.228108	0.342538	0.896462
	H45	H	0.228190	0.654299	0.107593
	H46	H	0.783991	0.343040	0.107169
	H47	H	0.786865	0.657333	0.897721
	H48	H	0.421936	0.109244	0.587669
	H49	H	0.593312	0.886044	0.596379
	H50	H	0.592825	0.111378	0.411235
	H51	H	0.421610	0.890488	0.417887
	H52	H	0.589721	0.411263	0.109104
	H53	H	0.600191	0.588085	0.888734
	H54	H	0.413755	0.585195	0.112364
	H55	H	0.426797	0.410401	0.892055
	H56	H	0.114387	0.587196	0.420373
	H57	H	0.892702	0.588367	0.591503
	H58	H	0.118647	0.405756	0.591733
	H59	H	0.893484	0.410677	0.412720
	H60	H	0.116669	0.410454	0.590204
	H61	H	0.893304	0.587844	0.591740
	H62	H	0.114762	0.579345	0.411755
	H63	H	0.895037	0.410796	0.414620
	H64	H	0.419980	0.586473	0.110118
	H65	H	0.593121	0.587529	0.891159
	H66	H	0.596459	0.406319	0.113973
	H67	H	0.412708	0.405139	0.885228
	H68	H	0.598119	0.113900	0.412666
	H69	H	0.588819	0.890174	0.588197
	H70	H	0.416044	0.111247	0.585861
	H71	H	0.412023	0.886218	0.415057
	H72	H	0.915532	0.611275	0.085894
	H73	H	0.089830	0.387057	0.092835
	H74	H	0.093675	0.610436	0.911832
	H75	H	0.924774	0.390032	0.914228
	H76	H	0.094939	0.914910	0.610954
	H77	H	0.093041	0.095780	0.389207
	H78	H	0.914622	0.091412	0.613379
	H79	H	0.911298	0.910275	0.386991
	H80	H	0.621150	0.095583	0.910454
	H81	H	0.391025	0.097214	0.092166
	H82	H	0.617501	0.913574	0.093489
	H83	H	0.394585	0.910726	0.916063
	H84	H	0.618334	0.907330	0.091523
	H85	H	0.396819	0.087138	0.084479
	H86	H	0.614422	0.085223	0.919802
	H87	H	0.395720	0.915611	0.913992
	H88	H	0.912036	0.086755	0.613175
	H89	H	0.101325	0.081615	0.390677
	H90	H	0.088775	0.907622	0.611439
	H91	H	0.917774	0.912516	0.390441
	H92	H	0.096567	0.611588	0.911482
	H93	H	0.091272	0.389825	0.083604
	H94	H	0.917544	0.612888	0.093738
	H95	H	0.909595	0.386103	0.918515
	H96	H	0.418267	0.112227	0.592101
	H97	H	0.598726	0.886402	0.587755
	H98	H	0.596012	0.113724	0.406979
	H99	H	0.420042	0.886646	0.407901
	H100	H	0.598463	0.415370	0.111249
	H101	H	0.595244	0.594393	0.888158
	H102	H	0.416855	0.591615	0.113591
	H103	H	0.413972	0.420363	0.891218
	H104	H	0.120441	0.589677	0.410116
	H105	H	0.892406	0.588194	0.591639
	H106	H	0.118315	0.409417	0.595041
	H107	H	0.894701	0.412793	0.412803
	H108	H	0.922890	0.608377	0.088537
	H109	H	0.098193	0.385266	0.088193
	H110	H	0.094385	0.611658	0.909642
	H111	H	0.914906	0.382894	0.903396
	H112	H	0.097038	0.906764	0.615808
	H113	H	0.085702	0.082490	0.396152
	H114	H	0.916776	0.086930	0.611658
	H115	H	0.917317	0.905661	0.387944
	H116	H	0.617738	0.081578	0.905096
	H117	H	0.392987	0.084616	0.097630
	H118	H	0.615706	0.912262	0.087776
	H119	H	0.392066	0.911896	0.911069
	C120	C	0.384765	0.008519	0.622709
	C121	C	0.626042	0.991429	0.622044
	C122	C	0.626614	0.008499	0.379307
	C123	C	0.384766	0.991033	0.380854
	C124	C	0.627917	0.378094	0.009119
	C125	C	0.627474	0.621319	0.992882
	C126	C	0.384395	0.621078	0.009424
	C127	C	0.385692	0.378925	0.992358
	C128	C	0.014498	0.619488	0.380197
	C129	C	0.997117	0.619075	0.622167
	C130	C	0.014064	0.376932	0.623624
	C131	C	0.997372	0.377724	0.380366
	C132	C	0.885334	0.507641	0.122195
	C133	C	0.127220	0.489871	0.122281
	C134	C	0.127086	0.507259	0.879643
	C135	C	0.884736	0.490464	0.880031
	C136	C	0.127362	0.877372	0.510280
	C137	C	0.126090	0.119658	0.494367
	C138	C	0.883591	0.120837	0.509407
	C139	C	0.883653	0.877458	0.491803
	C140	C	0.514633	0.121416	0.879657
	C141	C	0.497287	0.121060	0.122570
	C142	C	0.513726	0.878822	0.123132
	C143	C	0.497080	0.879769	0.880958
	C144	C	0.379470	0.891884	0.685694
	C145	C	0.627439	0.110214	0.680550
	C146	C	0.627463	0.889455	0.321478
	C147	C	0.381352	0.109039	0.320411
	C148	C	0.688741	0.375879	0.892072
	C149	C	0.687533	0.623099	0.110336
	C150	C	0.323996	0.624268	0.892588
	C151	C	0.324197	0.374724	0.108581
	C152	C	0.897617	0.681395	0.376276
	C153	C	0.115680	0.677660	0.622882
	C154	C	0.895146	0.318800	0.623877
	C155	C	0.114839	0.317016	0.378472
	C156	C	0.895691	0.375438	0.682734
	C157	C	0.115646	0.619567	0.680689
	C158	C	0.897917	0.623931	0.318217
	C159	C	0.113926	0.372919	0.318544
	C160	C	0.382107	0.682003	0.892577
	C161	C	0.629139	0.680616	0.110543
	C162	C	0.631565	0.317206	0.892197
	C163	C	0.383796	0.318765	0.109672
	C164	C	0.684450	0.889138	0.379706
	C165	C	0.684816	0.110260	0.622329
	C166	C	0.322121	0.891723	0.627962
	C167	C	0.323798	0.108967	0.378449
	C168	C	0.881810	0.389830	0.183240
	C169	C	0.131956	0.606305	0.184766
	C170	C	0.129311	0.388804	0.820587
	C171	C	0.883354	0.609049	0.820472
	C172	C	0.188442	0.874814	0.393647
	C173	C	0.187737	0.123637	0.610705
	C174	C	0.826244	0.121686	0.390531
	C175	C	0.824051	0.875635	0.609475
	C176	C	0.396864	0.182137	0.878125
	C177	C	0.615886	0.179547	0.122966
	C178	C	0.396504	0.818060	0.125675
	C179	C	0.614526	0.818956	0.878591
	C180	C	0.396347	0.876036	0.183364
	C181	C	0.614846	0.123542	0.182692
	C182	C	0.397275	0.125593	0.819287
	C183	C	0.613939	0.876050	0.819742
	C184	C	0.883635	0.180078	0.391240
	C185	C	0.128744	0.180416	0.611116
	C186	C	0.130352	0.817240	0.393048
	C187	C	0.882375	0.818055	0.609833
	C188	C	0.187564	0.389214	0.877818
	C189	C	0.188542	0.607095	0.125948
	C190	C	0.824674	0.389831	0.125070
	C191	C	0.826026	0.609580	0.878630
	C192	C	0.411121	0.089824	0.596120
	C193	C	0.601030	0.909029	0.597614
	C194	C	0.602565	0.091505	0.403242
	C195	C	0.410666	0.909003	0.406324
	C196	C	0.602106	0.403497	0.090386
	C197	C	0.603089	0.596985	0.910819
	C198	C	0.409643	0.595138	0.090993
	C199	C	0.410897	0.404527	0.910687
	C200	C	0.095538	0.592777	0.406590
	C201	C	0.914452	0.595010	0.598331
	C202	C	0.096446	0.401468	0.599322
	C203	C	0.915724	0.404244	0.406042
	C204	C	0.911350	0.589492	0.096723
	C205	C	0.100632	0.408555	0.095781
	C206	C	0.102025	0.589626	0.904074
	C207	C	0.909480	0.407630	0.904810
	C208	C	0.101142	0.902665	0.591583
	C209	C	0.100620	0.094011	0.413202
	C210	C	0.907600	0.095667	0.591161
	C211	C	0.908203	0.902313	0.409921
	C212	C	0.596277	0.095071	0.904495
	C213	C	0.415032	0.096610	0.098303
	C214	C	0.595880	0.904088	0.098032
	C215	C	0.415378	0.905469	0.906509
	Zn216	Zn	0.505126	0.000226	0.751556
	Zn217	Zn	0.504982	0.000126	0.251517
	Zn218	Zn	0.756654	0.499533	0.001287
	Zn219	Zn	0.255486	0.499320	0.000697
	Zn220	Zn	0.005780	0.748583	0.501280
	Zn221	Zn	0.005265	0.249451	0.501640
	Zn222	Zn	0.005482	0.498237	0.751614
	Zn223	Zn	0.006012	0.498384	0.251052
	Zn224	Zn	0.505543	0.750166	0.001950
	Zn225	Zn	0.506654	0.249623	0.000526
	Zn226	Zn	0.754756	-0.000428	0.500611
	Zn227	Zn	0.256037	-0.000739	0.501973
	N228	N	0.417616	0.965606	0.682780
	N229	N	0.592058	0.035052	0.681046
	N230	N	0.592501	0.964938	0.320799
	N231	N	0.418440	0.034588	0.321691
	N232	N	0.686776	0.413029	0.965889
	N233	N	0.686783	0.587033	0.036126
	N234	N	0.325134	0.587311	0.966470
	N235	N	0.325190	0.411489	0.034535
	N236	N	0.971237	0.678999	0.413982
	N237	N	0.040856	0.677628	0.587460
	N238	N	0.969808	0.319480	0.588052
	N239	N	0.041178	0.319906	0.416119
	N240	N	0.970790	0.410593	0.683059
	N241	N	0.040760	0.584186	0.680730
	N242	N	0.971682	0.586215	0.320315
	N243	N	0.039699	0.409838	0.319678
	N244	N	0.418955	0.680199	0.966445
	N245	N	0.592592	0.679759	0.036565
	N246	N	0.594528	0.318346	0.965919
	N247	N	0.421343	0.321087	0.036238
	N248	N	0.684391	0.964398	0.414696
	N249	N	0.684233	0.035266	0.586756
	N250	N	0.325364	0.965115	0.589354
	N251	N	0.325574	0.034383	0.415149
	N252	N	0.918943	0.464074	0.181645
	N253	N	0.094543	0.532263	0.182674
	N254	N	0.092321	0.463261	0.821544
	N255	N	0.918856	0.533805	0.821255
	N256	N	0.186835	0.911509	0.467553
	N257	N	0.186195	0.086420	0.537059
	N258	N	0.825776	0.085667	0.465088
	N259	N	0.824500	0.911912	0.535080
	N260	N	0.470912	0.179731	0.914773
	N261	N	0.541785	0.178303	0.086355
	N262	N	0.470813	0.819522	0.089011
	N263	N	0.540672	0.821058	0.915989
	N264	N	0.470354	0.912859	0.181810
	N265	N	0.540038	0.087913	0.182631
	N266	N	0.471649	0.088725	0.819920
	N267	N	0.539881	0.913065	0.821254
	N268	N	0.918472	0.179752	0.466084
	N269	N	0.090959	0.177984	0.537743
	N270	N	0.093169	0.818581	0.466825
	N271	N	0.918681	0.818997	0.535668
	N272	N	0.186368	0.463957	0.913613
	N273	N	0.185829	0.533423	0.087922
	N274	N	0.826519	0.464190	0.087933
	N275	N	0.826634	0.534677	0.914902
	O276	O	0.188781	1.169850	-0.174370
	H277	H	0.186112	1.147521	-0.155395
	H278	H	0.170622	1.164679	-0.164869
	O279	O	0.284312	0.478322	0.482463
	H280	H	0.284505	0.473835	0.483856
	H281	H	0.289308	0.473124	0.483561
	O282	O	1.212887	0.210799	1.030950
	H283	H	1.222468	0.211769	1.020470
	H284	H	1.209397	0.210736	1.027719
	O285	O	0.668754	0.311002	0.674248
	H286	H	0.662067	0.330671	0.654545
	H287	H	0.643746	0.318144	0.662213
	O288	O	0.500585	0.665501	0.379404
	H289	H	0.488512	0.677782	0.373309
	H290	H	0.483420	0.679311	0.372596
	O291	O	0.448979	0.453195	0.545492
	H292	H	0.448123	0.445064	0.537054
	H293	H	0.441193	0.462396	0.535460
	O294	O	1.078678	-0.065495	0.940538
	H295	H	1.081466	-0.088045	0.928351
	H296	H	1.064921	-0.070805	0.946539
	O297	O	0.283851	0.744302	0.253205
	H298	H	0.253881	0.766848	0.235435
	H299	H	0.281974	0.734855	0.257811
	O300	O	-0.029485	0.217532	0.783873
	H301	H	-0.022111	0.235921	0.777142
	H302	H	-0.018237	0.222293	0.786202
	O303	O	0.346608	0.721833	0.505300
	H304	H	0.361416	0.721737	0.497225
	H305	H	0.330920	0.746025	0.500238
	O306	O	0.714674	0.713302	0.538862
	H307	H	0.725566	0.718928	0.534199
	H308	H	0.724276	0.719455	0.540149
	O309	O	0.515712	0.637425	0.721111
	H310	H	0.529721	0.643215	0.729780
	H311	H	0.522645	0.629169	0.716454
	O312	O	0.559520	0.644415	0.615030
	H313	H	0.563190	0.641706	0.617874
	H314	H	0.556822	0.650917	0.626728
	O315	O	0.999697	1.198588	0.994568
	H316	H	0.987343	1.203067	0.986242
	H317	H	1.003653	1.177651	1.006335
	O318	O	0.325887	0.317771	0.313339
	H319	H	0.302480	0.311187	0.302165
	H320	H	0.347165	0.334458	0.313812
	O321	O	0.214911	0.787207	0.787729
	H322	H	0.190847	0.787579	0.788874
	H323	H	0.237678	0.759978	0.758198
	O324	O	0.981439	0.780177	0.215527
	H325	H	0.961210	0.789630	0.225187
	H326	H	0.958610	0.763199	0.234653
	O327	O	0.036475	0.135240	1.164556
	H328	H	0.042188	0.156848	1.167031
	H329	H	0.036072	0.133336	1.161172
	O330	O	0.728168	0.430439	0.463076
	H331	H	0.717775	0.432684	0.463199
	H332	H	0.735477	0.409503	0.442189
	O333	O	0.442437	0.481976	0.717016
	H334	H	0.441989	0.472324	0.723393
	H335	H	0.426732	0.492121	0.716823
	O336	O	0.639087	0.361676	0.423833
	H337	H	0.632758	0.357216	0.416573
	H338	H	0.632598	0.351877	0.431980
	O339	O	0.791675	0.048160	1.060807
	H340	H	0.791139	0.042693	1.039142
	H341	H	0.799643	0.053645	1.047488
	O342	O	0.021687	0.008997	0.187105
	H343	H	0.019987	0.008228	0.185701
	H344	H	0.025995	0.006575	0.201924
	O345	O	0.045359	0.939928	1.225017
	H346	H	0.041562	0.951103	1.224327
	H347	H	0.037195	0.944146	1.234493
	O348	O	0.229213	-0.050816	0.054954
	H349	H	0.222813	-0.062461	0.055139
	H350	H	0.230864	-0.060105	0.033648
	O351	O	0.694105	0.587607	0.462341
	H352	H	0.693041	0.574141	0.469857
	H353	H	0.694651	0.581230	0.460689
	O354	O	-0.017970	0.214304	1.130205
	H355	H	-0.024691	0.214690	1.119366
	H356	H	-0.015766	0.218955	1.147511
	O357	O	0.540289	0.413121	0.433512
	H358	H	0.550817	0.405652	0.429314
	H359	H	0.539348	0.424911	0.435947
	O360	O	0.301832	0.297424	0.704916
	H361	H	0.276527	0.273474	0.709104
	H362	H	0.325335	0.300225	0.693162
	O363	O	-0.219955	-0.092287	-0.034153
	H364	H	-0.232549	-0.113796	-0.039289
	H365	H	-0.211627	-0.087618	-0.031489
	O366	O	0.508208	0.459387	0.596974
	H367	H	0.506985	0.483428	0.599121
	H368	H	0.514449	0.470721	0.585791
	O369	O	0.827816	0.182649	0.183601
	H370	H	0.835097	0.168160	0.162778
	H371	H	0.834657	0.171014	0.177348
	O372	O	0.815947	0.811268	-0.188522
	H373	H	0.831563	0.833672	-0.181747
	H374	H	0.828244	0.820741	-0.179499
	O375	O	0.796913	0.202828	-0.028089
	H376	H	0.815329	0.200318	-0.051281
	H377	H	0.773428	0.219923	-0.036398
	O378	O	0.565320	0.532257	0.344828
	H379	H	0.556052	0.532808	0.349932
	H380	H	0.551110	0.554251	0.344067
	O381	O	-0.054219	0.784725	0.927031
	H382	H	-0.082311	0.786758	0.935347
	H383	H	-0.047603	0.778090	0.939017
	O384	O	0.801686	0.200047	0.795693
	H385	H	0.844627	0.199144	0.792384
	H386	H	0.774844	0.230317	0.776065
	O387	O	1.061742	0.777629	0.061420
	H388	H	1.054034	0.776538	0.071323
	H389	H	1.062896	0.775970	0.073872
	O390	O	0.587612	0.339898	0.294862
	H391	H	0.561438	0.333204	0.298511
	H392	H	0.591845	0.335180	0.285053
	O393	O	0.684664	0.686168	0.322828
	H394	H	0.660119	0.668780	0.336148
	H395	H	0.676052	0.664805	0.339270
	O396	O	-0.059227	0.944167	0.776619
	H397	H	-0.050858	0.971931	0.775130
	H398	H	-0.059424	0.934029	0.766320
	O399	O	0.054859	0.061031	0.770966
	H400	H	0.075919	0.056978	0.775017
	H401	H	0.058112	0.072879	0.762344
	O402	O	0.287139	0.342385	0.508971
	H403	H	0.292040	0.339345	0.505365
	H404	H	0.276154	0.341712	0.502342
	O405	O	0.782862	-0.030613	1.204806
	H406	H	0.767926	-0.022357	1.216033
	H407	H	0.771001	-0.007115	1.185020
	O408	O	-0.045584	0.023162	-0.046475
	H409	H	-0.047775	0.010809	-0.050405
	H410	H	-0.042649	0.020213	-0.055603
	O411	O	0.713395	0.707426	0.708491
	H412	H	0.738959	0.732078	0.724974
	H413	H	0.709798	0.686093	0.693303
	O414	O	0.722119	0.361637	0.528409
	H415	H	0.732756	0.353967	0.506098
	H416	H	0.709398	0.352564	0.517321
	O417	O	0.303858	0.505411	0.631643
	H418	H	0.301566	0.492515	0.645150
	H419	H	0.298159	0.516973	0.624968
	O420	O	0.318782	0.685216	0.686182
	H421	H	0.332327	0.660783	0.673046
	H422	H	0.338484	0.674788	0.667681
	O423	O	-0.215476	0.031881	0.782614
	H424	H	-0.213798	0.055338	0.782182
	H425	H	-0.234475	0.050925	0.761564
	O426	O	0.380049	0.479298	0.463332
	H427	H	0.385528	0.482498	0.466492
	H428	H	0.376451	0.458800	0.467391
	O429	O	1.139175	1.019802	1.009138
	H430	H	1.126482	0.999959	1.006061
	H431	H	1.143152	1.017690	1.027035
	O432	O	0.445349	0.688240	0.513548
	H433	H	0.441240	0.695634	0.505771
	H434	H	0.454208	0.685703	0.510711
	O435	O	0.227944	0.781185	-0.023111
	H436	H	0.243662	0.760480	-0.040881
	H437	H	0.227719	0.779230	-0.038567
	O438	O	0.142707	0.142954	-0.053010
	H439	H	0.136515	0.134124	-0.054600
	H440	H	0.143232	0.131818	-0.050238
	O441	O	0.180537	0.043336	0.190505
	H442	H	0.191610	0.046809	0.194565
	H443	H	0.195296	0.031682	0.176960
	O444	O	0.215318	0.208058	0.205400
	H445	H	0.205660	0.201600	0.216012
	H446	H	0.211046	0.200044	0.171374
	O447	O	0.043318	0.782737	0.787124
	H448	H	0.028780	0.772677	0.785744
	H449	H	0.051264	0.775000	0.788566
	O450	O	0.052431	0.892577	1.097310
	H451	H	0.040547	0.899705	1.089321
	H452	H	0.041386	0.902722	1.087513
	O453	O	0.527846	0.292430	0.600805
	H454	H	0.528367	0.294515	0.612935
	H455	H	0.530739	0.299800	0.607143
	O456	O	0.213989	-0.013882	0.791458
	H457	H	0.223336	-0.028948	0.778307
	H458	H	0.214628	-0.035279	0.802434
	O459	O	0.796708	0.789629	0.206822
	H460	H	0.777329	0.782824	0.233549
	H461	H	0.784548	0.820677	0.221719
	O462	O	0.719639	0.475568	0.288275
	H463	H	0.733594	0.466144	0.267584
	H464	H	0.708437	0.460261	0.286014
	O465	O	0.981419	-0.065003	0.032728
	H466	H	0.977290	-0.059527	0.018217
	H467	H	0.972536	-0.076277	0.040457
	O468	O	0.470346	0.553750	0.294538
	H469	H	0.470570	0.548147	0.296608
	H470	H	0.471053	0.566603	0.302881
	O471	O	0.417901	0.404598	0.717143
	H472	H	0.414084	0.382210	0.723832
	H473	H	0.402249	0.391053	0.719763
	O474	O	0.289209	0.520753	0.280674
	H475	H	0.288707	0.522656	0.262684
	H476	H	0.283342	0.529114	0.278429
	O477	O	0.508169	0.373287	1.298781
	H478	H	0.506588	0.356856	1.307100
	H479	H	0.510187	0.383572	1.297804
	O480	O	0.497366	0.285892	0.486119
	H481	H	0.492286	0.289954	0.488470
	H482	H	0.476747	0.295073	0.486554
	O483	O	0.715577	0.541964	0.716034
	H484	H	0.721281	0.548051	0.719407
	H485	H	0.730045	0.539184	0.722292
	O486	O	0.430592	0.642794	0.423604
	H487	H	0.424543	0.649237	0.408808
	H488	H	0.424387	0.627864	0.438219
	O489	O	0.829789	0.844692	0.080820
	H490	H	0.828966	0.852972	0.114231
	H491	H	0.810230	0.827878	0.080311
