data_Molecule from HDF5

_cell_length_a		16.266915
_cell_length_b		15.970626
_cell_length_c		16.659886
_cell_angle_alpha	90.155896
_cell_angle_beta	90.202076
_cell_angle_gamma	90.426550
_symmetry_space_group_name_H-M	'P 1'
_symmetry_Int_Tables_number		1

loop_
	_symmetry_equiv_pos_as_xyz
	x,y,z

loop_
	_atom_site_label
	_atom_site_type_symbol
	_atom_site_fract_x
	_atom_site_fract_y
	_atom_site_fract_z
	H0	H	0.399101	0.825082	0.714343
	H1	H	0.612763	0.152304	0.713719
	H2	H	0.609755	0.825061	0.273914
	H3	H	0.399440	0.149945	0.275144
	H4	H	0.720830	0.383355	0.835977
	H5	H	0.727525	0.594177	0.151818
	H6	H	0.281672	0.590760	0.836597
	H7	H	0.281421	0.383267	0.153445
	H8	H	0.840283	0.697526	0.396449
	H9	H	0.168585	0.698924	0.590300
	H10	H	0.840308	0.270788	0.586119
	H11	H	0.169947	0.276362	0.397737
	H12	H	0.843050	0.374565	0.713147
	H13	H	0.163258	0.594093	0.716658
	H14	H	0.845442	0.595012	0.269202
	H15	H	0.163240	0.377206	0.270208
	H16	H	0.402973	0.704090	0.834875
	H17	H	0.602909	0.704817	0.154977
	H18	H	0.599255	0.270755	0.834977
	H19	H	0.401176	0.269323	0.155163
	H20	H	0.715182	0.820712	0.396497
	H21	H	0.722504	0.153981	0.592525
	H22	H	0.290931	0.821664	0.593236
	H23	H	0.291610	0.152351	0.394881
	H24	H	0.895469	0.322565	0.211949
	H25	H	0.111315	0.648367	0.214656
	H26	H	0.107031	0.322585	0.775838
	H27	H	0.899077	0.648028	0.774434
	H28	H	0.225573	0.881588	0.335843
	H29	H	0.228613	0.093431	0.651322
	H30	H	0.782937	0.091566	0.335764
	H31	H	0.784818	0.882335	0.651842
	H32	H	0.338420	0.196365	0.900324
	H33	H	0.666890	0.202786	0.090806
	H34	H	0.339954	0.774383	0.090074
	H35	H	0.668131	0.777467	0.899629
	H36	H	0.344988	0.877932	0.216507
	H37	H	0.664148	0.097931	0.215790
	H38	H	0.345277	0.096515	0.770638
	H39	H	0.664003	0.883187	0.774492
	H40	H	0.905139	0.203394	0.332899
	H41	H	0.107235	0.206273	0.652589
	H42	H	0.103661	0.767183	0.333957
	H43	H	0.907035	0.769893	0.653727
	H44	H	0.216230	0.321378	0.895683
	H45	H	0.216433	0.652957	0.092743
	H46	H	0.784572	0.322199	0.093463
	H47	H	0.792523	0.653044	0.896900
	H48	H	0.420737	0.104255	0.584419
	H49	H	0.592894	0.869337	0.592715
	H50	H	0.596541	0.107059	0.400856
	H51	H	0.416488	0.869679	0.403173
	H52	H	0.592077	0.404222	0.104247
	H53	H	0.596803	0.579738	0.881536
	H54	H	0.411723	0.579347	0.106472
	H55	H	0.416125	0.380598	0.880553
	H56	H	0.117790	0.573443	0.406622
	H57	H	0.885646	0.579271	0.590684
	H58	H	0.117254	0.404774	0.587176
	H59	H	0.888185	0.392789	0.402050
	H60	H	0.122570	0.398416	0.594785
	H61	H	0.888944	0.575454	0.581282
	H62	H	0.118688	0.567677	0.399772
	H63	H	0.891565	0.400669	0.402670
	H64	H	0.409143	0.581601	0.108169
	H65	H	0.596267	0.582904	0.881108
	H66	H	0.592137	0.392569	0.107808
	H67	H	0.393190	0.397207	0.878229
	H68	H	0.589799	0.104085	0.402646
	H69	H	0.588033	0.873644	0.584308
	H70	H	0.417475	0.104601	0.583303
	H71	H	0.416250	0.869407	0.402485
	H72	H	0.907899	0.604969	0.081270
	H73	H	0.087052	0.369095	0.086402
	H74	H	0.096057	0.607218	0.899429
	H75	H	0.911845	0.366848	0.899845
	H76	H	0.096476	0.888930	0.606498
	H77	H	0.093707	0.076112	0.383660
	H78	H	0.916424	0.075285	0.604636
	H79	H	0.908652	0.899816	0.382473
	H80	H	0.623760	0.081824	0.893273
	H81	H	0.387285	0.080543	0.081807
	H82	H	0.620642	0.903986	0.092343
	H83	H	0.386303	0.895545	0.899301
	H84	H	0.620977	0.896202	0.086694
	H85	H	0.390965	0.066553	0.087864
	H86	H	0.619199	0.085048	0.910774
	H87	H	0.389309	0.899824	0.903753
	H88	H	0.914863	0.077894	0.604977
	H89	H	0.100698	0.084918	0.378888
	H90	H	0.104494	0.896560	0.607461
	H91	H	0.915784	0.890337	0.381223
	H92	H	0.084606	0.602328	0.900652
	H93	H	0.089962	0.370589	0.079204
	H94	H	0.921242	0.605285	0.094057
	H95	H	0.914540	0.367972	0.902470
	H96	H	0.418212	0.105191	0.587304
	H97	H	0.598173	0.870243	0.583824
	H98	H	0.595455	0.104268	0.407739
	H99	H	0.417247	0.868865	0.402676
	H100	H	0.602049	0.398963	0.108751
	H101	H	0.599481	0.581085	0.880578
	H102	H	0.408325	0.577629	0.108087
	H103	H	0.417096	0.407767	0.889579
	H104	H	0.121105	0.576491	0.398862
	H105	H	0.888352	0.568467	0.589942
	H106	H	0.119776	0.393998	0.584157
	H107	H	0.887790	0.397835	0.395619
	H108	H	0.925492	0.598366	0.077531
	H109	H	0.094588	0.366906	0.085710
	H110	H	0.092097	0.601910	0.909729
	H111	H	0.911064	0.367502	0.903513
	H112	H	0.094218	0.899340	0.604148
	H113	H	0.105557	0.073780	0.380040
	H114	H	0.912328	0.075401	0.605708
	H115	H	0.905215	0.890105	0.377358
	H116	H	0.616668	0.067449	0.903164
	H117	H	0.383939	0.077117	0.096255
	H118	H	0.617379	0.903904	0.084118
	H119	H	0.387971	0.902244	0.898046
	C120	C	0.386120	-0.003727	0.615121
	C121	C	0.626111	0.979742	0.616088
	C122	C	0.624392	-0.003395	0.373482
	C123	C	0.385349	0.978071	0.373209
	C124	C	0.624553	0.366674	0.002373
	C125	C	0.627458	0.611531	0.986256
	C126	C	0.380044	0.609956	0.002379
	C127	C	0.378658	0.364216	0.987402
	C128	C	0.012864	0.605224	0.371587
	C129	C	0.995034	0.606128	0.616228
	C130	C	0.012342	0.365320	0.616077
	C131	C	0.996109	0.365400	0.371324
	C132	C	0.883952	0.494760	0.114609
	C133	C	0.122793	0.477408	0.114433
	C134	C	0.122808	0.495562	0.872947
	C135	C	0.882567	0.476610	0.872832
	C136	C	0.127847	0.863743	0.501304
	C137	C	0.130180	0.110024	0.485325
	C138	C	0.884007	0.107543	0.500567
	C139	C	0.880557	0.862495	0.485055
	C140	C	0.512755	0.108954	0.872724
	C141	C	0.494541	0.108269	0.117554
	C142	C	0.513052	0.867848	0.116837
	C143	C	0.495393	0.868289	0.872570
	C144	C	0.382601	0.873567	0.673854
	C145	C	0.629901	0.103263	0.673915
	C146	C	0.626560	0.873529	0.314483
	C147	C	0.382743	0.101326	0.315171
	C148	C	0.681497	0.364857	0.883144
	C149	C	0.686680	0.612476	0.105073
	C150	C	0.321647	0.609817	0.883712
	C151	C	0.320926	0.364398	0.106252
	C152	C	0.890039	0.661516	0.374430
	C153	C	0.118615	0.662604	0.612984
	C154	C	0.889747	0.307475	0.609893
	C155	C	0.119693	0.311177	0.375307
	C156	C	0.890932	0.359567	0.672794
	C157	C	0.116130	0.609946	0.675252
	C158	C	0.892661	0.609831	0.311368
	C159	C	0.116505	0.361898	0.312099
	C160	C	0.382019	0.666455	0.882803
	C161	C	0.625088	0.667890	0.106607
	C162	C	0.620954	0.308898	0.882758
	C163	C	0.380765	0.307546	0.107157
	C164	C	0.678806	0.871174	0.375529
	C165	C	0.684457	0.104088	0.613549
	C166	C	0.328409	0.871813	0.613992
	C167	C	0.328996	0.102393	0.374774
	C168	C	0.879091	0.371594	0.172527
	C169	C	0.127144	0.600242	0.173934
	C170	C	0.124919	0.371801	0.815066
	C171	C	0.881196	0.599802	0.814604
	C172	C	0.185628	0.863033	0.382765
	C173	C	0.188200	0.111381	0.604352
	C174	C	0.824119	0.109227	0.382079
	C175	C	0.824067	0.863272	0.604376
	C176	C	0.388797	0.162461	0.876696
	C177	C	0.617249	0.166019	0.113501
	C178	C	0.389842	0.810396	0.112895
	C179	C	0.618519	0.813431	0.877289
	C180	C	0.392280	0.862454	0.175408
	C181	C	0.615987	0.113584	0.175445
	C182	C	0.392224	0.112459	0.812514
	C183	C	0.616784	0.866464	0.815301
	C184	C	0.885172	0.164694	0.380803
	C185	C	0.127992	0.167800	0.604847
	C186	C	0.125077	0.806056	0.381664
	C187	C	0.884665	0.807079	0.605407
	C188	C	0.179092	0.371016	0.874865
	C189	C	0.179602	0.602642	0.113365
	C190	C	0.823724	0.371303	0.113710
	C191	C	0.828135	0.602197	0.875255
	C192	C	0.411598	0.082478	0.591599
	C193	C	0.600492	0.893467	0.593474
	C194	C	0.600736	0.082835	0.396937
	C195	C	0.409573	0.891759	0.396067
	C196	C	0.602063	0.391472	0.085255
	C197	C	0.604422	0.587967	0.902966
	C198	C	0.403147	0.586252	0.085939
	C199	C	0.402140	0.388212	0.904301
	C200	C	0.097255	0.579973	0.394997
	C201	C	0.909901	0.581602	0.593883
	C202	C	0.097727	0.391575	0.595008
	C203	C	0.911256	0.389822	0.393757
	C204	C	0.910463	0.580545	0.091134
	C205	C	0.097772	0.391340	0.090659
	C206	C	0.098140	0.581436	0.896182
	C207	C	0.905564	0.390140	0.895433
	C208	C	0.105024	0.887909	0.584490
	C209	C	0.106807	0.085449	0.402429
	C210	C	0.907685	0.083182	0.583455
	C211	C	0.903263	0.886290	0.401934
	C212	C	0.597776	0.084944	0.895756
	C213	C	0.409530	0.082368	0.095165
	C214	C	0.597756	0.893692	0.094249
	C215	C	0.410217	0.892242	0.894039
	Zn216	Zn	0.504965	-0.010496	0.743727
	Zn217	Zn	0.504728	-0.012408	0.245704
	Zn218	Zn	0.756480	0.487010	-0.006049
	Zn219	Zn	0.248937	0.487090	-0.005408
	Zn220	Zn	0.004439	0.733008	0.493350
	Zn221	Zn	0.005892	0.238425	0.492623
	Zn222	Zn	0.002414	0.485230	0.745217
	Zn223	Zn	0.004267	0.484959	0.242253
	Zn224	Zn	0.503422	0.740417	-0.005300
	Zn225	Zn	0.502015	0.235236	-0.004426
	Zn226	Zn	0.752064	-0.013193	0.492790
	Zn227	Zn	0.259270	-0.013191	0.493918
	N228	N	0.417481	0.952303	0.674668
	N229	N	0.594178	0.025005	0.675417
	N230	N	0.593427	0.952500	0.312962
	N231	N	0.417012	0.022970	0.314113
	N232	N	0.683854	0.400098	0.958485
	N233	N	0.688510	0.578392	0.029276
	N234	N	0.320375	0.575577	0.959284
	N235	N	0.319405	0.398859	0.030753
	N236	N	0.965755	0.658770	0.411348
	N237	N	0.042459	0.660487	0.576976
	N238	N	0.966359	0.310888	0.575448
	N239	N	0.043609	0.313066	0.411421
	N240	N	0.968516	0.394609	0.676890
	N241	N	0.038209	0.575717	0.677595
	N242	N	0.969824	0.575535	0.309674
	N243	N	0.038645	0.394655	0.309359
	N244	N	0.417558	0.666661	0.957683
	N245	N	0.589017	0.667369	0.031848
	N246	N	0.586093	0.309884	0.957767
	N247	N	0.415832	0.307278	0.032095
	N248	N	0.677624	0.948656	0.411701
	N249	N	0.682378	0.026083	0.578324
	N250	N	0.330330	0.949253	0.578070
	N251	N	0.330390	0.024741	0.410241
	N252	N	0.915551	0.449599	0.173395
	N253	N	0.092699	0.521254	0.174893
	N254	N	0.090603	0.450276	0.813711
	N255	N	0.914234	0.520863	0.812933
	N256	N	0.187487	0.898166	0.458188
	N257	N	0.189513	0.076020	0.529111
	N258	N	0.823394	0.074221	0.457418
	N259	N	0.821189	0.896769	0.528412
	N260	N	0.464696	0.160635	0.913247
	N261	N	0.540856	0.162739	0.078038
	N262	N	0.465965	0.813455	0.077154
	N263	N	0.541907	0.814183	0.911907
	N264	N	0.469687	0.897350	0.177893
	N265	N	0.538594	0.078471	0.178079
	N266	N	0.470598	0.080301	0.809694
	N267	N	0.539115	0.899536	0.812110
	N268	N	0.921784	0.163699	0.455282
	N269	N	0.092461	0.166958	0.529943
	N270	N	0.089726	0.806497	0.456395
	N271	N	0.919038	0.806411	0.530188
	N272	N	0.178112	0.448929	0.910043
	N273	N	0.176990	0.525259	0.076892
	N274	N	0.826563	0.449068	0.078536
	N275	N	0.828757	0.524482	0.910661
	O276	O	0.621735	0.377850	0.296249
	H277	H	0.631670	0.360559	0.284458
	H278	H	0.638582	0.368628	0.290954
	O279	O	0.664643	0.719072	0.723941
	H280	H	0.675738	0.700674	0.726517
	H281	H	0.687946	0.729678	0.740334
	O282	O	0.833033	-0.092599	1.060436
	H283	H	0.831257	-0.095476	1.051890
	H284	H	0.831936	-0.091097	1.057641
	O285	O	0.564647	0.547986	0.403409
	H286	H	0.558039	0.549233	0.412203
	H287	H	0.575716	0.553141	0.400637
	O288	O	1.131815	1.046142	1.082205
	H289	H	1.126002	1.035454	1.087147
	H290	H	1.118858	1.042304	1.089134
	O291	O	-0.025579	1.077487	0.038070
	H292	H	-0.035037	1.077215	0.026959
	H293	H	-0.022550	1.063673	0.035272
	O294	O	0.451849	0.341808	0.616684
	H295	H	0.433217	0.347612	0.607528
	H296	H	0.454679	0.340049	0.600227
	O297	O	0.978465	0.855437	0.915643
	H298	H	0.976233	0.839886	0.904184
	H299	H	0.989125	0.868399	0.931153
	O300	O	0.401166	0.391426	0.690644
	H301	H	0.398208	0.399208	0.685792
	H302	H	0.401379	0.382882	0.692797
	O303	O	0.431680	0.479992	0.557898
	H304	H	0.429191	0.483298	0.551581
	H305	H	0.432415	0.490235	0.572011
	O306	O	0.432337	0.467737	0.329279
	H307	H	0.439062	0.474535	0.327075
	H308	H	0.430552	0.473579	0.323624
	O309	O	0.667155	0.565419	0.487120
	H310	H	0.672356	0.551189	0.466871
	H311	H	0.675384	0.575432	0.476740
	O312	O	0.064376	-0.082993	-0.017887
	H313	H	0.064087	-0.087524	-0.010350
	H314	H	0.069655	-0.073518	-0.032442
	O315	O	0.506528	0.492640	0.591702
	H316	H	0.510313	0.474315	0.593754
	H317	H	0.504998	0.487884	0.600046
	O318	O	-0.154553	1.030387	1.111425
	H319	H	-0.161336	1.044941	1.103884
	H320	H	-0.148455	1.037153	1.097992
	O321	O	0.374502	0.469634	0.452485
	H322	H	0.364080	0.484616	0.459273
	H323	H	0.366722	0.476278	0.446282
	O324	O	-0.511267	1.522207	-0.522678
	H325	H	-0.511060	1.537729	-0.523916
	H326	H	-0.510353	1.517773	-0.517376
	O327	O	0.563598	0.423779	0.557990
	H328	H	0.555387	0.412296	0.554137
	H329	H	0.556180	0.425301	0.563523
	O330	O	0.141016	-0.070637	0.909653
	H331	H	0.146569	-0.069463	0.916463
	H332	H	0.140885	-0.060114	0.906706
	O333	O	-0.435375	0.561828	1.586180
	H334	H	-0.428650	0.577629	1.586520
	H335	H	-0.433063	0.542309	1.589333
	O336	O	0.659204	0.652277	0.617203
	H337	H	0.676235	0.657198	0.617208
	H338	H	0.657411	0.624468	0.622283
	O339	O	1.085255	-0.018121	-0.151532
	H340	H	1.095695	-0.011641	-0.153888
	H341	H	1.071714	-0.012106	-0.153036
	O342	O	0.202630	0.076983	0.135078
	H343	H	0.212831	0.073817	0.147510
	H344	H	0.190915	0.088844	0.144394
	O345	O	0.996253	-0.023471	1.088215
	H346	H	0.983978	-0.033695	1.083852
	H347	H	1.000449	-0.027429	1.086640
	O348	O	0.928413	0.900543	0.159092
	H349	H	0.912891	0.889986	0.165806
	H350	H	0.933379	0.908985	0.145202
	O351	O	0.438561	0.573060	0.545589
	H352	H	0.443121	0.588133	0.557711
	H353	H	0.439312	0.572605	0.553410
	O354	O	1.037318	-0.141098	0.944496
	H355	H	1.047656	-0.137369	0.939260
	H356	H	1.022404	-0.157451	0.951757
	O357	O	0.043282	-0.115954	0.916598
	H358	H	0.061202	-0.123787	0.899043
	H359	H	0.043104	-0.118706	0.921750
	O360	O	0.343748	0.438630	0.572265
	H361	H	0.338118	0.434446	0.566096
	H362	H	0.353354	0.440988	0.568965
	O363	O	0.128346	1.132743	0.979237
	H364	H	0.126493	1.137140	0.987192
	H365	H	0.122859	1.139726	0.979102
	O366	O	0.453352	0.446625	0.471347
	H367	H	0.455820	0.462990	0.486572
	H368	H	0.442675	0.443252	0.482715
	O369	O	-0.476347	0.447170	0.404997
	H370	H	-0.494125	0.445182	0.401716
	H371	H	-0.477394	0.448947	0.427084
	O372	O	0.525959	0.525775	0.432422
	H373	H	0.511792	0.520831	0.439030
	H374	H	0.537361	0.535376	0.431648
	O375	O	0.441680	0.555348	0.366754
	H376	H	0.433597	0.566428	0.356373
	H377	H	0.445355	0.570785	0.375595
	O378	O	1.052482	0.866191	0.145377
	H379	H	1.041371	0.861951	0.146731
	H380	H	1.048904	0.868613	0.144238
	O381	O	0.993144	0.137483	-0.100204
	H382	H	0.996369	0.117560	-0.104927
	H383	H	0.994448	0.131952	-0.090380
	O384	O	0.971189	0.955131	0.072261
	H385	H	0.955758	0.967068	0.070392
	H386	H	0.954354	0.944385	0.087920
	O387	O	-0.105100	-0.117689	0.006868
	H388	H	-0.106102	-0.112601	0.008553
	H389	H	-0.103383	-0.126248	0.005694
	O390	O	0.060132	1.131328	-0.076004
	H391	H	0.062525	1.134465	-0.086901
	H392	H	0.063759	1.128993	-0.074882
	O393	O	0.886499	1.157798	0.910329
	H394	H	0.889012	1.160738	0.900061
	H395	H	0.900562	1.164250	0.908024
	O396	O	0.601343	0.416427	0.443708
	H397	H	0.582347	0.421642	0.441801
	H398	H	0.601752	0.406385	0.446058
	O399	O	-0.120829	0.923462	0.840846
	H400	H	-0.127327	0.920574	0.839301
	H401	H	-0.108022	0.929704	0.854491
	O402	O	0.609032	0.518022	0.554572
	H403	H	0.601760	0.516212	0.553882
	H404	H	0.607519	0.528761	0.555920
	O405	O	1.019796	1.048935	0.070799
	H406	H	1.015140	1.044996	0.073275
	H407	H	1.029326	1.049940	0.069471
	O408	O	1.108294	0.863854	-0.126160
	H409	H	1.102974	0.858534	-0.115902
	H410	H	1.120747	0.868352	-0.124324
	O411	O	0.894241	0.093863	0.968665
	H412	H	0.907192	0.096777	0.968660
	H413	H	0.889198	0.093683	0.965371
	O414	O	0.511866	0.618537	0.534798
	H415	H	0.522960	0.621548	0.538268
	H416	H	0.518613	0.611602	0.545938
	O417	O	0.549105	0.338042	0.428709
	H418	H	0.555081	0.348918	0.427823
	H419	H	0.550725	0.341058	0.419016
