data_Molecule from HDF5

_cell_length_a		16.303292
_cell_length_b		16.209309
_cell_length_c		16.208524
_cell_angle_alpha	90.255335
_cell_angle_beta	89.982319
_cell_angle_gamma	89.782073
_symmetry_space_group_name_H-M	'P 1'
_symmetry_Int_Tables_number		1

loop_
	_symmetry_equiv_pos_as_xyz
	x,y,z

loop_
	_atom_site_label
	_atom_site_type_symbol
	_atom_site_fract_x
	_atom_site_fract_y
	_atom_site_fract_z
	H0	H	0.398544	0.829476	0.713099
	H1	H	0.592099	0.158921	0.714884
	H2	H	0.594237	0.829640	0.286436
	H3	H	0.398545	0.159245	0.288513
	H4	H	0.711029	0.393209	0.836565
	H5	H	0.710536	0.594140	0.164371
	H6	H	0.280593	0.592649	0.835687
	H7	H	0.281127	0.395018	0.163716
	H8	H	0.832077	0.708791	0.401778
	H9	H	0.159331	0.709074	0.599335
	H10	H	0.832188	0.280336	0.597778
	H11	H	0.158693	0.277794	0.400161
	H12	H	0.832257	0.395710	0.714162
	H13	H	0.158732	0.593334	0.716293
	H14	H	0.831945	0.591507	0.286118
	H15	H	0.158745	0.393925	0.284846
	H16	H	0.398420	0.706332	0.834751
	H17	H	0.592784	0.707937	0.164486
	H18	H	0.594321	0.279167	0.836008
	H19	H	0.399129	0.282977	0.165528
	H20	H	0.711511	0.830910	0.400626
	H21	H	0.709009	0.158984	0.599951
	H22	H	0.281548	0.830159	0.599533
	H23	H	0.281526	0.158353	0.402164
	H24	H	0.898819	0.328676	0.212560
	H25	H	0.094654	0.657383	0.215035
	H26	H	0.094618	0.329242	0.785417
	H27	H	0.896651	0.658065	0.787916
	H28	H	0.210440	0.894724	0.335718
	H29	H	0.209830	0.094679	0.664785
	H30	H	0.779997	0.094245	0.337083
	H31	H	0.780712	0.895938	0.663992
	H32	H	0.332127	0.208365	0.903683
	H33	H	0.660057	0.207462	0.099096
	H34	H	0.331923	0.780330	0.098136
	H35	H	0.658814	0.778238	0.900303
	H36	H	0.330888	0.898542	0.213087
	H37	H	0.659045	0.092104	0.215519
	H38	H	0.332810	0.094901	0.785472
	H39	H	0.659663	0.895435	0.786373
	H40	H	0.897780	0.206802	0.335405
	H41	H	0.093515	0.208792	0.664467
	H42	H	0.095408	0.779132	0.335738
	H43	H	0.897608	0.782033	0.665147
	H44	H	0.212227	0.329426	0.898842
	H45	H	0.210477	0.657251	0.099821
	H46	H	0.781894	0.329241	0.099335
	H47	H	0.779144	0.656567	0.900813
	H48	H	0.403248	0.110025	0.592027
	H49	H	0.583727	0.878392	0.594148
	H50	H	0.607699	0.118657	0.406633
	H51	H	0.404360	0.877901	0.408837
	H52	H	0.585877	0.401459	0.116218
	H53	H	0.587051	0.577839	0.886140
	H54	H	0.402677	0.591033	0.117568
	H55	H	0.405462	0.402180	0.883655
	H56	H	0.113228	0.596617	0.413089
	H57	H	0.880085	0.585016	0.593146
	H58	H	0.109596	0.400372	0.582835
	H59	H	0.880999	0.407812	0.406558
	H60	H	0.110665	0.410310	0.597408
	H61	H	0.878770	0.588770	0.596311
	H62	H	0.106608	0.576154	0.413976
	H63	H	0.875625	0.397486	0.399817
	H64	H	0.398958	0.586166	0.118017
	H65	H	0.583732	0.590729	0.882413
	H66	H	0.591546	0.397932	0.119959
	H67	H	0.403736	0.398515	0.882145
	H68	H	0.577004	0.112885	0.392818
	H69	H	0.588912	0.878640	0.586138
	H70	H	0.400326	0.111183	0.592733
	H71	H	0.399940	0.876058	0.406445
	H72	H	0.903677	0.608487	0.086964
	H73	H	0.091254	0.373709	0.096818
	H74	H	0.080602	0.606645	0.910452
	H75	H	0.901722	0.373189	0.898348
	H76	H	0.092474	0.900622	0.618411
	H77	H	0.079520	0.077019	0.388749
	H78	H	0.896730	0.099082	0.622476
	H79	H	0.903188	0.900773	0.382633
	H80	H	0.610684	0.085651	0.912936
	H81	H	0.377446	0.093602	0.095117
	H82	H	0.613789	0.899088	0.097154
	H83	H	0.380217	0.904652	0.906691
	H84	H	0.611988	0.898335	0.091007
	H85	H	0.379911	0.088579	0.091630
	H86	H	0.612038	0.082173	0.904413
	H87	H	0.377891	0.899747	0.904390
	H88	H	0.894757	0.077920	0.617438
	H89	H	0.085458	0.098883	0.379852
	H90	H	0.088463	0.906366	0.614966
	H91	H	0.901884	0.902211	0.383140
	H92	H	0.093564	0.610757	0.914948
	H93	H	0.086297	0.377851	0.091001
	H94	H	0.896095	0.612621	0.094705
	H95	H	0.911774	0.378883	0.909550
	H96	H	0.402329	0.112220	0.595382
	H97	H	0.593250	0.875689	0.595532
	H98	H	0.581956	0.105054	0.425420
	H99	H	0.404427	0.876035	0.403798
	H100	H	0.592072	0.405042	0.117998
	H101	H	0.597006	0.586217	0.880093
	H102	H	0.404611	0.585700	0.115677
	H103	H	0.402233	0.402392	0.882516
	H104	H	0.115499	0.584348	0.396135
	H105	H	0.879415	0.589720	0.591141
	H106	H	0.116542	0.392929	0.598293
	H107	H	0.879455	0.396224	0.412736
	H108	H	0.907215	0.610946	0.098687
	H109	H	0.094434	0.375566	0.088986
	H110	H	0.089773	0.612605	0.901874
	H111	H	0.897078	0.376357	0.914056
	H112	H	0.085282	0.899248	0.617497
	H113	H	0.102026	0.081169	0.380662
	H114	H	0.913461	0.088039	0.614902
	H115	H	0.903715	0.902253	0.383502
	H116	H	0.614237	0.090674	0.906200
	H117	H	0.378822	0.087657	0.097917
	H118	H	0.610485	0.903696	0.094139
	H119	H	0.379399	0.899919	0.910165
	C120	C	0.374056	0.002655	0.622082
	C121	C	0.616868	0.986066	0.621693
	C122	C	0.617319	0.003183	0.379042
	C123	C	0.374603	0.985610	0.378821
	C124	C	0.618056	0.372033	0.009220
	C125	C	0.617285	0.614525	0.991625
	C126	C	0.373506	0.615840	0.008189
	C127	C	0.375549	0.373092	0.991741
	C128	C	0.004044	0.615176	0.378408
	C129	C	0.987253	0.616773	0.622577
	C130	C	0.003929	0.372742	0.621310
	C131	C	0.986816	0.371534	0.377884
	C132	C	0.874464	0.501770	0.121537
	C133	C	0.118369	0.484570	0.121525
	C134	C	0.117397	0.501848	0.878877
	C135	C	0.874365	0.484557	0.878866
	C136	C	0.117690	0.872843	0.508505
	C137	C	0.117086	0.115369	0.491867
	C138	C	0.873979	0.116264	0.509243
	C139	C	0.874639	0.873390	0.491815
	C140	C	0.504429	0.115769	0.879245
	C141	C	0.487432	0.116713	0.122840
	C142	C	0.503808	0.872608	0.122092
	C143	C	0.487396	0.872575	0.878419
	C144	C	0.377374	0.878850	0.676266
	C145	C	0.613421	0.109881	0.677275
	C146	C	0.614528	0.878882	0.324336
	C147	C	0.377790	0.110005	0.325420
	C148	C	0.673043	0.373438	0.885513
	C149	C	0.672185	0.613550	0.115253
	C150	C	0.318511	0.613138	0.884604
	C151	C	0.320229	0.375760	0.115331
	C152	C	0.880737	0.670698	0.381089
	C153	C	0.110290	0.671452	0.620022
	C154	C	0.880840	0.318347	0.618250
	C155	C	0.109776	0.315638	0.379651
	C156	C	0.881000	0.375579	0.676241
	C157	C	0.109933	0.614068	0.678283
	C158	C	0.880786	0.612543	0.323532
	C159	C	0.109851	0.373376	0.322343
	C160	C	0.376975	0.669550	0.884177
	C161	C	0.613797	0.670250	0.115356
	C162	C	0.614981	0.316706	0.885261
	C163	C	0.378808	0.319902	0.116170
	C164	C	0.672989	0.879574	0.380734
	C165	C	0.671511	0.109808	0.620223
	C166	C	0.319050	0.879274	0.619829
	C167	C	0.319612	0.109529	0.381838
	C168	C	0.877823	0.377822	0.175393
	C169	C	0.115018	0.608179	0.177209
	C170	C	0.115352	0.378251	0.822976
	C171	C	0.876496	0.608842	0.825083
	C172	C	0.172939	0.874541	0.384853
	C173	C	0.171999	0.113994	0.615470
	C174	C	0.818898	0.113628	0.385676
	C175	C	0.819176	0.875824	0.615195
	C176	C	0.381148	0.171122	0.882481
	C177	C	0.611022	0.170167	0.119733
	C178	C	0.380777	0.817995	0.119126
	C179	C	0.610139	0.816543	0.880299
	C180	C	0.380184	0.876820	0.176152
	C181	C	0.610641	0.112884	0.177303
	C182	C	0.381493	0.114462	0.823792
	C183	C	0.610504	0.874575	0.823573
	C184	C	0.877191	0.169795	0.384933
	C185	C	0.113702	0.170497	0.615760
	C186	C	0.115564	0.817107	0.384846
	C187	C	0.877555	0.819277	0.615790
	C188	C	0.173925	0.378441	0.879364
	C189	C	0.172809	0.608249	0.120090
	C190	C	0.819692	0.378278	0.119109
	C191	C	0.818109	0.608001	0.881361
	C192	C	0.395690	0.088940	0.599960
	C193	C	0.595192	0.899827	0.598758
	C194	C	0.595309	0.089633	0.401484
	C195	C	0.396486	0.899237	0.400141
	C196	C	0.596289	0.394834	0.095764
	C197	C	0.595443	0.591803	0.905206
	C198	C	0.395559	0.594178	0.094706
	C199	C	0.397378	0.394818	0.905025
	C200	C	0.089606	0.592474	0.401238
	C201	C	0.901414	0.594512	0.600123
	C202	C	0.090058	0.394703	0.599255
	C203	C	0.901027	0.393968	0.399834
	C204	C	0.896024	0.588199	0.099784
	C205	C	0.096965	0.398115	0.098916
	C206	C	0.094769	0.587588	0.902344
	C207	C	0.896981	0.398371	0.900723
	C208	C	0.095417	0.895542	0.594658
	C209	C	0.095354	0.092536	0.405382
	C210	C	0.895417	0.094725	0.595681
	C211	C	0.896569	0.895350	0.405380
	C212	C	0.590186	0.092890	0.901333
	C213	C	0.401002	0.095961	0.101268
	C214	C	0.589912	0.894061	0.100468
	C215	C	0.401540	0.894882	0.900551
	Zn216	Zn	0.495932	-0.005894	0.750319
	Zn217	Zn	0.495671	-0.005244	0.250914
	Zn218	Zn	0.746334	0.493047	0.000592
	Zn219	Zn	0.246514	0.493488	-0.000394
	Zn220	Zn	-0.004237	0.745041	0.499743
	Zn221	Zn	-0.004084	0.243608	0.499888
	Zn222	Zn	-0.004491	0.493757	0.751135
	Zn223	Zn	-0.004211	0.492946	0.249308
	Zn224	Zn	0.495425	0.743291	-0.000563
	Zn225	Zn	0.496373	0.244637	0.000855
	Zn226	Zn	0.745779	-0.005136	0.500511
	Zn227	Zn	0.246157	-0.005566	0.500168
	N228	N	0.410932	0.956678	0.677834
	N229	N	0.580279	0.032092	0.678185
	N230	N	0.580667	0.956812	0.323134
	N231	N	0.411534	0.032033	0.323658
	N232	N	0.674889	0.407335	0.963569
	N233	N	0.674568	0.579650	0.037338
	N234	N	0.316195	0.580570	0.962905
	N235	N	0.318020	0.407944	0.036929
	N236	N	0.958512	0.672597	0.414293
	N237	N	0.032765	0.673329	0.586210
	N238	N	0.958353	0.316457	0.585042
	N239	N	0.032398	0.314455	0.413623
	N240	N	0.958798	0.408488	0.678292
	N241	N	0.032448	0.580818	0.680000
	N242	N	0.958264	0.578872	0.321939
	N243	N	0.032520	0.407388	0.321140
	N244	N	0.410245	0.671306	0.962098
	N245	N	0.580249	0.670860	0.037420
	N246	N	0.581671	0.315704	0.963210
	N247	N	0.412587	0.318146	0.038327
	N248	N	0.675036	0.957751	0.413820
	N249	N	0.673524	0.031731	0.586258
	N250	N	0.317159	0.957145	0.586805
	N251	N	0.317253	0.031332	0.414087
	N252	N	0.911230	0.455650	0.176979
	N253	N	0.081652	0.530303	0.178094
	N254	N	0.080864	0.455730	0.822700
	N255	N	0.910958	0.531336	0.823705
	N256	N	0.174598	0.908388	0.462861
	N257	N	0.174119	0.080300	0.537227
	N258	N	0.816457	0.081247	0.463916
	N259	N	0.817373	0.908704	0.537144
	N260	N	0.458583	0.171985	0.916268
	N261	N	0.533327	0.172487	0.086438
	N262	N	0.458499	0.815404	0.086237
	N263	N	0.532639	0.815098	0.913750
	N264	N	0.457646	0.909983	0.178137
	N265	N	0.532775	0.080558	0.179561
	N266	N	0.459013	0.080611	0.821791
	N267	N	0.532990	0.908421	0.822061
	N268	N	0.911021	0.171287	0.462631
	N269	N	0.080568	0.171468	0.537839
	N270	N	0.081777	0.815985	0.462628
	N271	N	0.911172	0.817542	0.537905
	N272	N	0.175248	0.456408	0.913514
	N273	N	0.175008	0.530391	0.086243
	N274	N	0.817618	0.456387	0.086220
	N275	N	0.816598	0.529735	0.914063
	O276	O	1.027207	0.973295	0.052538
	H277	H	1.039406	0.975148	0.066611
	H278	H	1.022387	0.977364	0.046975
	O279	O	0.070445	-0.081459	-0.066318
	H280	H	0.077516	-0.080712	-0.076297
	H281	H	0.058920	-0.093892	-0.066907
	O282	O	0.012043	-0.032337	1.005720
	H283	H	0.004664	-0.035641	1.002187
	H284	H	0.013579	-0.038685	1.001412
	O285	O	1.421328	1.538796	0.497836
	H286	H	1.419024	1.534296	0.491245
	H287	H	1.421989	1.542438	0.505330
	O288	O	0.482046	0.460998	0.476661
	H289	H	0.479711	0.453696	0.473743
	H290	H	0.479175	0.461775	0.481947
	O291	O	0.464026	0.527516	0.507297
	H292	H	0.468536	0.529258	0.507346
	H293	H	0.462561	0.532283	0.507932
	O294	O	0.030780	-0.065060	0.036044
	H295	H	0.035957	-0.058453	0.032542
	H296	H	0.037551	-0.063703	0.043338
	O297	O	0.454332	0.519263	0.515642
	H298	H	0.453508	0.521203	0.512225
	H299	H	0.458575	0.529109	0.507533
	O300	O	-0.005080	0.906057	0.978703
	H301	H	-0.008774	0.914334	0.976792
	H302	H	0.000802	0.902855	0.993444
	O303	O	0.434361	0.533619	0.472260
	H304	H	0.433624	0.520928	0.469294
	H305	H	0.427728	0.540640	0.468616
	O306	O	-0.058550	-0.101053	1.043330
	H307	H	-0.056239	-0.099130	1.042761
	H308	H	-0.056444	-0.099898	1.050281
	O309	O	0.998406	0.885596	0.950859
	H310	H	1.001294	0.875169	0.946749
	H311	H	0.995247	0.887561	0.950383
	O312	O	0.500601	0.540818	0.460711
	H313	H	0.501339	0.543887	0.460437
	H314	H	0.497491	0.536912	0.461773
	O315	O	0.452736	0.512819	0.478547
	H316	H	0.456824	0.521338	0.473989
	H317	H	0.455918	0.512690	0.477307
	O318	O	0.023024	0.982226	-0.024376
	H319	H	0.025314	0.979434	-0.027269
	H320	H	0.034846	0.966010	-0.027375
	O321	O	0.980031	0.947565	0.026228
	H322	H	0.981266	0.959811	0.019917
	H323	H	0.975124	0.936810	0.016764
