data_Molecule from HDF5

_cell_length_a		16.222139
_cell_length_b		16.285394
_cell_length_c		16.127601
_cell_angle_alpha	90.258645
_cell_angle_beta	89.880086
_cell_angle_gamma	91.000771
_symmetry_space_group_name_H-M	'P 1'
_symmetry_Int_Tables_number		1

loop_
	_symmetry_equiv_pos_as_xyz
	x,y,z

loop_
	_atom_site_label
	_atom_site_type_symbol
	_atom_site_fract_x
	_atom_site_fract_y
	_atom_site_fract_z
	H0	H	0.402643	0.834196	0.708629
	H1	H	0.605221	0.162766	0.710014
	H2	H	0.599294	0.835576	0.279015
	H3	H	0.408247	0.163013	0.282223
	H4	H	0.716580	0.403340	0.832563
	H5	H	0.718612	0.602694	0.161992
	H6	H	0.291327	0.595071	0.831958
	H7	H	0.287876	0.398598	0.162259
	H8	H	0.837836	0.708494	0.399361
	H9	H	0.165311	0.719983	0.600387
	H10	H	0.839517	0.280439	0.597400
	H11	H	0.168074	0.287613	0.396772
	H12	H	0.838819	0.398509	0.711145
	H13	H	0.168343	0.600515	0.711158
	H14	H	0.838270	0.592758	0.284111
	H15	H	0.167517	0.403489	0.281109
	H16	H	0.406018	0.710773	0.830740
	H17	H	0.606240	0.719911	0.159649
	H18	H	0.600625	0.288594	0.830863
	H19	H	0.399046	0.279993	0.159801
	H20	H	0.715484	0.835135	0.393705
	H21	H	0.720980	0.162048	0.595300
	H22	H	0.282463	0.836081	0.596645
	H23	H	0.290091	0.162558	0.395933
	H24	H	0.902164	0.334544	0.208459
	H25	H	0.103908	0.663543	0.211650
	H26	H	0.099149	0.334720	0.782591
	H27	H	0.907518	0.662111	0.783285
	H28	H	0.215245	0.900304	0.331133
	H29	H	0.219831	0.100144	0.661520
	H30	H	0.794386	0.093225	0.330152
	H31	H	0.786121	0.899829	0.661220
	H32	H	0.339244	0.210758	0.895068
	H33	H	0.666788	0.219262	0.095456
	H34	H	0.340782	0.780674	0.096200
	H35	H	0.667895	0.786633	0.892249
	H36	H	0.339158	0.898980	0.209430
	H37	H	0.667644	0.102840	0.210405
	H38	H	0.338866	0.094052	0.781553
	H39	H	0.667843	0.903701	0.780398
	H40	H	0.906936	0.210369	0.331629
	H41	H	0.106581	0.216457	0.661774
	H42	H	0.101535	0.783516	0.332875
	H43	H	0.897643	0.781943	0.661443
	H44	H	0.215665	0.334921	0.897214
	H45	H	0.222482	0.662233	0.099294
	H46	H	0.782236	0.337290	0.098968
	H47	H	0.791404	0.662998	0.897863
	H48	H	0.418079	0.115288	0.597575
	H49	H	0.590541	0.885560	0.577343
	H50	H	0.599021	0.116077	0.402320
	H51	H	0.397630	0.880193	0.404278
	H52	H	0.594639	0.404676	0.116142
	H53	H	0.599261	0.591295	0.878961
	H54	H	0.415103	0.587619	0.112647
	H55	H	0.402463	0.409940	0.878607
	H56	H	0.117285	0.591742	0.408008
	H57	H	0.883237	0.593196	0.595574
	H58	H	0.123157	0.398814	0.589086
	H59	H	0.886748	0.400072	0.406811
	H60	H	0.116022	0.413522	0.581633
	H61	H	0.886710	0.592380	0.586500
	H62	H	0.120603	0.592602	0.403098
	H63	H	0.887283	0.405184	0.405351
	H64	H	0.417175	0.593051	0.113372
	H65	H	0.597236	0.594097	0.878899
	H66	H	0.595395	0.413021	0.114676
	H67	H	0.416595	0.407579	0.881352
	H68	H	0.602239	0.115718	0.404661
	H69	H	0.605575	0.878347	0.588644
	H70	H	0.416938	0.111405	0.580732
	H71	H	0.412550	0.881320	0.393646
	H72	H	0.909971	0.613630	0.079671
	H73	H	0.089780	0.386347	0.081656
	H74	H	0.105582	0.616979	0.906305
	H75	H	0.902965	0.380335	0.904264
	H76	H	0.087341	0.910484	0.612242
	H77	H	0.098895	0.089557	0.380011
	H78	H	0.905164	0.096941	0.619023
	H79	H	0.905216	0.906137	0.377421
	H80	H	0.617011	0.090228	0.908994
	H81	H	0.384699	0.081606	0.101676
	H82	H	0.621958	0.911862	0.091738
	H83	H	0.389378	0.903003	0.909780
	H84	H	0.622408	0.904650	0.085294
	H85	H	0.382282	0.104335	0.087811
	H86	H	0.622897	0.093739	0.893878
	H87	H	0.386135	0.908738	0.898988
	H88	H	0.908888	0.082621	0.612877
	H89	H	0.092833	0.094861	0.379772
	H90	H	0.094210	0.906480	0.615533
	H91	H	0.914857	0.905585	0.381548
	H92	H	0.096266	0.615276	0.901357
	H93	H	0.104463	0.380183	0.088751
	H94	H	0.902015	0.621657	0.100047
	H95	H	0.913369	0.383045	0.901196
	H96	H	0.403636	0.117393	0.588823
	H97	H	0.586395	0.881268	0.597450
	H98	H	0.603010	0.116529	0.400311
	H99	H	0.412664	0.886217	0.410693
	H100	H	0.587048	0.409495	0.113857
	H101	H	0.599536	0.593608	0.877817
	H102	H	0.411710	0.592032	0.115183
	H103	H	0.407719	0.395950	0.875745
	H104	H	0.120785	0.596080	0.406953
	H105	H	0.887615	0.584664	0.591933
	H106	H	0.121625	0.412962	0.597859
	H107	H	0.885276	0.402035	0.401535
	H108	H	0.923718	0.615501	0.097480
	H109	H	0.089290	0.381635	0.097918
	H110	H	0.096858	0.613013	0.910878
	H111	H	0.909428	0.385637	0.912560
	H112	H	0.094575	0.914302	0.613324
	H113	H	0.100392	0.097039	0.376565
	H114	H	0.919530	0.093876	0.612359
	H115	H	0.909716	0.896529	0.377870
	H116	H	0.622903	0.104822	0.905627
	H117	H	0.392259	0.081830	0.075059
	H118	H	0.618444	0.912567	0.083470
	H119	H	0.383937	0.896260	0.899485
	C120	C	0.381843	0.006963	0.617746
	C121	C	0.625090	0.990078	0.617283
	C122	C	0.626632	0.007531	0.373033
	C123	C	0.381265	0.990879	0.374092
	C124	C	0.622236	0.380674	0.005673
	C125	C	0.627228	0.623228	0.987579
	C126	C	0.384626	0.619083	0.005167
	C127	C	0.379824	0.375824	0.987664
	C128	C	0.011007	0.619825	0.376978
	C129	C	0.994225	0.621366	0.620651
	C130	C	0.012214	0.377491	0.618673
	C131	C	0.994657	0.376128	0.374756
	C132	C	0.881094	0.508448	0.120016
	C133	C	0.125082	0.490799	0.119254
	C134	C	0.126108	0.507039	0.876061
	C135	C	0.881780	0.490803	0.876709
	C136	C	0.121806	0.879819	0.505254
	C137	C	0.126883	0.122840	0.487932
	C138	C	0.883777	0.118303	0.505176
	C139	C	0.879176	0.874727	0.487882
	C140	C	0.512268	0.121621	0.873852
	C141	C	0.494685	0.121316	0.117424
	C142	C	0.512735	0.878452	0.116453
	C143	C	0.495306	0.876481	0.873353
	C144	C	0.382314	0.883463	0.671768
	C145	C	0.624683	0.113574	0.672243
	C146	C	0.620805	0.884366	0.317275
	C147	C	0.386658	0.114142	0.319797
	C148	C	0.678686	0.382671	0.881688
	C149	C	0.681657	0.622718	0.112275
	C150	C	0.328899	0.616019	0.881114
	C151	C	0.324907	0.377970	0.112356
	C152	C	0.887179	0.672023	0.379150
	C153	C	0.116829	0.680450	0.619775
	C154	C	0.888633	0.319392	0.617575
	C155	C	0.118737	0.324143	0.376440
	C156	C	0.888133	0.378312	0.673798
	C157	C	0.118347	0.620794	0.674750
	C158	C	0.887311	0.614513	0.321650
	C159	C	0.118278	0.381613	0.318709
	C160	C	0.386126	0.673391	0.880342
	C161	C	0.625627	0.680837	0.110933
	C162	C	0.621086	0.325556	0.880941
	C163	C	0.380099	0.319087	0.111241
	C164	C	0.678663	0.884125	0.374187
	C165	C	0.682286	0.113195	0.615053
	C166	C	0.322586	0.884433	0.616031
	C167	C	0.327977	0.113870	0.376389
	C168	C	0.881653	0.384351	0.173068
	C169	C	0.124213	0.614154	0.174440
	C170	C	0.120696	0.383887	0.820364
	C171	C	0.886402	0.613542	0.821302
	C172	C	0.177532	0.880411	0.380845
	C173	C	0.182521	0.120825	0.612187
	C174	C	0.830951	0.114256	0.379970
	C175	C	0.823215	0.878378	0.611776
	C176	C	0.388287	0.173644	0.875268
	C177	C	0.617728	0.180233	0.115725
	C178	C	0.389538	0.819885	0.115697
	C179	C	0.618753	0.823553	0.873528
	C180	C	0.388690	0.878885	0.171825
	C181	C	0.618453	0.122028	0.172655
	C182	C	0.388397	0.115657	0.818750
	C183	C	0.618685	0.881720	0.817509
	C184	C	0.886913	0.172452	0.380667
	C185	C	0.125791	0.178504	0.612119
	C186	C	0.120980	0.822399	0.381780
	C187	C	0.879197	0.820114	0.611992
	C188	C	0.178630	0.383723	0.877500
	C189	C	0.183311	0.613529	0.118552
	C190	C	0.822107	0.385735	0.118533
	C191	C	0.828940	0.614130	0.878666
	C192	C	0.405781	0.092490	0.595623
	C193	C	0.601103	0.904022	0.594450
	C194	C	0.607088	0.093881	0.395670
	C195	C	0.401585	0.904923	0.396223
	C196	C	0.599148	0.402759	0.092309
	C197	C	0.605118	0.599754	0.901132
	C198	C	0.407752	0.597198	0.091407
	C199	C	0.402231	0.398001	0.901064
	C200	C	0.097084	0.599631	0.399578
	C201	C	0.907967	0.597185	0.598136
	C202	C	0.098043	0.401212	0.596150
	C203	C	0.908953	0.396371	0.397722
	C204	C	0.904910	0.594528	0.098734
	C205	C	0.101424	0.404853	0.096246
	C206	C	0.105732	0.592859	0.899288
	C207	C	0.902401	0.405158	0.899392
	C208	C	0.098740	0.903593	0.591623
	C209	C	0.104102	0.100357	0.400988
	C210	C	0.904894	0.097368	0.592289
	C211	C	0.902979	0.896367	0.401300
	C212	C	0.598530	0.102198	0.896218
	C213	C	0.408765	0.096536	0.094794
	C214	C	0.598637	0.902562	0.093400
	C215	C	0.408938	0.896850	0.896005
	Zn216	Zn	0.503680	-0.001126	0.746377
	Zn217	Zn	0.503895	-0.000405	0.245418
	Zn218	Zn	0.753062	0.500864	-0.001745
	Zn219	Zn	0.254906	0.498455	-0.002264
	Zn220	Zn	0.002130	0.748928	0.498184
	Zn221	Zn	0.003991	0.248289	0.497164
	Zn222	Zn	0.003623	0.499071	0.747723
	Zn223	Zn	0.002695	0.499171	0.247019
	Zn224	Zn	0.504753	0.749250	-0.005031
	Zn225	Zn	0.501927	0.250495	-0.004042
	Zn226	Zn	0.754087	-0.001898	0.495721
	Zn227	Zn	0.251988	-0.000387	0.496226
	N228	N	0.418513	0.960544	0.672981
	N229	N	0.590015	0.035900	0.674081
	N230	N	0.589208	0.962251	0.316273
	N231	N	0.418908	0.036594	0.318091
	N232	N	0.679494	0.416325	0.960054
	N233	N	0.682990	0.587594	0.034466
	N234	N	0.327710	0.583118	0.959580
	N235	N	0.324637	0.412490	0.034628
	N236	N	0.965141	0.675621	0.412743
	N237	N	0.038510	0.681118	0.586969
	N238	N	0.966670	0.318745	0.583967
	N239	N	0.041031	0.320401	0.410667
	N240	N	0.965813	0.413883	0.674616
	N241	N	0.041058	0.584744	0.675383
	N242	N	0.965235	0.582807	0.320094
	N243	N	0.040334	0.413488	0.317713
	N244	N	0.420106	0.675564	0.958482
	N245	N	0.592645	0.681304	0.032524
	N246	N	0.586815	0.323946	0.959200
	N247	N	0.413578	0.317509	0.032707
	N248	N	0.682337	0.961741	0.408217
	N249	N	0.682607	0.035331	0.581469
	N250	N	0.322183	0.962212	0.583254
	N251	N	0.324481	0.036195	0.409443
	N252	N	0.917817	0.461482	0.174123
	N253	N	0.088752	0.536835	0.175085
	N254	N	0.088818	0.461654	0.819209
	N255	N	0.918762	0.536080	0.820290
	N256	N	0.177936	0.915477	0.458618
	N257	N	0.183389	0.086953	0.533797
	N258	N	0.828901	0.081337	0.458496
	N259	N	0.823104	0.911607	0.533522
	N260	N	0.466284	0.177870	0.908880
	N261	N	0.539673	0.180037	0.082131
	N262	N	0.467594	0.819500	0.082060
	N263	N	0.540910	0.820001	0.907375
	N264	N	0.466272	0.914391	0.172630
	N265	N	0.540919	0.086419	0.174031
	N266	N	0.466399	0.083959	0.817624
	N267	N	0.540742	0.913792	0.817180
	N268	N	0.919123	0.175254	0.459476
	N269	N	0.091848	0.179803	0.533863
	N270	N	0.086770	0.821927	0.460137
	N271	N	0.913541	0.817661	0.533749
	N272	N	0.182136	0.461390	0.911543
	N273	N	0.184001	0.535646	0.084990
	N274	N	0.821402	0.463876	0.086349
	N275	N	0.826115	0.536724	0.912620
	O276	O	0.462052	0.579154	0.401178
	H277	H	0.455185	0.584004	0.386562
	H278	H	0.459616	0.571630	0.406701
	O279	O	0.477842	0.512644	0.537531
	H280	H	0.468265	0.519949	0.536843
	H281	H	0.476819	0.519061	0.546263
	O282	O	1.019901	0.973168	0.027040
	H283	H	1.017370	0.960775	0.027350
	H284	H	1.011061	0.973722	0.022598
	O285	O	0.927227	-0.011798	1.001573
	H286	H	0.930343	-0.005824	1.000752
	H287	H	0.920380	-0.002251	1.002480
	O288	O	0.468130	0.463142	0.491490
	H289	H	0.474903	0.473688	0.485676
	H290	H	0.454893	0.450330	0.499756
	O291	O	0.430268	0.598289	0.496027
	H292	H	0.421806	0.596258	0.491628
	H293	H	0.429390	0.598308	0.494463
	O294	O	0.499624	0.567919	0.506444
	H295	H	0.508691	0.573482	0.515670
	H296	H	0.504986	0.576267	0.514378
	O297	O	0.008756	-0.027872	0.992733
	H298	H	-0.009712	-0.023400	0.996021
	H299	H	0.005620	-0.034371	0.984367
	O300	O	0.488939	0.418489	0.507699
	H301	H	0.484925	0.427182	0.513403
	H302	H	0.489939	0.427251	0.497468
	O303	O	0.536456	0.500017	-0.491041
	H304	H	0.541700	0.504706	-0.494144
	H305	H	0.526378	0.488925	-0.493505
	O306	O	0.067441	1.109721	1.009319
	H307	H	0.064821	1.096827	1.007951
	H308	H	0.054088	1.109867	1.005939
	O309	O	0.512735	0.412884	0.537116
	H310	H	0.509980	0.411573	0.538876
	H311	H	0.503344	0.404149	0.526638
	O312	O	0.034247	-0.099325	-0.007442
	H313	H	0.036723	-0.100203	0.002892
	H314	H	0.030149	-0.102732	-0.011043
	O315	O	1.100828	-0.033656	-0.039279
	H316	H	1.100561	-0.025864	-0.035325
	H317	H	1.101675	-0.025102	-0.020166
	O318	O	0.883748	0.960962	0.934480
	H319	H	0.877080	0.956565	0.934754
	H320	H	0.883709	0.961697	0.934913
	O321	O	-0.032767	0.062893	0.971211
	H322	H	-0.031816	0.060233	0.976951
	H323	H	-0.040214	0.055154	0.975716
	O324	O	0.475094	0.537665	0.370527
	H325	H	0.461061	0.537434	0.379379
	H326	H	0.478034	0.539762	0.368184
	O327	O	-0.000902	0.016702	-0.050284
	H328	H	0.006418	0.011971	-0.042007
	H329	H	0.001001	0.018216	-0.054434
	O330	O	0.485121	0.418405	0.577224
	H331	H	0.480975	0.420076	0.589877
	H332	H	0.482575	0.427015	0.581192
	O333	O	-0.051287	0.882401	1.068130
	H334	H	-0.054369	0.881403	1.074380
	H335	H	-0.064603	0.878818	1.069324
	O336	O	0.018198	-0.039419	-0.100237
	H337	H	0.022821	-0.040027	-0.100173
	H338	H	0.031161	-0.038735	-0.101365
	O339	O	0.465949	0.516737	0.489013
	H340	H	0.474763	0.515507	0.497567
	H341	H	0.475645	0.516806	0.491497
	O342	O	1.018128	1.023030	1.017360
	H343	H	1.018708	1.025664	1.018932
	H344	H	1.017212	1.023379	1.011227
	O345	O	0.940798	1.040408	-0.001405
	H346	H	0.945750	1.045006	-0.006758
	H347	H	0.946277	1.042899	-0.006466
	O348	O	0.554341	0.416775	0.394662
	H349	H	0.558776	0.408218	0.397713
	H350	H	0.564522	0.413776	0.400234
	O351	O	0.456816	0.464153	0.550017
	H352	H	0.447959	0.462380	0.555391
	H353	H	0.452943	0.459039	0.550265
	O354	O	0.582618	0.574311	0.564270
	H355	H	0.586799	0.572780	0.547879
	H356	H	0.607008	0.572615	0.561944
	O357	O	0.595831	0.499562	1.474186
	H358	H	0.599533	0.500278	1.468207
	H359	H	0.587047	0.512999	1.469922
	O360	O	0.477329	0.524146	0.539888
	H361	H	0.490342	0.526163	0.520333
	H362	H	0.468419	0.515861	0.534692
	O363	O	1.005510	0.995697	1.146644
	H364	H	1.013290	0.997183	1.152313
	H365	H	1.019722	0.998814	1.144495
	O366	O	1.030882	0.908302	0.988584
	H367	H	1.032614	0.896307	0.983495
	H368	H	1.036739	0.909821	0.993405
	O369	O	1.040031	0.110179	0.983264
	H370	H	1.040186	0.120289	0.982502
	H371	H	1.045256	0.117574	0.971616
	O372	O	0.043717	-0.039177	-0.079916
	H373	H	0.042418	-0.044335	-0.084685
	H374	H	0.045546	-0.039893	-0.078019
	O375	O	1.069177	0.017444	0.134427
	H376	H	1.075029	0.024272	0.143195
	H377	H	1.068753	0.018113	0.133253
	O378	O	0.518568	0.401594	0.586232
	H379	H	0.526035	0.400047	0.583492
	H380	H	0.527079	0.404791	0.599569
	O381	O	0.481622	0.493756	0.401173
	H382	H	0.473446	0.492405	0.408686
	H383	H	0.489976	0.489489	0.401673
