data_Molecule from HDF5

_cell_length_a		16.320548
_cell_length_b		16.349819
_cell_length_c		16.255384
_cell_angle_alpha	89.815961
_cell_angle_beta	90.050708
_cell_angle_gamma	90.100916
_symmetry_space_group_name_H-M	'P 1'
_symmetry_Int_Tables_number		1

loop_
	_symmetry_equiv_pos_as_xyz
	x,y,z

loop_
	_atom_site_label
	_atom_site_type_symbol
	_atom_site_fract_x
	_atom_site_fract_y
	_atom_site_fract_z
	H0	H	0.390966	0.830276	0.709689
	H1	H	0.594778	0.153722	0.708459
	H2	H	0.593736	0.829756	0.277022
	H3	H	0.394968	0.154743	0.273282
	H4	H	0.709890	0.391959	0.831066
	H5	H	0.710459	0.593239	0.155020
	H6	H	0.274542	0.592888	0.831300
	H7	H	0.277263	0.388338	0.155901
	H8	H	0.831733	0.709775	0.391198
	H9	H	0.155586	0.712038	0.596286
	H10	H	0.832811	0.274742	0.595529
	H11	H	0.155202	0.274872	0.389392
	H12	H	0.831324	0.393486	0.708897
	H13	H	0.156129	0.595239	0.711765
	H14	H	0.832771	0.594885	0.274642
	H15	H	0.156235	0.392380	0.275601
	H16	H	0.388414	0.710895	0.831696
	H17	H	0.596307	0.710077	0.154512
	H18	H	0.594135	0.275686	0.829918
	H19	H	0.391955	0.272338	0.155305
	H20	H	0.713708	0.832541	0.387906
	H21	H	0.709483	0.155496	0.590516
	H22	H	0.272193	0.832652	0.595332
	H23	H	0.276741	0.155065	0.387296
	H24	H	0.892695	0.330780	0.211849
	H25	H	0.096376	0.652786	0.210302
	H26	H	0.095230	0.330902	0.776464
	H27	H	0.890015	0.652999	0.773211
	H28	H	0.212310	0.891053	0.330454
	H29	H	0.218339	0.101981	0.650927
	H30	H	0.778084	0.096313	0.329329
	H31	H	0.775379	0.890610	0.653409
	H32	H	0.332605	0.211021	0.886547
	H33	H	0.654431	0.209304	0.094377
	H34	H	0.333538	0.769180	0.099418
	H35	H	0.653533	0.771230	0.888510
	H36	H	0.332912	0.887399	0.212632
	H37	H	0.655921	0.092506	0.207571
	H38	H	0.333115	0.095728	0.771380
	H39	H	0.655065	0.888115	0.774030
	H40	H	0.892114	0.213355	0.331136
	H41	H	0.098152	0.211363	0.654527
	H42	H	0.099392	0.773434	0.332378
	H43	H	0.889013	0.773464	0.653662
	H44	H	0.208577	0.329529	0.893042
	H45	H	0.216678	0.650001	0.100160
	H46	H	0.775157	0.331050	0.097310
	H47	H	0.773707	0.653040	0.889191
	H48	H	0.397826	0.109258	0.580981
	H49	H	0.580617	0.880135	0.579701
	H50	H	0.584873	0.110673	0.390245
	H51	H	0.401995	0.876708	0.395824
	H52	H	0.584194	0.406947	0.106449
	H53	H	0.589061	0.578092	0.876660
	H54	H	0.405117	0.590963	0.111925
	H55	H	0.396969	0.401804	0.876757
	H56	H	0.109521	0.585034	0.401973
	H57	H	0.880300	0.581226	0.584053
	H58	H	0.108456	0.400980	0.582394
	H59	H	0.878817	0.399807	0.403034
	H60	H	0.108335	0.404438	0.585880
	H61	H	0.878514	0.585056	0.585888
	H62	H	0.108406	0.584813	0.403886
	H63	H	0.880809	0.403039	0.406229
	H64	H	0.394428	0.573853	0.108603
	H65	H	0.577066	0.577629	0.881490
	H66	H	0.575769	0.394823	0.107626
	H67	H	0.403831	0.403292	0.879320
	H68	H	0.579663	0.105089	0.404164
	H69	H	0.591502	0.876583	0.579173
	H70	H	0.411475	0.105116	0.586299
	H71	H	0.407918	0.881725	0.405338
	H72	H	0.901481	0.607722	0.084261
	H73	H	0.081977	0.379130	0.080680
	H74	H	0.086998	0.606594	0.906301
	H75	H	0.901319	0.378998	0.906354
	H76	H	0.081492	0.902001	0.607513
	H77	H	0.086524	0.089060	0.374633
	H78	H	0.911420	0.091542	0.607579
	H79	H	0.904095	0.901129	0.376661
	H80	H	0.605512	0.079377	0.907197
	H81	H	0.379000	0.081852	0.080031
	H82	H	0.611338	0.897159	0.089123
	H83	H	0.379597	0.900428	0.904574
	H84	H	0.607788	0.894902	0.077853
	H85	H	0.378713	0.080393	0.081858
	H86	H	0.609302	0.079697	0.894628
	H87	H	0.380139	0.903410	0.903236
	H88	H	0.892321	0.088166	0.612125
	H89	H	0.084504	0.080018	0.378128
	H90	H	0.085474	0.904325	0.607446
	H91	H	0.902979	0.902954	0.376574
	H92	H	0.083702	0.606933	0.901403
	H93	H	0.088558	0.374795	0.085182
	H94	H	0.903570	0.606581	0.083976
	H95	H	0.898518	0.376529	0.901221
	H96	H	0.408072	0.102565	0.571726
	H97	H	0.585885	0.875659	0.589214
	H98	H	0.594598	0.109309	0.402383
	H99	H	0.395961	0.878164	0.407095
	H100	H	0.590071	0.394444	0.112278
	H101	H	0.581434	0.588286	0.876048
	H102	H	0.413693	0.574386	0.102519
	H103	H	0.401978	0.396259	0.876458
	H104	H	0.108477	0.583967	0.402212
	H105	H	0.880273	0.584459	0.581121
	H106	H	0.110579	0.400460	0.586795
	H107	H	0.879531	0.405033	0.402274
	H108	H	0.901958	0.606911	0.082090
	H109	H	0.080983	0.376088	0.089911
	H110	H	0.081524	0.604228	0.905755
	H111	H	0.905145	0.377812	0.901076
	H112	H	0.081628	0.907013	0.606003
	H113	H	0.077723	0.087190	0.377654
	H114	H	0.903217	0.073211	0.604400
	H115	H	0.905071	0.903309	0.377515
	H116	H	0.611196	0.090928	0.902470
	H117	H	0.378222	0.082683	0.082443
	H118	H	0.605969	0.906441	0.081982
	H119	H	0.378728	0.900416	0.901532
	C120	C	0.372689	0.000399	0.612673
	C121	C	0.615877	0.984206	0.612906
	C122	C	0.616108	0.001176	0.369285
	C123	C	0.372038	0.985033	0.369895
	C124	C	0.613952	0.369790	0.001322
	C125	C	0.614162	0.612557	0.984775
	C126	C	0.371982	0.612048	0.001419
	C127	C	0.371177	0.368843	0.984668
	C128	C	0.002441	0.615037	0.371705
	C129	C	0.985861	0.614637	0.615023
	C130	C	0.002324	0.371586	0.615165
	C131	C	0.986344	0.372547	0.372922
	C132	C	0.871710	0.500893	0.114821
	C133	C	0.115586	0.482693	0.115776
	C134	C	0.114493	0.499843	0.873253
	C135	C	0.871282	0.484015	0.871739
	C136	C	0.114368	0.873337	0.500535
	C137	C	0.115441	0.116220	0.483738
	C138	C	0.872416	0.115200	0.500815
	C139	C	0.872402	0.871747	0.483673
	C140	C	0.502231	0.113990	0.869709
	C141	C	0.485130	0.111954	0.112286
	C142	C	0.502192	0.868959	0.114468
	C143	C	0.485217	0.869929	0.871396
	C144	C	0.371449	0.879206	0.671092
	C145	C	0.614659	0.105609	0.669614
	C146	C	0.614402	0.878898	0.314125
	C147	C	0.374159	0.106358	0.311900
	C148	C	0.671247	0.371669	0.879467
	C149	C	0.671873	0.612606	0.106610
	C150	C	0.313535	0.612346	0.879938
	C151	C	0.315225	0.368848	0.107152
	C152	C	0.880695	0.671796	0.371494
	C153	C	0.107394	0.672779	0.615479
	C154	C	0.880712	0.313942	0.614886
	C155	C	0.107181	0.314261	0.371380
	C156	C	0.880351	0.372603	0.671472
	C157	C	0.107701	0.614393	0.672727
	C158	C	0.880925	0.614341	0.313844
	C159	C	0.107659	0.372821	0.314788
	C160	C	0.370367	0.670971	0.879988
	C161	C	0.614960	0.670613	0.106294
	C162	C	0.613367	0.314199	0.878678
	C163	C	0.372270	0.310912	0.106554
	C164	C	0.673855	0.880001	0.369675
	C165	C	0.671786	0.106346	0.611086
	C166	C	0.312444	0.880327	0.614013
	C167	C	0.315245	0.106720	0.368448
	C168	C	0.872439	0.379369	0.173038
	C169	C	0.116173	0.604142	0.172400
	C170	C	0.114156	0.378814	0.815385
	C171	C	0.870684	0.604852	0.812590
	C172	C	0.172718	0.872616	0.378890
	C173	C	0.177033	0.118492	0.603715
	C174	C	0.815955	0.115483	0.378222
	C175	C	0.814020	0.871269	0.604892
	C176	C	0.381013	0.171962	0.868196
	C177	C	0.606533	0.170107	0.113164
	C178	C	0.381226	0.809595	0.116825
	C179	C	0.605643	0.810944	0.869703
	C180	C	0.381179	0.868191	0.173442
	C181	C	0.607225	0.111592	0.169222
	C182	C	0.381404	0.114771	0.810285
	C183	C	0.606458	0.869442	0.812871
	C184	C	0.872982	0.173643	0.379024
	C185	C	0.117031	0.173172	0.605690
	C186	C	0.116804	0.813513	0.380059
	C187	C	0.870552	0.812835	0.605070
	C188	C	0.170850	0.378195	0.873285
	C189	C	0.175805	0.602767	0.117254
	C190	C	0.814029	0.379320	0.116109
	C191	C	0.813021	0.604937	0.870717
	C192	C	0.398333	0.083952	0.587144
	C193	C	0.592894	0.899223	0.589503
	C194	C	0.592994	0.086159	0.392122
	C195	C	0.395202	0.900687	0.395263
	C196	C	0.590168	0.392277	0.086758
	C197	C	0.589670	0.588333	0.900146
	C198	C	0.397038	0.587003	0.085949
	C199	C	0.394301	0.393239	0.899590
	C200	C	0.086966	0.591502	0.395710
	C201	C	0.901408	0.590700	0.590755
	C202	C	0.087199	0.395088	0.591631
	C203	C	0.901682	0.395952	0.396957
	C204	C	0.895271	0.585070	0.090532
	C205	C	0.091096	0.398343	0.092211
	C206	C	0.090939	0.584128	0.897393
	C207	C	0.894870	0.399735	0.896018
	C208	C	0.089943	0.897722	0.585045
	C209	C	0.090244	0.092342	0.399070
	C210	C	0.895593	0.091334	0.585892
	C211	C	0.896918	0.895488	0.398981
	C212	C	0.586653	0.090304	0.894219
	C213	C	0.400626	0.088438	0.088532
	C214	C	0.586250	0.892624	0.089969
	C215	C	0.401275	0.894359	0.895888
	Zn216	Zn	0.494035	-0.008517	0.742468
	Zn217	Zn	0.494258	-0.008232	0.241398
	Zn218	Zn	0.742551	0.491701	-0.006427
	Zn219	Zn	0.243205	0.490361	-0.006356
	Zn220	Zn	-0.005920	0.743528	0.493107
	Zn221	Zn	-0.005791	0.243396	0.493451
	Zn222	Zn	-0.005634	0.492628	0.744016
	Zn223	Zn	-0.005911	0.492727	0.243391
	Zn224	Zn	0.493066	0.740592	-0.007127
	Zn225	Zn	0.492969	0.241128	-0.007836
	Zn226	Zn	0.744661	-0.006675	0.490995
	Zn227	Zn	0.242978	-0.005890	0.491107
	N228	N	0.408169	0.954924	0.670191
	N229	N	0.580866	0.028529	0.671109
	N230	N	0.579386	0.955445	0.313854
	N231	N	0.408404	0.029664	0.312621
	N232	N	0.671766	0.405351	0.956822
	N233	N	0.671443	0.577389	0.029994
	N234	N	0.314471	0.576374	0.956570
	N235	N	0.314209	0.403981	0.030255
	N236	N	0.957251	0.672318	0.406762
	N237	N	0.030579	0.673345	0.580531
	N238	N	0.957622	0.313277	0.580525
	N239	N	0.030859	0.314272	0.407082
	N240	N	0.956964	0.407632	0.671757
	N241	N	0.031181	0.579130	0.672596
	N242	N	0.957779	0.580099	0.313323
	N243	N	0.031425	0.408381	0.315588
	N244	N	0.405839	0.670894	0.956796
	N245	N	0.579921	0.670732	0.029434
	N246	N	0.578621	0.312938	0.955610
	N247	N	0.406383	0.310910	0.029083
	N248	N	0.675235	0.957142	0.403046
	N249	N	0.672685	0.029607	0.576749
	N250	N	0.312914	0.956883	0.578707
	N251	N	0.313953	0.030166	0.403943
	N252	N	0.907696	0.455925	0.172618
	N253	N	0.079222	0.528739	0.171371
	N254	N	0.079941	0.455638	0.815155
	N255	N	0.906294	0.528796	0.813171
	N256	N	0.171535	0.909068	0.454901
	N257	N	0.176251	0.083835	0.526830
	N258	N	0.815539	0.079837	0.455016
	N259	N	0.815057	0.907144	0.528324
	N260	N	0.457190	0.171761	0.904335
	N261	N	0.529791	0.170650	0.078503
	N262	N	0.457385	0.809739	0.080812
	N263	N	0.529383	0.811110	0.905420
	N264	N	0.457306	0.904176	0.172319
	N265	N	0.530818	0.076019	0.168787
	N266	N	0.457725	0.079192	0.811297
	N267	N	0.530464	0.905528	0.813734
	N268	N	0.907149	0.173822	0.456378
	N269	N	0.079696	0.172026	0.529778
	N270	N	0.080997	0.814009	0.456652
	N271	N	0.906099	0.812836	0.528408
	N272	N	0.171096	0.454401	0.908804
	N273	N	0.175388	0.526182	0.082531
	N274	N	0.813331	0.455669	0.080774
	N275	N	0.813199	0.528713	0.906696
	O276	O	0.526035	0.521477	0.596547
	H277	H	0.520111	0.518993	0.598520
	H278	H	0.528068	0.523666	0.593952
	O279	O	1.197782	0.966138	0.806659
	H280	H	1.180591	0.984284	0.806798
	H281	H	1.219200	0.963937	0.777329
	O282	O	0.822830	0.065196	1.121883
	H283	H	0.808179	0.066045	1.101246
	H284	H	0.823222	0.048214	1.125134
	O285	O	0.473995	0.481605	0.485090
	H286	H	0.481013	0.484284	0.493132
	H287	H	0.475383	0.460879	0.491866
	O288	O	0.875250	0.998166	1.015627
	H289	H	0.870084	0.989213	1.009799
	H290	H	0.877761	0.983519	1.024854
	O291	O	-0.122305	1.171364	-0.009254
	H292	H	-0.131461	1.174335	-0.007230
	H293	H	-0.122019	1.169462	-0.007786
	O294	O	0.497191	0.612033	0.436181
	H295	H	0.502636	0.618906	0.435857
	H296	H	0.469905	0.614551	0.426169
	O297	O	1.014271	1.064578	0.918180
	H298	H	1.012219	1.063629	0.936642
	H299	H	1.021984	1.049624	0.915705
	O300	O	0.485940	0.572696	0.491350
	H301	H	0.483637	0.566469	0.482712
	H302	H	0.475684	0.580787	0.482047
	O303	O	0.488727	0.421821	0.486593
	H304	H	0.484594	0.416693	0.497862
	H305	H	0.500822	0.424516	0.488030
	O306	O	0.545313	0.461480	0.465447
	H307	H	0.539510	0.471781	0.467281
	H308	H	0.536732	0.470820	0.461671
	O309	O	0.628917	0.405779	0.499463
	H310	H	0.633393	0.401568	0.483718
	H311	H	0.628797	0.408845	0.504341
	O312	O	-0.163202	0.071951	-0.154788
	H313	H	-0.153919	0.073244	-0.174369
	H314	H	-0.170733	0.091390	-0.161471
	O315	O	0.398153	0.608976	0.424139
	H316	H	0.398718	0.597974	0.439944
	H317	H	0.383063	0.613284	0.408565
	O318	O	-0.011522	0.807582	0.993846
	H319	H	-0.001508	0.802726	0.991255
	H320	H	-0.011910	0.820911	0.987147
	O321	O	0.660723	0.480806	0.496020
	H322	H	0.666345	0.459641	0.487098
	H323	H	0.668282	0.492394	0.482566
	O324	O	-0.573638	1.471113	-0.460298
	H325	H	-0.569706	1.463530	-0.461321
	H326	H	-0.571533	1.479703	-0.468295
	O327	O	0.449250	0.592349	0.425411
	H328	H	0.448830	0.592536	0.409583
	H329	H	0.448821	0.603085	0.415797
	O330	O	0.105584	0.181996	1.158669
	H331	H	0.086423	0.195065	1.148924
	H332	H	0.091039	0.185947	1.146053
	O333	O	-0.553666	0.505046	1.605680
	H334	H	-0.552714	0.500615	1.600833
	H335	H	-0.534788	0.511435	1.612502
	O336	O	0.514640	0.369893	0.612855
	H337	H	0.529476	0.390305	0.608519
	H338	H	0.512322	0.374378	0.608774
	O339	O	1.065824	0.192715	-0.004338
	H340	H	1.073255	0.176491	0.004710
	H341	H	1.070057	0.198955	0.006911
	O342	O	0.161528	-0.208877	-0.039886
	H343	H	0.152116	-0.202253	-0.018696
	H344	H	0.183190	-0.228290	-0.031501
	O345	O	1.128929	0.030017	0.991385
	H346	H	1.117573	0.027144	0.976395
	H347	H	1.137260	0.031801	1.003529
	O348	O	0.991938	1.133851	0.161211
	H349	H	0.983015	1.126985	0.153645
	H350	H	0.975497	1.121481	0.159969
	O351	O	0.545230	0.577797	0.343501
	H352	H	0.543113	0.566416	0.333814
	H353	H	0.555268	0.584539	0.339717
	O354	O	1.146304	-0.176505	0.822217
	H355	H	1.156616	-0.189262	0.865930
	H356	H	1.152813	-0.150030	0.809823
	O357	O	-0.178831	-0.100462	0.907354
	H358	H	-0.190647	-0.107049	0.912419
	H359	H	-0.154205	-0.093288	0.899407
	O360	O	0.596787	0.510312	0.417046
	H361	H	0.598747	0.493130	0.408134
	H362	H	0.588349	0.514601	0.415769
	O363	O	-0.067138	1.051054	1.017589
	H364	H	-0.069496	1.052122	0.991864
	H365	H	-0.074050	1.040472	1.026869
	O366	O	0.705295	0.754724	0.151382
	H367	H	0.695614	0.734379	0.139728
	H368	H	0.726294	0.754100	0.162169
	O369	O	-0.123498	0.172345	0.835852
	H370	H	-0.118740	0.175307	0.835916
	H371	H	-0.112002	0.168362	0.836456
	O372	O	0.387589	0.477619	0.517722
	H373	H	0.401561	0.484892	0.535889
	H374	H	0.374792	0.473860	0.524525
	O375	O	0.430340	0.459393	0.651923
	H376	H	0.440654	0.462248	0.663407
	H377	H	0.440521	0.465829	0.642044
	O378	O	0.913959	0.801444	0.125924
	H379	H	0.927120	0.805188	0.101351
	H380	H	0.916155	0.804763	0.128251
	O381	O	1.009896	-0.209448	-0.163765
	H382	H	1.012811	-0.219128	-0.180805
	H383	H	1.042427	-0.211209	-0.153474
	O384	O	1.429654	0.585546	0.504105
	H385	H	1.422748	0.579522	0.508745
	H386	H	1.435435	0.581122	0.499901
	O387	O	-0.116665	-0.194718	0.143215
	H388	H	-0.116424	-0.226913	0.155580
	H389	H	-0.112735	-0.190425	0.140951
	O390	O	0.182109	1.087657	0.005487
	H391	H	0.187888	1.072303	-0.000398
	H392	H	0.189824	1.088926	-0.006581
	O393	O	1.201132	1.061706	1.194952
	H394	H	1.212161	1.072201	1.212175
	H395	H	1.195951	1.088507	1.200304
	O396	O	0.400198	0.366222	0.432169
	H397	H	0.394592	0.360108	0.435974
	H398	H	0.404994	0.366111	0.448352
	O399	O	-0.137132	0.921315	1.126050
	H400	H	-0.153612	0.933273	1.135615
	H401	H	-0.140165	0.898278	1.105880
	O402	O	0.555299	0.361228	0.473069
	H403	H	0.548013	0.354808	0.477200
	H404	H	0.564517	0.368393	0.460480
	O405	O	0.917568	0.978467	-0.163936
	H406	H	0.917083	0.960631	-0.163508
	H407	H	0.917179	0.978410	-0.171011
	O408	O	1.047211	0.950973	-0.015790
	H409	H	1.043053	0.956323	-0.012140
	H410	H	1.042723	0.937721	-0.014579
	O411	O	1.072286	0.111723	0.805023
	H412	H	1.047755	0.101160	0.806890
	H413	H	1.073099	0.133001	0.815509
	O414	O	1.098203	-0.123074	0.143178
	H415	H	1.078929	-0.119857	0.144056
	H416	H	1.116656	-0.100503	0.138665
	O417	O	0.492637	0.312779	0.454501
	H418	H	0.482165	0.306500	0.453405
	H419	H	0.494948	0.309889	0.467145
