data_Molecule from HDF5

_cell_length_a		16.187824
_cell_length_b		16.273183
_cell_length_c		16.242137
_cell_angle_alpha	89.699603
_cell_angle_beta	90.189713
_cell_angle_gamma	89.577015
_symmetry_space_group_name_H-M	'P 1'
_symmetry_Int_Tables_number		1

loop_
	_symmetry_equiv_pos_as_xyz
	x,y,z

loop_
	_atom_site_label
	_atom_site_type_symbol
	_atom_site_fract_x
	_atom_site_fract_y
	_atom_site_fract_z
	H0	H	0.400545	0.817772	0.718775
	H1	H	0.594925	0.145286	0.717913
	H2	H	0.597881	0.816933	0.291506
	H3	H	0.397016	0.143849	0.287577
	H4	H	0.710675	0.381667	0.839484
	H5	H	0.710538	0.577231	0.168245
	H6	H	0.282010	0.580772	0.839644
	H7	H	0.285236	0.384384	0.169199
	H8	H	0.834349	0.699439	0.402181
	H9	H	0.162788	0.692144	0.602272
	H10	H	0.833996	0.266347	0.604290
	H11	H	0.162016	0.267560	0.408417
	H12	H	0.832701	0.383558	0.717036
	H13	H	0.162275	0.577684	0.718434
	H14	H	0.832489	0.583550	0.288152
	H15	H	0.161523	0.382608	0.292198
	H16	H	0.396835	0.697316	0.840775
	H17	H	0.595797	0.692539	0.168039
	H18	H	0.594920	0.266509	0.839473
	H19	H	0.397751	0.265116	0.167911
	H20	H	0.713520	0.817799	0.406697
	H21	H	0.710538	0.145781	0.601955
	H22	H	0.285633	0.817089	0.602236
	H23	H	0.281297	0.144757	0.403517
	H24	H	0.898600	0.317507	0.219813
	H25	H	0.094273	0.645325	0.218596
	H26	H	0.095425	0.316360	0.793693
	H27	H	0.896598	0.644632	0.787514
	H28	H	0.210988	0.883312	0.338756
	H29	H	0.210709	0.076651	0.668305
	H30	H	0.783059	0.081180	0.339665
	H31	H	0.784044	0.882516	0.668297
	H32	H	0.333168	0.197365	0.902415
	H33	H	0.661532	0.194151	0.103124
	H34	H	0.332754	0.768002	0.102463
	H35	H	0.661479	0.765041	0.906988
	H36	H	0.332924	0.882340	0.218318
	H37	H	0.661857	0.078411	0.218791
	H38	H	0.333453	0.081732	0.787988
	H39	H	0.662638	0.882366	0.792139
	H40	H	0.896615	0.199283	0.341643
	H41	H	0.097623	0.193275	0.667783
	H42	H	0.096967	0.766242	0.340045
	H43	H	0.898436	0.764647	0.667841
	H44	H	0.211690	0.317884	0.907980
	H45	H	0.208895	0.646063	0.101817
	H46	H	0.784479	0.317308	0.102175
	H47	H	0.780347	0.644943	0.904327
	H48	H	0.402491	0.099239	0.598329
	H49	H	0.589784	0.866780	0.594841
	H50	H	0.595853	0.098228	0.417495
	H51	H	0.411069	0.864510	0.406861
	H52	H	0.591581	0.382838	0.121758
	H53	H	0.588139	0.570911	0.887801
	H54	H	0.394699	0.575079	0.124019
	H55	H	0.402248	0.389382	0.886412
	H56	H	0.111757	0.567518	0.413580
	H57	H	0.880172	0.573790	0.598184
	H58	H	0.114630	0.388660	0.599207
	H59	H	0.879016	0.386462	0.414656
	H60	H	0.116650	0.384565	0.602116
	H61	H	0.880122	0.576315	0.594330
	H62	H	0.116787	0.572357	0.404608
	H63	H	0.881034	0.394179	0.412845
	H64	H	0.406567	0.568519	0.118043
	H65	H	0.585034	0.576494	0.887213
	H66	H	0.592302	0.389441	0.120745
	H67	H	0.404585	0.390688	0.888336
	H68	H	0.591028	0.101093	0.400317
	H69	H	0.595129	0.863873	0.597908
	H70	H	0.405992	0.097766	0.596145
	H71	H	0.404850	0.865986	0.418215
	H72	H	0.903682	0.598152	0.097817
	H73	H	0.098780	0.364964	0.092238
	H74	H	0.080187	0.595290	0.911206
	H75	H	0.908442	0.366510	0.914811
	H76	H	0.093442	0.884562	0.621460
	H77	H	0.083459	0.077375	0.388271
	H78	H	0.904342	0.066871	0.619619
	H79	H	0.912263	0.898942	0.392541
	H80	H	0.616854	0.078752	0.910447
	H81	H	0.381319	0.078454	0.088943
	H82	H	0.615704	0.883938	0.097585
	H83	H	0.381933	0.891087	0.913326
	H84	H	0.614143	0.887731	0.097248
	H85	H	0.382966	0.065853	0.094467
	H86	H	0.612068	0.072778	0.917584
	H87	H	0.379441	0.890240	0.908345
	H88	H	0.910138	0.078241	0.621118
	H89	H	0.092593	0.077558	0.384755
	H90	H	0.093168	0.888181	0.620254
	H91	H	0.911010	0.878670	0.385998
	H92	H	0.095289	0.599089	0.916481
	H93	H	0.091544	0.361217	0.108069
	H94	H	0.904504	0.597037	0.094396
	H95	H	0.898872	0.362716	0.913348
	H96	H	0.401947	0.097544	0.593812
	H97	H	0.589082	0.864849	0.601346
	H98	H	0.579145	0.094105	0.411894
	H99	H	0.398203	0.861005	0.407750
	H100	H	0.586928	0.386941	0.119317
	H101	H	0.591298	0.576129	0.885464
	H102	H	0.406771	0.582615	0.122613
	H103	H	0.404131	0.387772	0.887058
	H104	H	0.115559	0.578571	0.414171
	H105	H	0.881291	0.571848	0.593965
	H106	H	0.115918	0.384108	0.596723
	H107	H	0.877845	0.389136	0.407083
	H108	H	0.901126	0.598077	0.095583
	H109	H	0.081920	0.368922	0.095200
	H110	H	0.090956	0.601711	0.901471
	H111	H	0.905258	0.363344	0.905039
	H112	H	0.089732	0.886026	0.620580
	H113	H	0.089424	0.069162	0.388189
	H114	H	0.898241	0.077220	0.623783
	H115	H	0.893845	0.891061	0.384537
	H116	H	0.614574	0.068354	0.908329
	H117	H	0.376674	0.076767	0.102177
	H118	H	0.615273	0.886407	0.100803
	H119	H	0.378163	0.885625	0.911425
	C120	C	0.375992	-0.009947	0.625091
	C121	C	0.619480	0.973162	0.626330
	C122	C	0.618846	-0.010556	0.382103
	C123	C	0.375274	0.972140	0.381811
	C124	C	0.618873	0.358142	0.012322
	C125	C	0.617243	0.601329	0.995359
	C126	C	0.373934	0.604146	0.013004
	C127	C	0.375840	0.360326	0.995902
	C128	C	0.005871	0.603034	0.381822
	C129	C	0.989401	0.601757	0.624809
	C130	C	0.006714	0.358400	0.627116
	C131	C	0.988071	0.360394	0.383678
	C132	C	0.875289	0.489701	0.125135
	C133	C	0.118574	0.473514	0.126254
	C134	C	0.118062	0.490002	0.882844
	C135	C	0.874871	0.472600	0.881917
	C136	C	0.120447	0.858399	0.512165
	C137	C	0.118214	0.101809	0.495276
	C138	C	0.875263	0.103594	0.513157
	C139	C	0.877103	0.860326	0.495917
	C140	C	0.505866	0.102746	0.882417
	C141	C	0.488793	0.102108	0.124960
	C142	C	0.506243	0.858415	0.126864
	C143	C	0.488936	0.860010	0.883329
	C144	C	0.379550	0.866665	0.681002
	C145	C	0.616244	0.096347	0.680932
	C146	C	0.617584	0.866114	0.328753
	C147	C	0.376678	0.095139	0.325571
	C148	C	0.673319	0.361161	0.888741
	C149	C	0.673053	0.598084	0.118979
	C150	C	0.319435	0.601429	0.889066
	C151	C	0.322006	0.363010	0.119782
	C152	C	0.882675	0.660196	0.383124
	C153	C	0.113604	0.655177	0.622787
	C154	C	0.882990	0.304363	0.624490
	C155	C	0.112598	0.305168	0.387353
	C156	C	0.882180	0.362961	0.680116
	C157	C	0.113206	0.598372	0.680614
	C158	C	0.881929	0.602625	0.326199
	C159	C	0.112178	0.362108	0.329186
	C160	C	0.376254	0.659454	0.889644
	C161	C	0.615722	0.655221	0.119171
	C162	C	0.615722	0.303985	0.888680
	C163	C	0.378303	0.303811	0.119005
	C164	C	0.675117	0.866552	0.386137
	C165	C	0.673278	0.096707	0.622916
	C166	C	0.322728	0.866192	0.622581
	C167	C	0.318989	0.095429	0.382968
	C168	C	0.878367	0.366433	0.181310
	C169	C	0.114966	0.596566	0.180763
	C170	C	0.115903	0.365916	0.830100
	C171	C	0.876377	0.595926	0.826020
	C172	C	0.173743	0.862354	0.388174
	C173	C	0.173436	0.097765	0.618959
	C174	C	0.820602	0.101478	0.389119
	C175	C	0.821829	0.861906	0.619355
	C176	C	0.382277	0.159020	0.883206
	C177	C	0.612487	0.156750	0.123271
	C178	C	0.382028	0.804947	0.123420
	C179	C	0.612600	0.803515	0.886109
	C180	C	0.382197	0.861812	0.181043
	C181	C	0.612736	0.098707	0.180298
	C182	C	0.382155	0.101403	0.826401
	C183	C	0.613118	0.861884	0.829210
	C184	C	0.876846	0.160386	0.389958
	C185	C	0.117052	0.155659	0.618804
	C186	C	0.117035	0.804257	0.388871
	C187	C	0.879197	0.803574	0.619214
	C188	C	0.173997	0.366768	0.886845
	C189	C	0.171899	0.596836	0.122584
	C190	C	0.821678	0.366220	0.122887
	C191	C	0.818715	0.596032	0.884037
	C192	C	0.397223	0.075908	0.602700
	C193	C	0.597707	0.887356	0.604455
	C194	C	0.595494	0.075708	0.403667
	C195	C	0.397929	0.886075	0.404509
	C196	C	0.596905	0.379972	0.098310
	C197	C	0.594722	0.580658	0.909186
	C198	C	0.396034	0.581982	0.099322
	C199	C	0.397304	0.382771	0.909578
	C200	C	0.092253	0.579721	0.404324
	C201	C	0.902830	0.580361	0.602192
	C202	C	0.093549	0.379485	0.605621
	C203	C	0.901707	0.383077	0.405342
	C204	C	0.896697	0.575639	0.102555
	C205	C	0.097190	0.387040	0.104805
	C206	C	0.095315	0.576389	0.903558
	C207	C	0.897543	0.386241	0.904440
	C208	C	0.098606	0.879775	0.598553
	C209	C	0.095233	0.080783	0.409079
	C210	C	0.897674	0.080841	0.599250
	C211	C	0.899238	0.883060	0.409875
	C212	C	0.592286	0.079968	0.905437
	C213	C	0.402544	0.080169	0.102017
	C214	C	0.592654	0.879713	0.105100
	C215	C	0.402312	0.882433	0.904781
	Zn216	Zn	0.497407	-0.018132	0.754630
	Zn217	Zn	0.497412	-0.019440	0.253443
	Zn218	Zn	0.746461	0.480627	0.003972
	Zn219	Zn	0.246547	0.482072	0.004373
	Zn220	Zn	-0.001627	0.730477	0.503819
	Zn221	Zn	-0.002577	0.231232	0.504939
	Zn222	Zn	-0.002368	0.480933	0.753701
	Zn223	Zn	-0.003253	0.481575	0.254531
	Zn224	Zn	0.497129	0.731299	0.004686
	Zn225	Zn	0.496871	0.230583	0.003621
	Zn226	Zn	0.747367	-0.018261	0.504233
	Zn227	Zn	0.247047	-0.018974	0.503762
	N228	N	0.412136	0.944417	0.682619
	N229	N	0.583497	0.018560	0.683094
	N230	N	0.583340	0.943639	0.326186
	N231	N	0.410919	0.017590	0.324802
	N232	N	0.675338	0.394247	0.966542
	N233	N	0.673734	0.565058	0.041272
	N234	N	0.318002	0.567642	0.966863
	N235	N	0.320342	0.397288	0.042194
	N236	N	0.960706	0.660566	0.416966
	N237	N	0.035623	0.657440	0.588757
	N238	N	0.961263	0.301789	0.592081
	N239	N	0.034447	0.304000	0.420444
	N240	N	0.960304	0.395761	0.682117
	N241	N	0.035017	0.565844	0.681860
	N242	N	0.959573	0.567704	0.325277
	N243	N	0.033984	0.395829	0.326881
	N244	N	0.409460	0.661245	0.967732
	N245	N	0.581692	0.657536	0.041419
	N246	N	0.582621	0.301936	0.966582
	N247	N	0.410931	0.302065	0.040860
	N248	N	0.675956	0.944494	0.418687
	N249	N	0.675499	0.019030	0.589785
	N250	N	0.320384	0.943795	0.588653
	N251	N	0.318222	0.018080	0.417403
	N252	N	0.910990	0.444299	0.182877
	N253	N	0.082184	0.518758	0.182943
	N254	N	0.081908	0.443666	0.827440
	N255	N	0.910547	0.518306	0.824810
	N256	N	0.176197	0.895087	0.465959
	N257	N	0.174290	0.065110	0.541015
	N258	N	0.819350	0.066958	0.466665
	N259	N	0.820637	0.896501	0.541883
	N260	N	0.460253	0.159848	0.917286
	N261	N	0.534493	0.158797	0.089517
	N262	N	0.460310	0.802488	0.090593
	N263	N	0.534522	0.802380	0.919140
	N264	N	0.460291	0.894502	0.182983
	N265	N	0.534715	0.065560	0.181511
	N266	N	0.459947	0.067003	0.825918
	N267	N	0.535118	0.896201	0.827321
	N268	N	0.910070	0.161641	0.468063
	N269	N	0.083224	0.158275	0.541067
	N270	N	0.084397	0.801884	0.466991
	N271	N	0.912607	0.802351	0.541363
	N272	N	0.175258	0.444842	0.919005
	N273	N	0.174276	0.519141	0.089851
	N274	N	0.819736	0.443675	0.088847
	N275	N	0.817458	0.518170	0.917790
	O276	O	0.974824	1.023785	-0.049426
	H277	H	0.965273	1.022082	-0.057548
	H278	H	0.976805	1.027053	-0.057796
	O279	O	-0.016305	-0.015140	0.013272
	H280	H	-0.017562	-0.013193	0.018319
	H281	H	-0.015833	-0.023544	0.017031
	O282	O	-0.056247	-0.021639	0.987960
	H283	H	-0.055918	-0.035274	0.977999
	H284	H	-0.051093	-0.022318	0.995174
	O285	O	1.515564	1.519906	0.431843
	H286	H	1.517426	1.513462	0.437054
	H287	H	1.511218	1.515530	0.440006
	O288	O	0.028636	1.004980	0.052921
	H289	H	0.031678	1.007517	0.051277
	H290	H	0.030981	1.007593	0.047558
	O291	O	0.513801	0.518012	0.523819
	H292	H	0.515880	0.529580	0.528498
	H293	H	0.515765	0.524370	0.519939
	O294	O	-0.001366	-0.001735	-0.031199
	H295	H	-0.005583	0.009873	-0.032929
	H296	H	-0.010744	-0.003429	-0.025650
	O297	O	0.061071	0.973586	1.014761
	H298	H	0.059809	0.973766	1.019127
	H299	H	0.070017	0.983990	1.017958
	O300	O	-0.001875	1.004669	1.009917
	H301	H	0.005229	1.007089	1.006655
	H302	H	0.003498	1.005801	1.010295
	O303	O	0.495709	0.503601	0.443313
	H304	H	0.502525	0.501548	0.441870
	H305	H	0.502464	0.507949	0.444296
	O306	O	-0.025927	-0.010419	0.974961
	H307	H	-0.023527	-0.014568	0.976474
	H308	H	-0.025095	-0.007903	0.972009
	O309	O	1.059678	1.011522	1.034298
	H310	H	1.060864	1.009654	1.038973
	H311	H	1.056682	1.019749	1.033183
	O312	O	0.550083	0.494921	0.503035
	H313	H	0.538625	0.495835	0.497117
	H314	H	0.548327	0.498939	0.506426
	O315	O	0.561288	0.521011	0.458800
	H316	H	0.554649	0.521453	0.470168
	H317	H	0.556122	0.524090	0.453282
	O318	O	0.492987	1.486355	-0.552592
	H319	H	0.492242	1.479349	-0.563326
	H320	H	0.506712	1.481997	-0.553191
	O321	O	0.934639	0.995986	0.007035
	H322	H	0.929807	0.990671	0.016113
	H323	H	0.929569	0.994152	0.007447
