data_Molecule from HDF5

_cell_length_a		16.225551
_cell_length_b		16.258219
_cell_length_c		16.255611
_cell_angle_alpha	90.143462
_cell_angle_beta	89.889696
_cell_angle_gamma	90.217154
_symmetry_space_group_name_H-M	'P 1'
_symmetry_Int_Tables_number		1

loop_
	_symmetry_equiv_pos_as_xyz
	x,y,z

loop_
	_atom_site_label
	_atom_site_type_symbol
	_atom_site_fract_x
	_atom_site_fract_y
	_atom_site_fract_z
	H0	H	0.395448	0.822152	0.724620
	H1	H	0.598852	0.148134	0.726438
	H2	H	0.594326	0.822436	0.294100
	H3	H	0.395964	0.148762	0.293718
	H4	H	0.714034	0.386756	0.848307
	H5	H	0.709334	0.587143	0.176271
	H6	H	0.280125	0.588210	0.848737
	H7	H	0.281521	0.387592	0.174503
	H8	H	0.833252	0.699356	0.412236
	H9	H	0.159946	0.701809	0.611550
	H10	H	0.833020	0.267776	0.613639
	H11	H	0.159723	0.270263	0.411131
	H12	H	0.832906	0.383193	0.729090
	H13	H	0.160204	0.585893	0.727339
	H14	H	0.832629	0.584189	0.296819
	H15	H	0.159565	0.384511	0.294532
	H16	H	0.398374	0.698732	0.846498
	H17	H	0.595752	0.704663	0.173476
	H18	H	0.597523	0.270913	0.846426
	H19	H	0.393867	0.268591	0.173229
	H20	H	0.709310	0.821849	0.409449
	H21	H	0.713560	0.148144	0.610606
	H22	H	0.281422	0.821849	0.608068
	H23	H	0.281054	0.148964	0.410046
	H24	H	0.896738	0.321075	0.225466
	H25	H	0.096873	0.648814	0.228492
	H26	H	0.098394	0.323249	0.794832
	H27	H	0.896133	0.648554	0.796399
	H28	H	0.210730	0.884889	0.346308
	H29	H	0.210465	0.084040	0.674207
	H30	H	0.782711	0.082960	0.345830
	H31	H	0.776573	0.883057	0.671647
	H32	H	0.332927	0.201605	0.909228
	H33	H	0.659573	0.203724	0.111558
	H34	H	0.331035	0.771520	0.107819
	H35	H	0.660095	0.771993	0.909710
	H36	H	0.331744	0.886080	0.225509
	H37	H	0.659801	0.087431	0.226062
	H38	H	0.332510	0.085486	0.794720
	H39	H	0.659130	0.885257	0.792898
	H40	H	0.896353	0.200411	0.347388
	H41	H	0.097275	0.201591	0.673457
	H42	H	0.096194	0.768674	0.347222
	H43	H	0.893954	0.769659	0.673809
	H44	H	0.213284	0.323924	0.911256
	H45	H	0.212958	0.649677	0.112816
	H46	H	0.776488	0.324035	0.115687
	H47	H	0.784464	0.650698	0.916383
	H48	H	0.399875	0.106064	0.610118
	H49	H	0.591325	0.867977	0.601373
	H50	H	0.584980	0.099385	0.423147
	H51	H	0.407930	0.871887	0.421988
	H52	H	0.595184	0.401486	0.127987
	H53	H	0.585779	0.585613	0.893091
	H54	H	0.403088	0.579532	0.128378
	H55	H	0.404703	0.391997	0.893456
	H56	H	0.111239	0.578028	0.425243
	H57	H	0.878934	0.572115	0.612522
	H58	H	0.113708	0.397944	0.610170
	H59	H	0.880410	0.397871	0.414816
	H60	H	0.113927	0.385836	0.602199
	H61	H	0.876469	0.585854	0.603698
	H62	H	0.111550	0.571560	0.417336
	H63	H	0.876388	0.385994	0.415680
	H64	H	0.406157	0.579389	0.127248
	H65	H	0.599220	0.580043	0.892415
	H66	H	0.576270	0.398821	0.121934
	H67	H	0.403440	0.397218	0.894691
	H68	H	0.595769	0.103859	0.419606
	H69	H	0.583925	0.868991	0.604728
	H70	H	0.413714	0.099758	0.602968
	H71	H	0.394783	0.867919	0.417729
	H72	H	0.909976	0.605220	0.120380
	H73	H	0.094790	0.369763	0.100061
	H74	H	0.087187	0.602465	0.920697
	H75	H	0.906920	0.370575	0.921462
	H76	H	0.085956	0.899378	0.623691
	H77	H	0.087898	0.068398	0.396866
	H78	H	0.900842	0.080247	0.628554
	H79	H	0.902546	0.893898	0.393407
	H80	H	0.615423	0.081102	0.912086
	H81	H	0.377201	0.086180	0.099151
	H82	H	0.607380	0.905983	0.098752
	H83	H	0.377811	0.889961	0.916178
	H84	H	0.616194	0.893030	0.112257
	H85	H	0.385229	0.071677	0.093423
	H86	H	0.611724	0.082244	0.923552
	H87	H	0.379603	0.893025	0.917774
	H88	H	0.902007	0.071053	0.625170
	H89	H	0.081097	0.084328	0.394964
	H90	H	0.085741	0.887982	0.627449
	H91	H	0.907373	0.891112	0.394543
	H92	H	0.090047	0.601412	0.920231
	H93	H	0.087853	0.367334	0.109017
	H94	H	0.912219	0.596741	0.095127
	H95	H	0.904380	0.370321	0.923908
	H96	H	0.400266	0.101040	0.594609
	H97	H	0.584247	0.870508	0.597391
	H98	H	0.586247	0.102558	0.411898
	H99	H	0.405827	0.868246	0.409540
	H100	H	0.586224	0.384651	0.128967
	H101	H	0.588589	0.572239	0.897709
	H102	H	0.404680	0.581465	0.128368
	H103	H	0.408246	0.394756	0.895477
	H104	H	0.115788	0.581018	0.416727
	H105	H	0.884240	0.572321	0.596988
	H106	H	0.108510	0.397979	0.596476
	H107	H	0.880718	0.391096	0.425771
	H108	H	0.888445	0.605571	0.103416
	H109	H	0.083720	0.373009	0.099414
	H110	H	0.088713	0.603155	0.918725
	H111	H	0.904182	0.369406	0.920776
	H112	H	0.095233	0.893814	0.628822
	H113	H	0.096966	0.081455	0.389780
	H114	H	0.909912	0.076737	0.625071
	H115	H	0.903294	0.888797	0.392413
	H116	H	0.610470	0.071269	0.918489
	H117	H	0.379177	0.071781	0.109909
	H118	H	0.612623	0.885935	0.093183
	H119	H	0.379227	0.893264	0.914082
	C120	C	0.374726	-0.005753	0.631510
	C121	C	0.617602	0.976827	0.631156
	C122	C	0.617254	-0.005994	0.388410
	C123	C	0.373973	0.977090	0.387640
	C124	C	0.617074	0.365330	0.018721
	C125	C	0.619102	0.609029	1.002576
	C126	C	0.375758	0.608429	0.019599
	C127	C	0.375288	0.365010	1.002514
	C128	C	0.005041	0.605900	0.390461
	C129	C	0.987994	0.606973	0.633693
	C130	C	0.004599	0.363522	0.633480
	C131	C	0.987494	0.362867	0.389417
	C132	C	0.873864	0.494451	0.134826
	C133	C	0.118265	0.477733	0.132931
	C134	C	0.118871	0.495083	0.889952
	C135	C	0.875943	0.478006	0.892678
	C136	C	0.117989	0.863621	0.518586
	C137	C	0.118570	0.107341	0.501641
	C138	C	0.874754	0.105693	0.518455
	C139	C	0.874029	0.862622	0.501501
	C140	C	0.504677	0.107375	0.888274
	C141	C	0.487957	0.107506	0.131409
	C142	C	0.503941	0.864969	0.130870
	C143	C	0.487524	0.863724	0.887289
	C144	C	0.375793	0.871235	0.686810
	C145	C	0.617839	0.099376	0.687910
	C146	C	0.615045	0.871365	0.332018
	C147	C	0.375850	0.100140	0.331850
	C148	C	0.674964	0.366978	0.896507
	C149	C	0.672959	0.607519	0.126307
	C150	C	0.319186	0.607076	0.896998
	C151	C	0.319167	0.367060	0.125343
	C152	C	0.881746	0.660994	0.392540
	C153	C	0.111022	0.663589	0.631750
	C154	C	0.881877	0.306405	0.632876
	C155	C	0.110805	0.307923	0.391018
	C156	C	0.881858	0.363633	0.690699
	C157	C	0.111204	0.605809	0.689425
	C158	C	0.881658	0.603925	0.334983
	C159	C	0.110522	0.364801	0.333029
	C160	C	0.377957	0.662254	0.895810
	C161	C	0.616486	0.666064	0.125083
	C162	C	0.617173	0.309115	0.895706
	C163	C	0.375311	0.307905	0.124616
	C164	C	0.672185	0.871065	0.389336
	C165	C	0.675018	0.099339	0.630185
	C166	C	0.318856	0.871115	0.628782
	C167	C	0.318948	0.100338	0.389823
	C168	C	0.875806	0.370689	0.188916
	C169	C	0.116823	0.600299	0.189936
	C170	C	0.118189	0.372308	0.833103
	C171	C	0.876711	0.600316	0.835568
	C172	C	0.173039	0.865080	0.395294
	C173	C	0.173365	0.104870	0.625032
	C174	C	0.820191	0.103344	0.394981
	C175	C	0.815872	0.863588	0.623535
	C176	C	0.381647	0.163364	0.889592
	C177	C	0.610750	0.165084	0.130829
	C178	C	0.380492	0.809179	0.128628
	C179	C	0.610983	0.809181	0.889311
	C180	C	0.380553	0.866559	0.186845
	C181	C	0.610796	0.107409	0.188084
	C182	C	0.381318	0.105527	0.832769
	C183	C	0.610484	0.865630	0.831201
	C184	C	0.876795	0.161880	0.395926
	C185	C	0.116950	0.163399	0.624663
	C186	C	0.116034	0.807111	0.396034
	C187	C	0.874398	0.807114	0.624599
	C188	C	0.175598	0.372697	0.891004
	C189	C	0.174566	0.600765	0.132558
	C190	C	0.816038	0.372084	0.134230
	C191	C	0.821029	0.601223	0.894999
	C192	C	0.397805	0.080030	0.609249
	C193	C	0.593580	0.891423	0.607814
	C194	C	0.595565	0.079753	0.411553
	C195	C	0.396210	0.891588	0.409844
	C196	C	0.593024	0.388275	0.104232
	C197	C	0.597440	0.586060	0.916640
	C198	C	0.398177	0.586593	0.105592
	C199	C	0.398750	0.387966	0.916660
	C200	C	0.090639	0.583442	0.413135
	C201	C	0.902211	0.583629	0.611088
	C202	C	0.089994	0.387081	0.609963
	C203	C	0.901463	0.385166	0.412117
	C204	C	0.896815	0.580260	0.112900
	C205	C	0.095387	0.392233	0.109648
	C206	C	0.095522	0.580451	0.913039
	C207	C	0.898702	0.392363	0.915220
	C208	C	0.095483	0.886966	0.604466
	C209	C	0.095399	0.084655	0.415967
	C210	C	0.897520	0.082684	0.604011
	C211	C	0.897400	0.884813	0.415820
	C212	C	0.590216	0.084779	0.911152
	C213	C	0.402756	0.083579	0.107894
	C214	C	0.589905	0.888047	0.107991
	C215	C	0.401402	0.885684	0.909473
	Zn216	Zn	0.496033	-0.014145	0.759883
	Zn217	Zn	0.495982	-0.013811	0.259943
	Zn218	Zn	0.746582	0.486225	0.012976
	Zn219	Zn	0.247498	0.487695	0.011156
	Zn220	Zn	-0.004108	0.734853	0.511279
	Zn221	Zn	-0.004008	0.234830	0.511087
	Zn222	Zn	-0.004020	0.485285	0.762339
	Zn223	Zn	-0.003803	0.484985	0.261953
	Zn224	Zn	0.496204	0.736214	0.009326
	Zn225	Zn	0.496202	0.235414	0.009851
	Zn226	Zn	0.745701	-0.015059	0.509300
	Zn227	Zn	0.246239	-0.014177	0.509620
	N228	N	0.409748	0.948840	0.688612
	N229	N	0.583011	0.022123	0.688756
	N230	N	0.581720	0.948811	0.331147
	N231	N	0.409380	0.022681	0.330495
	N232	N	0.674934	0.401030	0.974082
	N233	N	0.674768	0.572816	0.049038
	N234	N	0.317906	0.574130	0.974886
	N235	N	0.318864	0.401570	0.048161
	N236	N	0.959447	0.662633	0.426149
	N237	N	0.033293	0.664654	0.598265
	N238	N	0.959106	0.306347	0.597887
	N239	N	0.033358	0.306584	0.425358
	N240	N	0.959256	0.398554	0.691221
	N241	N	0.033630	0.571336	0.690900
	N242	N	0.959251	0.570171	0.333661
	N243	N	0.032769	0.398297	0.332131
	N244	N	0.412479	0.663048	0.973025
	N245	N	0.583714	0.667117	0.047230
	N246	N	0.582075	0.307804	0.972824
	N247	N	0.409157	0.306302	0.046975
	N248	N	0.673413	0.948301	0.423984
	N249	N	0.675039	0.022034	0.595608
	N250	N	0.318072	0.948689	0.595105
	N251	N	0.317649	0.022961	0.423837
	N252	N	0.910955	0.447846	0.189673
	N253	N	0.082543	0.522872	0.190457
	N254	N	0.083722	0.449470	0.832180
	N255	N	0.909976	0.522483	0.833761
	N256	N	0.174428	0.899434	0.472596
	N257	N	0.174597	0.070933	0.547310
	N258	N	0.818713	0.069186	0.472231
	N259	N	0.815354	0.897318	0.546048
	N260	N	0.459226	0.164617	0.923422
	N261	N	0.533434	0.165273	0.096224
	N262	N	0.458165	0.808153	0.094688
	N263	N	0.533521	0.807751	0.923395
	N264	N	0.458286	0.900666	0.188265
	N265	N	0.533457	0.072213	0.188556
	N266	N	0.458873	0.071387	0.831715
	N267	N	0.532758	0.898954	0.829835
	N268	N	0.909870	0.163451	0.473859
	N269	N	0.083856	0.165222	0.546886
	N270	N	0.082432	0.806239	0.473796
	N271	N	0.910043	0.806586	0.547829
	N272	N	0.176051	0.450017	0.925545
	N273	N	0.175683	0.523625	0.097843
	N274	N	0.814694	0.450052	0.101482
	N275	N	0.820484	0.524076	0.929663
	O276	O	1.168955	0.021431	0.960410
	H277	H	1.175619	0.036657	0.975171
	H278	H	1.166241	0.009402	0.966578
	O279	O	0.538069	0.383134	0.418503
	H280	H	0.527034	0.387792	0.429776
	H281	H	0.547108	0.380519	0.415661
	O282	O	0.481145	0.368716	0.508853
	H283	H	0.480853	0.366171	0.504163
	H284	H	0.491480	0.370684	0.511308
	O285	O	0.594107	0.479450	0.414423
	H286	H	0.600276	0.471725	0.411204
	H287	H	0.596066	0.469297	0.424790
	O288	O	0.528739	0.483714	0.360843
	H289	H	0.533748	0.478927	0.383830
	H290	H	0.533646	0.470189	0.347586
	O291	O	-0.086486	0.022990	1.041107
	H292	H	-0.087906	0.025624	1.057403
	H293	H	-0.089122	0.033537	1.037406
	O294	O	1.051192	1.066494	0.157549
	H295	H	1.045285	1.066809	0.163587
	H296	H	1.044265	1.074187	0.162205
	O297	O	0.892275	1.002417	0.014941
	H298	H	0.884162	1.016709	0.002250
	H299	H	0.887727	0.991016	0.007933
	O300	O	0.553430	0.491576	0.529205
	H301	H	0.547544	0.493117	0.519330
	H302	H	0.546739	0.498554	0.540082
	O303	O	0.538159	0.442055	0.575184
	H304	H	0.547934	0.442120	0.569942
	H305	H	0.535868	0.439946	0.581502
	O306	O	0.502575	0.567127	0.444560
	H307	H	0.502181	0.571649	0.434147
	H308	H	0.514444	0.556296	0.444986
	O309	O	0.573785	0.451556	0.482333
	H310	H	0.576237	0.455378	0.479442
	H311	H	0.567707	0.441723	0.490890
	O312	O	0.893870	1.109504	0.853154
	H313	H	0.892961	1.090267	0.848407
	H314	H	0.910769	1.109243	0.844819
	O315	O	0.922761	0.939358	-0.038986
	H316	H	0.939774	0.945170	-0.035877
	H317	H	0.917552	0.920304	-0.031706
	O318	O	0.359336	0.506804	0.444847
	H319	H	0.360268	0.507123	0.454208
	H320	H	0.356573	0.517144	0.436986
	O321	O	1.101086	1.001839	0.011021
	H322	H	1.097183	1.004641	0.018836
	H323	H	1.101967	1.008720	0.022631
	O324	O	-0.405456	1.471765	0.547037
	H325	H	-0.404970	1.468656	0.537705
	H326	H	-0.408146	1.478881	0.553365
	O327	O	-0.419162	1.506444	1.512301
	H328	H	-0.434850	1.501819	1.508214
	H329	H	-0.422589	1.503064	1.507993
	O330	O	0.133625	0.038287	0.046699
	H331	H	0.124289	0.037037	0.037245
	H332	H	0.139339	0.044031	0.047490
	O333	O	0.869144	0.799567	0.122719
	H334	H	0.860207	0.796189	0.118848
	H335	H	0.856469	0.786124	0.132753
	O336	O	0.043221	0.015265	-0.141811
	H337	H	0.051628	0.007349	-0.142831
	H338	H	0.055161	0.025764	-0.145936
	O339	O	0.052819	0.027644	0.126374
	H340	H	0.065714	0.020577	0.118724
	H341	H	0.038442	0.013085	0.141297
	O342	O	0.449602	0.466132	0.583702
	H343	H	0.438737	0.463844	0.587051
	H344	H	0.440196	0.472841	0.578396
	O345	O	-0.048759	0.869894	0.973311
	H346	H	-0.041516	0.856160	0.958747
	H347	H	-0.039798	0.871686	0.988012
	O348	O	0.562334	0.487802	0.575642
	H349	H	0.554030	0.489735	0.584973
	H350	H	0.550331	0.491565	0.572953
	O351	O	0.384052	0.402027	0.559359
	H352	H	0.394395	0.400765	0.560966
	H353	H	0.378721	0.409623	0.567310
	O354	O	-0.008188	0.991382	0.097955
	H355	H	-0.022060	0.991583	0.104653
	H356	H	-0.010572	0.987120	0.110094
	O357	O	0.606980	0.618053	0.591288
	H358	H	0.604141	0.624025	0.591488
	H359	H	0.619882	0.621859	0.592635
	O360	O	0.460547	0.571289	0.465264
	H361	H	0.472228	0.572656	0.454388
	H362	H	0.473074	0.564148	0.471977
	O363	O	0.372984	0.550100	0.585768
	H364	H	0.375082	0.555955	0.583577
	H365	H	0.368937	0.541349	0.580752
	O366	O	0.912399	1.027759	-0.027135
	H367	H	0.917041	1.038268	-0.041856
	H368	H	0.914413	1.021081	-0.031554
	O369	O	1.050808	-0.035588	-0.103299
	H370	H	1.053768	-0.029281	-0.090102
	H371	H	1.049166	-0.025027	-0.098540
	O372	O	0.359398	0.388681	0.595770
	H373	H	0.360519	0.389252	0.591785
	H374	H	0.351521	0.381228	0.609730
	O375	O	0.922739	0.100606	0.984558
	H376	H	0.917433	0.094090	0.973762
	H377	H	0.919712	0.113811	0.971828
	O378	O	-0.013959	0.952158	0.063684
	H379	H	-0.020461	0.948600	0.064459
	H380	H	-0.013226	0.941551	0.067467
	O381	O	0.440295	0.422259	0.432713
	H382	H	0.428124	0.418778	0.432394
	H383	H	0.440531	0.424869	0.431791
	O384	O	1.006806	1.058697	-0.003664
	H385	H	0.999546	1.053108	-0.018882
	H386	H	1.008780	1.063761	0.003680
	O387	O	0.877383	-0.056502	1.070584
	H388	H	0.865211	-0.054171	1.057385
	H389	H	0.873936	-0.059696	1.072544
	O390	O	1.057176	0.994596	0.034946
	H391	H	1.055476	0.999368	0.023242
	H392	H	1.077569	0.989199	0.042559
	O393	O	0.448400	0.557715	0.543833
	H394	H	0.456366	0.550754	0.543609
	H395	H	0.438317	0.553707	0.533199
