data_Molecule from HDF5

_cell_length_a		16.100506
_cell_length_b		16.292415
_cell_length_c		16.289273
_cell_angle_alpha	89.867908
_cell_angle_beta	89.810754
_cell_angle_gamma	90.090465
_symmetry_space_group_name_H-M	'P 1'
_symmetry_Int_Tables_number		1

loop_
	_symmetry_equiv_pos_as_xyz
	x,y,z

loop_
	_atom_site_label
	_atom_site_type_symbol
	_atom_site_fract_x
	_atom_site_fract_y
	_atom_site_fract_z
	H0	H	0.392733	0.834194	0.715605
	H1	H	0.594852	0.160049	0.714584
	H2	H	0.592606	0.832173	0.284122
	H3	H	0.392892	0.159685	0.281508
	H4	H	0.704776	0.401186	0.835122
	H5	H	0.703633	0.594052	0.163489
	H6	H	0.279965	0.593266	0.834099
	H7	H	0.275954	0.397323	0.163102
	H8	H	0.827041	0.711173	0.401721
	H9	H	0.157293	0.709963	0.597516
	H10	H	0.826805	0.282851	0.599133
	H11	H	0.156921	0.284672	0.400004
	H12	H	0.826231	0.399191	0.712201
	H13	H	0.157290	0.595355	0.711129
	H14	H	0.825599	0.595970	0.287378
	H15	H	0.156164	0.399626	0.284406
	H16	H	0.391278	0.713148	0.836360
	H17	H	0.588675	0.710243	0.162870
	H18	H	0.592526	0.281461	0.836812
	H19	H	0.390104	0.279246	0.162298
	H20	H	0.706010	0.831666	0.403267
	H21	H	0.706063	0.161347	0.593938
	H22	H	0.280201	0.832830	0.596007
	H23	H	0.281540	0.161805	0.401205
	H24	H	0.889327	0.334926	0.216847
	H25	H	0.091489	0.660860	0.214390
	H26	H	0.091570	0.333921	0.782558
	H27	H	0.891872	0.660766	0.783008
	H28	H	0.207490	0.901899	0.334972
	H29	H	0.207045	0.094683	0.663467
	H30	H	0.781886	0.093500	0.334474
	H31	H	0.778552	0.899413	0.662521
	H32	H	0.327898	0.210577	0.899884
	H33	H	0.657204	0.210733	0.097744
	H34	H	0.326592	0.782260	0.098529
	H35	H	0.657808	0.783570	0.901413
	H36	H	0.327537	0.895849	0.214647
	H37	H	0.658505	0.094232	0.210241
	H38	H	0.328360	0.097215	0.784524
	H39	H	0.657992	0.898178	0.785492
	H40	H	0.893971	0.212484	0.336431
	H41	H	0.092976	0.213319	0.662434
	H42	H	0.094344	0.782153	0.335318
	H43	H	0.892126	0.781979	0.662309
	H44	H	0.204595	0.332312	0.901705
	H45	H	0.205237	0.661508	0.094743
	H46	H	0.777767	0.332577	0.096847
	H47	H	0.779837	0.662154	0.903837
	H48	H	0.401654	0.114740	0.597489
	H49	H	0.586709	0.879680	0.594231
	H50	H	0.583944	0.112359	0.404291
	H51	H	0.411774	0.881713	0.397063
	H52	H	0.580196	0.402221	0.115816
	H53	H	0.580050	0.583226	0.885908
	H54	H	0.391452	0.588894	0.117874
	H55	H	0.395579	0.406720	0.882830
	H56	H	0.111891	0.593889	0.402372
	H57	H	0.875966	0.578802	0.592789
	H58	H	0.107532	0.413742	0.593411
	H59	H	0.871951	0.402272	0.405212
	H60	H	0.114304	0.398925	0.597297
	H61	H	0.868857	0.596154	0.601790
	H62	H	0.108587	0.590316	0.411722
	H63	H	0.873868	0.403325	0.410773
	H64	H	0.402485	0.584647	0.113095
	H65	H	0.580348	0.599058	0.881540
	H66	H	0.585740	0.399496	0.117501
	H67	H	0.404648	0.404892	0.885074
	H68	H	0.589540	0.113215	0.405671
	H69	H	0.583829	0.881049	0.594388
	H70	H	0.405807	0.112093	0.590806
	H71	H	0.402187	0.885064	0.418906
	H72	H	0.897099	0.617788	0.103493
	H73	H	0.078261	0.382086	0.091939
	H74	H	0.089291	0.614982	0.904322
	H75	H	0.903736	0.381985	0.904625
	H76	H	0.082587	0.897243	0.615766
	H77	H	0.089239	0.103879	0.378327
	H78	H	0.892914	0.101935	0.621803
	H79	H	0.900380	0.904972	0.382127
	H80	H	0.614214	0.095918	0.902083
	H81	H	0.374497	0.080005	0.099915
	H82	H	0.610877	0.896012	0.085573
	H83	H	0.374939	0.908422	0.905121
	H84	H	0.608022	0.910538	0.090151
	H85	H	0.370532	0.097988	0.093835
	H86	H	0.609636	0.091316	0.913541
	H87	H	0.372863	0.901574	0.905824
	H88	H	0.892940	0.079516	0.615087
	H89	H	0.095698	0.082512	0.382646
	H90	H	0.091703	0.902149	0.617350
	H91	H	0.902891	0.903404	0.382660
	H92	H	0.082334	0.614006	0.900543
	H93	H	0.084139	0.381527	0.089486
	H94	H	0.907255	0.610215	0.089742
	H95	H	0.895148	0.380371	0.909477
	H96	H	0.397926	0.114415	0.590694
	H97	H	0.585918	0.880281	0.592191
	H98	H	0.587511	0.113944	0.399177
	H99	H	0.388754	0.875987	0.401979
	H100	H	0.585105	0.406183	0.116458
	H101	H	0.593960	0.590139	0.879035
	H102	H	0.401436	0.596017	0.116492
	H103	H	0.398920	0.397728	0.880832
	H104	H	0.109060	0.584275	0.404034
	H105	H	0.874432	0.596571	0.581756
	H106	H	0.107914	0.402529	0.582143
	H107	H	0.874022	0.407725	0.407445
	H108	H	0.888659	0.615504	0.087507
	H109	H	0.083453	0.380419	0.096213
	H110	H	0.083069	0.611583	0.908234
	H111	H	0.896273	0.378191	0.899711
	H112	H	0.083494	0.907114	0.613436
	H113	H	0.073992	0.088864	0.387067
	H114	H	0.912379	0.091990	0.613173
	H115	H	0.900429	0.902007	0.380946
	H116	H	0.610298	0.082632	0.903181
	H117	H	0.378249	0.084792	0.081656
	H118	H	0.614113	0.900348	0.100417
	H119	H	0.375898	0.904834	0.912067
	C120	C	0.371855	0.005872	0.621459
	C121	C	0.614865	0.988354	0.621155
	C122	C	0.615050	0.004494	0.376139
	C123	C	0.372017	0.988904	0.376817
	C124	C	0.613195	0.374848	0.008324
	C125	C	0.612975	0.618573	0.990623
	C126	C	0.369996	0.618468	0.007523
	C127	C	0.369874	0.373823	0.991007
	C128	C	0.000635	0.618508	0.377727
	C129	C	0.982942	0.618434	0.619771
	C130	C	0.000287	0.376355	0.620008
	C131	C	0.982404	0.376100	0.378150
	C132	C	0.869120	0.506046	0.121619
	C133	C	0.111945	0.489321	0.120663
	C134	C	0.113647	0.505215	0.876231
	C135	C	0.869977	0.488699	0.876941
	C136	C	0.115197	0.874955	0.507245
	C137	C	0.114950	0.119777	0.490891
	C138	C	0.871479	0.118865	0.507995
	C139	C	0.871913	0.875249	0.490278
	C140	C	0.501893	0.118405	0.877857
	C141	C	0.484192	0.116622	0.119624
	C142	C	0.501165	0.873880	0.120640
	C143	C	0.483709	0.876079	0.878572
	C144	C	0.372968	0.882564	0.677023
	C145	C	0.614289	0.111430	0.676325
	C146	C	0.612579	0.881044	0.322214
	C147	C	0.373532	0.111560	0.320693
	C148	C	0.668007	0.379106	0.884545
	C149	C	0.666952	0.615180	0.114147
	C150	C	0.316310	0.614751	0.883626
	C151	C	0.313578	0.376277	0.113962
	C152	C	0.876155	0.673745	0.380904
	C153	C	0.107707	0.672813	0.617486
	C154	C	0.876158	0.320807	0.618830
	C155	C	0.107247	0.321727	0.379572
	C156	C	0.875932	0.378609	0.675083
	C157	C	0.107595	0.615932	0.674147
	C158	C	0.875378	0.616122	0.324464
	C159	C	0.106762	0.378960	0.322140
	C160	C	0.371528	0.674446	0.884617
	C161	C	0.609441	0.672657	0.114056
	C162	C	0.612175	0.319762	0.885350
	C163	C	0.370397	0.317597	0.113532
	C164	C	0.669201	0.880870	0.381118
	C165	C	0.669213	0.112168	0.615965
	C166	C	0.317251	0.882008	0.617633
	C167	C	0.318133	0.112498	0.380353
	C168	C	0.870088	0.383179	0.177731
	C169	C	0.111127	0.612286	0.175788
	C170	C	0.111544	0.382528	0.820903
	C171	C	0.871974	0.612138	0.821836
	C172	C	0.170046	0.879784	0.383660
	C173	C	0.169734	0.115974	0.614270
	C174	C	0.818154	0.114820	0.383997
	C175	C	0.816243	0.878256	0.613561
	C176	C	0.377336	0.173279	0.880004
	C177	C	0.608189	0.172352	0.117477
	C178	C	0.376180	0.819869	0.118474
	C179	C	0.608431	0.820735	0.880481
	C180	C	0.376739	0.876151	0.176492
	C181	C	0.608861	0.114511	0.173446
	C182	C	0.377635	0.116702	0.822575
	C183	C	0.608589	0.877999	0.823194
	C184	C	0.873666	0.174346	0.385037
	C185	C	0.112941	0.174823	0.613938
	C186	C	0.114331	0.819823	0.384287
	C187	C	0.873222	0.820355	0.613610
	C188	C	0.167915	0.381834	0.879903
	C189	C	0.167735	0.612456	0.116574
	C190	C	0.814499	0.382131	0.118277
	C191	C	0.816242	0.612718	0.881608
	C192	C	0.394834	0.091398	0.599491
	C193	C	0.592125	0.902506	0.599898
	C194	C	0.593392	0.090851	0.396792
	C195	C	0.394389	0.903114	0.399362
	C196	C	0.590430	0.396325	0.094204
	C197	C	0.591293	0.597169	0.904440
	C198	C	0.391901	0.596595	0.093534
	C199	C	0.393025	0.396439	0.905023
	C200	C	0.087382	0.596117	0.399463
	C201	C	0.895606	0.596844	0.598423
	C202	C	0.087416	0.398513	0.597473
	C203	C	0.895608	0.398096	0.401135
	C204	C	0.891200	0.592171	0.100007
	C205	C	0.088711	0.403552	0.098947
	C206	C	0.091364	0.591367	0.898041
	C207	C	0.891997	0.402480	0.898269
	C208	C	0.092609	0.896107	0.593281
	C209	C	0.092889	0.098234	0.405108
	C210	C	0.892973	0.097554	0.594377
	C211	C	0.894619	0.896928	0.404234
	C212	C	0.588822	0.096441	0.899760
	C213	C	0.397059	0.094169	0.098018
	C214	C	0.588393	0.895744	0.098544
	C215	C	0.397139	0.898380	0.900907
	Zn216	Zn	0.493191	-0.002604	0.750314
	Zn217	Zn	0.493073	-0.003653	0.247412
	Zn218	Zn	0.741582	0.496826	-0.000566
	Zn219	Zn	0.241795	0.496652	-0.001094
	Zn220	Zn	-0.007192	0.745980	0.499073
	Zn221	Zn	-0.007533	0.248285	0.499701
	Zn222	Zn	-0.008346	0.497732	0.747739
	Zn223	Zn	-0.009492	0.497715	0.250296
	Zn224	Zn	0.491610	0.747173	-0.001309
	Zn225	Zn	0.491979	0.245291	-0.000329
	Zn226	Zn	0.743463	-0.003099	0.498598
	Zn227	Zn	0.243876	-0.002366	0.498993
	N228	N	0.406237	0.960432	0.679583
	N229	N	0.580908	0.033489	0.679519
	N230	N	0.579596	0.958917	0.318825
	N231	N	0.406522	0.033791	0.318534
	N232	N	0.668607	0.412767	0.961888
	N233	N	0.669003	0.582086	0.036604
	N234	N	0.315435	0.580320	0.960968
	N235	N	0.313315	0.410495	0.036620
	N236	N	0.954980	0.675419	0.413277
	N237	N	0.029198	0.674488	0.584297
	N238	N	0.954837	0.319280	0.585281
	N239	N	0.028976	0.320017	0.413743
	N240	N	0.954130	0.412516	0.675715
	N241	N	0.028942	0.582907	0.675920
	N242	N	0.953767	0.582691	0.322155
	N243	N	0.028081	0.411951	0.321105
	N244	N	0.403907	0.677025	0.962701
	N245	N	0.576614	0.675010	0.036092
	N246	N	0.578704	0.316946	0.963269
	N247	N	0.404534	0.315950	0.035903
	N248	N	0.670793	0.958602	0.413910
	N249	N	0.669874	0.034639	0.582620
	N250	N	0.316362	0.959498	0.583747
	N251	N	0.317060	0.035109	0.414627
	N252	N	0.903177	0.461136	0.180045
	N253	N	0.077063	0.534666	0.178323
	N254	N	0.078493	0.460401	0.818587
	N255	N	0.904629	0.534114	0.818837
	N256	N	0.170849	0.912985	0.461047
	N257	N	0.171062	0.082411	0.536830
	N258	N	0.816534	0.081096	0.461687
	N259	N	0.815462	0.911733	0.535986
	N260	N	0.455616	0.174482	0.913445
	N261	N	0.529420	0.173617	0.084691
	N262	N	0.454393	0.818382	0.084555
	N263	N	0.529880	0.819260	0.913928
	N264	N	0.455579	0.909239	0.177779
	N265	N	0.530625	0.080429	0.174813
	N266	N	0.456142	0.083300	0.821027
	N267	N	0.530279	0.911864	0.821986
	N268	N	0.906134	0.176750	0.463029
	N269	N	0.079853	0.177520	0.536256
	N270	N	0.080825	0.816705	0.462178
	N271	N	0.907026	0.818197	0.535850
	N272	N	0.169283	0.459172	0.913653
	N273	N	0.168264	0.534965	0.082909
	N274	N	0.813886	0.459379	0.084094
	N275	N	0.814886	0.535028	0.915286
	O276	O	0.528945	0.499985	0.515558
	H277	H	0.524555	0.491148	0.522839
	H278	H	0.523756	0.504583	0.521543
	O279	O	0.517361	0.481723	0.445067
	H280	H	0.522150	0.473869	0.449933
	H281	H	0.524455	0.483278	0.449665
	O282	O	0.445426	0.517925	0.517202
	H283	H	0.438463	0.518818	0.522054
	H284	H	0.446670	0.523612	0.511589
	O285	O	0.033706	0.978749	0.923581
	H286	H	0.028967	0.975924	0.932658
	H287	H	0.040517	0.971626	0.916406
	O288	O	0.491331	0.483875	0.546345
	H289	H	0.494058	0.496545	0.541344
	H290	H	0.492405	0.482138	0.552170
	O291	O	0.008832	0.017414	0.994981
	H292	H	0.009832	0.018382	0.995948
	H293	H	-0.000263	0.021648	0.999225
	O294	O	1.048987	1.017934	0.937640
	H295	H	1.053877	1.020397	0.936874
	H296	H	1.045233	1.018290	0.938731
	O297	O	0.459986	0.379761	0.446896
	H298	H	0.471216	0.380251	0.454999
	H299	H	0.456167	0.371761	0.442492
	O300	O	0.361999	0.429949	0.562393
	H301	H	0.354340	0.425771	0.567606
	H302	H	0.363339	0.435790	0.566336
	O303	O	0.419968	0.452157	0.474767
	H304	H	0.424193	0.456729	0.482340
	H305	H	0.423878	0.453305	0.467036
	O306	O	1.475016	0.487873	0.528109
	H307	H	1.471733	0.487939	0.530696
	H308	H	1.474426	0.475121	0.532665
	O309	O	0.521062	0.490467	0.557678
	H310	H	0.516532	0.484568	0.548751
	H311	H	0.516486	0.489847	0.559733
	O312	O	0.452143	0.518773	0.537899
	H313	H	0.451864	0.516462	0.531929
	H314	H	0.460683	0.521157	0.533249
	O315	O	1.057672	-0.002650	1.025264
	H316	H	1.070533	-0.003134	1.026222
	H317	H	1.061877	-0.013993	1.020156
	O318	O	0.002636	0.013742	-0.003440
	H319	H	-0.004016	0.007661	-0.011293
	H320	H	0.006911	0.018363	-0.000962
	O321	O	0.487371	0.542788	0.500132
	H322	H	0.484380	0.540038	0.498936
	H323	H	0.489459	0.548622	0.493611
	O324	O	0.985745	0.018878	-0.032143
	H325	H	0.985835	0.024659	-0.037236
	H326	H	0.978730	0.017672	-0.025842
	O327	O	0.974945	1.056862	0.027972
	H328	H	0.985725	1.058968	0.035805
	H329	H	0.974763	1.062150	0.024451
	O330	O	0.480322	0.454290	0.455199
	H331	H	0.480801	0.449385	0.455090
	H332	H	0.480264	0.458308	0.454409
	O333	O	0.473999	0.497186	0.433616
	H334	H	0.466509	0.497429	0.429631
	H335	H	0.469944	0.506940	0.430821
