data_Molecule from HDF5

_cell_length_a		16.598371
_cell_length_b		16.608179
_cell_length_c		16.527718
_cell_angle_alpha	89.915521
_cell_angle_beta	89.976883
_cell_angle_gamma	89.950397
_symmetry_space_group_name_H-M	'P 1'
_symmetry_Int_Tables_number		1

loop_
	_symmetry_equiv_pos_as_xyz
	x,y,z

loop_
	_atom_site_label
	_atom_site_type_symbol
	_atom_site_fract_x
	_atom_site_fract_y
	_atom_site_fract_z
	H0	H	0.405285	0.846850	0.733687
	H1	H	0.614926	0.158723	0.732969
	H2	H	0.613828	0.844994	0.293620
	H3	H	0.415086	0.162257	0.297185
	H4	H	0.730531	0.399839	0.852920
	H5	H	0.732738	0.607816	0.166993
	H6	H	0.290092	0.605993	0.854440
	H7	H	0.292027	0.397848	0.169112
	H8	H	0.857208	0.725004	0.405494
	H9	H	0.169392	0.722436	0.614817
	H10	H	0.856343	0.279383	0.619399
	H11	H	0.168267	0.282699	0.409263
	H12	H	0.856052	0.397995	0.733807
	H13	H	0.169339	0.606151	0.731984
	H14	H	0.856127	0.606522	0.290728
	H15	H	0.168612	0.399478	0.292594
	H16	H	0.405473	0.722680	0.854373
	H17	H	0.614372	0.722121	0.167374
	H18	H	0.615964	0.281774	0.854103
	H19	H	0.408384	0.281556	0.168629
	H20	H	0.731899	0.846891	0.408671
	H21	H	0.733038	0.158484	0.617872
	H22	H	0.290195	0.845972	0.616469
	H23	H	0.297815	0.162726	0.413623
	H24	H	0.907922	0.344968	0.231891
	H25	H	0.119962	0.655677	0.236381
	H26	H	0.115166	0.345081	0.791543
	H27	H	0.907001	0.658786	0.789108
	H28	H	0.228731	0.902708	0.353111
	H29	H	0.231717	0.106765	0.669375
	H30	H	0.788727	0.109954	0.355990
	H31	H	0.786920	0.893884	0.666609
	H32	H	0.355084	0.223324	0.907857
	H33	H	0.667477	0.224364	0.117986
	H34	H	0.353469	0.784232	0.113591
	H35	H	0.665443	0.777044	0.902069
	H36	H	0.353477	0.901806	0.228803
	H37	H	0.667667	0.107402	0.233349
	H38	H	0.354038	0.106228	0.792100
	H39	H	0.666144	0.894704	0.786905
	H40	H	0.905726	0.224702	0.356068
	H41	H	0.115255	0.222511	0.669727
	H42	H	0.116369	0.782993	0.355345
	H43	H	0.903724	0.778094	0.667035
	H44	H	0.232096	0.344520	0.908355
	H45	H	0.235468	0.656387	0.119753
	H46	H	0.790830	0.345899	0.116432
	H47	H	0.789024	0.657860	0.903698
	H48	H	0.423913	0.113999	0.602149
	H49	H	0.600867	0.890080	0.602021
	H50	H	0.602764	0.116280	0.421178
	H51	H	0.415691	0.888713	0.421204
	H52	H	0.601326	0.404647	0.125798
	H53	H	0.600948	0.587847	0.898796
	H54	H	0.425468	0.588878	0.121105
	H55	H	0.417806	0.410991	0.897720
	H56	H	0.123155	0.591770	0.424933
	H57	H	0.900601	0.592757	0.601457
	H58	H	0.122152	0.411998	0.596042
	H59	H	0.900894	0.415478	0.425312
	H60	H	0.122782	0.416422	0.603181
	H61	H	0.901094	0.591971	0.598046
	H62	H	0.123385	0.590452	0.422800
	H63	H	0.897656	0.412654	0.417671
	H64	H	0.423399	0.597482	0.125317
	H65	H	0.597678	0.589919	0.899804
	H66	H	0.608406	0.416573	0.123712
	H67	H	0.422456	0.417982	0.900488
	H68	H	0.599124	0.114894	0.420512
	H69	H	0.591560	0.894421	0.599257
	H70	H	0.418380	0.114666	0.597596
	H71	H	0.417847	0.888797	0.417323
	H72	H	0.923274	0.613235	0.100621
	H73	H	0.100601	0.391977	0.097278
	H74	H	0.102865	0.614078	0.922011
	H75	H	0.923567	0.390117	0.918812
	H76	H	0.101483	0.911796	0.625255
	H77	H	0.105812	0.095570	0.397881
	H78	H	0.922034	0.088292	0.623262
	H79	H	0.916971	0.915841	0.398742
	H80	H	0.618700	0.082484	0.924133
	H81	H	0.396839	0.099678	0.103025
	H82	H	0.624109	0.912390	0.101509
	H83	H	0.399464	0.911363	0.924004
	H84	H	0.624611	0.909689	0.101863
	H85	H	0.402282	0.091108	0.095270
	H86	H	0.625633	0.093720	0.915866
	H87	H	0.401206	0.914630	0.923809
	H88	H	0.925128	0.091137	0.623082
	H89	H	0.101873	0.092421	0.400003
	H90	H	0.102360	0.915340	0.624349
	H91	H	0.926545	0.921480	0.404203
	H92	H	0.100661	0.613666	0.921304
	H93	H	0.105154	0.388460	0.101974
	H94	H	0.922346	0.613311	0.099124
	H95	H	0.925349	0.393354	0.925705
	H96	H	0.418339	0.116654	0.604428
	H97	H	0.599883	0.894500	0.592246
	H98	H	0.600597	0.114542	0.423828
	H99	H	0.420231	0.889896	0.420831
	H100	H	0.594645	0.415626	0.120321
	H101	H	0.600464	0.591621	0.897391
	H102	H	0.416021	0.590596	0.125336
	H103	H	0.426408	0.409997	0.899639
	H104	H	0.123982	0.592936	0.422722
	H105	H	0.901803	0.589832	0.600411
	H106	H	0.125672	0.408380	0.602989
	H107	H	0.898079	0.407633	0.424424
	H108	H	0.921728	0.613803	0.100645
	H109	H	0.098358	0.390202	0.104312
	H110	H	0.100816	0.613212	0.923682
	H111	H	0.918446	0.390167	0.924703
	H112	H	0.098562	0.913841	0.623645
	H113	H	0.100407	0.097139	0.398378
	H114	H	0.921464	0.092131	0.624994
	H115	H	0.927826	0.910226	0.400656
	H116	H	0.621774	0.096114	0.930792
	H117	H	0.399036	0.088515	0.107413
	H118	H	0.623249	0.910192	0.099509
	H119	H	0.398886	0.913463	0.921621
	C120	C	0.388483	0.011579	0.633638
	C121	C	0.631110	0.994896	0.631857
	C122	C	0.632696	0.011507	0.390296
	C123	C	0.389913	0.994320	0.390442
	C124	C	0.633273	0.380440	0.019482
	C125	C	0.631854	0.622491	1.002260
	C126	C	0.389218	0.623623	0.020275
	C127	C	0.391109	0.381513	1.003567
	C128	C	0.020490	0.623881	0.390497
	C129	C	1.004269	0.624028	0.632671
	C130	C	0.020372	0.380634	0.633489
	C131	C	1.002773	0.380754	0.391012
	C132	C	0.890392	0.510135	0.132654
	C133	C	0.133733	0.493063	0.133626
	C134	C	0.132800	0.509749	0.891050
	C135	C	0.890239	0.493960	0.889838
	C136	C	0.132425	0.882595	0.520313
	C137	C	0.132861	0.125006	0.503513
	C138	C	0.890122	0.123801	0.520471
	C139	C	0.890443	0.881983	0.503821
	C140	C	0.518947	0.123054	0.891242
	C141	C	0.503101	0.124320	0.133538
	C142	C	0.519942	0.880555	0.132153
	C143	C	0.502356	0.880079	0.889282
	C144	C	0.386690	0.893935	0.693692
	C145	C	0.633449	0.111933	0.692816
	C146	C	0.633468	0.892904	0.332234
	C147	C	0.393890	0.114556	0.335304
	C148	C	0.691651	0.380320	0.900633
	C149	C	0.692166	0.625291	0.120186
	C150	C	0.329879	0.624903	0.901685
	C151	C	0.331924	0.379527	0.121909
	C152	C	0.903648	0.684604	0.387320
	C153	C	0.122184	0.683186	0.634194
	C154	C	0.903032	0.320408	0.636864
	C155	C	0.121249	0.322195	0.390329
	C156	C	0.902584	0.379243	0.693737
	C157	C	0.122057	0.625284	0.692331
	C158	C	0.903025	0.625480	0.330679
	C159	C	0.121295	0.379955	0.332092
	C160	C	0.387127	0.683119	0.901788
	C161	C	0.633508	0.682210	0.120364
	C162	C	0.634552	0.321772	0.901130
	C163	C	0.389758	0.321805	0.121799
	C164	C	0.691989	0.893545	0.389501
	C165	C	0.692193	0.111757	0.635679
	C166	C	0.329308	0.893582	0.635418
	C167	C	0.335730	0.114889	0.393075
	C168	C	0.888924	0.392424	0.192484
	C169	C	0.137219	0.609462	0.195227
	C170	C	0.134069	0.391891	0.831625
	C171	C	0.888605	0.611707	0.829639
	C172	C	0.190288	0.882568	0.401129
	C173	C	0.192028	0.125917	0.622059
	C174	C	0.829218	0.127437	0.403121
	C175	C	0.828169	0.877012	0.620351
	C176	C	0.401663	0.183346	0.889138
	C177	C	0.620596	0.184264	0.135976
	C178	C	0.400853	0.823428	0.132490
	C179	C	0.619049	0.818209	0.884718
	C180	C	0.400958	0.881617	0.190029
	C181	C	0.620818	0.125695	0.193254
	C182	C	0.401266	0.124943	0.831760
	C183	C	0.619287	0.876700	0.827532
	C184	C	0.887476	0.184548	0.403009
	C185	C	0.133873	0.183189	0.622495
	C186	C	0.134288	0.823309	0.402083
	C187	C	0.886369	0.819450	0.620325
	C188	C	0.191893	0.391527	0.889770
	C189	C	0.194696	0.609687	0.137273
	C190	C	0.830797	0.392855	0.134743
	C191	C	0.829692	0.611334	0.886518
	C192	C	0.413219	0.093763	0.608679
	C193	C	0.605104	0.913934	0.605345
	C194	C	0.608138	0.093884	0.414810
	C195	C	0.411528	0.910942	0.413199
	C196	C	0.608490	0.405219	0.101985
	C197	C	0.606656	0.597050	0.920217
	C198	C	0.414230	0.599144	0.102619
	C199	C	0.415392	0.406034	0.920675
	C200	C	0.102316	0.598570	0.415988
	C201	C	0.922359	0.598823	0.607211
	C202	C	0.102216	0.405318	0.608124
	C203	C	0.920344	0.405081	0.415257
	C204	C	0.915525	0.592097	0.107404
	C205	C	0.108467	0.411319	0.108480
	C206	C	0.108577	0.592020	0.915533
	C207	C	0.915317	0.412331	0.915766
	C208	C	0.108031	0.906944	0.602891
	C209	C	0.109366	0.101636	0.420395
	C210	C	0.915654	0.097759	0.602430
	C211	C	0.916318	0.908419	0.422588
	C212	C	0.600835	0.097915	0.916373
	C213	C	0.420764	0.100007	0.108838
	C214	C	0.602437	0.903976	0.107853
	C215	C	0.421122	0.905776	0.915616
	Zn216	Zn	0.510637	0.002206	0.761937
	Zn217	Zn	0.511512	0.002167	0.261399
	Zn218	Zn	0.761181	0.502342	0.010932
	Zn219	Zn	0.261845	0.501515	0.011740
	Zn220	Zn	0.012106	0.753159	0.511668
	Zn221	Zn	0.011245	0.252309	0.512355
	Zn222	Zn	0.012302	0.502535	0.761420
	Zn223	Zn	0.011889	0.502135	0.261835
	Zn224	Zn	0.510937	0.751606	0.011011
	Zn225	Zn	0.511642	0.252566	0.011542
	Zn226	Zn	0.761447	0.003265	0.512051
	Zn227	Zn	0.260715	0.003373	0.511289
	N228	N	0.422661	0.968452	0.692945
	N229	N	0.596253	0.038133	0.690666
	N230	N	0.597445	0.967341	0.332497
	N231	N	0.426386	0.038498	0.333196
	N232	N	0.691279	0.415869	0.975639
	N233	N	0.691367	0.589014	0.045749
	N234	N	0.330839	0.588735	0.976437
	N235	N	0.332738	0.415862	0.047258
	N236	N	0.977866	0.683803	0.423697
	N237	N	0.047735	0.682622	0.597977
	N238	N	0.977223	0.321252	0.600080
	N239	N	0.046386	0.322374	0.426009
	N240	N	0.976600	0.415940	0.691963
	N241	N	0.047605	0.589201	0.691361
	N242	N	0.976872	0.588671	0.332254
	N243	N	0.046772	0.415770	0.332553
	N244	N	0.423283	0.682518	0.976460
	N245	N	0.596764	0.680738	0.045884
	N246	N	0.599141	0.321711	0.976129
	N247	N	0.425730	0.322837	0.046994
	N248	N	0.691788	0.968546	0.424600
	N249	N	0.690937	0.037956	0.598557
	N250	N	0.330050	0.968026	0.598924
	N251	N	0.332545	0.039027	0.426096
	N252	N	0.925286	0.466695	0.191384
	N253	N	0.099837	0.535895	0.193053
	N254	N	0.098370	0.466527	0.832076
	N255	N	0.925478	0.537641	0.831420
	N256	N	0.189586	0.918626	0.475819
	N257	N	0.191542	0.090289	0.547117
	N258	N	0.830716	0.090414	0.477367
	N259	N	0.830672	0.915339	0.547018
	N260	N	0.476038	0.182324	0.925346
	N261	N	0.546207	0.183424	0.099346
	N262	N	0.475896	0.822383	0.097448
	N263	N	0.545299	0.820012	0.922331
	N264	N	0.476092	0.916266	0.190247
	N265	N	0.546689	0.089214	0.191905
	N266	N	0.475180	0.088118	0.833029
	N267	N	0.545727	0.914561	0.830317
	N268	N	0.924462	0.182598	0.477220
	N269	N	0.097939	0.182749	0.547751
	N270	N	0.098976	0.823281	0.477227
	N271	N	0.924550	0.822388	0.546798
	N272	N	0.191410	0.465951	0.925752
	N273	N	0.192714	0.536178	0.099589
	N274	N	0.831347	0.467126	0.098382
	N275	N	0.830486	0.537099	0.923313
	O276	O	-0.181430	0.803995	-0.186862
	H277	H	-0.178085	0.806774	-0.184312
	H278	H	-0.199221	0.810174	-0.174095
	O279	O	0.462866	0.725720	0.393429
	H280	H	0.467091	0.739725	0.376172
	H281	H	0.442779	0.723447	0.396305
	O282	O	1.728545	0.288439	0.485934
	H283	H	1.730487	0.286022	0.467767
	H284	H	1.745341	0.275589	0.488733
	O285	O	0.733775	0.472534	0.494824
	H286	H	0.726151	0.481087	0.515954
	H287	H	0.739799	0.471309	0.471598
	O288	O	-0.199416	1.021474	0.011865
	H289	H	-0.197754	1.032677	0.002507
	H290	H	-0.207946	1.037739	-0.001891
	O291	O	0.425657	0.709437	0.582631
	H292	H	0.446946	0.704068	0.572884
	H293	H	0.437105	0.700451	0.563968
	O294	O	1.214693	-0.198476	0.809421
	H295	H	1.231046	-0.203382	0.806486
	H296	H	1.202962	-0.175639	0.815888
	O297	O	0.709044	0.302898	0.311143
	H298	H	0.685826	0.317683	0.302889
	H299	H	0.730469	0.283013	0.310811
	O300	O	-0.186607	0.199370	0.811413
	H301	H	-0.205375	0.220504	0.795785
	H302	H	-0.171104	0.197361	0.816747
	O303	O	0.821532	0.168434	0.178063
	H304	H	0.829904	0.152343	0.155605
	H305	H	0.837546	0.159944	0.177984
	O306	O	0.339613	0.450208	0.505436
	H307	H	0.350897	0.468844	0.500265
	H308	H	0.346089	0.464487	0.522859
	O309	O	0.723646	0.536900	0.723572
	H310	H	0.734615	0.542787	0.727015
	H311	H	0.724682	0.532825	0.728934
	O312	O	0.646466	0.618873	0.332409
	H313	H	0.656839	0.620640	0.319747
	H314	H	0.639898	0.641009	0.315142
	O315	O	1.200760	0.806141	1.202511
	H316	H	1.170723	0.805328	1.184307
	H317	H	1.199337	0.829914	1.195393
	O318	O	0.538229	0.322389	0.549932
	H319	H	0.537530	0.313887	0.564768
	H320	H	0.528407	0.328201	0.541752
	O321	O	-0.051895	1.066119	0.940930
	H322	H	-0.053935	1.067356	0.932833
	H323	H	-0.045769	1.072109	0.960817
	O324	O	0.954393	1.225137	0.081277
	H325	H	0.967632	1.211953	0.107640
	H326	H	0.952178	1.236609	0.089879
	O327	O	0.198879	0.184500	1.025958
	H328	H	0.201803	0.191618	1.017435
	H329	H	0.197995	0.168870	1.006689
	O330	O	1.045379	0.218352	0.227740
	H331	H	1.077304	0.203693	0.225483
	H332	H	1.063023	0.243872	0.256890
	O333	O	0.499786	0.540663	0.467040
	H334	H	0.501783	0.533865	0.461116
	H335	H	0.499627	0.556199	0.467413
	O336	O	0.537249	0.687974	0.709119
	H337	H	0.549209	0.682932	0.709209
	H338	H	0.549639	0.701633	0.729805
	O339	O	1.218642	-0.024165	1.052682
	H340	H	1.224744	-0.021157	1.049145
	H341	H	1.225893	-0.020314	1.067107
	O342	O	-0.483562	-0.650962	0.383116
	H343	H	-0.479881	-0.636178	0.386032
	H344	H	-0.479632	-0.662486	0.390782
	O345	O	0.494477	1.463884	0.535290
	H346	H	0.495737	1.473887	0.539490
	H347	H	0.499385	1.462595	0.525630
	O348	O	-0.476627	0.539688	0.704551
	H349	H	-0.484661	0.531437	0.700717
	H350	H	-0.467604	0.548331	0.702995
	O351	O	0.300144	0.714628	0.481193
	H352	H	0.299211	0.715283	0.494131
	H353	H	0.311064	0.729197	0.494909
	O354	O	-0.002423	-0.122916	1.019168
	H355	H	0.011241	-0.132920	1.007193
	H356	H	-0.001195	-0.123189	1.030774
	O357	O	0.375337	0.570383	0.677160
	H358	H	0.374337	0.555814	0.679304
	H359	H	0.376021	0.573957	0.676633
	O360	O	-0.201877	-0.211022	1.037179
	H361	H	-0.205484	-0.224078	1.028501
	H362	H	-0.197969	-0.212524	1.036512
	O363	O	0.136653	-0.151799	0.081698
	H364	H	0.129590	-0.141701	0.093932
	H365	H	0.134531	-0.146763	0.082360
	O366	O	0.572547	0.587383	0.471161
	H367	H	0.577329	0.569423	0.462431
	H368	H	0.564958	0.593748	0.457069
	O369	O	1.187668	0.189395	-0.166304
	H370	H	1.166069	0.182961	-0.154996
	H371	H	1.172385	0.165944	-0.153571
	O372	O	0.787260	1.030715	-0.206308
	H373	H	0.787202	1.046501	-0.215894
	H374	H	0.774468	1.046387	-0.220290
	O375	O	0.996250	0.040848	-0.105789
	H376	H	0.985726	0.051456	-0.097546
	H377	H	0.988550	0.022052	-0.117383
	O378	O	0.225926	-0.027035	0.800667
	H379	H	0.241308	-0.031043	0.784291
	H380	H	0.211231	-0.014793	0.796824
	O381	O	0.299311	0.292919	0.549307
	H382	H	0.304560	0.294707	0.542846
	H383	H	0.280595	0.293758	0.536367
	O384	O	0.556555	0.376586	0.594620
	H385	H	0.561114	0.385120	0.593795
	H386	H	0.542076	0.372003	0.594884
	O387	O	0.984955	0.776420	0.228054
	H388	H	0.979752	0.774782	0.240905
	H389	H	0.974776	0.773528	0.242191
	O390	O	0.475888	0.315313	0.731264
	H391	H	0.464166	0.309086	0.750746
	H392	H	0.451987	0.314735	0.739662
	O393	O	0.334913	0.601107	0.561470
	H394	H	0.341722	0.623462	0.555323
	H395	H	0.356156	0.604423	0.579128
	O396	O	0.049492	1.216379	0.947549
	H397	H	0.037538	1.214075	0.966711
	H398	H	0.044350	1.221097	0.940789
	O399	O	0.625416	0.459712	1.545976
	H400	H	0.624698	0.474797	1.528202
	H401	H	0.627721	0.444032	1.533147
	O402	O	0.110864	-0.088412	0.955721
	H403	H	0.103294	-0.104526	0.943477
	H404	H	0.110440	-0.084337	0.945182
	O405	O	0.954090	-0.052823	0.777441
	H406	H	0.939066	-0.061618	0.774614
	H407	H	0.945593	-0.068671	0.783061
	O408	O	-0.034637	-0.181053	-0.057396
	H409	H	-0.037897	-0.176094	-0.059931
	H410	H	-0.034477	-0.178573	-0.070339
	O411	O	0.076396	1.059809	0.100418
	H412	H	0.069035	1.051175	0.100027
	H413	H	0.094460	1.048702	0.108786
	O414	O	0.237517	0.046526	0.237537
	H415	H	0.249137	0.069264	0.253250
	H416	H	0.247775	0.074047	0.252819
	O417	O	0.666387	0.406953	0.294631
	H418	H	0.694625	0.399428	0.266776
	H419	H	0.660302	0.384451	0.299673
	O420	O	0.312789	0.298566	0.715943
	H421	H	0.293707	0.271984	0.733318
	H422	H	0.310454	0.307047	0.681353
	O423	O	-0.211317	-0.030256	1.231770
	H424	H	-0.208630	-0.015359	1.220706
	H425	H	-0.232950	-0.029133	1.252595
	O426	O	1.221393	0.213757	0.225406
	H427	H	1.227730	0.221710	0.170132
	H428	H	1.255930	0.249425	0.252277
	O429	O	0.798698	0.792265	1.219090
	H430	H	0.815817	0.814705	1.209943
	H431	H	0.805173	0.810748	1.191518
	O432	O	0.845156	-0.062177	-0.011469
	H433	H	0.853251	-0.058602	-0.020330
	H434	H	0.842694	-0.055042	-0.011306
	O435	O	0.307663	0.705143	0.310082
	H436	H	0.299239	0.707732	0.349227
	H437	H	0.283265	0.714891	0.291070
	O438	O	0.229599	-0.223578	-0.019665
	H439	H	0.231179	-0.236288	-0.012941
	H440	H	0.245798	-0.237301	-0.037825
	O441	O	0.201904	0.145952	-0.008860
	H442	H	0.198547	0.130196	-0.008785
	H443	H	0.196653	0.132830	-0.022005
	O444	O	0.325377	0.317107	0.322432
	H445	H	0.347121	0.328610	0.344174
	H446	H	0.335679	0.342324	0.341909
	O447	O	-0.214661	1.222583	0.976852
	H448	H	-0.221534	1.235189	0.952467
	H449	H	-0.220188	1.241561	0.980703
	O450	O	0.015175	0.990865	1.076264
	H451	H	0.010147	1.001412	1.069515
	H452	H	0.017305	0.993661	1.074388
	O453	O	0.662954	0.344726	0.707187
	H454	H	0.646244	0.359955	0.699599
	H455	H	0.660985	0.358047	0.691314
	O456	O	-0.705437	0.464924	0.730092
	H457	H	-0.710434	0.448930	0.734656
	H458	H	-0.718309	0.452887	0.747200
	O459	O	0.710524	0.699766	0.392088
	H460	H	0.719162	0.693203	0.381796
	H461	H	0.725792	0.709737	0.379461
	O462	O	0.474953	0.560192	0.282037
	H463	H	0.446678	0.573606	0.274541
	H464	H	0.480326	0.568296	0.276132
	O465	O	0.980457	0.213502	-0.200942
	H466	H	0.978256	0.217765	-0.193244
	H467	H	0.971316	0.219313	-0.213505
	O468	O	0.620493	0.574387	0.386999
	H469	H	0.619722	0.587736	0.372176
	H470	H	0.618343	0.579778	0.384111
	O471	O	0.736695	0.633033	0.494936
	H472	H	0.742358	0.638501	0.493623
	H473	H	0.728780	0.627600	0.468067
	O474	O	0.304519	0.533070	0.303350
	H475	H	0.293223	0.545714	0.295450
	H476	H	0.305706	0.542129	0.302456
	O477	O	0.404574	0.411754	1.379498
	H478	H	0.406004	0.409967	1.382902
	H479	H	0.399449	0.418225	1.398844
	O480	O	0.046334	0.783277	-0.208298
	H481	H	0.056062	0.774641	-0.224942
	H482	H	0.053962	0.779131	-0.211922
	O483	O	0.695486	0.686888	0.694793
	H484	H	0.702334	0.691180	0.675127
	H485	H	0.696969	0.663352	0.678958
	O486	O	-0.007125	0.915872	0.175936
	H487	H	-0.002741	0.917070	0.169255
	H488	H	-0.003470	0.910371	0.164695
	O489	O	0.950029	1.035833	0.230662
	H490	H	0.949670	1.028980	0.235604
	H491	H	0.954315	1.037911	0.231620
