data_Molecule from HDF5

_cell_length_a		16.442695
_cell_length_b		16.560304
_cell_length_c		16.588358
_cell_angle_alpha	89.959167
_cell_angle_beta	89.993401
_cell_angle_gamma	89.822877
_symmetry_space_group_name_H-M	'P 1'
_symmetry_Int_Tables_number		1

loop_
	_symmetry_equiv_pos_as_xyz
	x,y,z

loop_
	_atom_site_label
	_atom_site_type_symbol
	_atom_site_fract_x
	_atom_site_fract_y
	_atom_site_fract_z
	H0	H	0.393411	0.862700	0.744835
	H1	H	0.610201	0.173374	0.740696
	H2	H	0.615816	0.861634	0.292324
	H3	H	0.398947	0.171985	0.295989
	H4	H	0.730056	0.409092	0.862794
	H5	H	0.727928	0.624507	0.173651
	H6	H	0.279526	0.625293	0.862732
	H7	H	0.285394	0.414068	0.174472
	H8	H	0.846729	0.739861	0.413178
	H9	H	0.158877	0.742373	0.629224
	H10	H	0.847677	0.294842	0.627247
	H11	H	0.162847	0.299905	0.417864
	H12	H	0.847769	0.410272	0.742799
	H13	H	0.159459	0.626593	0.743723
	H14	H	0.848183	0.626806	0.295031
	H15	H	0.161186	0.413800	0.299692
	H16	H	0.393304	0.743791	0.863254
	H17	H	0.613600	0.742258	0.172688
	H18	H	0.615640	0.291333	0.863234
	H19	H	0.401221	0.296338	0.174462
	H20	H	0.730628	0.861183	0.409840
	H21	H	0.724581	0.174056	0.622781
	H22	H	0.282477	0.860138	0.624574
	H23	H	0.282187	0.172925	0.413444
	H24	H	0.899014	0.362712	0.241603
	H25	H	0.113024	0.671934	0.242786
	H26	H	0.114331	0.363089	0.793188
	H27	H	0.892519	0.672426	0.791565
	H28	H	0.223322	0.913284	0.361641
	H29	H	0.224993	0.119835	0.675730
	H30	H	0.782241	0.123663	0.363842
	H31	H	0.777891	0.908127	0.673497
	H32	H	0.347795	0.238766	0.913439
	H33	H	0.661950	0.236707	0.123735
	H34	H	0.347716	0.795941	0.123105
	H35	H	0.660173	0.790941	0.908224
	H36	H	0.346707	0.913038	0.237712
	H37	H	0.661156	0.121026	0.240138
	H38	H	0.347035	0.122221	0.798148
	H39	H	0.659738	0.905328	0.791197
	H40	H	0.897649	0.241280	0.364703
	H41	H	0.109674	0.237909	0.675961
	H42	H	0.111659	0.793132	0.365022
	H43	H	0.893128	0.790136	0.673062
	H44	H	0.228623	0.361625	0.911611
	H45	H	0.227116	0.672431	0.123977
	H46	H	0.783369	0.361949	0.123627
	H47	H	0.777113	0.672441	0.908250
	H48	H	0.416841	0.128084	0.609231
	H49	H	0.583716	0.908214	0.607674
	H50	H	0.593434	0.128254	0.429466
	H51	H	0.416200	0.904240	0.430452
	H52	H	0.594786	0.421785	0.131546
	H53	H	0.583015	0.600014	0.911742
	H54	H	0.421832	0.603198	0.125816
	H55	H	0.416377	0.422589	0.903862
	H56	H	0.115132	0.605726	0.433714
	H57	H	0.893425	0.600992	0.604543
	H58	H	0.117730	0.428314	0.609870
	H59	H	0.890330	0.434338	0.426598
	H60	H	0.117409	0.426928	0.606091
	H61	H	0.892570	0.603047	0.604744
	H62	H	0.115455	0.601462	0.430072
	H63	H	0.888066	0.423878	0.428115
	H64	H	0.417695	0.610958	0.130405
	H65	H	0.590619	0.610198	0.904961
	H66	H	0.597640	0.431545	0.128670
	H67	H	0.412584	0.430658	0.904465
	H68	H	0.591140	0.127619	0.427577
	H69	H	0.591915	0.908298	0.598274
	H70	H	0.416618	0.127740	0.605568
	H71	H	0.412656	0.902712	0.428207
	H72	H	0.916842	0.630007	0.106490
	H73	H	0.097888	0.405444	0.103221
	H74	H	0.090838	0.628419	0.930964
	H75	H	0.913336	0.407612	0.937691
	H76	H	0.092293	0.929153	0.630464
	H77	H	0.097239	0.106201	0.405556
	H78	H	0.919175	0.104100	0.629054
	H79	H	0.918858	0.929943	0.409608
	H80	H	0.616647	0.096423	0.923837
	H81	H	0.391571	0.105813	0.106526
	H82	H	0.614415	0.936472	0.103974
	H83	H	0.399745	0.935677	0.941826
	H84	H	0.620648	0.926811	0.112283
	H85	H	0.391459	0.106054	0.107774
	H86	H	0.621597	0.111405	0.926330
	H87	H	0.391815	0.937774	0.922076
	H88	H	0.915658	0.110130	0.632841
	H89	H	0.089699	0.107662	0.408015
	H90	H	0.091505	0.929379	0.630649
	H91	H	0.919236	0.930641	0.408651
	H92	H	0.089498	0.627653	0.931653
	H93	H	0.096724	0.401255	0.115229
	H94	H	0.916156	0.630419	0.107379
	H95	H	0.918803	0.404987	0.925005
	H96	H	0.413855	0.129251	0.607275
	H97	H	0.594576	0.903537	0.609211
	H98	H	0.590725	0.126502	0.430299
	H99	H	0.416171	0.903075	0.426377
	H100	H	0.587793	0.427678	0.127457
	H101	H	0.596266	0.597652	0.907580
	H102	H	0.411878	0.602860	0.129147
	H103	H	0.421259	0.429392	0.907036
	H104	H	0.117796	0.606130	0.429035
	H105	H	0.893394	0.602326	0.602619
	H106	H	0.116104	0.430483	0.607099
	H107	H	0.891966	0.429379	0.436076
	H108	H	0.916976	0.629888	0.106582
	H109	H	0.087040	0.406877	0.109156
	H110	H	0.090919	0.628132	0.932422
	H111	H	0.926611	0.412237	0.934530
	H112	H	0.091667	0.928808	0.630334
	H113	H	0.093816	0.113428	0.404849
	H114	H	0.912190	0.103601	0.632155
	H115	H	0.919418	0.930001	0.410318
	H116	H	0.614882	0.103208	0.937856
	H117	H	0.390853	0.106515	0.106804
	H118	H	0.617351	0.923510	0.098762
	H119	H	0.389334	0.920149	0.932632
	C120	C	0.382248	0.025438	0.640297
	C121	C	0.624231	1.009296	0.638782
	C122	C	0.626164	0.024705	0.396092
	C123	C	0.382912	1.007356	0.396618
	C124	C	0.627566	0.393910	0.026488
	C125	C	0.624549	0.637109	1.010374
	C126	C	0.382394	0.639464	0.026256
	C127	C	0.384594	0.395997	1.008999
	C128	C	0.013055	0.638925	0.397413
	C129	C	0.995328	0.637602	0.639414
	C130	C	0.013273	0.395748	0.641197
	C131	C	0.994938	0.397212	0.398896
	C132	C	0.883830	0.527005	0.139682
	C133	C	0.126069	0.508175	0.140521
	C134	C	0.124945	0.525619	0.897568
	C135	C	0.883408	0.510002	0.896993
	C136	C	0.125228	0.895515	0.527843
	C137	C	0.125852	0.139589	0.510156
	C138	C	0.882846	0.139142	0.528484
	C139	C	0.883488	0.896027	0.511243
	C140	C	0.513496	0.137188	0.897239
	C141	C	0.495530	0.137651	0.139320
	C142	C	0.513556	0.896041	0.138354
	C143	C	0.496324	0.895687	0.896690
	C144	C	0.377384	0.908884	0.702775
	C145	C	0.627859	0.126361	0.700242
	C146	C	0.632274	0.908261	0.333415
	C147	C	0.380411	0.125190	0.336439
	C148	C	0.689805	0.390663	0.909895
	C149	C	0.687096	0.641709	0.126977
	C150	C	0.319998	0.643301	0.909467
	C151	C	0.325007	0.394733	0.127247
	C152	C	0.894522	0.699964	0.394723
	C153	C	0.112228	0.700996	0.645501
	C154	C	0.895084	0.334674	0.645390
	C155	C	0.114465	0.338507	0.398267
	C156	C	0.895292	0.392489	0.702676
	C157	C	0.112314	0.643621	0.702896
	C158	C	0.895120	0.643660	0.335847
	C159	C	0.114006	0.395269	0.339619
	C160	C	0.376688	0.702433	0.909929
	C161	C	0.629974	0.700350	0.126369
	C162	C	0.632811	0.331823	0.910057
	C163	C	0.382915	0.336531	0.127422
	C164	C	0.689595	0.908059	0.391983
	C165	C	0.685003	0.126774	0.641480
	C166	C	0.321781	0.907653	0.643016
	C167	C	0.322613	0.125611	0.394835
	C168	C	0.880764	0.409217	0.200802
	C169	C	0.130344	0.625216	0.202070
	C170	C	0.130658	0.409325	0.834789
	C171	C	0.876346	0.626005	0.833485
	C172	C	0.184741	0.893780	0.409723
	C173	C	0.185563	0.139665	0.628485
	C174	C	0.822485	0.141902	0.410579
	C175	C	0.819499	0.890899	0.627165
	C176	C	0.395050	0.198519	0.894779
	C177	C	0.614518	0.196774	0.141792
	C178	C	0.394905	0.835914	0.141138
	C179	C	0.613368	0.832389	0.891131
	C180	C	0.394548	0.894062	0.198268
	C181	C	0.614043	0.139428	0.199856
	C182	C	0.394500	0.140340	0.837742
	C183	C	0.612984	0.889349	0.832813
	C184	C	0.879745	0.200336	0.411207
	C185	C	0.127845	0.197967	0.628922
	C186	C	0.129101	0.834049	0.411292
	C187	C	0.876812	0.832230	0.626960
	C188	C	0.188069	0.408801	0.893145
	C189	C	0.187164	0.625560	0.142968
	C190	C	0.823645	0.408903	0.142229
	C191	C	0.818800	0.626119	0.891715
	C192	C	0.408382	0.106960	0.614596
	C193	C	0.597847	0.927749	0.612428
	C194	C	0.599342	0.106235	0.421879
	C195	C	0.408023	0.924913	0.421320
	C196	C	0.600907	0.419740	0.108088
	C197	C	0.597590	0.610304	0.929240
	C198	C	0.409336	0.613090	0.107272
	C199	C	0.409629	0.420562	0.926675
	C200	C	0.094886	0.612209	0.423554
	C201	C	0.914303	0.610166	0.611775
	C202	C	0.095579	0.421298	0.615234
	C203	C	0.911693	0.422275	0.423115
	C204	C	0.909281	0.608778	0.114277
	C205	C	0.101114	0.425988	0.116054
	C206	C	0.098072	0.606906	0.924135
	C207	C	0.911689	0.429344	0.924477
	C208	C	0.099228	0.921401	0.609521
	C209	C	0.100865	0.115987	0.427730
	C210	C	0.908301	0.113342	0.610054
	C211	C	0.911201	0.922720	0.430566
	C212	C	0.596148	0.111191	0.922030
	C213	C	0.412858	0.113185	0.114229
	C214	C	0.595980	0.921571	0.112528
	C215	C	0.415042	0.923308	0.924401
	Zn216	Zn	0.503637	0.016733	0.768340
	Zn217	Zn	0.504510	0.015667	0.267480
	Zn218	Zn	0.754775	0.517277	0.018483
	Zn219	Zn	0.254413	0.517417	0.018193
	Zn220	Zn	0.004114	0.765954	0.519725
	Zn221	Zn	0.004010	0.268266	0.519941
	Zn222	Zn	0.003848	0.517850	0.767948
	Zn223	Zn	0.004143	0.517847	0.269524
	Zn224	Zn	0.504601	0.767307	0.017496
	Zn225	Zn	0.505488	0.266050	0.017739
	Zn226	Zn	0.754379	0.017095	0.518210
	Zn227	Zn	0.253961	0.016101	0.518748
	N228	N	0.414236	0.983177	0.701405
	N229	N	0.591166	0.051945	0.699013
	N230	N	0.593603	0.981870	0.335848
	N231	N	0.416941	0.050442	0.337312
	N232	N	0.686804	0.428499	0.983496
	N233	N	0.683835	0.603094	0.053726
	N234	N	0.323504	0.604757	0.982670
	N235	N	0.325728	0.430805	0.052683
	N236	N	0.968859	0.697167	0.432276
	N237	N	0.038406	0.697391	0.606821
	N238	N	0.969646	0.336433	0.608042
	N239	N	0.039259	0.339530	0.434201
	N240	N	0.969889	0.429396	0.700443
	N241	N	0.038688	0.604930	0.699208
	N242	N	0.969952	0.606417	0.337222
	N243	N	0.038426	0.430845	0.339514
	N244	N	0.414982	0.700188	0.983520
	N245	N	0.591924	0.697583	0.052771
	N246	N	0.595026	0.333687	0.983791
	N247	N	0.418841	0.336863	0.052536
	N248	N	0.686262	0.981685	0.430004
	N249	N	0.682940	0.052656	0.604216
	N250	N	0.324591	0.981233	0.604874
	N251	N	0.323736	0.051126	0.431204
	N252	N	0.917144	0.483778	0.199712
	N253	N	0.092925	0.551248	0.200798
	N254	N	0.092187	0.483117	0.837286
	N255	N	0.915656	0.552886	0.836757
	N256	N	0.182259	0.931363	0.483287
	N257	N	0.184595	0.104007	0.553673
	N258	N	0.824418	0.104240	0.484442
	N259	N	0.823701	0.930052	0.554294
	N260	N	0.470213	0.196705	0.930981
	N261	N	0.539758	0.195848	0.104788
	N262	N	0.470114	0.836756	0.104863
	N263	N	0.539761	0.835985	0.929951
	N264	N	0.469448	0.930443	0.196741
	N265	N	0.539017	0.103350	0.198475
	N266	N	0.469262	0.103181	0.838868
	N267	N	0.538878	0.927937	0.835996
	N268	N	0.916347	0.198850	0.485431
	N269	N	0.091886	0.198413	0.554174
	N270	N	0.092912	0.834712	0.485958
	N271	N	0.916021	0.835419	0.553915
	N272	N	0.184710	0.482184	0.931426
	N273	N	0.184721	0.551745	0.105636
	N274	N	0.825383	0.483028	0.105017
	N275	N	0.823123	0.552790	0.930585
	O276	O	0.783783	0.964708	-0.030056
	H277	H	0.782969	0.981915	-0.046936
	H278	H	0.781248	0.934988	-0.026812
	O279	O	-0.088864	0.043619	1.100814
	H280	H	-0.100328	0.026054	1.105239
	H281	H	-0.082056	0.042468	1.081253
	O282	O	0.098524	0.823567	0.128519
	H283	H	0.087487	0.816527	0.108458
	H284	H	0.102498	0.808695	0.135342
	O285	O	0.486605	0.360189	0.701110
	H286	H	0.487638	0.345914	0.716119
	H287	H	0.510946	0.370510	0.695645
	O288	O	0.977670	-0.188174	1.002002
	H289	H	0.974462	-0.187539	0.991255
	H290	H	0.978771	-0.171823	1.005392
	O291	O	0.673927	0.485210	0.382969
	H292	H	0.674899	0.455819	0.393451
	H293	H	0.703322	0.485944	0.374070
	O294	O	-0.187093	0.208514	0.211570
	H295	H	-0.170652	0.194807	0.204713
	H296	H	-0.197594	0.214842	0.211625
	O297	O	1.206282	0.223438	0.219291
	H298	H	1.230208	0.240625	0.229615
	H299	H	1.189555	0.209197	0.224526
	O300	O	0.180247	0.016643	0.217068
	H301	H	0.175357	0.026389	0.229023
	H302	H	0.190164	-0.001104	0.234050
	O303	O	-0.015452	0.009650	-0.097832
	H304	H	-0.018430	0.009854	-0.107415
	H305	H	-0.025453	0.022630	-0.098891
	O306	O	0.820568	-0.165216	0.193627
	H307	H	0.807404	-0.125561	0.210869
	H308	H	0.866130	-0.173000	0.200772
	O309	O	0.542446	0.315250	0.330640
	H310	H	0.535229	0.305582	0.336383
	H311	H	0.532271	0.313199	0.333250
	O312	O	0.596205	0.613684	0.367963
	H313	H	0.610590	0.609303	0.362337
	H314	H	0.597622	0.599044	0.381083
	O315	O	0.726289	0.493159	0.524944
	H316	H	0.731783	0.487966	0.526904
	H317	H	0.718960	0.503182	0.548594
	O318	O	1.219819	1.237877	0.046682
	H319	H	1.212975	1.233745	0.070429
	H320	H	1.241767	1.265349	0.040227
	O321	O	0.330508	0.362482	0.543118
	H322	H	0.341935	0.383985	0.546886
	H323	H	0.316422	0.343012	0.551747
	O324	O	0.510625	0.728519	1.706555
	H325	H	0.496701	0.743203	1.695213
	H326	H	0.497632	0.741577	1.716410
	O327	O	0.288471	0.493979	0.733356
	H328	H	0.290783	0.478365	0.737385
	H329	H	0.284169	0.489737	0.754621
	O330	O	0.157078	0.997450	-0.010361
	H331	H	0.147096	1.002614	-0.007510
	H332	H	0.169815	1.016934	-0.009172
	O333	O	0.804906	0.219269	-0.094574
	H334	H	0.814134	0.202495	-0.080585
	H335	H	0.803427	0.220390	-0.105637
	O336	O	0.507526	0.432313	0.642497
	H337	H	0.499075	0.450487	0.641841
	H338	H	0.504102	0.410732	0.658306
	O339	O	0.363069	0.310125	0.376012
	H340	H	0.378887	0.325291	0.391668
	H341	H	0.386127	0.324221	0.381003
	O342	O	-0.102030	1.107298	0.092709
	H343	H	-0.099368	1.111947	0.091262
	H344	H	-0.099756	1.106127	0.085742
	O345	O	0.497088	0.308677	0.518412
	H346	H	0.494290	0.314009	0.542797
	H347	H	0.498982	0.305341	0.544379
	O348	O	0.941666	-0.145830	-0.106317
	H349	H	0.919761	-0.141387	-0.100448
	H350	H	0.927587	-0.151697	-0.106374
	O351	O	0.189460	-0.023067	0.813970
	H352	H	0.211602	-0.041886	0.808473
	H353	H	0.179138	-0.035575	0.822174
	O354	O	1.360141	-0.516745	1.398254
	H355	H	1.376213	-0.528105	1.393197
	H356	H	1.346754	-0.533921	1.392312
	O357	O	0.301122	0.720737	0.529451
	H358	H	0.275994	0.730828	0.533368
	H359	H	0.290417	0.695405	0.542682
	O360	O	0.677387	0.381949	0.664601
	H361	H	0.672378	0.408537	0.668587
	H362	H	0.686976	0.374014	0.668718
	O363	O	0.415958	0.479436	-0.487948
	H364	H	0.415706	0.471057	-0.481115
	H365	H	0.411986	0.470680	-0.495841
	O366	O	0.943204	-0.044866	1.031674
	H367	H	0.941952	-0.057263	1.032824
	H368	H	0.946313	-0.042750	1.030183
	O369	O	0.263241	0.279264	0.759678
	H370	H	0.290427	0.255922	0.767605
	H371	H	0.241593	0.283641	0.755365
	O372	O	-0.212753	0.797883	1.038561
	H373	H	-0.206389	0.806520	1.080710
	H374	H	-0.240659	0.774564	1.043952
	O375	O	0.877661	0.228372	0.028032
	H376	H	0.861980	0.229312	0.031327
	H377	H	0.868793	0.226751	0.024727
	O378	O	0.719251	0.534067	0.736410
	H379	H	0.720886	0.558366	0.740136
	H380	H	0.734080	0.564061	0.748152
	O381	O	0.082488	1.079670	-0.100039
	H382	H	0.082604	1.074591	-0.099196
	H383	H	0.082867	1.076833	-0.096911
	O384	O	0.307262	0.716089	0.318786
	H385	H	0.316029	0.719365	0.351058
	H386	H	0.321273	0.721819	0.312532
	O387	O	-0.020061	0.800053	1.234285
	H388	H	-0.014300	0.775821	1.242140
	H389	H	-0.009760	0.794652	1.223791
	O390	O	0.190296	0.827197	0.825816
	H391	H	0.194934	0.834956	0.852193
	H392	H	0.158027	0.817695	0.835022
	O393	O	1.095359	0.168713	-0.112471
	H394	H	1.096469	0.161708	-0.107243
	H395	H	1.075607	0.155200	-0.126084
	O396	O	0.668926	0.414568	0.473017
	H397	H	0.678880	0.419193	0.464736
	H398	H	0.684987	0.404955	0.464436
	O399	O	1.012978	0.801454	-0.193977
	H400	H	0.998761	0.810469	-0.183718
	H401	H	1.014099	0.780408	-0.224616
	O402	O	0.535255	-0.528346	1.305457
	H403	H	0.553164	-0.515263	1.298608
	H404	H	0.529287	-0.528133	1.313613
	O405	O	0.465617	0.613177	0.666933
	H406	H	0.457761	0.627350	0.669705
	H407	H	0.458866	0.616824	0.665796
	O408	O	0.780249	1.039829	0.793288
	H409	H	0.773738	1.063060	0.788388
	H410	H	0.761435	1.049672	0.782843
	O411	O	0.974869	1.238462	-0.195779
	H412	H	0.980737	1.269580	-0.221504
	H413	H	1.001501	1.225035	-0.189495
	O414	O	-0.063173	0.112036	-0.180342
	H415	H	-0.057712	0.093679	-0.166340
	H416	H	-0.037230	0.107147	-0.184662
	O417	O	0.710890	0.721777	0.541957
	H418	H	0.729610	0.737181	0.539067
	H419	H	0.687435	0.723906	0.544034
	O420	O	0.689718	-0.304369	0.699272
	H421	H	0.679307	-0.304303	0.663000
	H422	H	0.655287	-0.286347	0.717862
	O423	O	1.171572	1.040444	0.027075
	H424	H	1.173164	1.062350	0.036127
	H425	H	1.178793	1.038430	0.026570
	O426	O	0.032596	1.227762	0.238723
	H427	H	0.043607	1.243813	0.239062
	H428	H	0.035375	1.244825	0.232067
	O429	O	0.418267	0.681407	0.539146
	H430	H	0.390189	0.669466	0.540413
	H431	H	0.439247	0.688235	0.514790
	O432	O	0.557348	0.734582	0.391457
	H433	H	0.549179	0.735109	0.386514
	H434	H	0.551812	0.736554	0.379109
	O435	O	1.017605	-0.072855	0.059627
	H436	H	1.004286	-0.069214	0.054564
	H437	H	1.019769	-0.063050	0.060047
	O438	O	0.287097	0.297026	0.550357
	H439	H	0.267838	0.275148	0.564868
	H440	H	0.295095	0.288054	0.557634
	O441	O	0.501354	0.518151	0.738939
	H442	H	0.480404	0.539103	0.747675
	H443	H	0.515721	0.512968	0.729775
	O444	O	0.472935	0.617530	0.527691
	H445	H	0.466633	0.611411	0.523055
	H446	H	0.459671	0.631345	0.536667
	O447	O	0.671362	0.591514	0.433011
	H448	H	0.680463	0.597920	0.438918
	H449	H	0.673096	0.580702	0.429613
	O450	O	1.015168	0.236135	0.018581
	H451	H	1.010335	0.237431	0.035543
	H452	H	1.013775	0.229213	0.032580
	O453	O	0.484463	0.691331	0.295964
	H454	H	0.489719	0.682364	0.287558
	H455	H	0.490126	0.702248	0.271907
	O456	O	-0.034397	1.048942	1.246424
	H457	H	-0.028440	1.064473	1.241090
	H458	H	-0.026736	1.050537	1.248958
	O459	O	0.289915	-0.431803	0.584792
	H460	H	0.286028	-0.451772	0.602115
	H461	H	0.286778	-0.454999	0.574165
	O462	O	0.709457	0.310970	0.312829
	H463	H	0.682631	0.306061	0.307291
	H464	H	0.705120	0.314685	0.315800
	O465	O	0.797843	-0.003382	0.231865
	H466	H	0.797589	0.004538	0.243323
	H467	H	0.795235	0.004035	0.238803
	O468	O	0.212653	0.950950	0.181779
	H469	H	0.213978	0.954088	0.197554
	H470	H	0.205626	0.972797	0.169684
	O471	O	0.600018	0.360000	0.533856
	H472	H	0.614120	0.353552	0.541976
	H473	H	0.618116	0.368480	0.551771
	O474	O	0.307314	0.522132	0.309716
	H475	H	0.300536	0.558985	0.314398
	H476	H	0.309047	0.532635	0.296703
	O477	O	0.202338	-0.195467	0.997407
	H478	H	0.214754	-0.215946	1.000097
	H479	H	0.207805	-0.161410	1.012252
