data_Molecule from HDF5

_cell_length_a		16.352169
_cell_length_b		16.051718
_cell_length_c		16.359380
_cell_angle_alpha	89.917118
_cell_angle_beta	89.723027
_cell_angle_gamma	90.134830
_symmetry_space_group_name_H-M	'P 1'
_symmetry_Int_Tables_number		1

loop_
	_symmetry_equiv_pos_as_xyz
	x,y,z

loop_
	_atom_site_label
	_atom_site_type_symbol
	_atom_site_fract_x
	_atom_site_fract_y
	_atom_site_fract_z
	H0	H	0.393870	0.818706	0.722546
	H1	H	0.597998	0.147525	0.723023
	H2	H	0.598731	0.819631	0.288376
	H3	H	0.394906	0.147560	0.290318
	H4	H	0.711924	0.379041	0.848486
	H5	H	0.708671	0.587316	0.169926
	H6	H	0.270486	0.588171	0.848504
	H7	H	0.270858	0.378712	0.169554
	H8	H	0.828854	0.698254	0.414219
	H9	H	0.156317	0.698029	0.606924
	H10	H	0.832317	0.265420	0.610390
	H11	H	0.156420	0.271179	0.408435
	H12	H	0.830899	0.381539	0.726591
	H13	H	0.152642	0.588675	0.729016
	H14	H	0.829336	0.587957	0.293421
	H15	H	0.151102	0.379603	0.286372
	H16	H	0.392827	0.698487	0.844818
	H17	H	0.589317	0.698861	0.170238
	H18	H	0.588046	0.271965	0.843725
	H19	H	0.389114	0.263464	0.169187
	H20	H	0.711936	0.819713	0.404446
	H21	H	0.709370	0.148562	0.605782
	H22	H	0.277944	0.819429	0.609842
	H23	H	0.277754	0.147162	0.403423
	H24	H	0.885837	0.320250	0.228834
	H25	H	0.087973	0.649624	0.222500
	H26	H	0.093592	0.321066	0.791938
	H27	H	0.890476	0.649103	0.795048
	H28	H	0.212366	0.880355	0.346295
	H29	H	0.214373	0.086933	0.668514
	H30	H	0.777549	0.089258	0.346707
	H31	H	0.773104	0.880100	0.668166
	H32	H	0.330077	0.196654	0.906835
	H33	H	0.655373	0.198791	0.101385
	H34	H	0.329807	0.771053	0.105427
	H35	H	0.655923	0.767722	0.907497
	H36	H	0.335264	0.877418	0.229769
	H37	H	0.655573	0.088103	0.221958
	H38	H	0.333490	0.086307	0.786229
	H39	H	0.655738	0.881532	0.789111
	H40	H	0.898944	0.200244	0.346108
	H41	H	0.095096	0.199100	0.671053
	H42	H	0.091437	0.769222	0.345601
	H43	H	0.897583	0.772772	0.672684
	H44	H	0.205554	0.320011	0.907882
	H45	H	0.208209	0.647275	0.112330
	H46	H	0.772825	0.319243	0.112408
	H47	H	0.777019	0.648507	0.911255
	H48	H	0.402785	0.099680	0.592375
	H49	H	0.585717	0.866502	0.594432
	H50	H	0.586724	0.100045	0.419847
	H51	H	0.407498	0.867712	0.419338
	H52	H	0.580122	0.391005	0.123302
	H53	H	0.584268	0.574802	0.892832
	H54	H	0.394077	0.575030	0.124989
	H55	H	0.394603	0.388542	0.890941
	H56	H	0.108954	0.584138	0.417242
	H57	H	0.879106	0.578913	0.594582
	H58	H	0.109655	0.387681	0.601375
	H59	H	0.878726	0.396167	0.421546
	H60	H	0.105514	0.398925	0.597713
	H61	H	0.878125	0.567680	0.606989
	H62	H	0.103828	0.567844	0.419826
	H63	H	0.876978	0.393137	0.417255
	H64	H	0.399231	0.570649	0.121123
	H65	H	0.587225	0.572741	0.892967
	H66	H	0.582813	0.391280	0.124208
	H67	H	0.394188	0.398555	0.893967
	H68	H	0.591427	0.103349	0.410849
	H69	H	0.586549	0.864729	0.599106
	H70	H	0.401780	0.102921	0.600834
	H71	H	0.401634	0.866142	0.418326
	H72	H	0.906883	0.598551	0.102185
	H73	H	0.076676	0.365162	0.107815
	H74	H	0.086147	0.603946	0.917433
	H75	H	0.906021	0.368826	0.921252
	H76	H	0.084077	0.887164	0.624305
	H77	H	0.076580	0.076791	0.395554
	H78	H	0.909224	0.070129	0.619924
	H79	H	0.902156	0.891467	0.391622
	H80	H	0.606671	0.069797	0.915871
	H81	H	0.379483	0.073005	0.091638
	H82	H	0.609837	0.893188	0.097467
	H83	H	0.374962	0.887500	0.907331
	H84	H	0.609595	0.891972	0.097763
	H85	H	0.379786	0.064340	0.103177
	H86	H	0.612181	0.078053	0.904516
	H87	H	0.379337	0.888984	0.919985
	H88	H	0.899994	0.081604	0.626191
	H89	H	0.094557	0.085070	0.387912
	H90	H	0.093767	0.892147	0.625731
	H91	H	0.900554	0.892838	0.392481
	H92	H	0.076354	0.601514	0.916644
	H93	H	0.074569	0.370066	0.094504
	H94	H	0.894108	0.600159	0.093852
	H95	H	0.894512	0.365007	0.921542
	H96	H	0.410150	0.099830	0.597203
	H97	H	0.582422	0.866536	0.598549
	H98	H	0.580862	0.101164	0.410962
	H99	H	0.406009	0.865422	0.414290
	H100	H	0.581532	0.393152	0.122316
	H101	H	0.585215	0.572045	0.893541
	H102	H	0.401078	0.577950	0.123118
	H103	H	0.403330	0.393189	0.894950
	H104	H	0.109007	0.573198	0.404778
	H105	H	0.872845	0.583742	0.609264
	H106	H	0.109966	0.397481	0.609050
	H107	H	0.877596	0.390801	0.421614
	H108	H	0.894211	0.605309	0.108648
	H109	H	0.087764	0.364333	0.097584
	H110	H	0.081347	0.600275	0.925070
	H111	H	0.899963	0.364601	0.911702
	H112	H	0.086500	0.897890	0.621677
	H113	H	0.093731	0.064380	0.394607
	H114	H	0.894683	0.067174	0.623991
	H115	H	0.902872	0.892176	0.392188
	H116	H	0.610376	0.084209	0.917734
	H117	H	0.375046	0.078178	0.104130
	H118	H	0.609199	0.892051	0.097502
	H119	H	0.379177	0.899795	0.912249
	C120	C	0.374287	-0.007772	0.627544
	C121	C	0.615498	0.974743	0.626958
	C122	C	0.616978	-0.007104	0.384265
	C123	C	0.374916	0.974923	0.386732
	C124	C	0.612118	0.361980	0.016619
	C125	C	0.613918	0.604279	0.999875
	C126	C	0.368854	0.605220	0.016510
	C127	C	0.367500	0.361073	0.999532
	C128	C	-0.000030	0.605459	0.387048
	C129	C	0.983979	0.606589	0.632343
	C130	C	0.001767	0.362960	0.632466
	C131	C	0.984080	0.363269	0.388404
	C132	C	0.868200	0.492446	0.131565
	C133	C	0.110458	0.475044	0.130326
	C134	C	0.111199	0.493593	0.889212
	C135	C	0.870538	0.475139	0.888815
	C136	C	0.116973	0.861689	0.516993
	C137	C	0.118087	0.105771	0.499488
	C138	C	0.873094	0.104707	0.516486
	C139	C	0.872106	0.862576	0.499366
	C140	C	0.502138	0.105734	0.883618
	C141	C	0.485026	0.103746	0.127654
	C142	C	0.502702	0.861920	0.128623
	C143	C	0.485141	0.861670	0.884171
	C144	C	0.374470	0.868251	0.684670
	C145	C	0.616459	0.098498	0.684366
	C146	C	0.617481	0.869210	0.327037
	C147	C	0.375312	0.098380	0.328929
	C148	C	0.671021	0.361502	0.895745
	C149	C	0.670035	0.605518	0.121296
	C150	C	0.310431	0.606567	0.895934
	C151	C	0.310128	0.359749	0.121273
	C152	C	0.877653	0.661370	0.392100
	C153	C	0.106852	0.661241	0.628578
	C154	C	0.880433	0.304316	0.630773
	C155	C	0.106916	0.308092	0.388405
	C156	C	0.879699	0.362164	0.688611
	C157	C	0.105086	0.606893	0.689333
	C158	C	0.877853	0.606173	0.332150
	C159	C	0.103939	0.362019	0.327468
	C160	C	0.371113	0.661587	0.894212
	C161	C	0.610477	0.661117	0.121705
	C162	C	0.609755	0.308127	0.893274
	C163	C	0.369095	0.302467	0.121002
	C164	C	0.674254	0.869270	0.384398
	C165	C	0.671863	0.099065	0.625755
	C166	C	0.316991	0.868499	0.628314
	C167	C	0.317289	0.098299	0.385431
	C168	C	0.867490	0.369050	0.189772
	C169	C	0.108586	0.599842	0.185366
	C170	C	0.111819	0.369848	0.831363
	C171	C	0.871298	0.599606	0.833430
	C172	C	0.173461	0.861770	0.394858
	C173	C	0.175087	0.105513	0.620752
	C174	C	0.816886	0.106972	0.394971
	C175	C	0.813648	0.861836	0.620788
	C176	C	0.379356	0.159931	0.886025
	C177	C	0.606910	0.160920	0.123312
	C178	C	0.379603	0.806975	0.126808
	C179	C	0.607270	0.805247	0.886472
	C180	C	0.382178	0.860280	0.188392
	C181	C	0.606964	0.105738	0.183347
	C182	C	0.381038	0.105041	0.826208
	C183	C	0.607233	0.862154	0.827867
	C184	C	0.877011	0.162377	0.394724
	C185	C	0.116099	0.161789	0.621830
	C186	C	0.113224	0.806535	0.394313
	C187	C	0.875349	0.808501	0.623068
	C188	C	0.167402	0.369189	0.889355
	C189	C	0.168431	0.598660	0.130423
	C190	C	0.811128	0.368480	0.131907
	C191	C	0.814792	0.599275	0.891243
	C192	C	0.397876	0.078256	0.603684
	C193	C	0.591859	0.888409	0.603955
	C194	C	0.593460	0.079121	0.407289
	C195	C	0.398326	0.888647	0.410465
	C196	C	0.588269	0.385045	0.101306
	C197	C	0.591920	0.580257	0.914934
	C198	C	0.391596	0.581454	0.101280
	C199	C	0.390560	0.386057	0.915289
	C200	C	0.085234	0.582088	0.407894
	C201	C	0.898762	0.583572	0.610021
	C202	C	0.086544	0.387514	0.609556
	C203	C	0.899723	0.386659	0.413035
	C204	C	0.891576	0.578805	0.108387
	C205	C	0.086666	0.388883	0.106852
	C206	C	0.088036	0.579624	0.912748
	C207	C	0.893426	0.388563	0.911484
	C208	C	0.094830	0.885386	0.602012
	C209	C	0.095088	0.082308	0.414669
	C210	C	0.894823	0.080133	0.601398
	C211	C	0.895246	0.885437	0.414209
	C212	C	0.587740	0.083813	0.906106
	C213	C	0.400052	0.079013	0.106103
	C214	C	0.587485	0.885392	0.104624
	C215	C	0.399915	0.885083	0.906626
	Zn216	Zn	0.494953	-0.016149	0.755183
	Zn217	Zn	0.495279	-0.016888	0.257727
	Zn218	Zn	0.742249	0.482416	0.009481
	Zn219	Zn	0.238520	0.483764	0.008915
	Zn220	Zn	-0.006430	0.734237	0.509119
	Zn221	Zn	-0.004913	0.233938	0.509561
	Zn222	Zn	-0.008333	0.485041	0.761083
	Zn223	Zn	-0.010117	0.483981	0.258591
	Zn224	Zn	0.492107	0.733199	0.007039
	Zn225	Zn	0.491258	0.232860	0.006361
	Zn226	Zn	0.742923	-0.016173	0.506647
	Zn227	Zn	0.246252	-0.016562	0.507127
	N228	N	0.409606	0.946360	0.684438
	N229	N	0.581904	0.020329	0.685221
	N230	N	0.582519	0.947020	0.326926
	N231	N	0.410452	0.020588	0.329554
	N232	N	0.672791	0.394238	0.973444
	N233	N	0.672106	0.570752	0.044490
	N234	N	0.308798	0.572397	0.973055
	N235	N	0.309125	0.395528	0.044970
	N236	N	0.954815	0.661128	0.425662
	N237	N	0.030385	0.661467	0.593903
	N238	N	0.957525	0.304182	0.596515
	N239	N	0.031453	0.308605	0.425903
	N240	N	0.956159	0.397620	0.689807
	N241	N	0.027688	0.573674	0.691689
	N242	N	0.954802	0.572207	0.328907
	N243	N	0.026688	0.395469	0.327297
	N244	N	0.406555	0.660954	0.970282
	N245	N	0.576196	0.660440	0.045134
	N246	N	0.573820	0.308080	0.969379
	N247	N	0.403953	0.302867	0.044305
	N248	N	0.674071	0.947186	0.419417
	N249	N	0.671135	0.021216	0.590651
	N250	N	0.316741	0.946427	0.593515
	N251	N	0.316841	0.020460	0.420614
	N252	N	0.902137	0.447193	0.189740
	N253	N	0.073259	0.522052	0.185480
	N254	N	0.077408	0.447949	0.831199
	N255	N	0.905294	0.521380	0.831826
	N256	N	0.175944	0.895079	0.472238
	N257	N	0.176474	0.071689	0.543588
	N258	N	0.814475	0.071977	0.471689
	N259	N	0.811526	0.894757	0.543106
	N260	N	0.455810	0.160651	0.920778
	N261	N	0.530127	0.159761	0.089348
	N262	N	0.455523	0.807984	0.090053
	N263	N	0.530426	0.804779	0.920779
	N264	N	0.459639	0.893609	0.189571
	N265	N	0.529971	0.070987	0.186259
	N266	N	0.458646	0.072268	0.824387
	N267	N	0.530395	0.896553	0.826330
	N268	N	0.911335	0.161116	0.471414
	N269	N	0.081520	0.162400	0.545292
	N270	N	0.078938	0.806132	0.471150
	N271	N	0.910815	0.808595	0.546599
	N272	N	0.167138	0.446999	0.924631
	N273	N	0.169552	0.520014	0.096875
	N274	N	0.811344	0.446137	0.096640
	N275	N	0.814245	0.520646	0.924872
	O276	O	0.938825	0.059797	1.080428
	H277	H	0.934578	0.057257	1.087953
	H278	H	0.947048	0.059631	1.090749
	O279	O	0.451970	0.575750	0.387214
	H280	H	0.455482	0.581570	0.382348
	H281	H	0.435952	0.569160	0.390734
	O282	O	0.605377	0.483457	0.364288
	H283	H	0.602880	0.491819	0.365795
	H284	H	0.610334	0.479353	0.377910
	O285	O	0.614982	0.512721	0.576840
	H286	H	0.610158	0.516114	0.589002
	H287	H	0.624340	0.520225	0.580803
	O288	O	0.474183	0.454744	0.483406
	H289	H	0.474976	0.446759	0.481211
	H290	H	0.484723	0.454385	0.474135
	O291	O	0.141865	-0.009478	1.011996
	H292	H	0.152562	-0.010514	1.004473
	H293	H	0.149207	-0.014557	1.003050
	O294	O	1.053955	0.944132	0.045571
	H295	H	1.052943	0.941420	0.040841
	H296	H	1.061166	0.957711	0.056655
	O297	O	1.448095	0.586090	0.359882
	H298	H	1.448161	0.562563	0.367979
	H299	H	1.458230	0.579512	0.345501
	O300	O	0.510068	0.574950	0.649607
	H301	H	0.511359	0.571581	0.651181
	H302	H	0.500451	0.571212	0.652076
	O303	O	0.503236	0.399509	0.581534
	H304	H	0.513556	0.396578	0.595421
	H305	H	0.515110	0.400779	0.568449
	O306	O	0.544478	0.585983	0.538566
	H307	H	0.534997	0.575284	0.540601
	H308	H	0.533472	0.599949	0.532550
	O309	O	0.464934	0.473079	0.537093
	H310	H	0.461590	0.482483	0.547541
	H311	H	0.476031	0.478222	0.530963
	O312	O	1.017332	1.034054	1.068696
	H313	H	1.010906	1.033097	1.070707
	H314	H	1.010061	1.029714	1.060979
	O315	O	0.904049	0.960516	-0.059451
	H316	H	0.903206	0.957594	-0.048688
	H317	H	0.902116	0.946606	-0.059546
	O318	O	0.590469	0.386040	0.478081
	H319	H	0.582007	0.389890	0.477025
	H320	H	0.594280	0.381560	0.476311
	O321	O	0.925333	1.129435	0.022763
	H322	H	0.922263	1.112372	0.014435
	H323	H	0.919109	1.139226	0.020556
	O324	O	-0.581322	1.573878	0.536352
	H325	H	-0.576073	1.550195	0.534027
	H326	H	-0.585652	1.586920	0.526882
	O327	O	-0.439077	1.655756	1.599328
	H328	H	-0.453624	1.662069	1.608127
	H329	H	-0.446884	1.663686	1.596543
	O330	O	0.073613	0.031047	0.091710
	H331	H	0.066196	0.040080	0.090191
	H332	H	0.080324	0.032707	0.081700
	O333	O	0.979879	0.955983	0.014568
	H334	H	0.975125	0.964567	0.007408
	H335	H	0.981732	0.950423	0.008148
	O336	O	-0.080650	-0.124804	0.110648
	H337	H	-0.061473	-0.122407	0.122270
	H338	H	-0.073589	-0.121791	0.114709
	O339	O	0.052793	0.037320	0.046780
	H340	H	0.050333	0.053846	0.046179
	H341	H	0.047147	0.042964	0.049429
	O342	O	0.371284	0.595481	0.495727
	H343	H	0.372614	0.609375	0.502805
	H344	H	0.372587	0.594382	0.478038
	O345	O	-0.645813	1.526298	1.394324
	H346	H	-0.664238	1.526909	1.395272
	H347	H	-0.640960	1.535676	1.390232
	O348	O	0.431921	0.484540	0.555489
	H349	H	0.424528	0.470874	0.544104
	H350	H	0.433725	0.473653	0.552862
	O351	O	0.582658	0.387315	0.340630
	H352	H	0.576056	0.390258	0.355056
	H353	H	0.578661	0.399617	0.325999
	O354	O	0.573027	0.429174	-0.539966
	H355	H	0.577533	0.416613	-0.539225
	H356	H	0.556000	0.443979	-0.536788
	O357	O	0.957000	0.953502	0.959465
	H358	H	0.961900	0.954375	0.952123
	H359	H	0.944687	0.956368	0.961206
	O360	O	0.394128	0.374517	0.539016
	H361	H	0.405565	0.373532	0.540406
	H362	H	0.409346	0.382786	0.535194
	O363	O	0.518177	0.422571	0.584056
	H364	H	0.528246	0.419723	0.592058
	H365	H	0.514657	0.414558	0.577528
	O366	O	1.021313	0.856707	-0.095630
	H367	H	1.018113	0.848455	-0.099601
	H368	H	1.017566	0.852737	-0.095672
	O369	O	1.105707	0.024793	-0.015907
	H370	H	1.098210	0.017906	-0.016056
	H371	H	1.095718	0.025250	-0.024666
	O372	O	0.489015	0.411825	0.429360
	H373	H	0.471634	0.408662	0.434561
	H374	H	0.490650	0.424861	0.432736
	O375	O	1.029208	0.043001	0.956347
	H376	H	1.028246	0.047155	0.949838
	H377	H	1.023092	0.038633	0.948178
	O378	O	0.023035	0.941082	-0.059068
	H379	H	0.028881	0.938198	-0.056579
	H380	H	0.022395	0.957987	-0.059525
	O381	O	0.366703	0.313111	0.642821
	H382	H	0.359414	0.291276	0.643852
	H383	H	0.365884	0.310498	0.643393
	O384	O	0.912412	1.010604	-0.054272
	H385	H	0.906436	1.008821	-0.057845
	H386	H	0.909350	1.010664	-0.049713
	O387	O	0.963272	-0.014166	1.070672
	H388	H	0.965074	-0.008572	1.068355
	H389	H	0.954104	-0.007760	1.079006
	O390	O	0.468037	1.470313	-0.384782
	H391	H	0.455545	1.458156	-0.378159
	H392	H	0.475922	1.493756	-0.389617
	O393	O	0.494654	0.348527	0.478733
	H394	H	0.505963	0.344134	0.449969
	H395	H	0.480427	0.346024	0.484416
