data_Molecule from HDF5

_cell_length_a		16.059084
_cell_length_b		16.353039
_cell_length_c		16.192071
_cell_angle_alpha	90.174928
_cell_angle_beta	90.146807
_cell_angle_gamma	89.920059
_symmetry_space_group_name_H-M	'P 1'
_symmetry_Int_Tables_number		1

loop_
	_symmetry_equiv_pos_as_xyz
	x,y,z

loop_
	_atom_site_label
	_atom_site_type_symbol
	_atom_site_fract_x
	_atom_site_fract_y
	_atom_site_fract_z
	H0	H	0.405832	0.845957	0.710521
	H1	H	0.604606	0.172996	0.714233
	H2	H	0.604270	0.847634	0.280765
	H3	H	0.404921	0.173255	0.281281
	H4	H	0.717995	0.414114	0.832549
	H5	H	0.717387	0.605675	0.163245
	H6	H	0.291177	0.606361	0.833113
	H7	H	0.294913	0.414487	0.163345
	H8	H	0.839303	0.725441	0.398277
	H9	H	0.169911	0.726053	0.598690
	H10	H	0.839904	0.295765	0.599709
	H11	H	0.169352	0.294928	0.398643
	H12	H	0.837704	0.415939	0.708688
	H13	H	0.170753	0.608393	0.710453
	H14	H	0.838263	0.607431	0.286010
	H15	H	0.171548	0.412701	0.288123
	H16	H	0.403759	0.724363	0.833186
	H17	H	0.608052	0.727028	0.160564
	H18	H	0.607720	0.294060	0.833528
	H19	H	0.404693	0.294161	0.160994
	H20	H	0.718347	0.846942	0.398814
	H21	H	0.717756	0.174358	0.594497
	H22	H	0.290907	0.846587	0.592723
	H23	H	0.291700	0.175009	0.399514
	H24	H	0.905810	0.346750	0.214124
	H25	H	0.104435	0.674009	0.214618
	H26	H	0.105463	0.347707	0.781566
	H27	H	0.905458	0.673712	0.784419
	H28	H	0.212964	0.916075	0.330358
	H29	H	0.218269	0.108324	0.661701
	H30	H	0.792144	0.107596	0.331735
	H31	H	0.793298	0.915566	0.662360
	H32	H	0.340874	0.226315	0.894962
	H33	H	0.671016	0.224504	0.097063
	H34	H	0.341156	0.794526	0.096465
	H35	H	0.670105	0.795567	0.896792
	H36	H	0.338143	0.912843	0.206703
	H37	H	0.671058	0.108359	0.210515
	H38	H	0.338965	0.106858	0.784685
	H39	H	0.670709	0.910833	0.783843
	H40	H	0.902532	0.227077	0.334267
	H41	H	0.105719	0.226078	0.661738
	H42	H	0.105709	0.793572	0.334405
	H43	H	0.904203	0.797858	0.661039
	H44	H	0.218661	0.346957	0.901296
	H45	H	0.218261	0.674653	0.094879
	H46	H	0.791188	0.346297	0.095310
	H47	H	0.792253	0.673700	0.902730
	H48	H	0.409486	0.128200	0.597456
	H49	H	0.599849	0.892162	0.597021
	H50	H	0.597299	0.121274	0.420193
	H51	H	0.409171	0.891965	0.396092
	H52	H	0.603874	0.419016	0.116301
	H53	H	0.590032	0.596253	0.884677
	H54	H	0.414678	0.601409	0.114027
	H55	H	0.408515	0.419135	0.879666
	H56	H	0.125735	0.608087	0.404239
	H57	H	0.885012	0.605609	0.592280
	H58	H	0.124597	0.413905	0.590582
	H59	H	0.885283	0.411835	0.408218
	H60	H	0.121361	0.418323	0.587284
	H61	H	0.884733	0.608123	0.592585
	H62	H	0.121522	0.605396	0.415199
	H63	H	0.888539	0.422850	0.409781
	H64	H	0.417039	0.606869	0.114439
	H65	H	0.595287	0.617751	0.876414
	H66	H	0.593234	0.420208	0.112452
	H67	H	0.417653	0.418333	0.881120
	H68	H	0.612706	0.133728	0.395284
	H69	H	0.592160	0.895862	0.588821
	H70	H	0.418394	0.124554	0.590922
	H71	H	0.412988	0.895111	0.401934
	H72	H	0.906174	0.629173	0.097113
	H73	H	0.098345	0.396911	0.084203
	H74	H	0.106558	0.630057	0.902683
	H75	H	0.907192	0.390244	0.895278
	H76	H	0.092610	0.919347	0.613382
	H77	H	0.090325	0.103962	0.381595
	H78	H	0.902802	0.104641	0.617611
	H79	H	0.910898	0.916474	0.378236
	H80	H	0.627002	0.111453	0.904347
	H81	H	0.389249	0.099248	0.086533
	H82	H	0.621209	0.925528	0.085708
	H83	H	0.388649	0.913976	0.914722
	H84	H	0.626036	0.916773	0.096736
	H85	H	0.385410	0.104729	0.092092
	H86	H	0.620861	0.100647	0.914132
	H87	H	0.387432	0.926293	0.898346
	H88	H	0.917677	0.097307	0.611526
	H89	H	0.097269	0.109705	0.377248
	H90	H	0.099309	0.912944	0.616884
	H91	H	0.912634	0.917865	0.379269
	H92	H	0.091582	0.626683	0.897462
	H93	H	0.107838	0.390081	0.096554
	H94	H	0.918778	0.625320	0.097042
	H95	H	0.922087	0.396401	0.900806
	H96	H	0.408729	0.126118	0.585888
	H97	H	0.603094	0.893122	0.586328
	H98	H	0.581580	0.126181	0.392445
	H99	H	0.406233	0.892598	0.402452
	H100	H	0.596398	0.409767	0.117418
	H101	H	0.611400	0.600867	0.875747
	H102	H	0.411495	0.606132	0.116773
	H103	H	0.412707	0.411184	0.877870
	H104	H	0.121358	0.597091	0.406902
	H105	H	0.884868	0.606830	0.590592
	H106	H	0.124094	0.419939	0.592445
	H107	H	0.883759	0.418168	0.399761
	H108	H	0.911923	0.624294	0.087015
	H109	H	0.092217	0.394372	0.099499
	H110	H	0.095467	0.623590	0.913303
	H111	H	0.908985	0.394885	0.912078
	H112	H	0.101498	0.922141	0.614909
	H113	H	0.098422	0.101033	0.380401
	H114	H	0.917026	0.114638	0.616530
	H115	H	0.913243	0.915945	0.379580
	H116	H	0.624762	0.096884	0.898763
	H117	H	0.387552	0.106658	0.084537
	H118	H	0.624197	0.911335	0.083254
	H119	H	0.381412	0.906664	0.897238
	C120	C	0.382983	0.018391	0.618802
	C121	C	0.627058	1.001705	0.619570
	C122	C	0.626145	0.019247	0.373978
	C123	C	0.381565	1.001681	0.372970
	C124	C	0.627321	0.388144	0.006444
	C125	C	0.627382	0.632482	0.988240
	C126	C	0.384877	0.632029	0.006248
	C127	C	0.384349	0.388464	0.988729
	C128	C	0.013272	0.631779	0.378744
	C129	C	0.995441	0.634199	0.620138
	C130	C	0.013573	0.389942	0.618807
	C131	C	0.995708	0.388951	0.377572
	C132	C	0.883562	0.518293	0.121252
	C133	C	0.128136	0.501928	0.121842
	C134	C	0.127023	0.519342	0.875825
	C135	C	0.883737	0.501668	0.875643
	C136	C	0.125929	0.889394	0.506071
	C137	C	0.125808	0.133293	0.488372
	C138	C	0.882746	0.133201	0.506169
	C139	C	0.883663	0.889521	0.488274
	C140	C	0.514142	0.131238	0.876458
	C141	C	0.496507	0.132139	0.117654
	C142	C	0.514153	0.889230	0.117089
	C143	C	0.495939	0.888049	0.875427
	C144	C	0.385053	0.895289	0.673038
	C145	C	0.624589	0.124439	0.675493
	C146	C	0.624278	0.896214	0.318872
	C147	C	0.384535	0.124826	0.318958
	C148	C	0.681357	0.392219	0.881933
	C149	C	0.681280	0.628184	0.113306
	C150	C	0.329098	0.627275	0.882054
	C151	C	0.330782	0.392409	0.113393
	C152	C	0.888541	0.687038	0.379106
	C153	C	0.120163	0.688608	0.618472
	C154	C	0.888917	0.334537	0.618268
	C155	C	0.120349	0.333201	0.379275
	C156	C	0.888081	0.394336	0.672637
	C157	C	0.120883	0.629559	0.673647
	C158	C	0.888054	0.628119	0.323483
	C159	C	0.121329	0.391617	0.324052
	C160	C	0.385001	0.686213	0.882157
	C161	C	0.626470	0.688092	0.112054
	C162	C	0.626417	0.332741	0.882616
	C163	C	0.385288	0.332525	0.112012
	C164	C	0.681121	0.896119	0.377567
	C165	C	0.680630	0.125350	0.615672
	C166	C	0.328132	0.895394	0.614177
	C167	C	0.327861	0.125525	0.377452
	C168	C	0.885957	0.395449	0.175743
	C169	C	0.125088	0.625094	0.176611
	C170	C	0.125402	0.396493	0.819966
	C171	C	0.885571	0.624853	0.821855
	C172	C	0.178117	0.893799	0.380709
	C173	C	0.181168	0.129569	0.612454
	C174	C	0.828377	0.129253	0.381778
	C175	C	0.829904	0.894152	0.612608
	C176	C	0.390087	0.187685	0.876228
	C177	C	0.621383	0.186940	0.116813
	C178	C	0.390030	0.833011	0.115870
	C179	C	0.620729	0.833302	0.877270
	C180	C	0.388649	0.892029	0.170563
	C181	C	0.621310	0.129199	0.173426
	C182	C	0.389007	0.128093	0.821569
	C183	C	0.621174	0.890438	0.820942
	C184	C	0.883621	0.188451	0.382947
	C185	C	0.124984	0.188054	0.612567
	C186	C	0.124783	0.832784	0.382740
	C187	C	0.885079	0.835594	0.612115
	C188	C	0.181337	0.395919	0.879772
	C189	C	0.181581	0.625464	0.116969
	C190	C	0.829112	0.395088	0.116449
	C191	C	0.829336	0.625006	0.880754
	C192	C	0.405499	0.103945	0.597608
	C193	C	0.605011	0.915947	0.597545
	C194	C	0.603617	0.104897	0.395803
	C195	C	0.402949	0.915699	0.393923
	C196	C	0.604662	0.409879	0.092953
	C197	C	0.605493	0.611354	0.901391
	C198	C	0.407767	0.611049	0.092731
	C199	C	0.406262	0.409928	0.902017
	C200	C	0.100273	0.609892	0.401919
	C201	C	0.907670	0.613161	0.598238
	C202	C	0.100797	0.411096	0.596727
	C203	C	0.908502	0.410954	0.399533
	C204	C	0.905661	0.604297	0.099978
	C205	C	0.105966	0.416085	0.100035
	C206	C	0.104537	0.604658	0.897948
	C207	C	0.906122	0.415893	0.896389
	C208	C	0.104146	0.911577	0.592658
	C209	C	0.102289	0.111418	0.402069
	C210	C	0.905748	0.111835	0.593072
	C211	C	0.905783	0.910535	0.401447
	C212	C	0.601627	0.109273	0.899024
	C213	C	0.409769	0.109977	0.094641
	C214	C	0.601416	0.911367	0.095183
	C215	C	0.408457	0.909446	0.897014
	Zn216	Zn	0.504959	0.009192	0.749113
	Zn217	Zn	0.504359	0.009790	0.244750
	Zn218	Zn	0.754724	0.509938	-0.002356
	Zn219	Zn	0.256609	0.510292	-0.001835
	Zn220	Zn	0.004487	0.761236	0.498467
	Zn221	Zn	0.004159	0.261508	0.498273
	Zn222	Zn	0.004922	0.510946	0.746315
	Zn223	Zn	0.005475	0.509835	0.251061
	Zn224	Zn	0.505829	0.761223	-0.003235
	Zn225	Zn	0.505533	0.260210	-0.002997
	Zn226	Zn	0.755514	0.010702	0.496903
	Zn227	Zn	0.253528	0.011004	0.496051
	N228	N	0.418463	0.972620	0.676076
	N229	N	0.592117	0.046657	0.678190
	N230	N	0.590903	0.973789	0.316558
	N231	N	0.416818	0.046860	0.315668
	N232	N	0.682072	0.425891	0.959942
	N233	N	0.681796	0.594143	0.035471
	N234	N	0.328763	0.594411	0.960181
	N235	N	0.329872	0.426477	0.035695
	N236	N	0.967378	0.689449	0.412727
	N237	N	0.040835	0.691594	0.586002
	N238	N	0.967757	0.331689	0.585267
	N239	N	0.041154	0.331318	0.411663
	N240	N	0.966492	0.428251	0.672920
	N241	N	0.042174	0.596666	0.674969
	N242	N	0.966655	0.594346	0.323106
	N243	N	0.042880	0.425402	0.322890
	N244	N	0.419059	0.689385	0.960248
	N245	N	0.593858	0.691078	0.033273
	N246	N	0.593395	0.330152	0.961036
	N247	N	0.417722	0.330106	0.033486
	N248	N	0.682698	0.973607	0.410985
	N249	N	0.682104	0.048196	0.581499
	N250	N	0.326396	0.972927	0.581119
	N251	N	0.325719	0.048012	0.410338
	N252	N	0.919050	0.472983	0.178545
	N253	N	0.092906	0.547282	0.180008
	N254	N	0.092474	0.474141	0.817262
	N255	N	0.918714	0.547322	0.818777
	N256	N	0.179023	0.928167	0.458345
	N257	N	0.181796	0.096185	0.534326
	N258	N	0.827790	0.095711	0.459612
	N259	N	0.829070	0.927186	0.534603
	N260	N	0.468967	0.189600	0.909634
	N261	N	0.542917	0.188786	0.082752
	N262	N	0.469097	0.831315	0.083041
	N263	N	0.541818	0.831538	0.910225
	N264	N	0.466787	0.926304	0.171299
	N265	N	0.542520	0.095896	0.174291
	N266	N	0.467328	0.093562	0.821621
	N267	N	0.542481	0.923784	0.819584
	N268	N	0.916823	0.190908	0.461353
	N269	N	0.091299	0.190428	0.534392
	N270	N	0.093134	0.829959	0.461703
	N271	N	0.917836	0.832504	0.533636
	N272	N	0.182684	0.473181	0.913798
	N273	N	0.183738	0.547786	0.083703
	N274	N	0.827236	0.472623	0.083318
	N275	N	0.828014	0.547505	0.913652
	O276	O	-0.021367	0.016666	0.118039
	H277	H	-0.014854	0.022309	0.112925
	H278	H	-0.022263	0.019616	0.113419
	O279	O	0.447770	0.541806	0.479575
	H280	H	0.441184	0.536441	0.487861
	H281	H	0.444947	0.538231	0.475412
	O282	O	0.427482	0.518631	0.407536
	H283	H	0.424681	0.522642	0.397843
	H284	H	0.426975	0.532166	0.403895
	O285	O	0.960706	0.042848	0.979153
	H286	H	0.951078	0.043164	0.971003
	H287	H	0.962199	0.040593	0.979618
	O288	O	0.976548	-0.070264	0.049193
	H289	H	0.983482	-0.081698	0.050611
	H290	H	0.981492	-0.068106	0.053292
	O291	O	0.499034	0.419505	0.548553
	H292	H	0.507295	0.411386	0.547420
	H293	H	0.505916	0.414346	0.552846
	O294	O	1.115402	0.059809	0.979709
	H295	H	1.115071	0.066799	0.980608
	H296	H	1.104642	0.059844	0.969784
	O297	O	0.008550	0.069408	0.105523
	H298	H	0.009358	0.066404	0.106199
	H299	H	0.009753	0.067120	0.114978
	O300	O	0.421725	0.560024	0.520081
	H301	H	0.419813	0.550399	0.508837
	H302	H	0.409413	0.554409	0.539813
	O303	O	0.995568	-0.004173	-0.028614
	H304	H	0.986386	-0.003304	-0.034537
	H305	H	0.996774	-0.000619	-0.032463
	O306	O	1.063601	0.052630	-0.083266
	H307	H	1.056675	0.053268	-0.072158
	H308	H	1.061796	0.048818	-0.088989
	O309	O	0.027081	-0.009838	0.987361
	H310	H	0.031170	-0.016289	0.978937
	H311	H	0.026811	-0.016007	0.990018
	O312	O	1.042346	1.013887	0.951280
	H313	H	1.022526	1.012612	0.954856
	H314	H	1.052951	0.998634	0.946923
	O315	O	0.457464	0.481611	0.566438
	H316	H	0.465057	0.475381	0.563169
	H317	H	0.461954	0.476807	0.559675
	O318	O	0.486657	0.507283	0.503747
	H319	H	0.481860	0.507019	0.501142
	H320	H	0.488006	0.511315	0.502078
	O321	O	-0.036823	1.000503	0.950981
	H322	H	-0.037639	0.993184	0.946464
	H323	H	-0.020836	0.997346	0.945183
	O324	O	0.470452	0.572008	0.467301
	H325	H	0.459592	0.579064	0.464481
	H326	H	0.461972	0.568759	0.474641
	O327	O	0.013162	-0.003777	0.957118
	H328	H	0.002402	-0.009365	0.961623
	H329	H	0.018691	0.001640	0.953252
	O330	O	0.596023	0.465567	0.440858
	H331	H	0.605958	0.472243	0.439330
	H332	H	0.590095	0.463090	0.437765
	O333	O	0.582369	0.420390	0.496339
	H334	H	0.583871	0.427344	0.499755
	H335	H	0.590016	0.427420	0.488783
	O336	O	0.424716	0.648493	0.433464
	H337	H	0.415744	0.648010	0.432420
	H338	H	0.427622	0.651429	0.443513
	O339	O	1.083908	1.056289	-0.015802
	H340	H	1.088947	1.052247	-0.011436
	H341	H	1.092150	1.064667	-0.021212
	O342	O	0.532918	0.523902	0.460901
	H343	H	0.527110	0.539400	0.464504
	H344	H	0.525893	0.523895	0.460086
	O345	O	0.501527	0.477373	0.508390
	H346	H	0.486217	0.484984	0.502513
	H347	H	0.495042	0.467711	0.510241
	O348	O	-0.125333	-0.014495	-0.028941
	H349	H	-0.127297	-0.016767	-0.027446
	H350	H	-0.118408	-0.010005	-0.034566
	O351	O	0.057525	1.022236	1.043924
	H352	H	0.060455	1.031676	1.042115
	H353	H	0.049739	1.036446	1.050909
	O354	O	0.445007	0.385493	0.515620
	H355	H	0.449766	0.385264	0.518614
	H356	H	0.467996	0.375700	0.508423
	O357	O	0.143782	0.967615	1.019391
	H358	H	0.154017	0.976260	1.022888
	H359	H	0.140419	0.973145	1.044728
