data_Molecule from HDF5

_cell_length_a		16.209978
_cell_length_b		16.340841
_cell_length_c		16.158802
_cell_angle_alpha	90.114694
_cell_angle_beta	89.962903
_cell_angle_gamma	89.955198
_symmetry_space_group_name_H-M	'P 1'
_symmetry_Int_Tables_number		1

loop_
	_symmetry_equiv_pos_as_xyz
	x,y,z

loop_
	_atom_site_label
	_atom_site_type_symbol
	_atom_site_fract_x
	_atom_site_fract_y
	_atom_site_fract_z
	H0	H	0.401862	0.818163	0.715554
	H1	H	0.595904	0.146171	0.719033
	H2	H	0.596684	0.819230	0.289283
	H3	H	0.400422	0.146157	0.290041
	H4	H	0.711122	0.383380	0.839131
	H5	H	0.709227	0.579342	0.169156
	H6	H	0.285204	0.579581	0.838138
	H7	H	0.284312	0.386122	0.168876
	H8	H	0.833435	0.697493	0.403766
	H9	H	0.161223	0.698793	0.604574
	H10	H	0.834540	0.266784	0.603671
	H11	H	0.161460	0.266289	0.402155
	H12	H	0.833856	0.384834	0.716672
	H13	H	0.163065	0.580195	0.715987
	H14	H	0.831651	0.578176	0.292151
	H15	H	0.162600	0.385512	0.290521
	H16	H	0.397351	0.696066	0.839427
	H17	H	0.597286	0.697319	0.167273
	H18	H	0.596826	0.267416	0.839736
	H19	H	0.396907	0.267695	0.168204
	H20	H	0.713279	0.819343	0.405772
	H21	H	0.713734	0.146501	0.604453
	H22	H	0.283224	0.819919	0.602700
	H23	H	0.282835	0.145842	0.405210
	H24	H	0.900698	0.318142	0.216565
	H25	H	0.093140	0.646489	0.216882
	H26	H	0.096874	0.319685	0.787736
	H27	H	0.898883	0.646413	0.789137
	H28	H	0.212179	0.884306	0.338442
	H29	H	0.210525	0.080938	0.668915
	H30	H	0.785286	0.080876	0.338965
	H31	H	0.785254	0.886231	0.668022
	H32	H	0.334481	0.195512	0.905839
	H33	H	0.661428	0.199270	0.105816
	H34	H	0.333100	0.768326	0.102507
	H35	H	0.661415	0.764818	0.903245
	H36	H	0.332689	0.886658	0.215934
	H37	H	0.663374	0.078708	0.215752
	H38	H	0.333081	0.078401	0.792058
	H39	H	0.663637	0.884343	0.790582
	H40	H	0.900645	0.194626	0.338781
	H41	H	0.099812	0.198877	0.667201
	H42	H	0.097854	0.768008	0.338791
	H43	H	0.897699	0.769518	0.667983
	H44	H	0.213034	0.319768	0.903440
	H45	H	0.211605	0.646195	0.102447
	H46	H	0.782172	0.318878	0.103533
	H47	H	0.781208	0.645034	0.905106
	H48	H	0.397446	0.104247	0.610546
	H49	H	0.595556	0.866717	0.595019
	H50	H	0.588542	0.098320	0.407935
	H51	H	0.410430	0.867618	0.409369
	H52	H	0.598340	0.389796	0.124213
	H53	H	0.595223	0.573711	0.884080
	H54	H	0.415581	0.572771	0.117710
	H55	H	0.411801	0.383442	0.886155
	H56	H	0.116618	0.573166	0.401447
	H57	H	0.877301	0.590020	0.592770
	H58	H	0.117474	0.392151	0.602414
	H59	H	0.879205	0.385150	0.409233
	H60	H	0.116589	0.381529	0.591932
	H61	H	0.886722	0.568283	0.585539
	H62	H	0.117194	0.585172	0.412730
	H63	H	0.880534	0.386648	0.412967
	H64	H	0.402493	0.586772	0.125513
	H65	H	0.586849	0.568817	0.888270
	H66	H	0.584708	0.398970	0.118150
	H67	H	0.398209	0.385371	0.883108
	H68	H	0.592123	0.097872	0.414691
	H69	H	0.593027	0.866229	0.598529
	H70	H	0.418223	0.095244	0.598634
	H71	H	0.402515	0.866420	0.415634
	H72	H	0.895361	0.598838	0.093956
	H73	H	0.100069	0.362879	0.100168
	H74	H	0.090801	0.599791	0.909274
	H75	H	0.910626	0.367702	0.908079
	H76	H	0.078224	0.888850	0.617455
	H77	H	0.088131	0.082475	0.384756
	H78	H	0.906372	0.082354	0.623563
	H79	H	0.899994	0.885799	0.383144
	H80	H	0.616650	0.072503	0.907240
	H81	H	0.378971	0.082915	0.094858
	H82	H	0.612120	0.888760	0.085760
	H83	H	0.378510	0.882589	0.908675
	H84	H	0.614096	0.896285	0.101331
	H85	H	0.383837	0.071383	0.091740
	H86	H	0.616525	0.080352	0.913854
	H87	H	0.383715	0.889159	0.917099
	H88	H	0.902374	0.072034	0.621815
	H89	H	0.098874	0.073242	0.383460
	H90	H	0.096556	0.879474	0.625474
	H91	H	0.906327	0.895141	0.386812
	H92	H	0.090572	0.599384	0.910578
	H93	H	0.083561	0.367012	0.102326
	H94	H	0.902857	0.600415	0.105465
	H95	H	0.902546	0.368017	0.915625
	H96	H	0.396273	0.098427	0.585951
	H97	H	0.590721	0.866958	0.594933
	H98	H	0.596394	0.100710	0.408686
	H99	H	0.401744	0.864592	0.406069
	H100	H	0.582836	0.381789	0.121887
	H101	H	0.586664	0.578340	0.885536
	H102	H	0.394622	0.567556	0.121985
	H103	H	0.405754	0.395888	0.888396
	H104	H	0.110648	0.570412	0.417223
	H105	H	0.878260	0.571455	0.609270
	H106	H	0.111616	0.395453	0.588577
	H107	H	0.880504	0.389569	0.408963
	H108	H	0.909160	0.595242	0.093567
	H109	H	0.091020	0.369579	0.086605
	H110	H	0.091871	0.598346	0.910274
	H111	H	0.901041	0.363760	0.904714
	H112	H	0.096469	0.900055	0.619909
	H113	H	0.086300	0.068348	0.390003
	H114	H	0.912206	0.074206	0.619712
	H115	H	0.911530	0.884579	0.385520
	H116	H	0.613342	0.070764	0.916440
	H117	H	0.379954	0.074407	0.103709
	H118	H	0.618974	0.879080	0.098890
	H119	H	0.381180	0.893061	0.906233
	C120	C	0.376216	-0.008796	0.626030
	C121	C	0.621023	0.974779	0.625533
	C122	C	0.620752	-0.009048	0.381846
	C123	C	0.376577	0.974512	0.382158
	C124	C	0.618349	0.360849	0.012907
	C125	C	0.618366	0.602960	0.995095
	C126	C	0.375841	0.603969	0.012330
	C127	C	0.376256	0.360768	0.995073
	C128	C	0.005785	0.604435	0.381872
	C129	C	0.989457	0.604784	0.624685
	C130	C	0.006665	0.361090	0.623747
	C131	C	0.989047	0.359863	0.381793
	C132	C	0.874820	0.490422	0.125790
	C133	C	0.119136	0.474122	0.125043
	C134	C	0.119772	0.491308	0.881203
	C135	C	0.875279	0.474216	0.881070
	C136	C	0.119529	0.861140	0.511810
	C137	C	0.119912	0.103878	0.494809
	C138	C	0.877982	0.103867	0.512567
	C139	C	0.877454	0.861440	0.494697
	C140	C	0.506875	0.102953	0.883378
	C141	C	0.489324	0.104472	0.125584
	C142	C	0.506377	0.860236	0.124571
	C143	C	0.489575	0.859548	0.881660
	C144	C	0.379899	0.867590	0.679537
	C145	C	0.617312	0.097526	0.681049
	C146	C	0.617683	0.868148	0.326876
	C147	C	0.379475	0.097308	0.327507
	C148	C	0.673935	0.362415	0.888463
	C149	C	0.672466	0.600101	0.119496
	C150	C	0.321749	0.600752	0.887871
	C151	C	0.321621	0.364737	0.119591
	C152	C	0.882289	0.659371	0.383906
	C153	C	0.112566	0.660408	0.623713
	C154	C	0.883629	0.305062	0.623050
	C155	C	0.112831	0.305155	0.382999
	C156	C	0.882968	0.363906	0.679172
	C157	C	0.113509	0.601361	0.679190
	C158	C	0.881334	0.599988	0.328559
	C159	C	0.113182	0.364125	0.327300
	C160	C	0.377943	0.658249	0.888285
	C161	C	0.616347	0.658492	0.118613
	C162	C	0.617513	0.304784	0.888957
	C163	C	0.377623	0.305980	0.119045
	C164	C	0.675634	0.868217	0.384748
	C165	C	0.676115	0.097304	0.624176
	C166	C	0.321306	0.868225	0.623037
	C167	C	0.321040	0.097216	0.384776
	C168	C	0.879046	0.367105	0.179752
	C169	C	0.115137	0.597514	0.180172
	C170	C	0.117430	0.368273	0.825784
	C171	C	0.877917	0.597309	0.826501
	C172	C	0.174442	0.864079	0.387643
	C173	C	0.173932	0.101265	0.619255
	C174	C	0.823336	0.100731	0.388155
	C175	C	0.822526	0.865175	0.618831
	C176	C	0.383309	0.157847	0.885323
	C177	C	0.612869	0.160193	0.124546
	C178	C	0.382199	0.806059	0.122675
	C179	C	0.612928	0.803855	0.883535
	C180	C	0.382077	0.864974	0.179004
	C181	C	0.614015	0.100485	0.179243
	C182	C	0.382741	0.099306	0.828894
	C183	C	0.613875	0.862878	0.827345
	C184	C	0.880321	0.157363	0.388109
	C185	C	0.118915	0.160241	0.618452
	C186	C	0.117980	0.805782	0.387934
	C187	C	0.878581	0.807318	0.618685
	C188	C	0.175222	0.368512	0.883132
	C189	C	0.173721	0.597415	0.122941
	C190	C	0.820214	0.367451	0.123457
	C191	C	0.819359	0.596740	0.884195
	C192	C	0.397523	0.076952	0.604655
	C193	C	0.599370	0.888907	0.602853
	C194	C	0.598829	0.076890	0.404023
	C195	C	0.398380	0.888475	0.404042
	C196	C	0.595587	0.383427	0.099015
	C197	C	0.596068	0.580395	0.908333
	C198	C	0.397767	0.582267	0.099255
	C199	C	0.398569	0.381962	0.908304
	C200	C	0.092407	0.582736	0.403910
	C201	C	0.902868	0.583050	0.602276
	C202	C	0.092929	0.383425	0.601082
	C203	C	0.902444	0.380993	0.403857
	C204	C	0.896085	0.576000	0.103982
	C205	C	0.097810	0.388594	0.102923
	C206	C	0.097621	0.576910	0.903343
	C207	C	0.898030	0.388658	0.903129
	C208	C	0.097172	0.883013	0.598480
	C209	C	0.097652	0.081342	0.408350
	C210	C	0.900357	0.082419	0.599242
	C211	C	0.899529	0.882309	0.407662
	C212	C	0.593272	0.081039	0.905955
	C213	C	0.403242	0.082676	0.103284
	C214	C	0.592620	0.881664	0.102096
	C215	C	0.403318	0.881608	0.904004
	Zn216	Zn	0.498485	-0.017899	0.754143
	Zn217	Zn	0.498467	-0.017123	0.253081
	Zn218	Zn	0.745923	0.481361	0.003832
	Zn219	Zn	0.248426	0.482764	0.003047
	Zn220	Zn	-0.002450	0.732805	0.503361
	Zn221	Zn	-0.001434	0.231480	0.502995
	Zn222	Zn	-0.001554	0.482989	0.751952
	Zn223	Zn	-0.003107	0.482105	0.254509
	Zn224	Zn	0.496941	0.731186	0.003407
	Zn225	Zn	0.498138	0.232706	0.004110
	Zn226	Zn	0.750453	-0.016715	0.503571
	Zn227	Zn	0.247323	-0.017328	0.504306
	N228	N	0.413421	0.944856	0.681538
	N229	N	0.583778	0.020160	0.682025
	N230	N	0.584257	0.945530	0.325219
	N231	N	0.413211	0.020030	0.325949
	N232	N	0.674593	0.396610	0.966360
	N233	N	0.673728	0.566076	0.041482
	N234	N	0.320295	0.567743	0.966103
	N235	N	0.320464	0.398047	0.041424
	N236	N	0.960863	0.662172	0.416413
	N237	N	0.034346	0.662521	0.590517
	N238	N	0.961673	0.303051	0.589468
	N239	N	0.034770	0.302314	0.415982
	N240	N	0.960580	0.397963	0.679718
	N241	N	0.035813	0.567655	0.680029
	N242	N	0.959194	0.566586	0.327197
	N243	N	0.035209	0.397653	0.326526
	N244	N	0.410778	0.660233	0.966857
	N245	N	0.583330	0.660002	0.040332
	N246	N	0.583729	0.303741	0.967115
	N247	N	0.410759	0.303287	0.040612
	N248	N	0.677548	0.945634	0.418351
	N249	N	0.678533	0.019949	0.590371
	N250	N	0.318877	0.945941	0.590439
	N251	N	0.319211	0.019655	0.418160
	N252	N	0.912379	0.444523	0.181358
	N253	N	0.081978	0.520103	0.181743
	N254	N	0.083660	0.445533	0.824333
	N255	N	0.911935	0.520057	0.824376
	N256	N	0.175734	0.897498	0.465818
	N257	N	0.174676	0.066911	0.541445
	N258	N	0.821638	0.068118	0.466605
	N259	N	0.821891	0.898231	0.540626
	N260	N	0.461362	0.159981	0.918669
	N261	N	0.534549	0.162924	0.091931
	N262	N	0.460484	0.802933	0.089636
	N263	N	0.534585	0.801657	0.916361
	N264	N	0.460176	0.898068	0.180281
	N265	N	0.536357	0.066461	0.180050
	N266	N	0.460786	0.066045	0.827539
	N267	N	0.536304	0.897009	0.826247
	N268	N	0.913658	0.159497	0.466364
	N269	N	0.086029	0.161940	0.539997
	N270	N	0.084431	0.803779	0.466117
	N271	N	0.911915	0.804861	0.540376
	N272	N	0.176795	0.445823	0.916981
	N273	N	0.176439	0.519983	0.089405
	N274	N	0.817494	0.444982	0.090441
	N275	N	0.817885	0.519320	0.917596
	O276	O	1.008574	0.977787	-0.075657
	H277	H	1.005821	0.982878	-0.079367
	H278	H	1.019625	0.975671	-0.077295
	O279	O	0.055843	-0.071111	-0.024747
	H280	H	0.054891	-0.074135	-0.029815
	H281	H	0.058447	-0.079606	-0.020755
	O282	O	-0.046344	0.005608	0.982837
	H283	H	-0.037089	0.000641	0.979184
	H284	H	-0.043718	0.005798	0.979174
	O285	O	1.508819	1.504743	0.450488
	H286	H	1.513749	1.501339	0.459280
	H287	H	1.509011	1.501389	0.454281
	O288	O	0.058977	0.999189	-0.005128
	H289	H	0.056665	0.994685	-0.005895
	H290	H	0.050317	0.993936	-0.013255
	O291	O	0.533307	0.505304	0.519492
	H292	H	0.529079	0.504938	0.522977
	H293	H	0.536216	0.512799	0.515130
	O294	O	-0.035683	-0.054074	-0.027385
	H295	H	-0.052036	-0.058966	-0.012267
	H296	H	-0.044263	-0.058150	-0.029420
	O297	O	-0.048647	0.958687	0.999218
	H298	H	-0.061173	0.958291	1.000393
	H299	H	-0.048384	0.961956	1.013140
	O300	O	-0.026502	1.054691	1.021893
	H301	H	-0.023528	1.063835	1.024105
	H302	H	-0.030616	1.058578	1.021006
	O303	O	0.542445	0.463956	0.514954
	H304	H	0.541653	0.464467	0.510131
	H305	H	0.537329	0.462325	0.519350
	O306	O	0.005591	-0.041231	0.954558
	H307	H	0.015781	-0.041730	0.949769
	H308	H	0.003832	-0.037508	0.968669
	O309	O	0.954554	0.949508	1.053137
	H310	H	0.955965	0.950217	1.057984
	H311	H	0.954832	0.952792	1.052162
	O312	O	0.500747	0.539794	0.478419
	H313	H	0.500158	0.547075	0.476297
	H314	H	0.499891	0.539371	0.473444
	O315	O	0.524785	0.496231	0.493592
	H316	H	0.516320	0.499114	0.490034
	H317	H	0.529329	0.497495	0.488952
	O318	O	0.499285	1.508679	-0.497923
	H319	H	0.497792	1.510565	-0.498062
	H320	H	0.508150	1.494432	-0.498704
	O321	O	0.937215	1.020990	0.072580
	H322	H	0.938296	1.015071	0.066064
	H323	H	0.947519	1.022123	0.063283
