data_Molecule from HDF5

_cell_length_a		16.225086
_cell_length_b		16.288378
_cell_length_c		16.283733
_cell_angle_alpha	89.980602
_cell_angle_beta	90.102640
_cell_angle_gamma	90.127373
_symmetry_space_group_name_H-M	'P 1'
_symmetry_Int_Tables_number		1

loop_
	_symmetry_equiv_pos_as_xyz
	x,y,z

loop_
	_atom_site_label
	_atom_site_type_symbol
	_atom_site_fract_x
	_atom_site_fract_y
	_atom_site_fract_z
	H0	H	0.390440	0.823599	0.730428
	H1	H	0.596133	0.147584	0.729883
	H2	H	0.592080	0.824283	0.295538
	H3	H	0.390920	0.148978	0.295962
	H4	H	0.707984	0.385365	0.845982
	H5	H	0.713258	0.587969	0.171324
	H6	H	0.280406	0.588724	0.846127
	H7	H	0.277158	0.387530	0.170986
	H8	H	0.830711	0.700881	0.402186
	H9	H	0.156599	0.703139	0.607202
	H10	H	0.831674	0.268403	0.606018
	H11	H	0.157331	0.266996	0.405062
	H12	H	0.832857	0.379466	0.725782
	H13	H	0.157153	0.589742	0.724974
	H14	H	0.830540	0.582964	0.290068
	H15	H	0.159211	0.385551	0.291409
	H16	H	0.393033	0.705481	0.848415
	H17	H	0.596540	0.702367	0.173486
	H18	H	0.598499	0.265005	0.850691
	H19	H	0.393074	0.271870	0.173382
	H20	H	0.706198	0.822149	0.410575
	H21	H	0.713649	0.147003	0.613851
	H22	H	0.276404	0.822931	0.612577
	H23	H	0.276653	0.148804	0.413082
	H24	H	0.895934	0.321532	0.220297
	H25	H	0.094895	0.648133	0.222456
	H26	H	0.096404	0.322149	0.791300
	H27	H	0.894925	0.647583	0.789072
	H28	H	0.209535	0.886916	0.346594
	H29	H	0.206779	0.085249	0.673220
	H30	H	0.776892	0.082136	0.345936
	H31	H	0.780693	0.884423	0.672986
	H32	H	0.331356	0.202182	0.912614
	H33	H	0.657044	0.203795	0.115563
	H34	H	0.330135	0.770687	0.111610
	H35	H	0.657784	0.773435	0.914723
	H36	H	0.329040	0.888811	0.225850
	H37	H	0.656665	0.086933	0.229096
	H38	H	0.331514	0.088880	0.795106
	H39	H	0.657095	0.884897	0.796016
	H40	H	0.893622	0.197977	0.344129
	H41	H	0.097019	0.204742	0.669347
	H42	H	0.091531	0.772689	0.343140
	H43	H	0.892123	0.764485	0.669509
	H44	H	0.213935	0.323535	0.905598
	H45	H	0.207843	0.649624	0.103737
	H46	H	0.779504	0.322389	0.105346
	H47	H	0.778373	0.648425	0.905928
	H48	H	0.399841	0.101879	0.603694
	H49	H	0.584333	0.870276	0.601026
	H50	H	0.587837	0.104016	0.417219
	H51	H	0.399555	0.867725	0.412545
	H52	H	0.582806	0.394974	0.125299
	H53	H	0.581319	0.579290	0.895664
	H54	H	0.406946	0.584924	0.126136
	H55	H	0.404552	0.393981	0.893731
	H56	H	0.109274	0.574849	0.414996
	H57	H	0.880500	0.569750	0.596684
	H58	H	0.112418	0.388753	0.597693
	H59	H	0.881066	0.396850	0.415757
	H60	H	0.108885	0.396188	0.591920
	H61	H	0.877387	0.574546	0.598711
	H62	H	0.112162	0.578057	0.409719
	H63	H	0.876072	0.391971	0.405231
	H64	H	0.393902	0.579090	0.128298
	H65	H	0.586148	0.585346	0.892519
	H66	H	0.589973	0.392627	0.127804
	H67	H	0.405785	0.395605	0.894599
	H68	H	0.579818	0.100414	0.421060
	H69	H	0.587083	0.868350	0.605763
	H70	H	0.402057	0.101675	0.605236
	H71	H	0.408223	0.873314	0.421108
	H72	H	0.910004	0.598423	0.093398
	H73	H	0.085064	0.367894	0.104116
	H74	H	0.080651	0.601270	0.908528
	H75	H	0.901903	0.369223	0.913129
	H76	H	0.077637	0.889266	0.622466
	H77	H	0.083293	0.073213	0.393998
	H78	H	0.903465	0.077545	0.623705
	H79	H	0.901423	0.883851	0.389786
	H80	H	0.608946	0.070342	0.918372
	H81	H	0.375944	0.082071	0.103517
	H82	H	0.609480	0.894760	0.105638
	H83	H	0.377322	0.898956	0.915515
	H84	H	0.611227	0.894202	0.106118
	H85	H	0.377390	0.077916	0.104247
	H86	H	0.613082	0.081391	0.920370
	H87	H	0.375683	0.889426	0.920933
	H88	H	0.903708	0.078733	0.624587
	H89	H	0.084150	0.077353	0.392524
	H90	H	0.086762	0.888328	0.625963
	H91	H	0.890590	0.894093	0.389269
	H92	H	0.085560	0.598412	0.921589
	H93	H	0.083187	0.371640	0.094729
	H94	H	0.896552	0.602370	0.094887
	H95	H	0.903426	0.370254	0.916301
	H96	H	0.402388	0.100408	0.602990
	H97	H	0.582185	0.870278	0.606134
	H98	H	0.588542	0.100805	0.426702
	H99	H	0.395751	0.870259	0.425158
	H100	H	0.589324	0.400685	0.124629
	H101	H	0.588627	0.577005	0.893257
	H102	H	0.404540	0.571471	0.123052
	H103	H	0.407222	0.393878	0.894196
	H104	H	0.110602	0.581786	0.415896
	H105	H	0.879787	0.574605	0.593080
	H106	H	0.110610	0.397840	0.601986
	H107	H	0.877052	0.385043	0.416283
	H108	H	0.905188	0.603721	0.105526
	H109	H	0.092531	0.367748	0.097380
	H110	H	0.094481	0.604307	0.912286
	H111	H	0.899517	0.368946	0.915853
	H112	H	0.083810	0.897048	0.623469
	H113	H	0.088079	0.074327	0.392712
	H114	H	0.902783	0.077182	0.624670
	H115	H	0.904122	0.898120	0.395363
	H116	H	0.607213	0.075541	0.929388
	H117	H	0.376564	0.080463	0.108107
	H118	H	0.611109	0.894094	0.105436
	H119	H	0.379636	0.898402	0.926314
	C120	C	0.370948	-0.005797	0.634070
	C121	C	0.615424	0.976799	0.634117
	C122	C	0.614347	-0.005474	0.390921
	C123	C	0.371058	0.977565	0.390069
	C124	C	0.616651	0.364822	0.018786
	C125	C	0.616183	0.609142	1.001528
	C126	C	0.372670	0.609002	0.018343
	C127	C	0.374360	0.365437	1.001363
	C128	C	0.002481	0.606680	0.383724
	C129	C	0.986523	0.604854	0.626772
	C130	C	0.003273	0.363324	0.627765
	C131	C	0.986458	0.362580	0.383814
	C132	C	0.874039	0.493867	0.127318
	C133	C	0.116323	0.476951	0.127869
	C134	C	0.117399	0.494025	0.884723
	C135	C	0.872544	0.476915	0.884760
	C136	C	0.113747	0.863149	0.516682
	C137	C	0.114736	0.105841	0.500504
	C138	C	0.872480	0.106248	0.516789
	C139	C	0.870694	0.862173	0.499444
	C140	C	0.502653	0.106834	0.891985
	C141	C	0.484824	0.109194	0.134828
	C142	C	0.501883	0.865283	0.133931
	C143	C	0.485508	0.865915	0.891194
	C144	C	0.370992	0.872321	0.691508
	C145	C	0.615739	0.099097	0.690959
	C146	C	0.611840	0.872455	0.334040
	C147	C	0.371492	0.100160	0.334058
	C148	C	0.671252	0.365258	0.895607
	C149	C	0.674435	0.607596	0.123104
	C150	C	0.317483	0.608662	0.895397
	C151	C	0.315973	0.366912	0.122853
	C152	C	0.879523	0.662468	0.383728
	C153	C	0.108133	0.664004	0.626744
	C154	C	0.880492	0.306478	0.626517
	C155	C	0.109096	0.306194	0.385417
	C156	C	0.881290	0.361905	0.686143
	C157	C	0.108414	0.607316	0.685226
	C158	C	0.879534	0.603987	0.327544
	C159	C	0.109848	0.365080	0.328742
	C160	C	0.373535	0.666758	0.896599
	C161	C	0.615675	0.664243	0.124412
	C162	C	0.616572	0.305563	0.897924
	C163	C	0.373936	0.309644	0.124182
	C164	C	0.668996	0.871470	0.391167
	C165	C	0.674207	0.098672	0.633516
	C166	C	0.314042	0.871884	0.633126
	C167	C	0.314650	0.100133	0.392337
	C168	C	0.875591	0.370539	0.182472
	C169	C	0.114668	0.599521	0.184008
	C170	C	0.116505	0.371056	0.829362
	C171	C	0.874739	0.599239	0.827886
	C172	C	0.171123	0.866307	0.394681
	C173	C	0.169773	0.105327	0.623685
	C174	C	0.815798	0.102683	0.394137
	C175	C	0.817104	0.863684	0.623270
	C176	C	0.380101	0.164053	0.892396
	C177	C	0.608149	0.165159	0.134459
	C178	C	0.378935	0.809156	0.131815
	C179	C	0.608626	0.810496	0.893738
	C180	C	0.378429	0.867784	0.188618
	C181	C	0.607744	0.107453	0.191462
	C182	C	0.380227	0.107345	0.834184
	C183	C	0.608229	0.866069	0.834578
	C184	C	0.873596	0.160401	0.393225
	C185	C	0.114919	0.164668	0.621696
	C186	C	0.112365	0.809573	0.392994
	C187	C	0.872506	0.804017	0.621432
	C188	C	0.174822	0.371827	0.886176
	C189	C	0.170551	0.600475	0.124725
	C190	C	0.817550	0.371171	0.125561
	C191	C	0.816491	0.599528	0.885540
	C192	C	0.394359	0.079220	0.610730
	C193	C	0.591511	0.891783	0.611051
	C194	C	0.591966	0.079829	0.414648
	C195	C	0.394346	0.892448	0.413015
	C196	C	0.594055	0.389068	0.103903
	C197	C	0.592434	0.586891	0.916048
	C198	C	0.395206	0.585306	0.103758
	C199	C	0.398801	0.387726	0.916268
	C200	C	0.088401	0.584708	0.406888
	C201	C	0.901405	0.580102	0.602885
	C202	C	0.088640	0.387319	0.604017
	C203	C	0.900530	0.384782	0.406075
	C204	C	0.897142	0.579424	0.104585
	C205	C	0.093757	0.391074	0.105222
	C206	C	0.093903	0.579110	0.907419
	C207	C	0.894928	0.391618	0.907998
	C208	C	0.089748	0.885154	0.601947
	C209	C	0.091898	0.081849	0.415182
	C210	C	0.896285	0.084343	0.602167
	C211	C	0.892317	0.885279	0.413836
	C212	C	0.587571	0.082936	0.915806
	C213	C	0.398870	0.086761	0.112012
	C214	C	0.588221	0.887618	0.112006
	C215	C	0.399713	0.888976	0.914094
	Zn216	Zn	0.493531	-0.014009	0.762656
	Zn217	Zn	0.493232	-0.012460	0.262371
	Zn218	Zn	0.744079	0.486277	0.007575
	Zn219	Zn	0.245523	0.486554	0.006964
	Zn220	Zn	-0.007209	0.733856	0.505713
	Zn221	Zn	-0.005236	0.234882	0.506561
	Zn222	Zn	-0.004599	0.484112	0.756181
	Zn223	Zn	-0.005286	0.484501	0.256284
	Zn224	Zn	0.493530	0.736853	0.011452
	Zn225	Zn	0.495427	0.236641	0.012247
	Zn226	Zn	0.743200	-0.015612	0.510465
	Zn227	Zn	0.242580	-0.014568	0.511350
	N228	N	0.405499	0.949391	0.692473
	N229	N	0.579853	0.022649	0.691187
	N230	N	0.578681	0.950061	0.333637
	N231	N	0.405649	0.023102	0.332522
	N232	N	0.671004	0.401931	0.971578
	N233	N	0.674865	0.573929	0.045546
	N234	N	0.316757	0.573450	0.972068
	N235	N	0.316222	0.400933	0.045578
	N236	N	0.956987	0.664191	0.418062
	N237	N	0.031323	0.662547	0.591104
	N238	N	0.957240	0.307264	0.591061
	N239	N	0.031408	0.304508	0.418782
	N240	N	0.958764	0.396390	0.687015
	N241	N	0.031616	0.571130	0.685309
	N242	N	0.957002	0.569820	0.327547
	N243	N	0.032492	0.399526	0.327834
	N244	N	0.407081	0.667181	0.974316
	N245	N	0.580119	0.665211	0.047838
	N246	N	0.583272	0.305160	0.975566
	N247	N	0.409450	0.308512	0.047596
	N248	N	0.670499	0.948336	0.426070
	N249	N	0.674504	0.021417	0.599041
	N250	N	0.313874	0.948661	0.597980
	N251	N	0.314400	0.023009	0.426734
	N252	N	0.909878	0.447783	0.183766
	N253	N	0.081635	0.521706	0.186054
	N254	N	0.081551	0.447814	0.828345
	N255	N	0.908655	0.521849	0.827077
	N256	N	0.172189	0.898874	0.472720
	N257	N	0.169476	0.069281	0.547410
	N258	N	0.814969	0.069825	0.472022
	N259	N	0.815587	0.898933	0.546563
	N260	N	0.457113	0.163889	0.927848
	N261	N	0.530776	0.166584	0.100181
	N262	N	0.456903	0.807283	0.098896
	N263	N	0.531265	0.810279	0.928203
	N264	N	0.455930	0.902006	0.190094
	N265	N	0.530092	0.073191	0.191540
	N266	N	0.457403	0.072583	0.833688
	N267	N	0.530557	0.899785	0.833152
	N268	N	0.908170	0.162784	0.470412
	N269	N	0.081367	0.165098	0.543961
	N270	N	0.077607	0.807481	0.469802
	N271	N	0.904974	0.802811	0.543423
	N272	N	0.175978	0.449472	0.919454
	N273	N	0.171631	0.523239	0.090577
	N274	N	0.816745	0.448627	0.091786
	N275	N	0.814819	0.522460	0.919913
	O276	O	0.942468	-0.059599	0.963230
	H277	H	0.945115	-0.050317	0.960249
	H278	H	0.940137	-0.053288	0.950869
	O279	O	0.376030	0.464439	0.635802
	H280	H	0.375784	0.451890	0.630995
	H281	H	0.371538	0.467284	0.647654
	O282	O	0.540802	0.403396	0.476355
	H283	H	0.530607	0.402095	0.477569
	H284	H	0.545580	0.400821	0.471215
	O285	O	0.387188	0.607848	0.426545
	H286	H	0.379558	0.613734	0.422021
	H287	H	0.399154	0.601333	0.423021
	O288	O	0.539935	0.475687	0.554020
	H289	H	0.546449	0.475059	0.544460
	H290	H	0.532538	0.474310	0.569698
	O291	O	-0.013845	0.018428	1.047717
	H292	H	-0.013188	0.024784	1.041139
	H293	H	-0.013701	0.020874	1.049122
	O294	O	0.928531	0.995758	0.004330
	H295	H	0.934097	1.005649	0.019342
	H296	H	0.931132	0.999421	0.006772
	O297	O	1.345548	0.312042	0.600208
	H298	H	1.374296	0.306557	0.604492
	H299	H	1.338266	0.306715	0.583654
	O300	O	0.590806	0.520573	0.492318
	H301	H	0.591711	0.529444	0.486089
	H302	H	0.592916	0.519009	0.491394
	O303	O	0.575860	0.577088	0.662582
	H304	H	0.581693	0.598736	0.673213
	H305	H	0.582004	0.584442	0.670633
	O306	O	0.405076	0.552533	0.321934
	H307	H	0.403401	0.558416	0.325819
	H308	H	0.388760	0.562360	0.319238
	O309	O	0.588534	0.445526	0.622818
	H310	H	0.588129	0.447549	0.626160
	H311	H	0.603880	0.446265	0.617077
	O312	O	1.024644	1.014324	1.047460
	H313	H	1.034051	1.021291	1.044719
	H314	H	1.029295	1.008253	1.050350
	O315	O	1.071787	0.987170	-0.102199
	H316	H	1.077181	0.988529	-0.107635
	H317	H	1.085130	0.987024	-0.113224
	O318	O	0.339037	0.645950	0.378903
	H319	H	0.340419	0.651385	0.367161
	H320	H	0.338936	0.644901	0.362668
	O321	O	1.000738	1.027357	0.051075
	H322	H	1.010633	1.021296	0.052364
	H323	H	0.996462	1.020019	0.044498
	O324	O	-0.442188	1.482636	0.476648
	H325	H	-0.444210	1.472406	0.474658
	H326	H	-0.441469	1.496644	0.481048
	O327	O	-0.565579	1.331627	1.456407
	H328	H	-0.558872	1.326585	1.458162
	H329	H	-0.556456	1.335291	1.452242
	O330	O	-0.012969	-0.051872	-0.003680
	H331	H	-0.011232	-0.048631	-0.005484
	H332	H	-0.023478	-0.052956	0.001131
	O333	O	1.036933	0.977231	0.006347
	H334	H	1.038800	0.976200	-0.000843
	H335	H	1.036460	0.980223	0.013656
	O336	O	0.046390	-0.063179	-0.044753
	H337	H	0.048733	-0.058643	-0.053794
	H338	H	0.036436	-0.072832	-0.040269
	O339	O	-0.018337	0.038352	-0.027974
	H340	H	-0.014545	0.045098	-0.030617
	H341	H	-0.024310	0.037395	-0.031869
	O342	O	0.435594	0.464921	0.464583
	H343	H	0.432622	0.471414	0.474885
	H344	H	0.432761	0.479819	0.463330
	O345	O	-0.485775	1.333211	1.401173
	H346	H	-0.473343	1.337019	1.394147
	H347	H	-0.469619	1.325200	1.382119
	O348	O	0.635238	0.498299	0.529817
	H349	H	0.626874	0.491257	0.536952
	H350	H	0.644229	0.508499	0.545343
	O351	O	0.595885	0.573900	0.553104
	H352	H	0.594852	0.576152	0.560965
	H353	H	0.607933	0.583870	0.541029
	O354	O	0.643071	0.506434	-0.582550
	H355	H	0.650742	0.513544	-0.579414
	H356	H	0.642588	0.501953	-0.584697
	O357	O	0.797627	0.802577	0.785111
	H358	H	0.777739	0.797594	0.789655
	H359	H	0.798163	0.808726	0.787640
	O360	O	0.616753	0.524814	0.652874
	H361	H	0.619692	0.515770	0.659557
	H362	H	0.597822	0.533077	0.642239
	O363	O	0.619296	0.379544	0.399706
	H364	H	0.613141	0.373542	0.399708
	H365	H	0.629001	0.387439	0.399135
	O366	O	1.033779	0.937673	0.059183
	H367	H	1.038197	0.934749	0.067541
	H368	H	1.032286	0.938358	0.063224
	O369	O	1.055555	0.000560	0.009163
	H370	H	1.053841	0.021437	0.007960
	H371	H	1.052403	-0.003033	0.000230
	O372	O	0.375600	0.483183	0.629373
	H373	H	0.383255	0.475042	0.634424
	H374	H	0.360655	0.481676	0.637261
	O375	O	0.906559	0.001275	1.048640
	H376	H	0.911685	0.002988	1.052386
	H377	H	0.906097	0.002990	1.046191
	O378	O	-0.113802	0.904425	0.077449
	H379	H	-0.111791	0.907030	0.076705
	H380	H	-0.122412	0.912701	0.080820
	O381	O	0.421164	0.476751	0.568721
	H382	H	0.415905	0.472097	0.575752
	H383	H	0.422223	0.473697	0.550545
	O384	O	1.035283	1.004186	-0.011615
	H385	H	1.035301	0.992965	-0.014036
	H386	H	1.035015	1.007567	-0.013749
	O387	O	1.047693	-0.078139	0.994155
	H388	H	1.045242	-0.084202	0.993347
	H389	H	1.047061	-0.069962	0.991920
	O390	O	0.364144	1.522446	-0.453664
	H391	H	0.363638	1.515111	-0.461450
	H392	H	0.351942	1.534776	-0.445279
	O393	O	0.390916	0.524204	0.479825
	H394	H	0.381728	0.527170	0.487573
	H395	H	0.383518	0.524227	0.484696
