data_Molecule from HDF5

_cell_length_a		16.304014
_cell_length_b		16.100841
_cell_length_c		16.218077
_cell_angle_alpha	89.892816
_cell_angle_beta	90.199590
_cell_angle_gamma	90.022740
_symmetry_space_group_name_H-M	'P 1'
_symmetry_Int_Tables_number		1

loop_
	_symmetry_equiv_pos_as_xyz
	x,y,z

loop_
	_atom_site_label
	_atom_site_type_symbol
	_atom_site_fract_x
	_atom_site_fract_y
	_atom_site_fract_z
	H0	H	0.416710	0.842761	0.701502
	H1	H	0.611670	0.174119	0.700478
	H2	H	0.610603	0.842812	0.276009
	H3	H	0.413101	0.173518	0.275233
	H4	H	0.729181	0.409916	0.826008
	H5	H	0.729703	0.610737	0.152971
	H6	H	0.297240	0.611402	0.826098
	H7	H	0.299237	0.410177	0.153262
	H8	H	0.849362	0.720773	0.392977
	H9	H	0.177566	0.721402	0.587454
	H10	H	0.851655	0.292637	0.588577
	H11	H	0.178631	0.295952	0.392978
	H12	H	0.850372	0.407278	0.705450
	H13	H	0.176623	0.607555	0.705790
	H14	H	0.850480	0.608703	0.273912
	H15	H	0.177381	0.409189	0.274277
	H16	H	0.417155	0.721917	0.824056
	H17	H	0.611630	0.723635	0.153222
	H18	H	0.608953	0.299539	0.823077
	H19	H	0.415715	0.295600	0.153329
	H20	H	0.727374	0.842870	0.390542
	H21	H	0.729091	0.171884	0.590428
	H22	H	0.299476	0.843521	0.589033
	H23	H	0.297539	0.172603	0.388646
	H24	H	0.915534	0.343652	0.203883
	H25	H	0.111885	0.674990	0.203558
	H26	H	0.109170	0.343381	0.779984
	H27	H	0.914281	0.674416	0.775118
	H28	H	0.227860	0.907554	0.325431
	H29	H	0.229680	0.106990	0.653342
	H30	H	0.797091	0.109143	0.327046
	H31	H	0.799257	0.907764	0.654398
	H32	H	0.348862	0.223480	0.890167
	H33	H	0.677653	0.222985	0.085599
	H34	H	0.349107	0.795652	0.084761
	H35	H	0.676653	0.795870	0.890968
	H36	H	0.348621	0.909398	0.202532
	H37	H	0.675144	0.109916	0.206220
	H38	H	0.349905	0.109208	0.772553
	H39	H	0.676572	0.909706	0.774965
	H40	H	0.916089	0.222698	0.325325
	H41	H	0.112245	0.220555	0.655321
	H42	H	0.108970	0.796047	0.325169
	H43	H	0.918320	0.795803	0.655705
	H44	H	0.226845	0.344544	0.891251
	H45	H	0.227894	0.675651	0.089031
	H46	H	0.797848	0.344816	0.091597
	H47	H	0.800342	0.675017	0.890424
	H48	H	0.428083	0.125029	0.580623
	H49	H	0.616622	0.884838	0.584876
	H50	H	0.610037	0.127794	0.396788
	H51	H	0.422874	0.889936	0.394628
	H52	H	0.611609	0.420784	0.107099
	H53	H	0.611513	0.609059	0.868464
	H54	H	0.427490	0.610455	0.106902
	H55	H	0.420316	0.417884	0.871962
	H56	H	0.134670	0.611080	0.392325
	H57	H	0.900032	0.598517	0.573929
	H58	H	0.132733	0.409050	0.584503
	H59	H	0.894810	0.405836	0.396907
	H60	H	0.129073	0.419314	0.581805
	H61	H	0.896477	0.593407	0.592041
	H62	H	0.126604	0.601995	0.408457
	H63	H	0.901683	0.420774	0.405854
	H64	H	0.409717	0.605893	0.110821
	H65	H	0.612460	0.595184	0.872644
	H66	H	0.602233	0.419415	0.104392
	H67	H	0.416776	0.414623	0.869740
	H68	H	0.600096	0.125957	0.394712
	H69	H	0.599342	0.888584	0.591812
	H70	H	0.416210	0.126053	0.573073
	H71	H	0.418952	0.891922	0.400744
	H72	H	0.914293	0.625457	0.070420
	H73	H	0.116157	0.388568	0.082394
	H74	H	0.111175	0.629665	0.898631
	H75	H	0.917405	0.390405	0.899432
	H76	H	0.100073	0.900723	0.610019
	H77	H	0.112657	0.101596	0.370401
	H78	H	0.921790	0.105290	0.608305
	H79	H	0.921998	0.912593	0.372704
	H80	H	0.629953	0.104809	0.892652
	H81	H	0.394160	0.105106	0.087804
	H82	H	0.629307	0.919082	0.083304
	H83	H	0.392250	0.907895	0.889231
	H84	H	0.630393	0.916632	0.084319
	H85	H	0.396836	0.106847	0.075944
	H86	H	0.630220	0.105706	0.895466
	H87	H	0.398404	0.915508	0.903532
	H88	H	0.915514	0.098315	0.607816
	H89	H	0.103875	0.095738	0.374954
	H90	H	0.124745	0.915016	0.612126
	H91	H	0.914491	0.913183	0.370716
	H92	H	0.104278	0.629422	0.892067
	H93	H	0.102493	0.391823	0.089626
	H94	H	0.915101	0.632285	0.092411
	H95	H	0.920442	0.390479	0.895951
	H96	H	0.416962	0.129847	0.586426
	H97	H	0.603555	0.893338	0.573704
	H98	H	0.604975	0.123607	0.403490
	H99	H	0.416503	0.887587	0.395479
	H100	H	0.606671	0.411146	0.107996
	H101	H	0.599454	0.602397	0.873869
	H102	H	0.421800	0.592405	0.103796
	H103	H	0.415618	0.419744	0.871248
	H104	H	0.129243	0.591711	0.390920
	H105	H	0.892691	0.611556	0.585671
	H106	H	0.132563	0.417857	0.592227
	H107	H	0.896972	0.422199	0.387831
	H108	H	0.933550	0.623298	0.082064
	H109	H	0.103272	0.395331	0.074947
	H110	H	0.103340	0.625950	0.900687
	H111	H	0.920959	0.391992	0.899351
	H112	H	0.101555	0.928664	0.602107
	H113	H	0.102662	0.107462	0.372435
	H114	H	0.924354	0.096963	0.606059
	H115	H	0.918126	0.919824	0.373431
	H116	H	0.629758	0.102835	0.894552
	H117	H	0.397994	0.095876	0.081579
	H118	H	0.629012	0.916735	0.082040
	H119	H	0.396880	0.925117	0.888971
	C120	C	0.392378	0.017209	0.609233
	C121	C	0.635091	0.998763	0.611637
	C122	C	0.633528	0.016864	0.369305
	C123	C	0.390649	0.999115	0.367652
	C124	C	0.635006	0.388365	-0.002192
	C125	C	0.635715	0.631333	0.980549
	C126	C	0.391239	0.631679	-0.001488
	C127	C	0.390704	0.388688	0.980013
	C128	C	0.022148	0.630303	0.368292
	C129	C	1.004498	0.630030	0.612427
	C130	C	0.023027	0.386523	0.613369
	C131	C	1.006040	0.387363	0.368317
	C132	C	0.892230	0.518135	0.111295
	C133	C	0.135559	0.501073	0.111133
	C134	C	0.134242	0.518499	0.869238
	C135	C	0.891669	0.500554	0.869063
	C136	C	0.135744	0.886533	0.498726
	C137	C	0.135297	0.129556	0.481385
	C138	C	0.892054	0.129756	0.498817
	C139	C	0.891326	0.886825	0.481480
	C140	C	0.521632	0.132706	0.865697
	C141	C	0.504098	0.131933	0.110975
	C142	C	0.521409	0.887903	0.110791
	C143	C	0.504552	0.887856	0.866897
	C144	C	0.395755	0.892518	0.664372
	C145	C	0.632618	0.123871	0.664795
	C146	C	0.630829	0.892081	0.313925
	C147	C	0.392732	0.123854	0.312514
	C148	C	0.690222	0.390458	0.874247
	C149	C	0.691152	0.630155	0.104091
	C150	C	0.335553	0.630839	0.874849
	C151	C	0.336899	0.390428	0.104299
	C152	C	0.898523	0.684225	0.371517
	C153	C	0.128398	0.684257	0.608889
	C154	C	0.900017	0.330824	0.609762
	C155	C	0.129415	0.333012	0.371863
	C156	C	0.899571	0.387894	0.667717
	C157	C	0.127932	0.627763	0.667711
	C158	C	0.899157	0.628351	0.312434
	C159	C	0.128724	0.389386	0.312885
	C160	C	0.395280	0.685383	0.873594
	C161	C	0.632626	0.686498	0.104125
	C162	C	0.630750	0.335409	0.873023
	C163	C	0.394790	0.333380	0.104278
	C164	C	0.688845	0.892068	0.370908
	C165	C	0.691079	0.122795	0.609898
	C166	C	0.338058	0.892726	0.607877
	C167	C	0.335104	0.123441	0.368903
	C168	C	0.894805	0.393362	0.166693
	C169	C	0.132592	0.625796	0.165916
	C170	C	0.130629	0.393392	0.815992
	C171	C	0.894214	0.624991	0.813190
	C172	C	0.190017	0.888121	0.374716
	C173	C	0.191104	0.127188	0.604826
	C174	C	0.835516	0.128879	0.375730
	C175	C	0.837277	0.887862	0.605525
	C176	C	0.398247	0.186495	0.869071
	C177	C	0.628095	0.186020	0.107215
	C178	C	0.397937	0.833086	0.106378
	C179	C	0.627702	0.833239	0.870406
	C180	C	0.397822	0.889744	0.164844
	C181	C	0.627038	0.129963	0.167069
	C182	C	0.398817	0.129764	0.810539
	C183	C	0.627699	0.889978	0.812779
	C184	C	0.895017	0.185364	0.374955
	C185	C	0.133075	0.183730	0.605621
	C186	C	0.131071	0.832543	0.374375
	C187	C	0.896284	0.832445	0.606098
	C188	C	0.188930	0.393991	0.871728
	C189	C	0.189985	0.626115	0.108950
	C190	C	0.836520	0.393825	0.110518
	C191	C	0.837342	0.625301	0.870379
	C192	C	0.414277	0.104542	0.586689
	C193	C	0.613017	0.911559	0.589640
	C194	C	0.611483	0.103243	0.391695
	C195	C	0.412958	0.912225	0.390313
	C196	C	0.613427	0.410555	0.084129
	C197	C	0.613963	0.608963	0.893818
	C198	C	0.413089	0.609521	0.084945
	C199	C	0.411379	0.410936	0.893572
	C200	C	0.108037	0.608081	0.390747
	C201	C	0.918697	0.607786	0.590414
	C202	C	0.109127	0.408730	0.592304
	C203	C	0.920001	0.409737	0.390330
	C204	C	0.914409	0.604688	0.088530
	C205	C	0.113647	0.414254	0.088921
	C206	C	0.112633	0.605912	0.890863
	C207	C	0.913169	0.413511	0.891765
	C208	C	0.114929	0.908220	0.585474
	C209	C	0.112855	0.108059	0.394922
	C210	C	0.914093	0.107021	0.585174
	C211	C	0.911944	0.908778	0.394801
	C212	C	0.607792	0.110935	0.887636
	C213	C	0.418427	0.109267	0.088488
	C214	C	0.607327	0.910746	0.089534
	C215	C	0.418100	0.909840	0.887617
	Zn216	Zn	0.513551	0.008934	0.737996
	Zn217	Zn	0.512305	0.008666	0.240518
	Zn218	Zn	0.763585	0.509515	-0.010322
	Zn219	Zn	0.262580	0.510729	-0.010168
	Zn220	Zn	0.013440	0.758815	0.490337
	Zn221	Zn	0.014894	0.258710	0.490619
	Zn222	Zn	0.012733	0.508739	0.741745
	Zn223	Zn	0.014039	0.509483	0.239099
	Zn224	Zn	0.513300	0.759140	-0.011519
	Zn225	Zn	0.513349	0.261015	-0.011476
	Zn226	Zn	0.762602	0.007631	0.490600
	Zn227	Zn	0.263811	0.008310	0.489269
	N228	N	0.429036	0.971247	0.665303
	N229	N	0.598565	0.045776	0.665963
	N230	N	0.597323	0.970473	0.312724
	N231	N	0.426505	0.045667	0.311610
	N232	N	0.693060	0.422730	0.952794
	N233	N	0.693257	0.596675	0.026147
	N234	N	0.333074	0.598112	0.953354
	N235	N	0.334039	0.423952	0.026194
	N236	N	0.975914	0.685720	0.405565
	N237	N	0.050830	0.685822	0.575171
	N238	N	0.977447	0.329878	0.576626
	N239	N	0.051913	0.331383	0.405387
	N240	N	0.977158	0.421847	0.670091
	N241	N	0.049963	0.594796	0.670018
	N242	N	0.977000	0.595448	0.310521
	N243	N	0.050930	0.422352	0.310476
	N244	N	0.429511	0.685992	0.951372
	N245	N	0.598908	0.687371	0.026109
	N246	N	0.597325	0.333956	0.950901
	N247	N	0.427288	0.331941	0.026113
	N248	N	0.690690	0.970373	0.404794
	N249	N	0.692761	0.043873	0.577562
	N250	N	0.335872	0.971137	0.574458
	N251	N	0.333842	0.044829	0.402651
	N252	N	0.928944	0.471537	0.167117
	N253	N	0.099161	0.547368	0.167105
	N254	N	0.097082	0.471871	0.814550
	N255	N	0.927127	0.546425	0.812151
	N256	N	0.192991	0.921033	0.453047
	N257	N	0.192789	0.094412	0.526456
	N258	N	0.833503	0.095266	0.453758
	N259	N	0.834028	0.920966	0.527253
	N260	N	0.475736	0.188432	0.902836
	N261	N	0.550720	0.187412	0.072830
	N262	N	0.475688	0.831656	0.073385
	N263	N	0.550222	0.831937	0.903506
	N264	N	0.475524	0.923296	0.167525
	N265	N	0.549019	0.097349	0.169791
	N266	N	0.476605	0.096879	0.808470
	N267	N	0.549973	0.923446	0.810493
	N268	N	0.929321	0.186118	0.452630
	N269	N	0.099119	0.185398	0.527835
	N270	N	0.098104	0.831221	0.452408
	N271	N	0.929379	0.831508	0.528008
	N272	N	0.191302	0.472952	0.904165
	N273	N	0.191879	0.547559	0.075749
	N274	N	0.834418	0.472287	0.076878
	N275	N	0.835570	0.546806	0.904444
	O276	O	1.040632	0.977669	0.093588
	H277	H	1.024615	0.982205	0.092629
	H278	H	1.037669	0.976326	0.101869
	O279	O	0.022031	0.017338	0.972777
	H280	H	0.023221	0.019255	0.971651
	H281	H	0.027867	0.023459	0.976274
	O282	O	-0.046162	0.002899	0.000284
	H283	H	-0.035747	0.005977	-0.003564
	H284	H	-0.064674	-0.003879	-0.001381
	O285	O	0.626534	0.445951	0.462532
	H286	H	0.636040	0.432387	0.458379
	H287	H	0.637666	0.439342	0.465746
	O288	O	-0.942866	-0.903376	0.000707
	H289	H	-0.938242	-0.902921	-0.007918
	H290	H	-0.932797	-0.906642	-0.000968
	O291	O	-0.017037	1.045398	0.035195
	H292	H	-0.020050	1.061346	0.026271
	H293	H	-0.023580	1.047247	0.030910
	O294	O	0.038008	0.964520	-0.017714
	H295	H	0.041688	0.965653	-0.010020
	H296	H	0.026893	0.959185	-0.011293
	O297	O	0.516534	0.524290	0.479514
	H298	H	0.515589	0.522491	0.474188
	H299	H	0.519066	0.527556	0.479487
	O300	O	0.544005	0.552268	0.448422
	H301	H	0.548752	0.565613	0.442869
	H302	H	0.538894	0.543689	0.446673
	O303	O	1.071848	0.002187	1.060864
	H304	H	1.073528	-0.012037	1.059519
	H305	H	1.069306	0.008731	1.071082
	O306	O	-0.006393	1.130982	1.030158
	H307	H	-0.017536	1.134524	1.021218
	H308	H	-0.001317	1.138335	1.027467
	O309	O	-0.019358	1.029575	0.964203
	H310	H	-0.005191	1.027960	0.966955
	H311	H	-0.022701	1.032843	0.957503
	O312	O	-0.077371	0.037256	0.939064
	H313	H	-0.082062	0.033273	0.941767
	H314	H	-0.081602	0.037323	0.932098
	O315	O	0.477281	0.515976	0.492823
	H316	H	0.472872	0.513297	0.493381
	H317	H	0.487266	0.500628	0.483990
	O318	O	-0.065847	0.047615	1.002934
	H319	H	-0.068262	0.049582	0.999300
	H320	H	-0.054411	0.044692	1.004125
	O321	O	0.500490	0.504246	0.513605
	H322	H	0.497908	0.505965	0.509751
	H323	H	0.503196	0.498744	0.516109
	O324	O	0.476658	-0.531575	1.454991
	H325	H	0.473633	-0.527697	1.453690
	H326	H	0.473462	-0.531693	1.452657
	O327	O	1.022782	1.039160	0.995563
	H328	H	1.026485	1.035808	1.000070
	H329	H	1.020680	1.046103	1.000038
	O330	O	0.037851	0.025071	0.956687
	H331	H	0.043199	0.024766	0.959868
	H332	H	0.031209	0.019760	0.961877
	O333	O	0.633273	0.450829	0.475613
	H334	H	0.629623	0.462475	0.469841
	H335	H	0.646107	0.448289	0.478190
	O336	O	0.534575	0.544406	0.473654
	H337	H	0.534554	0.543813	0.473376
	H338	H	0.526007	0.545211	0.482016
	O339	O	0.565854	0.436093	0.443459
	H340	H	0.564762	0.439390	0.449122
	H341	H	0.567864	0.439153	0.447457
	O342	O	0.506618	0.428669	0.438908
	H343	H	0.507069	0.430226	0.446399
	H344	H	0.504780	0.422481	0.435116
	O345	O	0.563798	0.500337	0.442494
	H346	H	0.558248	0.505067	0.437592
	H347	H	0.554882	0.509979	0.447064
