data_Molecule from HDF5

_cell_length_a		16.462452
_cell_length_b		16.477738
_cell_length_c		16.498523
_cell_angle_alpha	89.941478
_cell_angle_beta	89.921509
_cell_angle_gamma	90.052472
_symmetry_space_group_name_H-M	'P 1'
_symmetry_Int_Tables_number		1

loop_
	_symmetry_equiv_pos_as_xyz
	x,y,z

loop_
	_atom_site_label
	_atom_site_type_symbol
	_atom_site_fract_x
	_atom_site_fract_y
	_atom_site_fract_z
	H0	H	0.392746	0.843983	0.733019
	H1	H	0.603607	0.159781	0.734586
	H2	H	0.604876	0.846151	0.289625
	H3	H	0.390829	0.159297	0.287400
	H4	H	0.718443	0.398432	0.855520
	H5	H	0.719392	0.606593	0.170861
	H6	H	0.277168	0.607949	0.854588
	H7	H	0.273520	0.394081	0.169261
	H8	H	0.839585	0.725175	0.407230
	H9	H	0.154617	0.726357	0.619596
	H10	H	0.841276	0.280230	0.618516
	H11	H	0.155750	0.280739	0.403882
	H12	H	0.841304	0.397907	0.733524
	H13	H	0.156133	0.608233	0.733504
	H14	H	0.840044	0.610382	0.289541
	H15	H	0.154424	0.395816	0.287369
	H16	H	0.394775	0.722908	0.854328
	H17	H	0.604293	0.724410	0.170462
	H18	H	0.602078	0.282827	0.854771
	H19	H	0.389640	0.277805	0.168720
	H20	H	0.719690	0.845383	0.406837
	H21	H	0.720144	0.160354	0.617889
	H22	H	0.277243	0.843480	0.616697
	H23	H	0.274415	0.159106	0.403372
	H24	H	0.885851	0.347040	0.240037
	H25	H	0.104573	0.660277	0.235359
	H26	H	0.106326	0.346517	0.788912
	H27	H	0.894974	0.659825	0.792569
	H28	H	0.222458	0.893024	0.354907
	H29	H	0.220475	0.107479	0.668343
	H30	H	0.775315	0.110464	0.353560
	H31	H	0.776367	0.898518	0.668313
	H32	H	0.340195	0.225134	0.905919
	H33	H	0.654634	0.228584	0.120685
	H34	H	0.340261	0.779421	0.119540
	H35	H	0.655385	0.781595	0.907014
	H36	H	0.340624	0.895293	0.235783
	H37	H	0.654479	0.112609	0.236713
	H38	H	0.339986	0.108887	0.789876
	H39	H	0.654388	0.897554	0.789698
	H40	H	0.891084	0.227369	0.354189
	H41	H	0.105875	0.225146	0.667761
	H42	H	0.103879	0.778519	0.355096
	H43	H	0.893418	0.782779	0.669031
	H44	H	0.222375	0.346669	0.904977
	H45	H	0.221325	0.660095	0.119374
	H46	H	0.771780	0.346105	0.122821
	H47	H	0.778339	0.659955	0.909009
	H48	H	0.404345	0.116730	0.603340
	H49	H	0.588878	0.889412	0.601432
	H50	H	0.579541	0.113285	0.425782
	H51	H	0.412679	0.891447	0.424340
	H52	H	0.584268	0.409385	0.127404
	H53	H	0.593412	0.586973	0.900279
	H54	H	0.410521	0.593597	0.125203
	H55	H	0.410826	0.414670	0.900951
	H56	H	0.109729	0.591868	0.422555
	H57	H	0.881469	0.593650	0.611374
	H58	H	0.111569	0.413492	0.598321
	H59	H	0.883379	0.413265	0.420696
	H60	H	0.111195	0.416022	0.602124
	H61	H	0.884793	0.599318	0.595416
	H62	H	0.108780	0.591256	0.428069
	H63	H	0.888081	0.411854	0.432702
	H64	H	0.406568	0.590121	0.125496
	H65	H	0.580806	0.591835	0.902850
	H66	H	0.588750	0.418396	0.125967
	H67	H	0.409525	0.413500	0.900587
	H68	H	0.588938	0.114462	0.427679
	H69	H	0.585135	0.889803	0.602301
	H70	H	0.414049	0.114297	0.604041
	H71	H	0.409755	0.890844	0.426205
	H72	H	0.907995	0.612922	0.096626
	H73	H	0.082836	0.393451	0.098126
	H74	H	0.082705	0.613246	0.926518
	H75	H	0.911164	0.390752	0.926703
	H76	H	0.084587	0.915337	0.622477
	H77	H	0.087911	0.085309	0.400190
	H78	H	0.905039	0.092928	0.624917
	H79	H	0.914956	0.911428	0.399181
	H80	H	0.610751	0.092033	0.921016
	H81	H	0.389929	0.081031	0.099791
	H82	H	0.612583	0.909894	0.102206
	H83	H	0.383060	0.911293	0.922809
	H84	H	0.608779	0.914512	0.096584
	H85	H	0.383850	0.092792	0.105784
	H86	H	0.610283	0.094200	0.923716
	H87	H	0.386239	0.914070	0.927397
	H88	H	0.909272	0.086745	0.620865
	H89	H	0.080592	0.091188	0.400289
	H90	H	0.087055	0.910866	0.624665
	H91	H	0.905093	0.911974	0.395742
	H92	H	0.093768	0.616555	0.926435
	H93	H	0.085760	0.391671	0.098372
	H94	H	0.907393	0.615173	0.102999
	H95	H	0.904189	0.386963	0.924180
	H96	H	0.409138	0.113483	0.595259
	H97	H	0.586681	0.891023	0.598603
	H98	H	0.585177	0.116362	0.419458
	H99	H	0.410080	0.889700	0.422198
	H100	H	0.579508	0.416677	0.122274
	H101	H	0.590563	0.599728	0.897654
	H102	H	0.411796	0.589186	0.123637
	H103	H	0.408830	0.415320	0.900822
	H104	H	0.107362	0.587384	0.424052
	H105	H	0.888544	0.583296	0.599787
	H106	H	0.112692	0.412499	0.602350
	H107	H	0.889411	0.423467	0.426581
	H108	H	0.913469	0.612724	0.100597
	H109	H	0.083506	0.391049	0.101080
	H110	H	0.087120	0.618138	0.916842
	H111	H	0.910190	0.388179	0.919566
	H112	H	0.089921	0.915504	0.624447
	H113	H	0.089047	0.094484	0.397787
	H114	H	0.912921	0.094034	0.622864
	H115	H	0.909160	0.920172	0.400779
	H116	H	0.609553	0.090932	0.923727
	H117	H	0.388206	0.093192	0.091950
	H118	H	0.609978	0.917860	0.104073
	H119	H	0.385551	0.916452	0.921729
	C120	C	0.376857	0.010113	0.632917
	C121	C	0.619178	0.994357	0.633581
	C122	C	0.618359	0.011170	0.391099
	C123	C	0.376749	0.994054	0.390149
	C124	C	0.617682	0.382300	0.021348
	C125	C	0.620484	0.624762	1.004191
	C126	C	0.377166	0.623427	0.020604
	C127	C	0.375851	0.380816	1.004165
	C128	C	0.005135	0.623894	0.391320
	C129	C	0.989404	0.624409	0.634296
	C130	C	0.007374	0.381386	0.633486
	C131	C	0.989908	0.381914	0.391249
	C132	C	0.875356	0.510609	0.134692
	C133	C	0.118016	0.495225	0.132730
	C134	C	0.120564	0.511694	0.890627
	C135	C	0.876856	0.493376	0.891594
	C136	C	0.119988	0.880156	0.520235
	C137	C	0.119601	0.123354	0.502979
	C138	C	0.876174	0.124919	0.519213
	C139	C	0.877141	0.882454	0.502931
	C140	C	0.505981	0.124806	0.889940
	C141	C	0.490619	0.123795	0.133164
	C142	C	0.506276	0.881031	0.133945
	C143	C	0.489263	0.881947	0.891658
	C144	C	0.374713	0.891330	0.693057
	C145	C	0.622012	0.112636	0.694567
	C146	C	0.622297	0.892930	0.330221
	C147	C	0.373005	0.112188	0.328215
	C148	C	0.678071	0.380216	0.902682
	C149	C	0.679838	0.625869	0.123381
	C150	C	0.317595	0.625701	0.901873
	C151	C	0.314090	0.376797	0.122049
	C152	C	0.886875	0.684924	0.388576
	C153	C	0.107749	0.685377	0.636762
	C154	C	0.888847	0.320618	0.636370
	C155	C	0.108122	0.320803	0.386370
	C156	C	0.888560	0.379199	0.693653
	C157	C	0.108242	0.626900	0.693947
	C158	C	0.887103	0.627754	0.330027
	C159	C	0.107431	0.378131	0.328372
	C160	C	0.376025	0.683086	0.901586
	C161	C	0.622485	0.684303	0.123110
	C162	C	0.620374	0.322462	0.902381
	C163	C	0.371907	0.318853	0.121887
	C164	C	0.679711	0.892954	0.388321
	C165	C	0.679860	0.112858	0.636350
	C166	C	0.317171	0.891206	0.634886
	C167	C	0.315152	0.112184	0.386041
	C168	C	0.869772	0.393741	0.198421
	C169	C	0.122113	0.613157	0.194457
	C170	C	0.123826	0.393511	0.829618
	C171	C	0.876034	0.612474	0.832451
	C172	C	0.181272	0.876038	0.401869
	C173	C	0.180796	0.126209	0.620975
	C174	C	0.815369	0.128289	0.400894
	C175	C	0.816731	0.880349	0.621356
	C176	C	0.387404	0.184884	0.887736
	C177	C	0.607743	0.186896	0.137787
	C178	C	0.387764	0.819909	0.137348
	C179	C	0.608003	0.821829	0.888999
	C180	C	0.387896	0.877675	0.195353
	C181	C	0.607702	0.129227	0.195838
	C182	C	0.387510	0.127193	0.829827
	C183	C	0.607640	0.879346	0.830559
	C184	C	0.873197	0.186613	0.401472
	C185	C	0.123538	0.184618	0.620700
	C186	C	0.122723	0.818813	0.402071
	C187	C	0.874762	0.822726	0.621639
	C188	C	0.181562	0.393682	0.887371
	C189	C	0.180323	0.613093	0.136782
	C190	C	0.812731	0.393183	0.139849
	C191	C	0.818028	0.612466	0.890398
	C192	C	0.401948	0.093058	0.607862
	C193	C	0.593947	0.911598	0.608242
	C194	C	0.592148	0.093252	0.416904
	C195	C	0.403266	0.912215	0.416514
	C196	C	0.591714	0.407612	0.103674
	C197	C	0.595470	0.600093	0.921654
	C198	C	0.402246	0.598095	0.103259
	C199	C	0.402192	0.406894	0.922220
	C200	C	0.087255	0.597660	0.417424
	C201	C	0.906668	0.599093	0.609469
	C202	C	0.090354	0.406715	0.608134
	C203	C	0.908380	0.408636	0.418656
	C204	C	0.902248	0.592291	0.107750
	C205	C	0.091508	0.413510	0.106684
	C206	C	0.095056	0.594271	0.916044
	C207	C	0.901534	0.410304	0.916317
	C208	C	0.094624	0.906279	0.602405
	C209	C	0.093437	0.097703	0.420806
	C210	C	0.901936	0.098866	0.601286
	C211	C	0.902463	0.907451	0.420246
	C212	C	0.588752	0.099555	0.915541
	C213	C	0.408696	0.096730	0.106647
	C214	C	0.588955	0.906732	0.108373
	C215	C	0.406562	0.906857	0.916882
	Zn216	Zn	0.497251	0.002683	0.762212
	Zn217	Zn	0.498304	0.002851	0.261841
	Zn218	Zn	0.747498	0.501773	0.012801
	Zn219	Zn	0.247845	0.502674	0.012577
	Zn220	Zn	-0.002649	0.752391	0.512198
	Zn221	Zn	-0.000813	0.253011	0.511782
	Zn222	Zn	-0.001370	0.502575	0.762785
	Zn223	Zn	-0.002743	0.503119	0.262636
	Zn224	Zn	0.498042	0.752563	0.012711
	Zn225	Zn	0.497603	0.252513	0.012181
	Zn226	Zn	0.747623	0.003159	0.511367
	Zn227	Zn	0.248295	0.002013	0.511215
	N228	N	0.410778	0.966628	0.692147
	N229	N	0.585235	0.037788	0.693030
	N230	N	0.585267	0.967519	0.331539
	N231	N	0.410390	0.037658	0.330638
	N232	N	0.676554	0.416469	0.977587
	N233	N	0.678982	0.589719	0.048485
	N234	N	0.318012	0.589681	0.977102
	N235	N	0.316427	0.414613	0.047794
	N236	N	0.961489	0.682824	0.425596
	N237	N	0.032634	0.684254	0.600483
	N238	N	0.963902	0.321793	0.599808
	N239	N	0.033875	0.322839	0.424437
	N240	N	0.963426	0.415930	0.692092
	N241	N	0.033699	0.589652	0.692392
	N242	N	0.961792	0.590526	0.331763
	N243	N	0.032637	0.415218	0.331067
	N244	N	0.412226	0.681946	0.976627
	N245	N	0.586539	0.683903	0.048042
	N246	N	0.583765	0.323387	0.977303
	N247	N	0.409413	0.321102	0.047618
	N248	N	0.677562	0.967688	0.425278
	N249	N	0.678179	0.038370	0.599046
	N250	N	0.318306	0.966188	0.598316
	N251	N	0.317183	0.037755	0.423729
	N252	N	0.907982	0.467875	0.195344
	N253	N	0.084054	0.538960	0.192114
	N254	N	0.086368	0.468047	0.831636
	N255	N	0.911692	0.537280	0.833006
	N256	N	0.179730	0.913427	0.476321
	N257	N	0.178374	0.088884	0.546666
	N258	N	0.816810	0.090845	0.475313
	N259	N	0.818250	0.916927	0.546518
	N260	N	0.462326	0.183560	0.924348
	N261	N	0.533810	0.183561	0.099423
	N262	N	0.462399	0.821752	0.099956
	N263	N	0.533566	0.823451	0.926436
	N264	N	0.462645	0.914851	0.193269
	N265	N	0.533683	0.090655	0.192902
	N266	N	0.462377	0.090485	0.831216
	N267	N	0.532936	0.916159	0.832306
	N268	N	0.909913	0.184883	0.476176
	N269	N	0.086481	0.183165	0.546163
	N270	N	0.085710	0.821006	0.476719
	N271	N	0.911832	0.824160	0.547008
	N272	N	0.179661	0.468242	0.924359
	N273	N	0.178065	0.538609	0.099460
	N274	N	0.816008	0.466947	0.101082
	N275	N	0.818344	0.537208	0.926492
	O276	O	0.187295	0.195615	0.201515
	H277	H	0.169977	0.196279	0.186146
	H278	H	0.166308	0.176288	0.205703
	O279	O	0.490725	0.667647	0.296327
	H280	H	0.507942	0.669545	0.302125
	H281	H	0.491964	0.688777	0.286729
	O282	O	0.430742	0.284832	0.447437
	H283	H	0.421023	0.281203	0.465970
	H284	H	0.424648	0.284292	0.449204
	O285	O	0.283064	0.284332	0.533477
	H286	H	0.283194	0.284043	0.557773
	H287	H	0.264781	0.262481	0.543441
	O288	O	0.006588	0.156101	-0.204572
	H289	H	-0.016629	0.163724	-0.208326
	H290	H	0.008161	0.174314	-0.204825
	O291	O	1.109485	1.040454	-0.031190
	H292	H	1.116258	1.019172	-0.052215
	H293	H	1.114074	1.047532	-0.032638
	O294	O	-0.008880	0.804039	0.199033
	H295	H	0.004062	0.818204	0.205413
	H296	H	-0.004712	0.789605	0.211569
	O297	O	0.512894	0.297676	0.314639
	H298	H	0.499792	0.280467	0.293164
	H299	H	0.493128	0.299157	0.332579
	O300	O	0.487990	0.456755	0.465963
	H301	H	0.491539	0.462684	0.466908
	H302	H	0.482570	0.462229	0.459835
	O303	O	0.431554	0.371094	0.408359
	H304	H	0.428288	0.361770	0.414804
	H305	H	0.450330	0.380306	0.419516
	O306	O	-0.130716	1.059360	1.201566
	H307	H	-0.111619	1.056623	1.188022
	H308	H	-0.128975	1.078710	1.186733
	O309	O	0.384110	0.718908	0.527769
	H310	H	0.363132	0.735932	0.518288
	H311	H	0.372291	0.703899	0.531903
	O312	O	-0.091860	0.978181	-0.204056
	H313	H	-0.108754	0.985428	-0.209788
	H314	H	-0.087313	0.973502	-0.195229
	O315	O	0.086054	0.072351	0.834850
	H316	H	0.081303	0.087457	0.813722
	H317	H	0.073093	0.066663	0.831666
	O318	O	0.280336	0.664151	0.509464
	H319	H	0.291416	0.647700	0.485608
	H320	H	0.257842	0.674202	0.507120
	O321	O	0.632303	0.527966	0.722271
	H322	H	0.630604	0.524842	0.719756
	H323	H	0.635629	0.527686	0.722412
	O324	O	0.864964	0.209150	0.803667
	H325	H	0.865755	0.211920	0.805382
	H326	H	0.832276	0.218712	0.786637
	O327	O	1.209361	0.211629	1.028594
	H328	H	1.209344	0.199133	1.047279
	H329	H	1.232028	0.236210	1.015004
	O330	O	0.765397	0.247032	-0.214963
	H331	H	0.749054	0.257226	-0.222087
	H332	H	0.746043	0.253545	-0.216222
	O333	O	1.028465	1.226945	0.985135
	H334	H	1.034290	1.227760	0.982846
	H335	H	1.042112	1.226506	0.974596
	O336	O	0.718351	-0.253808	0.750505
	H337	H	0.732923	-0.281352	0.744265
	H338	H	0.741543	-0.232137	0.779014
	O339	O	0.372825	0.608676	0.608055
	H340	H	0.391472	0.620953	0.592239
	H341	H	0.351222	0.609896	0.592581
	O342	O	0.673256	0.320012	0.327676
	H343	H	0.638357	0.326317	0.316129
	H344	H	0.669442	0.335021	0.333744
	O345	O	0.650925	0.704944	0.541790
	H346	H	0.656168	0.724716	0.539912
	H347	H	0.644397	0.700528	0.564628
	O348	O	1.189379	-0.184775	0.826422
	H349	H	1.166589	-0.169498	0.820415
	H350	H	1.172052	-0.175776	0.833012
	O351	O	0.915032	1.205490	0.095516
	H352	H	0.916572	1.194005	0.099838
	H353	H	0.923084	1.211163	0.067990
	O354	O	0.576796	0.595196	0.321935
	H355	H	0.586478	0.593464	0.328856
	H356	H	0.581751	0.607062	0.324433
	O357	O	1.213074	1.026949	1.231924
	H358	H	1.228354	1.040403	1.248691
	H359	H	1.220574	1.020330	1.227816
	O360	O	0.281008	0.527927	0.296316
	H361	H	0.295433	0.510722	0.295611
	H362	H	0.260662	0.521649	0.271806
	O363	O	1.124943	0.062294	-0.087910
	H364	H	1.124714	0.079554	-0.077029
	H365	H	1.127133	0.064240	-0.089811
	O366	O	1.026691	-0.073876	1.055144
	H367	H	1.038514	-0.069542	1.051224
	H368	H	1.041116	-0.081152	1.043481
	O369	O	0.781571	0.783948	0.038451
	H370	H	0.771348	0.772040	0.068843
	H371	H	0.774316	0.770720	0.063875
	O372	O	0.297979	0.495641	0.502314
	H373	H	0.288774	0.500784	0.500883
	H374	H	0.293629	0.484981	0.499548
	O375	O	-0.122948	1.057071	1.063672
	H376	H	-0.114559	1.042632	1.063483
	H377	H	-0.109031	1.053798	1.072624
	O378	O	0.308208	0.691636	0.323650
	H379	H	0.339458	0.700691	0.335499
	H380	H	0.303934	0.645452	0.313998
	O381	O	1.209824	-0.025813	-0.193773
	H382	H	1.213986	-0.034084	-0.199280
	H383	H	1.212800	-0.011629	-0.195977
	O384	O	-0.143185	-0.044418	1.019708
	H385	H	-0.149577	-0.049666	1.023376
	H386	H	-0.142629	-0.048321	1.014817
	O387	O	-0.046436	0.841990	0.953466
	H388	H	-0.037159	0.840637	0.971481
	H389	H	-0.052749	0.837305	0.970735
	O390	O	-0.115886	0.012479	1.053040
	H391	H	-0.115645	0.003091	1.067333
	H392	H	-0.121251	0.019288	1.055049
	O393	O	0.972934	0.801582	-0.192695
	H394	H	0.967265	0.800852	-0.178748
	H395	H	0.965393	0.804484	-0.185667
	O396	O	0.723583	0.495174	0.512571
	H397	H	0.709844	0.496893	0.509411
	H398	H	0.720454	0.483482	0.508051
	O399	O	0.553415	0.363695	0.547631
	H400	H	0.563002	0.352016	0.548313
	H401	H	0.547133	0.365645	0.538296
	O402	O	-0.168910	-0.120337	0.840757
	H403	H	-0.156745	-0.115187	0.845312
	H404	H	-0.159370	-0.113570	0.862966
	O405	O	0.086902	-0.174476	0.113548
	H406	H	0.109900	-0.193869	0.110929
	H407	H	0.078434	-0.155780	0.125830
	O408	O	0.580336	0.694890	0.355634
	H409	H	0.583445	0.701451	0.369240
	H410	H	0.585386	0.677185	0.363390
	O411	O	0.052792	0.948312	0.227868
	H412	H	0.059901	0.957065	0.206625
	H413	H	0.053307	0.954612	0.235104
	O414	O	0.471937	0.293636	0.716873
	H415	H	0.468204	0.293254	0.717777
	H416	H	0.481569	0.295439	0.729263
	O417	O	0.554037	0.622385	0.613476
	H418	H	0.551607	0.615641	0.609540
	H419	H	0.559889	0.640335	0.625160
	O420	O	0.704085	0.484245	0.307858
	H421	H	0.713404	0.478193	0.318369
	H422	H	0.714035	0.491074	0.299040
	O423	O	0.191694	0.928522	0.063121
	H424	H	0.202172	0.937921	0.071083
	H425	H	0.185180	0.903862	0.056452
	O426	O	0.784354	1.218025	0.983978
	H427	H	0.792095	1.197508	0.985850
	H428	H	0.751312	1.243149	0.980304
	O429	O	0.390426	0.447348	0.466652
	H430	H	0.384350	0.438800	0.464012
	H431	H	0.374637	0.460331	0.476214
	O432	O	0.310448	0.316944	0.695221
	H433	H	0.339419	0.306490	0.691523
	H434	H	0.308204	0.365626	0.706486
	O435	O	0.024447	0.219728	0.229109
	H436	H	0.015669	0.234704	0.241637
	H437	H	0.011250	0.230323	0.221947
	O438	O	1.199298	-0.209197	-0.007931
	H439	H	1.217633	-0.225922	-0.021481
	H440	H	1.189233	-0.207818	-0.024317
	O441	O	0.786666	0.940600	0.222093
	H442	H	0.798555	0.957867	0.220117
	H443	H	0.770807	0.958008	0.252293
	O444	O	0.623584	0.499785	0.524129
	H445	H	0.619578	0.504406	0.537257
	H446	H	0.622462	0.505843	0.535572
	O447	O	0.716495	0.282359	0.478660
	H448	H	0.703865	0.296287	0.454089
	H449	H	0.752115	0.246208	0.474750
	O450	O	0.522770	0.678442	0.715443
	H451	H	0.539142	0.703643	0.733015
	H452	H	0.542095	0.682644	0.694944
	O453	O	0.534227	0.646119	0.596108
	H454	H	0.530418	0.634791	0.598045
	H455	H	0.524594	0.651882	0.593786
	O456	O	0.840822	-0.194672	0.207466
	H457	H	0.838162	-0.164955	0.217901
	H458	H	0.857699	-0.194275	0.220005
	O459	O	0.294804	0.480458	0.718914
	H460	H	0.292845	0.491186	0.738929
	H461	H	0.301514	0.505002	0.720616
	O462	O	0.601832	0.489416	0.666026
	H463	H	0.605040	0.495358	0.654864
	H464	H	0.604393	0.488552	0.651807
	O465	O	0.807638	0.072446	-0.187340
	H466	H	0.784110	0.075721	-0.182875
	H467	H	0.806744	0.062129	-0.177738
