data_Molecule from HDF5

_cell_length_a		16.378156
_cell_length_b		16.292516
_cell_length_c		16.003271
_cell_angle_alpha	90.214892
_cell_angle_beta	90.069966
_cell_angle_gamma	90.491527
_symmetry_space_group_name_H-M	'P 1'
_symmetry_Int_Tables_number		1

loop_
	_symmetry_equiv_pos_as_xyz
	x,y,z

loop_
	_atom_site_label
	_atom_site_type_symbol
	_atom_site_fract_x
	_atom_site_fract_y
	_atom_site_fract_z
	H0	H	0.410193	0.833223	0.696050
	H1	H	0.607684	0.161051	0.698650
	H2	H	0.605269	0.833904	0.270503
	H3	H	0.415242	0.162569	0.273098
	H4	H	0.723135	0.395827	0.818135
	H5	H	0.727212	0.599659	0.147730
	H6	H	0.296059	0.595039	0.818061
	H7	H	0.291988	0.393857	0.148227
	H8	H	0.849006	0.714111	0.379158
	H9	H	0.170975	0.718574	0.588203
	H10	H	0.848252	0.278364	0.582550
	H11	H	0.172210	0.279590	0.379211
	H12	H	0.846630	0.397769	0.695805
	H13	H	0.173309	0.596430	0.698577
	H14	H	0.846334	0.591536	0.268629
	H15	H	0.173667	0.400712	0.268769
	H16	H	0.409453	0.710027	0.818625
	H17	H	0.609924	0.711023	0.148972
	H18	H	0.606487	0.282089	0.818709
	H19	H	0.410743	0.284068	0.150875
	H20	H	0.725166	0.835320	0.380522
	H21	H	0.729111	0.158957	0.589160
	H22	H	0.288063	0.837399	0.588135
	H23	H	0.294302	0.160297	0.382313
	H24	H	0.912347	0.331975	0.192190
	H25	H	0.109263	0.659852	0.196231
	H26	H	0.103253	0.331690	0.770234
	H27	H	0.913376	0.660452	0.767655
	H28	H	0.225072	0.897899	0.319009
	H29	H	0.225703	0.101589	0.648756
	H30	H	0.794710	0.095725	0.318327
	H31	H	0.793402	0.894750	0.649362
	H32	H	0.347007	0.211283	0.884663
	H33	H	0.670768	0.218236	0.089412
	H34	H	0.347204	0.777719	0.086368
	H35	H	0.670978	0.779508	0.881573
	H36	H	0.344811	0.901446	0.196238
	H37	H	0.673559	0.095137	0.198521
	H38	H	0.345829	0.090968	0.772351
	H39	H	0.671791	0.898948	0.769033
	H40	H	0.912231	0.207723	0.315712
	H41	H	0.109812	0.213883	0.648222
	H42	H	0.109419	0.783257	0.318070
	H43	H	0.909770	0.781891	0.649057
	H44	H	0.225260	0.334118	0.879028
	H45	H	0.229430	0.657041	0.087834
	H46	H	0.790613	0.335212	0.083996
	H47	H	0.791671	0.658760	0.876722
	H48	H	0.419359	0.114949	0.581292
	H49	H	0.599043	0.882288	0.572433
	H50	H	0.597073	0.110951	0.397586
	H51	H	0.416664	0.882544	0.393751
	H52	H	0.603351	0.407033	0.103444
	H53	H	0.600766	0.582956	0.865675
	H54	H	0.416664	0.595219	0.105910
	H55	H	0.413462	0.401344	0.863641
	H56	H	0.124276	0.589179	0.392709
	H57	H	0.895540	0.584663	0.576578
	H58	H	0.126079	0.399726	0.571319
	H59	H	0.890474	0.400035	0.377832
	H60	H	0.123296	0.409681	0.573047
	H61	H	0.892966	0.593406	0.575678
	H62	H	0.126651	0.592274	0.387613
	H63	H	0.892890	0.391541	0.395843
	H64	H	0.411640	0.579394	0.101680
	H65	H	0.596952	0.591551	0.864531
	H66	H	0.601611	0.408348	0.102393
	H67	H	0.416408	0.405712	0.865905
	H68	H	0.613142	0.115106	0.399338
	H69	H	0.607597	0.879555	0.573019
	H70	H	0.419531	0.113375	0.573711
	H71	H	0.413767	0.881305	0.393243
	H72	H	0.902558	0.617075	0.070034
	H73	H	0.106991	0.376409	0.078577
	H74	H	0.104560	0.614520	0.886317
	H75	H	0.918830	0.378807	0.879064
	H76	H	0.097203	0.907078	0.601663
	H77	H	0.098829	0.089921	0.365471
	H78	H	0.912875	0.090686	0.604387
	H79	H	0.925905	0.911353	0.370330
	H80	H	0.625785	0.087918	0.888883
	H81	H	0.392235	0.087284	0.084030
	H82	H	0.625029	0.899513	0.073924
	H83	H	0.393933	0.903167	0.886723
	H84	H	0.623419	0.907890	0.074522
	H85	H	0.391279	0.097390	0.077871
	H86	H	0.627506	0.097094	0.893392
	H87	H	0.391427	0.895572	0.893077
	H88	H	0.920946	0.082242	0.599162
	H89	H	0.107363	0.092296	0.362371
	H90	H	0.102496	0.905424	0.603331
	H91	H	0.918253	0.895552	0.363116
	H92	H	0.099611	0.610969	0.894685
	H93	H	0.096325	0.380720	0.075044
	H94	H	0.923716	0.616000	0.089186
	H95	H	0.920573	0.385413	0.899477
	H96	H	0.413368	0.115894	0.576615
	H97	H	0.601751	0.879208	0.580380
	H98	H	0.605757	0.117510	0.384068
	H99	H	0.415240	0.881184	0.391312
	H100	H	0.600323	0.406236	0.102451
	H101	H	0.605932	0.589516	0.862863
	H102	H	0.427714	0.584124	0.098867
	H103	H	0.418898	0.401264	0.865640
	H104	H	0.126403	0.595203	0.393206
	H105	H	0.897043	0.589644	0.568515
	H106	H	0.127745	0.404017	0.580400
	H107	H	0.898532	0.409631	0.394049
	H108	H	0.927856	0.607157	0.062511
	H109	H	0.104515	0.380014	0.067010
	H110	H	0.110101	0.612903	0.895219
	H111	H	0.903385	0.378005	0.892506
	H112	H	0.101357	0.910776	0.601531
	H113	H	0.105379	0.083737	0.365068
	H114	H	0.924981	0.093466	0.601388
	H115	H	0.907849	0.910317	0.364181
	H116	H	0.622912	0.089964	0.899138
	H117	H	0.396493	0.088291	0.072711
	H118	H	0.626233	0.903530	0.081701
	H119	H	0.395468	0.903757	0.897147
	C120	C	0.387567	0.006809	0.606138
	C121	C	0.632193	0.988264	0.606221
	C122	C	0.632121	0.006725	0.362894
	C123	C	0.388128	0.989811	0.363644
	C124	C	0.630188	0.377080	-0.006981
	C125	C	0.631199	0.618082	0.973836
	C126	C	0.389163	0.616059	-0.007188
	C127	C	0.387360	0.374567	0.974917
	C128	C	0.018521	0.619672	0.361025
	C129	C	1.002144	0.619309	0.604537
	C130	C	0.018445	0.374741	0.604011
	C131	C	1.001626	0.373426	0.360031
	C132	C	0.888446	0.505529	0.103174
	C133	C	0.132199	0.486817	0.104240
	C134	C	0.131803	0.504793	0.861708
	C135	C	0.886386	0.488149	0.859988
	C136	C	0.130166	0.877673	0.492769
	C137	C	0.132338	0.119411	0.474165
	C138	C	0.889949	0.117229	0.492000
	C139	C	0.887737	0.875425	0.475033
	C140	C	0.517665	0.118346	0.864227
	C141	C	0.500917	0.120371	0.107695
	C142	C	0.517337	0.874371	0.106312
	C143	C	0.500626	0.873156	0.862243
	C144	C	0.389461	0.883061	0.659834
	C145	C	0.629423	0.111458	0.662248
	C146	C	0.627078	0.883109	0.307415
	C147	C	0.393205	0.113168	0.309455
	C148	C	0.685299	0.376393	0.867840
	C149	C	0.688535	0.618421	0.098336
	C150	C	0.333204	0.615094	0.867932
	C151	C	0.331057	0.375437	0.099333
	C152	C	0.896909	0.675105	0.360693
	C153	C	0.123111	0.678242	0.605852
	C154	C	0.896564	0.317454	0.602329
	C155	C	0.123918	0.318654	0.360554
	C156	C	0.895667	0.377028	0.658562
	C157	C	0.124318	0.617664	0.661051
	C158	C	0.895731	0.614206	0.305508
	C159	C	0.124579	0.378678	0.305447
	C160	C	0.389982	0.672117	0.868197
	C161	C	0.630269	0.673897	0.099093
	C162	C	0.627214	0.320086	0.868151
	C163	C	0.390298	0.321085	0.100796
	C164	C	0.686708	0.883927	0.362230
	C165	C	0.689718	0.110523	0.607371
	C166	C	0.328677	0.885134	0.606240
	C167	C	0.332893	0.111951	0.364038
	C168	C	0.890784	0.381783	0.156807
	C169	C	0.130256	0.610135	0.160036
	C170	C	0.126016	0.381240	0.806698
	C171	C	0.891329	0.611308	0.804684
	C172	C	0.186490	0.878471	0.368272
	C173	C	0.188141	0.120228	0.598831
	C174	C	0.833483	0.115419	0.367525
	C175	C	0.831443	0.875573	0.599380
	C176	C	0.395436	0.173072	0.865130
	C177	C	0.622656	0.178136	0.107675
	C178	C	0.395569	0.817050	0.105816
	C179	C	0.622737	0.818173	0.862884
	C180	C	0.394368	0.878695	0.160335
	C181	C	0.624104	0.117149	0.162168
	C182	C	0.394722	0.113183	0.809362
	C183	C	0.623103	0.877756	0.806962
	C184	C	0.891877	0.171257	0.366326
	C185	C	0.130464	0.176151	0.598617
	C186	C	0.128868	0.821636	0.367852
	C187	C	0.889085	0.819090	0.599464
	C188	C	0.186688	0.382387	0.860914
	C189	C	0.190120	0.608872	0.105869
	C190	C	0.830591	0.383426	0.102221
	C191	C	0.830643	0.610386	0.858837
	C192	C	0.410652	0.092422	0.583678
	C193	C	0.609537	0.902583	0.582407
	C194	C	0.611456	0.092463	0.386557
	C195	C	0.409106	0.903967	0.386227
	C196	C	0.608344	0.400350	0.080059
	C197	C	0.607898	0.594985	0.886987
	C198	C	0.411901	0.593082	0.079696
	C199	C	0.409665	0.396381	0.887622
	C200	C	0.103705	0.598626	0.384470
	C201	C	0.917071	0.595937	0.580466
	C202	C	0.103723	0.397774	0.581481
	C203	C	0.916148	0.394105	0.382624
	C204	C	0.911333	0.591283	0.080666
	C205	C	0.109369	0.401143	0.080382
	C206	C	0.110992	0.590729	0.885262
	C207	C	0.907798	0.402833	0.883525
	C208	C	0.107181	0.900975	0.579633
	C209	C	0.110282	0.095586	0.387031
	C210	C	0.912743	0.095321	0.579024
	C211	C	0.910670	0.898693	0.388281
	C212	C	0.603144	0.097726	0.886919
	C213	C	0.415486	0.097683	0.084890
	C214	C	0.602627	0.896900	0.083426
	C215	C	0.415586	0.894391	0.885478
	Zn216	Zn	0.508909	-0.003151	0.734082
	Zn217	Zn	0.509840	-0.002559	0.235118
	Zn218	Zn	0.758536	0.497821	-0.017589
	Zn219	Zn	0.260869	0.495804	-0.016516
	Zn220	Zn	0.009556	0.749245	0.483436
	Zn221	Zn	0.010991	0.245028	0.482021
	Zn222	Zn	0.010048	0.496862	0.733272
	Zn223	Zn	0.010107	0.496170	0.231625
	Zn224	Zn	0.509375	0.744240	-0.015782
	Zn225	Zn	0.509057	0.249089	-0.014736
	Zn226	Zn	0.760720	-0.002868	0.484082
	Zn227	Zn	0.258719	-0.001564	0.484216
	N228	N	0.425362	0.959661	0.659928
	N229	N	0.594194	0.034436	0.661650
	N230	N	0.593933	0.960467	0.307428
	N231	N	0.426929	0.036161	0.309168
	N232	N	0.687073	0.411350	0.946297
	N233	N	0.689211	0.584450	0.019534
	N234	N	0.332559	0.580912	0.946449
	N235	N	0.329018	0.408011	0.020027
	N236	N	0.974366	0.678896	0.394131
	N237	N	0.046025	0.679390	0.571581
	N238	N	0.973905	0.315981	0.569082
	N239	N	0.046481	0.315093	0.393650
	N240	N	0.972448	0.411853	0.659764
	N241	N	0.048057	0.581569	0.660277
	N242	N	0.972424	0.580591	0.305408
	N243	N	0.047574	0.411995	0.304823
	N244	N	0.424165	0.672795	0.946760
	N245	N	0.595375	0.673992	0.020711
	N246	N	0.593905	0.320250	0.947026
	N247	N	0.424391	0.320177	0.022393
	N248	N	0.689881	0.961577	0.395977
	N249	N	0.691687	0.032853	0.573354
	N250	N	0.327057	0.963000	0.573747
	N251	N	0.329914	0.034183	0.397242
	N252	N	0.926165	0.458725	0.157598
	N253	N	0.094822	0.533263	0.159143
	N254	N	0.092816	0.458551	0.806752
	N255	N	0.925185	0.534401	0.805029
	N256	N	0.187492	0.912656	0.447076
	N257	N	0.189358	0.085569	0.520235
	N258	N	0.832016	0.082547	0.446686
	N259	N	0.830340	0.909732	0.520870
	N260	N	0.472728	0.176205	0.898819
	N261	N	0.545061	0.180345	0.074772
	N262	N	0.473179	0.814150	0.073219
	N263	N	0.545573	0.815205	0.896718
	N264	N	0.471165	0.913496	0.161049
	N265	N	0.547270	0.081956	0.162396
	N266	N	0.471741	0.080096	0.808428
	N267	N	0.546173	0.910862	0.806030
	N268	N	0.926486	0.172416	0.444752
	N269	N	0.096678	0.175790	0.520053
	N270	N	0.094509	0.821013	0.446379
	N271	N	0.923244	0.818787	0.520928
	N272	N	0.190562	0.460347	0.894283
	N273	N	0.191700	0.531048	0.071981
	N274	N	0.828923	0.461568	0.069705
	N275	N	0.827422	0.532751	0.892429
	O276	O	0.417394	0.421993	0.596015
	H277	H	0.422782	0.428311	0.598869
	H278	H	0.424832	0.430377	0.599094
	O279	O	0.590227	0.548442	0.526727
	H280	H	0.589723	0.553679	0.521033
	H281	H	0.595575	0.558575	0.516075
	O282	O	1.105084	0.915027	-0.024970
	H283	H	1.097871	0.925667	-0.015281
	H284	H	1.095893	0.912845	-0.021895
	O285	O	0.945378	-0.029440	1.001050
	H286	H	0.953576	-0.023840	0.996346
	H287	H	0.923752	-0.021145	0.998794
	O288	O	-0.109709	1.062751	1.036821
	H289	H	-0.107371	1.063368	1.037533
	H290	H	-0.107987	1.063714	1.028071
	O291	O	0.532553	0.510366	0.602222
	H292	H	0.531390	0.523284	0.611278
	H293	H	0.539856	0.488666	0.601351
	O294	O	0.004070	0.084867	0.974471
	H295	H	-0.004378	0.085703	0.981530
	H296	H	0.006620	0.079166	0.965778
	O297	O	-0.097023	-0.012689	0.945660
	H298	H	-0.107347	-0.012115	0.942991
	H299	H	-0.095326	-0.012201	0.949148
	O300	O	0.530982	0.424142	0.490757
	H301	H	0.527618	0.424202	0.500945
	H302	H	0.534379	0.426054	0.510019
	O303	O	0.173309	0.829300	-0.123557
	H304	H	0.167954	0.817891	-0.126903
	H305	H	0.178395	0.830126	-0.123983
	O306	O	-0.122855	0.900482	1.133760
	H307	H	-0.127954	0.895554	1.129764
	H308	H	-0.114907	0.910349	1.139807
	O309	O	0.595211	0.488765	0.469508
	H310	H	0.601878	0.474552	0.458744
	H311	H	0.585957	0.488528	0.472704
	O312	O	0.042172	0.041013	-0.062840
	H313	H	0.050257	0.034035	-0.057081
	H314	H	0.043988	0.039994	-0.067698
	O315	O	1.151672	-0.030697	-0.117876
	H316	H	1.149306	-0.041575	-0.114397
	H317	H	1.166414	-0.041577	-0.117750
	O318	O	1.020918	0.969758	0.962706
	H319	H	1.016501	0.982037	0.963249
	H320	H	1.026875	0.972032	0.969036
	O321	O	0.605643	0.527596	1.567913
	H322	H	0.597255	0.521273	1.567845
	H323	H	0.608006	0.527270	1.568596
	O324	O	0.628460	0.591339	0.457181
	H325	H	0.640851	0.603972	0.461120
	H326	H	0.622268	0.582806	0.437863
	O327	O	0.127986	-0.134742	0.162745
	H328	H	0.114803	-0.132343	0.172722
	H329	H	0.117355	-0.117884	0.156477
	O330	O	0.543879	0.552097	0.433087
	H331	H	0.528301	0.546894	0.431484
	H332	H	0.538266	0.549357	0.423613
	O333	O	-0.082785	1.009403	1.016817
	H334	H	-0.080665	1.010388	1.035111
	H335	H	-0.087821	1.023498	1.007604
	O336	O	0.050728	-0.045675	-0.025847
	H337	H	0.048664	-0.037820	-0.026672
	H338	H	0.049783	-0.045618	-0.022817
	O339	O	0.429351	0.518431	0.451915
	H340	H	0.425412	0.510311	0.451085
	H341	H	0.427288	0.517317	0.465534
	O342	O	0.903032	0.924821	1.021196
	H343	H	0.898202	0.920127	1.021323
	H344	H	0.906703	0.921619	1.021062
	O345	O	1.004697	0.920764	-0.113764
	H346	H	0.997662	0.915179	-0.123932
	H347	H	1.007682	0.924623	-0.100378
	O348	O	0.460183	0.573333	0.396998
	H349	H	0.461771	0.570794	0.394549
	H350	H	0.451684	0.554983	0.399866
	O351	O	0.410858	0.546907	0.442043
	H352	H	0.417286	0.546812	0.434397
	H353	H	0.421432	0.547300	0.452413
	O354	O	0.620746	0.528176	0.492116
	H355	H	0.616881	0.525500	0.492454
	H356	H	0.621636	0.534328	0.491149
	O357	O	0.469068	0.512982	1.470236
	H358	H	0.471953	0.515460	1.478271
	H359	H	0.464813	0.519055	1.483025
	O360	O	0.441826	0.502007	0.581837
	H361	H	0.434117	0.506327	0.581147
	H362	H	0.442444	0.497394	0.579337
	O363	O	1.055220	1.052102	0.947532
	H364	H	1.049754	1.048873	0.956871
	H365	H	1.064426	1.053081	0.948324
	O366	O	1.060430	0.997997	0.987822
	H367	H	1.053403	0.998097	0.989279
	H368	H	1.054015	0.989934	0.982085
	O369	O	1.072671	0.015905	0.907006
	H370	H	1.070996	0.009552	0.903911
	H371	H	1.075837	0.015781	0.905808
	O372	O	0.107616	-0.008395	-0.015357
	H373	H	0.131432	-0.015636	-0.013477
	H374	H	0.103324	-0.023792	-0.023558
	O375	O	0.469362	-0.525184	0.357448
	H376	H	0.461020	-0.516040	0.357479
	H377	H	0.460826	-0.538675	0.346695
	O378	O	0.358662	0.501020	0.450549
	H379	H	0.361026	0.496325	0.459223
	H380	H	0.364891	0.507654	0.442906
	O381	O	0.615029	0.404527	0.502431
	H382	H	0.611024	0.399132	0.500485
	H383	H	0.614995	0.409670	0.505377
