data_Molecule from HDF5

_cell_length_a		16.284881
_cell_length_b		16.280508
_cell_length_c		16.241375
_cell_angle_alpha	90.003825
_cell_angle_beta	89.950472
_cell_angle_gamma	89.994414
_symmetry_space_group_name_H-M	'P 1'
_symmetry_Int_Tables_number		1

loop_
	_symmetry_equiv_pos_as_xyz
	x,y,z

loop_
	_atom_site_label
	_atom_site_type_symbol
	_atom_site_fract_x
	_atom_site_fract_y
	_atom_site_fract_z
	H0	H	0.401463	0.836421	0.715269
	H1	H	0.596807	0.164177	0.713528
	H2	H	0.597602	0.835763	0.286137
	H3	H	0.402648	0.164225	0.286890
	H4	H	0.713428	0.403485	0.836058
	H5	H	0.713467	0.598255	0.164557
	H6	H	0.286422	0.598164	0.835732
	H7	H	0.286432	0.402675	0.164532
	H8	H	0.836118	0.713999	0.401876
	H9	H	0.163909	0.713199	0.596471
	H10	H	0.836311	0.285708	0.597856
	H11	H	0.163711	0.285508	0.401546
	H12	H	0.836066	0.402002	0.713403
	H13	H	0.164248	0.597248	0.713870
	H14	H	0.835971	0.597124	0.286449
	H15	H	0.164535	0.403387	0.287107
	H16	H	0.403146	0.714022	0.835814
	H17	H	0.598321	0.714315	0.164534
	H18	H	0.598578	0.286989	0.835439
	H19	H	0.402304	0.286416	0.164475
	H20	H	0.712975	0.835709	0.402802
	H21	H	0.712921	0.163963	0.597240
	H22	H	0.285865	0.835836	0.598357
	H23	H	0.286428	0.163833	0.403309
	H24	H	0.903144	0.335788	0.212831
	H25	H	0.096524	0.664634	0.211957
	H26	H	0.097356	0.335751	0.786654
	H27	H	0.903265	0.664042	0.786476
	H28	H	0.214241	0.901413	0.335804
	H29	H	0.213586	0.097359	0.664443
	H30	H	0.786747	0.096941	0.335877
	H31	H	0.785288	0.901003	0.664161
	H32	H	0.336740	0.214973	0.901119
	H33	H	0.664406	0.212814	0.096660
	H34	H	0.336919	0.785785	0.098442
	H35	H	0.664045	0.786181	0.901138
	H36	H	0.335929	0.902746	0.212946
	H37	H	0.663819	0.096704	0.212734
	H38	H	0.336397	0.097929	0.786753
	H39	H	0.663820	0.902158	0.785328
	H40	H	0.902287	0.212367	0.336245
	H41	H	0.098196	0.214223	0.664548
	H42	H	0.097554	0.786561	0.335634
	H43	H	0.902561	0.786469	0.665082
	H44	H	0.214721	0.336422	0.901598
	H45	H	0.213011	0.664334	0.097130
	H46	H	0.785833	0.336200	0.098258
	H47	H	0.786010	0.664319	0.901783
	H48	H	0.408036	0.116902	0.596109
	H49	H	0.590079	0.881308	0.602911
	H50	H	0.597557	0.119531	0.400383
	H51	H	0.416255	0.883312	0.397009
	H52	H	0.586818	0.391810	0.119237
	H53	H	0.602865	0.587277	0.882633
	H54	H	0.400331	0.581506	0.114929
	H55	H	0.413000	0.409500	0.885190
	H56	H	0.116511	0.596898	0.409503
	H57	H	0.883274	0.586371	0.600865
	H58	H	0.116771	0.406879	0.593888
	H59	H	0.884898	0.409992	0.405113
	H60	H	0.117136	0.404744	0.592970
	H61	H	0.879719	0.603147	0.596105
	H62	H	0.115295	0.589042	0.406418
	H63	H	0.881466	0.403556	0.402108
	H64	H	0.419953	0.595036	0.113997
	H65	H	0.583829	0.588374	0.887483
	H66	H	0.608911	0.408446	0.121417
	H67	H	0.406175	0.399607	0.881271
	H68	H	0.586966	0.115088	0.404969
	H69	H	0.586577	0.887133	0.586857
	H70	H	0.408671	0.114950	0.590852
	H71	H	0.409520	0.887284	0.418020
	H72	H	0.911521	0.617474	0.101474
	H73	H	0.106209	0.381433	0.089263
	H74	H	0.094713	0.619462	0.899289
	H75	H	0.907111	0.384122	0.908179
	H76	H	0.091165	0.912516	0.614436
	H77	H	0.101970	0.084704	0.383604
	H78	H	0.908911	0.093885	0.616768
	H79	H	0.902916	0.905140	0.382864
	H80	H	0.617944	0.090636	0.901388
	H81	H	0.380702	0.104639	0.089870
	H82	H	0.617794	0.904409	0.092586
	H83	H	0.384309	0.907428	0.909318
	H84	H	0.616237	0.908166	0.091515
	H85	H	0.386228	0.087786	0.086661
	H86	H	0.619314	0.099736	0.905981
	H87	H	0.383670	0.908657	0.906598
	H88	H	0.904153	0.094541	0.619433
	H89	H	0.082721	0.090851	0.387381
	H90	H	0.088364	0.901431	0.617035
	H91	H	0.906134	0.909644	0.384124
	H92	H	0.087678	0.614372	0.908448
	H93	H	0.091212	0.379998	0.105077
	H94	H	0.910234	0.613304	0.084822
	H95	H	0.904274	0.383581	0.907637
	H96	H	0.403876	0.117413	0.592654
	H97	H	0.602936	0.881495	0.591224
	H98	H	0.597064	0.115903	0.412344
	H99	H	0.395390	0.878540	0.403413
	H100	H	0.584248	0.418050	0.111612
	H101	H	0.593227	0.604423	0.879966
	H102	H	0.399162	0.604579	0.122591
	H103	H	0.400298	0.410442	0.882471
	H104	H	0.118710	0.595558	0.401458
	H105	H	0.887161	0.591295	0.584174
	H106	H	0.116028	0.406322	0.591703
	H107	H	0.883050	0.404187	0.409954
	H108	H	0.897515	0.619075	0.092881
	H109	H	0.085569	0.388193	0.085778
	H110	H	0.099253	0.617357	0.910484
	H111	H	0.906172	0.382739	0.906391
	H112	H	0.098616	0.905145	0.619167
	H113	H	0.096513	0.103736	0.378717
	H114	H	0.905832	0.089745	0.616669
	H115	H	0.908772	0.904259	0.382821
	H116	H	0.615328	0.092315	0.910758
	H117	H	0.381170	0.091539	0.103241
	H118	H	0.617479	0.908052	0.095676
	H119	H	0.382988	0.905653	0.906765
	C120	C	0.378391	0.008068	0.621873
	C121	C	0.621225	0.991459	0.621658
	C122	C	0.621585	0.008248	0.378034
	C123	C	0.378432	0.991325	0.378299
	C124	C	0.621492	0.378573	0.008689
	C125	C	0.621291	0.621594	0.991922
	C126	C	0.378698	0.622019	0.008529
	C127	C	0.378862	0.378870	0.991725
	C128	C	0.008198	0.621660	0.377965
	C129	C	0.991494	0.621723	0.621710
	C130	C	0.008569	0.377860	0.621486
	C131	C	0.991548	0.377891	0.377766
	C132	C	0.878326	0.508319	0.121517
	C133	C	0.121944	0.491914	0.121602
	C134	C	0.121604	0.508345	0.878103
	C135	C	0.877833	0.491772	0.878489
	C136	C	0.121338	0.878226	0.508095
	C137	C	0.121723	0.120936	0.491883
	C138	C	0.878440	0.120569	0.508994
	C139	C	0.877985	0.878107	0.491990
	C140	C	0.508790	0.122061	0.878099
	C141	C	0.491237	0.122250	0.121423
	C142	C	0.508761	0.879005	0.121239
	C143	C	0.492003	0.878844	0.878876
	C144	C	0.380953	0.885182	0.677314
	C145	C	0.617856	0.115132	0.675898
	C146	C	0.618325	0.884785	0.323736
	C147	C	0.381460	0.115099	0.324224
	C148	C	0.675843	0.382578	0.884863
	C149	C	0.675607	0.618571	0.115739
	C150	C	0.324305	0.618978	0.884865
	C151	C	0.324313	0.381949	0.115539
	C152	C	0.884887	0.676211	0.381274
	C153	C	0.115026	0.676065	0.618088
	C154	C	0.885061	0.323439	0.618812
	C155	C	0.115020	0.323420	0.381064
	C156	C	0.885128	0.381478	0.676033
	C157	C	0.115337	0.618142	0.675652
	C158	C	0.884879	0.618150	0.323732
	C159	C	0.115258	0.381808	0.323892
	C160	C	0.382019	0.676749	0.884973
	C161	C	0.618662	0.676370	0.115543
	C162	C	0.618294	0.325192	0.884478
	C163	C	0.381870	0.324200	0.115546
	C164	C	0.675632	0.884715	0.381626
	C165	C	0.675499	0.115076	0.618346
	C166	C	0.323678	0.884802	0.619142
	C167	C	0.323536	0.114680	0.381608
	C168	C	0.882140	0.384765	0.175655
	C169	C	0.118227	0.615359	0.175632
	C170	C	0.118551	0.384944	0.823688
	C171	C	0.882343	0.615378	0.824364
	C172	C	0.176485	0.881128	0.384875
	C173	C	0.176254	0.117949	0.615469
	C174	C	0.824029	0.117887	0.385168
	C175	C	0.823735	0.881258	0.615619
	C176	C	0.385530	0.176908	0.880715
	C177	C	0.615179	0.175756	0.117915
	C178	C	0.385462	0.823951	0.118584
	C179	C	0.615159	0.824115	0.881034
	C180	C	0.385082	0.881912	0.175685
	C181	C	0.614812	0.118071	0.175525
	C182	C	0.385385	0.118751	0.823886
	C183	C	0.615095	0.881854	0.823640
	C184	C	0.881520	0.175143	0.385255
	C185	C	0.118890	0.175908	0.615493
	C186	C	0.118391	0.824171	0.384382
	C187	C	0.881388	0.823794	0.615725
	C188	C	0.176821	0.385220	0.880739
	C189	C	0.175957	0.615216	0.118342
	C190	C	0.823693	0.385129	0.118922
	C191	C	0.823466	0.615204	0.880943
	C192	C	0.400400	0.094275	0.599704
	C193	C	0.599612	0.905333	0.599991
	C194	C	0.600236	0.094601	0.399562
	C195	C	0.400533	0.905228	0.399708
	C196	C	0.599725	0.399767	0.095154
	C197	C	0.599701	0.599815	0.905599
	C198	C	0.400154	0.600172	0.094813
	C199	C	0.400078	0.400298	0.905247
	C200	C	0.094709	0.600209	0.399489
	C201	C	0.905540	0.599996	0.600110
	C202	C	0.094523	0.399505	0.599246
	C203	C	0.905363	0.399370	0.399447
	C204	C	0.899949	0.594515	0.099645
	C205	C	0.100692	0.405391	0.099770
	C206	C	0.100225	0.594799	0.899836
	C207	C	0.899456	0.405800	0.900834
	C208	C	0.099145	0.899963	0.594595
	C209	C	0.100120	0.099450	0.405403
	C210	C	0.899897	0.099140	0.595324
	C211	C	0.899638	0.899970	0.405620
	C212	C	0.594997	0.100753	0.899670
	C213	C	0.405150	0.101040	0.099710
	C214	C	0.595001	0.900448	0.099714
	C215	C	0.405934	0.900759	0.901101
	Zn216	Zn	0.499817	0.000150	0.750283
	Zn217	Zn	0.499629	-0.000018	0.249586
	Zn218	Zn	0.749108	0.500177	0.000592
	Zn219	Zn	0.250062	0.500119	0.000075
	Zn220	Zn	0.000295	0.749939	0.499638
	Zn221	Zn	-0.000361	0.249403	0.500272
	Zn222	Zn	-0.000066	0.499903	0.749862
	Zn223	Zn	0.000166	0.500204	0.249438
	Zn224	Zn	0.500657	0.750094	0.000402
	Zn225	Zn	0.500208	0.250177	-0.000253
	Zn226	Zn	0.749814	-0.000277	0.500356
	Zn227	Zn	0.250003	-0.000636	0.500148
	N228	N	0.414212	0.962785	0.678874
	N229	N	0.584843	0.037469	0.677960
	N230	N	0.585099	0.962428	0.321546
	N231	N	0.414984	0.037577	0.322150
	N232	N	0.677806	0.415066	0.963003
	N233	N	0.677537	0.585419	0.037852
	N234	N	0.322106	0.585588	0.962611
	N235	N	0.322286	0.415227	0.037696
	N236	N	0.962647	0.678595	0.413895
	N237	N	0.037311	0.678271	0.585242
	N238	N	0.962705	0.321301	0.585442
	N239	N	0.037157	0.320805	0.413938
	N240	N	0.962704	0.414513	0.677753
	N241	N	0.037623	0.585075	0.677985
	N242	N	0.962564	0.585007	0.321889
	N243	N	0.037701	0.415142	0.322071
	N244	N	0.415164	0.678595	0.962824
	N245	N	0.585482	0.678159	0.037683
	N246	N	0.585132	0.322612	0.962327
	N247	N	0.415114	0.322373	0.037761
	N248	N	0.677727	0.962428	0.414593
	N249	N	0.677704	0.037096	0.585431
	N250	N	0.322027	0.962275	0.585428
	N251	N	0.321731	0.036889	0.414626
	N252	N	0.915291	0.462389	0.177321
	N253	N	0.085228	0.537635	0.177487
	N254	N	0.085054	0.462497	0.822014
	N255	N	0.915139	0.537509	0.822421
	N256	N	0.178329	0.913788	0.462886
	N257	N	0.177942	0.084557	0.537677
	N258	N	0.822026	0.084653	0.462917
	N259	N	0.821731	0.914395	0.537746
	N260	N	0.463338	0.179170	0.913689
	N261	N	0.537480	0.178439	0.084911
	N262	N	0.463429	0.821876	0.085705
	N263	N	0.537609	0.822113	0.914718
	N264	N	0.462536	0.915542	0.177101
	N265	N	0.536962	0.085591	0.177800
	N266	N	0.462907	0.085392	0.822242
	N267	N	0.537624	0.915343	0.822467
	N268	N	0.914891	0.176786	0.463028
	N269	N	0.085602	0.178014	0.537683
	N270	N	0.084748	0.822417	0.462070
	N271	N	0.914323	0.821552	0.537928
	N272	N	0.178608	0.462956	0.914080
	N273	N	0.178164	0.537460	0.085457
	N274	N	0.821397	0.462803	0.085778
	N275	N	0.820848	0.537524	0.914147
