data_Molecule from HDF5

_cell_length_a		16.622936
_cell_length_b		16.693390
_cell_length_c		16.609712
_cell_angle_alpha	90.087674
_cell_angle_beta	89.920499
_cell_angle_gamma	89.975590
_symmetry_space_group_name_H-M	'P 1'
_symmetry_Int_Tables_number		1

loop_
	_symmetry_equiv_pos_as_xyz
	x,y,z

loop_
	_atom_site_label
	_atom_site_type_symbol
	_atom_site_fract_x
	_atom_site_fract_y
	_atom_site_fract_z
	H0	H	0.396008	0.844368	0.726566
	H1	H	0.612857	0.150045	0.724522
	H2	H	0.610553	0.840433	0.281347
	H3	H	0.399085	0.149691	0.275950
	H4	H	0.731530	0.387080	0.849316
	H5	H	0.730645	0.604923	0.155291
	H6	H	0.290206	0.596584	0.842787
	H7	H	0.284870	0.391191	0.155960
	H8	H	0.852233	0.721070	0.393407
	H9	H	0.160727	0.720715	0.608279
	H10	H	0.850257	0.277979	0.604691
	H11	H	0.158746	0.272621	0.392483
	H12	H	0.851249	0.392717	0.722381
	H13	H	0.162648	0.603051	0.721524
	H14	H	0.852480	0.605256	0.276910
	H15	H	0.161517	0.391302	0.279700
	H16	H	0.404898	0.713901	0.844074
	H17	H	0.614698	0.720532	0.154341
	H18	H	0.617228	0.270529	0.849328
	H19	H	0.400838	0.274731	0.156535
	H20	H	0.726570	0.841048	0.397585
	H21	H	0.727039	0.151139	0.606313
	H22	H	0.279370	0.845965	0.611384
	H23	H	0.280589	0.148535	0.389283
	H24	H	0.898130	0.345210	0.226467
	H25	H	0.115388	0.651255	0.223988
	H26	H	0.110483	0.341763	0.779489
	H27	H	0.898531	0.650995	0.778702
	H28	H	0.230512	0.889662	0.346672
	H29	H	0.234337	0.110255	0.651829
	H30	H	0.784888	0.102868	0.345700
	H31	H	0.784075	0.891674	0.654840
	H32	H	0.353473	0.218136	0.894685
	H33	H	0.659394	0.218879	0.110647
	H34	H	0.351442	0.773117	0.108194
	H35	H	0.658101	0.768052	0.888987
	H36	H	0.352747	0.887575	0.225733
	H37	H	0.662724	0.098977	0.221284
	H38	H	0.354829	0.104640	0.776879
	H39	H	0.658853	0.885029	0.774520
	H40	H	0.898379	0.220114	0.346718
	H41	H	0.117618	0.225164	0.652290
	H42	H	0.115831	0.772833	0.347631
	H43	H	0.900113	0.775546	0.655069
	H44	H	0.226062	0.340656	0.896013
	H45	H	0.227733	0.652317	0.104916
	H46	H	0.779449	0.346940	0.113694
	H47	H	0.780920	0.649605	0.892931
	H48	H	0.425627	0.102977	0.584589
	H49	H	0.592673	0.886227	0.588128
	H50	H	0.593958	0.107452	0.408871
	H51	H	0.421520	0.886660	0.411600
	H52	H	0.598110	0.409178	0.115182
	H53	H	0.584386	0.579550	0.896294
	H54	H	0.418733	0.589569	0.114126
	H55	H	0.415889	0.402650	0.888252
	H56	H	0.115615	0.583756	0.415376
	H57	H	0.894351	0.587588	0.590685
	H58	H	0.115138	0.411032	0.584628
	H59	H	0.895914	0.411643	0.413675
	H60	H	0.117532	0.412288	0.590861
	H61	H	0.895126	0.587082	0.590399
	H62	H	0.117147	0.584651	0.413168
	H63	H	0.894621	0.409564	0.411937
	H64	H	0.412256	0.585519	0.114686
	H65	H	0.594544	0.589847	0.887332
	H66	H	0.590585	0.414300	0.109975
	H67	H	0.417327	0.408146	0.889522
	H68	H	0.596386	0.107676	0.413589
	H69	H	0.598322	0.884564	0.587371
	H70	H	0.416475	0.107222	0.584624
	H71	H	0.421591	0.889198	0.417704
	H72	H	0.916426	0.608262	0.087057
	H73	H	0.092391	0.387249	0.088281
	H74	H	0.099144	0.609318	0.909042
	H75	H	0.921164	0.387539	0.912480
	H76	H	0.092376	0.914394	0.609120
	H77	H	0.083252	0.086046	0.392501
	H78	H	0.918838	0.084854	0.611076
	H79	H	0.919056	0.907947	0.388843
	H80	H	0.618726	0.084942	0.915639
	H81	H	0.396464	0.083535	0.087184
	H82	H	0.619246	0.908367	0.094580
	H83	H	0.398602	0.908872	0.921403
	H84	H	0.618815	0.900207	0.086068
	H85	H	0.396039	0.082009	0.089214
	H86	H	0.616741	0.081229	0.915658
	H87	H	0.395402	0.913149	0.907828
	H88	H	0.918378	0.089695	0.612987
	H89	H	0.097721	0.089615	0.386696
	H90	H	0.089633	0.908403	0.610338
	H91	H	0.916914	0.907519	0.388596
	H92	H	0.098129	0.608918	0.910295
	H93	H	0.099552	0.385881	0.088275
	H94	H	0.925809	0.606828	0.090884
	H95	H	0.920504	0.387452	0.915148
	H96	H	0.422396	0.107834	0.592613
	H97	H	0.595862	0.883343	0.592743
	H98	H	0.598711	0.109684	0.408870
	H99	H	0.416093	0.886258	0.415094
	H100	H	0.588749	0.404571	0.112561
	H101	H	0.599491	0.573986	0.891450
	H102	H	0.417832	0.582448	0.111026
	H103	H	0.421752	0.403966	0.889601
	H104	H	0.117078	0.586333	0.415205
	H105	H	0.894217	0.587127	0.590935
	H106	H	0.118827	0.406631	0.587525
	H107	H	0.895528	0.408928	0.414812
	H108	H	0.923731	0.603614	0.081721
	H109	H	0.095863	0.384421	0.094485
	H110	H	0.099796	0.609277	0.910629
	H111	H	0.918637	0.386466	0.912816
	H112	H	0.095588	0.909991	0.612494
	H113	H	0.095273	0.075513	0.393481
	H114	H	0.914732	0.086809	0.613746
	H115	H	0.917906	0.909720	0.389190
	H116	H	0.618521	0.082354	0.911706
	H117	H	0.394771	0.084335	0.089344
	H118	H	0.614407	0.910833	0.084561
	H119	H	0.392399	0.899682	0.912441
	C120	C	0.385919	0.005337	0.621716
	C121	C	0.628420	0.986995	0.622783
	C122	C	0.628064	0.005146	0.379273
	C123	C	0.385601	0.988381	0.379500
	C124	C	0.627681	0.374531	0.011205
	C125	C	0.627307	0.616219	0.992696
	C126	C	0.385559	0.616471	0.009121
	C127	C	0.385306	0.373436	0.992050
	C128	C	0.015028	0.618848	0.380083
	C129	C	0.997622	0.619437	0.622811
	C130	C	0.014895	0.377087	0.620967
	C131	C	0.997470	0.376338	0.379695
	C132	C	0.887103	0.505762	0.121450
	C133	C	0.129235	0.488034	0.122941
	C134	C	0.128889	0.505482	0.878521
	C135	C	0.885625	0.488530	0.880078
	C136	C	0.127199	0.876980	0.508898
	C137	C	0.127089	0.118804	0.491852
	C138	C	0.884442	0.119118	0.509759
	C139	C	0.885323	0.876085	0.491697
	C140	C	0.516248	0.116615	0.880991
	C141	C	0.497824	0.115837	0.122186
	C142	C	0.514883	0.873858	0.121809
	C143	C	0.497307	0.873544	0.879469
	C144	C	0.379267	0.890694	0.685353
	C145	C	0.631090	0.103490	0.684065
	C146	C	0.629428	0.887390	0.320864
	C147	C	0.381473	0.103375	0.316867
	C148	C	0.690740	0.369505	0.895668
	C149	C	0.689669	0.621869	0.108742
	C150	C	0.328663	0.616116	0.890244
	C151	C	0.325240	0.372417	0.109387
	C152	C	0.898861	0.680590	0.375763
	C153	C	0.114390	0.679874	0.625558
	C154	C	0.897317	0.317650	0.623303
	C155	C	0.113150	0.314246	0.375639
	C156	C	0.897841	0.374756	0.681654
	C157	C	0.115128	0.621447	0.682172
	C158	C	0.898853	0.622868	0.317932
	C159	C	0.114418	0.373201	0.319476
	C160	C	0.385519	0.674498	0.890995
	C161	C	0.632078	0.679394	0.108238
	C162	C	0.633612	0.311543	0.895917
	C163	C	0.382607	0.314587	0.109560
	C164	C	0.686871	0.887751	0.378807
	C165	C	0.687815	0.104124	0.625406
	C166	C	0.321283	0.891269	0.627922
	C167	C	0.322708	0.103138	0.373516
	C168	C	0.880946	0.391311	0.185331
	C169	C	0.132453	0.604583	0.183352
	C170	C	0.129125	0.388281	0.819323
	C171	C	0.881116	0.604505	0.818921
	C172	C	0.189703	0.872264	0.393333
	C173	C	0.191894	0.126299	0.606165
	C174	C	0.824502	0.121296	0.392675
	C175	C	0.824584	0.873660	0.608431
	C176	C	0.400232	0.177869	0.877138
	C177	C	0.613795	0.177399	0.126803
	C178	C	0.398364	0.813002	0.126033
	C179	C	0.612336	0.810105	0.873093
	C180	C	0.398961	0.870404	0.184100
	C181	C	0.615429	0.117669	0.181802
	C182	C	0.400517	0.121012	0.818723
	C183	C	0.612685	0.868144	0.815987
	C184	C	0.881128	0.179542	0.393136
	C185	C	0.133948	0.183579	0.606321
	C186	C	0.132489	0.814242	0.393565
	C187	C	0.881928	0.815769	0.608569
	C188	C	0.186548	0.387735	0.877399
	C189	C	0.189085	0.604754	0.124463
	C190	C	0.822254	0.391910	0.128809
	C191	C	0.822617	0.603666	0.875942
	C192	C	0.413639	0.085152	0.594685
	C193	C	0.603130	0.905962	0.596870
	C194	C	0.603396	0.086985	0.403337
	C195	C	0.412179	0.908207	0.406965
	C196	C	0.600425	0.401747	0.091849
	C197	C	0.600517	0.588905	0.912637
	C198	C	0.409521	0.592581	0.091705
	C199	C	0.410978	0.398010	0.910461
	C200	C	0.095746	0.592445	0.406771
	C201	C	0.915831	0.594368	0.597902
	C202	C	0.096033	0.402527	0.595117
	C203	C	0.916373	0.402630	0.405792
	C204	C	0.914418	0.585436	0.094073
	C205	C	0.103276	0.406830	0.097628
	C206	C	0.105548	0.587627	0.903086
	C207	C	0.912491	0.408195	0.905933
	C208	C	0.100243	0.903456	0.589665
	C209	C	0.099758	0.091329	0.411838
	C210	C	0.909940	0.094111	0.591352
	C211	C	0.910911	0.901038	0.410213
	C212	C	0.597163	0.090369	0.906962
	C213	C	0.416840	0.090361	0.096087
	C214	C	0.596359	0.899195	0.095671
	C215	C	0.416533	0.899873	0.906434
	Zn216	Zn	0.506757	-0.004456	0.751397
	Zn217	Zn	0.506813	-0.004823	0.250243
	Zn218	Zn	0.756713	0.496026	0.001845
	Zn219	Zn	0.257244	0.495391	0.000334
	Zn220	Zn	0.006361	0.747610	0.501296
	Zn221	Zn	0.005469	0.247415	0.500829
	Zn222	Zn	0.006546	0.497988	0.750547
	Zn223	Zn	0.006970	0.497807	0.251187
	Zn224	Zn	0.506093	0.745176	0.000894
	Zn225	Zn	0.506948	0.245514	0.002532
	Zn226	Zn	0.756919	-0.002574	0.500458
	Zn227	Zn	0.256659	-0.002155	0.500911
	N228	N	0.418859	0.962533	0.681741
	N229	N	0.595263	0.029396	0.683020
	N230	N	0.593563	0.961412	0.320922
	N231	N	0.420146	0.030864	0.320559
	N232	N	0.687313	0.408175	0.968650
	N233	N	0.686971	0.583187	0.035770
	N234	N	0.328334	0.580849	0.965007
	N235	N	0.326687	0.408380	0.035182
	N236	N	0.972058	0.678137	0.413738
	N237	N	0.040169	0.679001	0.589299
	N238	N	0.971293	0.318646	0.586479
	N239	N	0.039178	0.315850	0.412203
	N240	N	0.971991	0.410865	0.680623
	N241	N	0.041255	0.584824	0.680980
	N242	N	0.972233	0.585039	0.320524
	N243	N	0.041213	0.411151	0.321667
	N244	N	0.419692	0.675127	0.966205
	N245	N	0.593984	0.676156	0.035090
	N246	N	0.595307	0.314415	0.969015
	N247	N	0.419284	0.315072	0.035568
	N248	N	0.686574	0.962167	0.414146
	N249	N	0.686586	0.030611	0.588100
	N250	N	0.325196	0.963789	0.589022
	N251	N	0.325172	0.030533	0.411995
	N252	N	0.920711	0.463105	0.181047
	N253	N	0.096374	0.530591	0.183072
	N254	N	0.094217	0.462804	0.819597
	N255	N	0.919673	0.531865	0.821307
	N256	N	0.186602	0.910546	0.466301
	N257	N	0.187634	0.086291	0.534173
	N258	N	0.826524	0.084167	0.466326
	N259	N	0.826471	0.910457	0.534795
	N260	N	0.473352	0.175427	0.915079
	N261	N	0.539781	0.176556	0.090352
	N262	N	0.471630	0.814883	0.087958
	N263	N	0.539652	0.813352	0.912085
	N264	N	0.472499	0.907556	0.181515
	N265	N	0.542075	0.080290	0.179550
	N266	N	0.473770	0.083450	0.820944
	N267	N	0.540119	0.907189	0.819853
	N268	N	0.918139	0.178119	0.466837
	N269	N	0.094123	0.179103	0.534208
	N270	N	0.094268	0.816835	0.466813
	N271	N	0.918938	0.816987	0.534901
	N272	N	0.186867	0.461782	0.913240
	N273	N	0.187518	0.530996	0.087682
	N274	N	0.825857	0.464106	0.089830
	N275	N	0.825022	0.530360	0.913255
	O276	O	0.002523	0.781336	-0.025592
	H277	H	0.005234	0.787898	-0.019191
	H278	H	0.028091	0.771683	-0.052055
	O279	O	0.241298	0.239015	0.239483
	H280	H	0.243655	0.244774	0.251475
	H281	H	0.250642	0.216515	0.232270
	O282	O	1.127332	0.023583	0.773921
	H283	H	1.137566	0.020947	0.773972
	H284	H	1.132155	0.027525	0.777481
	O285	O	0.538555	0.574117	0.665227
	H286	H	0.541235	0.580992	0.649259
	H287	H	0.533169	0.598765	0.677838
	O288	O	0.497785	0.719181	0.643709
	H289	H	0.474817	0.723600	0.620768
	H290	H	0.490793	0.725618	0.651843
	O291	O	0.457344	0.473663	0.508015
	H292	H	0.457331	0.464697	0.516929
	H293	H	0.451600	0.463821	0.512283
	O294	O	0.784023	0.221026	0.990002
	H295	H	0.800706	0.205190	0.955514
	H296	H	0.751472	0.254160	0.974044
	O297	O	0.289321	0.721335	0.475589
	H298	H	0.296472	0.707480	0.435251
	H299	H	0.260284	0.748305	0.470414
	O300	O	-0.023596	0.216766	0.781186
	H301	H	-0.008829	0.241130	0.784199
	H302	H	-0.004417	0.212876	0.779643
	O303	O	0.723712	0.710808	0.540065
	H304	H	0.746318	0.726918	0.531807
	H305	H	0.721494	0.703575	0.549031
	O306	O	0.582024	0.267084	0.524362
	H307	H	0.571715	0.264282	0.516141
	H308	H	0.597079	0.268610	0.535321
	O309	O	0.311647	0.695076	0.704342
	H310	H	0.283479	0.709445	0.720901
	H311	H	0.318126	0.681092	0.686673
	O312	O	0.529980	0.519030	0.717586
	H313	H	0.520010	0.526814	0.724855
	H314	H	0.539031	0.517820	0.704186
	O315	O	0.785298	0.775048	1.019032
	H316	H	0.775817	0.757676	1.028241
	H317	H	0.793952	0.763373	1.013168
	O318	O	0.577409	0.492227	0.361632
	H319	H	0.579867	0.491561	0.374277
	H320	H	0.575473	0.479214	0.357351
	O321	O	0.193452	0.785031	0.796165
	H322	H	0.168146	0.783867	0.817739
	H323	H	0.177163	0.818732	0.788032
	O324	O	0.990959	0.779390	0.219414
	H325	H	0.969243	0.765657	0.228818
	H326	H	0.984337	0.768286	0.216724
	O327	O	0.146373	0.223049	0.983907
	H328	H	0.162596	0.230759	1.011532
	H329	H	0.155959	0.224131	0.988938
	O330	O	0.694911	0.314738	0.457865
	H331	H	0.692677	0.318387	0.471335
	H332	H	0.698707	0.297588	0.470156
	O333	O	0.475892	0.274712	0.717634
	H334	H	0.481831	0.263956	0.724656
	H335	H	0.489695	0.272987	0.724432
	O336	O	0.709121	0.287615	0.287075
	H337	H	0.695572	0.303268	0.306441
	H338	H	0.718643	0.274959	0.294479
	O339	O	0.762593	0.213267	0.752890
	H340	H	0.778631	0.213265	0.748420
	H341	H	0.778569	0.202432	0.756499
	O342	O	-0.034942	0.049656	0.163439
	H343	H	-0.039543	0.052448	0.167315
	H344	H	-0.037261	0.054239	0.170538
	O345	O	0.164269	0.920520	1.026177
	H346	H	0.161149	0.914985	1.041511
	H347	H	0.169033	0.902485	1.032795
	O348	O	0.014342	0.135219	0.010474
	H349	H	-0.000208	0.102184	-0.001153
	H350	H	0.025509	0.137331	0.015294
	O351	O	0.672287	0.695751	0.305000
	H352	H	0.660738	0.666954	0.307569
	H353	H	0.694854	0.714579	0.286759
	O354	O	0.099550	0.072789	1.054102
	H355	H	0.095280	0.076956	1.077669
	H356	H	0.090435	0.087999	1.052382
	O357	O	0.501948	0.448729	0.420665
	H358	H	0.518853	0.438026	0.413711
	H359	H	0.500222	0.446395	0.442327
	O360	O	0.307754	0.285129	0.707255
	H361	H	0.339984	0.281227	0.713113
	H362	H	0.302969	0.328268	0.708164
	O363	O	0.004247	0.232168	-0.001447
	H364	H	0.003087	0.224815	0.015355
	H365	H	0.008649	0.234265	0.003128
	O366	O	0.515470	0.319021	0.347661
	H367	H	0.524318	0.311544	0.346932
	H368	H	0.522806	0.312249	0.348188
	O369	O	0.814707	0.192484	0.189589
	H370	H	0.798811	0.191537	0.202870
	H371	H	0.824052	0.195466	0.157201
	O372	O	0.946561	0.844518	0.023868
	H373	H	0.950426	0.833719	0.018743
	H374	H	0.946849	0.847338	0.022722
	O375	O	0.787988	-0.030854	0.219651
	H376	H	0.787011	-0.023109	0.218827
	H377	H	0.775694	-0.023181	0.224372
	O378	O	0.353060	0.480172	0.301447
	H379	H	0.340034	0.492757	0.296147
	H380	H	0.351721	0.472806	0.306036
	O381	O	0.014330	0.788992	0.787548
	H382	H	0.017613	0.773131	0.760373
	H383	H	0.003469	0.816592	0.786248
	O384	O	0.784134	0.020110	0.776501
	H385	H	0.761521	0.010791	0.760770
	H386	H	0.776444	0.002777	0.784279
	O387	O	1.069383	0.944035	0.229249
	H388	H	1.073486	0.936330	0.227900
	H389	H	1.050095	0.930936	0.235595
	O390	O	0.666489	0.404084	0.318252
	H391	H	0.663473	0.405272	0.311640
	H392	H	0.650253	0.391705	0.323583
	O393	O	0.306762	0.515659	0.550067
	H394	H	0.307159	0.521187	0.548213
	H395	H	0.310906	0.532144	0.545979
	O396	O	0.116606	1.013353	0.861268
	H397	H	0.144774	1.007395	0.852119
	H398	H	0.107957	1.007243	0.858765
	O399	O	0.025475	-0.068647	0.803987
	H400	H	0.005646	-0.050979	0.791962
	H401	H	0.034265	-0.052351	0.824597
	O402	O	0.394020	0.667755	0.534337
	H403	H	0.378574	0.677845	0.519750
	H404	H	0.406058	0.662905	0.516643
	O405	O	0.831025	0.147312	0.858389
	H406	H	0.840619	0.150171	0.868267
	H407	H	0.846090	0.129770	0.869344
	O408	O	0.223181	0.134108	0.111993
	H409	H	0.231659	0.125293	0.124274
	H410	H	0.229553	0.127007	0.119078
	O411	O	0.712632	0.700446	0.706536
	H412	H	0.713292	0.682883	0.681173
	H413	H	0.688418	0.714353	0.721406
	O414	O	0.582046	0.422611	0.626299
	H415	H	0.574940	0.443175	0.630008
	H416	H	0.607811	0.401709	0.635385
	O417	O	0.731255	0.574594	0.440336
	H418	H	0.732028	0.577872	0.425917
	H419	H	0.736399	0.581404	0.418312
	O420	O	0.289664	0.403869	0.471041
	H421	H	0.300376	0.406907	0.483829
	H422	H	0.288009	0.379146	0.484304
	O423	O	0.104097	0.074151	0.975750
	H424	H	0.106050	0.074821	0.989039
	H425	H	0.113687	0.076554	0.968213
	O426	O	0.308886	0.474680	0.572469
	H427	H	0.303325	0.469745	0.571268
	H428	H	0.334132	0.460502	0.566848
	O429	O	0.941840	0.950068	0.805791
	H430	H	0.963354	0.958051	0.813902
	H431	H	0.944768	0.965880	0.813514
	O432	O	0.465907	0.586362	0.480389
	H433	H	0.481677	0.587702	0.491950
	H434	H	0.468495	0.592880	0.493863
	O435	O	0.116831	0.928609	0.148464
	H436	H	0.129460	0.920720	0.160283
	H437	H	0.119883	0.951683	0.152623
	O438	O	-0.053979	-0.042920	0.159792
	H439	H	-0.064238	-0.030825	0.146945
	H440	H	-0.047967	-0.047348	0.149964
	O441	O	0.037500	0.218941	0.220331
	H442	H	0.032813	0.227047	0.239176
	H443	H	0.054008	0.223475	0.223775
	O444	O	0.353678	0.300918	0.351898
	H445	H	0.343046	0.302880	0.359135
	H446	H	0.368124	0.315364	0.361000
	O447	O	0.227704	1.033712	0.950062
	H448	H	0.238925	1.041927	0.948838
	H449	H	0.215074	1.029052	0.950314
	O450	O	0.234077	0.771704	0.964571
	H451	H	0.260320	0.749130	0.965739
	H452	H	0.237521	0.783097	0.949079
	O453	O	0.285739	0.452585	0.723707
	H454	H	0.254954	0.459628	0.754431
	H455	H	0.297806	0.473447	0.702723
	O456	O	0.194890	0.182068	0.812327
	H457	H	0.205492	0.184591	0.826896
	H458	H	0.199185	0.182539	0.804348
	O459	O	0.799787	0.802304	0.199377
	H460	H	0.802247	0.816960	0.179262
	H461	H	0.809524	0.822584	0.188186
	O462	O	0.643430	0.526301	0.281558
	H463	H	0.623854	0.511090	0.286254
	H464	H	0.647779	0.510499	0.275945
	O465	O	0.785247	0.037723	0.075432
	H466	H	0.780116	0.071081	0.065023
	H467	H	0.794306	0.026906	0.070261
	O468	O	0.343812	0.502447	0.277227
	H469	H	0.337664	0.504000	0.289329
	H470	H	0.328893	0.497118	0.278132
	O471	O	0.563600	0.647633	0.444853
	H472	H	0.582996	0.644026	0.443988
	H473	H	0.570686	0.643212	0.442314
	O474	O	0.305042	0.699240	0.299623
	H475	H	0.310299	0.665215	0.306219
	H476	H	0.344906	0.690788	0.293316
	O477	O	0.471917	0.681061	1.313352
	H478	H	0.485950	0.692760	1.323734
	H479	H	0.490784	0.675188	1.303292
	O480	O	0.473793	0.290689	0.513480
	H481	H	0.459830	0.288752	0.507858
	H482	H	0.466547	0.284980	0.523023
	O483	O	0.727260	0.520504	0.723484
	H484	H	0.733943	0.536722	0.738729
	H485	H	0.731492	0.523799	0.730718
	O486	O	0.654159	0.372439	0.735807
	H487	H	0.670736	0.358620	0.745483
	H488	H	0.661673	0.366203	0.745736
	O489	O	0.874225	0.878897	-0.197495
	H490	H	0.852406	0.866218	-0.204746
	H491	H	0.875570	0.887800	-0.178760
	O492	O	0.189860	-0.078255	0.188290
	H493	H	0.185022	-0.088202	0.185750
	H494	H	0.178004	-0.080588	0.197160
	O495	O	0.035293	0.863546	1.022764
	H496	H	0.060020	0.853454	1.013232
	H497	H	0.041535	0.871151	1.039044
	O498	O	0.771691	0.930597	0.936497
	H499	H	0.769799	0.933025	0.946593
	H500	H	0.777109	0.919991	0.953637
	O501	O	0.729439	0.453485	0.553075
	H502	H	0.738901	0.466126	0.541406
	H503	H	0.733783	0.461911	0.570213
