data_Molecule from HDF5

_cell_length_a		16.669328
_cell_length_b		16.548699
_cell_length_c		16.484256
_cell_angle_alpha	89.887345
_cell_angle_beta	90.078012
_cell_angle_gamma	89.825730
_symmetry_space_group_name_H-M	'P 1'
_symmetry_Int_Tables_number		1

loop_
	_symmetry_equiv_pos_as_xyz
	x,y,z

loop_
	_atom_site_label
	_atom_site_type_symbol
	_atom_site_fract_x
	_atom_site_fract_y
	_atom_site_fract_z
	H0	H	0.406574	0.843469	0.723610
	H1	H	0.612008	0.157352	0.721693
	H2	H	0.614237	0.843708	0.281120
	H3	H	0.402376	0.155553	0.280233
	H4	H	0.728528	0.396346	0.844473
	H5	H	0.730079	0.604676	0.158004
	H6	H	0.288184	0.604797	0.844204
	H7	H	0.286509	0.392799	0.157971
	H8	H	0.855593	0.723707	0.395148
	H9	H	0.164718	0.722906	0.610118
	H10	H	0.852421	0.280175	0.604708
	H11	H	0.165422	0.278400	0.398662
	H12	H	0.851916	0.398822	0.720067
	H13	H	0.164416	0.606458	0.725948
	H14	H	0.854467	0.606055	0.279419
	H15	H	0.166293	0.396546	0.282873
	H16	H	0.404552	0.720579	0.844159
	H17	H	0.611877	0.718819	0.158880
	H18	H	0.611744	0.280530	0.844382
	H19	H	0.404535	0.278374	0.158424
	H20	H	0.732524	0.844834	0.395849
	H21	H	0.731350	0.155486	0.608585
	H22	H	0.287676	0.843711	0.609641
	H23	H	0.285654	0.155606	0.396276
	H24	H	0.906953	0.342402	0.220982
	H25	H	0.114675	0.654778	0.223881
	H26	H	0.108441	0.340320	0.785883
	H27	H	0.904900	0.656212	0.780074
	H28	H	0.233068	0.891174	0.347917
	H29	H	0.225448	0.100076	0.661230
	H30	H	0.788670	0.103738	0.345647
	H31	H	0.787825	0.893080	0.659174
	H32	H	0.355361	0.226068	0.892940
	H33	H	0.664024	0.221249	0.107920
	H34	H	0.354024	0.777623	0.108202
	H35	H	0.663528	0.777825	0.897443
	H36	H	0.353590	0.893508	0.224527
	H37	H	0.662972	0.106151	0.226362
	H38	H	0.354633	0.107390	0.778369
	H39	H	0.665034	0.896092	0.782000
	H40	H	0.905052	0.218800	0.344755
	H41	H	0.108230	0.215394	0.661147
	H42	H	0.116191	0.777839	0.347072
	H43	H	0.906449	0.778829	0.659362
	H44	H	0.229418	0.342163	0.898336
	H45	H	0.231855	0.654219	0.109602
	H46	H	0.788498	0.343490	0.106404
	H47	H	0.784304	0.654724	0.891990
	H48	H	0.421845	0.112237	0.593727
	H49	H	0.603076	0.885066	0.593048
	H50	H	0.600874	0.113060	0.414471
	H51	H	0.417401	0.886171	0.412270
	H52	H	0.603993	0.415159	0.115297
	H53	H	0.593697	0.588926	0.889447
	H54	H	0.417728	0.591043	0.115641
	H55	H	0.415339	0.413632	0.888301
	H56	H	0.122494	0.589453	0.407706
	H57	H	0.898510	0.590933	0.591268
	H58	H	0.121488	0.408162	0.593890
	H59	H	0.896567	0.409543	0.410534
	H60	H	0.121997	0.405443	0.594243
	H61	H	0.900632	0.589038	0.585114
	H62	H	0.120173	0.591211	0.417809
	H63	H	0.896966	0.408419	0.409482
	H64	H	0.417077	0.584838	0.113219
	H65	H	0.599290	0.590588	0.886743
	H66	H	0.593653	0.412477	0.113076
	H67	H	0.422626	0.416999	0.892380
	H68	H	0.594968	0.110976	0.411973
	H69	H	0.594374	0.889075	0.594254
	H70	H	0.418965	0.109915	0.585353
	H71	H	0.422652	0.889011	0.412476
	H72	H	0.916732	0.612225	0.087833
	H73	H	0.104225	0.384251	0.093847
	H74	H	0.099835	0.611822	0.913847
	H75	H	0.917130	0.387758	0.915707
	H76	H	0.102111	0.913277	0.616164
	H77	H	0.100637	0.084736	0.389318
	H78	H	0.917565	0.087297	0.615456
	H79	H	0.925424	0.918836	0.394368
	H80	H	0.619567	0.083594	0.910716
	H81	H	0.398143	0.092520	0.085839
	H82	H	0.617811	0.915213	0.090424
	H83	H	0.399824	0.914661	0.917515
	H84	H	0.622085	0.908492	0.096125
	H85	H	0.399398	0.084642	0.088987
	H86	H	0.622576	0.094604	0.910653
	H87	H	0.396054	0.914274	0.907290
	H88	H	0.921795	0.087873	0.614416
	H89	H	0.095118	0.089544	0.390012
	H90	H	0.095144	0.914436	0.612835
	H91	H	0.923927	0.905180	0.388927
	H92	H	0.098194	0.612271	0.911506
	H93	H	0.091685	0.388265	0.093021
	H94	H	0.921565	0.612169	0.091330
	H95	H	0.915008	0.385930	0.910269
	H96	H	0.413286	0.113603	0.591214
	H97	H	0.599588	0.890285	0.585942
	H98	H	0.596301	0.110157	0.418726
	H99	H	0.419676	0.888205	0.417397
	H100	H	0.600603	0.404924	0.117073
	H101	H	0.598794	0.585033	0.889698
	H102	H	0.422460	0.587742	0.113261
	H103	H	0.422954	0.408695	0.888536
	H104	H	0.118567	0.581525	0.413767
	H105	H	0.900003	0.584288	0.590793
	H106	H	0.121337	0.406381	0.591715
	H107	H	0.896610	0.407949	0.411033
	H108	H	0.921832	0.609968	0.085663
	H109	H	0.100036	0.388620	0.082471
	H110	H	0.096917	0.611226	0.914165
	H111	H	0.921083	0.387888	0.910966
	H112	H	0.096694	0.907515	0.616471
	H113	H	0.100947	0.091513	0.386831
	H114	H	0.919619	0.090893	0.617335
	H115	H	0.912876	0.914820	0.388839
	H116	H	0.618103	0.089783	0.920133
	H117	H	0.396249	0.090193	0.093883
	H118	H	0.619762	0.906378	0.086646
	H119	H	0.395787	0.905128	0.913303
	C120	C	0.387502	0.008349	0.623281
	C121	C	0.630688	0.991653	0.623482
	C122	C	0.630025	0.008214	0.381569
	C123	C	0.386824	0.990954	0.381129
	C124	C	0.630394	0.378999	0.010638
	C125	C	0.629363	0.620334	0.992560
	C126	C	0.386922	0.621053	0.010349
	C127	C	0.387919	0.379545	0.993189
	C128	C	0.018247	0.621278	0.379887
	C129	C	1.001672	0.621103	0.623322
	C130	C	0.017289	0.377485	0.623210
	C131	C	1.000539	0.377729	0.379978
	C132	C	0.888430	0.508260	0.121334
	C133	C	0.130583	0.490438	0.122791
	C134	C	0.129507	0.507661	0.881207
	C135	C	0.886075	0.490729	0.879405
	C136	C	0.130550	0.878820	0.511694
	C137	C	0.129253	0.119445	0.493788
	C138	C	0.887713	0.120449	0.511589
	C139	C	0.888801	0.879462	0.494136
	C140	C	0.517800	0.122379	0.880186
	C141	C	0.500359	0.121200	0.122948
	C142	C	0.517320	0.877731	0.123798
	C143	C	0.500152	0.879176	0.881001
	C144	C	0.386999	0.890284	0.683747
	C145	C	0.631577	0.109968	0.682650
	C146	C	0.632896	0.890841	0.320900
	C147	C	0.384005	0.108687	0.320455
	C148	C	0.688712	0.377511	0.891672
	C149	C	0.689602	0.622821	0.110971
	C150	C	0.327717	0.623508	0.891619
	C151	C	0.327252	0.375239	0.110946
	C152	C	0.902052	0.682833	0.376898
	C153	C	0.118165	0.681936	0.627387
	C154	C	0.899152	0.319851	0.623765
	C155	C	0.118577	0.318408	0.379488
	C156	C	0.898906	0.378423	0.681269
	C157	C	0.117896	0.623909	0.685218
	C158	C	0.901363	0.624142	0.319490
	C159	C	0.119014	0.376954	0.321821
	C160	C	0.385392	0.681080	0.891556
	C161	C	0.630843	0.679430	0.111422
	C162	C	0.630808	0.320222	0.891605
	C163	C	0.385721	0.318344	0.111310
	C164	C	0.691415	0.891334	0.378048
	C165	C	0.690839	0.108984	0.626446
	C166	C	0.328232	0.890393	0.626878
	C167	C	0.325829	0.108402	0.377960
	C168	C	0.887573	0.389749	0.181123
	C169	C	0.132819	0.607948	0.183447
	C170	C	0.129110	0.388122	0.823975
	C171	C	0.885192	0.608966	0.819579
	C172	C	0.192101	0.874175	0.394414
	C173	C	0.186682	0.119652	0.613395
	C174	C	0.828371	0.122433	0.392896
	C175	C	0.828353	0.875474	0.612145
	C176	C	0.401532	0.184481	0.875984
	C177	C	0.617208	0.181559	0.126537
	C178	C	0.400470	0.817609	0.126308
	C179	C	0.617212	0.818453	0.878956
	C180	C	0.400434	0.875343	0.184250
	C181	C	0.616413	0.124272	0.185383
	C182	C	0.401172	0.125814	0.818789
	C183	C	0.617953	0.877321	0.821718
	C184	C	0.886130	0.179660	0.392456
	C185	C	0.128436	0.176828	0.613525
	C186	C	0.133805	0.817981	0.393938
	C187	C	0.887229	0.818800	0.612224
	C188	C	0.188779	0.389034	0.880081
	C189	C	0.191235	0.607442	0.126826
	C190	C	0.828697	0.390350	0.124208
	C191	C	0.825502	0.608257	0.875266
	C192	C	0.411340	0.090583	0.597648
	C193	C	0.606165	0.909630	0.598316
	C194	C	0.604592	0.090006	0.407498
	C195	C	0.412433	0.909065	0.406649
	C196	C	0.606351	0.403902	0.093584
	C197	C	0.604536	0.595429	0.910024
	C198	C	0.411889	0.595272	0.092694
	C199	C	0.413128	0.405678	0.911158
	C200	C	0.099421	0.594992	0.405734
	C201	C	0.920655	0.595491	0.596494
	C202	C	0.099963	0.400202	0.599900
	C203	C	0.918193	0.401678	0.403511
	C204	C	0.913073	0.590146	0.095719
	C205	C	0.105638	0.408447	0.097026
	C206	C	0.105204	0.590271	0.906039
	C207	C	0.910887	0.408459	0.905163
	C208	C	0.105206	0.904351	0.593803
	C209	C	0.105763	0.095540	0.410483
	C210	C	0.912448	0.095725	0.594224
	C211	C	0.913694	0.905487	0.411926
	C212	C	0.598905	0.096615	0.906348
	C213	C	0.419146	0.096177	0.096909
	C214	C	0.598779	0.902890	0.098327
	C215	C	0.418723	0.904252	0.905560
	Zn216	Zn	0.509241	0.000608	0.751359
	Zn217	Zn	0.508509	-0.000591	0.252702
	Zn218	Zn	0.758481	0.500095	0.001077
	Zn219	Zn	0.258880	0.499783	0.001786
	Zn220	Zn	0.010318	0.750483	0.502300
	Zn221	Zn	0.008544	0.248356	0.501809
	Zn222	Zn	0.008903	0.499172	0.752074
	Zn223	Zn	0.009509	0.499670	0.250922
	Zn224	Zn	0.508421	0.748817	0.001818
	Zn225	Zn	0.509073	0.251194	0.002017
	Zn226	Zn	0.759166	-0.000311	0.502628
	Zn227	Zn	0.258238	-0.000813	0.502793
	N228	N	0.423054	0.964731	0.681687
	N229	N	0.594842	0.035994	0.680877
	N230	N	0.595403	0.964728	0.322981
	N231	N	0.421099	0.034567	0.322151
	N232	N	0.688755	0.413105	0.966856
	N233	N	0.689098	0.587071	0.035912
	N234	N	0.328222	0.587203	0.966613
	N235	N	0.328602	0.412603	0.036531
	N236	N	0.975858	0.681228	0.413778
	N237	N	0.044901	0.680192	0.589386
	N238	N	0.973670	0.319037	0.588558
	N239	N	0.043799	0.318342	0.414465
	N240	N	0.973295	0.413475	0.681064
	N241	N	0.044316	0.586758	0.682946
	N242	N	0.974809	0.586595	0.321211
	N243	N	0.044593	0.413018	0.321923
	N244	N	0.421490	0.679796	0.966546
	N245	N	0.594301	0.678131	0.036750
	N246	N	0.595399	0.320896	0.966788
	N247	N	0.422821	0.320863	0.037054
	N248	N	0.690043	0.965604	0.414853
	N249	N	0.690561	0.034319	0.590516
	N250	N	0.328358	0.964874	0.590084
	N251	N	0.327209	0.033988	0.414853
	N252	N	0.923974	0.464043	0.179688
	N253	N	0.095534	0.534145	0.180916
	N254	N	0.093343	0.462864	0.824441
	N255	N	0.922057	0.534690	0.821798
	N256	N	0.190449	0.911158	0.468642
	N257	N	0.187519	0.085060	0.537724
	N258	N	0.828987	0.086529	0.467958
	N259	N	0.829179	0.912546	0.537702
	N260	N	0.475049	0.182570	0.913411
	N261	N	0.544015	0.179914	0.088427
	N262	N	0.474259	0.818942	0.089485
	N263	N	0.543114	0.819390	0.915059
	N264	N	0.474123	0.912206	0.182753
	N265	N	0.542804	0.087402	0.183287
	N266	N	0.474543	0.087978	0.821203
	N267	N	0.544192	0.914431	0.822751
	N268	N	0.922189	0.178767	0.467354
	N269	N	0.093734	0.177189	0.537842
	N270	N	0.096221	0.820682	0.467905
	N271	N	0.923943	0.821011	0.537763
	N272	N	0.189344	0.464603	0.914706
	N273	N	0.189926	0.533460	0.089572
	N274	N	0.829074	0.464971	0.087612
	N275	N	0.825802	0.533669	0.911696
	O276	O	-0.200523	0.790252	0.206710
	H277	H	-0.222433	0.763809	0.237967
	H278	H	-0.197887	0.822856	0.207330
	O279	O	0.703716	0.380074	0.576402
	H280	H	0.682428	0.377420	0.573765
	H281	H	0.701359	0.383995	0.563073
	O282	O	1.326457	0.298044	0.703516
	H283	H	1.310132	0.269612	0.727059
	H284	H	1.320238	0.305352	0.669562
	O285	O	0.603418	0.512842	0.529731
	H286	H	0.599242	0.507040	0.529753
	H287	H	0.607487	0.514284	0.519592
	O288	O	0.273227	0.720861	0.273004
	H289	H	0.279327	0.702970	0.306624
	H290	H	0.263451	0.706431	0.275586
	O291	O	0.446943	0.723422	0.555791
	H292	H	0.455399	0.725498	0.578408
	H293	H	0.458235	0.721954	0.572389
	O294	O	0.794874	0.031112	0.784823
	H295	H	0.798413	0.039208	0.781315
	H296	H	0.781234	0.042077	0.768707
	O297	O	0.712862	0.559380	0.448976
	H298	H	0.708931	0.556270	0.461942
	H299	H	0.717593	0.568675	0.462731
	O300	O	-0.026466	0.210884	0.789961
	H301	H	-0.039214	0.219077	0.795961
	H302	H	-0.027479	0.210647	0.779670
	O303	O	0.490772	0.503203	0.547646
	H304	H	0.494683	0.509096	0.559233
	H305	H	0.481223	0.520236	0.553532
	O306	O	0.541650	0.717992	0.710939
	H307	H	0.566465	0.717198	0.724096
	H308	H	0.563180	0.725820	0.730566
	O309	O	0.692847	0.685808	0.319771
	H310	H	0.666482	0.662793	0.327431
	H311	H	0.690384	0.672872	0.353951
	O312	O	0.725958	0.719316	0.530444
	H313	H	0.735136	0.725833	0.544205
	H314	H	0.736285	0.728963	0.550596
	O315	O	0.809037	0.997777	0.977000
	H316	H	0.803210	0.996689	0.976063
	H317	H	0.801875	0.991668	0.979040
	O318	O	0.342843	0.659692	0.686037
	H319	H	0.324793	0.688951	0.708460
	H320	H	0.352076	0.639919	0.678222
	O321	O	0.129639	0.892357	1.007055
	H322	H	0.148777	0.886186	1.012760
	H323	H	0.133799	0.882997	1.019467
	O324	O	1.057102	0.999789	0.122048
	H325	H	1.044393	0.999980	0.130680
	H326	H	1.049944	0.969720	0.126096
	O327	O	0.241065	0.072096	0.943122
	H328	H	0.243636	0.048116	0.958432
	H329	H	0.236205	0.077612	0.950834
	O330	O	0.760066	0.253318	0.252396
	H331	H	0.760347	0.244311	0.245194
	H332	H	0.777494	0.237599	0.221637
	O333	O	0.549773	0.430948	0.672645
	H334	H	0.545923	0.434772	0.670202
	H335	H	0.531176	0.421536	0.680659
	O336	O	0.297551	0.475521	0.384924
	H337	H	0.294817	0.487906	0.393746
	H338	H	0.310475	0.474754	0.378613
	O339	O	1.064635	-0.117859	1.148682
	H340	H	1.065345	-0.123306	1.152253
	H341	H	1.069027	-0.120804	1.148669
	O342	O	-0.035432	-0.064274	0.143849
	H343	H	-0.043018	-0.069184	0.153128
	H344	H	-0.026903	-0.070061	0.137136
	O345	O	0.212445	1.197345	0.799804
	H346	H	0.194869	1.176132	0.803739
	H347	H	0.197270	1.181947	0.816571
	O348	O	0.063770	0.209764	0.062529
	H349	H	0.092172	0.227188	0.069384
	H350	H	0.075345	0.193737	0.071601
	O351	O	0.631672	0.333101	0.554879
	H352	H	0.631529	0.329353	0.565818
	H353	H	0.651385	0.326119	0.539631
	O354	O	0.016801	0.167776	1.226613
	H355	H	0.021167	0.170198	1.242747
	H356	H	0.043751	0.179037	1.231017
	O357	O	0.723693	0.281814	0.482084
	H358	H	0.744441	0.258700	0.457365
	H359	H	0.717776	0.288742	0.455167
	O360	O	0.212967	-0.032323	0.796236
	H361	H	0.201799	-0.025529	0.810168
	H362	H	0.231822	-0.016153	0.778454
	O363	O	-0.119547	0.145512	0.196197
	H364	H	-0.106467	0.131200	0.174562
	H365	H	-0.091835	0.145342	0.196958
	O366	O	0.487204	0.284319	0.699773
	H367	H	0.456972	0.286046	0.698640
	H368	H	0.486903	0.255900	0.710290
	O369	O	0.905931	-0.046620	-0.040264
	H370	H	0.894298	-0.055076	-0.034446
	H371	H	0.905073	-0.055819	-0.043293
	O372	O	1.134117	0.974463	-0.124558
	H373	H	1.117097	0.965262	-0.115780
	H374	H	1.130973	0.988446	-0.124792
	O375	O	0.792196	0.209991	-0.029799
	H376	H	0.773407	0.239756	-0.035456
	H377	H	0.817689	0.209090	-0.037671
	O378	O	0.479699	0.489295	0.548283
	H379	H	0.468458	0.473209	0.534423
	H380	H	0.481936	0.490365	0.563911
	O381	O	0.221061	0.789652	0.791747
	H382	H	0.219337	0.821140	0.806932
	H383	H	0.201560	0.791762	0.808416
	O384	O	0.776247	0.235301	0.772516
	H385	H	0.787291	0.237597	0.763482
	H386	H	0.756644	0.254313	0.761996
	O387	O	1.173846	0.843816	-0.035289
	H388	H	1.169217	0.840266	-0.044136
	H389	H	1.168151	0.831730	-0.036077
	O390	O	0.554522	0.450626	0.378708
	H391	H	0.548659	0.469938	0.377283
	H392	H	0.577866	0.432871	0.362678
	O393	O	0.718056	0.526579	0.675623
	H394	H	0.701709	0.504960	0.677537
	H395	H	0.718901	0.512753	0.690904
	O396	O	0.063495	1.134765	0.863153
	H397	H	0.049610	1.145510	0.858988
	H398	H	0.048116	1.144532	0.888172
	O399	O	-0.062626	0.222204	1.049593
	H400	H	-0.057935	0.219197	1.055872
	H401	H	-0.045767	0.220154	1.042593
	O402	O	0.357272	0.531842	0.614376
	H403	H	0.350083	0.541095	0.640893
	H404	H	0.341544	0.555094	0.607329
	O405	O	1.229631	-0.076370	1.077551
	H406	H	1.225255	-0.078705	1.101116
	H407	H	1.229456	-0.106041	1.074227
	O408	O	-0.183753	-0.189321	-0.182080
	H409	H	-0.162806	-0.178095	-0.163864
	H410	H	-0.168021	-0.174864	-0.163115
	O411	O	0.405141	0.574195	0.398658
	H412	H	0.404191	0.575078	0.397271
	H413	H	0.409127	0.569184	0.405497
	O414	O	0.212509	0.199256	0.195451
	H415	H	0.222842	0.183215	0.202091
	H416	H	0.218453	0.214356	0.195108
	O417	O	0.540056	0.501189	0.688611
	H418	H	0.539201	0.504019	0.685724
	H419	H	0.512092	0.500220	0.680953
	O420	O	0.717551	0.474944	0.298777
	H421	H	0.714118	0.483369	0.302036
	H422	H	0.726948	0.469512	0.290501
	O423	O	-0.210876	0.022619	1.037291
	H424	H	-0.213158	0.033943	1.027429
	H425	H	-0.217807	0.022486	1.017321
	O426	O	0.343119	0.321835	0.344088
	H427	H	0.350395	0.339618	0.363028
	H428	H	0.363523	0.340180	0.340241
	O429	O	1.210968	1.201951	1.032457
	H430	H	1.213730	1.191934	1.053038
	H431	H	1.220381	1.219673	1.023630
	O432	O	0.476877	0.293100	0.443123
	H433	H	0.482810	0.289927	0.465752
	H434	H	0.474949	0.299818	0.443825
	O435	O	-0.049373	0.781405	-0.042039
	H436	H	-0.044630	0.790062	-0.025992
	H437	H	-0.048431	0.773957	-0.034688
	O438	O	-0.205688	-0.029084	0.210632
	H439	H	-0.211340	-0.024361	0.208655
	H440	H	-0.205335	-0.015623	0.218660
	O441	O	0.228944	0.023135	0.220154
	H442	H	0.247776	0.021303	0.236629
	H443	H	0.223018	0.029321	0.217107
	O444	O	0.448902	0.440973	0.271012
	H445	H	0.477967	0.465014	0.274732
	H446	H	0.469800	0.413734	0.266846
	O447	O	0.022821	0.790820	0.800477
	H448	H	0.017621	0.796814	0.793276
	H449	H	0.029076	0.781485	0.811870
	O450	O	-0.010156	0.782896	1.217032
	H451	H	-0.034095	0.784901	1.219042
	H452	H	-0.016579	0.762677	1.230490
	O453	O	0.281842	0.467132	0.725177
	H454	H	0.260881	0.453728	0.751027
	H455	H	0.286138	0.447232	0.727336
	O456	O	-0.076619	0.082214	0.946860
	H457	H	-0.081192	0.094523	0.928955
	H458	H	-0.093528	0.085926	0.955508
	O459	O	0.287490	0.672633	0.497210
	H460	H	0.306949	0.676284	0.511997
	H461	H	0.275173	0.691064	0.511485
	O462	O	0.566766	0.554145	0.282887
	H463	H	0.573567	0.550505	0.300867
	H464	H	0.561719	0.573800	0.286271
	O465	O	0.789476	-0.225232	0.024802
	H466	H	0.779675	-0.241114	0.037156
	H467	H	0.784947	-0.235496	0.055969
	O468	O	0.536366	0.284050	0.287640
	H469	H	0.552212	0.277603	0.293986
	H470	H	0.536484	0.260018	0.283950
	O471	O	0.500593	0.715926	0.322486
	H472	H	0.489584	0.723196	0.325517
	H473	H	0.485012	0.733193	0.314210
	O474	O	0.554969	0.693660	0.474517
	H475	H	0.558549	0.700710	0.487008
	H476	H	0.566108	0.694530	0.486884
	O477	O	0.290097	0.281252	1.539775
	H478	H	0.268612	0.275093	1.529279
	H479	H	0.300453	0.281915	1.530292
	O480	O	0.307224	0.497399	0.359331
	H481	H	0.316028	0.502277	0.370282
	H482	H	0.310852	0.484786	0.359230
	O483	O	0.713112	0.707538	0.703229
	H484	H	0.745036	0.734314	0.730749
	H485	H	0.720477	0.660044	0.702736
	O486	O	0.169711	0.789910	0.153393
	H487	H	0.180471	0.764772	0.149429
	H488	H	0.182554	0.797739	0.172782
	O489	O	0.968649	0.965102	-0.200767
	H490	H	0.969512	0.967548	-0.203007
	H491	H	0.973518	0.965924	-0.190142
