data_Molecule from HDF5

_cell_length_a		16.559405
_cell_length_b		16.507675
_cell_length_c		16.644518
_cell_angle_alpha	89.983498
_cell_angle_beta	89.903283
_cell_angle_gamma	89.909133
_symmetry_space_group_name_H-M	'P 1'
_symmetry_Int_Tables_number		1

loop_
	_symmetry_equiv_pos_as_xyz
	x,y,z

loop_
	_atom_site_label
	_atom_site_type_symbol
	_atom_site_fract_x
	_atom_site_fract_y
	_atom_site_fract_z
	H0	H	0.405298	0.839816	0.743059
	H1	H	0.617728	0.150606	0.741202
	H2	H	0.613871	0.837074	0.300608
	H3	H	0.407132	0.151583	0.298720
	H4	H	0.735000	0.387826	0.863863
	H5	H	0.732986	0.598839	0.175162
	H6	H	0.288259	0.602204	0.864585
	H7	H	0.289697	0.388831	0.174443
	H8	H	0.855914	0.713451	0.418056
	H9	H	0.169587	0.714619	0.624198
	H10	H	0.854895	0.275471	0.622573
	H11	H	0.168256	0.271988	0.414856
	H12	H	0.855786	0.389106	0.741186
	H13	H	0.169356	0.599320	0.741478
	H14	H	0.856487	0.599399	0.298938
	H15	H	0.168007	0.387172	0.296283
	H16	H	0.403669	0.719695	0.865356
	H17	H	0.615399	0.714917	0.175247
	H18	H	0.618737	0.271253	0.864980
	H19	H	0.407571	0.273539	0.175160
	H20	H	0.728906	0.835439	0.418526
	H21	H	0.732630	0.151593	0.622939
	H22	H	0.291450	0.838602	0.625015
	H23	H	0.291585	0.152297	0.415283
	H24	H	0.908588	0.337093	0.239510
	H25	H	0.117847	0.650469	0.240397
	H26	H	0.117078	0.336389	0.799071
	H27	H	0.907863	0.651356	0.799474
	H28	H	0.235171	0.889563	0.364068
	H29	H	0.235569	0.101782	0.675400
	H30	H	0.794222	0.097031	0.361789
	H31	H	0.792335	0.890857	0.674797
	H32	H	0.356474	0.218184	0.913277
	H33	H	0.668672	0.214484	0.122969
	H34	H	0.354736	0.775221	0.122754
	H35	H	0.667452	0.772107	0.914453
	H36	H	0.355697	0.889387	0.241167
	H37	H	0.667774	0.099621	0.240818
	H38	H	0.356900	0.103522	0.796094
	H39	H	0.666834	0.886930	0.795869
	H40	H	0.910118	0.213782	0.362263
	H41	H	0.119412	0.218241	0.675061
	H42	H	0.117993	0.773674	0.363644
	H43	H	0.911668	0.777181	0.676881
	H44	H	0.233480	0.336421	0.914493
	H45	H	0.232819	0.651505	0.122658
	H46	H	0.793774	0.336619	0.122150
	H47	H	0.792845	0.651339	0.916104
	H48	H	0.426569	0.108153	0.612402
	H49	H	0.597051	0.883798	0.609092
	H50	H	0.603305	0.108176	0.428888
	H51	H	0.426674	0.883546	0.430636
	H52	H	0.596608	0.401786	0.130331
	H53	H	0.595545	0.588111	0.908252
	H54	H	0.423178	0.584036	0.130453
	H55	H	0.420000	0.406383	0.905936
	H56	H	0.124344	0.582652	0.431732
	H57	H	0.899361	0.584431	0.612824
	H58	H	0.126641	0.403490	0.612599
	H59	H	0.898154	0.401185	0.429829
	H60	H	0.124331	0.402488	0.604197
	H61	H	0.900601	0.585883	0.609377
	H62	H	0.125901	0.580338	0.427259
	H63	H	0.902579	0.407929	0.434261
	H64	H	0.422080	0.583330	0.130897
	H65	H	0.608498	0.584647	0.905383
	H66	H	0.607439	0.401423	0.134551
	H67	H	0.426323	0.411135	0.910579
	H68	H	0.602695	0.108567	0.429145
	H69	H	0.603885	0.882466	0.605136
	H70	H	0.428887	0.104236	0.604176
	H71	H	0.423769	0.883499	0.434701
	H72	H	0.921554	0.607860	0.110984
	H73	H	0.099169	0.385452	0.098980
	H74	H	0.102008	0.606969	0.929297
	H75	H	0.921917	0.379688	0.927958
	H76	H	0.102529	0.896351	0.634370
	H77	H	0.096410	0.085180	0.410302
	H78	H	0.920062	0.084736	0.631480
	H79	H	0.922899	0.903097	0.406643
	H80	H	0.623336	0.075830	0.924061
	H81	H	0.399943	0.085400	0.108694
	H82	H	0.621222	0.911182	0.105573
	H83	H	0.401478	0.909890	0.931443
	H84	H	0.625942	0.905901	0.117770
	H85	H	0.400606	0.082074	0.108425
	H86	H	0.625845	0.090158	0.930352
	H87	H	0.399442	0.907118	0.930915
	H88	H	0.922505	0.082212	0.630542
	H89	H	0.105507	0.084267	0.407764
	H90	H	0.109329	0.911628	0.631527
	H91	H	0.921554	0.900293	0.405437
	H92	H	0.099463	0.605819	0.929776
	H93	H	0.108610	0.379143	0.109342
	H94	H	0.924410	0.607760	0.109963
	H95	H	0.926794	0.381355	0.928033
	H96	H	0.420140	0.108044	0.605709
	H97	H	0.602754	0.879750	0.612779
	H98	H	0.602963	0.107815	0.429055
	H99	H	0.422038	0.881751	0.430269
	H100	H	0.603339	0.411660	0.129093
	H101	H	0.599555	0.575586	0.910875
	H102	H	0.423383	0.582625	0.129787
	H103	H	0.427665	0.402595	0.907900
	H104	H	0.127004	0.585024	0.427945
	H105	H	0.900703	0.582235	0.610214
	H106	H	0.122664	0.410267	0.608428
	H107	H	0.900236	0.409056	0.425448
	H108	H	0.922171	0.607124	0.108019
	H109	H	0.094198	0.382450	0.112809
	H110	H	0.100954	0.605392	0.931935
	H111	H	0.923544	0.381851	0.932583
	H112	H	0.093501	0.908597	0.627249
	H113	H	0.101447	0.076885	0.411786
	H114	H	0.923649	0.085720	0.630767
	H115	H	0.919674	0.903353	0.405390
	H116	H	0.619678	0.079253	0.939155
	H117	H	0.398287	0.083308	0.111042
	H118	H	0.625823	0.897733	0.106209
	H119	H	0.401572	0.907769	0.934187
	C120	C	0.391884	0.003600	0.640719
	C121	C	0.633575	0.985755	0.640974
	C122	C	0.633405	0.003363	0.398130
	C123	C	0.391881	0.986887	0.399835
	C124	C	0.634722	0.372131	0.028471
	C125	C	0.633311	0.615349	1.010924
	C126	C	0.389918	0.616327	0.027909
	C127	C	0.391895	0.373867	1.010975
	C128	C	0.021955	0.615093	0.398000
	C129	C	1.004084	0.615674	0.641883
	C130	C	0.020885	0.373272	0.640746
	C131	C	1.003650	0.372953	0.397284
	C132	C	0.891492	0.503051	0.140709
	C133	C	0.133305	0.485841	0.139604
	C134	C	0.133627	0.502190	0.897999
	C135	C	0.891953	0.485063	0.898511
	C136	C	0.134669	0.873258	0.528092
	C137	C	0.134166	0.115949	0.511930
	C138	C	0.891026	0.115555	0.527361
	C139	C	0.890968	0.872014	0.509903
	C140	C	0.520351	0.115996	0.897826
	C141	C	0.503063	0.115608	0.140834
	C142	C	0.520358	0.873300	0.141176
	C143	C	0.503345	0.874266	0.898839
	C144	C	0.387783	0.886316	0.702112
	C145	C	0.635920	0.103849	0.700720
	C146	C	0.633381	0.884132	0.340108
	C147	C	0.389121	0.104901	0.339327
	C148	C	0.694958	0.369407	0.911083
	C149	C	0.692913	0.617571	0.128223
	C150	C	0.329000	0.619935	0.911149
	C151	C	0.330771	0.371087	0.128116
	C152	C	0.903120	0.674129	0.398188
	C153	C	0.122475	0.674856	0.642981
	C154	C	0.902209	0.314565	0.641733
	C155	C	0.121491	0.312407	0.395683
	C156	C	0.902880	0.371195	0.700566
	C157	C	0.122266	0.617413	0.701163
	C158	C	0.903525	0.617661	0.339092
	C159	C	0.121241	0.369653	0.336983
	C160	C	0.386386	0.678192	0.911435
	C161	C	0.634612	0.675330	0.128367
	C162	C	0.637233	0.311349	0.911426
	C163	C	0.389194	0.313763	0.128454
	C164	C	0.690358	0.883390	0.398544
	C165	C	0.693053	0.104174	0.642072
	C166	C	0.331301	0.885888	0.643463
	C167	C	0.331489	0.104988	0.397009
	C168	C	0.890365	0.384226	0.199497
	C169	C	0.136029	0.603824	0.199918
	C170	C	0.135808	0.383562	0.838719
	C171	C	0.889705	0.603920	0.839340
	C172	C	0.195025	0.871044	0.410911
	C173	C	0.194966	0.119531	0.628733
	C174	C	0.832894	0.116637	0.409218
	C175	C	0.832176	0.871853	0.628018
	C176	C	0.403496	0.177944	0.894797
	C177	C	0.621470	0.174788	0.141898
	C178	C	0.402084	0.814543	0.141869
	C179	C	0.620924	0.812700	0.895989
	C180	C	0.402343	0.871271	0.200736
	C181	C	0.620904	0.117889	0.200567
	C182	C	0.403654	0.120564	0.836642
	C183	C	0.620456	0.869560	0.837136
	C184	C	0.890825	0.174441	0.409424
	C185	C	0.136949	0.177255	0.628546
	C186	C	0.136805	0.813273	0.410595
	C187	C	0.891367	0.815203	0.629132
	C188	C	0.193802	0.383699	0.895943
	C189	C	0.193404	0.604051	0.141729
	C190	C	0.833232	0.383941	0.141276
	C191	C	0.832512	0.603905	0.897437
	C192	C	0.417937	0.085573	0.614950
	C193	C	0.608440	0.903348	0.616234
	C194	C	0.609653	0.086559	0.422047
	C195	C	0.417087	0.904542	0.424847
	C196	C	0.609584	0.397528	0.110084
	C197	C	0.608435	0.590049	0.929361
	C198	C	0.415462	0.590714	0.109269
	C199	C	0.417440	0.399428	0.929401
	C200	C	0.104194	0.589867	0.421943
	C201	C	0.921647	0.591360	0.617605
	C202	C	0.103043	0.398180	0.615836
	C203	C	0.921688	0.398736	0.422750
	C204	C	0.915759	0.586092	0.116605
	C205	C	0.107961	0.403758	0.114264
	C206	C	0.108150	0.584563	0.922845
	C207	C	0.916831	0.402453	0.922661
	C208	C	0.109233	0.898443	0.609882
	C209	C	0.108376	0.089753	0.430898
	C210	C	0.915008	0.091053	0.609446
	C211	C	0.914564	0.895447	0.427388
	C212	C	0.601817	0.089162	0.923867
	C213	C	0.420947	0.090731	0.116269
	C214	C	0.602907	0.898071	0.116821
	C215	C	0.422150	0.900895	0.924789
	Zn216	Zn	0.511994	-0.005171	0.769524
	Zn217	Zn	0.511609	-0.005420	0.269887
	Zn218	Zn	0.763214	0.493670	0.019782
	Zn219	Zn	0.262171	0.493896	0.018477
	Zn220	Zn	0.013649	0.743787	0.519590
	Zn221	Zn	0.011891	0.244880	0.519843
	Zn222	Zn	0.012822	0.493935	0.769817
	Zn223	Zn	0.012591	0.494316	0.268823
	Zn224	Zn	0.511620	0.744813	0.019279
	Zn225	Zn	0.512039	0.244164	0.019745
	Zn226	Zn	0.762105	-0.005908	0.518685
	Zn227	Zn	0.263044	-0.004795	0.520383
	N228	N	0.424755	0.960646	0.700469
	N229	N	0.599848	0.029121	0.700322
	N230	N	0.598924	0.959833	0.339462
	N231	N	0.425962	0.030352	0.340705
	N232	N	0.693552	0.406419	0.984941
	N233	N	0.692410	0.580950	0.054192
	N234	N	0.331128	0.582147	0.984554
	N235	N	0.332231	0.407506	0.053996
	N236	N	0.977810	0.672872	0.434179
	N237	N	0.048069	0.673917	0.606657
	N238	N	0.976691	0.315552	0.605451
	N239	N	0.047333	0.314447	0.432654
	N240	N	0.977764	0.406762	0.700294
	N241	N	0.047588	0.581474	0.700751
	N242	N	0.978427	0.581913	0.338755
	N243	N	0.046936	0.406471	0.338044
	N244	N	0.423749	0.676079	0.985028
	N245	N	0.598345	0.674221	0.054265
	N246	N	0.600485	0.312823	0.985471
	N247	N	0.426511	0.315485	0.054602
	N248	N	0.690801	0.958707	0.433588
	N249	N	0.691861	0.029628	0.605672
	N250	N	0.333736	0.960014	0.605979
	N251	N	0.333034	0.030577	0.433753
	N252	N	0.925429	0.459483	0.199559
	N253	N	0.099549	0.529269	0.198824
	N254	N	0.099371	0.458326	0.839699
	N255	N	0.925728	0.528909	0.839632
	N256	N	0.193843	0.907252	0.485089
	N257	N	0.193056	0.081795	0.555369
	N258	N	0.832612	0.080776	0.483680
	N259	N	0.831709	0.906286	0.552983
	N260	N	0.477200	0.175370	0.932196
	N261	N	0.547129	0.173364	0.105374
	N262	N	0.476510	0.815524	0.105701
	N263	N	0.547099	0.815302	0.933510
	N264	N	0.477059	0.907134	0.200476
	N265	N	0.546288	0.081864	0.200295
	N266	N	0.477570	0.082796	0.838520
	N267	N	0.546569	0.907203	0.838830
	N268	N	0.925998	0.174143	0.484033
	N269	N	0.099803	0.175407	0.554868
	N270	N	0.099982	0.814387	0.484608
	N271	N	0.927200	0.814869	0.554654
	N272	N	0.192548	0.458484	0.932121
	N273	N	0.191851	0.529634	0.104828
	N274	N	0.833682	0.458972	0.105602
	N275	N	0.833409	0.529008	0.933265
	O276	O	-0.016499	0.776619	0.235187
	H277	H	-0.034097	0.780814	0.240105
	H278	H	-0.030562	0.757417	0.249531
	O279	O	0.564683	0.313888	0.538531
	H280	H	0.569320	0.314530	0.542384
	H281	H	0.574357	0.325014	0.537585
	O282	O	1.654271	0.512193	0.397337
	H283	H	1.664211	0.498743	0.390214
	H284	H	1.663108	0.493580	0.384676
	O285	O	0.473009	0.709938	0.305608
	H286	H	0.461610	0.707273	0.297445
	H287	H	0.470443	0.722672	0.299497
	O288	O	-0.005053	0.923022	-0.038613
	H289	H	0.002385	0.936705	-0.036713
	H290	H	0.013104	0.917116	-0.039706
	O291	O	0.538363	0.708931	0.740601
	H292	H	0.541785	0.727166	0.753388
	H293	H	0.553034	0.712359	0.737379
	O294	O	1.291022	-0.287071	0.740697
	H295	H	1.315848	-0.291991	0.751004
	H296	H	1.276943	-0.256154	0.758178
	O297	O	0.429251	0.563416	0.562079
	H298	H	0.418974	0.567392	0.548331
	H299	H	0.425728	0.562932	0.572795
	O300	O	-0.141017	0.146273	0.833749
	H301	H	-0.136371	0.148479	0.871200
	H302	H	-0.163248	0.165617	0.819181
	O303	O	0.506278	0.676363	0.542725
	H304	H	0.500628	0.671650	0.547555
	H305	H	0.499482	0.678965	0.539536
	O306	O	0.730955	0.712773	0.560569
	H307	H	0.738590	0.717382	0.553407
	H308	H	0.743996	0.715922	0.562183
	O309	O	0.733497	0.526623	0.743993
	H310	H	0.738932	0.559817	0.751395
	H311	H	0.751076	0.537076	0.759105
	O312	O	0.551892	0.594144	0.538880
	H313	H	0.555407	0.594205	0.538969
	H314	H	0.551333	0.598801	0.544393
	O315	O	0.984507	0.855643	0.904118
	H316	H	0.987497	0.876734	0.908233
	H317	H	0.968712	0.855754	0.909473
	O318	O	0.474065	0.485099	0.567923
	H319	H	0.465762	0.492956	0.565445
	H320	H	0.473328	0.492375	0.580904
	O321	O	0.135093	1.063005	1.002344
	H322	H	0.134508	1.067162	1.008194
	H323	H	0.126984	1.049589	0.999501
	O324	O	0.895355	1.119861	0.127524
	H325	H	0.899895	1.123979	0.124599
	H326	H	0.914263	1.117763	0.117832
	O327	O	0.171135	-0.196605	1.028364
	H328	H	0.173896	-0.204150	1.014518
	H329	H	0.163297	-0.207908	1.041930
	O330	O	0.962224	0.138436	0.047171
	H331	H	0.987338	0.148334	0.036202
	H332	H	0.967148	0.131805	0.042380
	O333	O	0.726006	0.356656	0.537395
	H334	H	0.740110	0.339778	0.533947
	H335	H	0.720424	0.368321	0.545522
	O336	O	0.454129	0.324082	0.387941
	H337	H	0.442657	0.324819	0.386748
	H338	H	0.445623	0.327571	0.385540
	O339	O	1.230147	-0.014468	0.851614
	H340	H	1.240454	0.000144	0.855960
	H341	H	1.228021	-0.000980	0.853504
	O342	O	-0.240540	-0.260983	0.277706
	H343	H	-0.250462	-0.251247	0.283521
	H344	H	-0.254978	-0.271709	0.295909
	O345	O	0.316600	1.301980	0.712725
	H346	H	0.344393	1.299660	0.700181
	H347	H	0.322985	1.312047	0.714601
	O348	O	-0.062376	0.043763	0.226756
	H349	H	-0.059541	0.055513	0.212175
	H350	H	-0.055407	0.055860	0.223752
	O351	O	0.644088	0.624819	0.501769
	H352	H	0.639420	0.609630	0.507763
	H353	H	0.639471	0.620471	0.514187
	O354	O	0.054412	0.161148	1.157222
	H355	H	0.043117	0.173492	1.163684
	H356	H	0.062060	0.159384	1.152896
	O357	O	0.597033	0.399627	0.742367
	H358	H	0.598953	0.423585	0.738802
	H359	H	0.595955	0.403397	0.736935
	O360	O	0.150750	-0.092560	1.177564
	H361	H	0.140499	-0.106847	1.183935
	H362	H	0.139494	-0.093932	1.180535
	O363	O	-0.198298	0.046319	-0.161424
	H364	H	-0.224772	0.061152	-0.184132
	H365	H	-0.192063	0.063017	-0.148897
	O366	O	0.327565	0.536203	0.361070
	H367	H	0.314763	0.541637	0.348216
	H368	H	0.333798	0.540189	0.360681
	O369	O	0.910554	-0.131266	0.098328
	H370	H	0.918826	-0.113727	0.088361
	H371	H	0.888497	-0.148110	0.118755
	O372	O	1.222480	0.839431	-0.192122
	H373	H	1.210548	0.862826	-0.179947
	H374	H	1.218481	0.852670	-0.187343
	O375	O	0.952221	0.212768	-0.204609
	H376	H	0.918447	0.220660	-0.212585
	H377	H	0.933383	0.222006	-0.219551
	O378	O	0.303676	0.285154	0.545238
	H379	H	0.312978	0.295873	0.551303
	H380	H	0.281264	0.271705	0.549405
	O381	O	0.409557	0.553959	0.557948
	H382	H	0.408742	0.550385	0.557567
	H383	H	0.408560	0.561620	0.560881
	O384	O	0.496194	0.404815	0.357501
	H385	H	0.503731	0.410084	0.366891
	H386	H	0.492085	0.421322	0.365077
	O387	O	0.932661	0.962151	0.115531
	H388	H	0.934716	0.964310	0.117418
	H389	H	0.929117	0.964315	0.109867
	O390	O	0.458514	0.549124	0.753565
	H391	H	0.458679	0.552177	0.748417
	H392	H	0.448512	0.556825	0.754801
	O393	O	0.638454	0.608751	0.352648
	H394	H	0.634208	0.616042	0.368369
	H395	H	0.639072	0.584412	0.362876
	O396	O	0.144171	1.115776	0.970256
	H397	H	0.156956	1.112802	0.954975
	H398	H	0.150098	1.111402	0.959366
	O399	O	0.221082	0.201196	1.223155
	H400	H	0.249702	0.230523	1.254914
	H401	H	0.210180	0.167387	1.230539
	O402	O	0.351821	0.387441	0.476298
	H403	H	0.338386	0.384933	0.476123
	H404	H	0.347315	0.420788	0.496192
	O405	O	0.825143	-0.034856	1.135777
	H406	H	0.830622	-0.036239	1.141179
	H407	H	0.819571	-0.039253	1.145040
	O408	O	-0.173213	-0.189354	-0.170673
	H409	H	-0.146218	-0.178459	-0.155379
	H410	H	-0.161995	-0.164205	-0.153182
	O411	O	0.149781	0.990553	0.195391
	H412	H	0.142596	0.999769	0.200243
	H413	H	0.154599	0.999332	0.199527
	O414	O	0.009131	0.105025	0.003870
	H415	H	0.024059	0.122979	-0.006338
	H416	H	0.018850	0.107945	0.009207
	O417	O	0.297973	0.462621	0.737140
	H418	H	0.307200	0.452812	0.734644
	H419	H	0.274431	0.458835	0.758836
	O420	O	0.588229	0.469296	0.299181
	H421	H	0.599626	0.466475	0.299495
	H422	H	0.586317	0.470914	0.298478
	O423	O	-0.204369	-0.219842	1.048422
	H424	H	-0.216715	-0.225086	1.061702
	H425	H	-0.207242	-0.228418	1.059135
	O426	O	0.697937	0.230393	0.253143
	H427	H	0.719906	0.222412	0.251058
	H428	H	0.700903	0.205063	0.232670
	O429	O	1.103354	0.953909	0.881833
	H430	H	1.094405	0.952206	0.886335
	H431	H	1.106308	0.947253	0.866302
	O432	O	0.720454	0.312360	0.312610
	H433	H	0.727492	0.292611	0.306248
	H434	H	0.704005	0.311571	0.301691
	O435	O	0.161414	0.851913	0.219911
	H436	H	0.146467	0.867264	0.213207
	H437	H	0.140883	0.864844	0.214321
	O438	O	-0.013445	-0.217627	0.025745
	H439	H	-0.015560	-0.223319	0.039180
	H440	H	-0.018778	-0.215004	0.024438
	O441	O	0.228963	0.209109	0.053433
	H442	H	0.239110	0.216437	0.072716
	H443	H	0.245752	0.220809	0.078836
	O444	O	0.289902	0.537360	0.474457
	H445	H	0.286325	0.558854	0.464385
	H446	H	0.296149	0.532733	0.491388
	O447	O	-0.214889	0.960360	0.919003
	H448	H	-0.202992	0.961547	0.898943
	H449	H	-0.220668	0.945228	0.919447
	O450	O	0.114246	1.159659	0.867525
	H451	H	0.113892	1.171814	0.849565
	H452	H	0.107120	1.161742	0.866508
	O453	O	0.670063	0.424445	0.445982
	H454	H	0.675306	0.416136	0.443719
	H455	H	0.681557	0.429975	0.424806
	O456	O	-0.519182	0.283876	0.732921
	H457	H	-0.516261	0.269746	0.752194
	H458	H	-0.506769	0.291426	0.722910
	O459	O	0.554455	0.420048	0.364424
	H460	H	0.558999	0.417550	0.361125
	H461	H	0.566254	0.420385	0.357350
	O462	O	0.692499	0.502919	0.577291
	H463	H	0.668258	0.507410	0.579649
	H464	H	0.698610	0.498293	0.583089
	O465	O	0.868863	0.051100	0.118649
	H466	H	0.863411	0.042087	0.110416
	H467	H	0.880128	0.045000	0.107354
	O468	O	0.305646	0.697878	0.312323
	H469	H	0.323655	0.690647	0.326809
	H470	H	0.284480	0.699937	0.287938
	O471	O	0.667007	0.296946	0.669585
	H472	H	0.656289	0.319699	0.649035
	H473	H	0.652129	0.301301	0.657815
	O474	O	0.295715	0.711318	0.482887
	H475	H	0.295715	0.714557	0.474131
	H476	H	0.278621	0.731051	0.475596
	O477	O	0.323980	0.306597	1.330590
	H478	H	0.327864	0.327872	1.358909
	H479	H	0.353327	0.325089	1.336860
	O480	O	0.197462	1.036917	0.070537
	H481	H	0.202360	1.031139	0.066810
	H482	H	0.192488	1.043882	0.086740
	O483	O	0.723666	0.703013	0.734033
	H484	H	0.711864	0.705629	0.703500
	H485	H	0.756001	0.737373	0.763108
	O486	O	0.047559	0.785122	-0.190808
	H487	H	0.045134	0.770214	-0.203027
	H488	H	0.057790	0.786646	-0.186737
	O489	O	0.798365	1.204910	-0.021744
	H490	H	0.780734	1.225039	-0.017712
	H491	H	0.809771	1.198658	-0.004932
