data_Molecule from HDF5

_cell_length_a		16.613834
_cell_length_b		16.717246
_cell_length_c		16.620553
_cell_angle_alpha	89.967328
_cell_angle_beta	89.916041
_cell_angle_gamma	90.001166
_symmetry_space_group_name_H-M	'P 1'
_symmetry_Int_Tables_number		1

loop_
	_symmetry_equiv_pos_as_xyz
	x,y,z

loop_
	_atom_site_label
	_atom_site_type_symbol
	_atom_site_fract_x
	_atom_site_fract_y
	_atom_site_fract_z
	H0	H	0.374442	0.847996	0.731342
	H1	H	0.589790	0.154450	0.726689
	H2	H	0.592290	0.846168	0.282235
	H3	H	0.379273	0.153243	0.282428
	H4	H	0.708533	0.392413	0.849753
	H5	H	0.710300	0.607351	0.157149
	H6	H	0.264114	0.604895	0.849589
	H7	H	0.263230	0.393001	0.159484
	H8	H	0.832018	0.724952	0.393978
	H9	H	0.137334	0.722770	0.613678
	H10	H	0.828469	0.277559	0.611362
	H11	H	0.136346	0.273410	0.394819
	H12	H	0.829242	0.393355	0.727153
	H13	H	0.139785	0.602490	0.724466
	H14	H	0.831976	0.608688	0.279350
	H15	H	0.138059	0.390227	0.280366
	H16	H	0.377555	0.722946	0.851540
	H17	H	0.596728	0.725542	0.156542
	H18	H	0.593063	0.275976	0.850102
	H19	H	0.379310	0.277546	0.159205
	H20	H	0.706990	0.845337	0.400086
	H21	H	0.706290	0.154688	0.610772
	H22	H	0.256574	0.849907	0.617236
	H23	H	0.262061	0.153174	0.397685
	H24	H	0.872823	0.349301	0.233079
	H25	H	0.094579	0.651349	0.230034
	H26	H	0.091212	0.344006	0.782711
	H27	H	0.877548	0.651463	0.781067
	H28	H	0.210048	0.890868	0.352523
	H29	H	0.210187	0.110051	0.656207
	H30	H	0.763739	0.103300	0.350060
	H31	H	0.764699	0.894620	0.660990
	H32	H	0.331892	0.224114	0.896457
	H33	H	0.638484	0.224194	0.114178
	H34	H	0.333107	0.774702	0.115237
	H35	H	0.637577	0.773793	0.894912
	H36	H	0.333547	0.889356	0.231617
	H37	H	0.638596	0.107646	0.229387
	H38	H	0.331565	0.106846	0.782511
	H39	H	0.639308	0.892276	0.781964
	H40	H	0.876926	0.222137	0.350862
	H41	H	0.093376	0.224196	0.657896
	H42	H	0.096526	0.772988	0.353180
	H43	H	0.877932	0.776467	0.659261
	H44	H	0.208019	0.344562	0.898445
	H45	H	0.208989	0.651910	0.112535
	H46	H	0.758638	0.348023	0.114628
	H47	H	0.760129	0.650775	0.895365
	H48	H	0.396926	0.110071	0.591990
	H49	H	0.571514	0.892190	0.589999
	H50	H	0.571590	0.109012	0.418736
	H51	H	0.400070	0.892010	0.421008
	H52	H	0.579167	0.417631	0.115503
	H53	H	0.567109	0.579986	0.898463
	H54	H	0.394658	0.585294	0.116409
	H55	H	0.395095	0.408891	0.892033
	H56	H	0.095468	0.587340	0.419676
	H57	H	0.872017	0.587807	0.593380
	H58	H	0.097372	0.405108	0.591212
	H59	H	0.871233	0.405928	0.417564
	H60	H	0.093378	0.412138	0.588244
	H61	H	0.872487	0.587603	0.592548
	H62	H	0.093592	0.584244	0.420867
	H63	H	0.876406	0.414480	0.425080
	H64	H	0.400224	0.585070	0.114333
	H65	H	0.567105	0.593277	0.892849
	H66	H	0.563516	0.414727	0.110427
	H67	H	0.396768	0.412504	0.893144
	H68	H	0.578126	0.111730	0.417830
	H69	H	0.579470	0.887459	0.593469
	H70	H	0.400943	0.108804	0.593801
	H71	H	0.396321	0.889533	0.419696
	H72	H	0.899173	0.608709	0.090684
	H73	H	0.077503	0.389814	0.085787
	H74	H	0.078761	0.610262	0.914434
	H75	H	0.903403	0.391543	0.918902
	H76	H	0.076167	0.917290	0.615326
	H77	H	0.068457	0.082305	0.396847
	H78	H	0.901372	0.092872	0.616936
	H79	H	0.899971	0.909827	0.394073
	H80	H	0.597378	0.090963	0.917354
	H81	H	0.374825	0.092564	0.088417
	H82	H	0.596260	0.916267	0.094163
	H83	H	0.375492	0.915234	0.920301
	H84	H	0.597546	0.908760	0.091066
	H85	H	0.376710	0.081240	0.091327
	H86	H	0.594741	0.086568	0.920824
	H87	H	0.373455	0.911285	0.915986
	H88	H	0.889993	0.092492	0.619654
	H89	H	0.069013	0.091168	0.394477
	H90	H	0.063194	0.915330	0.611215
	H91	H	0.894979	0.908944	0.392323
	H92	H	0.073028	0.610556	0.910478
	H93	H	0.075441	0.385353	0.099313
	H94	H	0.902162	0.607312	0.089840
	H95	H	0.892469	0.387980	0.921871
	H96	H	0.400152	0.107820	0.590358
	H97	H	0.571281	0.887977	0.598905
	H98	H	0.573624	0.110863	0.412264
	H99	H	0.400075	0.889439	0.416655
	H100	H	0.572296	0.402707	0.118299
	H101	H	0.579088	0.585197	0.891921
	H102	H	0.398092	0.590336	0.117165
	H103	H	0.399320	0.409072	0.893412
	H104	H	0.094897	0.584527	0.416979
	H105	H	0.872070	0.586687	0.592963
	H106	H	0.095425	0.411598	0.596528
	H107	H	0.873322	0.417142	0.413678
	H108	H	0.899319	0.606509	0.087965
	H109	H	0.064997	0.391534	0.092121
	H110	H	0.072305	0.607621	0.917090
	H111	H	0.896392	0.385434	0.910861
	H112	H	0.069881	0.905247	0.617993
	H113	H	0.075969	0.085304	0.392909
	H114	H	0.894964	0.083180	0.615381
	H115	H	0.895636	0.913353	0.394403
	H116	H	0.596799	0.084938	0.915057
	H117	H	0.371989	0.088909	0.098846
	H118	H	0.593659	0.914275	0.086720
	H119	H	0.374893	0.909148	0.921590
	C120	C	0.363960	0.008325	0.626719
	C121	C	0.606507	0.991172	0.627032
	C122	C	0.607171	0.008336	0.383518
	C123	C	0.364586	0.991280	0.384653
	C124	C	0.605624	0.378412	0.012701
	C125	C	0.606186	0.620173	0.995881
	C126	C	0.364026	0.620234	0.013724
	C127	C	0.364156	0.377628	0.995669
	C128	C	-0.006526	0.620176	0.384095
	C129	C	0.975144	0.619727	0.625910
	C130	C	-0.007094	0.376865	0.625817
	C131	C	0.975159	0.377922	0.383497
	C132	C	0.864286	0.507744	0.125263
	C133	C	0.106352	0.490446	0.125896
	C134	C	0.106855	0.507060	0.882498
	C135	C	0.863736	0.489650	0.883218
	C136	C	0.105396	0.878545	0.513868
	C137	C	0.105501	0.120880	0.495985
	C138	C	0.863209	0.120715	0.513949
	C139	C	0.863819	0.878030	0.496312
	C140	C	0.494209	0.120951	0.884128
	C141	C	0.476811	0.120908	0.126341
	C142	C	0.494738	0.878625	0.125741
	C143	C	0.476287	0.878216	0.884393
	C144	C	0.357399	0.894203	0.690527
	C145	C	0.608452	0.107876	0.686641
	C146	C	0.610126	0.892271	0.322799
	C147	C	0.361119	0.106883	0.322883
	C148	C	0.667835	0.374417	0.896340
	C149	C	0.669411	0.624812	0.111031
	C150	C	0.303805	0.623275	0.896726
	C151	C	0.303628	0.375285	0.112554
	C152	C	0.878264	0.683465	0.377858
	C153	C	0.091380	0.680953	0.629712
	C154	C	0.875445	0.317235	0.629093
	C155	C	0.090372	0.314690	0.377939
	C156	C	0.876006	0.374624	0.686901
	C157	C	0.092454	0.621616	0.685488
	C158	C	0.878150	0.625615	0.320683
	C159	C	0.091145	0.372995	0.321014
	C160	C	0.360322	0.681905	0.897700
	C161	C	0.612873	0.683512	0.110743
	C162	C	0.610154	0.316934	0.896272
	C163	C	0.361050	0.317458	0.112507
	C164	C	0.667181	0.891796	0.381279
	C165	C	0.666143	0.108020	0.628600
	C166	C	0.298996	0.894970	0.633648
	C167	C	0.302981	0.106840	0.380398
	C168	C	0.857010	0.394423	0.190465
	C169	C	0.111211	0.605505	0.188259
	C170	C	0.109144	0.390455	0.822895
	C171	C	0.859895	0.605180	0.821507
	C172	C	0.169182	0.873447	0.398836
	C173	C	0.168520	0.126251	0.610721
	C174	C	0.803458	0.122313	0.396681
	C175	C	0.804121	0.875917	0.613678
	C176	C	0.378364	0.182970	0.879356
	C177	C	0.592250	0.183050	0.131075
	C178	C	0.379311	0.815567	0.131997
	C179	C	0.591730	0.815371	0.878747
	C180	C	0.379648	0.872697	0.189755
	C181	C	0.592404	0.124796	0.188251
	C182	C	0.377912	0.124693	0.822725
	C183	C	0.592483	0.874423	0.822468
	C184	C	0.859836	0.181126	0.397135
	C185	C	0.110577	0.183431	0.611087
	C186	C	0.112229	0.815149	0.398887
	C187	C	0.860373	0.817050	0.612911
	C188	C	0.167373	0.390772	0.880279
	C189	C	0.168488	0.605671	0.130016
	C190	C	0.800217	0.393791	0.131692
	C191	C	0.801545	0.604914	0.878635
	C192	C	0.391447	0.088154	0.599545
	C193	C	0.581135	0.910191	0.601576
	C194	C	0.581806	0.089354	0.409041
	C195	C	0.391310	0.911218	0.411478
	C196	C	0.579153	0.404503	0.093620
	C197	C	0.578680	0.593768	0.915465
	C198	C	0.390197	0.594283	0.094809
	C199	C	0.389886	0.402914	0.913981
	C200	C	0.073574	0.592989	0.411331
	C201	C	0.893380	0.594454	0.600157
	C202	C	0.074069	0.402328	0.599581
	C203	C	0.894709	0.404986	0.410867
	C204	C	0.892372	0.587063	0.097372
	C205	C	0.079782	0.409765	0.100040
	C206	C	0.081740	0.588275	0.907169
	C207	C	0.890247	0.409039	0.909754
	C208	C	0.077666	0.905109	0.594023
	C209	C	0.078681	0.093943	0.415476
	C210	C	0.888206	0.096346	0.596047
	C211	C	0.889428	0.903382	0.414776
	C212	C	0.575120	0.094942	0.910440
	C213	C	0.395578	0.094877	0.100314
	C214	C	0.574926	0.905624	0.098270
	C215	C	0.395605	0.904370	0.911527
	Zn216	Zn	0.484736	-0.000331	0.756127
	Zn217	Zn	0.485437	-0.000673	0.254924
	Zn218	Zn	0.734564	0.498709	0.004347
	Zn219	Zn	0.235670	0.498931	0.004349
	Zn220	Zn	-0.015364	0.748957	0.504818
	Zn221	Zn	-0.016383	0.249096	0.504740
	Zn222	Zn	-0.015175	0.498056	0.753952
	Zn223	Zn	-0.015237	0.499283	0.255199
	Zn224	Zn	0.485146	0.749012	0.005667
	Zn225	Zn	0.485556	0.249295	0.004866
	Zn226	Zn	0.735261	-0.000676	0.505365
	Zn227	Zn	0.234644	-0.000255	0.505441
	N228	N	0.397173	0.965950	0.686387
	N229	N	0.572163	0.034088	0.685972
	N230	N	0.573677	0.965935	0.323806
	N231	N	0.398677	0.033813	0.325073
	N232	N	0.665428	0.411690	0.969915
	N233	N	0.665295	0.585901	0.038560
	N234	N	0.305986	0.585552	0.969993
	N235	N	0.305314	0.411853	0.038643
	N236	N	0.950962	0.680452	0.416668
	N237	N	0.017252	0.679933	0.593354
	N238	N	0.949404	0.318304	0.591970
	N239	N	0.017159	0.317682	0.416264
	N240	N	0.950022	0.410843	0.685167
	N241	N	0.018962	0.584095	0.683200
	N242	N	0.950818	0.586770	0.324384
	N243	N	0.018302	0.411511	0.324278
	N244	N	0.397155	0.680334	0.971552
	N245	N	0.574232	0.680794	0.038013
	N246	N	0.572482	0.319015	0.969849
	N247	N	0.397922	0.318699	0.038590
	N248	N	0.665496	0.965044	0.418307
	N249	N	0.665078	0.034297	0.592198
	N250	N	0.302858	0.967149	0.594543
	N251	N	0.304803	0.033754	0.417913
	N252	N	0.896424	0.466328	0.186520
	N253	N	0.073354	0.532547	0.186190
	N254	N	0.072278	0.463906	0.823945
	N255	N	0.897801	0.532373	0.824082
	N256	N	0.165188	0.912288	0.471429
	N257	N	0.165558	0.087996	0.538027
	N258	N	0.805367	0.085425	0.470423
	N259	N	0.805969	0.913073	0.539986
	N260	N	0.451882	0.180946	0.916818
	N261	N	0.519296	0.180555	0.092908
	N262	N	0.451938	0.818963	0.092797
	N263	N	0.518369	0.817517	0.916671
	N264	N	0.452360	0.911376	0.186134
	N265	N	0.519491	0.086726	0.185371
	N266	N	0.450934	0.086571	0.825629
	N267	N	0.519609	0.912728	0.825884
	N268	N	0.896232	0.180130	0.471085
	N269	N	0.071894	0.180343	0.538515
	N270	N	0.073081	0.818015	0.471476
	N271	N	0.896432	0.817803	0.538596
	N272	N	0.166284	0.464389	0.916669
	N273	N	0.165617	0.532902	0.091885
	N274	N	0.804832	0.465232	0.091601
	N275	N	0.803792	0.531947	0.916327
	O276	O	-0.184795	0.954901	-0.117914
	H277	H	-0.199304	0.972461	-0.102172
	H278	H	-0.182524	0.966126	-0.130960
	O279	O	0.266094	0.723037	0.488651
	H280	H	0.252037	0.742247	0.467628
	H281	H	0.268418	0.725128	0.485480
	O282	O	1.106109	-0.081459	0.991110
	H283	H	1.112731	-0.085696	0.992774
	H284	H	1.113133	-0.068891	1.006921
	O285	O	0.585801	0.495065	0.593663
	H286	H	0.586306	0.506543	0.599807
	H287	H	0.594227	0.504268	0.595979
	O288	O	-0.236398	0.219809	-0.019134
	H289	H	-0.252358	0.247133	-0.027058
	H290	H	-0.221226	0.225685	-0.016292
	O291	O	0.279938	0.701475	0.294560
	H292	H	0.271449	0.662568	0.308649
	H293	H	0.319574	0.695938	0.302788
	O294	O	1.411797	0.523245	0.553460
	H295	H	1.406127	0.553075	0.556168
	H296	H	1.405086	0.513995	0.568250
	O297	O	0.716252	0.541264	0.473652
	H298	H	0.708897	0.521960	0.475450
	H299	H	0.720856	0.530965	0.470257
	O300	O	-0.014662	0.192734	1.222516
	H301	H	-0.013672	0.211014	1.241063
	H302	H	-0.020028	0.180228	1.222803
	O303	O	0.692683	0.705786	0.713969
	H304	H	0.706068	0.702080	0.688320
	H305	H	0.722618	0.727240	0.741356
	O306	O	0.264750	0.284794	0.536014
	H307	H	0.250849	0.276973	0.533435
	H308	H	0.266866	0.284335	0.525923
	O309	O	0.512422	0.721768	0.727837
	H310	H	0.549177	0.716686	0.721235
	H311	H	0.517471	0.751097	0.760075
	O312	O	0.936539	1.217505	0.080890
	H313	H	0.951920	1.221269	0.064206
	H314	H	0.950101	1.215190	0.082572
	O315	O	0.794143	0.802809	0.812472
	H316	H	0.808964	0.823682	0.831654
	H317	H	0.814157	0.814946	0.835388
	O318	O	0.413386	0.386690	0.613940
	H319	H	0.406880	0.390995	0.618443
	H320	H	0.404463	0.391095	0.619124
	O321	O	0.192709	0.973653	0.789972
	H322	H	0.195690	0.968929	0.802870
	H323	H	0.208515	0.972298	0.784962
	O324	O	1.207700	1.021167	0.225674
	H325	H	1.219578	1.036949	0.238842
	H326	H	1.216268	1.009371	0.229285
	O327	O	0.516355	-0.386404	0.275121
	H328	H	0.516610	-0.374739	0.275842
	H329	H	0.524080	-0.376741	0.269286
	O330	O	0.558337	0.413297	0.398833
	H331	H	0.555888	0.401348	0.394705
	H332	H	0.552166	0.416506	0.406527
	O333	O	0.575363	0.424764	0.563467
	H334	H	0.560631	0.430189	0.556627
	H335	H	0.586464	0.424616	0.560966
	O336	O	0.809730	0.197731	0.183107
	H337	H	0.828344	0.182607	0.171220
	H338	H	0.819450	0.182481	0.162785
	O339	O	1.193306	0.028024	0.928716
	H340	H	1.194555	0.025905	0.940114
	H341	H	1.187549	0.041252	0.933933
	O342	O	0.403775	-0.449373	0.493792
	H343	H	0.397048	-0.454260	0.497047
	H344	H	0.405293	-0.449353	0.512686
	O345	O	0.208230	0.816706	0.996890
	H346	H	0.211625	0.810129	1.000324
	H347	H	0.205338	0.819174	1.006261
	O348	O	0.536954	0.334188	0.618444
	H349	H	0.548817	0.331807	0.617797
	H350	H	0.530003	0.319456	0.626731
	O351	O	0.256238	0.429486	0.432591
	H352	H	0.257144	0.425966	0.442031
	H353	H	0.263127	0.452111	0.444079
	O354	O	0.045852	-0.237956	1.065664
	H355	H	0.045701	-0.228129	1.069006
	H356	H	0.047622	-0.239697	1.079924
	O357	O	0.176738	0.814123	0.193124
	H358	H	0.193609	0.788140	0.216510
	H359	H	0.163499	0.813196	0.186137
	O360	O	0.431931	0.529143	0.377958
	H361	H	0.440201	0.535596	0.392597
	H362	H	0.429553	0.534262	0.375712
	O363	O	-0.014382	0.086249	0.215679
	H364	H	-0.020466	0.086087	0.203132
	H365	H	-0.018214	0.083643	0.205291
	O366	O	0.551343	0.697967	0.506875
	H367	H	0.565541	0.693675	0.528952
	H368	H	0.554817	0.700952	0.528646
	O369	O	0.978877	-0.028514	-0.215821
	H370	H	0.985329	-0.038519	-0.220080
	H371	H	0.975173	-0.021158	-0.212551
	O372	O	1.011841	0.779624	-0.212342
	H373	H	1.014640	0.759210	-0.227385
	H374	H	0.999723	0.772365	-0.191499
	O375	O	0.958050	0.222909	-0.189165
	H376	H	0.956359	0.220023	-0.187596
	H377	H	0.965856	0.233553	-0.213771
	O378	O	0.701825	0.471188	0.297076
	H379	H	0.712685	0.467277	0.293662
	H380	H	0.699399	0.470615	0.294145
	O381	O	0.451967	0.602301	0.681123
	H382	H	0.458004	0.613923	0.691300
	H383	H	0.449062	0.603388	0.688606
	O384	O	1.173555	0.189180	0.814319
	H385	H	1.170955	0.166353	0.825565
	H386	H	1.206655	0.218659	0.783663
	O387	O	0.764775	0.781340	0.020243
	H388	H	0.738460	0.761815	0.034523
	H389	H	0.779326	0.785831	0.039537
	O390	O	0.064186	0.192922	-0.020996
	H391	H	0.065771	0.187844	-0.038979
	H392	H	0.084519	0.200660	-0.024016
	O393	O	0.694059	0.527173	0.721686
	H394	H	0.689886	0.545181	0.717371
	H395	H	0.714587	0.530811	0.730951
	O396	O	-0.036369	0.777927	1.219581
	H397	H	-0.037540	0.759989	1.236546
	H398	H	-0.044322	0.795727	1.227752
	O399	O	-0.158058	-0.148762	1.142489
	H400	H	-0.165006	-0.133254	1.140408
	H401	H	-0.136094	-0.143561	1.158345
	O402	O	0.340737	0.601359	0.406224
	H403	H	0.333951	0.597893	0.402774
	H404	H	0.345848	0.597198	0.400234
	O405	O	0.822669	0.042127	1.124691
	H406	H	0.838144	0.030549	1.106248
	H407	H	0.825819	0.056647	1.110644
	O408	O	0.036708	-0.063199	0.228850
	H409	H	0.017891	-0.055319	0.226275
	H410	H	0.067549	-0.061817	0.234626
	O411	O	0.207508	0.772719	0.780832
	H412	H	0.182398	0.775951	0.806166
	H413	H	0.203839	0.806017	0.790276
	O414	O	1.289845	0.304950	1.310613
	H415	H	1.277271	0.301603	1.314431
	H416	H	1.309584	0.322202	1.323782
	O417	O	0.513191	0.341489	0.356234
	H418	H	0.528224	0.339466	0.359266
	H419	H	0.505940	0.335161	0.342032
	O420	O	-0.238837	-0.028832	0.220226
	H421	H	-0.253054	-0.019203	0.231924
	H422	H	-0.246167	-0.024056	0.211690
	O423	O	-0.228260	0.018065	1.019894
	H424	H	-0.217934	0.034426	1.013202
	H425	H	-0.233595	-0.005602	1.029512
	O426	O	0.350116	0.507914	0.296598
	H427	H	0.349319	0.505237	0.301196
	H428	H	0.346378	0.491478	0.297276
	O429	O	1.181471	1.193783	1.202773
	H430	H	1.158444	1.179094	1.201118
	H431	H	1.188404	1.196165	1.210330
	O432	O	0.551280	0.388465	0.492525
	H433	H	0.548947	0.379476	0.490852
	H434	H	0.555084	0.406090	0.485144
	O435	O	0.445814	0.282372	0.442175
	H436	H	0.458185	0.288960	0.429734
	H437	H	0.432375	0.277755	0.440833
	O438	O	0.006996	0.018701	0.016128
	H439	H	0.016178	0.016162	0.004619
	H440	H	0.005029	0.024482	0.012507
	O441	O	0.693772	0.289070	0.300175
	H442	H	0.689896	0.316425	0.311002
	H443	H	0.716404	0.261965	0.270341
	O444	O	0.644497	0.304959	0.442199
	H445	H	0.639838	0.305302	0.421752
	H446	H	0.658828	0.288074	0.437684
	O447	O	-0.012349	1.026908	0.976871
	H448	H	-0.020145	1.027294	0.959871
	H449	H	-0.012243	1.026870	0.983491
	O450	O	0.209104	1.204847	1.024823
	H451	H	0.216361	1.209124	1.031710
	H452	H	0.219312	1.217003	1.042012
	O453	O	0.642511	0.345395	0.695718
	H454	H	0.640527	0.358976	0.689490
	H455	H	0.630383	0.360715	0.684971
	O456	O	-0.008316	-0.011072	0.892050
	H457	H	-0.014390	-0.002534	0.883831
	H458	H	-0.013225	-0.018808	0.880838
	O459	O	0.955364	0.993800	-0.061035
	H460	H	0.964219	0.995325	-0.072558
	H461	H	0.969101	1.006070	-0.065446
	O462	O	0.498954	0.681662	0.326305
	H463	H	0.504457	0.690973	0.326542
	H464	H	0.488942	0.694455	0.334201
	O465	O	1.278400	0.287961	-0.283812
	H466	H	1.304838	0.286137	-0.307751
	H467	H	1.294144	0.307138	-0.298316
	O468	O	0.458050	0.519837	0.530334
	H469	H	0.461482	0.531737	0.536764
	H470	H	0.457295	0.516831	0.524339
	O471	O	0.438878	0.350640	0.706474
	H472	H	0.447269	0.361111	0.713503
	H473	H	0.447391	0.353841	0.702693
	O474	O	0.598805	0.706348	0.386508
	H475	H	0.586888	0.696234	0.410402
	H476	H	0.597220	0.699366	0.389740
	O477	O	0.255300	0.497628	1.656925
	H478	H	0.261604	0.496764	1.669914
	H479	H	0.244339	0.504542	1.666709
	O480	O	0.707242	0.769636	0.281004
	H481	H	0.702584	0.804077	0.290052
	H482	H	0.706835	0.757237	0.294958
	O483	O	0.292427	0.663845	0.669732
	H484	H	0.299903	0.659282	0.654519
	H485	H	0.263452	0.693513	0.702421
	O486	O	0.927231	-0.237422	0.939903
	H487	H	0.919490	-0.234864	0.950759
	H488	H	0.933230	-0.233759	0.961662
	O489	O	0.760380	1.021913	-0.201347
	H490	H	0.762689	1.038302	-0.193049
	H491	H	0.735532	1.031113	-0.223421
	O492	O	-0.216177	0.197124	-0.190341
	H493	H	-0.215144	0.207253	-0.212233
	H494	H	-0.209222	0.196751	-0.160130
	O495	O	0.176402	0.974413	1.068130
	H496	H	0.177153	0.972054	1.065678
	H497	H	0.176655	0.970297	1.081888
	O498	O	1.066189	1.113512	0.822908
	H499	H	1.062030	1.103696	0.819936
	H500	H	1.082531	1.100128	0.817321
	O501	O	0.710535	0.723676	0.533361
	H502	H	0.746668	0.752307	0.539159
	H503	H	0.714274	0.695831	0.526119
