data_Molecule from HDF5

_cell_length_a		16.295988
_cell_length_b		16.268088
_cell_length_c		16.334691
_cell_angle_alpha	89.911716
_cell_angle_beta	89.940330
_cell_angle_gamma	90.024128
_symmetry_space_group_name_H-M	'P 1'
_symmetry_Int_Tables_number		1

loop_
	_symmetry_equiv_pos_as_xyz
	x,y,z

loop_
	_atom_site_label
	_atom_site_type_symbol
	_atom_site_fract_x
	_atom_site_fract_y
	_atom_site_fract_z
	H0	H	0.402279	0.836120	0.713968
	H1	H	0.598504	0.163872	0.714253
	H2	H	0.598510	0.835875	0.286672
	H3	H	0.400787	0.163194	0.284332
	H4	H	0.714858	0.402272	0.836934
	H5	H	0.714478	0.598373	0.163378
	H6	H	0.286149	0.597245	0.836052
	H7	H	0.284646	0.400940	0.163233
	H8	H	0.835635	0.714249	0.402202
	H9	H	0.163882	0.712715	0.596113
	H10	H	0.835030	0.286602	0.596773
	H11	H	0.163203	0.286304	0.402253
	H12	H	0.836480	0.400875	0.714559
	H13	H	0.163641	0.598395	0.713920
	H14	H	0.835717	0.597903	0.285690
	H15	H	0.164189	0.402172	0.285826
	H16	H	0.402949	0.713562	0.836381
	H17	H	0.596079	0.712722	0.164369
	H18	H	0.596995	0.286394	0.836093
	H19	H	0.402302	0.286094	0.163657
	H20	H	0.713962	0.836515	0.403815
	H21	H	0.713922	0.164272	0.597859
	H22	H	0.286287	0.836683	0.598143
	H23	H	0.286594	0.163675	0.402226
	H24	H	0.901883	0.335740	0.213820
	H25	H	0.096939	0.664583	0.212609
	H26	H	0.097505	0.336060	0.786455
	H27	H	0.903359	0.664651	0.786361
	H28	H	0.214542	0.901923	0.336199
	H29	H	0.214583	0.097897	0.663400
	H30	H	0.786009	0.097818	0.337207
	H31	H	0.785740	0.901759	0.664189
	H32	H	0.335834	0.213033	0.903327
	H33	H	0.663721	0.214438	0.097655
	H34	H	0.336251	0.786732	0.097151
	H35	H	0.664418	0.787106	0.903229
	H36	H	0.336503	0.901999	0.214209
	H37	H	0.663814	0.097941	0.214035
	H38	H	0.336762	0.098231	0.785567
	H39	H	0.664110	0.902948	0.786520
	H40	H	0.902922	0.213382	0.336685
	H41	H	0.098822	0.215377	0.663028
	H42	H	0.096778	0.786945	0.336079
	H43	H	0.901965	0.785331	0.664131
	H44	H	0.212703	0.335788	0.903178
	H45	H	0.212747	0.664488	0.096331
	H46	H	0.786295	0.336112	0.097276
	H47	H	0.786512	0.664256	0.903061
	H48	H	0.398623	0.119307	0.592885
	H49	H	0.594866	0.883721	0.591940
	H50	H	0.593140	0.118701	0.398389
	H51	H	0.408965	0.885374	0.410753
	H52	H	0.595087	0.400844	0.117459
	H53	H	0.601579	0.586837	0.883935
	H54	H	0.412644	0.596005	0.114685
	H55	H	0.411093	0.404726	0.884294
	H56	H	0.113435	0.589751	0.410679
	H57	H	0.885108	0.587692	0.593782
	H58	H	0.117613	0.410102	0.600951
	H59	H	0.885509	0.415714	0.404211
	H60	H	0.117879	0.398377	0.591734
	H61	H	0.881383	0.595442	0.597807
	H62	H	0.117272	0.590281	0.396929
	H63	H	0.880087	0.401399	0.398990
	H64	H	0.399834	0.598117	0.119128
	H65	H	0.584083	0.589636	0.888310
	H66	H	0.597428	0.410605	0.116297
	H67	H	0.403204	0.401711	0.881915
	H68	H	0.586745	0.113601	0.410018
	H69	H	0.594818	0.882611	0.596484
	H70	H	0.410987	0.117535	0.600895
	H71	H	0.402267	0.881597	0.406931
	H72	H	0.903305	0.615082	0.082533
	H73	H	0.096608	0.384410	0.085869
	H74	H	0.090321	0.614382	0.909534
	H75	H	0.911600	0.384587	0.905131
	H76	H	0.093189	0.905857	0.616044
	H77	H	0.081597	0.088942	0.389060
	H78	H	0.910486	0.089053	0.614685
	H79	H	0.917805	0.904895	0.387316
	H80	H	0.614826	0.089138	0.908253
	H81	H	0.385663	0.092455	0.087679
	H82	H	0.617299	0.910195	0.099934
	H83	H	0.383628	0.900872	0.910149
	H84	H	0.619163	0.899327	0.094217
	H85	H	0.384461	0.087736	0.096331
	H86	H	0.618332	0.094117	0.901398
	H87	H	0.385597	0.911922	0.908581
	H88	H	0.909113	0.099810	0.617413
	H89	H	0.095539	0.107041	0.379628
	H90	H	0.094308	0.905000	0.616327
	H91	H	0.899951	0.897459	0.380480
	H92	H	0.098997	0.618083	0.906940
	H93	H	0.098672	0.380023	0.100278
	H94	H	0.900087	0.621313	0.100795
	H95	H	0.905634	0.384597	0.911691
	H96	H	0.411017	0.113712	0.586539
	H97	H	0.591142	0.884463	0.594473
	H98	H	0.600511	0.117753	0.410350
	H99	H	0.409643	0.882054	0.403153
	H100	H	0.587769	0.407013	0.114148
	H101	H	0.593953	0.603374	0.880798
	H102	H	0.403774	0.586189	0.114658
	H103	H	0.403854	0.410675	0.884063
	H104	H	0.118341	0.602444	0.405502
	H105	H	0.884229	0.595569	0.588609
	H106	H	0.112941	0.412019	0.587116
	H107	H	0.884762	0.403375	0.414222
	H108	H	0.918363	0.614237	0.096096
	H109	H	0.084925	0.385466	0.095768
	H110	H	0.091734	0.618328	0.900769
	H111	H	0.903598	0.381858	0.903236
	H112	H	0.094480	0.906957	0.616368
	H113	H	0.105022	0.085082	0.383477
	H114	H	0.900235	0.092794	0.618395
	H115	H	0.901764	0.917438	0.385895
	H116	H	0.616617	0.097454	0.909200
	H117	H	0.381769	0.097009	0.095543
	H118	H	0.614518	0.908937	0.088440
	H119	H	0.381652	0.906462	0.899864
	C120	C	0.378790	0.008377	0.621369
	C121	C	0.621602	0.992052	0.621869
	C122	C	0.621889	0.008364	0.378535
	C123	C	0.378913	0.991435	0.378785
	C124	C	0.621493	0.378069	0.008035
	C125	C	0.621405	0.621684	0.992294
	C126	C	0.378341	0.621211	0.007997
	C127	C	0.377879	0.377964	0.991704
	C128	C	0.007491	0.621904	0.377377
	C129	C	0.991865	0.621046	0.621008
	C130	C	0.008018	0.378344	0.621420
	C131	C	0.991598	0.378795	0.377873
	C132	C	0.878901	0.507998	0.121197
	C133	C	0.121102	0.492076	0.121335
	C134	C	0.121446	0.508551	0.878219
	C135	C	0.878728	0.492051	0.878437
	C136	C	0.121840	0.878438	0.507913
	C137	C	0.121832	0.121684	0.491877
	C138	C	0.878599	0.121525	0.508849
	C139	C	0.878027	0.878250	0.492551
	C140	C	0.508451	0.121864	0.878061
	C141	C	0.491950	0.121185	0.121682
	C142	C	0.508537	0.878353	0.121976
	C143	C	0.492001	0.878617	0.878409
	C144	C	0.381568	0.885183	0.676154
	C145	C	0.618767	0.115236	0.676289
	C146	C	0.619042	0.885113	0.324322
	C147	C	0.381254	0.114628	0.323356
	C148	C	0.676462	0.381235	0.885425
	C149	C	0.676345	0.619068	0.115071
	C150	C	0.324030	0.618089	0.884724
	C151	C	0.323151	0.381013	0.114528
	C152	C	0.884223	0.675941	0.381718
	C153	C	0.115285	0.675205	0.617074
	C154	C	0.884354	0.323988	0.618190
	C155	C	0.114804	0.324032	0.381322
	C156	C	0.884910	0.381098	0.676469
	C157	C	0.114951	0.618692	0.675646
	C158	C	0.884456	0.618561	0.323505
	C159	C	0.114960	0.381663	0.323470
	C160	C	0.382129	0.675714	0.884832
	C161	C	0.617499	0.675555	0.115364
	C162	C	0.618101	0.323588	0.885147
	C163	C	0.381325	0.323509	0.114908
	C164	C	0.676591	0.885212	0.382291
	C165	C	0.676254	0.115351	0.618698
	C166	C	0.324026	0.885181	0.618570
	C167	C	0.324271	0.114873	0.381445
	C168	C	0.881654	0.384820	0.175700
	C169	C	0.117834	0.615612	0.175431
	C170	C	0.118193	0.385039	0.824075
	C171	C	0.881914	0.615396	0.823688
	C172	C	0.176597	0.881519	0.385009
	C173	C	0.176437	0.118611	0.614953
	C174	C	0.823987	0.118387	0.385678
	C175	C	0.823533	0.881109	0.615518
	C176	C	0.384943	0.176044	0.881630
	C177	C	0.615063	0.176152	0.118417
	C178	C	0.385095	0.824018	0.118543
	C179	C	0.615423	0.824153	0.882034
	C180	C	0.385174	0.881299	0.176285
	C181	C	0.614900	0.118731	0.176526
	C182	C	0.385482	0.119409	0.822829
	C183	C	0.615106	0.881548	0.823783
	C184	C	0.881859	0.175932	0.385358
	C185	C	0.119121	0.176942	0.614585
	C186	C	0.118252	0.824208	0.384990
	C187	C	0.881114	0.823163	0.615492
	C188	C	0.175459	0.384745	0.881793
	C189	C	0.175425	0.615522	0.117612
	C190	C	0.824466	0.384671	0.117548
	C191	C	0.824117	0.615452	0.881593
	C192	C	0.400555	0.094747	0.599739
	C193	C	0.599972	0.905726	0.600544
	C194	C	0.600097	0.094686	0.400007
	C195	C	0.400562	0.905270	0.400688
	C196	C	0.599910	0.399870	0.094053
	C197	C	0.599752	0.599657	0.906378
	C198	C	0.399164	0.599650	0.094100
	C199	C	0.399626	0.399463	0.905598
	C200	C	0.094088	0.600721	0.398223
	C201	C	0.905713	0.599195	0.599786
	C202	C	0.093822	0.400222	0.599452
	C203	C	0.905707	0.400481	0.399485
	C204	C	0.900699	0.594551	0.099444
	C205	C	0.099666	0.405644	0.100088
	C206	C	0.099906	0.594537	0.899481
	C207	C	0.900406	0.405994	0.900256
	C208	C	0.100390	0.899819	0.594216
	C209	C	0.100448	0.099990	0.406227
	C210	C	0.900156	0.100222	0.594652
	C211	C	0.900011	0.900121	0.406628
	C212	C	0.594561	0.099951	0.899848
	C213	C	0.405964	0.099043	0.099779
	C214	C	0.594670	0.899752	0.100633
	C215	C	0.405829	0.900104	0.899917
	Zn216	Zn	0.500145	0.000193	0.749901
	Zn217	Zn	0.499980	-0.000129	0.250238
	Zn218	Zn	0.750268	0.500446	0.000361
	Zn219	Zn	0.249307	0.499825	-0.000297
	Zn220	Zn	-0.000205	0.749549	0.500030
	Zn221	Zn	-0.000297	0.249891	0.499906
	Zn222	Zn	0.000043	0.500028	0.749790
	Zn223	Zn	-0.000055	0.500228	0.249827
	Zn224	Zn	0.499977	0.750165	0.000731
	Zn225	Zn	0.499521	0.249337	0.000037
	Zn226	Zn	0.750282	0.000371	0.500768
	Zn227	Zn	0.250378	0.000272	0.500092
	N228	N	0.415052	0.962818	0.677819
	N229	N	0.585437	0.037555	0.678240
	N230	N	0.585951	0.962732	0.321777
	N231	N	0.414351	0.036918	0.321556
	N232	N	0.678543	0.414493	0.962841
	N233	N	0.678852	0.586299	0.037488
	N234	N	0.321598	0.584910	0.962170
	N235	N	0.321014	0.414122	0.036914
	N236	N	0.961944	0.678109	0.414301
	N237	N	0.037677	0.676872	0.583898
	N238	N	0.961774	0.322051	0.584575
	N239	N	0.037178	0.322050	0.414624
	N240	N	0.962728	0.414021	0.678665
	N241	N	0.037245	0.585869	0.678262
	N242	N	0.962138	0.585542	0.321025
	N243	N	0.037359	0.414769	0.321211
	N244	N	0.415328	0.677576	0.962288
	N245	N	0.583990	0.677071	0.038137
	N246	N	0.584583	0.321769	0.962441
	N247	N	0.414601	0.321563	0.037589
	N248	N	0.678251	0.962911	0.415456
	N249	N	0.677956	0.037813	0.585414
	N250	N	0.322153	0.962830	0.585289
	N251	N	0.322924	0.037458	0.415544
	N252	N	0.914582	0.462643	0.177912
	N253	N	0.084718	0.537812	0.177662
	N254	N	0.085011	0.462821	0.821759
	N255	N	0.915036	0.537564	0.821670
	N256	N	0.178942	0.914461	0.462616
	N257	N	0.178219	0.085156	0.537733
	N258	N	0.821969	0.085395	0.463296
	N259	N	0.821692	0.914654	0.538181
	N260	N	0.462430	0.177813	0.914947
	N261	N	0.537570	0.177543	0.084907
	N262	N	0.462639	0.822191	0.085365
	N263	N	0.537921	0.822319	0.915447
	N264	N	0.462936	0.914368	0.178596
	N265	N	0.537475	0.085157	0.178352
	N266	N	0.463144	0.086202	0.820797
	N267	N	0.537522	0.914753	0.821531
	N268	N	0.915229	0.177776	0.462710
	N269	N	0.085584	0.178943	0.537295
	N270	N	0.084918	0.822142	0.462301
	N271	N	0.914539	0.821405	0.538072
	N272	N	0.177593	0.462518	0.914642
	N273	N	0.177642	0.537634	0.084932
	N274	N	0.822805	0.462513	0.084449
	N275	N	0.822048	0.537848	0.914845
