data_Molecule from HDF5

_cell_length_a		16.604292
_cell_length_b		16.556261
_cell_length_c		16.469704
_cell_angle_alpha	90.044802
_cell_angle_beta	90.080387
_cell_angle_gamma	90.182035
_symmetry_space_group_name_H-M	'P 1'
_symmetry_Int_Tables_number		1

loop_
	_symmetry_equiv_pos_as_xyz
	x,y,z

loop_
	_atom_site_label
	_atom_site_type_symbol
	_atom_site_fract_x
	_atom_site_fract_y
	_atom_site_fract_z
	H0	H	0.378824	0.841877	0.715898
	H1	H	0.591783	0.154746	0.714041
	H2	H	0.589813	0.840564	0.272463
	H3	H	0.383409	0.154480	0.272235
	H4	H	0.709447	0.391802	0.835989
	H5	H	0.709005	0.604882	0.149200
	H6	H	0.263549	0.604582	0.836052
	H7	H	0.265887	0.392505	0.150149
	H8	H	0.831146	0.720936	0.386508
	H9	H	0.142582	0.722834	0.600655
	H10	H	0.831415	0.274468	0.601950
	H11	H	0.140336	0.274370	0.385127
	H12	H	0.830758	0.392741	0.716463
	H13	H	0.143875	0.605252	0.715234
	H14	H	0.831476	0.604205	0.270395
	H15	H	0.142480	0.392364	0.270183
	H16	H	0.379502	0.719863	0.834688
	H17	H	0.592915	0.720140	0.149070
	H18	H	0.595198	0.274098	0.836331
	H19	H	0.381408	0.276694	0.149907
	H20	H	0.709444	0.842212	0.385293
	H21	H	0.710017	0.154255	0.600057
	H22	H	0.259247	0.844186	0.603521
	H23	H	0.264413	0.153424	0.385547
	H24	H	0.881614	0.342415	0.214981
	H25	H	0.091813	0.654984	0.214415
	H26	H	0.093042	0.343428	0.769090
	H27	H	0.880437	0.655717	0.770215
	H28	H	0.207989	0.891850	0.336613
	H29	H	0.212471	0.107873	0.648269
	H30	H	0.766319	0.101503	0.335669
	H31	H	0.762458	0.889901	0.650261
	H32	H	0.332462	0.222120	0.884146
	H33	H	0.642956	0.221145	0.100019
	H34	H	0.330770	0.776861	0.095133
	H35	H	0.643026	0.774443	0.884310
	H36	H	0.330217	0.893529	0.213006
	H37	H	0.643914	0.100863	0.213163
	H38	H	0.331415	0.103553	0.769873
	H39	H	0.643201	0.892049	0.769484
	H40	H	0.880633	0.219815	0.336799
	H41	H	0.095366	0.222952	0.649528
	H42	H	0.092008	0.775763	0.337417
	H43	H	0.879882	0.776378	0.651148
	H44	H	0.208468	0.342335	0.885947
	H45	H	0.210450	0.654001	0.099498
	H46	H	0.762206	0.344151	0.101412
	H47	H	0.761766	0.653771	0.883874
	H48	H	0.395325	0.109763	0.577489
	H49	H	0.570050	0.888558	0.578196
	H50	H	0.577271	0.108179	0.411014
	H51	H	0.395422	0.883440	0.400036
	H52	H	0.574990	0.410175	0.104798
	H53	H	0.577545	0.588596	0.878461
	H54	H	0.400147	0.588093	0.104491
	H55	H	0.399194	0.414481	0.881946
	H56	H	0.100631	0.595447	0.405568
	H57	H	0.875318	0.588026	0.581403
	H58	H	0.094285	0.414502	0.575867
	H59	H	0.874410	0.410424	0.402289
	H60	H	0.098209	0.414011	0.585776
	H61	H	0.876898	0.586494	0.581691
	H62	H	0.095365	0.584579	0.412202
	H63	H	0.874448	0.406819	0.406463
	H64	H	0.398128	0.587003	0.104687
	H65	H	0.576582	0.581925	0.880744
	H66	H	0.575043	0.409271	0.104557
	H67	H	0.401997	0.406661	0.881214
	H68	H	0.583470	0.113160	0.400968
	H69	H	0.579381	0.886132	0.577039
	H70	H	0.401828	0.108917	0.583867
	H71	H	0.402573	0.887240	0.405643
	H72	H	0.899492	0.610209	0.079767
	H73	H	0.081102	0.384728	0.081884
	H74	H	0.077817	0.611372	0.903013
	H75	H	0.897000	0.387591	0.906162
	H76	H	0.069027	0.909732	0.604704
	H77	H	0.073445	0.086360	0.381323
	H78	H	0.899007	0.085542	0.605428
	H79	H	0.898112	0.911826	0.381861
	H80	H	0.596858	0.083134	0.906956
	H81	H	0.373960	0.090293	0.083006
	H82	H	0.600098	0.905521	0.080799
	H83	H	0.375387	0.904200	0.903806
	H84	H	0.597707	0.910955	0.080377
	H85	H	0.375731	0.087868	0.079068
	H86	H	0.599714	0.085705	0.902343
	H87	H	0.377764	0.910783	0.907807
	H88	H	0.898791	0.087149	0.605974
	H89	H	0.074087	0.086977	0.380579
	H90	H	0.077197	0.911262	0.607454
	H91	H	0.897970	0.907806	0.381244
	H92	H	0.074073	0.609282	0.906496
	H93	H	0.073946	0.384798	0.085414
	H94	H	0.897052	0.611121	0.081622
	H95	H	0.901497	0.388208	0.904555
	H96	H	0.403306	0.106045	0.575023
	H97	H	0.575059	0.884670	0.585681
	H98	H	0.571575	0.109698	0.399560
	H99	H	0.393289	0.886352	0.409472
	H100	H	0.575485	0.410046	0.105120
	H101	H	0.571280	0.586706	0.880763
	H102	H	0.399833	0.585951	0.104040
	H103	H	0.394487	0.408234	0.878388
	H104	H	0.099440	0.583941	0.398865
	H105	H	0.875290	0.587166	0.583326
	H106	H	0.098842	0.406019	0.579409
	H107	H	0.876494	0.411577	0.406834
	H108	H	0.899501	0.610737	0.082705
	H109	H	0.074782	0.387426	0.077927
	H110	H	0.079218	0.610196	0.908118
	H111	H	0.900551	0.389679	0.908503
	H112	H	0.073051	0.917403	0.603043
	H113	H	0.074692	0.086163	0.381777
	H114	H	0.897655	0.085445	0.606283
	H115	H	0.894828	0.909960	0.380916
	H116	H	0.598506	0.088671	0.907596
	H117	H	0.375150	0.085309	0.083694
	H118	H	0.600425	0.909502	0.085501
	H119	H	0.375708	0.911216	0.900353
	C120	C	0.365554	0.006064	0.613484
	C121	C	0.608131	0.989657	0.613684
	C122	C	0.608749	0.006424	0.371697
	C123	C	0.365063	0.989160	0.371633
	C124	C	0.608518	0.376722	0.001191
	C125	C	0.607769	0.618813	0.983784
	C126	C	0.366260	0.619115	0.000443
	C127	C	0.366169	0.377276	0.984375
	C128	C	-0.004453	0.620292	0.372451
	C129	C	0.978835	0.620530	0.615010
	C130	C	-0.005338	0.377503	0.614541
	C131	C	0.977932	0.376889	0.371675
	C132	C	0.865620	0.507567	0.114548
	C133	C	0.109167	0.489238	0.114569
	C134	C	0.108967	0.507374	0.871683
	C135	C	0.866134	0.491198	0.872231
	C136	C	0.106266	0.878859	0.501617
	C137	C	0.108402	0.120371	0.484561
	C138	C	0.865852	0.118683	0.501934
	C139	C	0.864324	0.876505	0.485000
	C140	C	0.495430	0.119146	0.871812
	C141	C	0.478350	0.120028	0.114701
	C142	C	0.495522	0.876429	0.113785
	C143	C	0.479018	0.875966	0.870540
	C144	C	0.361337	0.889073	0.675360
	C145	C	0.610396	0.107788	0.674154
	C146	C	0.609267	0.887987	0.311896
	C147	C	0.363931	0.107156	0.311762
	C148	C	0.669590	0.373490	0.883440
	C149	C	0.668451	0.622366	0.102103
	C150	C	0.304723	0.621953	0.882632
	C151	C	0.305980	0.374461	0.102837
	C152	C	0.878154	0.680775	0.368736
	C153	C	0.095988	0.682106	0.618334
	C154	C	0.877953	0.315762	0.618686
	C155	C	0.094509	0.315511	0.367662
	C156	C	0.877560	0.374741	0.675806
	C157	C	0.096636	0.623565	0.675416
	C158	C	0.878338	0.622633	0.310925
	C159	C	0.095142	0.374234	0.310630
	C160	C	0.362600	0.679614	0.882122
	C161	C	0.610926	0.679907	0.101786
	C162	C	0.612506	0.315024	0.883548
	C163	C	0.363461	0.316812	0.102697
	C164	C	0.668380	0.888738	0.368429
	C165	C	0.669214	0.107408	0.617459
	C166	C	0.301762	0.890005	0.619265
	C167	C	0.305089	0.106716	0.368440
	C168	C	0.862841	0.389626	0.175116
	C169	C	0.110791	0.607672	0.174449
	C170	C	0.111037	0.390136	0.809990
	C171	C	0.862363	0.608399	0.810427
	C172	C	0.167559	0.874439	0.383862
	C173	C	0.170912	0.125069	0.601774
	C174	C	0.806247	0.120238	0.383125
	C175	C	0.802982	0.872628	0.603158
	C176	C	0.378964	0.180818	0.867013
	C177	C	0.596185	0.180302	0.117678
	C178	C	0.377458	0.816736	0.114702
	C179	C	0.596252	0.815212	0.866762
	C180	C	0.377286	0.874763	0.172957
	C181	C	0.596644	0.120905	0.174209
	C182	C	0.378397	0.122001	0.809901
	C183	C	0.596392	0.873548	0.809511
	C184	C	0.862966	0.179131	0.383725
	C185	C	0.112901	0.182508	0.602221
	C186	C	0.109702	0.816706	0.384198
	C187	C	0.861621	0.816191	0.603624
	C188	C	0.168544	0.389602	0.868189
	C189	C	0.169653	0.607365	0.117541
	C190	C	0.803843	0.390410	0.118372
	C191	C	0.803599	0.607855	0.867253
	C192	C	0.392262	0.087160	0.586594
	C193	C	0.582395	0.907698	0.587756
	C194	C	0.584364	0.088880	0.396660
	C195	C	0.389854	0.907036	0.397489
	C196	C	0.582792	0.402419	0.083381
	C197	C	0.582371	0.593013	0.901426
	C198	C	0.391963	0.593977	0.082818
	C199	C	0.391393	0.402695	0.901979
	C200	C	0.077174	0.595220	0.398247
	C201	C	0.897220	0.594656	0.589439
	C202	C	0.075841	0.403918	0.587738
	C203	C	0.896358	0.402447	0.397911
	C204	C	0.891313	0.589264	0.088736
	C205	C	0.083803	0.407158	0.089040
	C206	C	0.083944	0.589093	0.898051
	C207	C	0.892213	0.409722	0.898905
	C208	C	0.080431	0.905391	0.583725
	C209	C	0.081664	0.093985	0.402490
	C210	C	0.891252	0.093331	0.584290
	C211	C	0.889759	0.902395	0.402805
	C212	C	0.576859	0.093218	0.898249
	C213	C	0.396385	0.095114	0.089179
	C214	C	0.577788	0.901386	0.089347
	C215	C	0.397503	0.901380	0.896613
	Zn216	Zn	0.487239	-0.002146	0.742373
	Zn217	Zn	0.486965	-0.002138	0.243238
	Zn218	Zn	0.737033	0.498877	-0.007586
	Zn219	Zn	0.237577	0.498015	-0.006876
	Zn220	Zn	-0.013981	0.749380	0.494131
	Zn221	Zn	-0.013365	0.247808	0.493676
	Zn222	Zn	-0.012885	0.499426	0.743801
	Zn223	Zn	-0.013092	0.498525	0.243451
	Zn224	Zn	0.487328	0.747524	-0.008593
	Zn225	Zn	0.486954	0.248569	-0.007089
	Zn226	Zn	0.737224	-0.002194	0.493504
	Zn227	Zn	0.235713	-0.001279	0.493041
	N228	N	0.400586	0.962102	0.671760
	N229	N	0.573023	0.033573	0.671968
	N230	N	0.572918	0.962429	0.313669
	N231	N	0.400539	0.032991	0.313678
	N232	N	0.667336	0.410970	0.957693
	N233	N	0.666707	0.584958	0.027729
	N234	N	0.306750	0.585081	0.957240
	N235	N	0.307406	0.411295	0.028188
	N236	N	0.952115	0.679607	0.406237
	N237	N	0.021619	0.680471	0.581700
	N238	N	0.951879	0.317320	0.581464
	N239	N	0.020622	0.317025	0.404993
	N240	N	0.951228	0.412416	0.673366
	N241	N	0.022684	0.586186	0.673728
	N242	N	0.952269	0.585903	0.313005
	N243	N	0.021426	0.411499	0.312817
	N244	N	0.400319	0.677867	0.956315
	N245	N	0.573954	0.677964	0.027118
	N246	N	0.575099	0.316917	0.957980
	N247	N	0.400366	0.318428	0.028095
	N248	N	0.668182	0.963256	0.404830
	N249	N	0.667839	0.032907	0.580677
	N250	N	0.304225	0.963776	0.581323
	N251	N	0.305527	0.032106	0.404847
	N252	N	0.900527	0.463500	0.172903
	N253	N	0.073938	0.533275	0.172903
	N254	N	0.074821	0.464458	0.812087
	N255	N	0.900724	0.534984	0.813707
	N256	N	0.165462	0.912377	0.458133
	N257	N	0.168239	0.087367	0.527503
	N258	N	0.807665	0.083707	0.457902
	N259	N	0.804239	0.909312	0.528285
	N260	N	0.452789	0.179274	0.904630
	N261	N	0.521606	0.180053	0.081480
	N262	N	0.452013	0.817597	0.078754
	N263	N	0.522153	0.816465	0.903547
	N264	N	0.451806	0.910964	0.172668
	N265	N	0.522400	0.084271	0.172541
	N266	N	0.451893	0.084250	0.812811
	N267	N	0.522372	0.910598	0.811474
	N268	N	0.898999	0.178571	0.458826
	N269	N	0.074724	0.179793	0.528106
	N270	N	0.072534	0.819265	0.458497
	N271	N	0.898781	0.818356	0.529232
	N272	N	0.167609	0.463581	0.905761
	N273	N	0.168874	0.532627	0.081338
	N274	N	0.805170	0.464712	0.081548
	N275	N	0.805687	0.533732	0.904901
	O276	O	0.787353	1.199089	-0.165501
	H277	H	0.786732	1.207627	-0.142061
	H278	H	0.777957	1.188852	-0.175411
	O279	O	-0.040820	0.217455	0.779955
	H280	H	-0.046291	0.231246	0.758924
	H281	H	-0.055905	0.222460	0.783783
	O282	O	0.276056	0.472623	0.705997
	H283	H	0.275677	0.482768	0.707313
	H284	H	0.266382	0.491115	0.714323
	O285	O	0.278588	0.294295	0.699930
	H286	H	0.294080	0.313027	0.689580
	H287	H	0.297046	0.312954	0.701371
	O288	O	1.318712	-0.676633	1.320055
	H289	H	1.323977	-0.665364	1.339187
	H290	H	1.324689	-0.675857	1.317265
	O291	O	0.691035	0.294025	0.396093
	H292	H	0.711267	0.283763	0.417642
	H293	H	0.698187	0.307903	0.376106
	O294	O	0.225953	0.238865	0.354666
	H295	H	0.206504	0.215322	0.349990
	H296	H	0.234035	0.226442	0.364789
	O297	O	1.096997	-0.020412	-0.115860
	H298	H	1.094766	-0.027222	-0.129774
	H299	H	1.110595	-0.009177	-0.136182
	O300	O	0.196614	-0.025720	-0.214892
	H301	H	0.180591	0.005688	-0.203426
	H302	H	0.211445	-0.018322	-0.240293
	O303	O	-0.130119	-0.208032	0.012767
	H304	H	-0.134919	-0.212660	0.011471
	H305	H	-0.131532	-0.196445	0.004719
	O306	O	1.018320	0.111443	-0.039831
	H307	H	1.026972	0.097738	-0.039927
	H308	H	1.015195	0.119978	-0.053693
	O309	O	0.288042	0.697199	0.302678
	H310	H	0.281529	0.696963	0.289563
	H311	H	0.280532	0.671644	0.289681
	O312	O	0.683355	0.402411	0.689825
	H313	H	0.667629	0.410205	0.688117
	H314	H	0.680713	0.424242	0.684613
	O315	O	0.409217	0.511577	0.450133
	H316	H	0.407092	0.492014	0.435330
	H317	H	0.398060	0.514046	0.447100
	O318	O	0.994586	1.047119	-0.139444
	H319	H	0.992279	1.046567	-0.131634
	H320	H	0.975793	1.049198	-0.128671
	O321	O	-0.043595	0.786558	1.208950
	H322	H	-0.048618	0.770750	1.218161
	H323	H	-0.060316	0.784133	1.214016
	O324	O	0.924219	0.038021	1.147789
	H325	H	0.925791	0.039129	1.150573
	H326	H	0.925469	0.024150	1.143972
	O327	O	0.207170	0.967113	1.030674
	H328	H	0.210372	0.985261	1.022182
	H329	H	0.205570	0.968978	1.017787
	O330	O	0.444309	0.324079	0.495761
	H331	H	0.455700	0.311570	0.492151
	H332	H	0.445175	0.326648	0.480628
	O333	O	0.799526	1.183995	1.225489
	H334	H	0.815284	1.177973	1.209431
	H335	H	0.802507	1.208376	1.229913
	O336	O	0.495255	0.510699	0.280864
	H337	H	0.493351	0.520374	0.273254
	H338	H	0.488993	0.514762	0.287756
	O339	O	0.711397	0.372149	0.500178
	H340	H	0.717092	0.353022	0.506711
	H341	H	0.717861	0.386130	0.509174
	O342	O	-0.134145	0.898952	-0.190484
	H343	H	-0.124395	0.894730	-0.188988
	H344	H	-0.128513	0.904383	-0.198440
	O345	O	0.323090	0.687419	0.533190
	H346	H	0.301016	0.693483	0.519162
	H347	H	0.318232	0.698270	0.518502
	O348	O	0.275841	0.536488	0.363415
	H349	H	0.268801	0.523041	0.366817
	H350	H	0.272998	0.534216	0.353156
	O351	O	0.551064	-0.576145	1.710325
	H352	H	0.535595	-0.568112	1.713954
	H353	H	0.554044	-0.569626	1.707723
	O354	O	0.767286	-0.047529	0.985048
	H355	H	0.773663	-0.049170	0.996472
	H356	H	0.769157	-0.045277	0.977790
	O357	O	0.492147	0.412852	0.320755
	H358	H	0.497181	0.400750	0.306549
	H359	H	0.501446	0.411709	0.330145
	O360	O	0.944332	0.788024	0.801544
	H361	H	0.968747	0.785952	0.812734
	H362	H	0.947561	0.779235	0.793477
	O363	O	1.015176	0.944307	0.053665
	H364	H	1.012442	0.942649	0.047991
	H365	H	1.026588	0.930194	0.050565
	O366	O	0.694328	0.481235	0.627730
	H367	H	0.681144	0.478232	0.637520
	H368	H	0.692789	0.487463	0.621523
	O369	O	0.195890	-0.209912	0.964349
	H370	H	0.207318	-0.210501	0.971099
	H371	H	0.185842	-0.210909	0.955699
	O372	O	0.202869	1.025339	1.205909
	H373	H	0.218909	1.024429	1.211686
	H374	H	0.203653	1.025471	1.212531
	O375	O	1.058807	-0.065261	0.213904
	H376	H	1.055238	-0.062109	0.219141
	H377	H	1.056789	-0.084756	0.212545
	O378	O	0.540154	0.418959	0.405551
	H379	H	0.543534	0.421658	0.396628
	H380	H	0.547557	0.414946	0.398370
	O381	O	0.330597	0.520173	0.547299
	H382	H	0.334848	0.517940	0.555819
	H383	H	0.323969	0.516394	0.543940
	O384	O	0.450696	0.715420	0.274509
	H385	H	0.440895	0.734865	0.264490
	H386	H	0.435304	0.722235	0.272536
	O387	O	0.073240	1.139079	1.131520
	H388	H	0.052359	1.140071	1.132928
	H389	H	0.072370	1.151851	1.144362
	O390	O	-0.201296	0.965549	1.195040
	H391	H	-0.195206	0.952616	1.191581
	H392	H	-0.213376	0.969064	1.210627
	O393	O	1.103513	0.138342	0.078417
	H394	H	1.100031	0.146554	0.080593
	H395	H	1.115109	0.154284	0.085256
	O396	O	0.466829	0.280571	0.600357
	H397	H	0.452017	0.271151	0.589981
	H398	H	0.491539	0.293840	0.585183
	O399	O	0.552007	0.284142	0.281473
	H400	H	0.567554	0.275607	0.260150
	H401	H	0.566111	0.286220	0.289813
	O402	O	0.803281	0.222364	0.983193
	H403	H	0.778124	0.238069	0.979742
	H404	H	0.809317	0.222647	0.973846
	O405	O	0.318512	0.544893	0.512441
	H406	H	0.318978	0.539538	0.511601
	H407	H	0.320725	0.548545	0.508593
	O408	O	0.994344	1.109684	0.850050
	H409	H	0.999480	1.101982	0.858868
	H410	H	1.014644	1.108331	0.844453
	O411	O	0.901773	1.111639	0.099525
	H412	H	0.893243	1.118395	0.088031
	H413	H	0.894055	1.111611	0.110219
	O414	O	-0.173701	0.133011	0.077015
	H415	H	-0.160225	0.123386	0.072448
	H416	H	-0.175883	0.137974	0.075566
	O417	O	0.885350	0.058579	-0.036106
	H418	H	0.893011	0.049610	-0.040144
	H419	H	0.885875	0.053059	-0.031668
	O420	O	1.169339	0.183189	1.019228
	H421	H	1.157502	0.182754	1.036043
	H422	H	1.182889	0.198865	1.030391
	O423	O	0.951339	0.806619	0.029078
	H424	H	0.928166	0.809657	0.035761
	H425	H	0.930337	0.805204	0.034041
	O426	O	0.710738	0.559744	0.434877
	H427	H	0.715306	0.555160	0.451684
	H428	H	0.702159	0.577403	0.432349
	O429	O	0.551550	0.526154	0.339069
	H430	H	0.546930	0.508541	0.328754
	H431	H	0.533921	0.536388	0.352985
	O432	O	0.778072	0.059380	0.784802
	H433	H	0.774565	0.062460	0.778169
	H434	H	0.781990	0.066024	0.778924
	O435	O	0.459423	0.359603	0.674718
	H436	H	0.455907	0.343083	0.674819
	H437	H	0.468530	0.346171	0.669276
	O438	O	0.785983	0.806888	0.196886
	H439	H	0.795573	0.818657	0.181793
	H440	H	0.761098	0.780818	0.208430
	O441	O	0.511744	0.715438	0.710393
	H442	H	0.500016	0.727368	0.726603
	H443	H	0.523825	0.720104	0.717600
	O444	O	0.626841	0.647166	0.507313
	H445	H	0.616279	0.643620	0.522062
	H446	H	0.636780	0.660948	0.509756
	O447	O	0.684190	0.692563	0.627812
	H448	H	0.674603	0.681193	0.630117
	H449	H	0.698669	0.688846	0.611856
	O450	O	1.178727	-0.190563	-0.197724
	H451	H	1.172462	-0.185309	-0.166819
	H452	H	1.177072	-0.148350	-0.206514
	O453	O	0.498930	0.590022	0.698299
	H454	H	0.482608	0.599858	0.693302
	H455	H	0.503129	0.596898	0.686615
	O456	O	-0.073796	0.820635	0.872919
	H457	H	-0.069809	0.814446	0.858476
	H458	H	-0.087071	0.807211	0.876538
	O459	O	0.703320	0.469656	0.280089
	H460	H	0.726765	0.474021	0.264189
	H461	H	0.689942	0.488262	0.281353
	O462	O	0.341563	0.710766	0.497269
	H463	H	0.356285	0.697126	0.479914
	H464	H	0.317638	0.730854	0.493203
	O465	O	0.594262	0.707192	0.394565
	H466	H	0.580645	0.700830	0.415686
	H467	H	0.575187	0.699164	0.394595
	O468	O	0.168652	0.827923	0.145476
	H469	H	0.160395	0.835352	0.125220
	H470	H	0.161224	0.835018	0.132015
	O471	O	0.333655	0.497982	0.503165
	H472	H	0.336066	0.495865	0.508906
	H473	H	0.327524	0.497372	0.522225
	O474	O	1.132641	1.160084	-0.133338
	H475	H	1.129389	1.155145	-0.115597
	H476	H	1.137716	1.183625	-0.160484
	O477	O	0.489445	0.544606	0.508564
	H478	H	0.491409	0.549965	0.512780
	H479	H	0.483879	0.554659	0.520246
