data_Molecule from HDF5

_cell_length_a		16.677874
_cell_length_b		16.667162
_cell_length_c		16.465882
_cell_angle_alpha	90.010732
_cell_angle_beta	90.113086
_cell_angle_gamma	89.981544
_symmetry_space_group_name_H-M	'P 1'
_symmetry_Int_Tables_number		1

loop_
	_symmetry_equiv_pos_as_xyz
	x,y,z

loop_
	_atom_site_label
	_atom_site_type_symbol
	_atom_site_fract_x
	_atom_site_fract_y
	_atom_site_fract_z
	H0	H	0.369096	0.844977	0.714719
	H1	H	0.570812	0.160040	0.712491
	H2	H	0.572319	0.843830	0.277821
	H3	H	0.364348	0.155386	0.270500
	H4	H	0.692903	0.396204	0.839097
	H5	H	0.694737	0.606140	0.151879
	H6	H	0.255992	0.602242	0.836814
	H7	H	0.251934	0.395649	0.152440
	H8	H	0.817174	0.722819	0.389260
	H9	H	0.125779	0.725026	0.601772
	H10	H	0.813510	0.285736	0.596641
	H11	H	0.124628	0.274373	0.385674
	H12	H	0.814019	0.404326	0.710946
	H13	H	0.128224	0.605653	0.714506
	H14	H	0.818210	0.604694	0.273629
	H15	H	0.126985	0.392553	0.271643
	H16	H	0.371949	0.718177	0.837020
	H17	H	0.579813	0.722049	0.151323
	H18	H	0.577345	0.280342	0.839255
	H19	H	0.367473	0.279691	0.152695
	H20	H	0.690322	0.844772	0.393223
	H21	H	0.690466	0.159033	0.599354
	H22	H	0.247546	0.848181	0.602518
	H23	H	0.246618	0.155596	0.385691
	H24	H	0.865401	0.347583	0.221617
	H25	H	0.078526	0.656397	0.217738
	H26	H	0.073241	0.344998	0.775793
	H27	H	0.866660	0.656525	0.774588
	H28	H	0.195113	0.893595	0.341430
	H29	H	0.192474	0.107532	0.651268
	H30	H	0.750829	0.105871	0.336952
	H31	H	0.753084	0.899266	0.653872
	H32	H	0.319567	0.225228	0.887927
	H33	H	0.625529	0.226311	0.107984
	H34	H	0.319911	0.773889	0.104193
	H35	H	0.630175	0.782178	0.892410
	H36	H	0.319306	0.889976	0.221372
	H37	H	0.626545	0.106499	0.219706
	H38	H	0.317904	0.105386	0.773926
	H39	H	0.630364	0.900079	0.777595
	H40	H	0.863771	0.223274	0.337937
	H41	H	0.074860	0.221211	0.652375
	H42	H	0.076497	0.781068	0.339716
	H43	H	0.867696	0.782835	0.653058
	H44	H	0.193763	0.345948	0.890052
	H45	H	0.195607	0.655943	0.102028
	H46	H	0.746120	0.349278	0.108768
	H47	H	0.748036	0.654392	0.888019
	H48	H	0.378072	0.114085	0.584035
	H49	H	0.559499	0.889912	0.590367
	H50	H	0.562740	0.114783	0.400233
	H51	H	0.389799	0.894941	0.412520
	H52	H	0.555721	0.409101	0.109156
	H53	H	0.564915	0.594227	0.879846
	H54	H	0.382325	0.584756	0.107523
	H55	H	0.385911	0.412698	0.884210
	H56	H	0.082361	0.590318	0.412545
	H57	H	0.861945	0.592100	0.577591
	H58	H	0.085449	0.410014	0.588731
	H59	H	0.865431	0.421518	0.408134
	H60	H	0.084174	0.405441	0.582774
	H61	H	0.859372	0.587757	0.590829
	H62	H	0.084006	0.589729	0.406110
	H63	H	0.859368	0.410904	0.402067
	H64	H	0.389488	0.589587	0.107570
	H65	H	0.565176	0.583351	0.883240
	H66	H	0.565935	0.411736	0.110822
	H67	H	0.384241	0.409327	0.882661
	H68	H	0.554690	0.110951	0.408047
	H69	H	0.564660	0.891148	0.580817
	H70	H	0.382987	0.113466	0.587342
	H71	H	0.376165	0.891356	0.414930
	H72	H	0.878247	0.613905	0.083666
	H73	H	0.063686	0.391368	0.079475
	H74	H	0.073352	0.616752	0.901799
	H75	H	0.883295	0.390721	0.908584
	H76	H	0.054792	0.918771	0.604369
	H77	H	0.060397	0.081925	0.384857
	H78	H	0.884422	0.090291	0.606243
	H79	H	0.880714	0.908030	0.381286
	H80	H	0.584983	0.091464	0.905687
	H81	H	0.360085	0.091159	0.085616
	H82	H	0.579778	0.918647	0.081560
	H83	H	0.362809	0.908760	0.909902
	H84	H	0.585793	0.910744	0.091309
	H85	H	0.364200	0.091562	0.075918
	H86	H	0.584264	0.091753	0.908688
	H87	H	0.361761	0.912550	0.902752
	H88	H	0.880723	0.096689	0.608549
	H89	H	0.051257	0.089799	0.385213
	H90	H	0.056857	0.908247	0.608942
	H91	H	0.876396	0.912814	0.380979
	H92	H	0.059586	0.614088	0.897872
	H93	H	0.062931	0.389465	0.084797
	H94	H	0.892054	0.609928	0.088062
	H95	H	0.881063	0.388601	0.906586
	H96	H	0.383209	0.111121	0.581464
	H97	H	0.570069	0.886941	0.589505
	H98	H	0.565784	0.112922	0.412207
	H99	H	0.381873	0.888137	0.402398
	H100	H	0.559571	0.418476	0.105920
	H101	H	0.555446	0.589406	0.884276
	H102	H	0.382438	0.592552	0.110768
	H103	H	0.381811	0.412560	0.882162
	H104	H	0.085135	0.595668	0.409618
	H105	H	0.856542	0.600876	0.586985
	H106	H	0.081382	0.412400	0.582642
	H107	H	0.862961	0.409510	0.415468
	H108	H	0.887580	0.606875	0.074255
	H109	H	0.058828	0.392505	0.082006
	H110	H	0.064159	0.610849	0.912071
	H111	H	0.884104	0.390196	0.905058
	H112	H	0.064924	0.916401	0.610038
	H113	H	0.061817	0.093017	0.380000
	H114	H	0.877139	0.090407	0.608419
	H115	H	0.882362	0.913901	0.383068
	H116	H	0.583429	0.089283	0.907167
	H117	H	0.364289	0.083049	0.081233
	H118	H	0.582777	0.905672	0.078602
	H119	H	0.358667	0.905129	0.903829
	C120	C	0.349441	0.010321	0.617152
	C121	C	0.594018	0.993591	0.617399
	C122	C	0.592309	0.009470	0.375257
	C123	C	0.349323	0.993207	0.374454
	C124	C	0.593449	0.380220	0.005125
	C125	C	0.594630	0.621410	0.986360
	C126	C	0.353081	0.620809	0.004111
	C127	C	0.351414	0.379137	0.987072
	C128	C	-0.018792	0.623264	0.375516
	C129	C	0.962431	0.624537	0.617044
	C130	C	-0.020160	0.379814	0.615983
	C131	C	0.963915	0.379626	0.373741
	C132	C	0.852241	0.509056	0.116802
	C133	C	0.094908	0.492805	0.116442
	C134	C	0.095516	0.510140	0.872907
	C135	C	0.850930	0.492445	0.874420
	C136	C	0.091522	0.881948	0.504447
	C137	C	0.091048	0.121782	0.486531
	C138	C	0.849513	0.123367	0.503289
	C139	C	0.849394	0.880956	0.486755
	C140	C	0.481532	0.122895	0.874446
	C141	C	0.464456	0.121470	0.116323
	C142	C	0.481057	0.877908	0.117312
	C143	C	0.464732	0.878955	0.874154
	C144	C	0.348956	0.892561	0.676184
	C145	C	0.591674	0.112558	0.674168
	C146	C	0.592005	0.890896	0.317266
	C147	C	0.346010	0.108977	0.311306
	C148	C	0.653116	0.377625	0.886461
	C149	C	0.655007	0.624335	0.104611
	C150	C	0.294988	0.621632	0.884507
	C151	C	0.291596	0.377270	0.105099
	C152	C	0.864013	0.682636	0.371530
	C153	C	0.079450	0.684506	0.619839
	C154	C	0.861113	0.324078	0.615858
	C155	C	0.078937	0.316008	0.368659
	C156	C	0.861150	0.383169	0.672552
	C157	C	0.080617	0.624921	0.675718
	C158	C	0.864523	0.623926	0.314231
	C159	C	0.080125	0.374859	0.311914
	C160	C	0.352533	0.679087	0.884602
	C161	C	0.597626	0.681733	0.104508
	C162	C	0.595720	0.320189	0.886612
	C163	C	0.348955	0.319461	0.105325
	C164	C	0.650959	0.891600	0.374074
	C165	C	0.650937	0.112091	0.617727
	C166	C	0.288950	0.893917	0.620303
	C167	C	0.287687	0.109235	0.368724
	C168	C	0.847730	0.394054	0.180577
	C169	C	0.097277	0.609625	0.177654
	C170	C	0.094089	0.391920	0.814952
	C171	C	0.848589	0.609695	0.814521
	C172	C	0.153154	0.877439	0.387355
	C173	C	0.151954	0.125361	0.604330
	C174	C	0.790147	0.124570	0.384607
	C175	C	0.791827	0.880176	0.606026
	C176	C	0.365351	0.183728	0.870789
	C177	C	0.579469	0.184438	0.123454
	C178	C	0.365810	0.815239	0.121670
	C179	C	0.582923	0.821238	0.873370
	C180	C	0.365404	0.873024	0.179808
	C181	C	0.580108	0.124672	0.179177
	C182	C	0.364472	0.124525	0.814155
	C183	C	0.582948	0.879993	0.816303
	C184	C	0.846758	0.182896	0.384956
	C185	C	0.093482	0.181822	0.604774
	C186	C	0.094492	0.821197	0.386773
	C187	C	0.849080	0.822551	0.605916
	C188	C	0.153841	0.392588	0.871427
	C189	C	0.155398	0.609387	0.120171
	C190	C	0.788438	0.394729	0.124251
	C191	C	0.789741	0.608633	0.871198
	C192	C	0.374022	0.091800	0.591678
	C193	C	0.571347	0.910953	0.593786
	C194	C	0.568005	0.091449	0.399796
	C195	C	0.375206	0.912484	0.402120
	C196	C	0.567955	0.405649	0.087077
	C197	C	0.569076	0.596244	0.903862
	C198	C	0.377572	0.596092	0.086955
	C199	C	0.376760	0.404295	0.904543
	C200	C	0.062615	0.599022	0.401715
	C201	C	0.880627	0.600511	0.592172
	C202	C	0.062276	0.402699	0.591807
	C203	C	0.883418	0.406491	0.400599
	C204	C	0.878463	0.589425	0.089523
	C205	C	0.069073	0.412006	0.089929
	C206	C	0.072166	0.592621	0.897044
	C207	C	0.875880	0.410889	0.899687
	C208	C	0.066132	0.907518	0.586562
	C209	C	0.065152	0.095660	0.404599
	C210	C	0.874040	0.099350	0.586280
	C211	C	0.873034	0.904929	0.403484
	C212	C	0.562970	0.097890	0.899857
	C213	C	0.383856	0.095662	0.088750
	C214	C	0.561861	0.904227	0.091172
	C215	C	0.382535	0.902147	0.898532
	Zn216	Zn	0.472252	0.001393	0.745384
	Zn217	Zn	0.471045	0.000530	0.245811
	Zn218	Zn	0.722163	0.500301	-0.003870
	Zn219	Zn	0.224146	0.501288	-0.004513
	Zn220	Zn	-0.028511	0.753273	0.495826
	Zn221	Zn	-0.029326	0.250840	0.494985
	Zn222	Zn	-0.027969	0.501738	0.744678
	Zn223	Zn	-0.026050	0.501708	0.245876
	Zn224	Zn	0.473844	0.748985	-0.004739
	Zn225	Zn	0.473137	0.252004	-0.003398
	Zn226	Zn	0.721618	0.002495	0.495391
	Zn227	Zn	0.220298	0.001844	0.495565
	N228	N	0.385915	0.966113	0.674519
	N229	N	0.557047	0.037865	0.674183
	N230	N	0.556373	0.965290	0.317619
	N231	N	0.383371	0.035549	0.314419
	N232	N	0.652170	0.414051	0.961289
	N233	N	0.653351	0.587725	0.030009
	N234	N	0.295063	0.586364	0.959803
	N235	N	0.292810	0.413346	0.030134
	N236	N	0.937670	0.682535	0.408727
	N237	N	0.005007	0.684522	0.584155
	N238	N	0.936123	0.321550	0.581690
	N239	N	0.005603	0.318739	0.406262
	N240	N	0.936123	0.416926	0.672884
	N241	N	0.006804	0.588462	0.674527
	N242	N	0.938444	0.587811	0.316448
	N243	N	0.007633	0.413833	0.314953
	N244	N	0.387721	0.679070	0.960108
	N245	N	0.560844	0.680134	0.029919
	N246	N	0.559618	0.321392	0.961414
	N247	N	0.385101	0.320178	0.030579
	N248	N	0.651386	0.966418	0.409109
	N249	N	0.652735	0.037056	0.583404
	N250	N	0.289206	0.968130	0.584350
	N251	N	0.289581	0.036194	0.407218
	N252	N	0.886866	0.466219	0.176087
	N253	N	0.060405	0.536012	0.175593
	N254	N	0.058632	0.466251	0.815426
	N255	N	0.886300	0.536464	0.816507
	N256	N	0.151134	0.914829	0.461498
	N257	N	0.150895	0.089185	0.529643
	N258	N	0.791746	0.088127	0.459293
	N259	N	0.791883	0.915664	0.530960
	N260	N	0.439271	0.182973	0.907493
	N261	N	0.506537	0.182546	0.084655
	N262	N	0.438695	0.818185	0.083472
	N263	N	0.508132	0.819946	0.908174
	N264	N	0.438016	0.911469	0.177076
	N265	N	0.507585	0.086205	0.174852
	N266	N	0.437841	0.087326	0.816365
	N267	N	0.508286	0.914897	0.816159
	N268	N	0.882883	0.182386	0.459823
	N269	N	0.056204	0.179855	0.530273
	N270	N	0.056649	0.823895	0.460575
	N271	N	0.884064	0.822506	0.530391
	N272	N	0.154728	0.467195	0.906597
	N273	N	0.154236	0.535688	0.082962
	N274	N	0.791140	0.467256	0.085110
	N275	N	0.790721	0.534620	0.907507
	O276	O	-0.236525	0.783411	0.036034
	H277	H	-0.249101	0.765579	0.041000
	H278	H	-0.230321	0.788016	0.024428
	O279	O	0.485301	0.384018	-0.669042
	H280	H	0.473770	0.382275	-0.668344
	H281	H	0.469861	0.385776	-0.670779
	O282	O	0.749060	0.035797	0.771805
	H283	H	0.749157	0.058971	0.778913
	H284	H	0.726900	0.042636	0.749306
	O285	O	0.413864	0.653266	0.330781
	H286	H	0.388634	0.656099	0.347940
	H287	H	0.395787	0.653741	0.318137
	O288	O	0.185935	0.788817	0.789594
	H289	H	0.191783	0.783325	0.842784
	H290	H	0.156505	0.803691	0.781037
	O291	O	0.510706	0.722845	0.712494
	H292	H	0.539653	0.714479	0.715704
	H293	H	0.521742	0.746194	0.740431
	O294	O	0.570741	-0.573176	1.404419
	H295	H	0.567701	-0.557465	1.398911
	H296	H	0.546206	-0.568799	1.404610
	O297	O	0.188806	0.986484	0.785672
	H298	H	0.205139	0.980245	0.772163
	H299	H	0.191391	0.962515	0.795157
	O300	O	0.245303	0.279527	0.719122
	H301	H	0.269994	0.278796	0.692824
	H302	H	0.222080	0.242686	0.746155
	O303	O	0.809016	-0.125226	-0.113302
	H304	H	0.811221	-0.112874	-0.109825
	H305	H	0.810645	-0.107947	-0.109437
	O306	O	0.934222	0.803198	1.043202
	H307	H	0.928650	0.794184	1.050749
	H308	H	0.928853	0.803820	1.055877
	O309	O	0.532248	0.530176	0.285079
	H310	H	0.522152	0.546359	0.283804
	H311	H	0.532737	0.541097	0.286795
	O312	O	0.619519	0.453200	0.537778
	H313	H	0.610979	0.439725	0.542851
	H314	H	0.634518	0.444100	0.541508
	O315	O	1.255805	0.715899	1.290616
	H316	H	1.258621	0.699105	1.287169
	H317	H	1.253147	0.697564	1.320356
	O318	O	-0.089750	0.099269	0.979944
	H319	H	-0.079707	0.099444	0.970654
	H320	H	-0.096421	0.100409	0.981704
	O321	O	0.008047	0.194069	0.170602
	H322	H	-0.012815	0.199053	0.168247
	H323	H	-0.006745	0.209008	0.171495
	O324	O	1.164582	0.809769	0.135500
	H325	H	1.151134	0.821696	0.143704
	H326	H	1.172068	0.809692	0.150360
	O327	O	-0.010338	-0.053860	1.181574
	H328	H	-0.011992	-0.035693	1.181925
	H329	H	-0.017362	-0.052849	1.188490
	O330	O	1.139015	0.935567	1.014580
	H331	H	1.135208	0.941530	1.017474
	H332	H	1.135780	0.938421	1.028808
	O333	O	-0.066527	0.228435	-0.227466
	H334	H	-0.080892	0.217616	-0.238363
	H335	H	-0.058805	0.245458	-0.253161
	O336	O	1.000636	-0.225054	0.099914
	H337	H	0.991996	-0.228984	0.128944
	H338	H	1.017947	-0.221186	0.104991
	O339	O	1.455785	-0.439984	0.506441
	H340	H	1.452376	-0.440733	0.510524
	H341	H	1.448785	-0.451452	0.510193
	O342	O	0.427085	0.643463	-0.372779
	H343	H	0.427402	0.649237	-0.353945
	H344	H	0.446116	0.646036	-0.372754
	O345	O	0.144048	1.170928	0.798948
	H346	H	0.126506	1.144544	0.809173
	H347	H	0.135868	1.155625	0.817288
	O348	O	0.443068	0.374208	0.479058
	H349	H	0.438435	0.390400	0.496132
	H350	H	0.440599	0.373106	0.489908
	O351	O	0.816798	1.100015	-0.195581
	H352	H	0.852939	1.112896	-0.194249
	H353	H	0.807895	1.106931	-0.163131
	O354	O	0.116366	-0.072402	0.894109
	H355	H	0.105143	-0.071361	0.899492
	H356	H	0.110633	-0.095483	0.911932
	O357	O	0.114249	1.223441	0.998166
	H358	H	0.115362	1.220988	0.983674
	H359	H	0.135417	1.223725	0.987368
	O360	O	1.323258	0.302791	1.358987
	H361	H	1.327760	0.302178	1.337613
	H362	H	1.318891	0.309981	1.364661
	O363	O	-0.484528	-0.293991	-0.626058
	H364	H	-0.507801	-0.292451	-0.620632
	H365	H	-0.509735	-0.297865	-0.627138
	O366	O	0.486981	0.404584	0.513729
	H367	H	0.475632	0.412075	0.512427
	H368	H	0.481067	0.409927	0.520286
	O369	O	1.197161	0.013217	0.211039
	H370	H	1.191312	0.034630	0.225272
	H371	H	1.206036	0.043917	0.226074
	O372	O	1.673299	1.592423	0.428953
	H373	H	1.679109	1.591043	0.427425
	H374	H	1.667218	1.593899	0.440224
	O375	O	0.967192	0.233485	0.002416
	H376	H	0.955551	0.239246	-0.006167
	H377	H	0.976382	0.232399	-0.009324
	O378	O	-0.067277	-0.028457	0.826123
	H379	H	-0.075318	-0.027037	0.825669
	H380	H	-0.069924	-0.031076	0.825104
	O381	O	0.015091	1.091106	0.820909
	H382	H	0.013939	1.085030	0.809999
	H383	H	-0.002391	1.078412	0.813066
	O384	O	0.997043	-0.050766	1.207814
	H385	H	0.981046	-0.051654	1.213403
	H386	H	0.993328	-0.050459	1.213626
	O387	O	1.256318	0.529355	0.279194
	H388	H	1.223259	0.526144	0.257158
	H389	H	1.248500	0.509796	0.318230
	O390	O	0.681469	0.471988	0.287392
	H391	H	0.691318	0.486252	0.308430
	H392	H	0.678366	0.483309	0.271166
	O393	O	0.284995	0.686598	0.673473
	H394	H	0.275356	0.696846	0.694516
	H395	H	0.292822	0.691711	0.671008
	O396	O	-0.122197	0.808985	0.875853
	H397	H	-0.105537	0.814106	0.892601
	H398	H	-0.112607	0.814109	0.895744
	O399	O	-0.333918	0.673043	0.326847
	H400	H	-0.357858	0.673346	0.332456
	H401	H	-0.348089	0.648764	0.347508
	O402	O	0.249680	0.286398	0.524912
	H403	H	0.231959	0.264367	0.534775
	H404	H	0.270619	0.277077	0.515705
	O405	O	0.751822	0.230542	0.971928
	H406	H	0.744453	0.217668	0.971572
	H407	H	0.724359	0.244405	0.971603
	O408	O	0.009882	-0.204578	-0.216230
	H409	H	0.001558	-0.219060	-0.221567
	H410	H	0.009583	-0.208722	-0.219039
	O411	O	0.822084	0.995660	1.212447
	H412	H	0.812874	0.984850	1.221125
	H413	H	0.804612	0.982563	1.220065
	O414	O	1.202163	-0.148645	-0.004056
	H415	H	1.216473	-0.160936	0.010086
	H416	H	1.202233	-0.144730	0.024383
	O417	O	0.593270	0.446298	0.532108
	H418	H	0.600308	0.454655	0.547558
	H419	H	0.591438	0.447249	0.533234
	O420	O	0.689119	0.713463	0.530819
	H421	H	0.687922	0.731512	0.521683
	H422	H	0.692930	0.713903	0.529664
	O423	O	0.551619	-0.639584	1.625232
	H424	H	0.530016	-0.646645	1.626821
	H425	H	0.569073	-0.652286	1.596475
	O426	O	1.017424	0.015221	0.122315
	H427	H	1.022348	0.015489	0.129992
	H428	H	1.020265	0.026332	0.121688
	O429	O	0.756703	0.972308	1.015857
	H430	H	0.748476	0.968022	1.028252
	H431	H	0.774829	0.974020	1.020332
	O432	O	0.387316	0.665540	0.537137
	H433	H	0.401150	0.669649	0.545430
	H434	H	0.383794	0.663914	0.562506
	O435	O	0.401240	0.292214	0.705413
	H436	H	0.390683	0.302345	0.686595
	H437	H	0.414765	0.279088	0.725481
	O438	O	0.186269	0.211182	0.103891
	H439	H	0.196251	0.234621	0.090197
	H440	H	0.183053	0.187954	0.076523
	O441	O	0.643161	0.277509	0.443644
	H442	H	0.636960	0.280270	0.414954
	H443	H	0.659828	0.260899	0.421716
	O444	O	0.655376	0.267745	0.674982
	H445	H	0.634151	0.281993	0.650544
	H446	H	0.658387	0.242732	0.677949
	O447	O	0.152596	1.047034	0.916338
	H448	H	0.146630	1.023236	0.924659
	H449	H	0.150344	1.037333	0.913126
	O450	O	-0.214194	1.108709	1.124567
	H451	H	-0.229692	1.093384	1.143828
	H452	H	-0.218908	1.115166	1.124804
	O453	O	0.239806	0.447703	0.430277
	H454	H	0.238860	0.465149	0.464789
	H455	H	0.239168	0.414888	0.449873
	O456	O	0.067309	0.215888	1.166988
	H457	H	0.048802	0.218489	1.164173
	H458	H	0.050434	0.219793	1.143187
	O459	O	0.975804	0.904948	0.063186
	H460	H	0.974311	0.917148	0.065423
	H461	H	0.974843	0.903626	0.072566
	O462	O	1.526602	0.396252	0.707185
	H463	H	1.525699	0.406441	0.694065
	H464	H	1.526908	0.403150	0.703626
	O465	O	0.768866	0.016561	0.030416
	H466	H	0.779083	0.028960	0.040600
	H467	H	0.769686	0.004209	0.045829
	O468	O	0.252252	0.468836	0.712214
	H469	H	0.238453	0.437742	0.727923
	H470	H	0.250615	0.450442	0.728233
	O471	O	0.764137	0.796128	0.204016
	H472	H	0.739759	0.776890	0.222681
	H473	H	0.781819	0.790901	0.176284
	O474	O	0.302647	0.537227	0.601800
	H475	H	0.298697	0.535959	0.613423
	H476	H	0.293393	0.547250	0.628297
	O477	O	0.442540	0.377288	1.281675
	H478	H	0.450102	0.401151	1.278343
	H479	H	0.414813	0.377390	1.280800
	O480	O	0.277882	0.711167	0.461449
	H481	H	0.276343	0.715797	0.471399
	H482	H	0.294927	0.716260	0.476176
	O483	O	0.674397	0.525175	0.701827
	H484	H	0.684608	0.537840	0.698532
	H485	H	0.665351	0.527334	0.717437
	O486	O	0.695988	0.256905	0.249625
	H487	H	0.687351	0.283558	0.251228
	H488	H	0.689919	0.266784	0.234660
	O489	O	0.675289	1.699617	-0.302139
	H490	H	0.688688	1.689833	-0.310461
	H491	H	0.691162	1.719957	-0.302253
