data_Molecule from HDF5

_cell_length_a		16.336281
_cell_length_b		16.288248
_cell_length_c		16.267704
_cell_angle_alpha	89.975278
_cell_angle_beta	90.044609
_cell_angle_gamma	90.161446
_symmetry_space_group_name_H-M	'P 1'
_symmetry_Int_Tables_number		1

loop_
	_symmetry_equiv_pos_as_xyz
	x,y,z

loop_
	_atom_site_label
	_atom_site_type_symbol
	_atom_site_fract_x
	_atom_site_fract_y
	_atom_site_fract_z
	H0	H	0.407496	0.837711	0.717074
	H1	H	0.603974	0.164937	0.717811
	H2	H	0.603529	0.837158	0.290377
	H3	H	0.408238	0.164325	0.289061
	H4	H	0.719313	0.402153	0.839226
	H5	H	0.719206	0.598597	0.167243
	H6	H	0.291336	0.599425	0.839506
	H7	H	0.289665	0.401063	0.166547
	H8	H	0.841979	0.714518	0.405951
	H9	H	0.168041	0.715552	0.601505
	H10	H	0.842719	0.284752	0.603350
	H11	H	0.169398	0.286917	0.404509
	H12	H	0.841959	0.403627	0.717540
	H13	H	0.168630	0.600808	0.717799
	H14	H	0.841703	0.598579	0.290351
	H15	H	0.167837	0.402781	0.287702
	H16	H	0.406794	0.715608	0.840300
	H17	H	0.605341	0.715063	0.166847
	H18	H	0.601725	0.287931	0.838818
	H19	H	0.406240	0.286020	0.167127
	H20	H	0.719896	0.837920	0.405313
	H21	H	0.721268	0.164680	0.602840
	H22	H	0.289618	0.838233	0.603811
	H23	H	0.290060	0.163620	0.402674
	H24	H	0.905391	0.337401	0.218418
	H25	H	0.103311	0.665505	0.217850
	H26	H	0.102103	0.337728	0.789106
	H27	H	0.908716	0.666142	0.790404
	H28	H	0.220548	0.901974	0.340926
	H29	H	0.221476	0.101801	0.667340
	H30	H	0.791530	0.099579	0.339892
	H31	H	0.792029	0.904315	0.667771
	H32	H	0.342034	0.214849	0.904389
	H33	H	0.668671	0.216052	0.102071
	H34	H	0.343202	0.784323	0.103111
	H35	H	0.668780	0.787229	0.905469
	H36	H	0.342764	0.901004	0.218832
	H37	H	0.668731	0.099793	0.218175
	H38	H	0.341749	0.098579	0.788921
	H39	H	0.667932	0.903832	0.788809
	H40	H	0.906161	0.215951	0.340120
	H41	H	0.105016	0.216968	0.667302
	H42	H	0.102949	0.787121	0.340136
	H43	H	0.907238	0.787638	0.667708
	H44	H	0.218362	0.337343	0.904507
	H45	H	0.221352	0.664228	0.102779
	H46	H	0.790355	0.337459	0.101384
	H47	H	0.790442	0.665171	0.904637
	H48	H	0.416337	0.118838	0.603796
	H49	H	0.594080	0.888706	0.589352
	H50	H	0.602335	0.120198	0.406765
	H51	H	0.400330	0.883219	0.416956
	H52	H	0.598131	0.406022	0.119629
	H53	H	0.592192	0.592702	0.888276
	H54	H	0.410773	0.584476	0.117888
	H55	H	0.416026	0.403901	0.887606
	H56	H	0.119945	0.584707	0.404612
	H57	H	0.889792	0.595700	0.594078
	H58	H	0.121418	0.405743	0.592951
	H59	H	0.888024	0.412133	0.399873
	H60	H	0.119518	0.413277	0.595194
	H61	H	0.888640	0.590857	0.599517
	H62	H	0.125695	0.604813	0.406975
	H63	H	0.886904	0.395846	0.413394
	H64	H	0.420149	0.594208	0.117686
	H65	H	0.600649	0.599374	0.884302
	H66	H	0.599615	0.408498	0.120209
	H67	H	0.406310	0.405409	0.884730
	H68	H	0.593825	0.116367	0.409684
	H69	H	0.608516	0.882247	0.595443
	H70	H	0.417637	0.114687	0.589746
	H71	H	0.414484	0.881443	0.399130
	H72	H	0.907376	0.617120	0.091040
	H73	H	0.095788	0.388121	0.089556
	H74	H	0.098599	0.616273	0.917121
	H75	H	0.907296	0.381776	0.902302
	H76	H	0.103105	0.912137	0.620217
	H77	H	0.092828	0.100906	0.386994
	H78	H	0.915857	0.099095	0.620955
	H79	H	0.902672	0.898800	0.381724
	H80	H	0.626244	0.105733	0.904313
	H81	H	0.390553	0.096389	0.091425
	H82	H	0.623298	0.907137	0.099259
	H83	H	0.389771	0.905379	0.914463
	H84	H	0.621445	0.905439	0.095957
	H85	H	0.391485	0.086719	0.095638
	H86	H	0.617878	0.094436	0.923364
	H87	H	0.390636	0.910410	0.909597
	H88	H	0.907399	0.093947	0.621938
	H89	H	0.107129	0.093840	0.385316
	H90	H	0.092381	0.909896	0.618158
	H91	H	0.907750	0.920250	0.389153
	H92	H	0.105487	0.620026	0.908961
	H93	H	0.101934	0.382994	0.097804
	H94	H	0.908288	0.621137	0.102997
	H95	H	0.921871	0.388197	0.910128
	H96	H	0.405183	0.119691	0.594292
	H97	H	0.594604	0.883765	0.605044
	H98	H	0.601704	0.116207	0.415651
	H99	H	0.421651	0.889568	0.419339
	H100	H	0.596896	0.408858	0.119250
	H101	H	0.602479	0.588789	0.887517
	H102	H	0.408265	0.596902	0.123074
	H103	H	0.411558	0.412642	0.888168
	H104	H	0.117472	0.593920	0.422809
	H105	H	0.886487	0.598024	0.600528
	H106	H	0.122168	0.407752	0.600656
	H107	H	0.895014	0.414603	0.419800
	H108	H	0.918204	0.615850	0.097336
	H109	H	0.091254	0.386423	0.099591
	H110	H	0.095057	0.617566	0.906287
	H111	H	0.906780	0.386914	0.919293
	H112	H	0.098852	0.902012	0.623256
	H113	H	0.094929	0.085888	0.391086
	H114	H	0.915810	0.089496	0.618522
	H115	H	0.924266	0.903427	0.389320
	H116	H	0.619752	0.083215	0.903221
	H117	H	0.387464	0.094717	0.101964
	H118	H	0.621017	0.908249	0.096565
	H119	H	0.387720	0.904597	0.908283
	C120	C	0.384280	0.009652	0.624588
	C121	C	0.627525	0.993124	0.625387
	C122	C	0.627374	0.009672	0.382479
	C123	C	0.383906	0.992335	0.382230
	C124	C	0.626563	0.379077	0.011374
	C125	C	0.627044	0.621976	0.995137
	C126	C	0.384456	0.621208	0.011646
	C127	C	0.382562	0.378258	0.994746
	C128	C	0.013368	0.622599	0.382557
	C129	C	0.996614	0.623266	0.625723
	C130	C	0.013530	0.379715	0.625315
	C131	C	0.997375	0.378942	0.381855
	C132	C	0.882971	0.509494	0.125436
	C133	C	0.126187	0.493251	0.124940
	C134	C	0.127142	0.509786	0.881795
	C135	C	0.883575	0.493837	0.882104
	C136	C	0.126627	0.879581	0.512333
	C137	C	0.127110	0.122756	0.495644
	C138	C	0.884298	0.122643	0.511783
	C139	C	0.883429	0.879384	0.495357
	C140	C	0.513477	0.122841	0.881674
	C141	C	0.497491	0.122088	0.125120
	C142	C	0.514354	0.878218	0.125894
	C143	C	0.496993	0.879163	0.882123
	C144	C	0.386897	0.886558	0.679458
	C145	C	0.624645	0.116049	0.680200
	C146	C	0.623934	0.886117	0.327903
	C147	C	0.387216	0.115515	0.326479
	C148	C	0.681486	0.381687	0.888209
	C149	C	0.681911	0.619624	0.118319
	C150	C	0.329312	0.619421	0.888390
	C151	C	0.327182	0.380493	0.117661
	C152	C	0.890432	0.676988	0.385106
	C153	C	0.119230	0.678619	0.623080
	C154	C	0.891085	0.323624	0.623264
	C155	C	0.120303	0.324231	0.384073
	C156	C	0.890835	0.382423	0.680408
	C157	C	0.119556	0.621105	0.680517
	C158	C	0.890378	0.619285	0.327691
	C159	C	0.119629	0.381613	0.325852
	C160	C	0.386682	0.677110	0.888822
	C161	C	0.625001	0.677053	0.118067
	C162	C	0.623308	0.324657	0.888058
	C163	C	0.385354	0.323331	0.117958
	C164	C	0.681663	0.886378	0.385124
	C165	C	0.683208	0.115969	0.623289
	C166	C	0.328324	0.886874	0.622962
	C167	C	0.328853	0.115378	0.383420
	C168	C	0.885708	0.386379	0.180243
	C169	C	0.123853	0.616433	0.179886
	C170	C	0.123033	0.386440	0.826963
	C171	C	0.887294	0.617241	0.827863
	C172	C	0.182296	0.881723	0.389402
	C173	C	0.182958	0.121551	0.618596
	C174	C	0.829067	0.120424	0.388871
	C175	C	0.828915	0.882637	0.618655
	C176	C	0.390803	0.177104	0.884011
	C177	C	0.620030	0.177903	0.122418
	C178	C	0.391761	0.822371	0.123804
	C179	C	0.619836	0.824680	0.884751
	C180	C	0.391466	0.880804	0.180795
	C181	C	0.620244	0.119889	0.179908
	C182	C	0.390536	0.119292	0.826650
	C183	C	0.619608	0.882659	0.826994
	C184	C	0.886600	0.177842	0.388960
	C185	C	0.125210	0.178563	0.618677
	C186	C	0.123928	0.824706	0.389070
	C187	C	0.886647	0.825307	0.618750
	C188	C	0.180578	0.386093	0.884268
	C189	C	0.182776	0.615787	0.123053
	C190	C	0.828265	0.386260	0.122291
	C191	C	0.828728	0.616703	0.884657
	C192	C	0.406464	0.095588	0.602214
	C193	C	0.605726	0.907169	0.603093
	C194	C	0.605738	0.095357	0.404373
	C195	C	0.405659	0.906940	0.405065
	C196	C	0.604676	0.401195	0.097572
	C197	C	0.604998	0.599851	0.908916
	C198	C	0.406521	0.598510	0.097333
	C199	C	0.404766	0.400716	0.908987
	C200	C	0.098802	0.600888	0.404774
	C201	C	0.910581	0.601368	0.604243
	C202	C	0.099045	0.402155	0.602997
	C203	C	0.912120	0.400920	0.404434
	C204	C	0.904841	0.595741	0.103581
	C205	C	0.103089	0.407864	0.102335
	C206	C	0.105978	0.595699	0.904111
	C207	C	0.905391	0.407753	0.904116
	C208	C	0.104605	0.901474	0.598191
	C209	C	0.104953	0.100131	0.410164
	C210	C	0.906588	0.100613	0.598161
	C211	C	0.905321	0.901037	0.409044
	C212	C	0.599097	0.101028	0.903948
	C213	C	0.411848	0.099349	0.102796
	C214	C	0.599827	0.900339	0.103644
	C215	C	0.411488	0.900537	0.904041
	Zn216	Zn	0.505048	0.001494	0.753506
	Zn217	Zn	0.505953	0.000516	0.254095
	Zn218	Zn	0.754627	0.501300	0.003094
	Zn219	Zn	0.254967	0.500628	0.003030
	Zn220	Zn	0.004600	0.751176	0.504016
	Zn221	Zn	0.005956	0.250567	0.503403
	Zn222	Zn	0.005648	0.502148	0.753829
	Zn223	Zn	0.004834	0.501721	0.253798
	Zn224	Zn	0.505859	0.749618	0.003814
	Zn225	Zn	0.505291	0.250936	0.003454
	Zn226	Zn	0.755937	0.001569	0.503355
	Zn227	Zn	0.255389	0.001414	0.504028
	N228	N	0.420838	0.963967	0.680657
	N229	N	0.590832	0.038645	0.681593
	N230	N	0.590887	0.963589	0.326071
	N231	N	0.420856	0.038212	0.325732
	N232	N	0.683615	0.414865	0.966062
	N233	N	0.683250	0.586085	0.040758
	N234	N	0.327969	0.585104	0.965719
	N235	N	0.325348	0.413981	0.039977
	N236	N	0.967782	0.679125	0.418575
	N237	N	0.041804	0.679964	0.589709
	N238	N	0.968363	0.321948	0.589663
	N239	N	0.043246	0.322625	0.418265
	N240	N	0.968023	0.416373	0.681962
	N241	N	0.042280	0.587347	0.682106
	N242	N	0.967786	0.586088	0.326160
	N243	N	0.042466	0.414892	0.324358
	N244	N	0.420204	0.678472	0.966365
	N245	N	0.591346	0.678358	0.040459
	N246	N	0.589846	0.323189	0.965492
	N247	N	0.418775	0.321661	0.040488
	N248	N	0.684098	0.964031	0.418256
	N249	N	0.684849	0.038484	0.589696
	N250	N	0.326656	0.964469	0.589475
	N251	N	0.326415	0.038008	0.417224
	N252	N	0.918800	0.464153	0.182347
	N253	N	0.089409	0.539292	0.181106
	N254	N	0.090504	0.464268	0.825397
	N255	N	0.920866	0.539930	0.826358
	N256	N	0.184051	0.915281	0.466976
	N257	N	0.184245	0.087467	0.541177
	N258	N	0.827769	0.086844	0.466404
	N259	N	0.827150	0.915946	0.540821
	N260	N	0.468016	0.179184	0.917600
	N261	N	0.542610	0.179068	0.088872
	N262	N	0.469085	0.820419	0.090588
	N263	N	0.542619	0.822241	0.918507
	N264	N	0.468613	0.914869	0.182195
	N265	N	0.543069	0.086107	0.181759
	N266	N	0.467987	0.086245	0.825195
	N267	N	0.542379	0.915752	0.825323
	N268	N	0.920071	0.179298	0.466557
	N269	N	0.091337	0.179766	0.541266
	N270	N	0.090026	0.823377	0.466394
	N271	N	0.919468	0.823021	0.540922
	N272	N	0.183482	0.463698	0.917568
	N273	N	0.184122	0.538319	0.089451
	N274	N	0.826412	0.463866	0.088944
	N275	N	0.826244	0.538814	0.917417
	O276	O	0.492704	0.517150	0.436273
	H277	H	0.489068	0.513072	0.436241
	H278	H	0.481490	0.524632	0.440086
	O279	O	-0.013512	0.103175	0.049048
	H280	H	-0.011515	0.103412	0.059983
	H281	H	-0.012912	0.105403	0.046762
	O282	O	0.441278	0.518415	0.472029
	H283	H	0.448352	0.510893	0.471010
	H284	H	0.445820	0.522703	0.483874
	O285	O	0.520703	0.539907	0.500802
	H286	H	0.518153	0.540283	0.494407
	H287	H	0.514348	0.537800	0.504024
	O288	O	1.178207	0.166457	-0.053431
	H289	H	1.182055	0.167094	-0.055693
	H290	H	1.175365	0.167167	-0.060751
	O291	O	-0.525529	0.536625	-0.584127
	H292	H	-0.537850	0.542922	-0.588365
	H293	H	-0.527850	0.543407	-0.591998
	O294	O	0.463105	0.524506	0.491013
	H295	H	0.471506	0.528511	0.478595
	H296	H	0.459006	0.521186	0.497233
	O297	O	-0.006224	1.081352	0.009074
	H298	H	-0.008432	1.083554	0.014082
	H299	H	-0.007876	1.078613	0.006727
	O300	O	1.009289	0.072246	1.059070
	H301	H	1.012460	0.072308	1.048858
	H302	H	1.011296	0.073352	1.068535
	O303	O	0.499767	0.538862	0.532198
	H304	H	0.511687	0.531659	0.524971
	H305	H	0.497425	0.535730	0.530754
	O306	O	-0.004462	1.097505	1.020886
	H307	H	0.002835	1.099227	1.021489
	H308	H	-0.013078	1.097758	1.024141
	O309	O	0.496428	0.521852	0.473576
	H310	H	0.503002	0.528439	0.476634
	H311	H	0.497758	0.528761	0.469222
