data_Molecule from HDF5

_cell_length_a		16.207633
_cell_length_b		16.300691
_cell_length_c		16.427323
_cell_angle_alpha	90.085884
_cell_angle_beta	90.054548
_cell_angle_gamma	90.139562
_symmetry_space_group_name_H-M	'P 1'
_symmetry_Int_Tables_number		1

loop_
	_symmetry_equiv_pos_as_xyz
	x,y,z

loop_
	_atom_site_label
	_atom_site_type_symbol
	_atom_site_fract_x
	_atom_site_fract_y
	_atom_site_fract_z
	H0	H	0.397649	0.835516	0.718685
	H1	H	0.600055	0.160719	0.719691
	H2	H	0.597377	0.835846	0.286578
	H3	H	0.398633	0.160739	0.287810
	H4	H	0.711874	0.399796	0.841312
	H5	H	0.713492	0.597018	0.165972
	H6	H	0.284485	0.593832	0.840633
	H7	H	0.283799	0.400304	0.166712
	H8	H	0.833516	0.710088	0.406286
	H9	H	0.163272	0.710498	0.600747
	H10	H	0.833372	0.283744	0.600752
	H11	H	0.162395	0.285316	0.406424
	H12	H	0.833245	0.398236	0.717520
	H13	H	0.161701	0.597328	0.719007
	H14	H	0.834379	0.596322	0.289499
	H15	H	0.161875	0.399732	0.289896
	H16	H	0.398652	0.712842	0.841490
	H17	H	0.597113	0.714123	0.165467
	H18	H	0.596072	0.281687	0.842174
	H19	H	0.398811	0.282191	0.165943
	H20	H	0.709504	0.834204	0.406300
	H21	H	0.711488	0.162345	0.599853
	H22	H	0.284652	0.833732	0.599269
	H23	H	0.285530	0.161604	0.406859
	H24	H	0.896723	0.334886	0.219632
	H25	H	0.097041	0.660886	0.218541
	H26	H	0.096610	0.334775	0.787755
	H27	H	0.897802	0.660078	0.786980
	H28	H	0.210401	0.900925	0.339058
	H29	H	0.213372	0.095088	0.665682
	H30	H	0.784752	0.094223	0.339784
	H31	H	0.782847	0.900725	0.665531
	H32	H	0.333070	0.209976	0.905614
	H33	H	0.661824	0.212498	0.101132
	H34	H	0.333577	0.784174	0.100137
	H35	H	0.663154	0.784214	0.905704
	H36	H	0.334492	0.898329	0.217587
	H37	H	0.661514	0.098620	0.218249
	H38	H	0.334827	0.096917	0.787304
	H39	H	0.662424	0.899033	0.788038
	H40	H	0.899182	0.212605	0.340960
	H41	H	0.096025	0.212003	0.666094
	H42	H	0.097187	0.781539	0.341148
	H43	H	0.899421	0.783276	0.665907
	H44	H	0.208195	0.332978	0.908203
	H45	H	0.210304	0.662011	0.099432
	H46	H	0.785196	0.333926	0.098948
	H47	H	0.786422	0.662011	0.908066
	H48	H	0.400839	0.116897	0.599961
	H49	H	0.579669	0.885639	0.591611
	H50	H	0.593351	0.115744	0.407848
	H51	H	0.405091	0.880777	0.408390
	H52	H	0.589107	0.407303	0.117506
	H53	H	0.591420	0.595299	0.887503
	H54	H	0.409771	0.592359	0.117345
	H55	H	0.410795	0.401989	0.890058
	H56	H	0.114243	0.586042	0.410531
	H57	H	0.881088	0.589735	0.599958
	H58	H	0.112851	0.406815	0.595264
	H59	H	0.882360	0.405103	0.417967
	H60	H	0.115415	0.406637	0.600399
	H61	H	0.881381	0.593643	0.593335
	H62	H	0.117370	0.592170	0.405508
	H63	H	0.881763	0.411780	0.405686
	H64	H	0.401735	0.597754	0.121734
	H65	H	0.594675	0.588530	0.888292
	H66	H	0.589274	0.401794	0.119585
	H67	H	0.398591	0.397416	0.884907
	H68	H	0.589206	0.115097	0.407200
	H69	H	0.598306	0.881293	0.590514
	H70	H	0.413025	0.113105	0.599098
	H71	H	0.404837	0.880808	0.408390
	H72	H	0.908566	0.617063	0.110706
	H73	H	0.086153	0.381596	0.099098
	H74	H	0.094219	0.616898	0.903663
	H75	H	0.906342	0.382961	0.916095
	H76	H	0.086662	0.908414	0.616144
	H77	H	0.094207	0.103406	0.384084
	H78	H	0.910075	0.086479	0.614876
	H79	H	0.907081	0.898866	0.387312
	H80	H	0.617814	0.090145	0.902848
	H81	H	0.379257	0.089044	0.100421
	H82	H	0.612953	0.901186	0.084110
	H83	H	0.381151	0.901496	0.912624
	H84	H	0.612087	0.919025	0.098448
	H85	H	0.379828	0.093549	0.095756
	H86	H	0.615773	0.098138	0.915284
	H87	H	0.382473	0.909316	0.910505
	H88	H	0.907404	0.098406	0.619532
	H89	H	0.098890	0.083565	0.387958
	H90	H	0.090186	0.898326	0.619444
	H91	H	0.899440	0.902521	0.385736
	H92	H	0.083290	0.612211	0.908741
	H93	H	0.092734	0.381515	0.094122
	H94	H	0.915768	0.609226	0.091413
	H95	H	0.897610	0.378587	0.907417
	H96	H	0.405155	0.111981	0.589242
	H97	H	0.589295	0.879369	0.607199
	H98	H	0.590726	0.114848	0.411256
	H99	H	0.405047	0.881470	0.408322
	H100	H	0.593892	0.405173	0.120082
	H101	H	0.587574	0.589484	0.890031
	H102	H	0.400482	0.587123	0.119014
	H103	H	0.400186	0.410230	0.889649
	H104	H	0.115572	0.593893	0.413268
	H105	H	0.883271	0.586222	0.593352
	H106	H	0.116246	0.402559	0.597083
	H107	H	0.877038	0.398720	0.407121
	H108	H	0.894679	0.616112	0.093119
	H109	H	0.093613	0.378633	0.101812
	H110	H	0.093815	0.613079	0.916353
	H111	H	0.909819	0.381330	0.903540
	H112	H	0.096812	0.906542	0.619377
	H113	H	0.079879	0.090368	0.391373
	H114	H	0.897809	0.088652	0.619921
	H115	H	0.906116	0.907072	0.389677
	H116	H	0.612088	0.083628	0.914412
	H117	H	0.381911	0.087564	0.093986
	H118	H	0.620229	0.898641	0.106172
	H119	H	0.380470	0.903206	0.905332
	C120	C	0.376784	0.006103	0.624299
	C121	C	0.618872	0.990301	0.624438
	C122	C	0.618974	0.006737	0.380894
	C123	C	0.376749	0.989196	0.380835
	C124	C	0.619550	0.375872	0.012005
	C125	C	0.620138	0.620004	0.995376
	C126	C	0.375765	0.619679	0.012044
	C127	C	0.375462	0.375266	0.995856
	C128	C	0.006804	0.618969	0.381884
	C129	C	0.989900	0.618789	0.624711
	C130	C	0.006157	0.376629	0.625084
	C131	C	0.989209	0.377190	0.382560
	C132	C	0.877012	0.506209	0.125918
	C133	C	0.119073	0.489186	0.125659
	C134	C	0.118519	0.505960	0.881968
	C135	C	0.876447	0.489210	0.881578
	C136	C	0.119429	0.876120	0.510646
	C137	C	0.120063	0.120313	0.494795
	C138	C	0.876307	0.119339	0.511196
	C139	C	0.875455	0.875210	0.495069
	C140	C	0.506144	0.118634	0.882458
	C141	C	0.489120	0.119320	0.124974
	C142	C	0.506541	0.877454	0.124025
	C143	C	0.489874	0.876016	0.881106
	C144	C	0.377597	0.883900	0.680202
	C145	C	0.618916	0.112422	0.680886
	C146	C	0.617187	0.884211	0.325204
	C147	C	0.378565	0.112158	0.325959
	C148	C	0.674274	0.378874	0.889932
	C149	C	0.675034	0.617225	0.117709
	C150	C	0.321357	0.615412	0.889422
	C151	C	0.321476	0.379166	0.118218
	C152	C	0.882981	0.673413	0.385239
	C153	C	0.113687	0.673497	0.621933
	C154	C	0.882227	0.321535	0.621524
	C155	C	0.113250	0.322610	0.385637
	C156	C	0.882328	0.378006	0.679908
	C157	C	0.113191	0.616958	0.680384
	C158	C	0.883262	0.616729	0.327148
	C159	C	0.112904	0.379464	0.327676
	C160	C	0.378342	0.674404	0.889706
	C161	C	0.617482	0.675452	0.117363
	C162	C	0.616737	0.320270	0.890239
	C163	C	0.378083	0.320110	0.117656
	C164	C	0.673005	0.883432	0.384602
	C165	C	0.674384	0.113066	0.621274
	C166	C	0.321702	0.882990	0.620656
	C167	C	0.322638	0.112637	0.385123
	C168	C	0.877814	0.383347	0.180776
	C169	C	0.116740	0.612170	0.180233
	C170	C	0.116382	0.383033	0.826695
	C171	C	0.878103	0.611746	0.825802
	C172	C	0.173304	0.879905	0.388053
	C173	C	0.175452	0.116462	0.617162
	C174	C	0.821839	0.115675	0.388605
	C175	C	0.820578	0.879152	0.617174
	C176	C	0.382299	0.172615	0.885324
	C177	C	0.612754	0.174549	0.121905
	C178	C	0.382695	0.821997	0.120744
	C179	C	0.613747	0.821567	0.884309
	C180	C	0.383234	0.878462	0.179251
	C181	C	0.612676	0.117878	0.179892
	C182	C	0.383069	0.116215	0.826711
	C183	C	0.613544	0.878585	0.826101
	C184	C	0.878606	0.174581	0.389182
	C185	C	0.117243	0.174497	0.617431
	C186	C	0.117032	0.820673	0.388878
	C187	C	0.878373	0.820784	0.617200
	C188	C	0.172058	0.382280	0.886355
	C189	C	0.173160	0.612800	0.121118
	C190	C	0.822128	0.382901	0.121150
	C191	C	0.822583	0.612662	0.885691
	C192	C	0.399691	0.091910	0.602452
	C193	C	0.595792	0.904296	0.602731
	C194	C	0.597363	0.092871	0.402329
	C195	C	0.398563	0.903291	0.402040
	C196	C	0.597324	0.398125	0.097068
	C197	C	0.597715	0.597582	0.910539
	C198	C	0.397587	0.598689	0.097298
	C199	C	0.397018	0.396910	0.910276
	C200	C	0.093329	0.596933	0.403372
	C201	C	0.903991	0.596291	0.602394
	C202	C	0.092526	0.398865	0.603863
	C203	C	0.902732	0.398749	0.404007
	C204	C	0.899761	0.592002	0.104582
	C205	C	0.097198	0.402761	0.104800
	C206	C	0.096781	0.591874	0.903273
	C207	C	0.898252	0.403301	0.902790
	C208	C	0.097613	0.897977	0.596277
	C209	C	0.097612	0.098813	0.409717
	C210	C	0.898467	0.097528	0.596252
	C211	C	0.897483	0.896592	0.409631
	C212	C	0.592854	0.096899	0.904445
	C213	C	0.402650	0.096772	0.103203
	C214	C	0.592671	0.899633	0.102476
	C215	C	0.403580	0.898205	0.902974
	Zn216	Zn	0.498574	-0.001522	0.753472
	Zn217	Zn	0.497807	-0.001650	0.252560
	Zn218	Zn	0.748766	0.498230	0.004051
	Zn219	Zn	0.246814	0.497243	0.003899
	Zn220	Zn	-0.001530	0.746797	0.503121
	Zn221	Zn	-0.002244	0.249085	0.503154
	Zn222	Zn	-0.002533	0.497417	0.753098
	Zn223	Zn	-0.002099	0.497275	0.254639
	Zn224	Zn	0.498147	0.748557	0.003249
	Zn225	Zn	0.497240	0.246632	0.003612
	Zn226	Zn	0.746622	-0.001871	0.502699
	Zn227	Zn	0.248682	-0.002315	0.502355
	N228	N	0.411080	0.961552	0.682618
	N229	N	0.585183	0.034837	0.682979
	N230	N	0.584553	0.962036	0.322877
	N231	N	0.411577	0.034478	0.323316
	N232	N	0.676114	0.412742	0.966633
	N233	N	0.676690	0.583371	0.040895
	N234	N	0.319687	0.581989	0.966290
	N235	N	0.319782	0.412678	0.041510
	N236	N	0.960901	0.674894	0.418605
	N237	N	0.036154	0.674663	0.587959
	N238	N	0.960035	0.320590	0.588105
	N239	N	0.035425	0.321211	0.419266
	N240	N	0.960365	0.411725	0.682110
	N241	N	0.035143	0.583521	0.682272
	N242	N	0.961340	0.583972	0.324906
	N243	N	0.034922	0.412453	0.325697
	N244	N	0.411485	0.677208	0.966773
	N245	N	0.583999	0.677266	0.040465
	N246	N	0.583100	0.318626	0.967098
	N247	N	0.411068	0.317750	0.040407
	N248	N	0.674299	0.960659	0.418492
	N249	N	0.674397	0.035972	0.586960
	N250	N	0.321114	0.960075	0.586671
	N251	N	0.321267	0.035252	0.418379
	N252	N	0.911031	0.461054	0.183952
	N253	N	0.083957	0.534309	0.182991
	N254	N	0.083521	0.460674	0.824062
	N255	N	0.910628	0.533950	0.823035
	N256	N	0.174932	0.913735	0.464999
	N257	N	0.177228	0.083426	0.540078
	N258	N	0.820213	0.082150	0.465401
	N259	N	0.818544	0.912058	0.540109
	N260	N	0.459973	0.174050	0.919212
	N261	N	0.535002	0.175170	0.088175
	N262	N	0.460430	0.821189	0.087065
	N263	N	0.535889	0.819789	0.917667
	N264	N	0.461004	0.912300	0.181341
	N265	N	0.534666	0.084327	0.181920
	N266	N	0.461256	0.083503	0.824885
	N267	N	0.535428	0.911758	0.824030
	N268	N	0.912143	0.176821	0.466140
	N269	N	0.083668	0.177197	0.540424
	N270	N	0.084469	0.818250	0.466111
	N271	N	0.912095	0.818485	0.540294
	N272	N	0.173424	0.459746	0.920019
	N273	N	0.174482	0.535285	0.087609
	N274	N	0.821456	0.460428	0.087789
	N275	N	0.821420	0.535530	0.919486
	O276	O	0.548538	0.489027	0.642630
	H277	H	0.550108	0.491882	0.635049
	H278	H	0.554565	0.497606	0.647639
	O279	O	0.503025	0.549075	0.608379
	H280	H	0.508764	0.547163	0.610580
	H281	H	0.507691	0.555027	0.603737
	O282	O	1.271824	0.733851	-0.230223
	H283	H	1.266182	0.734183	-0.232992
	H284	H	1.272679	0.730405	-0.227527
	O285	O	0.513331	0.510380	0.623451
	H286	H	0.517202	0.515135	0.624319
	H287	H	0.506034	0.509863	0.635495
