data_Molecule from HDF5

_cell_length_a		16.481131
_cell_length_b		16.406162
_cell_length_c		16.317260
_cell_angle_alpha	90.266418
_cell_angle_beta	90.296335
_cell_angle_gamma	90.017073
_symmetry_space_group_name_H-M	'P 1'
_symmetry_Int_Tables_number		1

loop_
	_symmetry_equiv_pos_as_xyz
	x,y,z

loop_
	_atom_site_label
	_atom_site_type_symbol
	_atom_site_fract_x
	_atom_site_fract_y
	_atom_site_fract_z
	H0	H	0.390308	0.835873	0.719153
	H1	H	0.603617	0.152364	0.726564
	H2	H	0.596651	0.834859	0.282748
	H3	H	0.388282	0.153227	0.278434
	H4	H	0.716414	0.383253	0.843884
	H5	H	0.715722	0.600393	0.161021
	H6	H	0.270485	0.601576	0.844482
	H7	H	0.274673	0.387880	0.161750
	H8	H	0.836238	0.716271	0.394130
	H9	H	0.152443	0.717840	0.609268
	H10	H	0.838130	0.270976	0.609564
	H11	H	0.151829	0.271360	0.394216
	H12	H	0.836543	0.389378	0.722759
	H13	H	0.152250	0.601667	0.725976
	H14	H	0.837501	0.601637	0.277173
	H15	H	0.152918	0.388254	0.280259
	H16	H	0.385808	0.715422	0.843183
	H17	H	0.599434	0.715291	0.161247
	H18	H	0.600771	0.269552	0.843748
	H19	H	0.389675	0.273677	0.160991
	H20	H	0.716230	0.837084	0.393089
	H21	H	0.719351	0.152594	0.610660
	H22	H	0.270334	0.839667	0.608679
	H23	H	0.269838	0.152693	0.390395
	H24	H	0.891094	0.335566	0.221299
	H25	H	0.100666	0.653073	0.225204
	H26	H	0.099347	0.337076	0.779225
	H27	H	0.888372	0.653761	0.782971
	H28	H	0.215147	0.887505	0.341298
	H29	H	0.219297	0.103288	0.658444
	H30	H	0.771969	0.103710	0.342098
	H31	H	0.772904	0.888948	0.657605
	H32	H	0.337935	0.219658	0.889716
	H33	H	0.650030	0.219969	0.112611
	H34	H	0.337382	0.770736	0.109076
	H35	H	0.650167	0.770514	0.895544
	H36	H	0.336597	0.887871	0.223390
	H37	H	0.650700	0.103378	0.226904
	H38	H	0.337860	0.101702	0.774453
	H39	H	0.651962	0.887163	0.779910
	H40	H	0.888152	0.217400	0.342536
	H41	H	0.103075	0.217447	0.660540
	H42	H	0.099548	0.771945	0.341871
	H43	H	0.887782	0.775077	0.658716
	H44	H	0.217302	0.336591	0.893143
	H45	H	0.220153	0.651325	0.113599
	H46	H	0.770837	0.337121	0.110561
	H47	H	0.769355	0.650733	0.894859
	H48	H	0.404409	0.107447	0.584929
	H49	H	0.587018	0.879180	0.595824
	H50	H	0.581487	0.109100	0.411044
	H51	H	0.398302	0.880423	0.414134
	H52	H	0.575444	0.409028	0.112151
	H53	H	0.582683	0.581385	0.887783
	H54	H	0.410597	0.582102	0.114941
	H55	H	0.404528	0.406273	0.887967
	H56	H	0.105577	0.583991	0.416405
	H57	H	0.882433	0.580577	0.593006
	H58	H	0.105250	0.405401	0.584933
	H59	H	0.883647	0.409440	0.413762
	H60	H	0.105738	0.413456	0.592167
	H61	H	0.879492	0.589795	0.594495
	H62	H	0.107014	0.582327	0.413184
	H63	H	0.882495	0.407669	0.411396
	H64	H	0.407126	0.587025	0.117055
	H65	H	0.582221	0.579218	0.888396
	H66	H	0.584198	0.399952	0.118121
	H67	H	0.405646	0.408716	0.889464
	H68	H	0.580924	0.106154	0.417242
	H69	H	0.577297	0.885699	0.586400
	H70	H	0.409767	0.109291	0.590033
	H71	H	0.406929	0.880534	0.405766
	H72	H	0.908997	0.606750	0.091133
	H73	H	0.088220	0.380213	0.088994
	H74	H	0.080833	0.605658	0.918170
	H75	H	0.901523	0.380708	0.916841
	H76	H	0.084307	0.910394	0.613875
	H77	H	0.089599	0.078425	0.386389
	H78	H	0.914612	0.085376	0.612618
	H79	H	0.904291	0.911155	0.386298
	H80	H	0.602585	0.082155	0.922688
	H81	H	0.381089	0.081636	0.092444
	H82	H	0.608790	0.903868	0.092316
	H83	H	0.380481	0.904890	0.909952
	H84	H	0.606761	0.903983	0.088152
	H85	H	0.380757	0.086569	0.087501
	H86	H	0.604141	0.074413	0.912534
	H87	H	0.381717	0.904065	0.911888
	H88	H	0.902822	0.087985	0.617782
	H89	H	0.073786	0.079461	0.391901
	H90	H	0.081570	0.909269	0.613016
	H91	H	0.910051	0.905011	0.386743
	H92	H	0.086338	0.607565	0.918716
	H93	H	0.082244	0.380974	0.093776
	H94	H	0.905482	0.606475	0.084709
	H95	H	0.904772	0.379271	0.908704
	H96	H	0.411318	0.105448	0.584267
	H97	H	0.591541	0.881789	0.581512
	H98	H	0.586610	0.109382	0.415148
	H99	H	0.409009	0.884586	0.416595
	H100	H	0.587998	0.413036	0.114818
	H101	H	0.580477	0.581211	0.887676
	H102	H	0.403968	0.581040	0.116509
	H103	H	0.407214	0.406030	0.888974
	H104	H	0.107898	0.586053	0.413931
	H105	H	0.882609	0.586905	0.585536
	H106	H	0.109920	0.403983	0.594714
	H107	H	0.883305	0.406230	0.414280
	H108	H	0.901535	0.608718	0.090234
	H109	H	0.081874	0.383674	0.087102
	H110	H	0.083227	0.608384	0.913797
	H111	H	0.909576	0.383224	0.914485
	H112	H	0.083752	0.907761	0.613699
	H113	H	0.081058	0.092619	0.384167
	H114	H	0.905176	0.076120	0.611874
	H115	H	0.902264	0.903317	0.383446
	H116	H	0.608605	0.086105	0.911908
	H117	H	0.384163	0.080130	0.086142
	H118	H	0.606530	0.907292	0.091296
	H119	H	0.382363	0.905869	0.911608
	C120	C	0.375168	0.003246	0.620031
	C121	C	0.618278	0.986288	0.622533
	C122	C	0.615145	0.003485	0.380905
	C123	C	0.371821	0.986339	0.378397
	C124	C	0.615521	0.372551	0.010692
	C125	C	0.614652	0.614380	0.993233
	C126	C	0.372817	0.615967	0.011405
	C127	C	0.373642	0.373748	0.993711
	C128	C	0.002700	0.616547	0.380662
	C129	C	0.985913	0.618253	0.624319
	C130	C	0.003115	0.374331	0.623233
	C131	C	0.986620	0.373682	0.380095
	C132	C	0.873359	0.503037	0.122215
	C133	C	0.117471	0.485566	0.124537
	C134	C	0.115726	0.503127	0.882305
	C135	C	0.871778	0.485146	0.880237
	C136	C	0.115651	0.874836	0.508910
	C137	C	0.115980	0.116845	0.492155
	C138	C	0.873711	0.116812	0.509385
	C139	C	0.873228	0.874158	0.490746
	C140	C	0.502174	0.115230	0.879937
	C141	C	0.485314	0.116791	0.123318
	C142	C	0.502815	0.872563	0.122953
	C143	C	0.485201	0.871837	0.878931
	C144	C	0.372143	0.884170	0.679973
	C145	C	0.621213	0.104920	0.685326
	C146	C	0.616224	0.883204	0.321256
	C147	C	0.369547	0.105428	0.317906
	C148	C	0.676379	0.367119	0.891510
	C149	C	0.675605	0.618106	0.113062
	C150	C	0.311136	0.618995	0.891947
	C151	C	0.313641	0.370142	0.113433
	C152	C	0.884025	0.676601	0.376534
	C153	C	0.104660	0.678423	0.627483
	C154	C	0.885010	0.312299	0.626532
	C155	C	0.104765	0.312325	0.376911
	C156	C	0.884227	0.371352	0.683172
	C157	C	0.104742	0.620464	0.685668
	C158	C	0.884564	0.619147	0.318121
	C159	C	0.105232	0.370561	0.319828
	C160	C	0.368466	0.675989	0.891390
	C161	C	0.617715	0.675335	0.113102
	C162	C	0.618985	0.309763	0.891700
	C163	C	0.371160	0.313066	0.113198
	C164	C	0.675944	0.884461	0.376368
	C165	C	0.679040	0.105108	0.627501
	C166	C	0.312355	0.885814	0.624851
	C167	C	0.310443	0.105080	0.373882
	C168	C	0.871879	0.383520	0.182162
	C169	C	0.119920	0.604873	0.185968
	C170	C	0.117925	0.384419	0.819703
	C171	C	0.869718	0.605226	0.821415
	C172	C	0.175521	0.870122	0.389239
	C173	C	0.178428	0.120829	0.611076
	C174	C	0.812191	0.120887	0.390017
	C175	C	0.812918	0.871249	0.610087
	C176	C	0.384716	0.178069	0.873728
	C177	C	0.603025	0.178958	0.128657
	C178	C	0.384217	0.812019	0.125945
	C179	C	0.603420	0.810740	0.876982
	C180	C	0.383962	0.870473	0.182988
	C181	C	0.603443	0.120883	0.185930
	C182	C	0.384949	0.119622	0.815797
	C183	C	0.604200	0.869013	0.819647
	C184	C	0.869991	0.177881	0.390312
	C185	C	0.120344	0.177680	0.612211
	C186	C	0.118008	0.812304	0.389617
	C187	C	0.870554	0.814574	0.610860
	C188	C	0.176418	0.384144	0.876917
	C189	C	0.179248	0.604130	0.130070
	C190	C	0.812063	0.384142	0.126720
	C191	C	0.810333	0.603894	0.877021
	C192	C	0.401041	0.085860	0.593875
	C193	C	0.592670	0.903721	0.595714
	C194	C	0.590124	0.086584	0.406902
	C195	C	0.397178	0.903558	0.404524
	C196	C	0.589900	0.399554	0.093531
	C197	C	0.589072	0.588328	0.909698
	C198	C	0.399483	0.590726	0.094640
	C199	C	0.398585	0.399534	0.910465
	C200	C	0.085226	0.591370	0.407087
	C201	C	0.903098	0.593102	0.598588
	C202	C	0.085501	0.400418	0.597900
	C203	C	0.904426	0.399978	0.405921
	C204	C	0.898218	0.585762	0.096243
	C205	C	0.091724	0.403124	0.097715
	C206	C	0.090549	0.585691	0.909155
	C207	C	0.897634	0.402548	0.905994
	C208	C	0.090560	0.901455	0.591742
	C209	C	0.089039	0.090840	0.409106
	C210	C	0.899867	0.090667	0.592404
	C211	C	0.898354	0.899150	0.407199
	C212	C	0.583778	0.088286	0.907749
	C213	C	0.403166	0.090329	0.096190
	C214	C	0.585608	0.897765	0.097741
	C215	C	0.402925	0.897494	0.903872
	Zn216	Zn	0.494969	-0.006373	0.749846
	Zn217	Zn	0.494927	-0.005557	0.251334
	Zn218	Zn	0.744096	0.493961	0.001991
	Zn219	Zn	0.245373	0.494457	0.002710
	Zn220	Zn	-0.006121	0.746578	0.501250
	Zn221	Zn	-0.005141	0.245153	0.501855
	Zn222	Zn	-0.006069	0.495734	0.753242
	Zn223	Zn	-0.005398	0.494580	0.251160
	Zn224	Zn	0.493870	0.743236	0.001639
	Zn225	Zn	0.493912	0.245188	0.001641
	Zn226	Zn	0.745636	-0.004316	0.499781
	Zn227	Zn	0.244652	-0.004198	0.500190
	N228	N	0.410711	0.958185	0.676840
	N229	N	0.584159	0.029942	0.682434
	N230	N	0.579124	0.958263	0.323876
	N231	N	0.406630	0.030483	0.320160
	N232	N	0.674535	0.405501	0.966584
	N233	N	0.673742	0.580737	0.037520
	N234	N	0.313685	0.582502	0.967593
	N235	N	0.314835	0.406979	0.037958
	N236	N	0.958483	0.675116	0.414539
	N237	N	0.029607	0.677428	0.590355
	N238	N	0.959920	0.313915	0.590176
	N239	N	0.029972	0.314108	0.413697
	N240	N	0.958564	0.409454	0.681255
	N241	N	0.029723	0.583956	0.684055
	N242	N	0.959644	0.582553	0.320354
	N243	N	0.030783	0.408304	0.321740
	N244	N	0.405897	0.674505	0.966964
	N245	N	0.580532	0.673117	0.037496
	N246	N	0.581918	0.313010	0.966858
	N247	N	0.407432	0.314894	0.037610
	N248	N	0.675514	0.960293	0.412496
	N249	N	0.677423	0.030259	0.589326
	N250	N	0.314041	0.961100	0.588071
	N251	N	0.311595	0.029710	0.410551
	N252	N	0.909330	0.458348	0.179395
	N253	N	0.082127	0.530318	0.182600
	N254	N	0.080688	0.459314	0.823029
	N255	N	0.907099	0.530353	0.823271
	N256	N	0.174362	0.908272	0.464316
	N257	N	0.176023	0.083896	0.535285
	N258	N	0.814369	0.083544	0.465342
	N259	N	0.814524	0.907703	0.534512
	N260	N	0.458704	0.175270	0.913070
	N261	N	0.528530	0.176411	0.090317
	N262	N	0.459040	0.813235	0.089244
	N263	N	0.528447	0.812244	0.913099
	N264	N	0.458758	0.907635	0.181105
	N265	N	0.529321	0.082689	0.182772
	N266	N	0.459022	0.081307	0.819571
	N267	N	0.529673	0.906307	0.820574
	N268	N	0.907373	0.175509	0.465613
	N269	N	0.082226	0.175310	0.537189
	N270	N	0.081673	0.814765	0.465175
	N271	N	0.907434	0.816264	0.535570
	N272	N	0.175197	0.458928	0.915147
	N273	N	0.178141	0.528827	0.092827
	N274	N	0.812802	0.459392	0.090079
	N275	N	0.811236	0.528106	0.912576
	O276	O	0.337927	0.506992	0.652474
	H277	H	0.329522	0.518088	0.654386
	H278	H	0.338456	0.522601	0.650720
	O279	O	0.482221	0.525301	0.353056
	H280	H	0.476413	0.527683	0.355827
	H281	H	0.470721	0.520437	0.357848
	O282	O	0.361026	0.533697	0.486662
	H283	H	0.358322	0.518073	0.499090
	H284	H	0.372056	0.541996	0.491891
	O285	O	0.898202	0.912063	-0.176616
	H286	H	0.890112	0.915040	-0.166921
	H287	H	0.905517	0.889816	-0.162906
	O288	O	0.441334	0.613287	0.486810
	H289	H	0.436412	0.619040	0.484622
	H290	H	0.441879	0.618103	0.485019
	O291	O	0.691393	0.284662	0.485353
	H292	H	0.686000	0.302820	0.465227
	H293	H	0.719059	0.257188	0.481063
	O294	O	0.791317	1.118124	0.978283
	H295	H	0.774833	1.120744	0.989484
	H296	H	0.779209	1.113588	0.978835
	O297	O	0.287622	0.523554	0.299854
	H298	H	0.268454	0.524385	0.277196
	H299	H	0.283464	0.507366	0.313760
	O300	O	0.637304	0.419218	0.317926
	H301	H	0.612215	0.426927	0.304875
	H302	H	0.634645	0.434666	0.317814
	O303	O	0.674584	0.614370	0.442998
	H304	H	0.662620	0.603664	0.457734
	H305	H	0.676503	0.611587	0.439119
	O306	O	-0.153779	-0.047688	0.999321
	H307	H	-0.149778	-0.043149	0.982925
	H308	H	-0.140804	-0.062091	1.001179
	O309	O	0.820499	-0.174417	0.162701
	H310	H	0.825390	-0.157241	0.154898
	H311	H	0.855842	-0.184481	0.157965
	O312	O	0.444301	0.374482	0.691145
	H313	H	0.456606	0.361019	0.668496
	H314	H	0.456498	0.362124	0.692592
	O315	O	0.613656	0.409144	0.567007
	H316	H	0.615378	0.402593	0.581247
	H317	H	0.614425	0.377567	0.556832
	O318	O	0.075158	0.146486	-0.109285
	H319	H	0.047171	0.138944	-0.119123
	H320	H	0.070792	0.164997	-0.100150
	O321	O	0.636471	0.405596	0.633801
	H322	H	0.627697	0.407614	0.623138
	H323	H	0.660380	0.410045	0.640908
	O324	O	1.186631	-0.082004	1.079593
	H325	H	1.152961	-0.092194	1.068684
	H326	H	1.200261	-0.055359	1.045975
	O327	O	0.291599	0.287168	0.512360
	H328	H	0.300546	0.300703	0.557132
	H329	H	0.262921	0.259850	0.516586
	O330	O	0.013450	1.157095	0.917679
	H331	H	0.015919	1.165108	0.924407
	H332	H	0.018154	1.146060	0.913554
	O333	O	-0.061982	1.065832	-0.123593
	H334	H	-0.066863	1.048653	-0.124794
	H335	H	-0.073539	1.061696	-0.126126
	O336	O	1.103416	1.022125	0.210008
	H337	H	1.112870	1.007533	0.196332
	H338	H	1.118028	1.011578	0.213284
	O339	O	0.223366	1.039225	0.958530
	H340	H	0.224698	1.059554	0.947866
	H341	H	0.216540	1.065924	0.958969
	O342	O	0.484901	0.419825	0.366674
	H343	H	0.489946	0.408227	0.362240
	H344	H	0.484141	0.411894	0.362526
	O345	O	0.145664	0.179701	1.180989
	H346	H	0.159589	0.140441	1.188132
	H347	H	0.118664	0.179918	1.179100
	O348	O	0.309349	0.551705	0.484789
	H349	H	0.300783	0.563561	0.472999
	H350	H	0.317427	0.546544	0.485242
	O351	O	1.205445	0.783607	-0.020430
	H352	H	1.236477	0.766283	-0.022433
	H353	H	1.199907	0.799140	-0.003262
	O354	O	0.813362	1.175683	0.821959
	H355	H	0.802392	1.175326	0.857961
	H356	H	0.844521	1.168130	0.815095
	O357	O	-0.013975	-0.160241	0.054456
	H358	H	-0.035454	-0.159513	0.050868
	H359	H	-0.007210	-0.157754	0.024053
	O360	O	0.626577	0.675492	0.579032
	H361	H	0.642782	0.681557	0.566116
	H362	H	0.629658	0.672555	0.562012
	O363	O	0.992820	0.186606	0.172466
	H364	H	0.986726	0.184926	0.173339
	H365	H	1.001355	0.176527	0.184633
	O366	O	0.035488	-0.127444	1.058812
	H367	H	0.044923	-0.113550	1.050175
	H368	H	0.006283	-0.126618	1.035870
	O369	O	0.497452	-0.303790	0.606975
	H370	H	0.501008	-0.300886	0.602986
	H371	H	0.489864	-0.291497	0.615580
	O372	O	0.313745	0.325695	0.682964
	H373	H	0.342580	0.328515	0.690461
	H374	H	0.320944	0.360747	0.693834
	O375	O	0.010484	0.063068	0.922950
	H376	H	0.009913	0.074487	0.908542
	H377	H	0.010192	0.070051	0.934368
	O378	O	0.649691	0.605862	0.601903
	H379	H	0.653260	0.600921	0.585419
	H380	H	0.657058	0.610286	0.595039
	O381	O	-0.186420	0.808062	0.002676
	H382	H	-0.191345	0.809795	0.015139
	H383	H	-0.197522	0.812902	0.003667
	O384	O	0.654050	0.427736	0.307875
	H385	H	0.640874	0.439092	0.305783
	H386	H	0.664661	0.434887	0.312593
	O387	O	1.112850	-0.013623	1.211124
	H388	H	1.143630	-0.023464	1.226962
	H389	H	1.122348	-0.036843	1.192213
	O390	O	0.995520	0.887360	-0.082820
	H391	H	0.993213	0.876697	-0.088050
	H392	H	0.994089	0.887693	-0.083294
	O393	O	0.965186	-0.214774	1.180608
	H394	H	0.974849	-0.239183	1.197650
	H395	H	0.982285	-0.211190	1.161062
	O396	O	0.794498	1.095426	0.057436
	H397	H	0.800716	1.094114	0.071445
	H398	H	0.795443	1.094378	0.036488
	O399	O	0.210546	1.205304	1.026942
	H400	H	0.213783	1.227013	1.021941
	H401	H	0.212381	1.216820	1.058987
	O402	O	1.018013	0.779044	-0.214334
	H403	H	1.037536	0.761211	-0.237102
	H404	H	1.044686	0.780245	-0.216537
	O405	O	0.590303	0.522940	0.534767
	H406	H	0.605932	0.525509	0.553574
	H407	H	0.579614	0.506604	0.545496
	O408	O	0.327861	0.679035	0.373762
	H409	H	0.347237	0.670917	0.363516
	H410	H	0.317537	0.670706	0.370791
	O411	O	1.174288	0.818051	0.811491
	H412	H	1.178702	0.854013	0.816943
	H413	H	1.182858	0.824740	0.846430
	O414	O	0.537536	0.624991	0.697259
	H415	H	0.550599	0.626095	0.692775
	H416	H	0.520612	0.643571	0.709526
	O417	O	-0.078192	1.179744	1.007703
	H418	H	-0.097782	1.179269	1.016168
	H419	H	-0.077644	1.179634	1.017004
	O420	O	0.503868	1.370370	0.575477
	H421	H	0.496770	1.363921	0.582969
	H422	H	0.490808	1.371553	0.569680
	O423	O	-0.218367	0.974833	0.205400
	H424	H	-0.236006	0.962569	0.226608
	H425	H	-0.206777	0.973291	0.208564
	O426	O	0.538844	0.470524	0.556033
	H427	H	0.557035	0.468901	0.559258
	H428	H	0.532676	0.468568	0.569330
	O429	O	0.524025	0.340651	0.403589
	H430	H	0.521707	0.334645	0.395475
	H431	H	0.504955	0.345731	0.420556
	O432	O	0.587483	0.439995	0.463547
	H433	H	0.575979	0.437960	0.473510
	H434	H	0.580721	0.438517	0.455056
	O435	O	0.150532	-0.012127	-0.163886
	H436	H	0.151828	-0.000017	-0.182799
	H437	H	0.138775	0.003808	-0.146438
	O438	O	-0.219975	1.016833	0.785019
	H439	H	-0.233394	1.010275	0.765370
	H440	H	-0.220717	1.036574	0.779227
	O441	O	0.359183	0.621180	0.579297
	H442	H	0.372387	0.631385	0.568361
	H443	H	0.352530	0.634280	0.577636
