data_Molecule from HDF5

_cell_length_a		16.556265
_cell_length_b		16.597499
_cell_length_c		16.640995
_cell_angle_alpha	90.085848
_cell_angle_beta	90.059129
_cell_angle_gamma	90.056644
_symmetry_space_group_name_H-M	'P 1'
_symmetry_Int_Tables_number		1

loop_
	_symmetry_equiv_pos_as_xyz
	x,y,z

loop_
	_atom_site_label
	_atom_site_type_symbol
	_atom_site_fract_x
	_atom_site_fract_y
	_atom_site_fract_z
	H0	H	0.378917	0.827724	0.711426
	H1	H	0.586122	0.142348	0.714814
	H2	H	0.586722	0.830310	0.271307
	H3	H	0.375458	0.141845	0.273029
	H4	H	0.702738	0.380481	0.838719
	H5	H	0.699134	0.589448	0.151549
	H6	H	0.259045	0.590729	0.838250
	H7	H	0.262092	0.385977	0.151052
	H8	H	0.821363	0.702779	0.392560
	H9	H	0.139692	0.702048	0.593480
	H10	H	0.825805	0.263042	0.600804
	H11	H	0.134414	0.263888	0.387548
	H12	H	0.825980	0.378818	0.717178
	H13	H	0.139125	0.587482	0.710982
	H14	H	0.823339	0.589762	0.273819
	H15	H	0.135257	0.381450	0.272636
	H16	H	0.375741	0.706731	0.837676
	H17	H	0.582053	0.705260	0.151647
	H18	H	0.584774	0.265337	0.838104
	H19	H	0.376558	0.266532	0.149608
	H20	H	0.699435	0.828654	0.390182
	H21	H	0.701478	0.142714	0.597199
	H22	H	0.263042	0.827674	0.594896
	H23	H	0.259090	0.141068	0.389725
	H24	H	0.870810	0.332227	0.218152
	H25	H	0.084799	0.641804	0.215449
	H26	H	0.088322	0.333346	0.769412
	H27	H	0.875267	0.642765	0.773139
	H28	H	0.198801	0.883803	0.337110
	H29	H	0.203579	0.092911	0.647678
	H30	H	0.757229	0.092342	0.338367
	H31	H	0.758636	0.880681	0.649126
	H32	H	0.324069	0.207117	0.888814
	H33	H	0.633774	0.212593	0.104027
	H34	H	0.322840	0.768272	0.095629
	H35	H	0.636790	0.764064	0.887439
	H36	H	0.324160	0.882610	0.213243
	H37	H	0.634779	0.095422	0.217955
	H38	H	0.324625	0.090585	0.772393
	H39	H	0.636874	0.878378	0.771055
	H40	H	0.872074	0.210401	0.339483
	H41	H	0.090924	0.212425	0.645525
	H42	H	0.081334	0.767923	0.336092
	H43	H	0.874913	0.765059	0.650118
	H44	H	0.202705	0.331667	0.888423
	H45	H	0.199915	0.642764	0.096891
	H46	H	0.756665	0.331684	0.101008
	H47	H	0.759018	0.642747	0.888754
	H48	H	0.395774	0.095326	0.579793
	H49	H	0.573674	0.872124	0.585097
	H50	H	0.573162	0.098919	0.404477
	H51	H	0.392564	0.874270	0.403470
	H52	H	0.571582	0.395483	0.107091
	H53	H	0.570933	0.572418	0.882781
	H54	H	0.389836	0.578813	0.106578
	H55	H	0.386277	0.393861	0.879514
	H56	H	0.091873	0.572959	0.404449
	H57	H	0.865034	0.578589	0.589844
	H58	H	0.087950	0.402599	0.573974
	H59	H	0.869147	0.401824	0.405567
	H60	H	0.091096	0.404862	0.586322
	H61	H	0.866521	0.580136	0.581772
	H62	H	0.094634	0.577060	0.399132
	H63	H	0.867298	0.397898	0.405014
	H64	H	0.389101	0.577523	0.106774
	H65	H	0.566194	0.577539	0.883608
	H66	H	0.568960	0.405325	0.102665
	H67	H	0.390642	0.403641	0.884289
	H68	H	0.565867	0.097838	0.401849
	H69	H	0.565773	0.874619	0.585218
	H70	H	0.385810	0.098921	0.581472
	H71	H	0.391021	0.874473	0.404255
	H72	H	0.896477	0.596269	0.082392
	H73	H	0.065318	0.375171	0.083393
	H74	H	0.071944	0.601181	0.898981
	H75	H	0.889031	0.374769	0.905953
	H76	H	0.067418	0.895202	0.603982
	H77	H	0.066050	0.075423	0.383225
	H78	H	0.891965	0.066541	0.601111
	H79	H	0.892359	0.894644	0.382429
	H80	H	0.590903	0.070459	0.905332
	H81	H	0.367369	0.073609	0.086022
	H82	H	0.593912	0.893136	0.079566
	H83	H	0.368955	0.900011	0.899637
	H84	H	0.590939	0.901160	0.080547
	H85	H	0.367783	0.079767	0.081820
	H86	H	0.593919	0.076464	0.902009
	H87	H	0.366895	0.892685	0.901470
	H88	H	0.900597	0.075562	0.601615
	H89	H	0.070432	0.075159	0.380589
	H90	H	0.071809	0.889311	0.607757
	H91	H	0.889684	0.892436	0.381337
	H92	H	0.062787	0.596230	0.904493
	H93	H	0.072879	0.373843	0.081097
	H94	H	0.889534	0.597270	0.080329
	H95	H	0.895195	0.375255	0.902462
	H96	H	0.393321	0.099040	0.590141
	H97	H	0.570299	0.876097	0.578323
	H98	H	0.567917	0.095684	0.408750
	H99	H	0.391456	0.872768	0.402766
	H100	H	0.561061	0.397799	0.102510
	H101	H	0.572277	0.578984	0.880459
	H102	H	0.390387	0.577603	0.105822
	H103	H	0.397578	0.394200	0.883243
	H104	H	0.093270	0.579873	0.405996
	H105	H	0.868300	0.572810	0.584616
	H106	H	0.094140	0.393125	0.580620
	H107	H	0.869166	0.398649	0.408942
	H108	H	0.891690	0.599413	0.087168
	H109	H	0.070606	0.371839	0.088218
	H110	H	0.072789	0.598128	0.910187
	H111	H	0.894696	0.377827	0.908777
	H112	H	0.074854	0.896872	0.607279
	H113	H	0.068821	0.071336	0.383389
	H114	H	0.889537	0.077106	0.605890
	H115	H	0.889029	0.895491	0.381907
	H116	H	0.591819	0.076573	0.909066
	H117	H	0.370407	0.072582	0.079729
	H118	H	0.593987	0.897166	0.087581
	H119	H	0.370194	0.897224	0.907106
	C120	C	0.360269	-0.006289	0.614530
	C121	C	0.602261	0.977409	0.614915
	C122	C	0.601576	-0.005501	0.372053
	C123	C	0.359521	0.977135	0.372280
	C124	C	0.601186	0.365816	0.002058
	C125	C	0.601061	0.607878	0.985992
	C126	C	0.358326	0.608852	0.002975
	C127	C	0.359410	0.366078	0.985487
	C128	C	-0.011315	0.607359	0.372487
	C129	C	0.971720	0.607253	0.614928
	C130	C	-0.010785	0.365840	0.614362
	C131	C	0.970922	0.365824	0.372885
	C132	C	0.859068	0.495093	0.115909
	C133	C	0.101695	0.477166	0.115840
	C134	C	0.102027	0.495730	0.872229
	C135	C	0.859589	0.478571	0.872819
	C136	C	0.101184	0.864110	0.502128
	C137	C	0.101700	0.107207	0.484681
	C138	C	0.859937	0.106419	0.500917
	C139	C	0.858305	0.863000	0.484964
	C140	C	0.488940	0.106748	0.873083
	C141	C	0.471167	0.108855	0.115925
	C142	C	0.489208	0.865744	0.114090
	C143	C	0.472099	0.864012	0.871041
	C144	C	0.360000	0.875208	0.672011
	C145	C	0.604384	0.095317	0.674704
	C146	C	0.604284	0.877106	0.311676
	C147	C	0.357402	0.094930	0.313235
	C148	C	0.662116	0.362587	0.885399
	C149	C	0.659798	0.608806	0.104244
	C150	C	0.299257	0.609389	0.884994
	C151	C	0.301309	0.366175	0.103864
	C152	C	0.869552	0.664650	0.372657
	C153	C	0.091639	0.664036	0.613643
	C154	C	0.872544	0.303489	0.618674
	C155	C	0.088009	0.304725	0.369710
	C156	C	0.872717	0.361192	0.676460
	C157	C	0.091514	0.606863	0.671831
	C158	C	0.870185	0.608160	0.313886
	C159	C	0.088392	0.362846	0.312645
	C160	C	0.357200	0.667186	0.884918
	C161	C	0.601423	0.666186	0.104352
	C162	C	0.603629	0.305013	0.885044
	C163	C	0.357991	0.306952	0.103191
	C164	C	0.660522	0.876339	0.370885
	C165	C	0.661950	0.095457	0.616578
	C166	C	0.302335	0.874940	0.613988
	C167	C	0.299510	0.094581	0.370872
	C168	C	0.853809	0.378625	0.177337
	C169	C	0.103588	0.595080	0.175307
	C170	C	0.106058	0.379261	0.810635
	C171	C	0.856609	0.595692	0.812661
	C172	C	0.159190	0.864220	0.383937
	C173	C	0.163664	0.111121	0.600881
	C174	C	0.797947	0.109932	0.384867
	C175	C	0.798545	0.861908	0.602293
	C176	C	0.371079	0.166694	0.870535
	C177	C	0.587323	0.171313	0.120727
	C178	C	0.370420	0.807192	0.114893
	C179	C	0.589509	0.803709	0.869034
	C180	C	0.370957	0.864188	0.173201
	C181	C	0.587781	0.112958	0.177662
	C182	C	0.371270	0.108929	0.812663
	C183	C	0.589633	0.860854	0.811057
	C184	C	0.854902	0.168750	0.385452
	C185	C	0.107133	0.170299	0.599832
	C186	C	0.100804	0.806795	0.383480
	C187	C	0.856650	0.804468	0.602810
	C188	C	0.162906	0.378378	0.869351
	C189	C	0.160668	0.595545	0.116790
	C190	C	0.796902	0.378498	0.119014
	C191	C	0.798996	0.595687	0.870479
	C192	C	0.384447	0.076194	0.590588
	C193	C	0.577089	0.895543	0.590014
	C194	C	0.576126	0.076281	0.397615
	C195	C	0.384654	0.895205	0.396691
	C196	C	0.574881	0.392082	0.083133
	C197	C	0.577034	0.583260	0.903819
	C198	C	0.382596	0.584667	0.085067
	C199	C	0.384292	0.390265	0.903393
	C200	C	0.071737	0.583475	0.396242
	C201	C	0.888390	0.584006	0.592099
	C202	C	0.070034	0.392474	0.587806
	C203	C	0.889579	0.391940	0.399184
	C204	C	0.885121	0.576533	0.090479
	C205	C	0.076948	0.395065	0.091284
	C206	C	0.076515	0.577265	0.897504
	C207	C	0.885569	0.397145	0.898333
	C208	C	0.078050	0.887251	0.584828
	C209	C	0.075817	0.081323	0.403612
	C210	C	0.886528	0.080467	0.581809
	C211	C	0.883096	0.887324	0.403048
	C212	C	0.570762	0.081853	0.898484
	C213	C	0.389639	0.082702	0.089920
	C214	C	0.571563	0.890162	0.089582
	C215	C	0.389950	0.889575	0.895782
	Zn216	Zn	0.481257	-0.014286	0.743820
	Zn217	Zn	0.480409	-0.013834	0.243475
	Zn218	Zn	0.730593	0.487075	-0.005860
	Zn219	Zn	0.229776	0.486674	-0.005889
	Zn220	Zn	-0.019997	0.735163	0.493883
	Zn221	Zn	-0.019884	0.236681	0.493448
	Zn222	Zn	-0.019483	0.486896	0.743770
	Zn223	Zn	-0.020153	0.485989	0.244096
	Zn224	Zn	0.480765	0.737134	-0.006218
	Zn225	Zn	0.480040	0.236363	-0.006163
	Zn226	Zn	0.730465	-0.014109	0.493632
	Zn227	Zn	0.230578	-0.014792	0.493901
	N228	N	0.394883	0.950287	0.672838
	N229	N	0.568380	0.020785	0.674132
	N230	N	0.568809	0.951842	0.311903
	N231	N	0.393893	0.020771	0.313814
	N232	N	0.661016	0.399308	0.959331
	N233	N	0.659866	0.573277	0.029544
	N234	N	0.299542	0.574015	0.959486
	N235	N	0.301888	0.401923	0.029580
	N236	N	0.944389	0.664402	0.408251
	N237	N	0.015952	0.664758	0.579274
	N238	N	0.946055	0.305998	0.580914
	N239	N	0.013876	0.306369	0.406296
	N240	N	0.946209	0.399319	0.674053
	N241	N	0.015805	0.572973	0.673286
	N242	N	0.945657	0.573612	0.313372
	N243	N	0.014429	0.400040	0.314283
	N244	N	0.393194	0.667163	0.959209
	N245	N	0.565908	0.665905	0.029771
	N246	N	0.566521	0.306825	0.958833
	N247	N	0.393213	0.306651	0.028437
	N248	N	0.659344	0.950604	0.407498
	N249	N	0.660898	0.021161	0.580196
	N250	N	0.302011	0.949895	0.579147
	N251	N	0.300498	0.020264	0.406862
	N252	N	0.891960	0.452128	0.175320
	N253	N	0.067838	0.520451	0.175019
	N254	N	0.069079	0.453108	0.812309
	N255	N	0.893566	0.521702	0.813759
	N256	N	0.159750	0.899018	0.458882
	N257	N	0.160577	0.072538	0.528170
	N258	N	0.801172	0.071670	0.457709
	N259	N	0.799339	0.897631	0.527889
	N260	N	0.445260	0.165530	0.907512
	N261	N	0.513616	0.168884	0.082958
	N262	N	0.444879	0.808177	0.078792
	N263	N	0.515208	0.805190	0.905392
	N264	N	0.445894	0.899731	0.173094
	N265	N	0.514404	0.074590	0.174774
	N266	N	0.445663	0.072446	0.813859
	N267	N	0.515390	0.897705	0.812123
	N268	N	0.892951	0.166665	0.458691
	N269	N	0.069166	0.167995	0.526671
	N270	N	0.065725	0.806273	0.458147
	N271	N	0.893150	0.804930	0.528777
	N272	N	0.160612	0.451907	0.906991
	N273	N	0.159762	0.521177	0.080621
	N274	N	0.799972	0.451854	0.081202
	N275	N	0.800469	0.521632	0.907038
	O276	O	0.176734	0.973138	0.006810
	H277	H	0.171647	0.977083	0.008371
	H278	H	0.181637	0.972047	0.017631
	O279	O	0.695038	0.425201	0.511359
	H280	H	0.701569	0.416997	0.525173
	H281	H	0.680085	0.408030	0.521337
	O282	O	0.755350	0.205779	0.970901
	H283	H	0.760884	0.221473	0.962383
	H284	H	0.755953	0.222124	0.972221
	O285	O	0.505264	0.425056	0.497391
	H286	H	0.487321	0.418168	0.493566
	H287	H	0.520141	0.416455	0.496457
	O288	O	0.692975	0.591476	0.473072
	H289	H	0.700835	0.593298	0.481113
	H290	H	0.700003	0.582516	0.479779
	O291	O	0.630651	0.628872	0.541807
	H292	H	0.619147	0.629982	0.537244
	H293	H	0.635515	0.633060	0.543514
	O294	O	0.950254	0.183393	0.943643
	H295	H	0.966813	0.178382	0.950839
	H296	H	0.958483	0.171707	0.937788
	O297	O	0.318601	0.479423	0.451565
	H298	H	0.311284	0.489252	0.456198
	H299	H	0.322914	0.486267	0.458436
	O300	O	-0.044596	0.139625	0.870314
	H301	H	-0.048903	0.153248	0.845855
	H302	H	-0.060577	0.122752	0.882268
	O303	O	0.678245	0.394730	0.300012
	H304	H	0.678331	0.422034	0.299102
	H305	H	0.668842	0.398582	0.320750
	O306	O	0.771964	0.797390	0.816012
	H307	H	0.759550	0.788895	0.805866
	H308	H	0.772004	0.804419	0.812639
	O309	O	0.338955	0.666120	0.633448
	H310	H	0.351812	0.659730	0.618863
	H311	H	0.346397	0.659490	0.616730
	O312	O	0.448903	0.449994	0.270756
	H313	H	0.451937	0.444949	0.268692
	H314	H	0.456950	0.450684	0.279888
	O315	O	0.757272	0.765408	1.029627
	H316	H	0.752160	0.761612	1.045604
	H317	H	0.738860	0.748200	1.043494
	O318	O	0.693820	0.515848	0.706765
	H319	H	0.700765	0.511218	0.722309
	H320	H	0.689629	0.499109	0.716053
	O321	O	0.186149	0.782900	0.782062
	H322	H	0.199082	0.759145	0.786379
	H323	H	0.184468	0.786203	0.815183
	O324	O	0.798644	1.007814	0.072508
	H325	H	0.798409	1.019232	0.066347
	H326	H	0.796766	1.003492	0.059865
	O327	O	-0.038369	0.067805	1.105438
	H328	H	-0.036608	0.063973	1.109846
	H329	H	-0.019229	0.066886	1.108203
	O330	O	0.964831	0.966759	0.874860
	H331	H	0.970762	0.963996	0.873922
	H332	H	0.972150	0.961132	0.864587
	O333	O	0.650955	0.307453	0.673002
	H334	H	0.661575	0.294449	0.691455
	H335	H	0.624127	0.305299	0.657832
	O336	O	0.782705	0.073139	0.076629
	H337	H	0.791043	0.077095	0.066716
	H338	H	0.793463	0.066846	0.064266
	O339	O	1.194132	-0.226579	0.944658
	H340	H	1.201494	-0.229794	0.967448
	H341	H	1.186281	-0.233312	0.966261
	O342	O	0.213163	0.224048	-0.238588
	H343	H	0.202715	0.226344	-0.229870
	H344	H	0.186473	0.200301	-0.215694
	O345	O	0.084776	1.070365	0.917233
	H346	H	0.090073	1.055973	0.934109
	H347	H	0.067991	1.066988	0.913729
	O348	O	0.671513	0.287557	0.418570
	H349	H	0.667599	0.303540	0.413760
	H350	H	0.689001	0.270255	0.424791
	O351	O	0.780265	0.782432	0.197514
	H352	H	0.775368	0.833133	0.203921
	H353	H	0.751172	0.761391	0.210746
	O354	O	0.075375	-0.092658	1.115323
	H355	H	0.058430	-0.091471	1.107688
	H356	H	0.051854	-0.095741	1.116569
	O357	O	0.499597	0.273798	0.281547
	H358	H	0.515062	0.257406	0.259481
	H359	H	0.534955	0.278953	0.281818
	O360	O	0.279659	0.365244	0.634421
	H361	H	0.280868	0.398825	0.642461
	H362	H	0.262486	0.357772	0.663960
	O363	O	-0.058500	-0.106846	0.069836
	H364	H	-0.069336	-0.123818	0.074424
	H365	H	-0.076300	-0.106966	0.071338
	O366	O	0.438222	0.272066	0.691113
	H367	H	0.421024	0.246989	0.709147
	H368	H	0.421426	0.268295	0.672936
	O369	O	1.097434	-0.076151	-0.010005
	H370	H	1.093716	-0.064908	-0.010637
	H371	H	1.089074	-0.068933	-0.013718
	O372	O	1.215587	1.224542	0.230960
	H373	H	1.246529	1.249988	0.259802
	H374	H	1.226520	1.202272	0.227176
	O375	O	0.851147	-0.065862	-0.165037
	H376	H	0.872023	-0.061975	-0.153641
	H377	H	0.859639	-0.068973	-0.174792
	O378	O	0.590192	0.348793	0.515833
	H379	H	0.570881	0.346125	0.505668
	H380	H	0.577533	0.341048	0.527491
	O381	O	0.109462	1.049782	0.845541
	H382	H	0.114023	1.039810	0.852947
	H383	H	0.111509	1.054892	0.851435
	O384	O	0.829680	0.036130	0.802633
	H385	H	0.806501	0.024092	0.781463
	H386	H	0.838918	0.019032	0.823792
	O387	O	1.142929	1.152707	-0.052088
	H388	H	1.138644	1.149673	-0.033348
	H389	H	1.149474	1.141035	-0.060639
	O390	O	0.520287	0.684894	0.460924
	H391	H	0.506251	0.684076	0.467696
	H392	H	0.511448	0.695220	0.445830
	O393	O	0.548900	0.432261	0.705805
	H394	H	0.547330	0.436587	0.699167
	H395	H	0.535814	0.402988	0.709581
	O396	O	0.038797	1.180905	1.181333
	H397	H	0.052678	1.187378	1.179862
	H398	H	0.067174	1.192509	1.194420
	O399	O	-0.230421	0.197437	0.786561
	H400	H	-0.233294	0.197004	0.806365
	H401	H	-0.226295	0.158328	0.787816
	O402	O	0.262610	0.708021	0.442025
	H403	H	0.265046	0.707092	0.410353
	H404	H	0.236724	0.731779	0.422483
	O405	O	0.838876	-0.023378	0.915077
	H406	H	0.843572	-0.025530	0.929101
	H407	H	0.828714	-0.029231	0.905562
	O408	O	-0.078369	0.028404	0.226767
	H409	H	-0.082306	0.042633	0.232480
	H410	H	-0.099209	0.033042	0.227039
	O411	O	0.917145	0.773371	0.912456
	H412	H	0.917558	0.764673	0.880486
	H413	H	0.911434	0.788500	0.900591
	O414	O	0.751418	0.198441	0.205931
	H415	H	0.763053	0.194422	0.200170
	H416	H	0.763554	0.211561	0.191013
	O417	O	0.507868	0.698531	0.713557
	H418	H	0.530042	0.707937	0.711089
	H419	H	0.503906	0.708857	0.724898
	O420	O	0.442825	0.393792	0.434974
	H421	H	0.439915	0.380847	0.445048
	H422	H	0.432375	0.395203	0.426618
	O423	O	0.000141	0.118113	0.760402
	H424	H	-0.006945	0.145422	0.744515
	H425	H	-0.003417	0.109694	0.769311
	O426	O	0.273665	0.452628	0.704563
	H427	H	0.285183	0.463522	0.713879
	H428	H	0.269337	0.462077	0.718788
	O429	O	1.006568	0.770964	1.039359
	H430	H	0.986614	0.762493	1.032715
	H431	H	0.981787	0.772496	1.034140
	O432	O	0.666201	0.652441	0.658256
	H433	H	0.654410	0.635417	0.657494
	H434	H	0.670823	0.635720	0.639535
	O435	O	0.279707	0.681640	0.287653
	H436	H	0.274101	0.628068	0.281218
	H437	H	0.244830	0.705924	0.255145
	O438	O	0.193838	0.015541	0.205248
	H439	H	0.177151	0.008330	0.217815
	H440	H	0.189162	0.014185	0.218408
	O441	O	0.291903	0.329669	0.332917
	H442	H	0.293764	0.336182	0.364037
	H443	H	0.316933	0.347234	0.343649
	O444	O	0.457349	0.301703	0.519783
	H445	H	0.466084	0.295379	0.504093
	H446	H	0.426167	0.304283	0.505792
	O447	O	0.174406	0.791233	1.187711
	H448	H	0.155915	0.816793	1.174982
	H449	H	0.150829	0.802211	1.164496
	O450	O	0.015047	0.759464	0.766582
	H451	H	0.017955	0.755043	0.746266
	H452	H	0.039109	0.748819	0.751069
	O453	O	0.423686	0.542864	0.722969
	H454	H	0.443257	0.543853	0.717284
	H455	H	0.433527	0.547951	0.723189
	O456	O	0.200780	-0.053455	0.765817
	H457	H	0.226544	-0.057630	0.746149
	H458	H	0.201396	-0.082435	0.769045
	O459	O	0.959017	1.207631	0.022837
	H460	H	0.978615	1.209942	0.022279
	H461	H	0.967329	1.209441	0.038034
	O462	O	0.760791	0.948497	0.213955
	H463	H	0.755056	0.968053	0.192370
	H464	H	0.732241	0.961663	0.228879
	O465	O	1.194623	0.206947	0.076351
	H466	H	1.198092	0.210308	0.068457
	H467	H	1.213061	0.222690	0.104499
	O468	O	0.451973	0.707754	0.279138
	H469	H	0.436548	0.715782	0.259625
	H470	H	0.415605	0.716483	0.270641
	O471	O	0.364988	0.665433	0.583291
	H472	H	0.389637	0.667983	0.589458
	H473	H	0.353570	0.676610	0.580514
	O474	O	0.591532	0.555720	0.346014
	H475	H	0.588711	0.572331	0.344550
	H476	H	0.584574	0.558660	0.354989
	O477	O	0.635926	0.644649	1.302777
	H478	H	0.627148	0.622846	1.313214
	H479	H	0.610621	0.643612	1.320996
	O480	O	0.263548	0.287476	0.504225
	H481	H	0.255612	0.293092	0.526692
	H482	H	0.247627	0.279851	0.532406
	O483	O	0.274913	0.520363	0.280247
	H484	H	0.257876	0.506654	0.266735
	H485	H	0.283742	0.494862	0.291563
	O486	O	0.383591	0.521513	0.430366
	H487	H	0.388121	0.526114	0.454053
	H488	H	0.381219	0.537527	0.426062
	O489	O	0.950029	0.764723	0.216053
	H490	H	0.919702	0.754435	0.223545
	H491	H	0.929989	0.748992	0.223895
