data_Molecule from HDF5

_cell_length_a		16.299252
_cell_length_b		16.276580
_cell_length_c		16.311676
_cell_angle_alpha	89.856498
_cell_angle_beta	89.845409
_cell_angle_gamma	89.875039
_symmetry_space_group_name_H-M	'P 1'
_symmetry_Int_Tables_number		1

loop_
	_symmetry_equiv_pos_as_xyz
	x,y,z

loop_
	_atom_site_label
	_atom_site_type_symbol
	_atom_site_fract_x
	_atom_site_fract_y
	_atom_site_fract_z
	H0	H	0.408406	0.839773	0.722137
	H1	H	0.604838	0.166821	0.722209
	H2	H	0.606130	0.839860	0.292863
	H3	H	0.407970	0.166958	0.290989
	H4	H	0.723653	0.404723	0.843714
	H5	H	0.722130	0.602067	0.169329
	H6	H	0.294796	0.603339	0.842706
	H7	H	0.292374	0.405135	0.169122
	H8	H	0.843857	0.718665	0.408584
	H9	H	0.171024	0.718843	0.603703
	H10	H	0.843688	0.290704	0.605492
	H11	H	0.171029	0.288259	0.407038
	H12	H	0.844488	0.405624	0.722278
	H13	H	0.172306	0.601575	0.718084
	H14	H	0.844648	0.603247	0.291865
	H15	H	0.171901	0.406320	0.292719
	H16	H	0.410602	0.719172	0.843329
	H17	H	0.604899	0.717358	0.170211
	H18	H	0.608139	0.288319	0.844008
	H19	H	0.408806	0.289628	0.169993
	H20	H	0.722921	0.840524	0.408224
	H21	H	0.718937	0.168196	0.604678
	H22	H	0.294188	0.839698	0.605350
	H23	H	0.292713	0.167342	0.408447
	H24	H	0.910086	0.340634	0.221870
	H25	H	0.106513	0.667785	0.219588
	H26	H	0.106414	0.340568	0.791919
	H27	H	0.910611	0.668220	0.792202
	H28	H	0.223515	0.904450	0.344621
	H29	H	0.221758	0.103890	0.670274
	H30	H	0.792282	0.103999	0.342549
	H31	H	0.792973	0.906678	0.670495
	H32	H	0.344460	0.219293	0.908365
	H33	H	0.671532	0.218048	0.104863
	H34	H	0.344440	0.789627	0.104808
	H35	H	0.670557	0.788424	0.907375
	H36	H	0.344393	0.904467	0.222065
	H37	H	0.671791	0.100853	0.219836
	H38	H	0.344539	0.102931	0.792442
	H39	H	0.670739	0.904947	0.792717
	H40	H	0.909638	0.219648	0.342832
	H41	H	0.103843	0.217962	0.670568
	H42	H	0.105922	0.791222	0.343464
	H43	H	0.908010	0.789118	0.670094
	H44	H	0.222895	0.340608	0.907332
	H45	H	0.220716	0.668490	0.102194
	H46	H	0.795294	0.340058	0.105053
	H47	H	0.793746	0.668357	0.907727
	H48	H	0.409773	0.122635	0.606328
	H49	H	0.594543	0.890006	0.597886
	H50	H	0.595865	0.119394	0.411938
	H51	H	0.418535	0.888397	0.414567
	H52	H	0.605255	0.414555	0.122544
	H53	H	0.602573	0.594526	0.890009
	H54	H	0.413785	0.603197	0.125441
	H55	H	0.409641	0.417076	0.889682
	H56	H	0.125203	0.599621	0.411441
	H57	H	0.891143	0.600323	0.597839
	H58	H	0.123756	0.407421	0.593890
	H59	H	0.893816	0.412035	0.418805
	H60	H	0.122579	0.416084	0.599471
	H61	H	0.893086	0.594415	0.598499
	H62	H	0.124582	0.598576	0.413840
	H63	H	0.891832	0.416444	0.410158
	H64	H	0.408108	0.592955	0.123804
	H65	H	0.598216	0.597619	0.890603
	H66	H	0.596286	0.411873	0.121367
	H67	H	0.423639	0.414956	0.894163
	H68	H	0.600793	0.119354	0.416454
	H69	H	0.606479	0.886499	0.596334
	H70	H	0.422432	0.118075	0.601065
	H71	H	0.412674	0.887605	0.417978
	H72	H	0.915603	0.621983	0.103874
	H73	H	0.095436	0.389882	0.099650
	H74	H	0.105598	0.622228	0.910620
	H75	H	0.920044	0.388956	0.911746
	H76	H	0.103888	0.911942	0.624212
	H77	H	0.105650	0.094905	0.390054
	H78	H	0.913939	0.098368	0.622375
	H79	H	0.923306	0.910034	0.392236
	H80	H	0.624987	0.102067	0.914363
	H81	H	0.390978	0.094718	0.103186
	H82	H	0.622190	0.914715	0.098893
	H83	H	0.391572	0.915629	0.910273
	H84	H	0.626288	0.908636	0.105450
	H85	H	0.390600	0.100807	0.100148
	H86	H	0.620691	0.092399	0.919819
	H87	H	0.388899	0.905326	0.912855
	H88	H	0.910554	0.099547	0.623100
	H89	H	0.096162	0.093314	0.393271
	H90	H	0.097226	0.913574	0.622319
	H91	H	0.908944	0.905191	0.387093
	H92	H	0.099112	0.620985	0.908820
	H93	H	0.103092	0.388733	0.094763
	H94	H	0.917668	0.619224	0.096634
	H95	H	0.914814	0.389354	0.917404
	H96	H	0.410980	0.119259	0.592596
	H97	H	0.600748	0.885009	0.607296
	H98	H	0.602146	0.121366	0.410262
	H99	H	0.413385	0.885964	0.411234
	H100	H	0.602306	0.405829	0.124655
	H101	H	0.602828	0.599379	0.889104
	H102	H	0.419251	0.593647	0.119635
	H103	H	0.415698	0.404051	0.887904
	H104	H	0.123671	0.596951	0.411447
	H105	H	0.890049	0.597362	0.603454
	H106	H	0.125890	0.407519	0.604377
	H107	H	0.889607	0.407102	0.412203
	H108	H	0.910238	0.622010	0.097891
	H109	H	0.103168	0.385843	0.103365
	H110	H	0.101261	0.619568	0.914752
	H111	H	0.912418	0.385445	0.910892
	H112	H	0.098985	0.907292	0.624236
	H113	H	0.099059	0.102170	0.389787
	H114	H	0.911275	0.096468	0.623054
	H115	H	0.910951	0.920262	0.392543
	H116	H	0.624404	0.091637	0.908254
	H117	H	0.393311	0.095555	0.096483
	H118	H	0.624325	0.905932	0.096971
	H119	H	0.392440	0.911969	0.920578
	C120	C	0.385843	0.011778	0.628821
	C121	C	0.628140	0.995655	0.628266
	C122	C	0.628720	0.012111	0.385188
	C123	C	0.385720	0.995124	0.385519
	C124	C	0.630160	0.382005	0.015213
	C125	C	0.629387	0.625345	0.997624
	C126	C	0.386119	0.625786	0.014835
	C127	C	0.387107	0.382934	0.998184
	C128	C	0.016451	0.626501	0.384441
	C129	C	0.999420	0.625611	0.627701
	C130	C	0.015800	0.382531	0.627975
	C131	C	0.999705	0.383066	0.385004
	C132	C	0.886390	0.512516	0.128209
	C133	C	0.129403	0.496146	0.127300
	C134	C	0.130353	0.512755	0.883378
	C135	C	0.887044	0.496344	0.884695
	C136	C	0.128901	0.882540	0.515401
	C137	C	0.128510	0.125592	0.498960
	C138	C	0.884079	0.126671	0.514693
	C139	C	0.885540	0.882998	0.498670
	C140	C	0.515800	0.124981	0.885549
	C141	C	0.499803	0.125227	0.128343
	C142	C	0.516077	0.881501	0.128619
	C143	C	0.498950	0.881953	0.885403
	C144	C	0.388196	0.888690	0.684288
	C145	C	0.625144	0.118492	0.683691
	C146	C	0.626616	0.888853	0.330421
	C147	C	0.388010	0.118299	0.329696
	C148	C	0.685692	0.384318	0.892492
	C149	C	0.684007	0.622565	0.120835
	C150	C	0.331845	0.623842	0.891568
	C151	C	0.330613	0.384718	0.120537
	C152	C	0.892946	0.681285	0.387395
	C153	C	0.122399	0.680789	0.624279
	C154	C	0.892709	0.328186	0.625751
	C155	C	0.122512	0.327057	0.387217
	C156	C	0.893040	0.385554	0.683587
	C157	C	0.122889	0.622785	0.681535
	C158	C	0.893212	0.623813	0.329745
	C159	C	0.122817	0.385393	0.330057
	C160	C	0.389830	0.681014	0.891770
	C161	C	0.625750	0.679558	0.121336
	C162	C	0.627954	0.326708	0.892510
	C163	C	0.388756	0.327465	0.121057
	C164	C	0.684377	0.889027	0.387877
	C165	C	0.681858	0.119001	0.625147
	C166	C	0.330962	0.888788	0.626610
	C167	C	0.330599	0.118488	0.387727
	C168	C	0.889361	0.389447	0.183699
	C169	C	0.127149	0.619052	0.182037
	C170	C	0.127335	0.389377	0.829348
	C171	C	0.889642	0.619237	0.829729
	C172	C	0.184721	0.884951	0.393005
	C173	C	0.183224	0.123390	0.621676
	C174	C	0.829906	0.124329	0.391562
	C175	C	0.830482	0.885750	0.621569
	C176	C	0.393081	0.180892	0.888088
	C177	C	0.622744	0.180072	0.125252
	C178	C	0.393089	0.827096	0.125722
	C179	C	0.622053	0.827032	0.887708
	C180	C	0.392948	0.884473	0.183524
	C181	C	0.622828	0.121915	0.182644
	C182	C	0.393022	0.123010	0.830684
	C183	C	0.621819	0.884438	0.830168
	C184	C	0.888205	0.181677	0.391607
	C185	C	0.125032	0.180527	0.621786
	C186	C	0.126301	0.828450	0.392523
	C187	C	0.888001	0.827720	0.621502
	C188	C	0.185119	0.389396	0.886635
	C189	C	0.183987	0.619274	0.123690
	C190	C	0.832271	0.389282	0.125713
	C191	C	0.832020	0.619517	0.887796
	C192	C	0.407855	0.097769	0.606621
	C193	C	0.606909	0.909465	0.606798
	C194	C	0.606395	0.097852	0.406626
	C195	C	0.408131	0.909566	0.408099
	C196	C	0.607939	0.404109	0.100679
	C197	C	0.607654	0.603703	0.912121
	C198	C	0.407537	0.603369	0.100623
	C199	C	0.409718	0.405293	0.912591
	C200	C	0.102109	0.604785	0.405908
	C201	C	0.913584	0.603730	0.606334
	C202	C	0.101895	0.404106	0.605861
	C203	C	0.913861	0.405384	0.407186
	C204	C	0.908112	0.598913	0.105833
	C205	C	0.107158	0.410142	0.105528
	C206	C	0.108393	0.598823	0.904996
	C207	C	0.909102	0.410062	0.906892
	C208	C	0.106817	0.904531	0.601489
	C209	C	0.106610	0.103365	0.413106
	C210	C	0.905257	0.104591	0.600607
	C211	C	0.907835	0.905268	0.412778
	C212	C	0.601382	0.102040	0.907766
	C213	C	0.413856	0.103548	0.106401
	C214	C	0.602083	0.903352	0.106820
	C215	C	0.413028	0.904292	0.907874
	Zn216	Zn	0.507302	0.003027	0.757242
	Zn217	Zn	0.507546	0.003427	0.256925
	Zn218	Zn	0.758257	0.504051	0.006598
	Zn219	Zn	0.257948	0.504442	0.005627
	Zn220	Zn	0.007385	0.754475	0.506705
	Zn221	Zn	0.007351	0.254206	0.506356
	Zn222	Zn	0.008277	0.504137	0.755959
	Zn223	Zn	0.008148	0.504733	0.256264
	Zn224	Zn	0.508070	0.753652	0.006526
	Zn225	Zn	0.508107	0.253618	0.006626
	Zn226	Zn	0.756537	0.004298	0.506778
	Zn227	Zn	0.257218	0.003879	0.507448
	N228	N	0.421703	0.966261	0.685795
	N229	N	0.592507	0.040776	0.685649
	N230	N	0.592535	0.966223	0.328805
	N231	N	0.421630	0.040646	0.328051
	N232	N	0.686943	0.418335	0.969618
	N233	N	0.686497	0.589637	0.043310
	N234	N	0.329333	0.590223	0.969072
	N235	N	0.329634	0.418715	0.043252
	N236	N	0.970346	0.683090	0.420820
	N237	N	0.044728	0.682664	0.591538
	N238	N	0.970002	0.326232	0.591652
	N239	N	0.044881	0.325485	0.420745
	N240	N	0.970735	0.418453	0.684956
	N241	N	0.045598	0.589000	0.683633
	N242	N	0.970828	0.590334	0.327720
	N243	N	0.045613	0.419671	0.328905
	N244	N	0.422722	0.682325	0.969377
	N245	N	0.592785	0.681658	0.043777
	N246	N	0.594255	0.325167	0.969724
	N247	N	0.423053	0.326105	0.043953
	N248	N	0.685754	0.966503	0.421235
	N249	N	0.683939	0.041573	0.591544
	N250	N	0.329695	0.966173	0.592610
	N251	N	0.329308	0.041127	0.421890
	N252	N	0.922260	0.467184	0.185408
	N253	N	0.093828	0.541596	0.184202
	N254	N	0.094004	0.467008	0.827378
	N255	N	0.923095	0.541684	0.827840
	N256	N	0.186226	0.918000	0.470580
	N257	N	0.185297	0.089691	0.544350
	N258	N	0.827347	0.090858	0.469203
	N259	N	0.829234	0.919656	0.544156
	N260	N	0.470507	0.182255	0.921287
	N261	N	0.545012	0.182278	0.092455
	N262	N	0.470699	0.825021	0.092308
	N263	N	0.544802	0.825584	0.921431
	N264	N	0.470429	0.917556	0.185500
	N265	N	0.545345	0.088776	0.184753
	N266	N	0.470259	0.088753	0.829098
	N267	N	0.544182	0.917952	0.828768
	N268	N	0.921089	0.183320	0.469025
	N269	N	0.091736	0.181776	0.544435
	N270	N	0.092393	0.826903	0.469679
	N271	N	0.921493	0.826029	0.544011
	N272	N	0.187206	0.467115	0.919462
	N273	N	0.185406	0.541625	0.090447
	N274	N	0.830409	0.466885	0.091928
	N275	N	0.830360	0.541862	0.921308
	O276	O	0.557005	0.475925	0.463621
	H277	H	0.558739	0.468726	0.472729
	H278	H	0.557902	0.474972	0.466624
	O279	O	-0.035346	0.011212	0.029631
	H280	H	-0.020318	0.013575	0.028135
	H281	H	-0.037550	0.007065	0.032209
	O282	O	0.564403	0.468395	0.483932
	H283	H	0.560049	0.463881	0.480543
	H284	H	0.566155	0.476388	0.478348
	O285	O	0.545076	0.502679	0.469121
	H286	H	0.549757	0.500104	0.469548
	H287	H	0.539181	0.497086	0.474285
	O288	O	1.532987	0.439004	-0.561398
	H289	H	1.538379	0.435225	-0.571754
	H290	H	1.529931	0.430676	-0.565791
	O291	O	-0.439983	0.464282	-0.499711
	H292	H	-0.434409	0.470773	-0.494137
	H293	H	-0.433116	0.469847	-0.510345
	O294	O	0.543978	0.450902	0.448576
	H295	H	0.536872	0.449374	0.447136
	H296	H	0.552805	0.444352	0.438859
	O297	O	-0.016155	1.008560	0.001396
	H298	H	-0.012299	1.005448	0.004187
	H299	H	-0.022747	1.013306	-0.003375
	O300	O	0.499299	0.489428	0.551848
	H301	H	0.498284	0.485961	0.563911
	H302	H	0.496732	0.483827	0.543372
	O303	O	0.540198	0.438949	0.519576
	H304	H	0.536128	0.433479	0.530521
	H305	H	0.545224	0.439663	0.519224
	O306	O	-0.056586	1.011196	1.016025
	H307	H	-0.062039	1.014781	1.014015
	H308	H	-0.059609	1.004854	1.025611
	O309	O	-0.035078	0.000108	1.034506
	H310	H	-0.042097	-0.001034	1.025524
	H311	H	-0.038200	0.003482	1.042305
