data_Molecule from HDF5

_cell_length_a		16.414225
_cell_length_b		16.214686
_cell_length_c		16.225828
_cell_angle_alpha	90.024668
_cell_angle_beta	90.034590
_cell_angle_gamma	90.240451
_symmetry_space_group_name_H-M	'P 1'
_symmetry_Int_Tables_number		1

loop_
	_symmetry_equiv_pos_as_xyz
	x,y,z

loop_
	_atom_site_label
	_atom_site_type_symbol
	_atom_site_fract_x
	_atom_site_fract_y
	_atom_site_fract_z
	H0	H	0.405137	0.829431	0.713238
	H1	H	0.601738	0.158844	0.714250
	H2	H	0.599043	0.828599	0.289656
	H3	H	0.408355	0.158723	0.288004
	H4	H	0.719130	0.393232	0.837641
	H5	H	0.720561	0.593904	0.164734
	H6	H	0.290211	0.592702	0.837448
	H7	H	0.287500	0.391579	0.163711
	H8	H	0.841341	0.710705	0.401758
	H9	H	0.166335	0.712046	0.599857
	H10	H	0.841283	0.279736	0.598488
	H11	H	0.166066	0.281266	0.401716
	H12	H	0.841256	0.394876	0.715918
	H13	H	0.166148	0.596052	0.716932
	H14	H	0.841217	0.593987	0.284138
	H15	H	0.165836	0.397661	0.285351
	H16	H	0.406911	0.706142	0.836709
	H17	H	0.601947	0.707372	0.165811
	H18	H	0.601109	0.280670	0.837149
	H19	H	0.407455	0.280415	0.166241
	H20	H	0.719774	0.831215	0.400184
	H21	H	0.720154	0.158193	0.601776
	H22	H	0.286444	0.831789	0.601699
	H23	H	0.289785	0.158916	0.400675
	H24	H	0.905573	0.330668	0.213687
	H25	H	0.102597	0.659023	0.213229
	H26	H	0.100312	0.330283	0.786366
	H27	H	0.907644	0.659735	0.788374
	H28	H	0.218479	0.895798	0.337757
	H29	H	0.220844	0.097029	0.664016
	H30	H	0.788662	0.095462	0.338011
	H31	H	0.787865	0.894035	0.664470
	H32	H	0.342206	0.209557	0.901387
	H33	H	0.667685	0.208096	0.099466
	H34	H	0.341034	0.778256	0.099253
	H35	H	0.666615	0.779883	0.903077
	H36	H	0.341200	0.893788	0.216993
	H37	H	0.666154	0.092797	0.216888
	H38	H	0.341783	0.093081	0.785048
	H39	H	0.666235	0.895795	0.785233
	H40	H	0.908821	0.206993	0.336026
	H41	H	0.101360	0.209162	0.665793
	H42	H	0.101725	0.782151	0.336586
	H43	H	0.905684	0.781476	0.665263
	H44	H	0.218841	0.330230	0.899295
	H45	H	0.221355	0.657381	0.101789
	H46	H	0.788612	0.330921	0.100435
	H47	H	0.788541	0.657289	0.899640
	H48	H	0.415172	0.112386	0.597428
	H49	H	0.603651	0.874031	0.598643
	H50	H	0.593827	0.112641	0.401388
	H51	H	0.404447	0.874583	0.403900
	H52	H	0.596075	0.406087	0.116845
	H53	H	0.601016	0.585920	0.883954
	H54	H	0.410592	0.588442	0.119462
	H55	H	0.410225	0.400730	0.884040
	H56	H	0.119684	0.588610	0.403263
	H57	H	0.888835	0.589954	0.591056
	H58	H	0.119098	0.400565	0.591798
	H59	H	0.885914	0.396729	0.405345
	H60	H	0.117623	0.405657	0.592663
	H61	H	0.889820	0.585305	0.594930
	H62	H	0.119040	0.592632	0.409913
	H63	H	0.889959	0.402316	0.411205
	H64	H	0.408995	0.582559	0.118189
	H65	H	0.595789	0.584679	0.885265
	H66	H	0.596392	0.397101	0.119015
	H67	H	0.410381	0.402608	0.884529
	H68	H	0.593115	0.107078	0.415309
	H69	H	0.587658	0.879265	0.595439
	H70	H	0.412685	0.109723	0.588308
	H71	H	0.417538	0.879451	0.407926
	H72	H	0.910186	0.610440	0.085512
	H73	H	0.099061	0.376043	0.093414
	H74	H	0.103141	0.610970	0.914889
	H75	H	0.917482	0.381246	0.912951
	H76	H	0.094222	0.908608	0.615988
	H77	H	0.103872	0.084614	0.383699
	H78	H	0.910227	0.085008	0.617798
	H79	H	0.905052	0.908116	0.384631
	H80	H	0.620429	0.090871	0.907836
	H81	H	0.388181	0.089289	0.093600
	H82	H	0.620070	0.899049	0.097960
	H83	H	0.389447	0.906411	0.909534
	H84	H	0.618644	0.900242	0.090804
	H85	H	0.390133	0.085792	0.092174
	H86	H	0.617634	0.085272	0.911471
	H87	H	0.386564	0.898303	0.899881
	H88	H	0.913407	0.087740	0.617510
	H89	H	0.091864	0.085554	0.386432
	H90	H	0.093323	0.900895	0.617930
	H91	H	0.916607	0.906595	0.386765
	H92	H	0.101222	0.613589	0.903308
	H93	H	0.095428	0.377239	0.093989
	H94	H	0.907982	0.613943	0.094396
	H95	H	0.902307	0.376158	0.912971
	H96	H	0.406370	0.112984	0.594347
	H97	H	0.599560	0.880012	0.582907
	H98	H	0.605822	0.113459	0.410362
	H99	H	0.405957	0.879376	0.418201
	H100	H	0.603334	0.402949	0.119934
	H101	H	0.597481	0.589941	0.884034
	H102	H	0.414419	0.584289	0.116676
	H103	H	0.412015	0.401248	0.884975
	H104	H	0.116301	0.585004	0.409249
	H105	H	0.887259	0.590536	0.596627
	H106	H	0.119845	0.402890	0.596589
	H107	H	0.888199	0.405355	0.403295
	H108	H	0.917241	0.610273	0.092656
	H109	H	0.096499	0.377948	0.090552
	H110	H	0.092089	0.608685	0.909428
	H111	H	0.911442	0.374370	0.899017
	H112	H	0.100100	0.904298	0.618783
	H113	H	0.098339	0.095628	0.382033
	H114	H	0.909075	0.088557	0.619151
	H115	H	0.909997	0.897277	0.381933
	H116	H	0.619640	0.084780	0.904358
	H117	H	0.388676	0.085286	0.096287
	H118	H	0.618032	0.905819	0.095758
	H119	H	0.388216	0.894562	0.912193
	C120	C	0.381793	0.003257	0.622400
	C121	C	0.625225	0.986135	0.621634
	C122	C	0.625688	0.002580	0.379749
	C123	C	0.381772	0.986266	0.380579
	C124	C	0.625898	0.372953	0.009783
	C125	C	0.626425	0.615400	0.992863
	C126	C	0.383099	0.614369	0.009742
	C127	C	0.382561	0.372063	0.992771
	C128	C	0.011554	0.617856	0.378202
	C129	C	0.995835	0.617786	0.623085
	C130	C	0.011690	0.373823	0.622464
	C131	C	0.995390	0.373462	0.378520
	C132	C	0.882852	0.503123	0.120469
	C133	C	0.125682	0.485614	0.121673
	C134	C	0.126137	0.502533	0.879623
	C135	C	0.882619	0.486048	0.879598
	C136	C	0.124663	0.875044	0.509511
	C137	C	0.126354	0.117367	0.492592
	C138	C	0.883017	0.116011	0.509584
	C139	C	0.881662	0.873943	0.492473
	C140	C	0.512170	0.115716	0.879115
	C141	C	0.496216	0.115463	0.122912
	C142	C	0.511935	0.871715	0.123755
	C143	C	0.495486	0.871570	0.878722
	C144	C	0.384084	0.879149	0.676857
	C145	C	0.622330	0.109864	0.676656
	C146	C	0.621144	0.878368	0.325992
	C147	C	0.386542	0.109721	0.325478
	C148	C	0.680967	0.374084	0.886559
	C149	C	0.681974	0.613699	0.115988
	C150	C	0.328002	0.612677	0.886378
	C151	C	0.326410	0.372218	0.115363
	C152	C	0.889602	0.672907	0.380706
	C153	C	0.117755	0.673958	0.620515
	C154	C	0.889691	0.317745	0.619535
	C155	C	0.117582	0.318993	0.381159
	C156	C	0.889797	0.375070	0.677817
	C157	C	0.117836	0.616009	0.678628
	C158	C	0.889806	0.615360	0.322008
	C159	C	0.117466	0.376857	0.323466
	C160	C	0.386364	0.668802	0.885897
	C161	C	0.623326	0.670316	0.116309
	C162	C	0.622479	0.317717	0.886276
	C163	C	0.385852	0.317036	0.116565
	C164	C	0.680851	0.879637	0.381178
	C165	C	0.681318	0.109388	0.620659
	C166	C	0.325112	0.880379	0.621553
	C167	C	0.327790	0.109729	0.381655
	C168	C	0.884989	0.379729	0.176237
	C169	C	0.123319	0.609665	0.176196
	C170	C	0.121826	0.379298	0.823917
	C171	C	0.886175	0.609958	0.824988
	C172	C	0.180088	0.876430	0.386430
	C173	C	0.182032	0.116221	0.615487
	C174	C	0.827481	0.114760	0.386488
	C175	C	0.826299	0.874745	0.615734
	C176	C	0.390557	0.171542	0.880913
	C177	C	0.618649	0.170778	0.120370
	C178	C	0.389798	0.815850	0.120529
	C179	C	0.618004	0.817538	0.881978
	C180	C	0.389563	0.873777	0.178505
	C181	C	0.618081	0.113304	0.178594
	C182	C	0.390198	0.113285	0.823394
	C183	C	0.617705	0.875011	0.823426
	C184	C	0.887081	0.170270	0.385608
	C185	C	0.122887	0.172145	0.616394
	C186	C	0.121684	0.820078	0.385716
	C187	C	0.884754	0.818762	0.616084
	C188	C	0.180551	0.379156	0.880368
	C189	C	0.182356	0.608780	0.120736
	C190	C	0.827165	0.379641	0.119680
	C191	C	0.827042	0.608813	0.880434
	C192	C	0.404542	0.089338	0.599956
	C193	C	0.603284	0.900116	0.598993
	C194	C	0.603832	0.088880	0.402244
	C195	C	0.403059	0.899972	0.403337
	C196	C	0.604798	0.395625	0.096386
	C197	C	0.604606	0.593203	0.906686
	C198	C	0.404994	0.591828	0.095946
	C199	C	0.404728	0.394854	0.906834
	C200	C	0.096431	0.595467	0.401007
	C201	C	0.910652	0.595188	0.600735
	C202	C	0.096965	0.396388	0.600188
	C203	C	0.910110	0.395136	0.400166
	C204	C	0.905203	0.589179	0.097504
	C205	C	0.103459	0.399424	0.099345
	C206	C	0.105061	0.588840	0.902529
	C207	C	0.904129	0.399453	0.901773
	C208	C	0.102255	0.897828	0.595309
	C209	C	0.104526	0.095063	0.406500
	C210	C	0.904560	0.093598	0.595694
	C211	C	0.903870	0.897115	0.406750
	C212	C	0.597334	0.093485	0.901266
	C213	C	0.411021	0.093032	0.100635
	C214	C	0.596929	0.894933	0.101442
	C215	C	0.410196	0.893338	0.900761
	Zn216	Zn	0.503537	-0.006032	0.749567
	Zn217	Zn	0.503584	-0.005989	0.252507
	Zn218	Zn	0.754469	0.493739	0.000448
	Zn219	Zn	0.254679	0.493544	0.001121
	Zn220	Zn	0.003344	0.746987	0.500713
	Zn221	Zn	0.004271	0.244790	0.500873
	Zn222	Zn	0.003910	0.495512	0.752149
	Zn223	Zn	0.003581	0.495352	0.248602
	Zn224	Zn	0.503577	0.742943	0.000956
	Zn225	Zn	0.504396	0.244809	0.001461
	Zn226	Zn	0.754067	-0.005113	0.500891
	Zn227	Zn	0.253889	-0.004680	0.501675
	N228	N	0.418848	0.956576	0.677447
	N229	N	0.588202	0.032335	0.677347
	N230	N	0.587488	0.955978	0.325076
	N231	N	0.419404	0.031871	0.324610
	N232	N	0.683206	0.407417	0.964499
	N233	N	0.684243	0.580528	0.037986
	N234	N	0.325942	0.579448	0.964346
	N235	N	0.324004	0.405432	0.037510
	N236	N	0.966253	0.674620	0.414871
	N237	N	0.040758	0.675129	0.586754
	N238	N	0.966587	0.316843	0.585816
	N239	N	0.040823	0.316850	0.414801
	N240	N	0.966691	0.409426	0.679692
	N241	N	0.041111	0.581558	0.680102
	N242	N	0.966636	0.581771	0.320395
	N243	N	0.040304	0.409929	0.321510
	N244	N	0.419922	0.669957	0.963689
	N245	N	0.589536	0.671606	0.038832
	N246	N	0.588866	0.317124	0.963940
	N247	N	0.420211	0.316790	0.039084
	N248	N	0.683782	0.957904	0.413744
	N249	N	0.683184	0.031377	0.587191
	N250	N	0.323601	0.958349	0.588450
	N251	N	0.325024	0.031915	0.415225
	N252	N	0.918989	0.457458	0.176769
	N253	N	0.088762	0.532226	0.177056
	N254	N	0.088918	0.457040	0.823438
	N255	N	0.920246	0.532501	0.824556
	N256	N	0.181972	0.910016	0.464279
	N257	N	0.184470	0.083239	0.537521
	N258	N	0.824751	0.081831	0.464552
	N259	N	0.824280	0.908495	0.537927
	N260	N	0.467360	0.173137	0.914841
	N261	N	0.541797	0.172314	0.086534
	N262	N	0.466762	0.814523	0.087201
	N263	N	0.541114	0.815353	0.915601
	N264	N	0.466539	0.907623	0.181075
	N265	N	0.540947	0.079598	0.180410
	N266	N	0.466988	0.079327	0.822027
	N267	N	0.540507	0.907799	0.821130
	N268	N	0.920917	0.171142	0.463231
	N269	N	0.089018	0.173147	0.538859
	N270	N	0.088082	0.818963	0.463296
	N271	N	0.918612	0.818222	0.538516
	N272	N	0.183527	0.457004	0.914187
	N273	N	0.183939	0.530552	0.087572
	N274	N	0.825844	0.457326	0.085730
	N275	N	0.824648	0.530693	0.913388
	O276	O	1.056298	1.014656	0.037443
	H277	H	1.055187	1.008033	0.041713
	H278	H	1.052793	1.017925	0.034182
	O279	O	-0.018305	-0.022779	-0.013830
	H280	H	-0.018718	-0.021127	-0.012481
	H281	H	-0.023103	-0.031897	-0.016209
	O282	O	0.002273	0.029510	0.994795
	H283	H	-0.000819	0.031337	0.989768
	H284	H	0.005337	0.024707	0.991564
	O285	O	0.488411	0.507875	0.546698
	H286	H	0.489162	0.500201	0.550039
	H287	H	0.486176	0.488031	0.542996
	O288	O	0.502839	0.491969	0.522383
	H289	H	0.497943	0.498719	0.524610
	H290	H	0.510289	0.489467	0.522285
	O291	O	0.497008	0.504544	0.459571
	H292	H	0.489791	0.499232	0.453760
	H293	H	0.499176	0.503721	0.458659
	O294	O	-0.006715	-0.023927	0.026348
	H295	H	0.002217	-0.027049	0.028197
	H296	H	-0.011025	-0.016580	0.028151
	O297	O	0.458204	0.547745	0.554956
	H298	H	0.452264	0.547462	0.550555
	H299	H	0.459738	0.549076	0.551171
	O300	O	0.047061	0.969837	0.985205
	H301	H	0.044527	0.969717	0.994040
	H302	H	0.042986	0.970936	0.984278
	O303	O	0.479622	0.445936	0.551377
	H304	H	0.481124	0.444638	0.557082
	H305	H	0.482540	0.450995	0.552550
	O306	O	-0.496145	0.533853	0.477632
	H307	H	-0.494954	0.539884	0.477532
	H308	H	-0.500181	0.534808	0.485122
	O309	O	0.994708	0.991766	1.012974
	H310	H	0.991708	1.000520	1.009896
	H311	H	1.004869	0.995580	1.008781
	O312	O	0.493141	0.510137	0.543618
	H313	H	0.494462	0.513206	0.545083
	H314	H	0.498308	0.519742	0.536288
	O315	O	0.510207	0.523237	0.541682
	H316	H	0.511514	0.518067	0.554482
	H317	H	0.513003	0.531080	0.544031
	O318	O	0.064926	0.983163	0.043075
	H319	H	0.057202	0.978596	0.035992
	H320	H	0.070043	0.980195	0.047495
	O321	O	0.981951	0.954467	0.030091
	H322	H	0.985057	0.952124	0.034514
	H323	H	0.990362	0.959322	0.036082
