data_Molecule from HDF5

_cell_length_a		16.352528
_cell_length_b		16.242046
_cell_length_c		16.290941
_cell_angle_alpha	89.906752
_cell_angle_beta	89.919054
_cell_angle_gamma	90.051268
_symmetry_space_group_name_H-M	'P 1'
_symmetry_Int_Tables_number		1

loop_
	_symmetry_equiv_pos_as_xyz
	x,y,z

loop_
	_atom_site_label
	_atom_site_type_symbol
	_atom_site_fract_x
	_atom_site_fract_y
	_atom_site_fract_z
	H0	H	0.407909	0.841224	0.716186
	H1	H	0.606769	0.168211	0.716713
	H2	H	0.605573	0.840890	0.287259
	H3	H	0.409661	0.168176	0.288868
	H4	H	0.721782	0.404351	0.838951
	H5	H	0.721551	0.604238	0.165516
	H6	H	0.291713	0.603681	0.838395
	H7	H	0.289619	0.404527	0.165359
	H8	H	0.844086	0.719277	0.402584
	H9	H	0.169463	0.718521	0.599348
	H10	H	0.843773	0.288901	0.599253
	H11	H	0.170064	0.290603	0.404179
	H12	H	0.844074	0.402850	0.718406
	H13	H	0.170164	0.602468	0.716585
	H14	H	0.843105	0.602618	0.286937
	H15	H	0.169126	0.404122	0.285694
	H16	H	0.409034	0.717744	0.837968
	H17	H	0.603351	0.717886	0.166478
	H18	H	0.603041	0.291006	0.837530
	H19	H	0.406135	0.288781	0.165501
	H20	H	0.721329	0.840655	0.401637
	H21	H	0.723571	0.167449	0.601251
	H22	H	0.292220	0.840983	0.600703
	H23	H	0.291735	0.167181	0.401863
	H24	H	0.907291	0.339295	0.216732
	H25	H	0.104278	0.668211	0.215030
	H26	H	0.104984	0.339798	0.789649
	H27	H	0.909055	0.668850	0.788474
	H28	H	0.222485	0.904587	0.338763
	H29	H	0.221963	0.102517	0.664299
	H30	H	0.791465	0.104950	0.338231
	H31	H	0.789220	0.901926	0.664187
	H32	H	0.343186	0.219732	0.902476
	H33	H	0.668635	0.219640	0.099100
	H34	H	0.342447	0.791355	0.099404
	H35	H	0.668646	0.788981	0.902348
	H36	H	0.344040	0.905694	0.218001
	H37	H	0.669049	0.105012	0.216663
	H38	H	0.344109	0.104542	0.785568
	H39	H	0.669085	0.905430	0.786211
	H40	H	0.909352	0.218981	0.337876
	H41	H	0.106135	0.217534	0.664871
	H42	H	0.104419	0.790311	0.338062
	H43	H	0.908678	0.789053	0.665160
	H44	H	0.222360	0.341999	0.902262
	H45	H	0.219986	0.667852	0.099798
	H46	H	0.791045	0.340086	0.100701
	H47	H	0.791058	0.668527	0.902763
	H48	H	0.409652	0.124928	0.599050
	H49	H	0.599344	0.890661	0.585130
	H50	H	0.601035	0.120516	0.411606
	H51	H	0.415855	0.886672	0.406434
	H52	H	0.597373	0.399618	0.121454
	H53	H	0.593886	0.609882	0.884057
	H54	H	0.415867	0.598590	0.118104
	H55	H	0.411193	0.408244	0.885043
	H56	H	0.122814	0.597318	0.407551
	H57	H	0.892370	0.592218	0.594700
	H58	H	0.120619	0.412888	0.593559
	H59	H	0.891658	0.413475	0.409501
	H60	H	0.124316	0.411961	0.600762
	H61	H	0.890223	0.596708	0.598477
	H62	H	0.120924	0.595704	0.409807
	H63	H	0.889645	0.410636	0.406785
	H64	H	0.409056	0.599608	0.120678
	H65	H	0.612269	0.593829	0.883522
	H66	H	0.609104	0.417125	0.119516
	H67	H	0.409926	0.416653	0.886819
	H68	H	0.602748	0.122856	0.407431
	H69	H	0.605274	0.885466	0.597713
	H70	H	0.421020	0.120119	0.594265
	H71	H	0.414918	0.888261	0.411831
	H72	H	0.914339	0.622581	0.102856
	H73	H	0.104260	0.384343	0.095989
	H74	H	0.105825	0.622552	0.910593
	H75	H	0.911670	0.388297	0.912369
	H76	H	0.107398	0.920988	0.618300
	H77	H	0.094257	0.095008	0.387050
	H78	H	0.914360	0.103323	0.619569
	H79	H	0.911937	0.911093	0.385441
	H80	H	0.623375	0.101523	0.904663
	H81	H	0.388902	0.096334	0.100466
	H82	H	0.622816	0.912299	0.097012
	H83	H	0.393340	0.918096	0.911699
	H84	H	0.622688	0.909200	0.093860
	H85	H	0.389484	0.100895	0.093997
	H86	H	0.620488	0.098604	0.914567
	H87	H	0.387666	0.911646	0.900371
	H88	H	0.908434	0.089614	0.617690
	H89	H	0.102583	0.104115	0.381836
	H90	H	0.088149	0.911679	0.614707
	H91	H	0.914140	0.912050	0.385449
	H92	H	0.097665	0.623162	0.903131
	H93	H	0.094810	0.387066	0.098799
	H94	H	0.919894	0.616903	0.090203
	H95	H	0.912933	0.387801	0.908690
	H96	H	0.410526	0.120042	0.586469
	H97	H	0.590822	0.889673	0.597542
	H98	H	0.597802	0.121597	0.407383
	H99	H	0.410680	0.885973	0.408532
	H100	H	0.588560	0.417902	0.113159
	H101	H	0.590183	0.586472	0.891527
	H102	H	0.410876	0.593707	0.117790
	H103	H	0.418223	0.412699	0.887840
	H104	H	0.122420	0.594467	0.406783
	H105	H	0.891777	0.597870	0.592530
	H106	H	0.123859	0.406474	0.595739
	H107	H	0.890836	0.409262	0.411298
	H108	H	0.906248	0.621500	0.091377
	H109	H	0.098064	0.389463	0.089278
	H110	H	0.095556	0.619541	0.913001
	H111	H	0.915445	0.389347	0.910905
	H112	H	0.104254	0.899469	0.622204
	H113	H	0.106530	0.092076	0.384397
	H114	H	0.922629	0.091657	0.613295
	H115	H	0.914093	0.909371	0.384908
	H116	H	0.620428	0.091040	0.907117
	H117	H	0.391358	0.093515	0.093124
	H118	H	0.620871	0.913782	0.093364
	H119	H	0.389926	0.904079	0.912387
	C120	C	0.385616	0.013263	0.622228
	C121	C	0.628326	0.996373	0.622780
	C122	C	0.629004	0.013149	0.379781
	C123	C	0.385533	0.995377	0.380257
	C124	C	0.627143	0.382706	0.010170
	C125	C	0.627316	0.625552	0.994412
	C126	C	0.384054	0.625935	0.010576
	C127	C	0.383940	0.382938	0.994083
	C128	C	0.014793	0.625091	0.379727
	C129	C	0.998858	0.624527	0.623561
	C130	C	0.015096	0.381326	0.624770
	C131	C	0.998563	0.382303	0.380330
	C132	C	0.884206	0.512275	0.123772
	C133	C	0.127244	0.495377	0.123118
	C134	C	0.127967	0.513276	0.880699
	C135	C	0.884631	0.496569	0.880932
	C136	C	0.128103	0.882482	0.510031
	C137	C	0.129230	0.125225	0.492620
	C138	C	0.886252	0.124795	0.509120
	C139	C	0.884734	0.881419	0.493130
	C140	C	0.514208	0.126118	0.879881
	C141	C	0.497407	0.126226	0.123982
	C142	C	0.514262	0.883139	0.123536
	C143	C	0.497875	0.882187	0.879118
	C144	C	0.387747	0.889922	0.678047
	C145	C	0.626834	0.119219	0.678670
	C146	C	0.626052	0.889909	0.324672
	C147	C	0.388498	0.119001	0.325924
	C148	C	0.682904	0.384836	0.887363
	C149	C	0.682897	0.623797	0.117141
	C150	C	0.329562	0.623549	0.887237
	C151	C	0.328213	0.384758	0.116762
	C152	C	0.892257	0.680742	0.382646
	C153	C	0.121346	0.680096	0.620264
	C154	C	0.892553	0.326114	0.621015
	C155	C	0.121260	0.327782	0.383243
	C156	C	0.892618	0.382891	0.679964
	C157	C	0.121444	0.622577	0.678451
	C158	C	0.891880	0.623078	0.324817
	C159	C	0.120750	0.384397	0.324407
	C160	C	0.388080	0.680160	0.886874
	C161	C	0.624397	0.680405	0.117471
	C162	C	0.624138	0.328174	0.886839
	C163	C	0.386235	0.327247	0.116751
	C164	C	0.683668	0.889802	0.381434
	C165	C	0.685144	0.118820	0.621575
	C166	C	0.330312	0.889941	0.620747
	C167	C	0.330239	0.118440	0.382442
	C168	C	0.886718	0.388661	0.178861
	C169	C	0.124611	0.619113	0.177432
	C170	C	0.125282	0.389327	0.826714
	C171	C	0.887732	0.619858	0.825697
	C172	C	0.183941	0.884292	0.387370
	C173	C	0.184161	0.122970	0.615706
	C174	C	0.830314	0.124225	0.386747
	C175	C	0.828235	0.882534	0.615642
	C176	C	0.391736	0.181525	0.882494
	C177	C	0.620203	0.181821	0.120553
	C178	C	0.391494	0.828787	0.120185
	C179	C	0.620306	0.827168	0.881826
	C180	C	0.392170	0.885409	0.179260
	C181	C	0.620365	0.124607	0.178618
	C182	C	0.392038	0.124345	0.824409
	C183	C	0.620322	0.885065	0.824025
	C184	C	0.888795	0.181029	0.386554
	C185	C	0.126383	0.179897	0.616139
	C186	C	0.125230	0.827583	0.386997
	C187	C	0.887619	0.826526	0.616309
	C188	C	0.183396	0.390146	0.882971
	C189	C	0.182253	0.618945	0.120436
	C190	C	0.828673	0.389044	0.121476
	C191	C	0.829302	0.619680	0.882781
	C192	C	0.407299	0.099297	0.599852
	C193	C	0.605321	0.910622	0.599971
	C194	C	0.607037	0.099205	0.402261
	C195	C	0.407451	0.909136	0.402377
	C196	C	0.604825	0.404893	0.095956
	C197	C	0.605391	0.603201	0.908546
	C198	C	0.405698	0.604037	0.096591
	C199	C	0.406447	0.405964	0.908516
	C200	C	0.100075	0.602563	0.401702
	C201	C	0.913532	0.602114	0.601616
	C202	C	0.100704	0.403887	0.603057
	C203	C	0.912826	0.404575	0.402713
	C204	C	0.906789	0.598143	0.101337
	C205	C	0.105393	0.409304	0.101176
	C206	C	0.106158	0.599495	0.902513
	C207	C	0.906932	0.410637	0.903782
	C208	C	0.106377	0.904350	0.596184
	C209	C	0.107535	0.103540	0.406850
	C210	C	0.908516	0.101344	0.594544
	C211	C	0.906934	0.904169	0.407361
	C212	C	0.599435	0.103709	0.902197
	C213	C	0.412067	0.103629	0.102349
	C214	C	0.600069	0.905274	0.101233
	C215	C	0.412297	0.904687	0.901463
	Zn216	Zn	0.506268	0.004998	0.750704
	Zn217	Zn	0.506990	0.004700	0.252692
	Zn218	Zn	0.755590	0.504571	0.002147
	Zn219	Zn	0.255456	0.504723	0.002156
	Zn220	Zn	0.006771	0.753486	0.501858
	Zn221	Zn	0.007719	0.253119	0.502007
	Zn222	Zn	0.006860	0.503739	0.753339
	Zn223	Zn	0.006425	0.503900	0.251421
	Zn224	Zn	0.506206	0.754194	0.001633
	Zn225	Zn	0.505681	0.253939	0.001806
	Zn226	Zn	0.756920	0.003908	0.501040
	Zn227	Zn	0.256929	0.003819	0.501314
	N228	N	0.421359	0.967607	0.679226
	N229	N	0.592000	0.041986	0.679271
	N230	N	0.592774	0.967783	0.323454
	N231	N	0.422154	0.041489	0.324457
	N232	N	0.685030	0.417989	0.965029
	N233	N	0.684628	0.590399	0.039642
	N234	N	0.327036	0.590387	0.965112
	N235	N	0.326798	0.418829	0.039603
	N236	N	0.969706	0.682315	0.415855
	N237	N	0.044180	0.681467	0.586982
	N238	N	0.969815	0.324828	0.587597
	N239	N	0.044490	0.326863	0.417679
	N240	N	0.969814	0.416293	0.682490
	N241	N	0.044271	0.588670	0.680516
	N242	N	0.968839	0.589316	0.323098
	N243	N	0.043263	0.417595	0.322649
	N244	N	0.421223	0.681836	0.964517
	N245	N	0.590704	0.681882	0.040038
	N246	N	0.590135	0.326972	0.964125
	N247	N	0.420228	0.326066	0.039314
	N248	N	0.685707	0.967419	0.414972
	N249	N	0.686054	0.041461	0.587480
	N250	N	0.328842	0.967580	0.586771
	N251	N	0.328229	0.040539	0.415406
	N252	N	0.920502	0.466258	0.180357
	N253	N	0.091178	0.541292	0.179314
	N254	N	0.091458	0.466852	0.825320
	N255	N	0.921284	0.542207	0.824611
	N256	N	0.185573	0.917704	0.464740
	N257	N	0.185924	0.089703	0.538173
	N258	N	0.828643	0.089995	0.464010
	N259	N	0.826373	0.916035	0.537837
	N260	N	0.468647	0.182396	0.916629
	N261	N	0.542981	0.182803	0.087257
	N262	N	0.468604	0.827383	0.086210
	N263	N	0.543127	0.825261	0.915239
	N264	N	0.469520	0.918648	0.181314
	N265	N	0.543205	0.090827	0.180898
	N266	N	0.469051	0.090615	0.822666
	N267	N	0.543040	0.918669	0.822265
	N268	N	0.922794	0.181545	0.463836
	N269	N	0.092733	0.181420	0.538737
	N270	N	0.091317	0.826367	0.464459
	N271	N	0.921778	0.825613	0.539198
	N272	N	0.185065	0.468159	0.916030
	N273	N	0.183951	0.541152	0.087354
	N274	N	0.826871	0.466867	0.088123
	N275	N	0.827178	0.541838	0.916283
	O276	O	0.584170	0.495247	0.570515
	H277	H	0.576781	0.501935	0.580948
	H278	H	0.588243	0.508482	0.569794
	O279	O	-0.080999	0.046844	-0.026202
	H280	H	-0.084756	0.051576	-0.028918
	H281	H	-0.078108	0.048449	-0.029268
	O282	O	0.551652	0.501883	0.505167
	H283	H	0.556095	0.503709	0.513485
	H284	H	0.554331	0.490123	0.510070
	O285	O	0.523160	0.531883	0.552523
	H286	H	0.517588	0.525515	0.550559
	H287	H	0.526329	0.534701	0.557316
	O288	O	0.902757	0.038942	-0.022713
	H289	H	0.893616	0.040305	-0.014149
	H290	H	0.903478	0.047849	-0.025714
	O291	O	-0.459992	0.549905	-0.449692
	H292	H	-0.468986	0.545929	-0.454660
	H293	H	-0.458562	0.554579	-0.441562
	O294	O	0.565842	0.499866	0.538341
	H295	H	0.573439	0.502125	0.530717
	H296	H	0.571056	0.505333	0.542055
	O297	O	-0.080816	0.988585	-0.021947
	H298	H	-0.075839	0.982283	-0.020425
	H299	H	-0.084499	0.997062	-0.031506
	O300	O	0.919971	0.045454	0.953221
	H301	H	0.915873	0.040220	0.961771
	H302	H	0.919590	0.052362	0.946146
	O303	O	0.494589	0.482440	0.532410
	H304	H	0.485981	0.484772	0.529361
	H305	H	0.503231	0.481845	0.533325
	O306	O	-0.112400	1.041843	0.977677
	H307	H	-0.112034	1.046111	0.969629
	H308	H	-0.113186	1.037701	0.984983
	O309	O	0.574192	0.525507	0.573689
	H310	H	0.581883	0.530599	0.565588
	H311	H	0.578643	0.528305	0.566585
