data_Molecule from HDF5

_cell_length_a		16.162798
_cell_length_b		16.277714
_cell_length_c		16.364221
_cell_angle_alpha	89.891774
_cell_angle_beta	90.159567
_cell_angle_gamma	89.460139
_symmetry_space_group_name_H-M	'P 1'
_symmetry_Int_Tables_number		1

loop_
	_symmetry_equiv_pos_as_xyz
	x,y,z

loop_
	_atom_site_label
	_atom_site_type_symbol
	_atom_site_fract_x
	_atom_site_fract_y
	_atom_site_fract_z
	H0	H	0.398397	0.835927	0.725242
	H1	H	0.598722	0.160724	0.724415
	H2	H	0.604428	0.835415	0.290503
	H3	H	0.398768	0.161142	0.292357
	H4	H	0.713235	0.397606	0.846275
	H5	H	0.709947	0.593025	0.172520
	H6	H	0.279418	0.598188	0.846295
	H7	H	0.285083	0.402168	0.172865
	H8	H	0.834646	0.717354	0.407820
	H9	H	0.163605	0.708050	0.606529
	H10	H	0.834978	0.283121	0.606293
	H11	H	0.163475	0.284852	0.409356
	H12	H	0.834408	0.396346	0.723454
	H13	H	0.159978	0.597140	0.726728
	H14	H	0.833069	0.600104	0.293483
	H15	H	0.161074	0.397268	0.292363
	H16	H	0.393139	0.716783	0.846532
	H17	H	0.595844	0.712580	0.171440
	H18	H	0.597118	0.282105	0.846051
	H19	H	0.398956	0.282128	0.170846
	H20	H	0.716358	0.834368	0.410015
	H21	H	0.711695	0.162706	0.604949
	H22	H	0.288754	0.833230	0.604399
	H23	H	0.284422	0.161125	0.408764
	H24	H	0.895334	0.335955	0.226720
	H25	H	0.095552	0.661066	0.224706
	H26	H	0.100308	0.335421	0.792629
	H27	H	0.890346	0.658629	0.788727
	H28	H	0.215032	0.897930	0.343736
	H29	H	0.213489	0.092380	0.670181
	H30	H	0.781749	0.099343	0.345191
	H31	H	0.784427	0.897490	0.669956
	H32	H	0.333424	0.213818	0.908630
	H33	H	0.663073	0.211331	0.107186
	H34	H	0.332835	0.787122	0.107709
	H35	H	0.661348	0.780305	0.909008
	H36	H	0.335437	0.900631	0.224635
	H37	H	0.663002	0.097421	0.223128
	H38	H	0.335210	0.101929	0.790704
	H39	H	0.661936	0.895163	0.792529
	H40	H	0.898218	0.215135	0.344591
	H41	H	0.101574	0.214112	0.668956
	H42	H	0.104092	0.777369	0.346781
	H43	H	0.900758	0.781842	0.669447
	H44	H	0.213753	0.335141	0.911145
	H45	H	0.209995	0.662268	0.108879
	H46	H	0.785592	0.333513	0.105875
	H47	H	0.779031	0.660370	0.908418
	H48	H	0.404002	0.117667	0.608282
	H49	H	0.587499	0.881797	0.604966
	H50	H	0.597063	0.116212	0.412448
	H51	H	0.404735	0.877093	0.406075
	H52	H	0.594231	0.399973	0.126785
	H53	H	0.589025	0.578222	0.896147
	H54	H	0.402133	0.590826	0.125055
	H55	H	0.409963	0.403558	0.892815
	H56	H	0.113242	0.582757	0.416232
	H57	H	0.884631	0.584001	0.594197
	H58	H	0.113468	0.413241	0.603257
	H59	H	0.882081	0.412577	0.415236
	H60	H	0.117909	0.401098	0.606690
	H61	H	0.877657	0.590448	0.606971
	H62	H	0.115720	0.588832	0.412884
	H63	H	0.878659	0.404670	0.410726
	H64	H	0.405600	0.593064	0.124116
	H65	H	0.576069	0.594925	0.895698
	H66	H	0.593267	0.407902	0.123239
	H67	H	0.399823	0.404502	0.890830
	H68	H	0.584963	0.114219	0.408911
	H69	H	0.591701	0.883962	0.594597
	H70	H	0.416302	0.110651	0.597833
	H71	H	0.419472	0.883893	0.413425
	H72	H	0.906026	0.611528	0.095044
	H73	H	0.091204	0.382560	0.100856
	H74	H	0.082741	0.613879	0.913978
	H75	H	0.904535	0.379493	0.912745
	H76	H	0.098728	0.908864	0.623575
	H77	H	0.094402	0.099472	0.388182
	H78	H	0.911694	0.087151	0.619317
	H79	H	0.917239	0.909249	0.395091
	H80	H	0.611340	0.081550	0.921268
	H81	H	0.384302	0.086365	0.097352
	H82	H	0.612876	0.905554	0.093749
	H83	H	0.380188	0.905388	0.918698
	H84	H	0.614974	0.909585	0.102904
	H85	H	0.380226	0.089923	0.106560
	H86	H	0.617460	0.087404	0.906090
	H87	H	0.383161	0.913620	0.917503
	H88	H	0.909966	0.096730	0.622914
	H89	H	0.097321	0.085749	0.390518
	H90	H	0.088768	0.904109	0.620082
	H91	H	0.907389	0.900600	0.389890
	H92	H	0.083546	0.611831	0.918642
	H93	H	0.090116	0.381742	0.103401
	H94	H	0.895598	0.616449	0.101240
	H95	H	0.908526	0.381274	0.914417
	H96	H	0.399954	0.113412	0.591554
	H97	H	0.598560	0.879871	0.602621
	H98	H	0.588451	0.111244	0.420576
	H99	H	0.404834	0.882111	0.422809
	H100	H	0.586640	0.401528	0.124133
	H101	H	0.595802	0.596443	0.888618
	H102	H	0.402122	0.595697	0.125263
	H103	H	0.405245	0.411819	0.895359
	H104	H	0.113574	0.589409	0.419496
	H105	H	0.879841	0.598980	0.593377
	H106	H	0.114388	0.403708	0.593712
	H107	H	0.880162	0.404065	0.420336
	H108	H	0.906966	0.614620	0.107340
	H109	H	0.089400	0.382938	0.101068
	H110	H	0.087707	0.615287	0.916977
	H111	H	0.904685	0.381187	0.917493
	H112	H	0.095931	0.897371	0.624797
	H113	H	0.084693	0.091291	0.393464
	H114	H	0.902112	0.089983	0.624227
	H115	H	0.904052	0.914026	0.393081
	H116	H	0.616180	0.097940	0.920422
	H117	H	0.380004	0.096795	0.097821
	H118	H	0.617430	0.898998	0.100945
	H119	H	0.380257	0.908650	0.909666
	C120	C	0.378266	0.006024	0.628426
	C121	C	0.621306	0.989736	0.629810
	C122	C	0.621552	0.006449	0.385575
	C123	C	0.379195	0.989023	0.385707
	C124	C	0.620242	0.374795	0.017161
	C125	C	0.617170	0.618330	1.000789
	C126	C	0.373375	0.622452	0.017381
	C127	C	0.376398	0.377593	1.000749
	C128	C	0.006561	0.619562	0.386425
	C129	C	0.989076	0.618996	0.628858
	C130	C	0.007028	0.376260	0.629571
	C131	C	0.989354	0.377743	0.386622
	C132	C	0.875065	0.506496	0.130244
	C133	C	0.118270	0.490192	0.130773
	C134	C	0.117051	0.506372	0.887509
	C135	C	0.874500	0.488480	0.885612
	C136	C	0.123769	0.874218	0.515586
	C137	C	0.121590	0.119583	0.498464
	C138	C	0.877406	0.120781	0.515313
	C139	C	0.879866	0.877866	0.499743
	C140	C	0.506671	0.119715	0.886284
	C141	C	0.490376	0.119297	0.129183
	C142	C	0.506769	0.876953	0.129126
	C143	C	0.489252	0.877444	0.886335
	C144	C	0.379762	0.883972	0.685494
	C145	C	0.619040	0.112255	0.685796
	C146	C	0.622616	0.883834	0.329249
	C147	C	0.379542	0.112421	0.330650
	C148	C	0.675252	0.377227	0.894634
	C149	C	0.672602	0.614727	0.123464
	C150	C	0.316976	0.619700	0.895048
	C151	C	0.321871	0.380585	0.123401
	C152	C	0.883519	0.678337	0.387758
	C153	C	0.113503	0.672407	0.627771
	C154	C	0.883896	0.320583	0.627053
	C155	C	0.113731	0.322041	0.388939
	C156	C	0.883558	0.376973	0.685131
	C157	C	0.111813	0.616892	0.687177
	C158	C	0.882651	0.620104	0.330906
	C159	C	0.112497	0.377972	0.330476
	C160	C	0.373814	0.678339	0.895051
	C161	C	0.615725	0.673924	0.123016
	C162	C	0.617781	0.319870	0.894644
	C163	C	0.378580	0.321124	0.122638
	C164	C	0.678374	0.883215	0.388617
	C165	C	0.675304	0.113192	0.626436
	C166	C	0.324910	0.882594	0.625554
	C167	C	0.322693	0.112281	0.388467
	C168	C	0.876549	0.384127	0.187343
	C169	C	0.115844	0.612547	0.186597
	C170	C	0.118851	0.384035	0.831173
	C171	C	0.872797	0.610540	0.828559
	C172	C	0.178773	0.876445	0.393188
	C173	C	0.176319	0.114847	0.621120
	C174	C	0.820586	0.119164	0.393568
	C175	C	0.823317	0.878603	0.621472
	C176	C	0.383136	0.176301	0.888185
	C177	C	0.613936	0.174055	0.127288
	C178	C	0.382638	0.823833	0.127608
	C179	C	0.612291	0.818765	0.888246
	C180	C	0.383890	0.880254	0.185782
	C181	C	0.613999	0.117312	0.184821
	C182	C	0.383693	0.120308	0.829479
	C183	C	0.612804	0.876249	0.830554
	C184	C	0.878119	0.177194	0.393242
	C185	C	0.120521	0.175033	0.620618
	C186	C	0.123228	0.816757	0.394522
	C187	C	0.881043	0.820811	0.621403
	C188	C	0.175401	0.384164	0.890099
	C189	C	0.172934	0.613167	0.129051
	C190	C	0.822234	0.382651	0.127138
	C191	C	0.817048	0.611171	0.887789
	C192	C	0.400207	0.091811	0.605870
	C193	C	0.599091	0.904163	0.607502
	C194	C	0.597356	0.091767	0.407557
	C195	C	0.402755	0.903286	0.407594
	C196	C	0.597910	0.396814	0.102608
	C197	C	0.593789	0.596406	0.915517
	C198	C	0.396567	0.599884	0.102711
	C199	C	0.398437	0.399940	0.915130
	C200	C	0.092013	0.594327	0.409376
	C201	C	0.903027	0.597399	0.605227
	C202	C	0.092947	0.399343	0.607536
	C203	C	0.902815	0.400522	0.408780
	C204	C	0.896472	0.591988	0.107758
	C205	C	0.096543	0.404525	0.108355
	C206	C	0.091926	0.591616	0.909761
	C207	C	0.898701	0.402950	0.908267
	C208	C	0.101052	0.896770	0.600916
	C209	C	0.098741	0.098612	0.412820
	C210	C	0.901076	0.097817	0.600126
	C211	C	0.902838	0.901236	0.414721
	C212	C	0.592857	0.095894	0.909042
	C213	C	0.403964	0.097369	0.107073
	C214	C	0.592882	0.898450	0.106060
	C215	C	0.403537	0.902130	0.908773
	Zn216	Zn	0.498500	-0.001518	0.757765
	Zn217	Zn	0.500319	-0.001642	0.257155
	Zn218	Zn	0.747241	0.496875	0.008486
	Zn219	Zn	0.246152	0.499400	0.009386
	Zn220	Zn	0.000145	0.747460	0.507628
	Zn221	Zn	-0.000868	0.249423	0.507113
	Zn222	Zn	-0.003653	0.497371	0.757287
	Zn223	Zn	-0.003352	0.498218	0.258411
	Zn224	Zn	0.496652	0.749000	0.008423
	Zn225	Zn	0.498077	0.247390	0.008363
	Zn226	Zn	0.749287	-0.001800	0.507527
	Zn227	Zn	0.250530	-0.003110	0.506332
	N228	N	0.412082	0.961850	0.687403
	N229	N	0.586533	0.034557	0.688202
	N230	N	0.588095	0.961454	0.327073
	N231	N	0.414068	0.034930	0.328777
	N232	N	0.676884	0.410554	0.971789
	N233	N	0.673807	0.581116	0.046416
	N234	N	0.316254	0.586020	0.972183
	N235	N	0.320672	0.415163	0.046565
	N236	N	0.961577	0.678213	0.421486
	N237	N	0.036160	0.674039	0.592419
	N238	N	0.961698	0.319793	0.593379
	N239	N	0.035911	0.321695	0.423184
	N240	N	0.961338	0.410737	0.686958
	N241	N	0.033483	0.584682	0.688119
	N242	N	0.960184	0.584466	0.329861
	N243	N	0.034229	0.411711	0.328926
	N244	N	0.408004	0.680144	0.972146
	N245	N	0.581984	0.676115	0.045722
	N246	N	0.584220	0.318178	0.971767
	N247	N	0.411670	0.319210	0.045277
	N248	N	0.677814	0.960265	0.422968
	N249	N	0.677015	0.035844	0.592523
	N250	N	0.324034	0.959563	0.590621
	N251	N	0.322125	0.034504	0.421720
	N252	N	0.908795	0.462052	0.189470
	N253	N	0.082736	0.535042	0.187768
	N254	N	0.083290	0.460988	0.829294
	N255	N	0.907823	0.533183	0.826970
	N256	N	0.179059	0.911379	0.469556
	N257	N	0.177101	0.081177	0.544107
	N258	N	0.819969	0.084905	0.470499
	N259	N	0.822432	0.913423	0.544769
	N260	N	0.460675	0.176089	0.922848
	N261	N	0.536096	0.175189	0.093118
	N262	N	0.460112	0.821660	0.093065
	N263	N	0.534464	0.819141	0.922048
	N264	N	0.462136	0.912689	0.186865
	N265	N	0.536238	0.083940	0.186078
	N266	N	0.461537	0.085637	0.828289
	N267	N	0.535304	0.911931	0.829154
	N268	N	0.912737	0.178446	0.470079
	N269	N	0.086922	0.178000	0.543287
	N270	N	0.089779	0.815112	0.471810
	N271	N	0.915568	0.820554	0.544751
	N272	N	0.174273	0.461210	0.924605
	N273	N	0.174533	0.536073	0.094881
	N274	N	0.820871	0.459540	0.092468
	N275	N	0.818003	0.534136	0.922566
	O276	O	0.504737	0.423134	0.555945
	H277	H	0.504851	0.415552	0.549287
	H278	H	0.495597	0.425432	0.550394
	O279	O	0.496247	0.546211	0.423317
	H280	H	0.489256	0.544489	0.429470
	H281	H	0.491133	0.550185	0.423956
	O282	O	0.484357	0.573142	-0.473677
	H283	H	0.492926	0.574928	-0.459150
	H284	H	0.481900	0.569321	-0.465857
	O285	O	0.962158	-0.092113	1.038364
	H286	H	0.967967	-0.092522	1.040804
	H287	H	0.958055	-0.080961	1.035866
	O288	O	0.453882	0.585720	0.464777
	H289	H	0.456221	0.588016	0.471017
	H290	H	0.449897	0.585505	0.461237
	O291	O	0.051990	0.956343	0.018933
	H292	H	0.043559	0.951033	0.020756
	H293	H	0.066373	0.950205	0.006218
	O294	O	0.566120	0.502557	0.467788
	H295	H	0.558057	0.500672	0.468766
	H296	H	0.560946	0.503739	0.455529
	O297	O	-0.048835	0.016759	0.940161
	H298	H	-0.035228	0.021342	0.956909
	H299	H	-0.046985	0.004147	0.942964
	O300	O	0.478052	0.445885	0.500898
	H301	H	0.492639	0.443448	0.484763
	H302	H	0.481480	0.428223	0.513165
	O303	O	0.995081	1.132126	-0.081458
	H304	H	0.998309	1.128868	-0.085546
	H305	H	0.993082	1.122112	-0.083704
	O306	O	-0.053377	1.101616	0.949285
	H307	H	-0.042684	1.107852	0.946291
	H308	H	-0.056772	1.102626	0.957179
	O309	O	0.488284	0.453422	0.525116
	H310	H	0.480195	0.459595	0.523222
	H311	H	0.483349	0.453425	0.518138
	O312	O	0.049111	0.125381	0.071475
	H313	H	0.043670	0.130249	0.071425
	H314	H	0.056443	0.113928	0.073506
	O315	O	1.012354	0.028034	0.060412
	H316	H	1.004620	0.029758	0.050361
	H317	H	1.022741	0.033245	0.059084
	O318	O	0.970177	0.966775	0.987783
	H319	H	0.967455	0.980217	0.974716
	H320	H	0.971812	0.960327	0.988122
	O321	O	-0.016442	-0.164529	1.071656
	H322	H	-0.020010	-0.164235	1.069372
	H323	H	-0.012701	-0.166191	1.070879
	O324	O	0.878202	0.049472	-0.135471
	H325	H	0.875139	0.053593	-0.134461
	H326	H	0.876171	0.051324	-0.144680
	O327	O	-0.006972	0.041626	-0.099623
	H328	H	-0.025843	0.029866	-0.106946
	H329	H	0.001215	0.036757	-0.113202
	O330	O	0.621704	0.460506	0.547817
	H331	H	0.611361	0.469868	0.549595
	H332	H	0.623703	0.469908	0.546704
	O333	O	0.016187	1.017646	0.968952
	H334	H	0.021120	1.020687	0.964788
	H335	H	0.020615	1.013479	0.966357
	O336	O	0.100293	-0.128459	-0.038923
	H337	H	0.105303	-0.123559	-0.033194
	H338	H	0.093987	-0.139612	-0.039705
	O339	O	0.537891	0.468752	0.463903
	H340	H	0.545308	0.471045	0.460838
	H341	H	0.542362	0.461404	0.467406
	O342	O	1.411011	1.553852	1.476811
	H343	H	1.398329	1.554237	1.472322
	H344	H	1.411178	1.543283	1.466774
	O345	O	1.109886	0.979245	0.005251
	H346	H	1.114845	0.972387	0.006258
	H347	H	1.093006	0.977313	0.015667
	O348	O	0.512498	0.404726	0.462490
	H349	H	0.514782	0.399965	0.466535
	H350	H	0.520563	0.410002	0.474298
	O351	O	0.405824	0.523035	0.503445
	H352	H	0.420041	0.517994	0.509017
	H353	H	0.406834	0.517487	0.503125
	O354	O	0.464898	0.436817	0.603571
	H355	H	0.474330	0.436766	0.606645
	H356	H	0.461401	0.431350	0.607406
	O357	O	0.895802	-0.120600	0.030922
	H358	H	0.895495	-0.116506	0.038100
	H359	H	0.887973	-0.121667	0.029001
	O360	O	0.510976	0.590313	0.640477
	H361	H	0.509990	0.600329	0.641440
	H362	H	0.503269	0.575840	0.626177
	O363	O	0.587407	0.525644	0.546796
	H364	H	0.583712	0.532324	0.541405
	H365	H	0.575790	0.531617	0.545829
	O366	O	0.869358	0.944217	1.122886
	H367	H	0.874055	0.938524	1.109602
	H368	H	0.850486	0.939048	1.121854
	O369	O	0.963778	-0.052266	0.968171
	H370	H	0.950459	-0.032561	0.971760
	H371	H	0.959064	-0.045136	0.958104
	O372	O	0.085112	0.041531	0.052269
	H373	H	0.072499	0.033127	0.045825
	H374	H	0.092895	0.044455	0.054626
	O375	O	1.052480	0.021285	0.064943
	H376	H	1.052809	0.011732	0.073889
	H377	H	1.067565	0.011502	0.062717
	O378	O	1.024838	1.031574	0.978208
	H379	H	1.007394	1.035683	0.977115
	H380	H	1.028303	1.029391	0.994886
	O381	O	0.429471	0.532957	0.531305
	H382	H	0.420543	0.530725	0.533808
	H383	H	0.439393	0.524695	0.534459
