data_Molecule from HDF5

_cell_length_a		16.226107
_cell_length_b		16.334842
_cell_length_c		16.265878
_cell_angle_alpha	90.011414
_cell_angle_beta	90.121509
_cell_angle_gamma	90.075367
_symmetry_space_group_name_H-M	'P 1'
_symmetry_Int_Tables_number		1

loop_
	_symmetry_equiv_pos_as_xyz
	x,y,z

loop_
	_atom_site_label
	_atom_site_type_symbol
	_atom_site_fract_x
	_atom_site_fract_y
	_atom_site_fract_z
	H0	H	0.398484	0.846925	0.713504
	H1	H	0.598249	0.172650	0.713428
	H2	H	0.596824	0.846893	0.282524
	H3	H	0.399730	0.173033	0.283435
	H4	H	0.711795	0.412636	0.833670
	H5	H	0.714088	0.608013	0.161825
	H6	H	0.283816	0.606473	0.834854
	H7	H	0.286498	0.411057	0.163134
	H8	H	0.834119	0.723242	0.398678
	H9	H	0.162439	0.725560	0.597882
	H10	H	0.834946	0.294232	0.597516
	H11	H	0.162145	0.294404	0.399021
	H12	H	0.834364	0.410528	0.711681
	H13	H	0.163262	0.608485	0.712249
	H14	H	0.835641	0.608853	0.281727
	H15	H	0.163957	0.411939	0.286391
	H16	H	0.398799	0.723811	0.834330
	H17	H	0.600029	0.725985	0.160525
	H18	H	0.598348	0.294546	0.834112
	H19	H	0.400604	0.293384	0.161498
	H20	H	0.712895	0.846935	0.398868
	H21	H	0.713247	0.173089	0.596385
	H22	H	0.284474	0.846080	0.595918
	H23	H	0.283938	0.173083	0.400169
	H24	H	0.899178	0.346493	0.213904
	H25	H	0.098913	0.671624	0.213607
	H26	H	0.097109	0.346232	0.782451
	H27	H	0.899219	0.672057	0.781838
	H28	H	0.210236	0.913758	0.333227
	H29	H	0.213025	0.107576	0.662715
	H30	H	0.784933	0.107344	0.333231
	H31	H	0.784554	0.911826	0.662322
	H32	H	0.335072	0.224329	0.898260
	H33	H	0.662541	0.223369	0.096703
	H34	H	0.334848	0.794050	0.096546
	H35	H	0.661965	0.794994	0.898507
	H36	H	0.333711	0.911296	0.210595
	H37	H	0.662114	0.108179	0.213009
	H38	H	0.334322	0.108442	0.783333
	H39	H	0.662582	0.911756	0.784528
	H40	H	0.899596	0.224505	0.334349
	H41	H	0.099143	0.225496	0.661613
	H42	H	0.096626	0.794948	0.334512
	H43	H	0.899211	0.794204	0.661622
	H44	H	0.212337	0.345442	0.900765
	H45	H	0.213460	0.672073	0.097452
	H46	H	0.784446	0.345819	0.095566
	H47	H	0.785306	0.672799	0.899544
	H48	H	0.404820	0.125393	0.589017
	H49	H	0.581109	0.897393	0.587008
	H50	H	0.596806	0.126804	0.407074
	H51	H	0.401773	0.895194	0.412625
	H52	H	0.591252	0.420212	0.112549
	H53	H	0.600001	0.603351	0.879639
	H54	H	0.414389	0.609866	0.114739
	H55	H	0.414474	0.420308	0.885520
	H56	H	0.115279	0.597057	0.401729
	H57	H	0.879795	0.610786	0.590946
	H58	H	0.116034	0.421374	0.597424
	H59	H	0.883221	0.417415	0.406280
	H60	H	0.117478	0.409345	0.590336
	H61	H	0.885480	0.599183	0.581450
	H62	H	0.117598	0.609133	0.402998
	H63	H	0.881593	0.417229	0.404968
	H64	H	0.397388	0.604301	0.117484
	H65	H	0.588589	0.596242	0.884255
	H66	H	0.587293	0.414553	0.114014
	H67	H	0.405246	0.405421	0.878675
	H68	H	0.589270	0.127088	0.398472
	H69	H	0.601525	0.893430	0.584381
	H70	H	0.405320	0.126242	0.592283
	H71	H	0.397059	0.890155	0.398587
	H72	H	0.906803	0.625077	0.090212
	H73	H	0.094695	0.388309	0.102655
	H74	H	0.091847	0.622681	0.913685
	H75	H	0.908370	0.395090	0.907946
	H76	H	0.093285	0.927984	0.612269
	H77	H	0.089517	0.097852	0.383609
	H78	H	0.909838	0.105461	0.614082
	H79	H	0.906114	0.916669	0.381966
	H80	H	0.612186	0.095403	0.907419
	H81	H	0.376385	0.103372	0.104519
	H82	H	0.614556	0.926453	0.098500
	H83	H	0.379173	0.913307	0.899532
	H84	H	0.618996	0.906601	0.092136
	H85	H	0.380450	0.114415	0.081586
	H86	H	0.618106	0.103499	0.898125
	H87	H	0.381895	0.912650	0.910743
	H88	H	0.901395	0.105346	0.615765
	H89	H	0.086422	0.106866	0.381705
	H90	H	0.080835	0.911756	0.612777
	H91	H	0.905251	0.915287	0.381665
	H92	H	0.098317	0.627915	0.901824
	H93	H	0.082909	0.395898	0.090923
	H94	H	0.907245	0.624912	0.090810
	H95	H	0.900006	0.391457	0.905337
	H96	H	0.407952	0.125322	0.591473
	H97	H	0.592907	0.890054	0.603142
	H98	H	0.586049	0.123258	0.408071
	H99	H	0.411957	0.894503	0.399889
	H100	H	0.594324	0.414040	0.115469
	H101	H	0.587122	0.609983	0.880092
	H102	H	0.409749	0.592729	0.111582
	H103	H	0.396096	0.421765	0.880658
	H104	H	0.113221	0.602715	0.413255
	H105	H	0.882024	0.596363	0.597758
	H106	H	0.112111	0.420135	0.584403
	H107	H	0.881903	0.415639	0.405629
	H108	H	0.907396	0.624284	0.089932
	H109	H	0.099250	0.392555	0.085492
	H110	H	0.084564	0.624616	0.901516
	H111	H	0.907473	0.392538	0.898919
	H112	H	0.100697	0.910323	0.618843
	H113	H	0.095770	0.104686	0.380215
	H114	H	0.905119	0.098402	0.614066
	H115	H	0.904581	0.917150	0.381231
	H116	H	0.615959	0.108261	0.910626
	H117	H	0.386732	0.089604	0.085281
	H118	H	0.610556	0.920711	0.078430
	H119	H	0.383263	0.922491	0.904969
	C120	C	0.376947	0.017782	0.619517
	C121	C	0.620399	1.001494	0.620213
	C122	C	0.619390	0.018276	0.375803
	C123	C	0.375761	1.001312	0.375589
	C124	C	0.620094	0.387841	0.006066
	C125	C	0.620918	0.631555	0.989189
	C126	C	0.377423	0.630470	0.006505
	C127	C	0.377258	0.387451	0.989980
	C128	C	0.007175	0.631386	0.376604
	C129	C	0.990514	0.631362	0.619728
	C130	C	0.007000	0.388021	0.619398
	C131	C	0.990639	0.388455	0.377272
	C132	C	0.877324	0.517273	0.119679
	C133	C	0.120997	0.500206	0.120971
	C134	C	0.119967	0.517276	0.876735
	C135	C	0.876748	0.500890	0.875469
	C136	C	0.119756	0.888307	0.506454
	C137	C	0.120129	0.131565	0.490012
	C138	C	0.876942	0.131571	0.506192
	C139	C	0.876299	0.887609	0.489743
	C140	C	0.507185	0.130891	0.876438
	C141	C	0.489545	0.130982	0.119291
	C142	C	0.506551	0.888605	0.118696
	C143	C	0.489819	0.887917	0.876351
	C144	C	0.378631	0.895549	0.675144
	C145	C	0.618346	0.124069	0.675416
	C146	C	0.617363	0.895507	0.320505
	C147	C	0.378780	0.124068	0.320840
	C148	C	0.674625	0.391107	0.882728
	C149	C	0.676285	0.628637	0.112663
	C150	C	0.321783	0.627502	0.883689
	C151	C	0.323506	0.390319	0.113796
	C152	C	0.883604	0.686090	0.378354
	C153	C	0.113656	0.687255	0.617914
	C154	C	0.883758	0.332259	0.617386
	C155	C	0.113664	0.332749	0.379321
	C156	C	0.883419	0.390289	0.674044
	C157	C	0.113914	0.629278	0.675041
	C158	C	0.884263	0.628998	0.320246
	C159	C	0.114431	0.391102	0.323155
	C160	C	0.378997	0.685708	0.883433
	C161	C	0.619581	0.687401	0.112146
	C162	C	0.618187	0.332533	0.882985
	C163	C	0.380011	0.331755	0.112910
	C164	C	0.675120	0.895660	0.378135
	C165	C	0.675397	0.124472	0.616922
	C166	C	0.321730	0.895045	0.616868
	C167	C	0.321525	0.124266	0.379095
	C168	C	0.879264	0.394966	0.175308
	C169	C	0.118844	0.623200	0.175595
	C170	C	0.117574	0.394762	0.820798
	C171	C	0.879038	0.623303	0.819776
	C172	C	0.173070	0.892482	0.382383
	C173	C	0.175532	0.128772	0.613594
	C174	C	0.822393	0.128031	0.382429
	C175	C	0.822198	0.891171	0.613230
	C176	C	0.383637	0.186213	0.878386
	C177	C	0.613454	0.185766	0.116956
	C178	C	0.383449	0.832450	0.116605
	C179	C	0.613162	0.832963	0.878428
	C180	C	0.382912	0.890760	0.173231
	C181	C	0.613226	0.128749	0.174872
	C182	C	0.383272	0.128422	0.821510
	C183	C	0.613371	0.891058	0.821841
	C184	C	0.879126	0.186612	0.383156
	C185	C	0.118732	0.187116	0.613126
	C186	C	0.116961	0.833287	0.383064
	C187	C	0.878756	0.832100	0.612770
	C188	C	0.174656	0.394181	0.879723
	C189	C	0.175935	0.623187	0.118092
	C190	C	0.821879	0.394747	0.116801
	C191	C	0.822174	0.623708	0.878027
	C192	C	0.399319	0.103625	0.597213
	C193	C	0.598212	0.915811	0.598127
	C194	C	0.597270	0.103669	0.397970
	C195	C	0.397254	0.915372	0.397245
	C196	C	0.597588	0.409894	0.091866
	C197	C	0.598532	0.609686	0.903418
	C198	C	0.400543	0.608743	0.092388
	C199	C	0.398792	0.409409	0.903824
	C200	C	0.093107	0.609411	0.399375
	C201	C	0.904445	0.608680	0.596606
	C202	C	0.093001	0.410491	0.597266
	C203	C	0.904587	0.410365	0.399060
	C204	C	0.900338	0.602629	0.097018
	C205	C	0.098722	0.414338	0.099495
	C206	C	0.097964	0.602920	0.899037
	C207	C	0.898818	0.415191	0.897571
	C208	C	0.098084	0.910149	0.592415
	C209	C	0.097456	0.109496	0.404107
	C210	C	0.898961	0.109569	0.592304
	C211	C	0.898562	0.909886	0.403706
	C212	C	0.593203	0.108748	0.898756
	C213	C	0.403524	0.108966	0.096888
	C214	C	0.592571	0.911345	0.096368
	C215	C	0.403594	0.909778	0.898458
	Zn216	Zn	0.498288	0.009602	0.748413
	Zn217	Zn	0.498041	0.009504	0.247207
	Zn218	Zn	0.748985	0.509323	-0.002606
	Zn219	Zn	0.248367	0.508876	-0.000661
	Zn220	Zn	-0.001335	0.759495	0.498059
	Zn221	Zn	-0.001239	0.259799	0.498063
	Zn222	Zn	-0.001284	0.509461	0.746980
	Zn223	Zn	-0.000665	0.509134	0.248669
	Zn224	Zn	0.498539	0.759944	-0.002112
	Zn225	Zn	0.498775	0.258993	-0.002584
	Zn226	Zn	0.748138	0.010000	0.497957
	Zn227	Zn	0.247875	0.009901	0.498180
	N228	N	0.412159	0.972755	0.676743
	N229	N	0.584984	0.046564	0.677422
	N230	N	0.583511	0.972621	0.318940
	N231	N	0.411816	0.046593	0.318638
	N232	N	0.675899	0.424955	0.960128
	N233	N	0.677144	0.594541	0.035247
	N234	N	0.320669	0.593861	0.961204
	N235	N	0.321627	0.424321	0.036286
	N236	N	0.961003	0.687552	0.412578
	N237	N	0.035881	0.688554	0.584228
	N238	N	0.961568	0.330842	0.583909
	N239	N	0.035745	0.331029	0.412418
	N240	N	0.961004	0.424155	0.675445
	N241	N	0.036234	0.595312	0.676175
	N242	N	0.962123	0.595736	0.318901
	N243	N	0.036901	0.425050	0.321737
	N244	N	0.412862	0.687737	0.961077
	N245	N	0.585976	0.689476	0.034517
	N246	N	0.584971	0.330368	0.960687
	N247	N	0.412811	0.329992	0.035089
	N248	N	0.676410	0.972825	0.411946
	N249	N	0.676696	0.047319	0.583162
	N250	N	0.320563	0.972281	0.582793
	N251	N	0.319502	0.046880	0.412426
	N252	N	0.913182	0.472185	0.177064
	N253	N	0.085663	0.545630	0.177846
	N254	N	0.084555	0.472286	0.818912
	N255	N	0.912483	0.545890	0.818207
	N256	N	0.175076	0.925658	0.460195
	N257	N	0.176689	0.095026	0.536038
	N258	N	0.820757	0.094531	0.460151
	N259	N	0.820556	0.924869	0.535702
	N260	N	0.461651	0.188038	0.911630
	N261	N	0.535664	0.187136	0.082946
	N262	N	0.461378	0.831021	0.083451
	N263	N	0.535327	0.830977	0.911791
	N264	N	0.460298	0.925253	0.174365
	N265	N	0.535341	0.095433	0.176398
	N266	N	0.460927	0.094661	0.820395
	N267	N	0.535756	0.924606	0.820656
	N268	N	0.912381	0.188733	0.460980
	N269	N	0.085244	0.189109	0.535441
	N270	N	0.084273	0.830873	0.460936
	N271	N	0.911913	0.829958	0.534957
	N272	N	0.176379	0.471378	0.913726
	N273	N	0.177346	0.545751	0.085018
	N274	N	0.820541	0.471854	0.083193
	N275	N	0.820606	0.546683	0.911871
	O276	O	0.570904	0.525682	0.467944
	H277	H	0.571055	0.521509	0.459751
	H278	H	0.570826	0.524723	0.459425
	O279	O	0.500114	0.547267	0.440024
	H280	H	0.504090	0.541443	0.447722
	H281	H	0.496732	0.551795	0.437264
	O282	O	0.475247	0.504653	0.462965
	H283	H	0.477894	0.498585	0.458781
	H284	H	0.475747	0.497604	0.460562
	O285	O	-0.010132	0.971114	1.050136
	H286	H	-0.012750	0.967776	1.046094
	H287	H	-0.010057	0.965360	1.052237
	O288	O	-0.058878	0.004266	0.990930
	H289	H	-0.059940	0.008165	0.987049
	H290	H	-0.048622	0.002616	0.993729
	O291	O	-0.003106	-0.028095	1.050217
	H292	H	0.005569	-0.030290	1.055130
	H293	H	-0.007840	-0.038866	1.050273
	O294	O	0.458698	0.479801	0.530014
	H295	H	0.451491	0.474087	0.529567
	H296	H	0.457412	0.479583	0.528842
	O297	O	0.467235	0.472674	0.498697
	H298	H	0.466563	0.470802	0.501302
	H299	H	0.466994	0.466837	0.501784
	O300	O	0.514486	0.503342	0.527561
	H301	H	0.510831	0.511439	0.532723
	H302	H	0.514375	0.501968	0.535703
	O303	O	0.501999	0.459044	0.427292
	H304	H	0.509767	0.458736	0.425755
	H305	H	0.503453	0.455184	0.425021
	O306	O	0.960155	0.021091	1.004401
	H307	H	0.955429	0.019285	1.014628
	H308	H	0.962387	0.023668	1.006250
	O309	O	0.572860	0.556558	0.536742
	H310	H	0.573156	0.553030	0.535018
	H311	H	0.573954	0.563973	0.541364
	O312	O	0.489437	0.513292	0.472649
	H313	H	0.491688	0.510998	0.462749
	H314	H	0.488416	0.520935	0.462084
	O315	O	0.895591	-0.034212	1.067944
	H316	H	0.908938	-0.026209	1.064955
	H317	H	0.888601	-0.037770	1.071245
	O318	O	0.552445	-0.434634	-0.502009
	H319	H	0.546050	-0.429276	-0.503452
	H320	H	0.552834	-0.439932	-0.513304
	O321	O	0.476478	0.460809	0.547163
	H322	H	0.471130	0.463881	0.554472
	H323	H	0.484107	0.458431	0.557332
	O324	O	0.963285	-0.051370	-0.000941
	H325	H	0.963019	-0.051854	0.004183
	H326	H	0.954119	-0.044208	-0.005575
	O327	O	0.955444	0.961833	-0.058106
	H328	H	0.952887	0.965681	-0.058080
	H329	H	0.944017	0.952146	-0.065178
	O330	O	0.473024	0.478577	0.484549
	H331	H	0.468163	0.481229	0.483935
	H332	H	0.479623	0.481301	0.491052
	O333	O	0.523326	0.517133	0.562296
	H334	H	0.533688	0.516975	0.582020
	H335	H	0.521677	0.527250	0.557777
