data_Molecule from HDF5

_cell_length_a		16.369516
_cell_length_b		16.277244
_cell_length_c		16.257262
_cell_angle_alpha	89.942547
_cell_angle_beta	89.966374
_cell_angle_gamma	90.182264
_symmetry_space_group_name_H-M	'P 1'
_symmetry_Int_Tables_number		1

loop_
	_symmetry_equiv_pos_as_xyz
	x,y,z

loop_
	_atom_site_label
	_atom_site_type_symbol
	_atom_site_fract_x
	_atom_site_fract_y
	_atom_site_fract_z
	H0	H	0.399208	0.835833	0.718820
	H1	H	0.596827	0.163341	0.719228
	H2	H	0.593878	0.835312	0.291926
	H3	H	0.400231	0.163581	0.290733
	H4	H	0.711939	0.401314	0.841388
	H5	H	0.712123	0.599802	0.169159
	H6	H	0.282640	0.598317	0.841105
	H7	H	0.281392	0.400360	0.168543
	H8	H	0.834161	0.713527	0.405676
	H9	H	0.161040	0.714714	0.603306
	H10	H	0.834609	0.283124	0.603110
	H11	H	0.160213	0.283920	0.404354
	H12	H	0.833921	0.401062	0.719392
	H13	H	0.161393	0.598414	0.719443
	H14	H	0.834819	0.596537	0.289755
	H15	H	0.160687	0.402539	0.290545
	H16	H	0.400006	0.713481	0.840497
	H17	H	0.594226	0.713950	0.169790
	H18	H	0.594927	0.285953	0.840669
	H19	H	0.399160	0.286049	0.169542
	H20	H	0.712819	0.836682	0.404926
	H21	H	0.713972	0.163026	0.604376
	H22	H	0.281063	0.836997	0.605142
	H23	H	0.283842	0.163674	0.405557
	H24	H	0.899157	0.335409	0.218569
	H25	H	0.094585	0.663970	0.217765
	H26	H	0.094047	0.335346	0.791787
	H27	H	0.900258	0.664271	0.790965
	H28	H	0.212934	0.901117	0.341235
	H29	H	0.212788	0.098768	0.668543
	H30	H	0.782563	0.098229	0.341137
	H31	H	0.781730	0.899018	0.668478
	H32	H	0.333544	0.213774	0.906338
	H33	H	0.659721	0.215376	0.103397
	H34	H	0.334367	0.784152	0.103941
	H35	H	0.660105	0.784848	0.906037
	H36	H	0.333967	0.901177	0.219624
	H37	H	0.660052	0.098414	0.220002
	H38	H	0.334236	0.097831	0.790131
	H39	H	0.660363	0.903682	0.791384
	H40	H	0.900184	0.212715	0.340252
	H41	H	0.095641	0.213868	0.668860
	H42	H	0.094532	0.786735	0.340109
	H43	H	0.899786	0.784748	0.669128
	H44	H	0.211809	0.335820	0.906513
	H45	H	0.211931	0.663351	0.103485
	H46	H	0.780773	0.336818	0.104556
	H47	H	0.782532	0.663630	0.905930
	H48	H	0.405907	0.114358	0.592217
	H49	H	0.589297	0.885172	0.593409
	H50	H	0.599651	0.116857	0.418456
	H51	H	0.398494	0.883094	0.418671
	H52	H	0.596674	0.407157	0.123871
	H53	H	0.596820	0.584993	0.889309
	H54	H	0.407367	0.593768	0.121041
	H55	H	0.402203	0.400802	0.886047
	H56	H	0.115389	0.598516	0.410098
	H57	H	0.883358	0.590879	0.597147
	H58	H	0.114742	0.401429	0.599747
	H59	H	0.879852	0.401825	0.406912
	H60	H	0.110954	0.407596	0.593085
	H61	H	0.882518	0.592799	0.600351
	H62	H	0.111124	0.593321	0.415564
	H63	H	0.882305	0.402839	0.415755
	H64	H	0.400353	0.593712	0.122595
	H65	H	0.580815	0.591053	0.892964
	H66	H	0.586679	0.413789	0.118421
	H67	H	0.399277	0.412350	0.889240
	H68	H	0.591063	0.119700	0.402280
	H69	H	0.594274	0.882528	0.598726
	H70	H	0.401124	0.117815	0.598076
	H71	H	0.402090	0.880748	0.406737
	H72	H	0.899956	0.615911	0.092424
	H73	H	0.089539	0.385131	0.092741
	H74	H	0.094961	0.616911	0.911736
	H75	H	0.893411	0.381361	0.912813
	H76	H	0.087204	0.908609	0.619648
	H77	H	0.083477	0.081443	0.393904
	H78	H	0.903431	0.094414	0.622276
	H79	H	0.904706	0.898997	0.386337
	H80	H	0.613602	0.103215	0.918610
	H81	H	0.382175	0.088535	0.100397
	H82	H	0.614218	0.893316	0.088911
	H83	H	0.383279	0.909095	0.913249
	H84	H	0.606562	0.920275	0.092499
	H85	H	0.379600	0.096165	0.101925
	H86	H	0.608298	0.084436	0.915831
	H87	H	0.380095	0.906251	0.907365
	H88	H	0.903748	0.088652	0.620814
	H89	H	0.085945	0.106599	0.385471
	H90	H	0.090847	0.903102	0.622202
	H91	H	0.896605	0.910099	0.387559
	H92	H	0.088583	0.616717	0.908321
	H93	H	0.095448	0.381322	0.099017
	H94	H	0.902733	0.618198	0.103644
	H95	H	0.908172	0.382346	0.904588
	H96	H	0.408861	0.115742	0.599541
	H97	H	0.586737	0.883493	0.600544
	H98	H	0.581900	0.111627	0.416123
	H99	H	0.410442	0.886343	0.414449
	H100	H	0.585238	0.401012	0.122101
	H101	H	0.592780	0.601477	0.885227
	H102	H	0.403510	0.588400	0.120068
	H103	H	0.410933	0.407892	0.891360
	H104	H	0.113397	0.590793	0.407960
	H105	H	0.882104	0.593870	0.596839
	H106	H	0.113319	0.410506	0.601750
	H107	H	0.882674	0.410226	0.409939
	H108	H	0.910585	0.613568	0.095868
	H109	H	0.086430	0.382950	0.101786
	H110	H	0.089114	0.613940	0.915610
	H111	H	0.907020	0.386720	0.920605
	H112	H	0.093455	0.908519	0.622013
	H113	H	0.106218	0.090400	0.384581
	H114	H	0.908195	0.091762	0.619529
	H115	H	0.909987	0.910852	0.391551
	H116	H	0.615815	0.095078	0.900868
	H117	H	0.381819	0.094224	0.094693
	H118	H	0.617737	0.905884	0.114046
	H119	H	0.380619	0.901977	0.913571
	C120	C	0.376077	0.008039	0.626370
	C121	C	0.619314	0.991492	0.626473
	C122	C	0.618722	0.007918	0.383370
	C123	C	0.375498	0.991451	0.383720
	C124	C	0.617692	0.378725	0.013338
	C125	C	0.618590	0.621739	0.997275
	C126	C	0.375784	0.620798	0.012926
	C127	C	0.375504	0.378218	0.997063
	C128	C	0.005523	0.621540	0.382968
	C129	C	0.990282	0.621051	0.626240
	C130	C	0.005057	0.377745	0.626211
	C131	C	0.989397	0.377233	0.382684
	C132	C	0.875735	0.507903	0.126293
	C133	C	0.118837	0.491438	0.126093
	C134	C	0.118828	0.507915	0.883399
	C135	C	0.875056	0.491785	0.883377
	C136	C	0.118856	0.878512	0.512754
	C137	C	0.119372	0.121114	0.496492
	C138	C	0.876491	0.120206	0.512753
	C139	C	0.875407	0.877615	0.496696
	C140	C	0.504802	0.122312	0.883037
	C141	C	0.489168	0.121225	0.126577
	C142	C	0.505241	0.877981	0.126636
	C143	C	0.489044	0.877682	0.883082
	C144	C	0.378431	0.885022	0.681629
	C145	C	0.617361	0.114645	0.681491
	C146	C	0.614946	0.884391	0.329028
	C147	C	0.379247	0.114623	0.328523
	C148	C	0.673251	0.381122	0.890045
	C149	C	0.674110	0.620172	0.120348
	C150	C	0.320905	0.618684	0.889823
	C151	C	0.319749	0.380034	0.120040
	C152	C	0.882899	0.675863	0.385175
	C153	C	0.112613	0.676347	0.623397
	C154	C	0.882810	0.321963	0.623372
	C155	C	0.111996	0.322392	0.384741
	C156	C	0.882601	0.380045	0.681488
	C157	C	0.112719	0.618725	0.681520
	C158	C	0.883117	0.617510	0.327839
	C159	C	0.111835	0.380799	0.327701
	C160	C	0.379290	0.675698	0.889577
	C161	C	0.615345	0.676603	0.120767
	C162	C	0.615045	0.324046	0.889632
	C163	C	0.378157	0.323105	0.120320
	C164	C	0.673883	0.884920	0.385427
	C165	C	0.675527	0.114351	0.624647
	C166	C	0.319914	0.885507	0.625105
	C167	C	0.321045	0.114543	0.385271
	C168	C	0.878450	0.384536	0.180984
	C169	C	0.115844	0.614875	0.180727
	C170	C	0.114744	0.384027	0.829681
	C171	C	0.879098	0.615165	0.828684
	C172	C	0.174281	0.880939	0.389727
	C173	C	0.174385	0.118999	0.619999
	C174	C	0.820776	0.118232	0.389774
	C175	C	0.820585	0.879675	0.619914
	C176	C	0.382339	0.176309	0.885701
	C177	C	0.611508	0.176558	0.123650
	C178	C	0.382552	0.822961	0.123695
	C179	C	0.611607	0.823195	0.885835
	C180	C	0.382417	0.880644	0.181556
	C181	C	0.611563	0.118647	0.181732
	C182	C	0.382749	0.118947	0.827819
	C183	C	0.611659	0.881984	0.828596
	C184	C	0.879180	0.175152	0.389310
	C185	C	0.116440	0.176166	0.620050
	C186	C	0.115554	0.824254	0.389243
	C187	C	0.879052	0.822812	0.620211
	C188	C	0.173531	0.384402	0.886090
	C189	C	0.173993	0.614672	0.123682
	C190	C	0.819661	0.385159	0.124504
	C191	C	0.820417	0.614933	0.885492
	C192	C	0.398794	0.093748	0.603349
	C193	C	0.596652	0.906006	0.604195
	C194	C	0.597308	0.093931	0.405681
	C195	C	0.397190	0.905508	0.406718
	C196	C	0.595797	0.400691	0.099171
	C197	C	0.596569	0.599281	0.911294
	C198	C	0.397529	0.598563	0.099169
	C199	C	0.397609	0.400536	0.911139
	C200	C	0.091102	0.600371	0.404824
	C201	C	0.904798	0.598852	0.604450
	C202	C	0.090639	0.399992	0.604629
	C203	C	0.903626	0.398471	0.404600
	C204	C	0.897854	0.593808	0.103830
	C205	C	0.096808	0.405458	0.104292
	C206	C	0.097531	0.593696	0.905604
	C207	C	0.896487	0.405664	0.906017
	C208	C	0.096885	0.900295	0.598962
	C209	C	0.098252	0.099234	0.410429
	C210	C	0.898582	0.097911	0.598715
	C211	C	0.897389	0.900038	0.410558
	C212	C	0.590469	0.100629	0.905203
	C213	C	0.403317	0.099338	0.105229
	C214	C	0.590884	0.900008	0.105028
	C215	C	0.403430	0.899217	0.904956
	Zn216	Zn	0.497434	0.000262	0.754573
	Zn217	Zn	0.497028	-0.000634	0.255589
	Zn218	Zn	0.746682	0.500176	0.005518
	Zn219	Zn	0.247082	0.499500	0.004762
	Zn220	Zn	-0.002775	0.750147	0.504401
	Zn221	Zn	-0.002089	0.248650	0.504307
	Zn222	Zn	-0.002354	0.499557	0.755481
	Zn223	Zn	-0.002188	0.499517	0.254427
	Zn224	Zn	0.497234	0.749166	0.005161
	Zn225	Zn	0.496707	0.250025	0.004842
	Zn226	Zn	0.747371	-0.000444	0.504856
	Zn227	Zn	0.247566	-0.000100	0.504916
	N228	N	0.412792	0.962263	0.682499
	N229	N	0.582676	0.037522	0.682571
	N230	N	0.581422	0.961905	0.327755
	N231	N	0.412341	0.037082	0.327448
	N232	N	0.675257	0.414585	0.967921
	N233	N	0.676412	0.586803	0.042607
	N234	N	0.318910	0.585067	0.967490
	N235	N	0.317967	0.413615	0.042395
	N236	N	0.960101	0.678474	0.418686
	N237	N	0.035498	0.678101	0.589780
	N238	N	0.959973	0.320458	0.589669
	N239	N	0.034734	0.320150	0.418542
	N240	N	0.959626	0.413953	0.683237
	N241	N	0.035568	0.584977	0.683317
	N242	N	0.960367	0.584744	0.326082
	N243	N	0.034985	0.414391	0.326575
	N244	N	0.412495	0.677211	0.967255
	N245	N	0.581574	0.677531	0.043191
	N246	N	0.581362	0.322368	0.967083
	N247	N	0.412073	0.321938	0.042799
	N248	N	0.676173	0.962571	0.418799
	N249	N	0.677009	0.036861	0.591241
	N250	N	0.318506	0.963022	0.591242
	N251	N	0.318690	0.036963	0.418990
	N252	N	0.912555	0.461854	0.182237
	N253	N	0.082167	0.537397	0.182073
	N254	N	0.081560	0.461569	0.827796
	N255	N	0.912292	0.537516	0.827290
	N256	N	0.176467	0.914032	0.467630
	N257	N	0.176486	0.085630	0.542325
	N258	N	0.819012	0.084910	0.467663
	N259	N	0.818146	0.912957	0.542116
	N260	N	0.459397	0.178439	0.919134
	N261	N	0.534348	0.178083	0.090133
	N262	N	0.459834	0.821219	0.090248
	N263	N	0.534431	0.820706	0.919106
	N264	N	0.459624	0.914114	0.183390
	N265	N	0.534418	0.084921	0.183551
	N266	N	0.460084	0.085812	0.826196
	N267	N	0.534453	0.915333	0.826959
	N268	N	0.913204	0.176359	0.466579
	N269	N	0.082983	0.177520	0.542291
	N270	N	0.081747	0.822857	0.466672
	N271	N	0.912358	0.821512	0.542487
	N272	N	0.176043	0.462393	0.918924
	N273	N	0.176062	0.536918	0.090435
	N274	N	0.817910	0.462817	0.091102
	N275	N	0.817853	0.537143	0.918868
	O276	O	0.504741	0.509717	0.603539
	H277	H	0.508948	0.509781	0.606244
	H278	H	0.493979	0.508205	0.608683
	O279	O	0.471018	0.493555	0.600000
	H280	H	0.471317	0.499419	0.593977
	H281	H	0.466492	0.487711	0.609565
	O282	O	1.486689	0.504432	-0.403954
	H283	H	1.495139	0.502966	-0.400393
	H284	H	1.493220	0.510439	-0.401787
	O285	O	0.459263	0.493440	0.607070
	H286	H	0.458150	0.494726	0.600899
	H287	H	0.452922	0.486412	0.610594
