data_Molecule from HDF5

_cell_length_a		16.540103
_cell_length_b		16.489217
_cell_length_c		16.595741
_cell_angle_alpha	90.005681
_cell_angle_beta	89.982834
_cell_angle_gamma	89.948849
_symmetry_space_group_name_H-M	'P 1'
_symmetry_Int_Tables_number		1

loop_
	_symmetry_equiv_pos_as_xyz
	x,y,z

loop_
	_atom_site_label
	_atom_site_type_symbol
	_atom_site_fract_x
	_atom_site_fract_y
	_atom_site_fract_z
	H0	H	0.369427	0.853973	0.701308
	H1	H	0.580403	0.168059	0.703714
	H2	H	0.578655	0.855325	0.258935
	H3	H	0.365542	0.169293	0.258093
	H4	H	0.692286	0.409343	0.822960
	H5	H	0.695129	0.616199	0.137989
	H6	H	0.253246	0.615722	0.824907
	H7	H	0.251594	0.406827	0.137298
	H8	H	0.814598	0.729666	0.378491
	H9	H	0.129881	0.731544	0.584538
	H10	H	0.814808	0.292520	0.583024
	H11	H	0.130400	0.290736	0.376704
	H12	H	0.814526	0.409691	0.699011
	H13	H	0.130214	0.615076	0.700412
	H14	H	0.815426	0.614075	0.260551
	H15	H	0.128877	0.402742	0.257554
	H16	H	0.371370	0.730628	0.823802
	H17	H	0.578095	0.732694	0.138468
	H18	H	0.576571	0.292062	0.823455
	H19	H	0.367483	0.289215	0.136809
	H20	H	0.694531	0.854428	0.375248
	H21	H	0.694792	0.168904	0.586016
	H22	H	0.254450	0.853458	0.583656
	H23	H	0.249978	0.169663	0.374234
	H24	H	0.866264	0.352540	0.202986
	H25	H	0.076205	0.668596	0.201676
	H26	H	0.076909	0.353995	0.761210
	H27	H	0.872392	0.670239	0.763959
	H28	H	0.194666	0.906917	0.323559
	H29	H	0.192376	0.114953	0.637970
	H30	H	0.748749	0.120365	0.325081
	H31	H	0.751252	0.905696	0.635890
	H32	H	0.318081	0.233707	0.875761
	H33	H	0.631500	0.232154	0.084266
	H34	H	0.316194	0.792599	0.086401
	H35	H	0.632551	0.794372	0.881546
	H36	H	0.316677	0.907778	0.203687
	H37	H	0.630709	0.118662	0.203396
	H38	H	0.318002	0.117059	0.759238
	H39	H	0.631597	0.908093	0.762428
	H40	H	0.866770	0.234496	0.323868
	H41	H	0.074427	0.230898	0.637601
	H42	H	0.077635	0.790845	0.323179
	H43	H	0.870385	0.791637	0.636985
	H44	H	0.193472	0.353904	0.878228
	H45	H	0.192303	0.669735	0.085237
	H46	H	0.751705	0.352886	0.085664
	H47	H	0.755277	0.670010	0.879792
	H48	H	0.383822	0.126495	0.575343
	H49	H	0.555008	0.903567	0.565400
	H50	H	0.557820	0.123130	0.391501
	H51	H	0.383882	0.900872	0.392690
	H52	H	0.564704	0.419456	0.094285
	H53	H	0.564226	0.607861	0.867924
	H54	H	0.387058	0.601720	0.092849
	H55	H	0.377180	0.423364	0.867076
	H56	H	0.083849	0.599715	0.394176
	H57	H	0.862048	0.596535	0.570995
	H58	H	0.086677	0.422554	0.574904
	H59	H	0.858676	0.418732	0.388714
	H60	H	0.085739	0.417293	0.570143
	H61	H	0.858018	0.601818	0.577439
	H62	H	0.084949	0.596210	0.388809
	H63	H	0.862555	0.422730	0.396338
	H64	H	0.381861	0.605909	0.095838
	H65	H	0.569296	0.601554	0.868028
	H66	H	0.566111	0.425726	0.093015
	H67	H	0.387176	0.430510	0.872623
	H68	H	0.562675	0.123108	0.396602
	H69	H	0.569449	0.898076	0.565569
	H70	H	0.388076	0.122824	0.569802
	H71	H	0.386644	0.900959	0.391032
	H72	H	0.885482	0.619821	0.064105
	H73	H	0.058578	0.400783	0.066732
	H74	H	0.063200	0.623468	0.895707
	H75	H	0.878299	0.396364	0.892393
	H76	H	0.069341	0.919239	0.594992
	H77	H	0.063156	0.100743	0.368209
	H78	H	0.883519	0.104304	0.593404
	H79	H	0.884975	0.921392	0.368024
	H80	H	0.586378	0.098045	0.892017
	H81	H	0.361527	0.096528	0.075212
	H82	H	0.585009	0.920597	0.066617
	H83	H	0.357846	0.917233	0.888438
	H84	H	0.583319	0.928304	0.069894
	H85	H	0.360102	0.106688	0.069033
	H86	H	0.586989	0.100905	0.890141
	H87	H	0.361855	0.921641	0.894606
	H88	H	0.881212	0.096497	0.590722
	H89	H	0.063330	0.100132	0.369437
	H90	H	0.063242	0.927132	0.590070
	H91	H	0.882460	0.921039	0.367404
	H92	H	0.067707	0.626474	0.888056
	H93	H	0.065546	0.399693	0.066473
	H94	H	0.879982	0.624822	0.072211
	H95	H	0.881891	0.395759	0.884990
	H96	H	0.380499	0.124413	0.568329
	H97	H	0.561087	0.897659	0.578330
	H98	H	0.564377	0.126334	0.390736
	H99	H	0.386778	0.902368	0.394106
	H100	H	0.560235	0.423337	0.091385
	H101	H	0.561770	0.600420	0.870133
	H102	H	0.380564	0.599162	0.094066
	H103	H	0.389252	0.417610	0.869342
	H104	H	0.086420	0.601932	0.389058
	H105	H	0.859400	0.605895	0.568812
	H106	H	0.084086	0.424911	0.568339
	H107	H	0.861753	0.427479	0.389124
	H108	H	0.890476	0.621374	0.073920
	H109	H	0.061313	0.397755	0.072245
	H110	H	0.058176	0.624540	0.887733
	H111	H	0.886606	0.399262	0.891152
	H112	H	0.058784	0.917345	0.592153
	H113	H	0.062050	0.099997	0.367685
	H114	H	0.889284	0.099167	0.589243
	H115	H	0.883906	0.923286	0.368316
	H116	H	0.586235	0.101084	0.893272
	H117	H	0.365257	0.097296	0.063809
	H118	H	0.587292	0.922575	0.074342
	H119	H	0.361074	0.925062	0.887393
	C120	C	0.352124	0.020325	0.602774
	C121	C	0.594709	1.003345	0.601961
	C122	C	0.594238	0.020462	0.359823
	C123	C	0.352448	1.004860	0.359916
	C124	C	0.594921	0.391042	-0.011063
	C125	C	0.596194	0.634167	0.972706
	C126	C	0.351880	0.633813	-0.009776
	C127	C	0.352030	0.390673	0.972701
	C128	C	-0.019280	0.631300	0.359570
	C129	C	0.964252	0.633051	0.602622
	C130	C	-0.018902	0.390495	0.601872
	C131	C	0.964511	0.390016	0.359322
	C132	C	0.852303	0.518187	0.102213
	C133	C	0.093824	0.503084	0.101541
	C134	C	0.094718	0.520212	0.859319
	C135	C	0.852043	0.502455	0.859584
	C136	C	0.095678	0.889403	0.488862
	C137	C	0.094205	0.132529	0.472082
	C138	C	0.851580	0.133233	0.488302
	C139	C	0.852155	0.890128	0.471542
	C140	C	0.482807	0.132619	0.859556
	C141	C	0.465568	0.133308	0.102021
	C142	C	0.481732	0.891453	0.102872
	C143	C	0.465020	0.890368	0.859994
	C144	C	0.350805	0.901301	0.661400
	C145	C	0.597777	0.121195	0.662922
	C146	C	0.596841	0.902421	0.299246
	C147	C	0.348819	0.122681	0.298998
	C148	C	0.653307	0.390169	0.870447
	C149	C	0.655414	0.635357	0.090881
	C150	C	0.293257	0.634543	0.871623
	C151	C	0.291816	0.388258	0.090341
	C152	C	0.862023	0.690097	0.359322
	C153	C	0.082698	0.691982	0.603394
	C154	C	0.862093	0.332124	0.602287
	C155	C	0.082720	0.329807	0.357493
	C156	C	0.862090	0.390086	0.660168
	C157	C	0.082841	0.634249	0.661176
	C158	C	0.862411	0.632670	0.300763
	C159	C	0.082223	0.385918	0.298464
	C160	C	0.351620	0.691976	0.871529
	C161	C	0.597127	0.693084	0.091204
	C162	C	0.595632	0.331972	0.870619
	C163	C	0.349382	0.329808	0.089929
	C164	C	0.654269	0.901757	0.357265
	C165	C	0.654876	0.121466	0.604440
	C166	C	0.293668	0.901147	0.602894
	C167	C	0.290974	0.122550	0.356679
	C168	C	0.848610	0.400059	0.162588
	C169	C	0.095247	0.621602	0.161701
	C170	C	0.096192	0.401234	0.800548
	C171	C	0.852566	0.622535	0.802764
	C172	C	0.155097	0.888067	0.370799
	C173	C	0.152754	0.133835	0.590664
	C174	C	0.789828	0.137497	0.371444
	C175	C	0.792064	0.887723	0.589266
	C176	C	0.364885	0.193239	0.857246
	C177	C	0.584026	0.193316	0.103811
	C178	C	0.363294	0.832401	0.104718
	C179	C	0.584730	0.832840	0.861154
	C180	C	0.363791	0.889340	0.163310
	C181	C	0.583665	0.136663	0.162762
	C182	C	0.364860	0.135251	0.799609
	C183	C	0.584297	0.889243	0.802069
	C184	C	0.848653	0.194264	0.370901
	C185	C	0.094310	0.191430	0.590529
	C186	C	0.097018	0.830232	0.370508
	C187	C	0.851033	0.830868	0.589684
	C188	C	0.153897	0.401311	0.858683
	C189	C	0.152835	0.622249	0.103759
	C190	C	0.791648	0.399961	0.104162
	C191	C	0.794397	0.622354	0.859942
	C192	C	0.377049	0.103062	0.578171
	C193	C	0.569077	0.921071	0.576877
	C194	C	0.569066	0.102752	0.385507
	C195	C	0.378539	0.922873	0.385450
	C196	C	0.570526	0.415561	0.071624
	C197	C	0.572067	0.610238	0.890262
	C198	C	0.376141	0.609329	0.072780
	C199	C	0.377287	0.416500	0.890980
	C200	C	0.063414	0.606470	0.383859
	C201	C	0.881156	0.608649	0.579021
	C202	C	0.063842	0.414512	0.577937
	C203	C	0.882422	0.415467	0.384257
	C204	C	0.878003	0.600443	0.077159
	C205	C	0.068982	0.420914	0.075962
	C206	C	0.070176	0.603179	0.883631
	C207	C	0.875405	0.418990	0.882807
	C208	C	0.071013	0.914086	0.570956
	C209	C	0.069905	0.107591	0.389858
	C210	C	0.877254	0.107314	0.569730
	C211	C	0.876650	0.915056	0.389368
	C212	C	0.565076	0.107304	0.884616
	C213	C	0.383695	0.107535	0.076736
	C214	C	0.563913	0.916662	0.077756
	C215	C	0.381891	0.914344	0.883409
	Zn216	Zn	0.474023	0.011302	0.731073
	Zn217	Zn	0.473462	0.013013	0.230812
	Zn218	Zn	0.724445	0.511281	-0.018781
	Zn219	Zn	0.223221	0.512113	-0.018758
	Zn220	Zn	-0.026375	0.760909	0.480090
	Zn221	Zn	-0.027405	0.261909	0.480286
	Zn222	Zn	-0.026817	0.511235	0.730970
	Zn223	Zn	-0.026963	0.510080	0.230514
	Zn224	Zn	0.473317	0.762634	-0.017960
	Zn225	Zn	0.473928	0.261688	-0.019028
	Zn226	Zn	0.723134	0.011854	0.480105
	Zn227	Zn	0.223854	0.011543	0.480704
	N228	N	0.386678	0.976494	0.661380
	N229	N	0.561150	0.046445	0.661705
	N230	N	0.560310	0.977253	0.300640
	N231	N	0.386598	0.048445	0.300885
	N232	N	0.653006	0.426084	0.945148
	N233	N	0.655287	0.599623	0.016226
	N234	N	0.293031	0.599431	0.946713
	N235	N	0.293256	0.425295	0.016241
	N236	N	0.936867	0.689375	0.395162
	N237	N	0.007773	0.691519	0.567944
	N238	N	0.937103	0.332187	0.566780
	N239	N	0.008590	0.332139	0.394660
	N240	N	0.937188	0.425374	0.660286
	N241	N	0.008050	0.598244	0.660849
	N242	N	0.937379	0.597148	0.300663
	N243	N	0.007737	0.422541	0.299343
	N244	N	0.387290	0.691732	0.946309
	N245	N	0.560970	0.692681	0.016655
	N246	N	0.560297	0.332266	0.945462
	N247	N	0.386137	0.331087	0.015790
	N248	N	0.652850	0.976416	0.394214
	N249	N	0.653456	0.047072	0.567563
	N250	N	0.294229	0.976340	0.567367
	N251	N	0.293277	0.048347	0.393975
	N252	N	0.885637	0.474599	0.161497
	N253	N	0.059491	0.546351	0.160793
	N254	N	0.060269	0.476392	0.800828
	N255	N	0.887340	0.546849	0.801896
	N256	N	0.154400	0.924097	0.445319
	N257	N	0.152919	0.098203	0.515960
	N258	N	0.791648	0.100060	0.445432
	N259	N	0.792541	0.923791	0.514734
	N260	N	0.439348	0.191847	0.893768
	N261	N	0.509609	0.191515	0.067028
	N262	N	0.437695	0.833405	0.068023
	N263	N	0.509496	0.833111	0.896213
	N264	N	0.438724	0.925229	0.162427
	N265	N	0.508984	0.100402	0.161961
	N266	N	0.439331	0.098655	0.800682
	N267	N	0.508778	0.924009	0.801036
	N268	N	0.886335	0.191876	0.444617
	N269	N	0.058987	0.191177	0.515542
	N270	N	0.060876	0.830688	0.444994
	N271	N	0.887414	0.831924	0.515267
	N272	N	0.153247	0.476445	0.894262
	N273	N	0.152216	0.547603	0.067061
	N274	N	0.793727	0.474668	0.067412
	N275	N	0.793795	0.546692	0.894347
	O276	O	0.937549	1.211398	-0.162925
	H277	H	0.926486	1.224292	-0.184625
	H278	H	0.913066	1.205977	-0.161827
	O279	O	0.167264	0.094218	1.180338
	H280	H	0.160107	0.089408	1.169278
	H281	H	0.159095	0.088456	1.181080
	O282	O	0.029305	0.004581	0.987883
	H283	H	0.035154	0.010818	0.993078
	H284	H	0.041278	0.005598	0.992139
	O285	O	0.640039	0.357813	0.669310
	H286	H	0.614688	0.351394	0.652155
	H287	H	0.629289	0.359306	0.672628
	O288	O	1.284846	-0.306811	1.667494
	H289	H	1.305159	-0.321122	1.646083
	H290	H	1.300995	-0.330777	1.656144
	O291	O	1.153946	-0.194087	-0.028385
	H292	H	1.171243	-0.220012	-0.034358
	H293	H	1.150589	-0.187172	-0.056202
	O294	O	0.418535	0.544214	0.343913
	H295	H	0.419719	0.530522	0.341372
	H296	H	0.435550	0.540895	0.359182
	O297	O	0.507641	-0.264414	-0.295874
	H298	H	0.513183	-0.232118	-0.264086
	H299	H	0.542218	-0.272663	-0.306444
	O300	O	0.179958	0.218265	0.111632
	H301	H	0.189679	0.201037	0.110754
	H302	H	0.187879	0.218091	0.080984
	O303	O	-0.240351	-0.196690	0.070431
	H304	H	-0.246092	-0.199465	0.060696
	H305	H	-0.244668	-0.202484	0.063972
	O306	O	1.437139	0.298050	-0.304731
	H307	H	1.410044	0.296884	-0.305559
	H308	H	1.417061	0.277026	-0.289817
	O309	O	-0.268420	0.799665	-0.230963
	H310	H	-0.254021	0.811036	-0.230390
	H311	H	-0.261345	0.788366	-0.224401
	O312	O	0.551294	0.518416	0.503090
	H313	H	0.552707	0.521868	0.499525
	H314	H	0.566611	0.498978	0.508866
	O315	O	0.465715	0.563900	0.697844
	H316	H	0.466085	0.567374	0.700274
	H317	H	0.471391	0.568074	0.698029
	O318	O	0.787095	0.826945	-0.148773
	H319	H	0.799704	0.848423	-0.143975
	H320	H	0.783247	0.827457	-0.144513
	O321	O	-0.241472	1.029288	1.013492
	H322	H	-0.245488	1.014700	1.029351
	H323	H	-0.237920	1.022787	1.011792
	O324	O	0.778206	0.048966	0.762727
	H325	H	0.754790	0.057483	0.734284
	H326	H	0.787735	0.074590	0.785259
	O327	O	0.009546	1.180702	1.162046
	H328	H	0.027603	1.186472	1.159043
	H329	H	0.026950	1.189351	1.181581
	O330	O	0.495679	0.592421	0.370736
	H331	H	0.499979	0.611422	0.381177
	H332	H	0.482746	0.582218	0.381400
	O333	O	0.491560	1.557521	1.368504
	H334	H	0.490001	1.562045	1.366844
	H335	H	0.497501	1.565160	1.380566
	O336	O	0.501017	0.386603	0.484607
	H337	H	0.499922	0.379775	0.484876
	H338	H	0.509442	0.384985	0.478417
	O339	O	0.255662	0.304373	0.540227
	H340	H	0.246246	0.285988	0.548006
	H341	H	0.250510	0.292903	0.536055
	O342	O	0.146290	1.193680	-0.199814
	H343	H	0.135511	1.176417	-0.180247
	H344	H	0.131669	1.181951	-0.181741
	O345	O	0.279708	0.431955	0.414385
	H346	H	0.290116	0.426409	0.417843
	H347	H	0.278694	0.430232	0.397005
	O348	O	0.455484	0.696313	0.402380
	H349	H	0.470267	0.723945	0.393708
	H350	H	0.467907	0.683757	0.414922
	O351	O	0.529399	-0.337473	1.417554
	H352	H	0.527180	-0.349216	1.421751
	H353	H	0.522494	-0.338288	1.434414
	O354	O	0.963438	0.212819	0.928236
	H355	H	0.950858	0.207410	0.934154
	H356	H	0.953254	0.220786	0.919159
	O357	O	0.256844	0.728639	0.451891
	H358	H	0.235553	0.747752	0.438008
	H359	H	0.257168	0.728134	0.433064
	O360	O	1.435547	0.400103	1.355813
	H361	H	1.431477	0.401123	1.350418
	H362	H	1.428659	0.395384	1.343301
	O363	O	1.066772	0.979322	-0.051619
	H364	H	1.065888	0.985830	-0.041779
	H365	H	1.073130	0.959856	-0.046578
	O366	O	1.141609	1.180824	0.959006
	H367	H	1.136268	1.162149	0.947823
	H368	H	1.145527	1.173261	0.958303
	O369	O	0.235922	-0.251844	1.244694
	H370	H	0.263747	-0.255686	1.234806
	H371	H	0.240611	-0.285304	1.245406
	O372	O	0.650899	0.498246	1.478750
	H373	H	0.649609	0.493164	1.489243
	H374	H	0.652425	0.506544	1.475607
	O375	O	1.502999	-0.712772	0.257361
	H376	H	1.548336	-0.704301	0.267331
	H377	H	1.514591	-0.746052	0.223850
	O378	O	0.529333	0.297345	0.549970
	H379	H	0.510146	0.301880	0.557063
	H380	H	0.506566	0.300223	0.549395
	O381	O	0.671669	0.587146	0.597707
	H382	H	0.664195	0.571620	0.619923
	H383	H	0.670562	0.580388	0.586633
	O384	O	0.573230	0.625040	0.273742
	H385	H	0.552530	0.616163	0.279964
	H386	H	0.570953	0.617495	0.294237
	O387	O	-0.057256	1.083669	1.005198
	H388	H	-0.045909	1.083256	1.004039
	H389	H	-0.043937	1.094428	1.002192
	O390	O	-0.239049	0.985214	1.196389
	H391	H	-0.263911	0.974282	1.215201
	H392	H	-0.217964	0.977735	1.201056
	O393	O	0.931214	0.124669	0.132006
	H394	H	0.949260	0.119005	0.135219
	H395	H	0.953252	0.116624	0.137334
	O396	O	0.288134	0.338257	0.677385
	H397	H	0.284072	0.356542	0.657586
	H398	H	0.262472	0.316199	0.703518
	O399	O	0.272084	0.491900	0.684641
	H400	H	0.263723	0.486541	0.694862
	H401	H	0.266974	0.491895	0.679542
	O402	O	0.999420	-0.080989	1.035928
	H403	H	1.010611	-0.070424	1.045591
	H404	H	0.991344	-0.071415	1.030920
	O405	O	0.816449	0.219280	0.769368
	H406	H	0.809645	0.233296	0.752888
	H407	H	0.814035	0.227420	0.816979
	O408	O	0.856244	0.815695	1.087917
	H409	H	0.854484	0.817789	1.104345
	H410	H	0.852998	0.806564	1.070015
	O411	O	1.192230	0.985456	-0.234501
	H412	H	1.187094	0.953197	-0.241809
	H413	H	1.210970	0.965464	-0.256744
	O414	O	-0.050907	-0.000220	-0.181651
	H415	H	-0.041537	0.000897	-0.179734
	H416	H	-0.050377	0.015282	-0.182701
	O417	O	1.093322	-0.105512	0.130311
	H418	H	1.089112	-0.114066	0.131719
	H419	H	1.104307	-0.114634	0.143245
	O420	O	1.372527	-0.316411	1.413717
	H421	H	1.376375	-0.314988	1.403927
	H422	H	1.371750	-0.329796	1.427149
	O423	O	1.016656	0.811033	-0.231917
	H424	H	0.998532	0.808654	-0.239980
	H425	H	0.993784	0.823197	-0.236397
	O426	O	0.441129	0.443648	0.571839
	H427	H	0.428842	0.450362	0.568540
	H428	H	0.435107	0.420832	0.572253
	O429	O	0.657949	0.325390	0.296499
	H430	H	0.679286	0.332423	0.300845
	H431	H	0.662654	0.347577	0.323546
	O432	O	1.183181	-0.017298	0.963578
	H433	H	1.177351	-0.038912	0.965616
	H434	H	1.194047	-0.037541	0.938144
	O435	O	0.317013	0.578858	0.507641
	H436	H	0.311070	0.580001	0.489600
	H437	H	0.316987	0.583528	0.503148
	O438	O	0.915767	0.804022	0.194168
	H439	H	0.894812	0.799857	0.176786
	H440	H	0.899509	0.790449	0.215048
	O441	O	0.678914	0.486761	0.272735
	H442	H	0.688659	0.494729	0.271524
	H443	H	0.676868	0.495215	0.269464
	O444	O	0.598693	0.708051	0.506436
	H445	H	0.617653	0.731802	0.504680
	H446	H	0.596770	0.690719	0.536170
	O447	O	0.180768	0.811522	0.776939
	H448	H	0.205178	0.777789	0.753686
	H449	H	0.127754	0.804800	0.769777
	O450	O	1.070047	-0.145725	-0.001140
	H451	H	1.087116	-0.154145	-0.003379
	H452	H	1.059332	-0.146574	0.009430
	O453	O	0.263803	0.526645	0.346643
	H454	H	0.255375	0.524663	0.332445
	H455	H	0.274439	0.500219	0.352042
	O456	O	-0.232081	1.217029	0.901368
	H457	H	-0.219720	1.230959	0.913336
	H458	H	-0.240683	1.220889	0.931464
	O459	O	0.619842	0.627775	0.600482
	H460	H	0.612562	0.595704	0.604173
	H461	H	0.630777	0.625702	0.620575
	O462	O	0.939806	-0.030168	1.086454
	H463	H	0.926200	-0.032185	1.088495
	H464	H	0.941819	-0.026920	1.086401
	O465	O	0.678416	0.310533	0.460471
	H466	H	0.682129	0.307558	0.469338
	H467	H	0.657184	0.297065	0.473788
	O468	O	-0.118992	1.050076	0.155359
	H469	H	-0.121810	1.061051	0.165733
	H470	H	-0.109025	1.023851	0.166654
	O471	O	0.781262	0.071404	-0.007846
	H472	H	0.784347	0.061783	0.012840
	H473	H	0.788442	0.074931	-0.011956
	O474	O	1.040186	1.081122	-0.125529
	H475	H	1.045253	1.073878	-0.128695
	H476	H	1.037590	1.063538	-0.115885
	O477	O	0.413047	0.457854	0.391237
	H478	H	0.416746	0.455444	0.385775
	H479	H	0.409936	0.457583	0.397417
