data_Molecule from HDF5

_cell_length_a		16.309870
_cell_length_b		16.404998
_cell_length_c		16.390222
_cell_angle_alpha	89.991614
_cell_angle_beta	89.926860
_cell_angle_gamma	89.872744
_symmetry_space_group_name_H-M	'P 1'
_symmetry_Int_Tables_number		1

loop_
	_symmetry_equiv_pos_as_xyz
	x,y,z

loop_
	_atom_site_label
	_atom_site_type_symbol
	_atom_site_fract_x
	_atom_site_fract_y
	_atom_site_fract_z
	H0	H	0.392470	0.842868	0.717381
	H1	H	0.602058	0.160847	0.719595
	H2	H	0.603762	0.843110	0.276317
	H3	H	0.391177	0.160609	0.275812
	H4	H	0.719394	0.395347	0.838738
	H5	H	0.716207	0.605650	0.157713
	H6	H	0.276921	0.603637	0.838576
	H7	H	0.277121	0.397158	0.158363
	H8	H	0.836380	0.721847	0.395700
	H9	H	0.158285	0.719063	0.600086
	H10	H	0.836445	0.282504	0.603549
	H11	H	0.158494	0.282688	0.396113
	H12	H	0.835883	0.398116	0.719098
	H13	H	0.158155	0.602440	0.715119
	H14	H	0.836759	0.606319	0.279388
	H15	H	0.158648	0.398203	0.279731
	H16	H	0.390315	0.722309	0.839103
	H17	H	0.603783	0.723129	0.155771
	H18	H	0.601820	0.280490	0.838204
	H19	H	0.391233	0.280887	0.157837
	H20	H	0.718732	0.842403	0.393072
	H21	H	0.715677	0.162191	0.600719
	H22	H	0.279201	0.841681	0.598447
	H23	H	0.276473	0.160789	0.392020
	H24	H	0.891825	0.343275	0.220938
	H25	H	0.101301	0.661533	0.218642
	H26	H	0.103330	0.342718	0.776509
	H27	H	0.891287	0.661461	0.778738
	H28	H	0.217390	0.898367	0.337278
	H29	H	0.217675	0.103490	0.658251
	H30	H	0.777279	0.107736	0.339062
	H31	H	0.776852	0.898558	0.657057
	H32	H	0.336239	0.221936	0.892243
	H33	H	0.656097	0.221201	0.101403
	H34	H	0.335338	0.782293	0.101628
	H35	H	0.657449	0.779747	0.892433
	H36	H	0.335817	0.897848	0.217690
	H37	H	0.656756	0.105869	0.217158
	H38	H	0.335056	0.103687	0.778965
	H39	H	0.657225	0.896116	0.776982
	H40	H	0.893066	0.222955	0.340011
	H41	H	0.103188	0.221716	0.658763
	H42	H	0.102628	0.780860	0.338390
	H43	H	0.892922	0.784111	0.658150
	H44	H	0.217232	0.342007	0.894291
	H45	H	0.216389	0.661415	0.101587
	H46	H	0.777838	0.342198	0.102654
	H47	H	0.775381	0.660542	0.893605
	H48	H	0.401457	0.116936	0.584142
	H49	H	0.584192	0.890325	0.584419
	H50	H	0.585686	0.114326	0.411146
	H51	H	0.414258	0.889962	0.408184
	H52	H	0.585063	0.409260	0.111138
	H53	H	0.591268	0.590373	0.882494
	H54	H	0.404974	0.594469	0.114553
	H55	H	0.410003	0.405876	0.883402
	H56	H	0.114313	0.594365	0.404668
	H57	H	0.880655	0.593943	0.590921
	H58	H	0.113323	0.405221	0.587488
	H59	H	0.882338	0.413574	0.406052
	H60	H	0.107850	0.415931	0.582489
	H61	H	0.881253	0.595956	0.587646
	H62	H	0.111204	0.594859	0.412571
	H63	H	0.883333	0.409256	0.413274
	H64	H	0.405976	0.586573	0.111193
	H65	H	0.583475	0.583379	0.887335
	H66	H	0.587919	0.410574	0.112274
	H67	H	0.401226	0.411944	0.882896
	H68	H	0.589902	0.117028	0.406614
	H69	H	0.590357	0.887967	0.585305
	H70	H	0.408131	0.118288	0.594548
	H71	H	0.403989	0.888369	0.412378
	H72	H	0.908041	0.614018	0.085692
	H73	H	0.080855	0.391924	0.082333
	H74	H	0.088997	0.614873	0.911045
	H75	H	0.912130	0.389362	0.906041
	H76	H	0.090968	0.917012	0.610401
	H77	H	0.087444	0.092020	0.384912
	H78	H	0.910843	0.089687	0.610510
	H79	H	0.911154	0.903129	0.382256
	H80	H	0.613458	0.095209	0.903452
	H81	H	0.382596	0.090553	0.084683
	H82	H	0.611160	0.904538	0.081809
	H83	H	0.383186	0.915771	0.905451
	H84	H	0.606476	0.919203	0.082528
	H85	H	0.381555	0.087367	0.088657
	H86	H	0.609813	0.092209	0.913661
	H87	H	0.380841	0.907822	0.905928
	H88	H	0.907741	0.095871	0.614352
	H89	H	0.086528	0.091516	0.385679
	H90	H	0.082147	0.909978	0.609688
	H91	H	0.899923	0.916718	0.382501
	H92	H	0.088834	0.617582	0.905157
	H93	H	0.095015	0.385860	0.087293
	H94	H	0.905637	0.616460	0.088241
	H95	H	0.908170	0.389895	0.912693
	H96	H	0.413533	0.112973	0.584125
	H97	H	0.585874	0.888648	0.590341
	H98	H	0.584252	0.115242	0.404359
	H99	H	0.406450	0.884858	0.402133
	H100	H	0.585393	0.412098	0.110218
	H101	H	0.579959	0.594187	0.883835
	H102	H	0.412549	0.593015	0.110368
	H103	H	0.410315	0.416103	0.887330
	H104	H	0.109933	0.587821	0.408182
	H105	H	0.883216	0.592125	0.588212
	H106	H	0.112416	0.416267	0.594779
	H107	H	0.885922	0.417207	0.412647
	H108	H	0.909769	0.615607	0.089813
	H109	H	0.082856	0.387192	0.097233
	H110	H	0.083257	0.614560	0.907413
	H111	H	0.904981	0.385766	0.907053
	H112	H	0.091935	0.906817	0.614341
	H113	H	0.086111	0.092578	0.385271
	H114	H	0.902785	0.089376	0.613967
	H115	H	0.916790	0.918316	0.387979
	H116	H	0.609146	0.085069	0.905448
	H117	H	0.381265	0.092328	0.088512
	H118	H	0.612802	0.912295	0.094648
	H119	H	0.384614	0.911581	0.912254
	C120	C	0.376320	0.010398	0.618188
	C121	C	0.618589	0.993639	0.618951
	C122	C	0.619577	0.010560	0.375239
	C123	C	0.375870	0.992967	0.375719
	C124	C	0.618863	0.378490	0.006030
	C125	C	0.617670	0.622010	0.989520
	C126	C	0.375593	0.622586	0.006728
	C127	C	0.374938	0.379446	0.989739
	C128	C	0.005680	0.623796	0.377241
	C129	C	0.988178	0.624091	0.619704
	C130	C	0.005201	0.380738	0.620481
	C131	C	0.989619	0.381433	0.378275
	C132	C	0.875904	0.510138	0.120346
	C133	C	0.118395	0.493389	0.120391
	C134	C	0.118697	0.510013	0.876569
	C135	C	0.875594	0.493497	0.876648
	C136	C	0.119667	0.880039	0.505976
	C137	C	0.119043	0.123445	0.490482
	C138	C	0.875614	0.123858	0.507721
	C139	C	0.876744	0.881454	0.489543
	C140	C	0.504868	0.122659	0.875868
	C141	C	0.487841	0.121902	0.118840
	C142	C	0.504664	0.879415	0.119110
	C143	C	0.488784	0.879448	0.875852
	C144	C	0.374382	0.890071	0.677115
	C145	C	0.620236	0.113248	0.679148
	C146	C	0.621690	0.890752	0.316089
	C147	C	0.373372	0.112859	0.315856
	C148	C	0.679572	0.376516	0.886669
	C149	C	0.677194	0.624013	0.109394
	C150	C	0.316102	0.623438	0.886586
	C151	C	0.316044	0.378254	0.110219
	C152	C	0.884755	0.682887	0.376526
	C153	C	0.109651	0.680974	0.619755
	C154	C	0.884400	0.321682	0.622071
	C155	C	0.110431	0.322277	0.377063
	C156	C	0.884041	0.379618	0.679352
	C157	C	0.109636	0.622770	0.676924
	C158	C	0.884759	0.625173	0.318968
	C159	C	0.110344	0.379753	0.319079
	C160	C	0.372910	0.682057	0.886707
	C161	C	0.620920	0.682582	0.108579
	C162	C	0.620856	0.319364	0.886200
	C163	C	0.373022	0.320315	0.109868
	C164	C	0.679208	0.890596	0.373978
	C165	C	0.676681	0.114037	0.619761
	C166	C	0.318224	0.889643	0.618137
	C167	C	0.316159	0.113034	0.373700
	C168	C	0.874068	0.390650	0.180288
	C169	C	0.120146	0.613677	0.178929
	C170	C	0.120759	0.390427	0.816957
	C171	C	0.872957	0.613296	0.817546
	C172	C	0.178302	0.879294	0.385437
	C173	C	0.178177	0.123222	0.610572
	C174	C	0.816835	0.125712	0.387167
	C175	C	0.817016	0.880309	0.609603
	C176	C	0.384210	0.182387	0.873913
	C177	C	0.608364	0.181349	0.119865
	C178	C	0.383865	0.821197	0.120425
	C179	C	0.609239	0.819604	0.874081
	C180	C	0.384106	0.878610	0.178435
	C181	C	0.608481	0.124271	0.177839
	C182	C	0.383607	0.123227	0.817731
	C183	C	0.609049	0.877384	0.816364
	C184	C	0.874174	0.183513	0.387688
	C185	C	0.121117	0.182066	0.610832
	C186	C	0.121021	0.820932	0.385901
	C187	C	0.874924	0.823269	0.609982
	C188	C	0.177669	0.389861	0.875702
	C189	C	0.177248	0.613643	0.120559
	C190	C	0.817321	0.390217	0.121432
	C191	C	0.815107	0.612916	0.874910
	C192	C	0.400536	0.094165	0.594414
	C193	C	0.594055	0.910514	0.593740
	C194	C	0.594082	0.093877	0.400153
	C195	C	0.401046	0.909539	0.400385
	C196	C	0.593537	0.403471	0.089439
	C197	C	0.592150	0.596634	0.906278
	C198	C	0.400713	0.598312	0.090156
	C199	C	0.399957	0.404199	0.906466
	C200	C	0.089863	0.599288	0.401357
	C201	C	0.903579	0.600864	0.596027
	C202	C	0.089173	0.405250	0.595419
	C203	C	0.905729	0.406214	0.403380
	C204	C	0.900612	0.593661	0.095320
	C205	C	0.093383	0.410018	0.096009
	C206	C	0.094015	0.593892	0.900861
	C207	C	0.901100	0.410010	0.901492
	C208	C	0.095318	0.904402	0.589772
	C209	C	0.093833	0.099235	0.406992
	C210	C	0.900125	0.098962	0.591139
	C211	C	0.902073	0.905591	0.405946
	C212	C	0.589030	0.098047	0.900488
	C213	C	0.403805	0.097242	0.094382
	C214	C	0.588428	0.904575	0.093750
	C215	C	0.404665	0.904417	0.900826
	Zn216	Zn	0.496095	0.001412	0.747465
	Zn217	Zn	0.496809	0.001417	0.247644
	Zn218	Zn	0.746635	0.501529	-0.001865
	Zn219	Zn	0.247044	0.501080	-0.001225
	Zn220	Zn	-0.002613	0.752302	0.498194
	Zn221	Zn	-0.002521	0.252417	0.499620
	Zn222	Zn	-0.003308	0.502257	0.747995
	Zn223	Zn	-0.002730	0.502589	0.249254
	Zn224	Zn	0.496964	0.750999	-0.002615
	Zn225	Zn	0.495688	0.250511	-0.002045
	Zn226	Zn	0.747801	0.002105	0.497592
	Zn227	Zn	0.248163	0.001931	0.497336
	N228	N	0.409698	0.965961	0.677190
	N229	N	0.584762	0.037306	0.678794
	N230	N	0.585824	0.966677	0.316286
	N231	N	0.409745	0.037205	0.316963
	N232	N	0.678571	0.412482	0.962370
	N233	N	0.675219	0.586699	0.034164
	N234	N	0.317587	0.587183	0.962127
	N235	N	0.317064	0.414338	0.034622
	N236	N	0.961094	0.682186	0.412125
	N237	N	0.033049	0.681964	0.585171
	N238	N	0.960795	0.322188	0.586327
	N239	N	0.034254	0.322999	0.413044
	N240	N	0.960197	0.415516	0.678700
	N241	N	0.032918	0.588362	0.677290
	N242	N	0.960831	0.589307	0.319339
	N243	N	0.034138	0.415913	0.319803
	N244	N	0.409264	0.681537	0.962309
	N245	N	0.584760	0.681515	0.033030
	N246	N	0.583768	0.320587	0.961503
	N247	N	0.409071	0.321000	0.034057
	N248	N	0.677972	0.966126	0.410078
	N249	N	0.675744	0.038825	0.583042
	N250	N	0.319428	0.965320	0.582213
	N251	N	0.317684	0.037707	0.410235
	N252	N	0.909746	0.466372	0.179626
	N253	N	0.084480	0.537900	0.179143
	N254	N	0.084582	0.466133	0.817626
	N255	N	0.909728	0.537839	0.818354
	N256	N	0.177405	0.915476	0.461065
	N257	N	0.177019	0.087579	0.534757
	N258	N	0.817507	0.089309	0.462617
	N259	N	0.817929	0.915875	0.533686
	N260	N	0.460580	0.182010	0.909398
	N261	N	0.532173	0.180232	0.083943
	N262	N	0.460124	0.821526	0.084303
	N263	N	0.533082	0.820628	0.910033
	N264	N	0.460398	0.914129	0.177887
	N265	N	0.532662	0.088035	0.177162
	N266	N	0.459672	0.086935	0.818604
	N267	N	0.533057	0.913874	0.817419
	N268	N	0.910204	0.182438	0.463495
	N269	N	0.085110	0.182310	0.535140
	N270	N	0.085332	0.821251	0.461898
	N271	N	0.911503	0.824122	0.534480
	N272	N	0.176540	0.465301	0.912030
	N273	N	0.176517	0.537712	0.085133
	N274	N	0.818266	0.465607	0.084662
	N275	N	0.816454	0.537373	0.910883
	O276	O	0.577455	0.307071	0.578178
	H277	H	0.572599	0.297143	0.582878
	H278	H	0.570672	0.295442	0.596488
	O279	O	0.508012	0.463955	0.549821
	H280	H	0.497551	0.474851	0.548296
	H281	H	0.512466	0.474824	0.548379
	O282	O	0.335158	0.368867	0.592672
	H283	H	0.341069	0.392375	0.600428
	H284	H	0.347667	0.355936	0.604819
	O285	O	0.924950	0.152035	-0.103817
	H286	H	0.922339	0.144032	-0.103512
	H287	H	0.907143	0.171675	-0.109439
	O288	O	-0.041872	0.181301	1.009459
	H289	H	-0.047553	0.191355	1.002951
	H290	H	-0.030192	0.184669	1.001896
	O291	O	0.584659	0.610217	0.668587
	H292	H	0.598513	0.594544	0.668055
	H293	H	0.598652	0.623321	0.647591
	O294	O	0.500278	0.504244	0.555660
	H295	H	0.506368	0.499232	0.549027
	H296	H	0.513215	0.501664	0.559526
	O297	O	1.119267	0.814198	0.824346
	H298	H	1.128777	0.814005	0.817675
	H299	H	1.121272	0.827597	0.808688
	O300	O	0.168545	-0.052329	-0.021346
	H301	H	0.169545	-0.059319	-0.022761
	H302	H	0.160284	-0.048707	-0.023351
	O303	O	0.324784	0.600673	0.529406
	H304	H	0.327144	0.596603	0.532228
	H305	H	0.319751	0.590759	0.528909
	O306	O	1.013785	-0.141092	0.099149
	H307	H	1.013602	-0.152314	0.099294
	H308	H	1.013278	-0.133900	0.110239
	O309	O	0.394027	0.311734	0.602659
	H310	H	0.381759	0.320760	0.605664
	H311	H	0.387553	0.308782	0.591385
	O312	O	0.886657	0.997344	-0.019978
	H313	H	0.893525	1.004469	-0.018986
	H314	H	0.889723	0.997424	-0.031461
	O315	O	0.529646	0.540671	0.429749
	H316	H	0.525340	0.557814	0.441988
	H317	H	0.526115	0.543052	0.450946
	O318	O	0.437952	0.538948	0.329635
	H319	H	0.443710	0.543366	0.343407
	H320	H	0.433776	0.533896	0.307768
	O321	O	1.044123	-0.012252	0.927600
	H322	H	1.045322	-0.016957	0.912483
	H323	H	1.029726	-0.010754	0.933563
	O324	O	-0.017416	0.022830	1.158769
	H325	H	-0.016547	0.024842	1.149327
	H326	H	-0.013793	0.032628	1.159866
	O327	O	0.540730	0.560617	0.330100
	H328	H	0.533727	0.569174	0.316422
	H329	H	0.544254	0.550401	0.328537
	O330	O	0.503824	0.393585	0.315472
	H331	H	0.509787	0.400559	0.318781
	H332	H	0.509448	0.392313	0.307622
	O333	O	0.896560	1.027331	0.999942
	H334	H	0.905323	1.017487	1.002573
	H335	H	0.892413	1.014379	0.995479
	O336	O	0.434829	0.577332	0.654784
	H337	H	0.442423	0.581925	0.645516
	H338	H	0.446256	0.580628	0.667474
	O339	O	1.140598	-0.041355	1.151774
	H340	H	1.147241	-0.052728	1.142781
	H341	H	1.143346	-0.033587	1.153196
	O342	O	-0.098114	0.936746	1.184786
	H343	H	-0.113365	0.944666	1.157295
	H344	H	-0.114833	0.956418	1.189040
	O345	O	-0.101114	1.004699	0.862541
	H346	H	-0.098074	0.997880	0.866758
	H347	H	-0.101853	0.990145	0.865458
	O348	O	0.316361	0.677145	0.352211
	H349	H	0.305623	0.650777	0.346834
	H350	H	0.305842	0.669626	0.377836
	O351	O	0.472205	-0.522856	-0.558554
	H352	H	0.486490	-0.522563	-0.562049
	H353	H	0.457142	-0.531712	-0.543940
	O354	O	0.884305	0.843156	0.197901
	H355	H	0.860354	0.852080	0.211216
	H356	H	0.890254	0.826188	0.208060
	O357	O	0.190334	0.847302	0.026294
	H358	H	0.177798	0.852275	0.012165
	H359	H	0.207021	0.841641	0.008156
	O360	O	0.345401	0.618804	0.672807
	H361	H	0.355969	0.621972	0.666535
	H362	H	0.361650	0.612781	0.671197
	O363	O	0.693543	0.512765	0.623230
	H364	H	0.698164	0.516425	0.622481
	H365	H	0.702991	0.498529	0.616443
	O366	O	0.497140	0.485864	0.607067
	H367	H	0.510412	0.498516	0.609446
	H368	H	0.492835	0.481928	0.587663
	O369	O	0.678839	0.446782	0.421047
	H370	H	0.669698	0.445512	0.415364
	H371	H	0.688769	0.443594	0.416195
	O372	O	0.499033	0.575696	0.361965
	H373	H	0.491798	0.575430	0.349322
	H374	H	0.489484	0.579013	0.364482
	O375	O	0.466242	0.398281	0.626514
	H376	H	0.466144	0.410724	0.622944
	H377	H	0.475220	0.387572	0.640540
	O378	O	0.362668	0.357447	0.404231
	H379	H	0.360839	0.361953	0.404514
	H380	H	0.355781	0.354725	0.408932
	O381	O	0.650664	0.526916	0.566348
	H382	H	0.652882	0.527843	0.546779
	H383	H	0.639677	0.516868	0.564373
	O384	O	0.038796	1.086901	0.817502
	H385	H	0.048653	1.099758	0.813399
	H386	H	0.021596	1.099488	0.818304
	O387	O	0.973849	1.165704	0.002092
	H388	H	0.967526	1.154721	0.003946
	H389	H	0.963133	1.168388	0.014657
	O390	O	0.557528	0.658109	0.697206
	H391	H	0.577320	0.669239	0.708285
	H392	H	0.560564	0.660900	0.698588
	O393	O	1.126709	0.063215	0.864618
	H394	H	1.133987	0.079320	0.887906
	H395	H	1.126733	0.064489	0.862609
	O396	O	0.092941	1.010403	0.948524
	H397	H	0.087724	1.023387	0.966145
	H398	H	0.097182	1.004837	0.959391
	O399	O	0.454559	0.712150	0.291058
	H400	H	0.434244	0.719687	0.280945
	H401	H	0.424067	0.723422	0.286742
	O402	O	0.982364	-0.187113	0.991777
	H403	H	0.999526	-0.180967	0.985434
	H404	H	0.973484	-0.196560	0.998302
	O405	O	0.036446	0.018450	-0.007126
	H406	H	0.049277	0.018514	-0.008021
	H407	H	0.048478	0.008588	-0.017039
	O408	O	0.787742	1.018728	1.121616
	H409	H	0.773946	1.020053	1.118472
	H410	H	0.798161	1.013696	1.119978
	O411	O	0.916511	1.015894	0.009181
	H412	H	0.921401	1.015842	0.010295
	H413	H	0.915204	1.010043	-0.002616
	O414	O	-0.075852	-0.052196	0.959762
	H415	H	-0.070009	-0.045557	0.951859
	H416	H	-0.073748	-0.050621	0.953254
	O417	O	0.624111	0.547011	0.505829
	H418	H	0.620912	0.549398	0.490172
	H419	H	0.623605	0.554768	0.497513
	O420	O	-0.191945	0.971737	-0.005099
	H421	H	-0.214921	0.966301	-0.005642
	H422	H	-0.165880	0.981039	-0.000390
	O423	O	1.054033	0.169827	-0.057526
	H424	H	1.043702	0.169864	-0.020490
	H425	H	1.079710	0.190724	-0.055608
	O426	O	0.114231	0.181387	1.097332
	H427	H	0.103247	0.180638	1.106971
	H428	H	0.097708	0.162008	1.102960
	O429	O	0.643267	0.324632	0.303352
	H430	H	0.646339	0.342239	0.304846
	H431	H	0.647039	0.310629	0.309753
