data_Molecule from HDF5

_cell_length_a		16.301382
_cell_length_b		16.458640
_cell_length_c		16.156088
_cell_angle_alpha	90.080382
_cell_angle_beta	90.300614
_cell_angle_gamma	89.863122
_symmetry_space_group_name_H-M	'P 1'
_symmetry_Int_Tables_number		1

loop_
	_symmetry_equiv_pos_as_xyz
	x,y,z

loop_
	_atom_site_label
	_atom_site_type_symbol
	_atom_site_fract_x
	_atom_site_fract_y
	_atom_site_fract_z
	H0	H	0.395003	0.842502	0.707765
	H1	H	0.592637	0.165686	0.707219
	H2	H	0.595219	0.842831	0.271946
	H3	H	0.392896	0.165069	0.275484
	H4	H	0.703295	0.405734	0.825416
	H5	H	0.706769	0.603410	0.154248
	H6	H	0.273217	0.606161	0.827342
	H7	H	0.276669	0.404606	0.154729
	H8	H	0.830365	0.721523	0.387201
	H9	H	0.152300	0.721091	0.598846
	H10	H	0.830204	0.282513	0.593908
	H11	H	0.152115	0.281907	0.387599
	H12	H	0.827388	0.404928	0.702931
	H13	H	0.154577	0.599433	0.706635
	H14	H	0.827758	0.599466	0.276461
	H15	H	0.153095	0.400853	0.274948
	H16	H	0.387303	0.722583	0.828040
	H17	H	0.593911	0.720467	0.153902
	H18	H	0.590637	0.287827	0.826514
	H19	H	0.389257	0.287171	0.153364
	H20	H	0.709893	0.841659	0.390079
	H21	H	0.711902	0.163940	0.593093
	H22	H	0.275485	0.842676	0.594209
	H23	H	0.272931	0.162392	0.387180
	H24	H	0.888740	0.341480	0.207896
	H25	H	0.091209	0.662774	0.210774
	H26	H	0.089385	0.341160	0.776121
	H27	H	0.888146	0.663875	0.771641
	H28	H	0.208256	0.900336	0.327027
	H29	H	0.209785	0.102076	0.654299
	H30	H	0.776096	0.101465	0.327849
	H31	H	0.776314	0.900192	0.654994
	H32	H	0.330170	0.222993	0.883667
	H33	H	0.652979	0.223527	0.094824
	H34	H	0.332820	0.784757	0.096532
	H35	H	0.652785	0.782766	0.886036
	H36	H	0.331017	0.904545	0.206723
	H37	H	0.656024	0.103004	0.206129
	H38	H	0.330108	0.104325	0.772594
	H39	H	0.656799	0.906771	0.779576
	H40	H	0.886473	0.220156	0.329199
	H41	H	0.096133	0.218786	0.653679
	H42	H	0.094643	0.781962	0.328945
	H43	H	0.890040	0.784419	0.654650
	H44	H	0.211913	0.344297	0.886044
	H45	H	0.210103	0.663100	0.096004
	H46	H	0.771821	0.342932	0.092015
	H47	H	0.771240	0.664292	0.886898
	H48	H	0.404773	0.119781	0.592759
	H49	H	0.586554	0.889972	0.580258
	H50	H	0.586787	0.118121	0.400154
	H51	H	0.402959	0.890798	0.404623
	H52	H	0.578373	0.416625	0.104666
	H53	H	0.576286	0.587269	0.878272
	H54	H	0.400494	0.600246	0.108662
	H55	H	0.404767	0.408458	0.873421
	H56	H	0.108862	0.596012	0.398556
	H57	H	0.878954	0.586792	0.579350
	H58	H	0.109206	0.410981	0.592698
	H59	H	0.872626	0.407391	0.392255
	H60	H	0.108816	0.399118	0.578900
	H61	H	0.873055	0.598209	0.587466
	H62	H	0.104982	0.594562	0.407891
	H63	H	0.876054	0.402352	0.405866
	H64	H	0.397495	0.592906	0.106570
	H65	H	0.573386	0.603915	0.873259
	H66	H	0.580439	0.407970	0.107992
	H67	H	0.393989	0.412790	0.872163
	H68	H	0.584159	0.117212	0.399056
	H69	H	0.589741	0.887865	0.586900
	H70	H	0.407920	0.112609	0.573097
	H71	H	0.396695	0.886378	0.397048
	H72	H	0.901093	0.615839	0.082291
	H73	H	0.079884	0.393021	0.071171
	H74	H	0.076914	0.613623	0.907396
	H75	H	0.897308	0.388170	0.893225
	H76	H	0.087071	0.906790	0.609199
	H77	H	0.085882	0.093516	0.372935
	H78	H	0.896519	0.088622	0.608638
	H79	H	0.905746	0.902677	0.374048
	H80	H	0.605077	0.097356	0.908501
	H81	H	0.373941	0.100591	0.086114
	H82	H	0.610883	0.901572	0.079703
	H83	H	0.375298	0.908138	0.898369
	H84	H	0.603569	0.918094	0.070897
	H85	H	0.377463	0.098425	0.076459
	H86	H	0.607286	0.092313	0.897498
	H87	H	0.378589	0.913185	0.905289
	H88	H	0.910162	0.089160	0.604181
	H89	H	0.081255	0.089654	0.376270
	H90	H	0.087661	0.914888	0.607426
	H91	H	0.893657	0.911496	0.373433
	H92	H	0.091502	0.620317	0.899502
	H93	H	0.094133	0.386266	0.082075
	H94	H	0.896190	0.617158	0.080618
	H95	H	0.900795	0.390886	0.900859
	H96	H	0.389270	0.120426	0.577966
	H97	H	0.582336	0.889203	0.586959
	H98	H	0.584980	0.116815	0.401808
	H99	H	0.407120	0.888961	0.395714
	H100	H	0.586953	0.414505	0.108652
	H101	H	0.589464	0.596504	0.870314
	H102	H	0.405848	0.594177	0.105598
	H103	H	0.402120	0.418885	0.876870
	H104	H	0.104781	0.586357	0.401297
	H105	H	0.876328	0.600126	0.572953
	H106	H	0.103240	0.415571	0.576641
	H107	H	0.878195	0.416664	0.402850
	H108	H	0.898011	0.618274	0.085354
	H109	H	0.076567	0.388478	0.089544
	H110	H	0.076296	0.619333	0.890943
	H111	H	0.891764	0.388371	0.900765
	H112	H	0.080005	0.910647	0.605731
	H113	H	0.079432	0.095431	0.373876
	H114	H	0.904050	0.100982	0.610624
	H115	H	0.906586	0.916895	0.379471
	H116	H	0.609789	0.104269	0.900058
	H117	H	0.378349	0.091966	0.084250
	H118	H	0.609358	0.918638	0.090160
	H119	H	0.377455	0.916879	0.896597
	C120	C	0.371611	0.011597	0.612260
	C121	C	0.616256	0.995171	0.614407
	C122	C	0.615238	0.011383	0.369399
	C123	C	0.371365	0.994435	0.368603
	C124	C	0.611311	0.383198	-0.001265
	C125	C	0.611472	0.625654	0.981915
	C126	C	0.369609	0.626480	-0.000678
	C127	C	0.370165	0.383228	0.982019
	C128	C	-0.000458	0.622689	0.371162
	C129	C	0.983020	0.623976	0.612471
	C130	C	-0.000143	0.379569	0.612421
	C131	C	0.982452	0.379061	0.369416
	C132	C	0.868254	0.510817	0.112393
	C133	C	0.112908	0.494657	0.112648
	C134	C	0.112334	0.511713	0.868808
	C135	C	0.867047	0.495217	0.867565
	C136	C	0.114768	0.879679	0.499843
	C137	C	0.113278	0.122746	0.482237
	C138	C	0.872178	0.122574	0.499936
	C139	C	0.871663	0.880569	0.483279
	C140	C	0.500477	0.126947	0.869614
	C141	C	0.483604	0.126568	0.112884
	C142	C	0.501396	0.882796	0.111941
	C143	C	0.484328	0.882663	0.869960
	C144	C	0.374215	0.890522	0.669484
	C145	C	0.614260	0.116773	0.670180
	C146	C	0.614403	0.890647	0.311515
	C147	C	0.372416	0.116271	0.313032
	C148	C	0.665936	0.385164	0.874820
	C149	C	0.668630	0.623540	0.105224
	C150	C	0.311849	0.625588	0.876432
	C151	C	0.314611	0.384917	0.105531
	C152	C	0.878231	0.681412	0.369421
	C153	C	0.104447	0.680963	0.615379
	C154	C	0.878114	0.322457	0.612018
	C155	C	0.104076	0.321741	0.369264
	C156	C	0.876684	0.382947	0.666638
	C157	C	0.105506	0.620583	0.669478
	C158	C	0.876670	0.620648	0.314363
	C159	C	0.104336	0.380552	0.312860
	C160	C	0.368805	0.683597	0.876695
	C161	C	0.612406	0.681685	0.105165
	C162	C	0.610004	0.326500	0.875612
	C163	C	0.370375	0.326199	0.104676
	C164	C	0.671666	0.890183	0.370048
	C165	C	0.673558	0.115783	0.613391
	C166	C	0.314857	0.890695	0.612755
	C167	C	0.312818	0.114928	0.368753
	C168	C	0.869196	0.389860	0.169232
	C169	C	0.111677	0.615089	0.171715
	C170	C	0.110632	0.390256	0.812921
	C171	C	0.868104	0.615764	0.809970
	C172	C	0.170556	0.880359	0.376400
	C173	C	0.170962	0.121780	0.605155
	C174	C	0.814207	0.121501	0.377034
	C175	C	0.814599	0.881001	0.606165
	C176	C	0.378604	0.184050	0.866489
	C177	C	0.604891	0.184078	0.113482
	C178	C	0.380704	0.824567	0.114252
	C179	C	0.605246	0.823709	0.869001
	C180	C	0.379875	0.884017	0.169249
	C181	C	0.606420	0.124215	0.169127
	C182	C	0.378677	0.124734	0.811175
	C183	C	0.607382	0.885339	0.815834
	C184	C	0.869299	0.180491	0.377677
	C185	C	0.114560	0.180085	0.604886
	C186	C	0.113897	0.821795	0.377298
	C187	C	0.871423	0.823310	0.605957
	C188	C	0.171534	0.391769	0.867889
	C189	C	0.170432	0.615383	0.114322
	C190	C	0.810329	0.390839	0.111918
	C191	C	0.809940	0.616123	0.867634
	C192	C	0.394106	0.095828	0.588414
	C193	C	0.592971	0.910871	0.591510
	C194	C	0.591988	0.095566	0.393293
	C195	C	0.395171	0.910557	0.392179
	C196	C	0.588515	0.406269	0.084871
	C197	C	0.586912	0.602588	0.896241
	C198	C	0.394213	0.603024	0.084619
	C199	C	0.393464	0.406662	0.896276
	C200	C	0.084278	0.599388	0.395631
	C201	C	0.898130	0.601580	0.587314
	C202	C	0.084910	0.402062	0.589452
	C203	C	0.897601	0.402038	0.393229
	C204	C	0.891700	0.595175	0.089377
	C205	C	0.090195	0.411154	0.088085
	C206	C	0.088416	0.595869	0.892572
	C207	C	0.890126	0.410998	0.891311
	C208	C	0.091557	0.903632	0.585290
	C209	C	0.089113	0.099595	0.396423
	C210	C	0.896554	0.099418	0.585650
	C211	C	0.895099	0.903644	0.397706
	C212	C	0.585242	0.104382	0.894646
	C213	C	0.398786	0.103830	0.089134
	C214	C	0.585995	0.905985	0.087344
	C215	C	0.399224	0.905914	0.893296
	Zn216	Zn	0.493071	0.004264	0.742373
	Zn217	Zn	0.493436	0.003724	0.240191
	Zn218	Zn	0.738545	0.504404	-0.009976
	Zn219	Zn	0.242244	0.504229	-0.009340
	Zn220	Zn	-0.007899	0.752744	0.492095
	Zn221	Zn	-0.008344	0.250932	0.491201
	Zn222	Zn	-0.009718	0.502685	0.739927
	Zn223	Zn	-0.009373	0.501461	0.241899
	Zn224	Zn	0.491902	0.754169	-0.008793
	Zn225	Zn	0.490440	0.255236	-0.009462
	Zn226	Zn	0.744371	0.002190	0.491700
	Zn227	Zn	0.242247	0.002116	0.490180
	N228	N	0.408753	0.966724	0.669390
	N229	N	0.579400	0.040739	0.670999
	N230	N	0.580138	0.967092	0.310873
	N231	N	0.408122	0.040509	0.312629
	N232	N	0.666805	0.419722	0.952362
	N233	N	0.668168	0.589478	0.027433
	N234	N	0.312247	0.590719	0.953643
	N235	N	0.314095	0.419631	0.028096
	N236	N	0.955544	0.682563	0.404122
	N237	N	0.027390	0.683192	0.580678
	N238	N	0.955790	0.320179	0.579202
	N239	N	0.027143	0.320525	0.403549
	N240	N	0.953277	0.417746	0.667226
	N241	N	0.028885	0.585723	0.667716
	N242	N	0.952860	0.584680	0.315397
	N243	N	0.027740	0.415472	0.312998
	N244	N	0.404068	0.684299	0.954255
	N245	N	0.577735	0.683180	0.027605
	N246	N	0.576961	0.325048	0.953878
	N247	N	0.403887	0.325036	0.026805
	N248	N	0.672166	0.966185	0.405514
	N249	N	0.674992	0.039000	0.579769
	N250	N	0.313163	0.966921	0.577991
	N251	N	0.311933	0.038279	0.402653
	N252	N	0.904646	0.465485	0.169620
	N253	N	0.076798	0.539087	0.170992
	N254	N	0.074663	0.465876	0.813315
	N255	N	0.902842	0.539436	0.809737
	N256	N	0.171348	0.915644	0.453605
	N257	N	0.170238	0.086821	0.527805
	N258	N	0.815692	0.086282	0.454249
	N259	N	0.814587	0.915919	0.528870
	N260	N	0.455209	0.185274	0.902510
	N261	N	0.527583	0.185786	0.079195
	N262	N	0.457414	0.823763	0.079293
	N263	N	0.527608	0.822129	0.902059
	N264	N	0.455946	0.919664	0.167823
	N265	N	0.530063	0.088925	0.168720
	N266	N	0.455317	0.089879	0.812887
	N267	N	0.531178	0.921443	0.816262
	N268	N	0.904719	0.181348	0.455142
	N269	N	0.079256	0.180907	0.527341
	N270	N	0.080222	0.821137	0.455151
	N271	N	0.906045	0.822873	0.528569
	N272	N	0.172696	0.468288	0.902046
	N273	N	0.171517	0.539779	0.078227
	N274	N	0.809724	0.467184	0.077270
	N275	N	0.808955	0.540038	0.902591
	O276	O	0.149956	-0.114721	-0.052119
	H277	H	0.175425	-0.130783	-0.058546
	H278	H	0.126901	-0.103398	-0.080098
	O279	O	0.443556	0.442234	0.353984
	H280	H	0.443396	0.440787	0.351626
	H281	H	0.452507	0.432745	0.353276
	O282	O	0.889147	0.005187	0.061570
	H283	H	0.889083	-0.000498	0.068314
	H284	H	0.888328	0.003596	0.062223
	O285	O	0.166756	1.156613	0.150531
	H286	H	0.177397	1.130407	0.149725
	H287	H	0.165485	1.156336	0.143433
	O288	O	0.339001	0.481477	0.579571
	H289	H	0.343512	0.467385	0.600052
	H290	H	0.352309	0.487489	0.593520
	O291	O	0.814834	0.083016	0.873613
	H292	H	0.808436	0.089641	0.892320
	H293	H	0.809392	0.070365	0.854709
	O294	O	1.170058	1.014188	0.880189
	H295	H	1.158490	1.028923	0.878216
	H296	H	1.185293	1.018837	0.883010
	O297	O	-0.061350	0.159492	0.118072
	H298	H	-0.048946	0.162371	0.117681
	H299	H	-0.067061	0.158436	0.118424
	O300	O	0.576425	0.603468	0.646684
	H301	H	0.570827	0.617136	0.642819
	H302	H	0.588776	0.611650	0.650837
	O303	O	0.097129	0.859037	0.848191
	H304	H	0.092074	0.889870	0.841318
	H305	H	0.073260	0.853175	0.841689
	O306	O	0.458195	0.436084	0.394283
	H307	H	0.446814	0.444034	0.395164
	H308	H	0.466990	0.427967	0.400028
	O309	O	0.980544	-0.033104	-0.014524
	H310	H	0.969284	-0.031868	-0.013963
	H311	H	0.974065	-0.022800	-0.003046
	O312	O	-0.152490	-0.066535	1.103984
	H313	H	-0.166982	-0.065687	1.112874
	H314	H	-0.157083	-0.067442	1.100789
	O315	O	0.394270	0.404312	0.396626
	H316	H	0.403307	0.415034	0.397095
	H317	H	0.384557	0.405596	0.397263
	O318	O	0.547630	0.501799	0.581441
	H319	H	0.553743	0.509759	0.575142
	H320	H	0.543076	0.499107	0.574362
	O321	O	0.547716	0.672793	0.383175
	H322	H	0.553621	0.683249	0.385094
	H323	H	0.534534	0.666517	0.396561
	O324	O	0.572401	0.536528	0.450805
	H325	H	0.571067	0.526490	0.439280
	H326	H	0.564969	0.549711	0.455720
	O327	O	-0.071319	0.933920	0.909593
	H328	H	-0.068673	0.938310	0.923096
	H329	H	-0.069322	0.930211	0.908135
	O330	O	0.466498	0.490017	0.486431
	H331	H	0.461620	0.488568	0.474894
	H332	H	0.463201	0.490519	0.471683
	O333	O	0.013383	1.045642	0.966805
	H334	H	0.013430	1.052802	0.980319
	H335	H	0.006434	1.051380	0.957018
	O336	O	0.949808	1.138444	0.821584
	H337	H	0.942229	1.138352	0.829243
	H338	H	0.942320	1.149044	0.803778
	O339	O	0.525311	0.545707	0.536968
	H340	H	0.537397	0.537448	0.554403
	H341	H	0.525078	0.543218	0.540431
	O342	O	0.873032	-0.159890	0.031876
	H343	H	0.891648	-0.156683	0.038878
	H344	H	0.859033	-0.164722	0.036632
	O345	O	0.329181	0.672506	0.385481
	H346	H	0.315736	0.671430	0.387701
	H347	H	0.331006	0.659873	0.392323
	O348	O	1.127958	0.970924	1.052407
	H349	H	1.134756	0.979148	1.045521
	H350	H	1.126576	0.959458	1.035004
	O351	O	1.136078	1.057935	0.049586
	H352	H	1.143441	1.050064	0.041184
	H353	H	1.139943	1.047028	0.039811
	O354	O	1.009512	-0.074176	0.941756
	H355	H	1.004277	-0.068113	0.951340
	H356	H	1.007492	-0.066497	0.931359
	O357	O	0.425284	0.625146	0.362122
	H358	H	0.429358	0.629262	0.347186
	H359	H	0.418554	0.620405	0.368964
	O360	O	-0.161136	-0.104484	0.071226
	H361	H	-0.157212	-0.109620	0.068891
	H362	H	-0.166101	-0.104749	0.061180
	O363	O	0.583565	0.435266	0.535912
	H364	H	0.575427	0.439053	0.523489
	H365	H	0.584293	0.434104	0.529305
	O366	O	0.501490	0.590339	0.452262
	H367	H	0.500052	0.591966	0.469317
	H368	H	0.497299	0.591419	0.445011
	O369	O	0.464054	0.576420	0.576162
	H370	H	0.458717	0.566615	0.579387
	H371	H	0.463130	0.585152	0.559636
	O372	O	0.633350	0.490104	0.601166
	H373	H	0.645665	0.488244	0.609665
	H374	H	0.633529	0.499161	0.595432
	O375	O	0.926848	0.186518	0.905865
	H376	H	0.920280	0.185506	0.921520
	H377	H	0.932095	0.177881	0.912119
	O378	O	0.439699	0.469774	0.437719
	H379	H	0.449552	0.476178	0.434453
	H380	H	0.434992	0.467999	0.444441
	O381	O	0.430717	0.497119	0.556598
	H382	H	0.418829	0.497091	0.557729
	H383	H	0.426280	0.495965	0.563663
	O384	O	-0.113796	1.088884	0.086565
	H385	H	-0.107511	1.085602	0.088672
	H386	H	-0.104519	1.103523	0.091734
	O387	O	1.093078	-0.156966	1.086357
	H388	H	1.093665	-0.160848	1.093850
	H389	H	1.108063	-0.152921	1.083972
	O390	O	0.133007	1.098232	-0.064393
	H391	H	0.132773	1.092045	-0.046385
	H392	H	0.143404	1.104147	-0.062817
	O393	O	0.923076	1.077079	-0.060068
	H394	H	0.929812	1.071179	-0.057567
	H395	H	0.916929	1.069928	-0.054539
	O396	O	0.482346	0.446259	0.510589
	H397	H	0.482946	0.438495	0.508801
	H398	H	0.485159	0.448209	0.516206
	O399	O	0.016648	1.194335	1.096459
	H400	H	0.020198	1.183153	1.087391
	H401	H	0.019555	1.212649	1.114621
	O402	O	0.987557	0.854391	0.885858
	H403	H	0.998850	0.850890	0.892954
	H404	H	0.997475	0.851142	0.877426
	O405	O	0.443093	0.465811	0.481942
	H406	H	0.445385	0.462596	0.469011
	H407	H	0.438738	0.478371	0.481326
