data_Molecule from HDF5

_cell_length_a		16.237548
_cell_length_b		16.356919
_cell_length_c		16.272609
_cell_angle_alpha	89.762154
_cell_angle_beta	90.082842
_cell_angle_gamma	89.966011
_symmetry_space_group_name_H-M	'P 1'
_symmetry_Int_Tables_number		1

loop_
	_symmetry_equiv_pos_as_xyz
	x,y,z

loop_
	_atom_site_label
	_atom_site_type_symbol
	_atom_site_fract_x
	_atom_site_fract_y
	_atom_site_fract_z
	H0	H	0.411302	0.843628	0.721986
	H1	H	0.609303	0.169524	0.722148
	H2	H	0.608910	0.843114	0.292356
	H3	H	0.410730	0.169165	0.290748
	H4	H	0.722508	0.408064	0.842044
	H5	H	0.723740	0.603214	0.170284
	H6	H	0.295358	0.604497	0.842368
	H7	H	0.295311	0.407795	0.170799
	H8	H	0.845148	0.722500	0.405766
	H9	H	0.172743	0.720901	0.603455
	H10	H	0.845171	0.291404	0.606832
	H11	H	0.171920	0.292425	0.406876
	H12	H	0.844888	0.408957	0.720222
	H13	H	0.173609	0.604269	0.719545
	H14	H	0.845693	0.606580	0.290820
	H15	H	0.173578	0.410367	0.294252
	H16	H	0.408588	0.723563	0.843708
	H17	H	0.607992	0.719924	0.170486
	H18	H	0.607590	0.292372	0.843276
	H19	H	0.408628	0.289962	0.169227
	H20	H	0.723260	0.842631	0.409797
	H21	H	0.723400	0.169574	0.604227
	H22	H	0.294100	0.844124	0.605944
	H23	H	0.293600	0.169433	0.406363
	H24	H	0.910406	0.344232	0.223474
	H25	H	0.108813	0.669685	0.219723
	H26	H	0.108118	0.344017	0.791487
	H27	H	0.911295	0.670025	0.792265
	H28	H	0.222626	0.909814	0.342517
	H29	H	0.222605	0.104325	0.670338
	H30	H	0.794458	0.104790	0.342041
	H31	H	0.796432	0.909293	0.670990
	H32	H	0.345201	0.223107	0.906300
	H33	H	0.673349	0.220823	0.105362
	H34	H	0.345575	0.790977	0.107074
	H35	H	0.672528	0.791835	0.907795
	H36	H	0.345099	0.909316	0.220337
	H37	H	0.673407	0.104402	0.221410
	H38	H	0.344796	0.105783	0.792179
	H39	H	0.673336	0.910484	0.794531
	H40	H	0.909240	0.222676	0.342632
	H41	H	0.109741	0.222964	0.668920
	H42	H	0.107287	0.793584	0.342501
	H43	H	0.908757	0.791009	0.669433
	H44	H	0.222647	0.342752	0.909955
	H45	H	0.223106	0.669218	0.102799
	H46	H	0.795284	0.342593	0.105410
	H47	H	0.794184	0.668674	0.907914
	H48	H	0.414950	0.124688	0.605827
	H49	H	0.605743	0.891327	0.598496
	H50	H	0.601023	0.123375	0.406003
	H51	H	0.411774	0.887120	0.405778
	H52	H	0.598250	0.407618	0.123539
	H53	H	0.601616	0.600092	0.890281
	H54	H	0.411861	0.609636	0.127670
	H55	H	0.415480	0.410802	0.888968
	H56	H	0.124380	0.597242	0.416050
	H57	H	0.889684	0.597835	0.608124
	H58	H	0.124958	0.410202	0.594262
	H59	H	0.890932	0.407809	0.417410
	H60	H	0.124066	0.419503	0.598072
	H61	H	0.890339	0.608944	0.595853
	H62	H	0.126549	0.600085	0.408852
	H63	H	0.895267	0.420539	0.418842
	H64	H	0.408917	0.588258	0.122234
	H65	H	0.600961	0.600085	0.890229
	H66	H	0.607986	0.412748	0.124815
	H67	H	0.413843	0.417857	0.890571
	H68	H	0.596025	0.119518	0.417169
	H69	H	0.602695	0.888866	0.605338
	H70	H	0.423010	0.119452	0.597491
	H71	H	0.425248	0.893152	0.414512
	H72	H	0.913097	0.620895	0.094412
	H73	H	0.103050	0.390506	0.100235
	H74	H	0.100504	0.621337	0.914183
	H75	H	0.919913	0.390570	0.909695
	H76	H	0.104632	0.910761	0.624871
	H77	H	0.103217	0.105092	0.388055
	H78	H	0.926353	0.103781	0.620932
	H79	H	0.915129	0.920841	0.391564
	H80	H	0.627305	0.100676	0.907127
	H81	H	0.389729	0.105081	0.103644
	H82	H	0.624287	0.914228	0.098624
	H83	H	0.390630	0.908727	0.915243
	H84	H	0.626962	0.912963	0.102047
	H85	H	0.394353	0.101554	0.091929
	H86	H	0.625441	0.106561	0.918328
	H87	H	0.394579	0.916252	0.918400
	H88	H	0.908613	0.106965	0.627460
	H89	H	0.103313	0.095522	0.390342
	H90	H	0.101605	0.916180	0.621760
	H91	H	0.922009	0.911556	0.390680
	H92	H	0.104523	0.622744	0.913239
	H93	H	0.102993	0.389342	0.102463
	H94	H	0.914222	0.623770	0.102277
	H95	H	0.916753	0.391233	0.917596
	H96	H	0.411409	0.122526	0.593804
	H97	H	0.598386	0.891873	0.600026
	H98	H	0.608479	0.122952	0.416170
	H99	H	0.409950	0.891348	0.422380
	H100	H	0.598864	0.418272	0.120516
	H101	H	0.601226	0.600856	0.889331
	H102	H	0.428773	0.598470	0.118628
	H103	H	0.421218	0.415340	0.891747
	H104	H	0.126366	0.604841	0.415508
	H105	H	0.896220	0.592953	0.592598
	H106	H	0.126848	0.412189	0.603883
	H107	H	0.890246	0.416434	0.406933
	H108	H	0.920272	0.620450	0.098209
	H109	H	0.101014	0.390161	0.101729
	H110	H	0.101099	0.622870	0.910148
	H111	H	0.911522	0.387845	0.911639
	H112	H	0.097729	0.911344	0.622401
	H113	H	0.095171	0.100868	0.392120
	H114	H	0.914019	0.090032	0.619951
	H115	H	0.910570	0.910672	0.387535
	H116	H	0.623007	0.094428	0.916910
	H117	H	0.393900	0.092810	0.101508
	H118	H	0.626339	0.910299	0.098488
	H119	H	0.390763	0.916245	0.909669
	C120	C	0.387523	0.014875	0.628413
	C121	C	0.631220	0.998255	0.629520
	C122	C	0.631020	0.014233	0.384919
	C123	C	0.387342	0.998026	0.385079
	C124	C	0.630451	0.384703	0.014741
	C125	C	0.630398	0.627955	0.998176
	C126	C	0.387482	0.628071	0.014615
	C127	C	0.387656	0.385204	0.998473
	C128	C	0.017566	0.629284	0.384160
	C129	C	1.000514	0.628430	0.627380
	C130	C	0.017333	0.385226	0.627824
	C131	C	1.000366	0.386440	0.385933
	C132	C	0.887203	0.514346	0.127977
	C133	C	0.130990	0.497926	0.128748
	C134	C	0.130822	0.514882	0.884583
	C135	C	0.887488	0.497872	0.884627
	C136	C	0.130108	0.885103	0.514968
	C137	C	0.130027	0.128547	0.498127
	C138	C	0.887041	0.128923	0.514575
	C139	C	0.887613	0.885431	0.498103
	C140	C	0.516979	0.129014	0.885002
	C141	C	0.501300	0.127992	0.127885
	C142	C	0.517743	0.884356	0.128651
	C143	C	0.500313	0.885792	0.886337
	C144	C	0.390478	0.892256	0.683933
	C145	C	0.628630	0.120802	0.683887
	C146	C	0.628827	0.891553	0.330185
	C147	C	0.389874	0.120626	0.328814
	C148	C	0.685106	0.387622	0.891409
	C149	C	0.685515	0.624038	0.121478
	C150	C	0.332815	0.625514	0.891369
	C151	C	0.332642	0.387194	0.121638
	C152	C	0.894322	0.684803	0.385792
	C153	C	0.123937	0.683203	0.624720
	C154	C	0.894031	0.329750	0.626206
	C155	C	0.123198	0.330401	0.387043
	C156	C	0.893683	0.388134	0.682581
	C157	C	0.124312	0.625050	0.681903
	C158	C	0.894510	0.627445	0.328239
	C159	C	0.123982	0.389117	0.330990
	C160	C	0.388978	0.684600	0.892148
	C161	C	0.628069	0.682066	0.121483
	C162	C	0.628063	0.330189	0.891650
	C163	C	0.388703	0.328424	0.120749
	C164	C	0.686116	0.891528	0.388296
	C165	C	0.685963	0.120790	0.625772
	C166	C	0.332278	0.892501	0.626457
	C167	C	0.331855	0.120799	0.386304
	C168	C	0.889918	0.392318	0.184545
	C169	C	0.128793	0.620670	0.182653
	C170	C	0.128688	0.392267	0.829549
	C171	C	0.890505	0.621115	0.830006
	C172	C	0.184963	0.888917	0.391371
	C173	C	0.185111	0.125198	0.621302
	C174	C	0.831828	0.125976	0.391208
	C175	C	0.833664	0.888476	0.621833
	C176	C	0.393968	0.184606	0.886471
	C177	C	0.624210	0.183326	0.126013
	C178	C	0.394515	0.828895	0.126999
	C179	C	0.623867	0.830453	0.888310
	C180	C	0.394096	0.887563	0.183331
	C181	C	0.624513	0.125055	0.183264
	C182	C	0.393798	0.126723	0.829414
	C183	C	0.624317	0.889390	0.832007
	C184	C	0.888844	0.184329	0.391430
	C185	C	0.128608	0.183714	0.620753
	C186	C	0.127939	0.830885	0.391543
	C187	C	0.889378	0.829586	0.621053
	C188	C	0.185805	0.391827	0.888039
	C189	C	0.185751	0.620509	0.124560
	C190	C	0.832452	0.391630	0.126112
	C191	C	0.832146	0.620402	0.887112
	C192	C	0.409795	0.100045	0.605717
	C193	C	0.608891	0.912646	0.607686
	C194	C	0.608387	0.099796	0.406587
	C195	C	0.409394	0.912824	0.407513
	C196	C	0.608201	0.406430	0.100756
	C197	C	0.607979	0.606516	0.912068
	C198	C	0.409934	0.605364	0.100603
	C199	C	0.410209	0.407919	0.912520
	C200	C	0.103515	0.607270	0.406983
	C201	C	0.914281	0.606449	0.605447
	C202	C	0.103008	0.407392	0.605246
	C203	C	0.914362	0.408529	0.407981
	C204	C	0.909347	0.599790	0.105004
	C205	C	0.108795	0.412062	0.107616
	C206	C	0.108548	0.600218	0.906176
	C207	C	0.909512	0.412226	0.906488
	C208	C	0.107892	0.906442	0.600807
	C209	C	0.107167	0.106925	0.412309
	C210	C	0.909636	0.106796	0.600577
	C211	C	0.909502	0.907881	0.412217
	C212	C	0.603007	0.106983	0.907531
	C213	C	0.414884	0.106008	0.105698
	C214	C	0.603678	0.906231	0.106440
	C215	C	0.414241	0.907423	0.907980
	Zn216	Zn	0.508816	0.007204	0.757972
	Zn217	Zn	0.509462	0.005980	0.256334
	Zn218	Zn	0.758590	0.505508	0.005787
	Zn219	Zn	0.259258	0.506121	0.006680
	Zn220	Zn	0.008589	0.756894	0.505985
	Zn221	Zn	0.008538	0.257362	0.506031
	Zn222	Zn	0.008999	0.506522	0.755709
	Zn223	Zn	0.009035	0.507276	0.257149
	Zn224	Zn	0.508932	0.756675	0.007038
	Zn225	Zn	0.509370	0.256975	0.006493
	Zn226	Zn	0.759270	0.006413	0.506712
	Zn227	Zn	0.258353	0.006902	0.506579
	N228	N	0.424176	0.969449	0.685340
	N229	N	0.595095	0.043469	0.686134
	N230	N	0.595281	0.968852	0.328093
	N231	N	0.423633	0.043461	0.327834
	N232	N	0.686674	0.420963	0.969021
	N233	N	0.687154	0.591146	0.043731
	N234	N	0.331632	0.591086	0.968747
	N235	N	0.332071	0.421913	0.044454
	N236	N	0.972094	0.686197	0.419730
	N237	N	0.046068	0.685172	0.591393
	N238	N	0.971766	0.327879	0.592594
	N239	N	0.045484	0.328809	0.420619
	N240	N	0.971075	0.422003	0.683680
	N241	N	0.046430	0.591731	0.683686
	N242	N	0.972012	0.593587	0.327235
	N243	N	0.046589	0.423253	0.330070
	N244	N	0.422254	0.686128	0.969788
	N245	N	0.594493	0.684509	0.043790
	N246	N	0.594619	0.328369	0.969264
	N247	N	0.422386	0.327211	0.043166
	N248	N	0.687581	0.968827	0.421461
	N249	N	0.687576	0.043710	0.592530
	N250	N	0.330275	0.969603	0.592700
	N251	N	0.330229	0.043878	0.420867
	N252	N	0.922979	0.469693	0.185918
	N253	N	0.095372	0.543277	0.185460
	N254	N	0.095539	0.469605	0.827018
	N255	N	0.924003	0.543767	0.828152
	N256	N	0.186496	0.922004	0.469084
	N257	N	0.185936	0.091608	0.543955
	N258	N	0.830801	0.092113	0.468730
	N259	N	0.832386	0.922569	0.544393
	N260	N	0.471604	0.185936	0.920455
	N261	N	0.546340	0.185093	0.092399
	N262	N	0.472426	0.826861	0.093839
	N263	N	0.545984	0.828123	0.921321
	N264	N	0.471558	0.921516	0.184437
	N265	N	0.547016	0.091240	0.184432
	N266	N	0.471311	0.092858	0.828426
	N267	N	0.546736	0.923130	0.830629
	N268	N	0.922186	0.186427	0.469225
	N269	N	0.095190	0.186107	0.543120
	N270	N	0.094367	0.828582	0.469059
	N271	N	0.922303	0.827604	0.543213
	N272	N	0.187144	0.469016	0.921700
	N273	N	0.187365	0.543255	0.091923
	N274	N	0.830965	0.468629	0.091547
	N275	N	0.830331	0.542989	0.920347
	O276	O	0.515844	0.455266	0.506218
	H277	H	0.512909	0.448177	0.507324
	H278	H	0.520643	0.457772	0.504013
	O279	O	-0.000412	-0.067137	-0.006905
	H280	H	0.006088	-0.070210	-0.004334
	H281	H	-0.008833	-0.071361	-0.004070
	O282	O	0.523348	0.452779	0.459095
	H283	H	0.523016	0.451403	0.448092
	H284	H	0.533452	0.448772	0.456421
	O285	O	0.505005	0.459927	0.486762
	H286	H	0.497700	0.457887	0.487807
	H287	H	0.505948	0.462852	0.483685
	O288	O	1.535571	0.395401	-0.475295
	H289	H	1.534947	0.395168	-0.487802
	H290	H	1.536912	0.388038	-0.479009
	O291	O	-0.529406	0.457394	-0.522543
	H292	H	-0.527475	0.474632	-0.525996
	H293	H	-0.536803	0.443687	-0.509683
	O294	O	0.466325	0.474670	0.530840
	H295	H	0.474623	0.475245	0.536567
	H296	H	0.464760	0.472198	0.531429
	O297	O	-0.003675	0.916126	0.025548
	H298	H	0.002591	0.906750	0.028572
	H299	H	-0.007362	0.918824	0.025105
	O300	O	0.538012	0.446888	0.469955
	H301	H	0.538618	0.449573	0.466046
	H302	H	0.541832	0.449159	0.467272
	O303	O	0.466461	0.483746	0.461738
	H304	H	0.455513	0.477899	0.469139
	H305	H	0.461738	0.483180	0.463318
	O306	O	-0.008694	0.947973	1.007188
	H307	H	-0.011933	0.941180	1.003996
	H308	H	-0.003332	0.951757	1.006835
	O309	O	-0.009487	-0.063770	1.021647
	H310	H	-0.013035	-0.058069	1.017813
	H311	H	-0.006708	-0.065712	1.022458
