data_Molecule from HDF5

_cell_length_a		16.456084
_cell_length_b		16.457741
_cell_length_c		16.310169
_cell_angle_alpha	89.769943
_cell_angle_beta	90.027195
_cell_angle_gamma	90.026190
_symmetry_space_group_name_H-M	'P 1'
_symmetry_Int_Tables_number		1

loop_
	_symmetry_equiv_pos_as_xyz
	x,y,z

loop_
	_atom_site_label
	_atom_site_type_symbol
	_atom_site_fract_x
	_atom_site_fract_y
	_atom_site_fract_z
	H0	H	0.394915	0.837965	0.722267
	H1	H	0.598652	0.158109	0.720194
	H2	H	0.598372	0.837902	0.282926
	H3	H	0.391882	0.157022	0.283020
	H4	H	0.712550	0.397540	0.840754
	H5	H	0.715007	0.601724	0.162944
	H6	H	0.274532	0.603999	0.841267
	H7	H	0.274711	0.394274	0.162008
	H8	H	0.835540	0.719589	0.396499
	H9	H	0.152372	0.719240	0.609521
	H10	H	0.834861	0.276715	0.606641
	H11	H	0.151104	0.275538	0.395383
	H12	H	0.834370	0.394284	0.721340
	H13	H	0.153779	0.599816	0.721832
	H14	H	0.834633	0.600418	0.282846
	H15	H	0.152971	0.395133	0.283325
	H16	H	0.390545	0.720188	0.841735
	H17	H	0.600412	0.719061	0.162419
	H18	H	0.597733	0.279781	0.841527
	H19	H	0.390591	0.278658	0.163115
	H20	H	0.717470	0.839528	0.395574
	H21	H	0.716747	0.156661	0.606247
	H22	H	0.274841	0.838746	0.610300
	H23	H	0.271861	0.154979	0.396293
	H24	H	0.889527	0.339870	0.224212
	H25	H	0.098225	0.656641	0.221882
	H26	H	0.096213	0.337499	0.784368
	H27	H	0.891170	0.656713	0.780776
	H28	H	0.216551	0.891530	0.345457
	H29	H	0.214368	0.103015	0.663297
	H30	H	0.772791	0.103336	0.342386
	H31	H	0.774734	0.893338	0.662760
	H32	H	0.335779	0.216637	0.899950
	H33	H	0.652810	0.219806	0.109243
	H34	H	0.337434	0.776695	0.106338
	H35	H	0.653009	0.775735	0.894039
	H36	H	0.336413	0.893518	0.221556
	H37	H	0.654533	0.100394	0.222117
	H38	H	0.336211	0.101339	0.782943
	H39	H	0.654869	0.897024	0.783174
	H40	H	0.888293	0.219033	0.342324
	H41	H	0.097834	0.218028	0.662001
	H42	H	0.099607	0.777548	0.343655
	H43	H	0.891113	0.777766	0.663607
	H44	H	0.216341	0.339581	0.895920
	H45	H	0.216784	0.655840	0.106339
	H46	H	0.772353	0.340487	0.109955
	H47	H	0.773869	0.656624	0.895954
	H48	H	0.404724	0.109524	0.588741
	H49	H	0.580990	0.884619	0.596957
	H50	H	0.583422	0.108267	0.418259
	H51	H	0.396600	0.883670	0.420686
	H52	H	0.585270	0.406247	0.117111
	H53	H	0.586139	0.593911	0.885379
	H54	H	0.408077	0.586433	0.114844
	H55	H	0.406404	0.409847	0.888890
	H56	H	0.107913	0.588909	0.410349
	H57	H	0.880504	0.586185	0.594209
	H58	H	0.105169	0.407170	0.587273
	H59	H	0.880573	0.407805	0.413127
	H60	H	0.107245	0.409636	0.595345
	H61	H	0.880180	0.590166	0.589868
	H62	H	0.107059	0.590088	0.415779
	H63	H	0.880483	0.408612	0.414027
	H64	H	0.405531	0.587067	0.115214
	H65	H	0.588836	0.582668	0.889201
	H66	H	0.586361	0.410169	0.117035
	H67	H	0.407067	0.405625	0.887550
	H68	H	0.587071	0.111488	0.412579
	H69	H	0.584496	0.887068	0.586298
	H70	H	0.400218	0.112223	0.592620
	H71	H	0.403400	0.880430	0.404968
	H72	H	0.903916	0.612076	0.091745
	H73	H	0.082733	0.387212	0.086886
	H74	H	0.073854	0.609754	0.904181
	H75	H	0.900448	0.381591	0.906700
	H76	H	0.086798	0.908622	0.618783
	H77	H	0.083989	0.083123	0.390149
	H78	H	0.913213	0.085718	0.613163
	H79	H	0.908468	0.898346	0.385725
	H80	H	0.607850	0.083731	0.910557
	H81	H	0.382384	0.086667	0.090725
	H82	H	0.610131	0.909358	0.097851
	H83	H	0.381546	0.909236	0.908551
	H84	H	0.610123	0.902818	0.088652
	H85	H	0.380503	0.089008	0.094757
	H86	H	0.612685	0.094595	0.907874
	H87	H	0.382061	0.904238	0.916744
	H88	H	0.902692	0.093726	0.619176
	H89	H	0.079723	0.086059	0.390257
	H90	H	0.081086	0.910925	0.615704
	H91	H	0.894891	0.911890	0.386798
	H92	H	0.085664	0.606474	0.924101
	H93	H	0.089671	0.383132	0.092347
	H94	H	0.906341	0.611109	0.090907
	H95	H	0.910313	0.386642	0.913135
	H96	H	0.406517	0.111635	0.594235
	H97	H	0.591500	0.881898	0.593986
	H98	H	0.580669	0.108888	0.411073
	H99	H	0.413227	0.888533	0.417494
	H100	H	0.582160	0.408982	0.115623
	H101	H	0.577773	0.587172	0.891195
	H102	H	0.406323	0.584905	0.113883
	H103	H	0.402693	0.407521	0.887094
	H104	H	0.106198	0.585048	0.413969
	H105	H	0.883028	0.584856	0.588486
	H106	H	0.109633	0.401790	0.592692
	H107	H	0.880770	0.409133	0.412650
	H108	H	0.904197	0.610806	0.089026
	H109	H	0.081231	0.384420	0.095867
	H110	H	0.095658	0.617255	0.905504
	H111	H	0.899438	0.385155	0.918813
	H112	H	0.081518	0.904682	0.617980
	H113	H	0.084139	0.087957	0.388032
	H114	H	0.899921	0.079777	0.615468
	H115	H	0.913258	0.916005	0.393314
	H116	H	0.608264	0.092451	0.919083
	H117	H	0.381798	0.091703	0.090108
	H118	H	0.606417	0.912695	0.088251
	H119	H	0.384962	0.913263	0.915868
	C120	C	0.373410	0.006195	0.624501
	C121	C	0.617133	0.989721	0.623780
	C122	C	0.616315	0.005360	0.381168
	C123	C	0.372595	0.988872	0.381579
	C124	C	0.615813	0.377482	0.010449
	C125	C	0.616492	0.620088	0.994214
	C126	C	0.374327	0.619106	0.009358
	C127	C	0.373630	0.376527	0.993731
	C128	C	0.002408	0.620283	0.380535
	C129	C	0.986189	0.618651	0.623393
	C130	C	0.002190	0.375185	0.623445
	C131	C	0.985035	0.376655	0.380811
	C132	C	0.872834	0.506646	0.123771
	C133	C	0.116239	0.489780	0.123427
	C134	C	0.116328	0.505979	0.880246
	C135	C	0.872817	0.489718	0.880854
	C136	C	0.115356	0.876045	0.512401
	C137	C	0.114719	0.118185	0.494732
	C138	C	0.873394	0.118680	0.510240
	C139	C	0.873490	0.876485	0.494239
	C140	C	0.504287	0.121051	0.880567
	C141	C	0.486450	0.120003	0.124320
	C142	C	0.504043	0.876462	0.123503
	C143	C	0.487415	0.877448	0.881218
	C144	C	0.374422	0.886143	0.683849
	C145	C	0.618151	0.109897	0.681807
	C146	C	0.617681	0.885994	0.321542
	C147	C	0.372037	0.108735	0.321991
	C148	C	0.673659	0.377770	0.889084
	C149	C	0.675640	0.620857	0.114655
	C150	C	0.314527	0.622163	0.889267
	C151	C	0.314647	0.375763	0.114445
	C152	C	0.883144	0.679616	0.378469
	C153	C	0.105230	0.678680	0.626807
	C154	C	0.882389	0.316256	0.625127
	C155	C	0.103911	0.315890	0.377371
	C156	C	0.882136	0.375012	0.681880
	C157	C	0.105851	0.619321	0.682957
	C158	C	0.882413	0.620329	0.321836
	C159	C	0.104915	0.375561	0.321777
	C160	C	0.372317	0.679963	0.889476
	C161	C	0.618551	0.679247	0.114524
	C162	C	0.616618	0.319073	0.889592
	C163	C	0.372251	0.318081	0.114740
	C164	C	0.676990	0.886759	0.377841
	C165	C	0.676894	0.109124	0.625006
	C166	C	0.314939	0.886282	0.627570
	C167	C	0.312466	0.107791	0.378630
	C168	C	0.870956	0.387578	0.184699
	C169	C	0.117419	0.609316	0.182163
	C170	C	0.116069	0.385690	0.822725
	C171	C	0.871943	0.609083	0.820419
	C172	C	0.176039	0.873626	0.392779
	C173	C	0.174360	0.120914	0.615030
	C174	C	0.812875	0.121246	0.390268
	C175	C	0.814310	0.874780	0.614903
	C176	C	0.383808	0.178080	0.880492
	C177	C	0.605542	0.179566	0.126978
	C178	C	0.384626	0.816741	0.124940
	C179	C	0.606274	0.816998	0.877649
	C180	C	0.384169	0.874878	0.182261
	C181	C	0.606352	0.120216	0.183414
	C182	C	0.384042	0.120644	0.822329
	C183	C	0.607289	0.877042	0.822232
	C184	C	0.870249	0.179110	0.390184
	C185	C	0.116317	0.178224	0.614491
	C186	C	0.117867	0.816795	0.392020
	C187	C	0.871923	0.817112	0.615043
	C188	C	0.176041	0.386786	0.878212
	C189	C	0.176118	0.608908	0.124710
	C190	C	0.812507	0.387729	0.127625
	C191	C	0.813731	0.609128	0.878009
	C192	C	0.396940	0.089482	0.599001
	C193	C	0.592685	0.906381	0.599461
	C194	C	0.590948	0.088132	0.406799
	C195	C	0.397319	0.905890	0.406973
	C196	C	0.591599	0.401549	0.094644
	C197	C	0.591313	0.595210	0.910359
	C198	C	0.399609	0.593607	0.092801
	C199	C	0.398169	0.400778	0.909831
	C200	C	0.085456	0.595244	0.405777
	C201	C	0.902880	0.594013	0.598154
	C202	C	0.085582	0.399231	0.598966
	C203	C	0.902188	0.401362	0.406086
	C204	C	0.897712	0.589525	0.097937
	C205	C	0.091769	0.406708	0.098871
	C206	C	0.092117	0.589349	0.904435
	C207	C	0.896609	0.406239	0.905790
	C208	C	0.090254	0.900842	0.595874
	C209	C	0.089802	0.092857	0.411198
	C210	C	0.898234	0.093706	0.594063
	C211	C	0.898321	0.901554	0.410531
	C212	C	0.587883	0.097254	0.905331
	C213	C	0.403067	0.095808	0.099173
	C214	C	0.587258	0.901301	0.098733
	C215	C	0.404501	0.902023	0.906396
	Zn216	Zn	0.496118	-0.001035	0.752641
	Zn217	Zn	0.494970	-0.002767	0.252254
	Zn218	Zn	0.744444	0.498356	0.002365
	Zn219	Zn	0.245189	0.497842	0.001192
	Zn220	Zn	-0.005793	0.747902	0.503241
	Zn221	Zn	-0.006115	0.247271	0.501651
	Zn222	Zn	-0.006025	0.496980	0.751736
	Zn223	Zn	-0.005729	0.498524	0.252500
	Zn224	Zn	0.495528	0.748301	0.001682
	Zn225	Zn	0.494863	0.248853	0.002573
	Zn226	Zn	0.745146	-0.002394	0.502171
	Zn227	Zn	0.243796	-0.002591	0.504307
	N228	N	0.410007	0.961737	0.682179
	N229	N	0.581900	0.034688	0.681289
	N230	N	0.580680	0.960914	0.323444
	N231	N	0.408473	0.033653	0.323371
	N232	N	0.673450	0.412991	0.965422
	N233	N	0.674642	0.585098	0.038563
	N234	N	0.315474	0.585094	0.964910
	N235	N	0.315113	0.411228	0.038054
	N236	N	0.958935	0.679782	0.414181
	N237	N	0.029857	0.678090	0.590521
	N238	N	0.958077	0.316296	0.589430
	N239	N	0.028404	0.316363	0.413348
	N240	N	0.957507	0.410812	0.681171
	N241	N	0.030733	0.582595	0.680886
	N242	N	0.957588	0.584366	0.323003
	N243	N	0.029960	0.412315	0.323336
	N244	N	0.408905	0.678063	0.965191
	N245	N	0.582767	0.678902	0.038423
	N246	N	0.581876	0.318500	0.966316
	N247	N	0.408156	0.318391	0.038771
	N248	N	0.676367	0.962062	0.414110
	N249	N	0.676652	0.033225	0.589972
	N250	N	0.313958	0.961945	0.591644
	N251	N	0.312436	0.032112	0.414689
	N252	N	0.907840	0.462574	0.182392
	N253	N	0.081115	0.534312	0.181771
	N254	N	0.079705	0.460920	0.823551
	N255	N	0.908179	0.533908	0.822238
	N256	N	0.174845	0.909556	0.468580
	N257	N	0.173907	0.084412	0.539421
	N258	N	0.814866	0.084029	0.465851
	N259	N	0.814917	0.910885	0.538754
	N260	N	0.459747	0.178639	0.915646
	N261	N	0.529918	0.179559	0.091079
	N262	N	0.460177	0.817393	0.089437
	N263	N	0.530766	0.817003	0.913573
	N264	N	0.459539	0.911150	0.181601
	N265	N	0.531125	0.083936	0.181886
	N266	N	0.460090	0.086026	0.822190
	N267	N	0.532571	0.914171	0.824601
	N268	N	0.907115	0.177530	0.465730
	N269	N	0.080146	0.176772	0.538562
	N270	N	0.081008	0.817936	0.467554
	N271	N	0.907895	0.818075	0.539033
	N272	N	0.176484	0.462660	0.912943
	N273	N	0.175462	0.533452	0.088953
	N274	N	0.813687	0.462586	0.090236
	N275	N	0.814208	0.533868	0.914768
	O276	O	0.616975	0.304576	0.311293
	H277	H	0.624685	0.313623	0.308529
	H278	H	0.609496	0.298098	0.301555
	O279	O	0.483387	0.679628	0.312021
	H280	H	0.482493	0.692304	0.310840
	H281	H	0.486016	0.685965	0.310536
	O282	O	0.293736	0.606696	0.419124
	H283	H	0.294453	0.602076	0.424376
	H284	H	0.293569	0.594587	0.417897
	O285	O	0.947903	1.037844	-0.158438
	H286	H	0.948730	1.041785	-0.148375
	H287	H	0.954404	1.022488	-0.168454
	O288	O	0.296504	0.690597	0.308446
	H289	H	0.315027	0.702211	0.302950
	H290	H	0.295414	0.661629	0.315405
	O291	O	0.445137	0.448975	0.615446
	H292	H	0.452794	0.452269	0.614874
	H293	H	0.443200	0.447802	0.608394
	O294	O	0.936243	0.909617	0.972849
	H295	H	0.943574	0.912813	0.980503
	H296	H	0.925833	0.900589	0.973922
	O297	O	0.456040	0.615284	0.566636
	H298	H	0.449976	0.605356	0.565931
	H299	H	0.463540	0.622053	0.561585
	O300	O	0.678956	0.322864	0.473663
	H301	H	0.683660	0.318937	0.467352
	H302	H	0.671570	0.320228	0.459313
	O303	O	0.371063	0.324581	0.696118
	H304	H	0.369850	0.323097	0.690430
	H305	H	0.355848	0.344997	0.709611
	O306	O	-0.156352	0.200684	0.944394
	H307	H	-0.141854	0.206809	0.930913
	H308	H	-0.171658	0.181372	0.917993
	O309	O	0.795250	0.043240	0.025297
	H310	H	0.774359	0.053717	0.005906
	H311	H	0.804305	0.036882	0.025299
	O312	O	0.356317	0.567099	0.469820
	H313	H	0.351539	0.579053	0.465518
	H314	H	0.357950	0.564801	0.457588
	O315	O	0.368375	0.528093	0.614870
	H316	H	0.355093	0.543428	0.631100
	H317	H	0.360118	0.523149	0.605076
	O318	O	0.194333	0.021300	0.198659
	H319	H	0.192444	0.050049	0.194771
	H320	H	0.212199	0.018124	0.227394
	O321	O	0.550598	0.375730	0.413586
	H322	H	0.557519	0.382718	0.419419
	H323	H	0.575528	0.370144	0.407524
	O324	O	1.089182	-0.021992	0.964603
	H325	H	1.080353	-0.014882	0.964290
	H326	H	1.099592	-0.018424	0.970165
	O327	O	0.561277	0.659042	0.702463
	H328	H	0.563577	0.646145	0.708494
	H329	H	0.552809	0.654187	0.722227
	O330	O	0.181887	1.188683	1.123181
	H331	H	0.193264	1.188177	1.106731
	H332	H	0.154218	1.188381	1.126970
	O333	O	-0.050842	1.044446	-0.076667
	H334	H	-0.046250	1.049382	-0.088312
	H335	H	-0.066414	1.042708	-0.065186
	O336	O	1.111538	1.068872	0.143845
	H337	H	1.124431	1.071566	0.137549
	H338	H	1.093480	1.083028	0.153619
	O339	O	0.063778	0.861015	1.198879
	H340	H	0.053022	0.864058	1.204698
	H341	H	0.088109	0.865983	1.214782
	O342	O	0.330291	0.419153	0.524501
	H343	H	0.325154	0.426848	0.513726
	H344	H	0.323152	0.422166	0.539759
	O345	O	-0.046777	-0.007472	1.153710
	H346	H	-0.050537	0.001005	1.150370
	H347	H	-0.040456	0.000698	1.144025
	O348	O	0.466829	0.368988	0.712044
	H349	H	0.449501	0.349535	0.721475
	H350	H	0.453900	0.365794	0.713067
	O351	O	1.118387	0.836972	0.025097
	H352	H	1.124617	0.831620	0.030893
	H353	H	1.105629	0.843551	0.035036
	O354	O	0.791134	1.130352	0.851572
	H355	H	0.801187	1.119293	0.827614
	H356	H	0.775579	1.128114	0.841860
	O357	O	-0.002095	-0.146058	-0.197142
	H358	H	0.005623	-0.160031	-0.172489
	H359	H	-0.019643	-0.159909	-0.205414
	O360	O	0.656894	0.518411	0.360751
	H361	H	0.656386	0.534984	0.354821
	H362	H	0.663104	0.534227	0.381966
	O363	O	1.187866	0.186301	-0.045611
	H364	H	1.190218	0.188082	-0.040101
	H365	H	1.176151	0.179365	-0.050626
	O366	O	0.086133	-0.023606	0.906794
	H367	H	0.073086	-0.037477	0.901668
	H368	H	0.096167	-0.024807	0.919881
	O369	O	0.574311	-0.545296	0.379176
	H370	H	0.559933	-0.540629	0.381728
	H371	H	0.571575	-0.555497	0.382254
	O372	O	0.593502	0.447967	0.640718
	H373	H	0.592377	0.440966	0.659537
	H374	H	0.596180	0.457490	0.618983
	O375	O	0.008063	0.129935	0.848784
	H376	H	0.013735	0.124427	0.844738
	H377	H	0.010447	0.124118	0.847970
	O378	O	0.508934	0.425925	0.440827
	H379	H	0.524279	0.425805	0.434279
	H380	H	0.513200	0.417849	0.442581
	O381	O	-0.090680	0.785581	-0.002387
	H382	H	-0.098823	0.778000	0.011438
	H383	H	-0.093499	0.789825	0.024302
	O384	O	0.302207	0.574455	0.519773
	H385	H	0.323049	0.569437	0.487916
	H386	H	0.280975	0.593035	0.510355
	O387	O	0.853650	-0.091634	1.062897
	H388	H	0.849571	-0.084483	1.066834
	H389	H	0.870375	-0.075589	1.059034
	O390	O	0.906848	0.890128	0.200895
	H391	H	0.924818	0.872476	0.217982
	H392	H	0.895587	0.916990	0.196944
	O393	O	1.098658	-0.083008	1.064016
	H394	H	1.098507	-0.079718	1.076388
	H395	H	1.101500	-0.087759	1.062467
	O396	O	1.013114	1.198099	0.203086
	H397	H	1.000885	1.220783	0.193887
	H398	H	1.004230	1.205220	0.195714
	O399	O	0.289086	0.349310	0.531307
	H400	H	0.307144	0.347738	0.550501
	H401	H	0.269526	0.322712	0.547293
	O402	O	0.899020	1.153104	0.055942
	H403	H	0.900690	1.157840	0.053416
	H404	H	0.896574	1.156847	0.042405
	O405	O	0.531879	0.700820	0.461815
	H406	H	0.540821	0.695231	0.465728
	H407	H	0.527272	0.708713	0.470880
	O408	O	0.326186	0.500039	0.347841
	H409	H	0.314830	0.504751	0.338364
	H410	H	0.328300	0.498175	0.342868
	O411	O	1.139266	0.967707	0.836583
	H412	H	1.156937	0.954614	0.828527
	H413	H	1.129557	0.944551	0.840653
	O414	O	0.483830	0.505461	0.374902
	H415	H	0.491007	0.505274	0.376980
	H416	H	0.481819	0.500637	0.365083
	O417	O	-0.129240	1.081498	1.022572
	H418	H	-0.125481	1.083675	0.989532
	H419	H	-0.136859	1.096442	1.012115
	O420	O	0.141453	1.186472	0.796381
	H421	H	0.151723	1.183648	0.807097
	H422	H	0.143456	1.172373	0.789170
	O423	O	0.177139	0.826858	-0.132396
	H424	H	0.167595	0.819337	-0.127812
	H425	H	0.174904	0.829521	-0.106313
	O426	O	0.647921	0.609324	0.679327
	H427	H	0.654854	0.588532	0.667349
	H428	H	0.618653	0.604467	0.686269
	O429	O	0.702110	0.705457	0.539171
	H430	H	0.717184	0.715993	0.557853
	H431	H	0.701993	0.708955	0.556016
	O432	O	0.619978	0.371345	0.420655
	H433	H	0.618428	0.376304	0.409447
	H434	H	0.610101	0.379805	0.436848
	O435	O	-0.158666	-0.140104	0.169173
	H436	H	-0.151103	-0.136937	0.171591
	H437	H	-0.163090	-0.121223	0.179201
	O438	O	-0.091814	0.859002	0.891672
	H439	H	-0.095072	0.856757	0.917587
	H440	H	-0.090120	0.844477	0.895605
	O441	O	0.661003	0.406427	0.632582
	H442	H	0.657020	0.407849	0.629585
	H443	H	0.653133	0.410251	0.624595
