data_Molecule from HDF5

_cell_length_a		16.305762
_cell_length_b		16.341979
_cell_length_c		16.569899
_cell_angle_alpha	90.079004
_cell_angle_beta	89.849567
_cell_angle_gamma	89.813700
_symmetry_space_group_name_H-M	'P 1'
_symmetry_Int_Tables_number		1

loop_
	_symmetry_equiv_pos_as_xyz
	x,y,z

loop_
	_atom_site_label
	_atom_site_type_symbol
	_atom_site_fract_x
	_atom_site_fract_y
	_atom_site_fract_z
	H0	H	0.389817	0.835215	0.722142
	H1	H	0.601422	0.152599	0.721334
	H2	H	0.608621	0.836150	0.277083
	H3	H	0.389894	0.151103	0.277143
	H4	H	0.721812	0.389231	0.843746
	H5	H	0.719953	0.599502	0.159359
	H6	H	0.278972	0.598158	0.843577
	H7	H	0.275871	0.386512	0.158164
	H8	H	0.837830	0.714093	0.400028
	H9	H	0.161241	0.711956	0.601538
	H10	H	0.837232	0.278046	0.604350
	H11	H	0.159735	0.276348	0.400203
	H12	H	0.839146	0.391049	0.723575
	H13	H	0.159738	0.599886	0.721497
	H14	H	0.840383	0.603273	0.279074
	H15	H	0.158058	0.387223	0.279909
	H16	H	0.394929	0.715145	0.843649
	H17	H	0.604082	0.717144	0.158693
	H18	H	0.604272	0.273153	0.842925
	H19	H	0.392425	0.269974	0.157680
	H20	H	0.720970	0.835882	0.395778
	H21	H	0.713400	0.155910	0.601741
	H22	H	0.280451	0.833682	0.601161
	H23	H	0.280451	0.154925	0.398670
	H24	H	0.890994	0.336754	0.224556
	H25	H	0.106259	0.653467	0.223543
	H26	H	0.102784	0.335599	0.782872
	H27	H	0.893396	0.655320	0.783114
	H28	H	0.220340	0.889127	0.342384
	H29	H	0.216964	0.096987	0.659061
	H30	H	0.777655	0.100805	0.342499
	H31	H	0.778266	0.893111	0.659349
	H32	H	0.338978	0.212857	0.899212
	H33	H	0.660107	0.212018	0.104002
	H34	H	0.337378	0.776791	0.102216
	H35	H	0.660729	0.775427	0.898251
	H36	H	0.340080	0.885545	0.224262
	H37	H	0.656840	0.102598	0.224808
	H38	H	0.339004	0.097428	0.782811
	H39	H	0.657793	0.886066	0.777251
	H40	H	0.893432	0.217754	0.343256
	H41	H	0.099151	0.212927	0.660488
	H42	H	0.105155	0.772178	0.342872
	H43	H	0.894891	0.776583	0.659722
	H44	H	0.216872	0.333493	0.900525
	H45	H	0.217755	0.654724	0.104273
	H46	H	0.780466	0.334011	0.105617
	H47	H	0.780165	0.655685	0.901437
	H48	H	0.411360	0.110217	0.599910
	H49	H	0.586370	0.879222	0.592020
	H50	H	0.590386	0.109304	0.410876
	H51	H	0.413195	0.879107	0.406608
	H52	H	0.585116	0.400106	0.113835
	H53	H	0.588208	0.583277	0.890074
	H54	H	0.410352	0.587368	0.115130
	H55	H	0.406757	0.408665	0.889969
	H56	H	0.111805	0.582391	0.415240
	H57	H	0.884913	0.589114	0.589603
	H58	H	0.114208	0.400368	0.592307
	H59	H	0.888659	0.413667	0.417478
	H60	H	0.112153	0.407493	0.589696
	H61	H	0.887056	0.579440	0.592632
	H62	H	0.111765	0.578551	0.410057
	H63	H	0.883086	0.410799	0.405512
	H64	H	0.406358	0.581843	0.114272
	H65	H	0.590081	0.583224	0.889888
	H66	H	0.593018	0.402290	0.115696
	H67	H	0.415469	0.402142	0.890306
	H68	H	0.580871	0.108127	0.405852
	H69	H	0.587836	0.880577	0.587821
	H70	H	0.413039	0.104756	0.586916
	H71	H	0.413613	0.882407	0.414462
	H72	H	0.906129	0.610969	0.095561
	H73	H	0.085390	0.382054	0.090201
	H74	H	0.087940	0.611026	0.906450
	H75	H	0.919941	0.381946	0.904458
	H76	H	0.091303	0.908768	0.612619
	H77	H	0.089341	0.085147	0.387406
	H78	H	0.894400	0.085227	0.617468
	H79	H	0.917108	0.899034	0.388314
	H80	H	0.612481	0.077966	0.910660
	H81	H	0.383911	0.088033	0.088004
	H82	H	0.614981	0.902118	0.093287
	H83	H	0.384831	0.912729	0.902842
	H84	H	0.610264	0.905341	0.081932
	H85	H	0.390091	0.076257	0.084215
	H86	H	0.614937	0.080772	0.906181
	H87	H	0.380251	0.895264	0.907379
	H88	H	0.912811	0.076074	0.608323
	H89	H	0.086720	0.085277	0.388418
	H90	H	0.084451	0.902477	0.611365
	H91	H	0.902384	0.903997	0.385768
	H92	H	0.086992	0.607966	0.914151
	H93	H	0.089078	0.380153	0.090481
	H94	H	0.917955	0.607040	0.093094
	H95	H	0.911744	0.384601	0.920473
	H96	H	0.400685	0.110903	0.590550
	H97	H	0.590238	0.878328	0.590960
	H98	H	0.582075	0.104973	0.416383
	H99	H	0.406755	0.878841	0.411542
	H100	H	0.588467	0.407349	0.111458
	H101	H	0.588476	0.582010	0.890001
	H102	H	0.412632	0.582048	0.111271
	H103	H	0.406215	0.398413	0.886019
	H104	H	0.114117	0.584506	0.409947
	H105	H	0.882481	0.586284	0.598758
	H106	H	0.114472	0.406644	0.596620
	H107	H	0.883189	0.400781	0.415288
	H108	H	0.909501	0.606155	0.083515
	H109	H	0.086430	0.380393	0.093524
	H110	H	0.094149	0.611943	0.912145
	H111	H	0.902607	0.376658	0.907270
	H112	H	0.092195	0.900122	0.615043
	H113	H	0.088268	0.087636	0.387719
	H114	H	0.912929	0.097610	0.615402
	H115	H	0.912288	0.914142	0.392311
	H116	H	0.614673	0.083425	0.911126
	H117	H	0.384022	0.077451	0.096717
	H118	H	0.610500	0.913228	0.091351
	H119	H	0.388585	0.906574	0.919890
	C120	C	0.376767	0.002820	0.622663
	C121	C	0.618567	0.985489	0.621290
	C122	C	0.619196	0.002748	0.378685
	C123	C	0.377955	0.985440	0.379253
	C124	C	0.621556	0.371624	0.009635
	C125	C	0.620869	0.615580	0.993625
	C126	C	0.377918	0.615558	0.009342
	C127	C	0.377352	0.371489	0.992744
	C128	C	0.007198	0.615271	0.380293
	C129	C	0.990886	0.616833	0.623653
	C130	C	0.007208	0.374428	0.623331
	C131	C	0.990378	0.374900	0.380668
	C132	C	0.878424	0.502936	0.122984
	C133	C	0.120047	0.485884	0.123047
	C134	C	0.120827	0.503867	0.880149
	C135	C	0.878435	0.486595	0.880297
	C136	C	0.121572	0.871843	0.508846
	C137	C	0.119408	0.116456	0.492756
	C138	C	0.875078	0.118586	0.509638
	C139	C	0.877751	0.873866	0.492925
	C140	C	0.507715	0.113255	0.879772
	C141	C	0.491102	0.114058	0.122084
	C142	C	0.506895	0.873612	0.121253
	C143	C	0.490281	0.872065	0.878415
	C144	C	0.373067	0.882978	0.681920
	C145	C	0.619861	0.105470	0.680749
	C146	C	0.624798	0.883471	0.317949
	C147	C	0.373495	0.104451	0.318658
	C148	C	0.681843	0.370206	0.891049
	C149	C	0.680102	0.617564	0.112269
	C150	C	0.318751	0.616716	0.890733
	C151	C	0.316271	0.368554	0.111045
	C152	C	0.886526	0.675160	0.380065
	C153	C	0.112519	0.673967	0.622000
	C154	C	0.885839	0.316251	0.624197
	C155	C	0.111118	0.315152	0.380369
	C156	C	0.887033	0.372887	0.683172
	C157	C	0.111856	0.617999	0.681438
	C158	C	0.887506	0.619877	0.319948
	C159	C	0.110325	0.370662	0.320648
	C160	C	0.376231	0.675177	0.890861
	C161	C	0.622749	0.676495	0.111632
	C162	C	0.623560	0.312351	0.890441
	C163	C	0.374419	0.310500	0.110758
	C164	C	0.680832	0.883368	0.377021
	C165	C	0.675362	0.107020	0.621366
	C166	C	0.318333	0.882051	0.621867
	C167	C	0.318735	0.106174	0.378934
	C168	C	0.874332	0.383772	0.183789
	C169	C	0.123269	0.605818	0.183059
	C170	C	0.121645	0.383180	0.822284
	C171	C	0.875600	0.607200	0.822358
	C172	C	0.180607	0.870215	0.389758
	C173	C	0.177545	0.116213	0.611733
	C174	C	0.816572	0.119812	0.390458
	C175	C	0.817648	0.873321	0.611617
	C176	C	0.387182	0.173229	0.879902
	C177	C	0.611358	0.173631	0.123551
	C178	C	0.385873	0.815091	0.121838
	C179	C	0.611830	0.813588	0.878296
	C180	C	0.387388	0.869101	0.182570
	C181	C	0.609883	0.118781	0.183653
	C182	C	0.387181	0.115888	0.821844
	C183	C	0.610368	0.868763	0.818116
	C184	C	0.874308	0.178113	0.390798
	C185	C	0.118977	0.174032	0.612526
	C186	C	0.123234	0.812006	0.390070
	C187	C	0.875566	0.814932	0.611713
	C188	C	0.178310	0.382329	0.880782
	C189	C	0.179059	0.606577	0.123802
	C190	C	0.818948	0.382576	0.124585
	C191	C	0.819000	0.607123	0.881058
	C192	C	0.401421	0.086916	0.599189
	C193	C	0.594898	0.901367	0.597154
	C194	C	0.592033	0.085905	0.403803
	C195	C	0.403805	0.901903	0.403798
	C196	C	0.596176	0.396017	0.092023
	C197	C	0.595950	0.590072	0.911244
	C198	C	0.402616	0.590730	0.092019
	C199	C	0.402320	0.396175	0.910467
	C200	C	0.090711	0.589268	0.404669
	C201	C	0.906770	0.592306	0.600354
	C202	C	0.091514	0.397930	0.599394
	C203	C	0.906613	0.401009	0.405534
	C204	C	0.904084	0.586318	0.098129
	C205	C	0.094463	0.402517	0.098310
	C206	C	0.096665	0.588360	0.904022
	C207	C	0.904061	0.402669	0.903840
	C208	C	0.096687	0.896741	0.591424
	C209	C	0.095221	0.092827	0.409540
	C210	C	0.899602	0.093531	0.592330
	C211	C	0.903168	0.898650	0.410306
	C212	C	0.592149	0.088118	0.902886
	C213	C	0.407767	0.088072	0.096792
	C214	C	0.590193	0.899522	0.096086
	C215	C	0.406358	0.897515	0.902874
	Zn216	Zn	0.498587	-0.007099	0.749851
	Zn217	Zn	0.498780	-0.006762	0.250365
	Zn218	Zn	0.750903	0.493861	0.002264
	Zn219	Zn	0.248386	0.494446	0.002034
	Zn220	Zn	-0.000563	0.744028	0.501092
	Zn221	Zn	-0.002157	0.246574	0.501530
	Zn222	Zn	-0.000798	0.495744	0.752047
	Zn223	Zn	-0.001133	0.494634	0.251092
	Zn224	Zn	0.498985	0.744995	0.001125
	Zn225	Zn	0.500045	0.242174	0.001015
	Zn226	Zn	0.747279	-0.004626	0.500270
	Zn227	Zn	0.249667	-0.005824	0.500151
	N228	N	0.408664	0.959147	0.682407
	N229	N	0.585421	0.028803	0.680844
	N230	N	0.587158	0.958891	0.319001
	N231	N	0.409663	0.028561	0.318937
	N232	N	0.680932	0.406080	0.966052
	N233	N	0.679082	0.580460	0.037830
	N234	N	0.319756	0.580261	0.965478
	N235	N	0.318033	0.406004	0.036831
	N236	N	0.961949	0.672579	0.416774
	N237	N	0.036361	0.673248	0.586768
	N238	N	0.961484	0.317008	0.587659
	N239	N	0.035435	0.317650	0.417103
	N240	N	0.963452	0.408220	0.682825
	N241	N	0.035216	0.583322	0.682817
	N242	N	0.963617	0.583395	0.319913
	N243	N	0.033990	0.406818	0.320633
	N244	N	0.412213	0.674564	0.965543
	N245	N	0.586464	0.675236	0.037050
	N246	N	0.586933	0.312917	0.965267
	N247	N	0.411683	0.311968	0.036357
	N248	N	0.677254	0.958459	0.414158
	N249	N	0.674742	0.031458	0.584990
	N250	N	0.320392	0.957602	0.585515
	N251	N	0.321433	0.030933	0.415934
	N252	N	0.910394	0.459596	0.182941
	N253	N	0.087343	0.529801	0.182738
	N254	N	0.086924	0.459834	0.821666
	N255	N	0.911647	0.530927	0.821683
	N256	N	0.179727	0.906859	0.464473
	N257	N	0.177966	0.081243	0.536245
	N258	N	0.816929	0.083432	0.465258
	N259	N	0.818548	0.909064	0.536556
	N260	N	0.463275	0.171703	0.915181
	N261	N	0.536413	0.170814	0.085921
	N262	N	0.461147	0.817709	0.084420
	N263	N	0.535984	0.815236	0.914945
	N264	N	0.463554	0.904939	0.182279
	N265	N	0.533937	0.082595	0.182927
	N266	N	0.463164	0.079176	0.821639
	N267	N	0.533738	0.904019	0.817940
	N268	N	0.909889	0.177536	0.465977
	N269	N	0.083690	0.174443	0.537339
	N270	N	0.087392	0.812748	0.465226
	N271	N	0.912281	0.815337	0.536866
	N272	N	0.178006	0.458618	0.915989
	N273	N	0.177277	0.530946	0.087350
	N274	N	0.821374	0.457684	0.087462
	N275	N	0.820677	0.531183	0.916388
	O276	O	0.406227	0.332661	0.699791
	H277	H	0.416272	0.331251	0.701448
	H278	H	0.408205	0.337484	0.705042
	O279	O	0.707241	0.615579	0.509816
	H280	H	0.706598	0.621074	0.490441
	H281	H	0.707621	0.619265	0.498901
	O282	O	0.606948	0.669081	0.379945
	H283	H	0.584928	0.678133	0.359873
	H284	H	0.598962	0.669664	0.390288
	O285	O	0.819530	1.060423	-0.175960
	H286	H	0.828879	1.050766	-0.173470
	H287	H	0.818914	1.059259	-0.179299
	O288	O	0.603454	0.303680	0.515958
	H289	H	0.608557	0.304973	0.508570
	H290	H	0.603002	0.300407	0.520962
	O291	O	0.447846	0.690733	0.310148
	H292	H	0.439005	0.685709	0.296390
	H293	H	0.419529	0.688749	0.336803
	O294	O	0.987054	0.822956	1.140760
	H295	H	0.957796	0.818454	1.140944
	H296	H	0.989919	0.805141	1.156533
	O297	O	0.314235	0.668715	0.373213
	H298	H	0.299816	0.645579	0.380849
	H299	H	0.316697	0.670077	0.388035
	O300	O	0.658432	0.479493	0.412728
	H301	H	0.665815	0.473472	0.395987
	H302	H	0.654582	0.484600	0.398211
	O303	O	0.522084	0.674466	0.693711
	H304	H	0.548300	0.669981	0.676689
	H305	H	0.529071	0.702074	0.715303
	O306	O	-0.121528	0.041584	1.163105
	H307	H	-0.141022	0.040604	1.177001
	H308	H	-0.110051	0.034165	1.154456
	O309	O	0.960784	-0.068331	0.024474
	H310	H	0.968306	-0.082457	0.017296
	H311	H	0.947727	-0.067588	0.026243
	O312	O	0.523309	0.329357	0.648120
	H313	H	0.514966	0.339868	0.652843
	H314	H	0.513857	0.332961	0.660373
	O315	O	0.608095	0.305065	0.310573
	H316	H	0.616728	0.336783	0.312523
	H317	H	0.585998	0.290655	0.286374
	O318	O	0.143612	0.189925	0.168638
	H319	H	0.145179	0.199708	0.152939
	H320	H	0.112254	0.191187	0.164192
	O321	O	0.368520	0.323791	0.608343
	H322	H	0.353528	0.300417	0.619201
	H323	H	0.383783	0.320062	0.609705
	O324	O	1.091645	-0.071818	0.856265
	H325	H	1.092621	-0.077916	0.861579
	H326	H	1.102384	-0.069458	0.856268
	O327	O	0.438973	0.544841	0.616665
	H328	H	0.452550	0.554134	0.634969
	H329	H	0.428868	0.538339	0.636368
	O330	O	-0.003068	1.138231	0.822096
	H331	H	-0.002673	1.148229	0.818977
	H332	H	0.003194	1.127510	0.827179
	O333	O	0.042528	1.024656	-0.003563
	H334	H	0.039091	1.008071	-0.009273
	H335	H	0.048016	1.033487	-0.002773
	O336	O	0.979342	1.110205	0.056144
	H337	H	0.985439	1.113266	0.062256
	H338	H	0.966425	1.122455	0.050277
	O339	O	0.152266	0.989930	1.141108
	H340	H	0.158713	0.990130	1.156793
	H341	H	0.150106	1.018764	1.138664
	O342	O	0.494277	0.371496	0.285711
	H343	H	0.479990	0.376931	0.289111
	H344	H	0.487174	0.353813	0.273898
	O345	O	0.177615	-0.146752	1.015031
	H346	H	0.170745	-0.138871	1.028433
	H347	H	0.187150	-0.149067	1.024665
	O348	O	0.314752	0.490234	0.298747
	H349	H	0.298237	0.481296	0.304940
	H350	H	0.319058	0.482652	0.288801
	O351	O	0.824639	0.926333	0.043188
	H352	H	0.821274	0.929593	0.057672
	H353	H	0.820422	0.935170	0.037388
	O354	O	1.146500	0.945157	0.813290
	H355	H	1.162586	0.942995	0.815710
	H356	H	1.155196	0.943529	0.811353
	O357	O	-0.572744	0.430252	0.520278
	H358	H	-0.566758	0.407704	0.523681
	H359	H	-0.572834	0.439133	0.540684
	O360	O	0.453329	0.348913	0.442277
	H361	H	0.448778	0.351216	0.448373
	H362	H	0.445234	0.352455	0.441078
	O363	O	1.092584	0.120558	0.049178
	H364	H	1.082426	0.121845	0.044257
	H365	H	1.090026	0.103281	0.058573
	O366	O	-0.533066	-0.437188	1.517269
	H367	H	-0.533117	-0.459389	1.516819
	H368	H	-0.536005	-0.415754	1.521163
	O369	O	0.448641	-0.608874	0.373959
	H370	H	0.445076	-0.604773	0.374399
	H371	H	0.452609	-0.624879	0.387210
	O372	O	0.670763	0.633046	0.697890
	H373	H	0.693726	0.624690	0.706178
	H374	H	0.674535	0.636871	0.676653
	O375	O	0.173744	0.136070	0.929526
	H376	H	0.174140	0.139081	0.920806
	H377	H	0.168426	0.132571	0.942284
	O378	O	0.330334	0.569973	0.573651
	H379	H	0.346966	0.564548	0.574502
	H380	H	0.325104	0.548967	0.576950
	O381	O	0.110856	0.887568	-0.175437
	H382	H	0.108554	0.885458	-0.166415
	H383	H	0.126164	0.881728	-0.185766
	O384	O	0.048298	0.922846	0.120613
	H385	H	0.052189	0.917947	0.130464
	H386	H	0.056319	0.925949	0.124715
	O387	O	0.884460	0.059750	1.050831
	H388	H	0.870490	0.076201	1.049232
	H389	H	0.895753	0.050477	1.040624
	O390	O	1.672003	0.454140	-0.300871
	H391	H	1.685680	0.452131	-0.310414
	H392	H	1.672899	0.454377	-0.310333
	O393	O	0.820227	0.084068	0.842902
	H394	H	0.833106	0.095760	0.831380
	H395	H	0.819836	0.072672	0.830777
	O396	O	0.981304	0.804802	-0.100761
	H397	H	0.992301	0.814175	-0.102608
	H398	H	0.992375	0.810503	-0.104023
	O399	O	0.096020	0.917950	1.044697
	H400	H	0.079017	0.919204	1.046924
	H401	H	0.093826	0.908761	1.060871
	O402	O	0.805515	1.126244	-0.019890
	H403	H	0.806060	1.133213	-0.047588
	H404	H	0.780759	1.140760	-0.025625
	O405	O	0.558587	0.685251	0.563514
	H406	H	0.552465	0.690682	0.556579
	H407	H	0.558803	0.689556	0.569085
	O408	O	0.430734	0.528598	0.452786
	H409	H	0.426051	0.528038	0.454556
	H410	H	0.418987	0.513368	0.452394
	O411	O	1.088431	1.109402	1.197842
	H412	H	1.087966	1.106275	1.208791
	H413	H	1.081419	1.125903	1.197677
	O414	O	0.546554	0.557883	0.401120
	H415	H	0.539822	0.558252	0.391325
	H416	H	0.527538	0.578627	0.395799
	O417	O	-0.117528	1.100971	1.089709
	H418	H	-0.123086	1.101492	1.067530
	H419	H	-0.117776	1.100984	1.092552
	O420	O	0.300349	1.329116	0.624599
	H421	H	0.312099	1.342285	0.637902
	H422	H	0.303891	1.319107	0.627197
	O423	O	0.094809	0.990151	-0.056470
	H424	H	0.090343	0.998542	-0.043859
	H425	H	0.098526	0.983810	-0.060586
	O426	O	0.334534	0.638259	0.458600
	H427	H	0.316858	0.643738	0.460949
	H428	H	0.341948	0.652910	0.456161
	O429	O	0.665877	0.486156	0.525037
	H430	H	0.668512	0.486010	0.529868
	H431	H	0.674373	0.481226	0.497911
	O432	O	0.692062	0.293283	0.411506
	H433	H	0.707659	0.268641	0.427790
	H434	H	0.681804	0.311224	0.378337
	O435	O	-0.080699	-0.196820	0.070826
	H436	H	-0.091778	-0.207964	0.040139
	H437	H	-0.079522	-0.182354	0.088390
	O438	O	-0.124542	0.860303	0.968819
	H439	H	-0.119033	0.844968	0.978063
	H440	H	-0.115331	0.855401	0.953034
	O441	O	0.467376	0.523860	0.704187
	H442	H	0.488383	0.538312	0.703746
	H443	H	0.475749	0.534149	0.709299
