data_Molecule from HDF5

_cell_length_a		16.620809
_cell_length_b		16.693524
_cell_length_c		16.627172
_cell_angle_alpha	89.888771
_cell_angle_beta	89.845128
_cell_angle_gamma	90.035513
_symmetry_space_group_name_H-M	'P 1'
_symmetry_Int_Tables_number		1

loop_
	_symmetry_equiv_pos_as_xyz
	x,y,z

loop_
	_atom_site_label
	_atom_site_type_symbol
	_atom_site_fract_x
	_atom_site_fract_y
	_atom_site_fract_z
	H0	H	0.385681	0.845162	0.714485
	H1	H	0.586281	0.159937	0.717827
	H2	H	0.593882	0.850676	0.275458
	H3	H	0.381465	0.159848	0.279142
	H4	H	0.705795	0.399365	0.843402
	H5	H	0.703683	0.606688	0.155903
	H6	H	0.266084	0.607294	0.842842
	H7	H	0.265350	0.401050	0.155853
	H8	H	0.830195	0.727533	0.391666
	H9	H	0.141416	0.723374	0.601158
	H10	H	0.828481	0.285824	0.603759
	H11	H	0.143014	0.288436	0.399448
	H12	H	0.828381	0.402534	0.718626
	H13	H	0.142498	0.606706	0.716522
	H14	H	0.830168	0.610992	0.277317
	H15	H	0.141058	0.402297	0.280351
	H16	H	0.380451	0.725401	0.843696
	H17	H	0.588317	0.723137	0.155947
	H18	H	0.587879	0.285366	0.842295
	H19	H	0.380840	0.284246	0.155041
	H20	H	0.708914	0.850548	0.392660
	H21	H	0.703880	0.159817	0.602974
	H22	H	0.268714	0.845600	0.598243
	H23	H	0.266307	0.160102	0.395831
	H24	H	0.880864	0.348060	0.218968
	H25	H	0.091177	0.658085	0.222296
	H26	H	0.089601	0.350411	0.778593
	H27	H	0.879894	0.660253	0.777957
	H28	H	0.206778	0.899086	0.342694
	H29	H	0.200720	0.102134	0.657457
	H30	H	0.765570	0.107414	0.344104
	H31	H	0.765502	0.900041	0.655602
	H32	H	0.326693	0.220700	0.898852
	H33	H	0.639627	0.226629	0.105034
	H34	H	0.331481	0.780054	0.109143
	H35	H	0.639918	0.782529	0.893875
	H36	H	0.331074	0.896616	0.223476
	H37	H	0.639655	0.111990	0.221729
	H38	H	0.325166	0.102210	0.785804
	H39	H	0.640703	0.900781	0.779952
	H40	H	0.883067	0.222920	0.343438
	H41	H	0.086750	0.220693	0.656976
	H42	H	0.092125	0.781761	0.343691
	H43	H	0.879614	0.782174	0.654125
	H44	H	0.205596	0.349815	0.894681
	H45	H	0.205767	0.659829	0.104240
	H46	H	0.764956	0.348335	0.102951
	H47	H	0.763124	0.659396	0.893521
	H48	H	0.394124	0.114794	0.590495
	H49	H	0.582277	0.890664	0.587777
	H50	H	0.573243	0.114140	0.411035
	H51	H	0.395285	0.892076	0.407438
	H52	H	0.575465	0.420512	0.108293
	H53	H	0.571702	0.595383	0.887616
	H54	H	0.395121	0.591445	0.110645
	H55	H	0.397518	0.418013	0.888830
	H56	H	0.091944	0.582283	0.409851
	H57	H	0.871265	0.596663	0.592191
	H58	H	0.095614	0.411628	0.583517
	H59	H	0.869013	0.403593	0.406411
	H60	H	0.097043	0.418194	0.593592
	H61	H	0.873750	0.595175	0.584548
	H62	H	0.097976	0.596319	0.405291
	H63	H	0.874879	0.413100	0.418083
	H64	H	0.396286	0.593421	0.110572
	H65	H	0.575089	0.594541	0.887320
	H66	H	0.566610	0.412214	0.108996
	H67	H	0.396499	0.406292	0.885222
	H68	H	0.571974	0.113856	0.411702
	H69	H	0.572439	0.890122	0.597219
	H70	H	0.387277	0.116972	0.591349
	H71	H	0.399431	0.893333	0.411002
	H72	H	0.892306	0.615504	0.088922
	H73	H	0.073911	0.393031	0.089655
	H74	H	0.073786	0.615478	0.910915
	H75	H	0.899883	0.394788	0.907350
	H76	H	0.077307	0.916527	0.610039
	H77	H	0.079710	0.096818	0.385329
	H78	H	0.890118	0.095046	0.613841
	H79	H	0.894272	0.918211	0.387510
	H80	H	0.599729	0.099942	0.905169
	H81	H	0.374201	0.087220	0.093656
	H82	H	0.596343	0.912110	0.084336
	H83	H	0.371390	0.910135	0.910120
	H84	H	0.593320	0.918990	0.083775
	H85	H	0.371445	0.099698	0.090054
	H86	H	0.595068	0.095306	0.912893
	H87	H	0.373288	0.914817	0.911132
	H88	H	0.895136	0.092499	0.611456
	H89	H	0.075773	0.093740	0.387851
	H90	H	0.070766	0.913276	0.608796
	H91	H	0.900635	0.919577	0.390610
	H92	H	0.077335	0.617609	0.909687
	H93	H	0.074498	0.393385	0.088816
	H94	H	0.895679	0.615485	0.091136
	H95	H	0.895879	0.395660	0.914527
	H96	H	0.391758	0.118041	0.596556
	H97	H	0.569880	0.895121	0.584485
	H98	H	0.574038	0.113570	0.412113
	H99	H	0.394335	0.892796	0.412591
	H100	H	0.577694	0.410170	0.113113
	H101	H	0.572787	0.591973	0.889114
	H102	H	0.394354	0.593618	0.110905
	H103	H	0.386469	0.413944	0.884649
	H104	H	0.092801	0.594728	0.420051
	H105	H	0.874835	0.589163	0.590917
	H106	H	0.100880	0.407068	0.593050
	H107	H	0.871924	0.419426	0.403097
	H108	H	0.896313	0.614809	0.087229
	H109	H	0.074877	0.393566	0.089381
	H110	H	0.074112	0.616731	0.906855
	H111	H	0.891874	0.392546	0.908202
	H112	H	0.076421	0.909307	0.612306
	H113	H	0.074634	0.098551	0.386254
	H114	H	0.895647	0.098141	0.613697
	H115	H	0.899003	0.913008	0.387873
	H116	H	0.596527	0.090481	0.903782
	H117	H	0.377347	0.091347	0.081197
	H118	H	0.597259	0.917070	0.089763
	H119	H	0.370750	0.913374	0.906607
	C120	C	0.362308	0.011881	0.621411
	C121	C	0.605708	0.995489	0.620846
	C122	C	0.606536	0.012461	0.378380
	C123	C	0.364353	0.995602	0.378387
	C124	C	0.605250	0.382919	0.007059
	C125	C	0.605147	0.624790	0.991284
	C126	C	0.363680	0.625339	0.007651
	C127	C	0.362868	0.382581	0.990118
	C128	C	-0.007249	0.624793	0.377962
	C129	C	0.976611	0.625267	0.620032
	C130	C	-0.006186	0.382456	0.621094
	C131	C	0.976255	0.382273	0.378497
	C132	C	0.863182	0.512151	0.120533
	C133	C	0.106157	0.496165	0.120783
	C134	C	0.106246	0.513480	0.878008
	C135	C	0.863184	0.496246	0.877537
	C136	C	0.106485	0.882125	0.506972
	C137	C	0.106210	0.125168	0.490958
	C138	C	0.863317	0.125984	0.509131
	C139	C	0.865154	0.883667	0.491206
	C140	C	0.492785	0.125015	0.877998
	C141	C	0.476899	0.125429	0.120454
	C142	C	0.493566	0.882713	0.120407
	C143	C	0.475936	0.882151	0.878242
	C144	C	0.364985	0.892657	0.676337
	C145	C	0.605764	0.112881	0.678926
	C146	C	0.611161	0.896801	0.316609
	C147	C	0.362996	0.112791	0.318944
	C148	C	0.665285	0.381437	0.890057
	C149	C	0.664267	0.625699	0.108951
	C150	C	0.305429	0.626486	0.889661
	C151	C	0.304596	0.381954	0.108438
	C152	C	0.876644	0.686635	0.374179
	C153	C	0.094774	0.683441	0.619924
	C154	C	0.875567	0.324789	0.622319
	C155	C	0.095019	0.326126	0.379113
	C156	C	0.875558	0.382919	0.679391
	C157	C	0.095071	0.625853	0.677688
	C158	C	0.876570	0.628661	0.317159
	C159	C	0.094400	0.382861	0.320287
	C160	C	0.362214	0.685071	0.890448
	C161	C	0.606947	0.683639	0.108968
	C162	C	0.606935	0.324419	0.889457
	C163	C	0.362103	0.324040	0.108089
	C164	C	0.668257	0.896665	0.374874
	C165	C	0.664333	0.112784	0.621687
	C166	C	0.306990	0.892951	0.618719
	C167	C	0.305624	0.112951	0.377122
	C168	C	0.862005	0.395132	0.179503
	C169	C	0.108809	0.612164	0.181365
	C170	C	0.107830	0.396901	0.818446
	C171	C	0.861393	0.613481	0.818073
	C172	C	0.166767	0.880295	0.389802
	C173	C	0.162659	0.123046	0.610026
	C174	C	0.805510	0.126292	0.390788
	C175	C	0.805100	0.881215	0.608492
	C176	C	0.373848	0.181581	0.879391
	C177	C	0.593179	0.186340	0.122991
	C178	C	0.377791	0.820934	0.125645
	C179	C	0.593244	0.822739	0.875938
	C180	C	0.377772	0.878868	0.182736
	C181	C	0.593410	0.129098	0.180833
	C182	C	0.373223	0.122964	0.822864
	C183	C	0.593550	0.881359	0.819279
	C184	C	0.863664	0.183631	0.390569
	C185	C	0.105883	0.181669	0.609793
	C186	C	0.109598	0.822082	0.390148
	C187	C	0.861840	0.822591	0.607614
	C188	C	0.165497	0.396413	0.876185
	C189	C	0.166038	0.612964	0.122927
	C190	C	0.804497	0.395100	0.121631
	C191	C	0.803330	0.613008	0.875563
	C192	C	0.384685	0.094913	0.599335
	C193	C	0.581794	0.913369	0.596787
	C194	C	0.580412	0.092802	0.404161
	C195	C	0.389287	0.913829	0.403294
	C196	C	0.580273	0.407217	0.088871
	C197	C	0.580380	0.600727	0.909441
	C198	C	0.388115	0.600169	0.089351
	C199	C	0.386603	0.406175	0.907673
	C200	C	0.073260	0.598445	0.404234
	C201	C	0.894629	0.600800	0.596164
	C202	C	0.076262	0.405871	0.597045
	C203	C	0.893466	0.405726	0.402261
	C204	C	0.887654	0.594008	0.095936
	C205	C	0.081350	0.414646	0.096199
	C206	C	0.081965	0.595348	0.902351
	C207	C	0.888760	0.415444	0.902669
	C208	C	0.081654	0.906273	0.589098
	C209	C	0.083358	0.102693	0.407982
	C210	C	0.886991	0.102150	0.591418
	C211	C	0.890706	0.909484	0.409901
	C212	C	0.575532	0.101929	0.900832
	C213	C	0.395422	0.099886	0.095517
	C214	C	0.574497	0.908870	0.093559
	C215	C	0.393328	0.905870	0.902569
	Zn216	Zn	0.484066	0.003445	0.749968
	Zn217	Zn	0.485983	0.003790	0.248902
	Zn218	Zn	0.734013	0.504223	-0.000846
	Zn219	Zn	0.235164	0.504564	-0.000558
	Zn220	Zn	-0.014926	0.753620	0.498037
	Zn221	Zn	-0.014788	0.254018	0.500029
	Zn222	Zn	-0.014918	0.504682	0.749063
	Zn223	Zn	-0.015788	0.503670	0.249619
	Zn224	Zn	0.485031	0.754099	-0.000510
	Zn225	Zn	0.484805	0.253884	-0.001282
	Zn226	Zn	0.735421	0.004011	0.499742
	Zn227	Zn	0.234436	0.003635	0.498893
	N228	N	0.398267	0.967941	0.678668
	N229	N	0.570190	0.038701	0.678689
	N230	N	0.573475	0.969731	0.318564
	N231	N	0.398788	0.038581	0.319357
	N232	N	0.664511	0.417120	0.964361
	N233	N	0.663344	0.589922	0.034659
	N234	N	0.306124	0.589995	0.963673
	N235	N	0.304834	0.417500	0.034041
	N236	N	0.949823	0.684293	0.411502
	N237	N	0.019931	0.683562	0.585163
	N238	N	0.950293	0.324104	0.587047
	N239	N	0.020300	0.325461	0.414370
	N240	N	0.950252	0.417883	0.679303
	N241	N	0.020553	0.590444	0.678082
	N242	N	0.949617	0.590601	0.319470
	N243	N	0.019255	0.417138	0.319813
	N244	N	0.397475	0.684650	0.965010
	N245	N	0.571004	0.683577	0.034685
	N246	N	0.570322	0.325182	0.963353
	N247	N	0.397444	0.323852	0.033314
	N248	N	0.665843	0.969645	0.412665
	N249	N	0.664778	0.038434	0.586489
	N250	N	0.304942	0.968204	0.585580
	N251	N	0.306150	0.038837	0.413238
	N252	N	0.897723	0.469199	0.179201
	N253	N	0.072279	0.538421	0.180313
	N254	N	0.071712	0.470748	0.819392
	N255	N	0.897931	0.539994	0.818913
	N256	N	0.165108	0.916841	0.463578
	N257	N	0.163425	0.088879	0.534914
	N258	N	0.804808	0.091427	0.465619
	N259	N	0.806747	0.918392	0.534914
	N260	N	0.449389	0.183562	0.912584
	N261	N	0.519641	0.184320	0.086065
	N262	N	0.450771	0.823359	0.087206
	N263	N	0.518736	0.822989	0.911861
	N264	N	0.450907	0.916736	0.179616
	N265	N	0.519949	0.091627	0.179334
	N266	N	0.448359	0.088716	0.821513
	N267	N	0.519422	0.917433	0.820589
	N268	N	0.898630	0.183728	0.465266
	N269	N	0.071661	0.183277	0.534621
	N270	N	0.072787	0.823019	0.464207
	N271	N	0.898325	0.823744	0.533636
	N272	N	0.164721	0.470173	0.912544
	N273	N	0.164719	0.539555	0.086026
	N274	N	0.804817	0.469098	0.085897
	N275	N	0.803912	0.539063	0.911727
	O276	O	-0.131808	0.840610	0.183724
	H277	H	-0.120129	0.855853	0.177864
	H278	H	-0.137267	0.823380	0.202577
	O279	O	0.642624	0.720673	0.533579
	H280	H	0.649916	0.712960	0.529312
	H281	H	0.659117	0.712990	0.525882
	O282	O	1.201646	0.009150	0.992371
	H283	H	1.216084	-0.015014	0.998970
	H284	H	1.184357	0.026531	1.008075
	O285	O	0.672062	0.321410	0.686104
	H286	H	0.645967	0.318260	0.672952
	H287	H	0.671953	0.357112	0.672188
	O288	O	0.024789	-0.220420	-0.228594
	H289	H	0.005638	-0.216916	-0.195531
	H290	H	0.021442	-0.260947	-0.261723
	O291	O	0.268834	0.567108	0.279911
	H292	H	0.265067	0.589197	0.271755
	H293	H	0.258706	0.574680	0.287961
	O294	O	1.680850	0.626935	0.524389
	H295	H	1.691780	0.629990	0.516238
	H296	H	1.689752	0.602937	0.516482
	O297	O	0.281603	0.716198	0.450616
	H298	H	0.298045	0.714358	0.470077
	H299	H	0.269815	0.731769	0.470459
	O300	O	-0.207110	-0.217958	1.035466
	H301	H	-0.222512	-0.219788	1.055752
	H302	H	-0.218960	-0.225809	1.050753
	O303	O	0.690101	0.706768	0.708968
	H304	H	0.707815	0.728836	0.689860
	H305	H	0.700537	0.718235	0.706203
	O306	O	0.477522	0.511956	0.355990
	H307	H	0.482063	0.509412	0.356742
	H308	H	0.474282	0.509387	0.353108
	O309	O	0.427154	0.305831	0.486097
	H310	H	0.434544	0.308023	0.503693
	H311	H	0.424886	0.302231	0.494099
	O312	O	0.931685	0.969189	0.021781
	H313	H	0.930062	0.964408	0.022953
	H314	H	0.928882	0.974626	0.020127
	O315	O	0.701608	0.532469	0.722909
	H316	H	0.724877	0.544493	0.739359
	H317	H	0.702199	0.558981	0.721174
	O318	O	0.268150	0.286402	0.540723
	H319	H	0.260013	0.286491	0.555530
	H320	H	0.268248	0.271093	0.532749
	O321	O	-0.075576	1.189502	1.064950
	H322	H	-0.055735	1.193953	1.068489
	H323	H	-0.087220	1.202884	1.054811
	O324	O	0.778505	0.928703	0.205847
	H325	H	0.789374	0.919365	0.207698
	H326	H	0.769637	0.917232	0.218900
	O327	O	0.452046	-0.284385	0.290597
	H328	H	0.457621	-0.289058	0.295276
	H329	H	0.459125	-0.271907	0.279383
	O330	O	0.714651	0.472716	0.275927
	H331	H	0.742902	0.469365	0.245646
	H332	H	0.704878	0.432000	0.277271
	O333	O	0.540639	0.582545	0.589896
	H334	H	0.547960	0.596557	0.610378
	H335	H	0.546355	0.578947	0.586931
	O336	O	0.941467	-0.165418	-0.068851
	H337	H	0.947022	-0.170845	-0.047958
	H338	H	0.930341	-0.156046	-0.061447
	O339	O	1.012189	-0.035771	1.217703
	H340	H	1.015776	-0.025955	1.216603
	H341	H	1.022365	-0.027495	1.209821
	O342	O	0.539863	-0.688360	0.598867
	H343	H	0.560098	-0.684857	0.589255
	H344	H	0.526925	-0.694402	0.603273
	O345	O	0.196140	1.216942	1.216996
	H346	H	0.225318	1.246577	1.240117
	H347	H	0.188462	1.210279	1.204660
	O348	O	0.271567	0.546690	0.527994
	H349	H	0.268337	0.548338	0.557153
	H350	H	0.276024	0.561562	0.544429
	O351	O	0.527545	0.719550	0.433498
	H352	H	0.524389	0.726167	0.447280
	H353	H	0.521523	0.714369	0.437563
	O354	O	-0.205168	-0.172353	0.892396
	H355	H	-0.214683	-0.171018	0.913068
	H356	H	-0.197202	-0.149374	0.898729
	O357	O	0.147074	0.944222	0.033238
	H358	H	0.138823	0.932454	0.045236
	H359	H	0.142883	0.935953	0.058478
	O360	O	0.692232	0.297835	0.292842
	H361	H	0.652122	0.299687	0.291035
	H362	H	0.721408	0.264160	0.259458
	O363	O	0.020379	-0.123854	0.094109
	H364	H	0.016494	-0.114614	0.098426
	H365	H	0.013730	-0.119863	0.079297
	O366	O	0.402030	0.636030	0.523418
	H367	H	0.396794	0.632744	0.535649
	H368	H	0.412089	0.641141	0.542573
	O369	O	0.743304	0.025407	0.009896
	H370	H	0.743702	0.036392	0.011030
	H371	H	0.741871	0.041905	0.015610
	O372	O	0.946648	1.106183	-0.135636
	H373	H	0.937078	1.097274	-0.130681
	H374	H	0.946591	1.109097	-0.157549
	O375	O	1.171683	0.200536	-0.191392
	H376	H	1.147583	0.187845	-0.172300
	H377	H	1.157478	0.184413	-0.169304
	O378	O	0.623157	0.560504	0.357127
	H379	H	0.610000	0.549969	0.368386
	H380	H	0.619606	0.550631	0.358629
	O381	O	0.537584	0.290627	0.330855
	H382	H	0.534715	0.293791	0.329425
	H383	H	0.532148	0.282576	0.327417
	O384	O	1.128568	0.022333	0.869527
	H385	H	1.151338	0.017017	0.852845
	H386	H	1.130257	0.027012	0.904653
	O387	O	1.038941	1.056366	-0.137562
	H388	H	1.058438	1.065576	-0.137251
	H389	H	1.035460	1.034947	-0.144183
	O390	O	0.206262	0.229829	0.038165
	H391	H	0.203972	0.212117	0.037747
	H392	H	0.236917	0.255755	0.045615
	O393	O	0.710976	0.476637	0.525370
	H394	H	0.712798	0.452502	0.503842
	H395	H	0.702807	0.481021	0.533025
	O396	O	-0.131897	0.994596	1.161409
	H397	H	-0.118487	0.997844	1.152925
	H398	H	-0.137691	0.970834	1.168889
	O399	O	0.126275	-0.179897	1.178751
	H400	H	0.101082	-0.182765	1.164014
	H401	H	0.130255	-0.190506	1.206059
	O402	O	0.523989	0.517718	0.492150
	H403	H	0.520289	0.516060	0.495740
	H404	H	0.522268	0.513830	0.506531
	O405	O	0.934225	-0.097561	0.794777
	H406	H	0.952909	-0.091957	0.790374
	H407	H	0.925146	-0.104618	0.799190
	O408	O	0.009897	0.051901	-0.028888
	H409	H	0.001753	0.047811	-0.030603
	H410	H	0.002184	0.055750	-0.039205
	O411	O	0.021731	1.229041	1.219245
	H412	H	0.035199	1.228817	1.229084
	H413	H	0.029430	1.242692	1.232934
	O414	O	1.703450	0.285453	1.463244
	H415	H	1.721538	0.272741	1.455016
	H416	H	1.712430	0.276515	1.429941
	O417	O	0.514756	0.474316	0.448900
	H418	H	0.510673	0.471585	0.463818
	H419	H	0.502311	0.491788	0.451006
	O420	O	-0.286687	-0.260162	0.263755
	H421	H	-0.305052	-0.274783	0.295890
	H422	H	-0.287474	-0.269582	0.258731
	O423	O	0.210871	-0.045226	0.771377
	H424	H	0.240773	-0.048040	0.739855
	H425	H	0.211175	-0.088391	0.778537
	O426	O	0.438555	0.556686	0.688100
	H427	H	0.428709	0.543976	0.696778
	H428	H	0.446617	0.560597	0.692618
	O429	O	1.405347	1.400696	1.284534
	H430	H	1.391181	1.415494	1.287235
	H431	H	1.406723	1.388436	1.304406
	O432	O	0.300471	0.669967	0.666227
	H433	H	0.302305	0.656623	0.688298
	H434	H	0.297896	0.679077	0.688576
	O435	O	0.442436	0.278890	0.721180
	H436	H	0.446066	0.281108	0.723217
	H437	H	0.435811	0.268181	0.740346
	O438	O	-0.015602	0.033886	0.182822
	H439	H	-0.018343	0.025744	0.173019
	H440	H	-0.006295	0.025107	0.192410
	O441	O	0.789837	0.197828	0.194576
	H442	H	0.802425	0.172948	0.183958
	H443	H	0.812890	0.178251	0.176262
	O444	O	0.321503	0.641010	0.286989
	H445	H	0.308223	0.649794	0.326109
	H446	H	0.361181	0.645748	0.283095
	O447	O	-0.081261	1.220603	0.809001
	H448	H	-0.065985	1.207170	0.808464
	H449	H	-0.075713	1.236940	0.799879
	O450	O	0.180119	0.795612	0.968794
	H451	H	0.196784	0.798393	0.980001
	H452	H	0.186177	0.807504	0.984561
	O453	O	0.771789	0.213255	0.788982
	H454	H	0.750161	0.242142	0.764452
	H455	H	0.800680	0.205094	0.790922
	O456	O	-0.235798	0.037503	0.785057
	H457	H	-0.252882	0.042277	0.759789
	H458	H	-0.223630	0.061517	0.785561
	O459	O	1.099328	1.195785	-0.056000
	H460	H	1.098531	1.186877	-0.051831
	H461	H	1.093439	1.192004	-0.037893
	O462	O	0.519064	0.723003	0.720774
	H463	H	0.525690	0.743309	0.745553
	H464	H	0.549527	0.720666	0.718796
	O465	O	1.383289	0.419067	-0.452509
	H466	H	1.390897	0.415823	-0.455301
	H467	H	1.377934	0.431833	-0.447402
	O468	O	0.320686	0.465379	0.441023
	H469	H	0.313380	0.469948	0.470037
	H470	H	0.318648	0.490349	0.426009
	O471	O	0.262471	0.474228	0.717248
	H472	H	0.251945	0.451169	0.728837
	H473	H	0.258995	0.449465	0.729185
	O474	O	0.499413	0.470283	0.709778
	H475	H	0.494055	0.462557	0.704689
	H476	H	0.518166	0.495189	0.706316
	O477	O	0.272870	0.298896	1.707748
	H478	H	0.241728	0.266096	1.739050
	H479	H	0.295946	0.293204	1.686438
	O480	O	0.618187	0.557466	0.337518
	H481	H	0.600962	0.536163	0.327575
	H482	H	0.643418	0.541901	0.325342
	O483	O	0.188887	0.792139	0.798007
	H484	H	0.196152	0.786607	0.852918
	H485	H	0.138806	0.796765	0.791414
	O486	O	1.028062	-0.213558	1.049395
	H487	H	1.041693	-0.209542	1.046877
	H488	H	1.018178	-0.211567	1.042170
	O489	O	1.210363	1.037924	0.222625
	H490	H	1.224132	1.040850	0.240030
	H491	H	1.215880	1.061725	0.227572
	O492	O	-0.217902	0.228133	-0.019220
	H493	H	-0.234978	0.252404	-0.021951
	H494	H	-0.212613	0.221736	-0.052666
	O495	O	-0.010180	1.120185	1.084842
	H496	H	-0.019320	1.109119	1.069023
	H497	H	0.000820	1.128319	1.101755
	O498	O	0.777232	0.895558	0.874766
	H499	H	0.778434	0.910475	0.879779
	H500	H	0.774256	0.919363	0.894295
	O501	O	0.291239	0.373002	0.309349
	H502	H	0.288211	0.391897	0.321298
	H503	H	0.300385	0.378229	0.336016
