data_Molecule from HDF5

_cell_length_a		16.568824
_cell_length_b		16.818659
_cell_length_c		16.543375
_cell_angle_alpha	90.042716
_cell_angle_beta	89.910005
_cell_angle_gamma	90.029783
_symmetry_space_group_name_H-M	'P 1'
_symmetry_Int_Tables_number		1

loop_
	_symmetry_equiv_pos_as_xyz
	x,y,z

loop_
	_atom_site_label
	_atom_site_type_symbol
	_atom_site_fract_x
	_atom_site_fract_y
	_atom_site_fract_z
	H0	H	0.379165	0.849670	0.728473
	H1	H	0.588276	0.157775	0.730279
	H2	H	0.582764	0.848254	0.289991
	H3	H	0.378792	0.159411	0.288773
	H4	H	0.703992	0.400132	0.852909
	H5	H	0.703293	0.610552	0.163383
	H6	H	0.266921	0.604548	0.849456
	H7	H	0.263260	0.400612	0.163893
	H8	H	0.828460	0.726527	0.402289
	H9	H	0.138712	0.724119	0.613756
	H10	H	0.824027	0.287224	0.610365
	H11	H	0.139739	0.285768	0.406310
	H12	H	0.823941	0.404401	0.725047
	H13	H	0.141289	0.604316	0.724756
	H14	H	0.827965	0.609058	0.287946
	H15	H	0.140173	0.403301	0.291883
	H16	H	0.377797	0.724349	0.851186
	H17	H	0.589325	0.727453	0.162925
	H18	H	0.592356	0.280796	0.854921
	H19	H	0.374901	0.281570	0.162310
	H20	H	0.701345	0.848808	0.404379
	H21	H	0.704791	0.157329	0.612915
	H22	H	0.261526	0.850414	0.612940
	H23	H	0.265027	0.161379	0.408466
	H24	H	0.874926	0.351345	0.230881
	H25	H	0.088224	0.656259	0.231052
	H26	H	0.085481	0.347710	0.790290
	H27	H	0.877682	0.658191	0.785792
	H28	H	0.199930	0.903211	0.351079
	H29	H	0.200228	0.107465	0.666292
	H30	H	0.767159	0.102830	0.348504
	H31	H	0.762059	0.899733	0.664682
	H32	H	0.328954	0.226387	0.903233
	H33	H	0.636631	0.228758	0.119094
	H34	H	0.325132	0.785853	0.112091
	H35	H	0.637345	0.782599	0.901518
	H36	H	0.323628	0.904541	0.224542
	H37	H	0.638681	0.109003	0.229880
	H38	H	0.326201	0.106899	0.791839
	H39	H	0.639113	0.900357	0.787999
	H40	H	0.879026	0.222300	0.350993
	H41	H	0.084381	0.222941	0.666392
	H42	H	0.088708	0.782937	0.353396
	H43	H	0.876148	0.782195	0.663690
	H44	H	0.204163	0.349593	0.904500
	H45	H	0.206281	0.656153	0.114758
	H46	H	0.758237	0.352436	0.115091
	H47	H	0.760843	0.659037	0.902459
	H48	H	0.389988	0.115427	0.596871
	H49	H	0.568905	0.892503	0.602081
	H50	H	0.572760	0.115663	0.412915
	H51	H	0.386146	0.891108	0.414859
	H52	H	0.570048	0.416866	0.119694
	H53	H	0.573432	0.594269	0.895519
	H54	H	0.396636	0.594957	0.119474
	H55	H	0.394511	0.417495	0.896024
	H56	H	0.095617	0.589614	0.413746
	H57	H	0.871029	0.590202	0.598527
	H58	H	0.097863	0.405418	0.600310
	H59	H	0.869730	0.411598	0.419895
	H60	H	0.093646	0.412126	0.593421
	H61	H	0.869201	0.596789	0.599051
	H62	H	0.096364	0.600489	0.424935
	H63	H	0.869070	0.412352	0.419264
	H64	H	0.393419	0.598638	0.122029
	H65	H	0.568963	0.592256	0.897164
	H66	H	0.568906	0.417316	0.120001
	H67	H	0.398275	0.413285	0.896760
	H68	H	0.567633	0.112191	0.421283
	H69	H	0.567989	0.896618	0.593712
	H70	H	0.389530	0.116512	0.602168
	H71	H	0.392489	0.892562	0.413931
	H72	H	0.894972	0.612883	0.093361
	H73	H	0.078274	0.392873	0.092981
	H74	H	0.074730	0.615611	0.914024
	H75	H	0.897114	0.396401	0.917467
	H76	H	0.074062	0.914389	0.622125
	H77	H	0.070302	0.094773	0.395970
	H78	H	0.895144	0.093763	0.619517
	H79	H	0.896865	0.917128	0.396978
	H80	H	0.594432	0.088566	0.917920
	H81	H	0.371267	0.092113	0.098470
	H82	H	0.594270	0.910153	0.093417
	H83	H	0.368199	0.910276	0.918341
	H84	H	0.593110	0.918482	0.096897
	H85	H	0.370061	0.097297	0.096266
	H86	H	0.598243	0.098662	0.917396
	H87	H	0.372095	0.913975	0.922693
	H88	H	0.892453	0.097713	0.621711
	H89	H	0.072085	0.097216	0.395380
	H90	H	0.068966	0.917097	0.619532
	H91	H	0.896464	0.909173	0.395498
	H92	H	0.073927	0.614392	0.916577
	H93	H	0.073831	0.390091	0.105259
	H94	H	0.890701	0.616148	0.099072
	H95	H	0.891455	0.395665	0.923743
	H96	H	0.394472	0.114408	0.600024
	H97	H	0.575775	0.892352	0.595941
	H98	H	0.577706	0.114693	0.421778
	H99	H	0.389357	0.894598	0.419756
	H100	H	0.569084	0.415970	0.120361
	H101	H	0.568578	0.596792	0.895353
	H102	H	0.391034	0.593704	0.121352
	H103	H	0.393487	0.412264	0.894561
	H104	H	0.090119	0.586919	0.427778
	H105	H	0.871663	0.594518	0.592724
	H106	H	0.096214	0.414947	0.603726
	H107	H	0.869237	0.411036	0.419176
	H108	H	0.898216	0.613849	0.100693
	H109	H	0.065420	0.396039	0.096234
	H110	H	0.076456	0.615263	0.916475
	H111	H	0.889465	0.392320	0.915989
	H112	H	0.068852	0.911611	0.621587
	H113	H	0.073691	0.094675	0.396626
	H114	H	0.890043	0.092980	0.621461
	H115	H	0.889914	0.913383	0.394950
	H116	H	0.594065	0.094871	0.926877
	H117	H	0.373013	0.093658	0.092773
	H118	H	0.596898	0.911836	0.101827
	H119	H	0.369370	0.915695	0.916384
	C120	C	0.360053	0.012974	0.630841
	C121	C	0.603882	0.995385	0.629626
	C122	C	0.603173	0.011925	0.386963
	C123	C	0.359459	0.996032	0.386376
	C124	C	0.603523	0.384019	0.017372
	C125	C	0.603140	0.626481	0.998958
	C126	C	0.361984	0.626154	0.016522
	C127	C	0.362641	0.382962	0.999036
	C128	C	-0.008451	0.624641	0.388736
	C129	C	0.974364	0.624524	0.628814
	C130	C	-0.009094	0.381879	0.629568
	C131	C	0.973565	0.382049	0.388061
	C132	C	0.860960	0.513388	0.130235
	C133	C	0.104924	0.494801	0.130337
	C134	C	0.105236	0.512285	0.885913
	C135	C	0.860707	0.496600	0.886493
	C136	C	0.102989	0.883223	0.517508
	C137	C	0.102743	0.125872	0.500508
	C138	C	0.861553	0.124574	0.516357
	C139	C	0.861722	0.881889	0.499258
	C140	C	0.492064	0.125279	0.888912
	C141	C	0.474157	0.126254	0.129629
	C142	C	0.490459	0.883311	0.128756
	C143	C	0.473481	0.882347	0.887096
	C144	C	0.359898	0.896357	0.689032
	C145	C	0.606579	0.111360	0.689934
	C146	C	0.602626	0.895043	0.328834
	C147	C	0.359961	0.113044	0.328704
	C148	C	0.664199	0.381655	0.900028
	C149	C	0.663352	0.628799	0.116539
	C150	C	0.304531	0.625155	0.897539
	C151	C	0.302652	0.381638	0.116827
	C152	C	0.874863	0.685673	0.384919
	C153	C	0.092082	0.683734	0.631365
	C154	C	0.871479	0.325786	0.629567
	C155	C	0.092557	0.324950	0.387216
	C156	C	0.871440	0.383856	0.686571
	C157	C	0.093378	0.624053	0.686381
	C158	C	0.874268	0.626928	0.328583
	C159	C	0.092778	0.383468	0.330654
	C160	C	0.359918	0.684602	0.898411
	C161	C	0.606661	0.686831	0.116397
	C162	C	0.608658	0.322302	0.901074
	C163	C	0.358332	0.322712	0.116022
	C164	C	0.661582	0.895289	0.385760
	C165	C	0.664527	0.111193	0.631670
	C166	C	0.301408	0.896525	0.631570
	C167	C	0.303218	0.113873	0.388147
	C168	C	0.857209	0.397799	0.190726
	C169	C	0.107053	0.610255	0.190904
	C170	C	0.105104	0.394896	0.828612
	C171	C	0.859196	0.612079	0.826125
	C172	C	0.161425	0.883292	0.398869
	C173	C	0.160643	0.126125	0.619135
	C174	C	0.804776	0.123527	0.396908
	C175	C	0.801900	0.880872	0.617389
	C176	C	0.375255	0.185774	0.885651
	C177	C	0.590546	0.187393	0.135230
	C178	C	0.371954	0.825768	0.129781
	C179	C	0.590959	0.823014	0.884126
	C180	C	0.371237	0.884388	0.186169
	C181	C	0.591413	0.127961	0.190494
	C182	C	0.373646	0.125951	0.830870
	C183	C	0.591630	0.881388	0.827565
	C184	C	0.860568	0.182625	0.398016
	C185	C	0.103043	0.183395	0.619256
	C186	C	0.106262	0.823637	0.399828
	C187	C	0.858450	0.822307	0.616853
	C188	C	0.164076	0.395708	0.885454
	C189	C	0.165534	0.610164	0.133053
	C190	C	0.799184	0.398270	0.133039
	C191	C	0.801112	0.612521	0.884257
	C192	C	0.384364	0.094347	0.606587
	C193	C	0.578208	0.914782	0.604509
	C194	C	0.579347	0.093066	0.411483
	C195	C	0.382587	0.914071	0.409540
	C196	C	0.576896	0.409409	0.098852
	C197	C	0.577602	0.601713	0.917276
	C198	C	0.386499	0.602604	0.099401
	C199	C	0.388156	0.407441	0.917150
	C200	C	0.072971	0.599388	0.414649
	C201	C	0.892000	0.600536	0.603964
	C202	C	0.074179	0.404302	0.606114
	C203	C	0.890813	0.405035	0.412410
	C204	C	0.887035	0.593343	0.104952
	C205	C	0.079791	0.413838	0.105035
	C206	C	0.081924	0.593834	0.909176
	C207	C	0.885625	0.415826	0.911763
	C208	C	0.077598	0.907366	0.599723
	C209	C	0.078758	0.102179	0.417708
	C210	C	0.885479	0.101446	0.599235
	C211	C	0.886975	0.906248	0.417190
	C212	C	0.574272	0.100815	0.913583
	C213	C	0.392898	0.101453	0.103294
	C214	C	0.573111	0.906909	0.104480
	C215	C	0.391397	0.906292	0.912023
	Zn216	Zn	0.482328	0.004878	0.760067
	Zn217	Zn	0.481899	0.004325	0.256875
	Zn218	Zn	0.731228	0.505566	0.008442
	Zn219	Zn	0.234487	0.503813	0.007789
	Zn220	Zn	-0.016373	0.753923	0.508613
	Zn221	Zn	-0.017867	0.253865	0.508412
	Zn222	Zn	-0.017061	0.503848	0.757245
	Zn223	Zn	-0.017212	0.503695	0.260059
	Zn224	Zn	0.482350	0.754557	0.008738
	Zn225	Zn	0.483797	0.254782	0.009155
	Zn226	Zn	0.733533	0.003261	0.507567
	Zn227	Zn	0.230657	0.004519	0.509131
	N228	N	0.395473	0.970018	0.689084
	N229	N	0.569797	0.038240	0.689140
	N230	N	0.567256	0.968757	0.329095
	N231	N	0.393900	0.038636	0.327040
	N232	N	0.661302	0.419282	0.973564
	N233	N	0.661371	0.591950	0.042644
	N234	N	0.305217	0.589689	0.972355
	N235	N	0.305263	0.418576	0.043119
	N236	N	0.948878	0.684363	0.421726
	N237	N	0.016883	0.684462	0.596718
	N238	N	0.947059	0.324008	0.595255
	N239	N	0.017313	0.323763	0.421894
	N240	N	0.946802	0.417708	0.687032
	N241	N	0.019016	0.587787	0.685163
	N242	N	0.947724	0.589415	0.331043
	N243	N	0.017677	0.417941	0.330618
	N244	N	0.394612	0.685655	0.973738
	N245	N	0.570016	0.685844	0.042133
	N246	N	0.571509	0.323715	0.975157
	N247	N	0.394866	0.322924	0.041619
	N248	N	0.662487	0.969106	0.420974
	N249	N	0.663047	0.038048	0.594811
	N250	N	0.301238	0.970323	0.596348
	N251	N	0.302225	0.039815	0.422943
	N252	N	0.894783	0.470442	0.189705
	N253	N	0.070113	0.537313	0.189370
	N254	N	0.069328	0.468374	0.828294
	N255	N	0.895628	0.538941	0.827448
	N256	N	0.159722	0.919648	0.473095
	N257	N	0.160627	0.091079	0.544233
	N258	N	0.804946	0.088278	0.471796
	N259	N	0.803639	0.917156	0.543105
	N260	N	0.450062	0.185542	0.920931
	N261	N	0.516735	0.186367	0.097921
	N262	N	0.447266	0.824733	0.095079
	N263	N	0.516418	0.823265	0.920212
	N264	N	0.446025	0.919564	0.185566
	N265	N	0.517835	0.090646	0.187544
	N266	N	0.447519	0.089066	0.832417
	N267	N	0.517482	0.917688	0.828982
	N268	N	0.894914	0.183870	0.473571
	N269	N	0.067776	0.183577	0.544275
	N270	N	0.070674	0.823392	0.474728
	N271	N	0.895042	0.822715	0.542480
	N272	N	0.164621	0.469750	0.920192
	N273	N	0.164227	0.537325	0.095886
	N274	N	0.801102	0.471195	0.096200
	N275	N	0.801794	0.539488	0.921062
	O276	O	-0.054110	1.023832	-0.212547
	H277	H	-0.052274	1.036779	-0.216566
	H278	H	-0.055379	1.046929	-0.209885
	O279	O	0.271354	0.723159	0.480969
	H280	H	0.266715	0.719343	0.466509
	H281	H	0.265996	0.726626	0.475479
	O282	O	1.114266	-0.020399	1.098414
	H283	H	1.117867	-0.032755	1.078661
	H284	H	1.095942	-0.019434	1.100953
	O285	O	0.470202	0.483138	0.572773
	H286	H	0.471866	0.500968	0.577531
	H287	H	0.467512	0.472614	0.569611
	O288	O	-0.233594	0.222767	-0.019946
	H289	H	-0.233378	0.237104	-0.011059
	H290	H	-0.230174	0.237271	-0.014771
	O291	O	0.312802	0.632124	0.387837
	H292	H	0.304940	0.612586	0.383134
	H293	H	0.312179	0.624382	0.406603
	O294	O	1.266708	0.534772	0.554641
	H295	H	1.255465	0.535477	0.573939
	H296	H	1.268787	0.519810	0.563052
	O297	O	0.673113	0.611764	0.464783
	H298	H	0.684927	0.611458	0.456859
	H299	H	0.666848	0.595982	0.471827
	O300	O	0.013295	0.237766	1.232728
	H301	H	0.046794	0.240953	1.234331
	H302	H	0.032774	0.260510	1.251940
	O303	O	0.691333	0.719131	0.719073
	H304	H	0.668627	0.720760	0.697604
	H305	H	0.690496	0.724681	0.728888
	O306	O	0.268044	0.284703	0.547092
	H307	H	0.266083	0.274583	0.562711
	H308	H	0.260473	0.280154	0.540842
	O309	O	0.535034	0.730905	0.594291
	H310	H	0.531478	0.714264	0.587301
	H311	H	0.539840	0.734306	0.612529
	O312	O	0.989762	1.134680	0.151168
	H313	H	1.012419	1.141466	0.144095
	H314	H	0.996576	1.135536	0.152863
	O315	O	0.800552	0.817535	0.823029
	H316	H	0.781952	0.810281	0.823657
	H317	H	0.806907	0.844277	0.837535
	O318	O	0.660316	0.443431	0.587803
	H319	H	0.658341	0.441109	0.579469
	H320	H	0.656860	0.453092	0.608178
	O321	O	0.206396	0.967097	0.784080
	H322	H	0.236896	0.959352	0.752977
	H323	H	0.194291	0.929654	0.788943
	O324	O	1.184302	0.933777	0.023113
	H325	H	1.168448	0.930528	0.004893
	H326	H	1.173497	0.937332	0.023971
	O327	O	0.622758	-0.537084	0.383389
	H328	H	0.645968	-0.539620	0.375197
	H329	H	0.615722	-0.544700	0.401098
	O330	O	0.702082	0.275936	0.469986
	H331	H	0.713282	0.254847	0.483569
	H332	H	0.685660	0.270411	0.493075
	O333	O	0.520873	0.433036	0.739195
	H334	H	0.502614	0.461545	0.737403
	H335	H	0.550142	0.438601	0.735590
	O336	O	0.791520	0.198580	0.199282
	H337	H	0.810533	0.184776	0.178951
	H338	H	0.817296	0.185131	0.181298
	O339	O	0.982594	-0.074546	0.809205
	H340	H	0.965895	-0.080994	0.816082
	H341	H	0.966577	-0.036178	0.801337
	O342	O	0.266558	-0.449701	0.295074
	H343	H	0.280714	-0.461087	0.279211
	H344	H	0.270510	-0.453392	0.280657
	O345	O	0.203978	0.778136	0.973928
	H346	H	0.212745	0.768376	0.982315
	H347	H	0.216657	0.785715	0.974054
	O348	O	0.576895	0.406168	0.474278
	H349	H	0.596940	0.398008	0.487740
	H350	H	0.567423	0.419859	0.483190
	O351	O	0.294775	0.314715	0.318248
	H352	H	0.306090	0.337874	0.340454
	H353	H	0.321655	0.328492	0.329721
	O354	O	0.126776	-0.204756	1.145292
	H355	H	0.117019	-0.180464	1.147081
	H356	H	0.095096	-0.215194	1.131255
	O357	O	0.236802	0.753380	0.263680
	H358	H	0.248554	0.719740	0.273766
	H359	H	0.199657	0.765061	0.244639
	O360	O	0.354514	0.405061	0.483390
	H361	H	0.342583	0.401431	0.505014
	H362	H	0.362202	0.390928	0.492946
	O363	O	-0.102241	0.021299	0.171831
	H364	H	-0.098508	0.024100	0.161063
	H365	H	-0.113072	0.019972	0.185319
	O366	O	0.457874	0.737519	0.531663
	H367	H	0.449191	0.738455	0.529996
	H368	H	0.461539	0.732353	0.499021
	O369	O	1.099405	0.076515	-0.161256
	H370	H	1.078689	0.080142	-0.164656
	H371	H	1.114877	0.054797	-0.169393
	O372	O	1.027800	0.778180	-0.212620
	H373	H	1.014286	0.770811	-0.241596
	H374	H	1.015247	0.787736	-0.216000
	O375	O	0.944567	0.232526	-0.218780
	H376	H	0.919510	0.248491	-0.233792
	H377	H	0.936423	0.249326	-0.223675
	O378	O	0.706687	0.480895	0.285191
	H379	H	0.724753	0.463371	0.262808
	H380	H	0.710197	0.446242	0.284142
	O381	O	0.450593	0.717234	0.682569
	H382	H	0.453675	0.732659	0.701424
	H383	H	0.448748	0.711237	0.649139
	O384	O	1.175848	0.198417	0.819271
	H385	H	1.167798	0.184414	0.844873
	H386	H	1.158165	0.182541	0.827372
	O387	O	0.759797	0.787177	0.038155
	H388	H	0.740515	0.763834	0.048831
	H389	H	0.768980	0.784124	0.056283
	O390	O	-0.074762	0.023837	0.009595
	H391	H	-0.080782	0.032505	0.001742
	H392	H	-0.088975	0.033084	0.010253
	O393	O	0.588312	0.555058	0.647457
	H394	H	0.574641	0.582277	0.633635
	H395	H	0.581080	0.556074	0.658007
	O396	O	-0.053014	0.785640	1.223126
	H397	H	-0.040674	0.789376	1.241274
	H398	H	-0.051389	0.791574	1.220079
	O399	O	-0.060820	-0.152573	0.987952
	H400	H	-0.066184	-0.137963	0.983076
	H401	H	-0.047941	-0.164847	0.983038
	O402	O	0.436231	0.710700	0.288695
	H403	H	0.417460	0.716401	0.286573
	H404	H	0.426991	0.719988	0.278872
	O405	O	0.902751	0.229235	1.063897
	H406	H	0.926078	0.230228	1.089108
	H407	H	0.926764	0.217829	1.046382
	O408	O	0.006650	-0.047178	0.189982
	H409	H	0.003731	-0.035662	0.190872
	H410	H	0.000322	-0.030438	0.183356
	O411	O	0.296957	0.667866	0.657464
	H412	H	0.277358	0.696054	0.664444
	H413	H	0.308251	0.664430	0.629517
	O414	O	1.190036	0.223885	1.214755
	H415	H	1.197565	0.181147	1.212248
	H416	H	1.224735	0.253054	1.248400
	O417	O	0.430779	0.566594	0.728047
	H418	H	0.418314	0.567098	0.729914
	H419	H	0.421102	0.582686	0.723101
	O420	O	-0.238364	-0.041297	0.227631
	H421	H	-0.260132	-0.055953	0.255050
	H422	H	-0.233706	-0.075146	0.231812
	O423	O	-0.248288	-0.039460	0.949722
	H424	H	-0.246169	-0.049102	0.967834
	H425	H	-0.256635	-0.029786	0.969053
	O426	O	0.462980	0.556319	0.451617
	H427	H	0.447217	0.566527	0.454103
	H428	H	0.465913	0.546377	0.445501
	O429	O	1.202065	1.060697	1.232336
	H430	H	1.228384	1.048204	1.240707
	H431	H	1.208453	1.042180	1.228702
	O432	O	0.496070	0.537444	0.281148
	H433	H	0.502291	0.545722	0.277051
	H434	H	0.509319	0.529438	0.290887
	O435	O	0.508718	0.281254	0.533827
	H436	H	0.515348	0.284566	0.529292
	H437	H	0.508663	0.277322	0.537135
	O438	O	-0.042158	-0.123257	-0.004986
	H439	H	-0.060298	-0.118611	-0.013801
	H440	H	-0.050807	-0.114460	-0.015843
	O441	O	0.692022	0.293975	0.301336
	H442	H	0.700068	0.282924	0.354882
	H443	H	0.725434	0.260994	0.270592
	O444	O	0.500642	0.283978	0.290054
	H445	H	0.521947	0.281421	0.280332
	H446	H	0.532754	0.272701	0.280187
	O447	O	0.009823	1.225853	0.936999
	H448	H	0.019262	1.221716	0.951963
	H449	H	0.006682	1.221669	0.919211
	O450	O	0.128806	1.170481	1.029719
	H451	H	0.151143	1.174204	1.046325
	H452	H	0.127344	1.175734	1.046349
	O453	O	0.673348	0.333859	0.671551
	H454	H	0.665225	0.348952	0.671344
	H455	H	0.663915	0.347754	0.662404
	O456	O	0.198025	-0.208562	0.797832
	H457	H	0.151508	-0.206161	0.791679
	H458	H	0.209275	-0.223750	0.827590
	O459	O	0.763074	1.050963	0.075116
	H460	H	0.772106	1.049213	0.100064
	H461	H	0.757004	1.052694	0.083302
	O462	O	0.634075	0.689393	0.451044
	H463	H	0.608064	0.680593	0.451896
	H464	H	0.651899	0.690745	0.441910
	O465	O	1.276063	0.295832	-0.284557
	H466	H	1.251191	0.267393	-0.262146
	H467	H	1.308586	0.290982	-0.295321
	O468	O	0.483057	0.290025	0.543465
	H469	H	0.456665	0.289759	0.551855
	H470	H	0.478742	0.297832	0.543442
	O471	O	0.447646	0.296378	0.718476
	H472	H	0.452767	0.320276	0.730800
	H473	H	0.446450	0.289002	0.742848
	O474	O	0.672261	0.690465	0.319082
	H475	H	0.653404	0.675912	0.337536
	H476	H	0.657121	0.666295	0.334366
	O477	O	0.262439	0.462816	1.726481
	H478	H	0.234754	0.455170	1.756021
	H479	H	0.264333	0.430290	1.721369
	O480	O	0.770389	0.794549	0.221169
	H481	H	0.805894	0.787854	0.208949
	H482	H	0.741356	0.759650	0.253203
	O483	O	0.361540	0.451311	0.333810
	H484	H	0.379738	0.438008	0.342033
	H485	H	0.379774	0.477518	0.334028
	O486	O	1.021072	-0.219423	1.018597
	H487	H	1.015784	-0.227606	0.997977
	H488	H	1.028295	-0.216939	1.013344
	O489	O	0.766189	1.037355	-0.208746
	H490	H	0.760131	1.031204	-0.196263
	H491	H	0.738799	1.037503	-0.215365
	O492	O	-0.224199	0.210941	-0.198188
	H493	H	-0.218955	0.185404	-0.187823
	H494	H	-0.241896	0.224480	-0.194063
	O495	O	0.203207	1.099691	0.985130
	H496	H	0.217826	1.106786	0.988588
	H497	H	0.196806	1.087929	0.971326
	O498	O	1.033165	1.067097	1.022475
	H499	H	1.035607	1.049748	1.018375
	H500	H	1.038957	1.069408	1.011716
	O501	O	0.699174	0.616079	0.652288
	H502	H	0.702659	0.635330	0.647988
	H503	H	0.722090	0.608099	0.670240
