data_Molecule from HDF5

_cell_length_a		16.411112
_cell_length_b		16.509980
_cell_length_c		16.426368
_cell_angle_alpha	90.126231
_cell_angle_beta	90.062709
_cell_angle_gamma	90.018287
_symmetry_space_group_name_H-M	'P 1'
_symmetry_Int_Tables_number		1

loop_
	_symmetry_equiv_pos_as_xyz
	x,y,z

loop_
	_atom_site_label
	_atom_site_type_symbol
	_atom_site_fract_x
	_atom_site_fract_y
	_atom_site_fract_z
	H0	H	0.388933	0.846511	0.731385
	H1	H	0.603506	0.159390	0.736442
	H2	H	0.601217	0.849133	0.284228
	H3	H	0.385300	0.161680	0.288236
	H4	H	0.717550	0.395952	0.855016
	H5	H	0.714609	0.612117	0.169237
	H6	H	0.269984	0.609565	0.852446
	H7	H	0.272842	0.401788	0.170096
	H8	H	0.834681	0.726622	0.401563
	H9	H	0.148852	0.726449	0.619249
	H10	H	0.834685	0.278929	0.618561
	H11	H	0.149828	0.279324	0.403537
	H12	H	0.834964	0.393987	0.735654
	H13	H	0.150312	0.608968	0.733174
	H14	H	0.833703	0.607021	0.289734
	H15	H	0.150379	0.395275	0.289257
	H16	H	0.384823	0.727950	0.852729
	H17	H	0.597018	0.726072	0.168733
	H18	H	0.603072	0.278906	0.854798
	H19	H	0.383595	0.282094	0.167989
	H20	H	0.713350	0.846805	0.402678
	H21	H	0.719014	0.159166	0.620009
	H22	H	0.271869	0.846587	0.616310
	H23	H	0.267388	0.160479	0.402673
	H24	H	0.882101	0.345943	0.235573
	H25	H	0.094821	0.659583	0.233760
	H26	H	0.100802	0.346904	0.787157
	H27	H	0.883474	0.658472	0.785952
	H28	H	0.213780	0.896572	0.353995
	H29	H	0.215200	0.109705	0.668680
	H30	H	0.767710	0.110977	0.353085
	H31	H	0.766907	0.895051	0.667024
	H32	H	0.337183	0.230235	0.900476
	H33	H	0.647751	0.235038	0.124208
	H34	H	0.336611	0.782326	0.116572
	H35	H	0.650117	0.779274	0.901434
	H36	H	0.336087	0.901423	0.230637
	H37	H	0.648648	0.118053	0.238057
	H38	H	0.337499	0.113915	0.784516
	H39	H	0.651046	0.896959	0.787187
	H40	H	0.882840	0.227343	0.353578
	H41	H	0.099428	0.226182	0.668554
	H42	H	0.097042	0.780508	0.354576
	H43	H	0.881594	0.778724	0.666957
	H44	H	0.216791	0.347828	0.903126
	H45	H	0.209035	0.662127	0.114499
	H46	H	0.764367	0.347843	0.120968
	H47	H	0.769984	0.660318	0.904193
	H48	H	0.403643	0.117133	0.598903
	H49	H	0.579851	0.892391	0.598036
	H50	H	0.577984	0.117157	0.419017
	H51	H	0.401844	0.890232	0.418028
	H52	H	0.577434	0.419012	0.122080
	H53	H	0.579905	0.593272	0.897746
	H54	H	0.408851	0.597268	0.122103
	H55	H	0.403972	0.414716	0.896963
	H56	H	0.104599	0.589658	0.422467
	H57	H	0.879403	0.588007	0.601451
	H58	H	0.103820	0.412885	0.597043
	H59	H	0.881051	0.414831	0.426324
	H60	H	0.102906	0.416519	0.597483
	H61	H	0.877697	0.594017	0.598760
	H62	H	0.105461	0.593657	0.424602
	H63	H	0.879162	0.415123	0.420787
	H64	H	0.398939	0.601741	0.126875
	H65	H	0.582026	0.592635	0.897707
	H66	H	0.578316	0.421856	0.121144
	H67	H	0.403908	0.421084	0.899480
	H68	H	0.576978	0.114150	0.428410
	H69	H	0.579765	0.891856	0.597984
	H70	H	0.407599	0.115210	0.598635
	H71	H	0.408355	0.892964	0.419699
	H72	H	0.909451	0.612201	0.101489
	H73	H	0.078336	0.390051	0.099280
	H74	H	0.085466	0.616114	0.926772
	H75	H	0.903659	0.391417	0.925193
	H76	H	0.081498	0.910075	0.626514
	H77	H	0.082463	0.092732	0.397153
	H78	H	0.907034	0.089505	0.621421
	H79	H	0.907294	0.920964	0.401699
	H80	H	0.603529	0.086018	0.925905
	H81	H	0.380959	0.089900	0.100873
	H82	H	0.606714	0.913736	0.094256
	H83	H	0.380811	0.916870	0.920288
	H84	H	0.605105	0.920843	0.095701
	H85	H	0.378916	0.097871	0.099889
	H86	H	0.606329	0.093406	0.923183
	H87	H	0.379331	0.913724	0.920943
	H88	H	0.905770	0.090982	0.621875
	H89	H	0.080357	0.088075	0.399632
	H90	H	0.084820	0.918017	0.625113
	H91	H	0.909392	0.908070	0.398242
	H92	H	0.081988	0.619094	0.915102
	H93	H	0.084994	0.389861	0.096967
	H94	H	0.903091	0.613615	0.095776
	H95	H	0.906170	0.391649	0.922912
	H96	H	0.405194	0.115411	0.594884
	H97	H	0.579662	0.892574	0.597595
	H98	H	0.585220	0.117486	0.425508
	H99	H	0.403062	0.893024	0.424719
	H100	H	0.574967	0.420874	0.120992
	H101	H	0.580392	0.591497	0.897632
	H102	H	0.399542	0.590048	0.124020
	H103	H	0.409980	0.417488	0.899636
	H104	H	0.103046	0.589598	0.427049
	H105	H	0.880962	0.589744	0.595318
	H106	H	0.105166	0.414867	0.600084
	H107	H	0.878216	0.410535	0.423927
	H108	H	0.902344	0.616133	0.104000
	H109	H	0.083260	0.387840	0.103228
	H110	H	0.073895	0.613263	0.922734
	H111	H	0.906643	0.392897	0.925909
	H112	H	0.075983	0.916419	0.623419
	H113	H	0.077441	0.092631	0.398581
	H114	H	0.904940	0.088658	0.622124
	H115	H	0.897835	0.914185	0.395248
	H116	H	0.602522	0.092294	0.930633
	H117	H	0.382549	0.093716	0.093210
	H118	H	0.608520	0.916968	0.100893
	H119	H	0.381176	0.915451	0.922712
	C120	C	0.372457	0.012353	0.631076
	C121	C	0.614513	0.995425	0.632024
	C122	C	0.613992	0.013344	0.388884
	C123	C	0.370490	0.995891	0.387866
	C124	C	0.613044	0.384230	0.019375
	C125	C	0.613666	0.625538	1.001988
	C126	C	0.369870	0.628128	0.019534
	C127	C	0.371820	0.384238	1.003018
	C128	C	-0.000128	0.623278	0.391209
	C129	C	0.983395	0.623912	0.632358
	C130	C	0.000230	0.381230	0.632215
	C131	C	0.983334	0.379719	0.389584
	C132	C	0.870109	0.510976	0.133631
	C133	C	0.113070	0.494171	0.132233
	C134	C	0.114138	0.512723	0.888643
	C135	C	0.871613	0.495176	0.890722
	C136	C	0.113016	0.882327	0.520566
	C137	C	0.113671	0.124720	0.502319
	C138	C	0.871414	0.123791	0.518308
	C139	C	0.869973	0.880855	0.501489
	C140	C	0.501374	0.125302	0.890877
	C141	C	0.484073	0.128809	0.133565
	C142	C	0.502379	0.885112	0.129954
	C143	C	0.484684	0.882047	0.888215
	C144	C	0.370067	0.894080	0.691625
	C145	C	0.620304	0.112744	0.694985
	C146	C	0.618253	0.896039	0.325306
	C147	C	0.367116	0.114254	0.328007
	C148	C	0.676720	0.378338	0.901991
	C149	C	0.674360	0.629527	0.121298
	C150	C	0.309709	0.629027	0.900172
	C151	C	0.311515	0.382586	0.121803
	C152	C	0.881897	0.685202	0.385719
	C153	C	0.101766	0.685740	0.636350
	C154	C	0.881859	0.319592	0.636140
	C155	C	0.102401	0.319235	0.385819
	C156	C	0.881960	0.377357	0.694244
	C157	C	0.102611	0.626803	0.692904
	C158	C	0.881302	0.625291	0.329843
	C159	C	0.102260	0.376906	0.328523
	C160	C	0.366881	0.687922	0.900284
	C161	C	0.615879	0.686165	0.121408
	C162	C	0.619451	0.320275	0.901954
	C163	C	0.367156	0.322953	0.120915
	C164	C	0.674166	0.894736	0.384498
	C165	C	0.677787	0.112529	0.636879
	C166	C	0.311795	0.893912	0.634212
	C167	C	0.308427	0.113436	0.385255
	C168	C	0.865229	0.393052	0.194890
	C169	C	0.113864	0.612739	0.193010
	C170	C	0.118201	0.394258	0.827449
	C171	C	0.866930	0.612096	0.827651
	C172	C	0.173426	0.878994	0.401364
	C173	C	0.174705	0.127995	0.621161
	C174	C	0.809079	0.127844	0.400150
	C175	C	0.807427	0.877632	0.619586
	C176	C	0.384009	0.188630	0.883940
	C177	C	0.600735	0.193107	0.140336
	C178	C	0.383831	0.823683	0.133850
	C179	C	0.603216	0.820494	0.884160
	C180	C	0.383376	0.882870	0.190547
	C181	C	0.601314	0.134522	0.197259
	C182	C	0.384375	0.130633	0.826159
	C183	C	0.603466	0.878858	0.827060
	C184	C	0.866426	0.185934	0.400565
	C185	C	0.117010	0.185915	0.621396
	C186	C	0.115624	0.821058	0.401832
	C187	C	0.864757	0.819557	0.619784
	C188	C	0.176022	0.394781	0.885261
	C189	C	0.170341	0.614080	0.133514
	C190	C	0.806419	0.394174	0.137654
	C191	C	0.810266	0.613118	0.886678
	C192	C	0.397891	0.094361	0.605006
	C193	C	0.587591	0.913695	0.605474
	C194	C	0.587660	0.094954	0.416276
	C195	C	0.397012	0.913626	0.413359
	C196	C	0.584932	0.412568	0.100351
	C197	C	0.588286	0.599880	0.919460
	C198	C	0.395144	0.603630	0.102685
	C199	C	0.398392	0.410208	0.920212
	C200	C	0.082794	0.598109	0.417251
	C201	C	0.900861	0.597941	0.606285
	C202	C	0.082525	0.407173	0.605857
	C203	C	0.900829	0.405787	0.415997
	C204	C	0.897110	0.592637	0.107887
	C205	C	0.088953	0.410921	0.106976
	C206	C	0.088036	0.594629	0.914059
	C207	C	0.897893	0.413510	0.917046
	C208	C	0.088102	0.907592	0.603195
	C209	C	0.087403	0.098723	0.419918
	C210	C	0.898276	0.097283	0.600399
	C211	C	0.897032	0.907081	0.419555
	C212	C	0.582813	0.098278	0.918705
	C213	C	0.402178	0.101524	0.105934
	C214	C	0.585177	0.910118	0.104275
	C215	C	0.401906	0.907840	0.914034
	Zn216	Zn	0.493970	0.004498	0.760769
	Zn217	Zn	0.493389	0.005784	0.260359
	Zn218	Zn	0.741805	0.504546	0.011575
	Zn219	Zn	0.242529	0.504359	0.010883
	Zn220	Zn	-0.008618	0.752993	0.511879
	Zn221	Zn	-0.007786	0.252848	0.511110
	Zn222	Zn	-0.007785	0.502786	0.760696
	Zn223	Zn	-0.007799	0.501392	0.262264
	Zn224	Zn	0.493668	0.754587	0.009740
	Zn225	Zn	0.492614	0.255701	0.010861
	Zn226	Zn	0.742375	0.003255	0.510073
	Zn227	Zn	0.242459	0.003554	0.510809
	N228	N	0.407059	0.968702	0.690007
	N229	N	0.581928	0.038892	0.692001
	N230	N	0.582078	0.971125	0.327509
	N231	N	0.404854	0.040062	0.329414
	N232	N	0.672907	0.417196	0.975906
	N233	N	0.673521	0.592846	0.046029
	N234	N	0.311167	0.592837	0.975455
	N235	N	0.314439	0.420155	0.047178
	N236	N	0.956639	0.683773	0.423492
	N237	N	0.026532	0.684147	0.599581
	N238	N	0.956307	0.322188	0.598094
	N239	N	0.027398	0.320657	0.422600
	N240	N	0.956647	0.415030	0.691969
	N241	N	0.027888	0.589191	0.690565
	N242	N	0.955794	0.587315	0.333057
	N243	N	0.027015	0.413785	0.330599
	N244	N	0.403228	0.687683	0.975791
	N245	N	0.578954	0.684081	0.046306
	N246	N	0.580798	0.323620	0.976198
	N247	N	0.403765	0.323887	0.045697
	N248	N	0.672051	0.968733	0.422894
	N249	N	0.674279	0.038630	0.598402
	N250	N	0.313111	0.968469	0.597218
	N251	N	0.310385	0.038531	0.421661
	N252	N	0.904066	0.466628	0.192700
	N253	N	0.079383	0.536929	0.192501
	N254	N	0.080380	0.468393	0.829329
	N255	N	0.904394	0.537738	0.829978
	N256	N	0.172033	0.916420	0.475941
	N257	N	0.173043	0.090943	0.546260
	N258	N	0.812043	0.089795	0.474403
	N259	N	0.810517	0.915148	0.545072
	N260	N	0.457665	0.185266	0.923653
	N261	N	0.526725	0.189477	0.101266
	N262	N	0.458890	0.824997	0.096809
	N263	N	0.528138	0.822206	0.921311
	N264	N	0.457986	0.920478	0.188146
	N265	N	0.527524	0.095418	0.193287
	N266	N	0.458228	0.091668	0.830575
	N267	N	0.528883	0.916610	0.829674
	N268	N	0.904524	0.183343	0.475027
	N269	N	0.080004	0.184134	0.546176
	N270	N	0.078862	0.822745	0.476898
	N271	N	0.902711	0.821338	0.545393
	N272	N	0.173732	0.469302	0.922606
	N273	N	0.170141	0.539150	0.096706
	N274	N	0.809247	0.468621	0.100552
	N275	N	0.813051	0.539430	0.925146
	O276	O	0.680456	0.623444	0.703055
	H277	H	0.695255	0.600420	0.703404
	H278	H	0.687402	0.607618	0.674329
	O279	O	0.929538	0.067207	1.225061
	H280	H	0.903656	0.052223	1.231880
	H281	H	0.928873	0.073922	1.204909
	O282	O	0.289775	0.529693	0.291753
	H283	H	0.279345	0.533358	0.296834
	H284	H	0.271861	0.547801	0.281200
	O285	O	0.487832	0.705734	0.557666
	H286	H	0.469139	0.721074	0.565808
	H287	H	0.474854	0.699470	0.566440
	O288	O	0.974073	1.220646	0.026696
	H289	H	0.970959	1.212833	0.044358
	H290	H	1.005630	1.214919	0.024726
	O291	O	0.475761	0.291581	0.717135
	H292	H	0.467793	0.292590	0.722996
	H293	H	0.471470	0.294541	0.727147
	O294	O	-0.217132	0.017456	0.813429
	H295	H	-0.203090	-0.006350	0.807512
	H296	H	-0.231801	0.005991	0.793147
	O297	O	0.496610	0.368384	0.359978
	H298	H	0.488398	0.374261	0.383541
	H299	H	0.463677	0.351817	0.373609
	O300	O	0.501479	0.291891	0.323744
	H301	H	0.483684	0.286298	0.314149
	H302	H	0.481459	0.293382	0.321238
	O303	O	-0.223675	1.217097	-0.005234
	H304	H	-0.240671	1.251272	-0.007465
	H305	H	-0.206311	1.218398	-0.017177
	O306	O	0.340007	0.651395	0.610884
	H307	H	0.348672	0.647517	0.606659
	H308	H	0.334966	0.656082	0.590260
	O309	O	1.280339	-0.292596	0.483873
	H310	H	1.277345	-0.297664	0.455742
	H311	H	1.262880	-0.271500	0.465177
	O312	O	-0.104686	0.892302	0.844481
	H313	H	-0.083348	0.874086	0.840465
	H314	H	-0.082574	0.901015	0.839520
	O315	O	0.648170	0.531136	0.337031
	H316	H	0.644367	0.518936	0.319031
	H317	H	0.666862	0.505112	0.328441
	O318	O	1.207606	-0.209903	-0.014791
	H319	H	1.217649	-0.199247	-0.001050
	H320	H	1.229188	-0.226611	-0.009009
	O321	O	-0.194793	-0.183434	0.146767
	H322	H	-0.169644	-0.200889	0.152095
	H323	H	-0.190468	-0.147864	0.150225
	O324	O	0.464573	0.555568	0.691977
	H325	H	0.456422	0.554404	0.681311
	H326	H	0.451219	0.553867	0.693341
	O327	O	0.411766	0.402816	0.470030
	H328	H	0.409309	0.411455	0.481037
	H329	H	0.419173	0.404951	0.474254
	O330	O	0.029822	1.040252	-0.197341
	H331	H	0.024716	1.075721	-0.198934
	H332	H	0.047828	1.048744	-0.190469
	O333	O	1.003333	-0.181956	1.166458
	H334	H	1.011269	-0.177542	1.163947
	H335	H	0.998537	-0.173671	1.148558
	O336	O	0.181187	-0.184274	0.195411
	H337	H	0.163261	-0.167708	0.179835
	H338	H	0.161656	-0.169891	0.177527
	O339	O	-0.003271	0.891159	1.003929
	H340	H	-0.016964	0.894683	0.996645
	H341	H	0.014350	0.884077	1.002243
	O342	O	-0.023585	1.210535	0.801304
	H343	H	-0.031619	1.217264	0.829109
	H344	H	-0.024484	1.238578	0.785233
	O345	O	1.168018	0.825733	-0.174726
	H346	H	1.159847	0.815170	-0.148809
	H347	H	1.183700	0.841088	-0.170297
	O348	O	0.566311	0.697785	0.701932
	H349	H	0.573987	0.708402	0.712657
	H350	H	0.575558	0.674447	0.710680
	O351	O	-0.225043	0.983620	1.225898
	H352	H	-0.230256	1.010696	1.185281
	H353	H	-0.267368	0.980751	1.258500
	O354	O	0.203326	0.986302	-0.201020
	H355	H	0.222670	0.982632	-0.230112
	H356	H	0.197501	0.985135	-0.186385
	O357	O	-0.200531	-0.062266	0.964797
	H358	H	-0.209190	-0.087815	0.975946
	H359	H	-0.198525	-0.071039	0.934646
	O360	O	0.429994	0.706572	0.303089
	H361	H	0.443149	0.696325	0.287308
	H362	H	0.439409	0.710807	0.298224
	O363	O	0.502497	-0.707470	0.487910
	H364	H	0.496773	-0.710140	0.479757
	H365	H	0.502133	-0.699419	0.497407
	O366	O	0.576623	0.355833	0.648180
	H367	H	0.571757	0.353512	0.674701
	H368	H	0.572541	0.377503	0.631239
	O369	O	0.612126	0.512008	0.636410
	H370	H	0.638187	0.511675	0.634171
	H371	H	0.596304	0.497540	0.632443
	O372	O	0.855968	-0.213662	1.031585
	H373	H	0.837418	-0.234503	1.027626
	H374	H	0.863772	-0.205499	1.072224
	O375	O	0.583658	0.664036	0.378613
	H376	H	0.565475	0.661148	0.379941
	H377	H	0.582775	0.651372	0.375092
	O378	O	0.337104	0.461836	0.430890
	H379	H	0.323248	0.458798	0.427225
	H380	H	0.350670	0.472451	0.431781
	O381	O	0.301111	0.350646	0.612342
	H382	H	0.296002	0.349335	0.605771
	H383	H	0.286935	0.367311	0.634074
	O384	O	0.320274	0.419657	0.711612
	H385	H	0.325509	0.453901	0.712959
	H386	H	0.333467	0.426155	0.712144
	O387	O	-0.035214	0.100793	1.015196
	H388	H	-0.048745	0.090493	1.001827
	H389	H	-0.022418	0.091020	1.000369
	O390	O	-0.231696	0.064814	0.078835
	H391	H	-0.230991	0.083956	0.063857
	H392	H	-0.228577	0.063403	0.048909
	O393	O	0.809714	1.172557	0.830543
	H394	H	0.795743	1.156404	0.851128
	H395	H	0.822594	1.147132	0.822781
	O396	O	0.996475	-0.101571	-0.040274
	H397	H	0.996701	-0.102984	-0.039656
	H398	H	0.974007	-0.096554	-0.034684
	O399	O	1.203910	0.214321	1.022294
	H400	H	1.222708	0.239796	1.023029
	H401	H	1.194770	0.205725	1.075356
	O402	O	1.656059	0.546076	0.359776
	H403	H	1.653700	0.512331	0.360708
	H404	H	1.678448	0.551610	0.341678
	O405	O	1.109257	1.167408	-0.060920
	H406	H	1.128562	1.172733	-0.066670
	H407	H	1.111306	1.160240	-0.053319
	O408	O	1.176949	0.016234	0.222639
	H409	H	1.186474	0.000361	0.247254
	H410	H	1.172333	0.002326	0.213754
	O411	O	1.006151	0.798603	-0.199007
	H412	H	1.019895	0.792854	-0.215778
	H413	H	1.021146	0.795133	-0.199911
	O414	O	0.042301	0.974198	1.166621
	H415	H	0.020414	0.988549	1.161928
	H416	H	0.035267	0.968423	1.176460
	O417	O	0.705467	0.363882	0.525434
	H418	H	0.687512	0.354914	0.540662
	H419	H	0.722813	0.355982	0.515153
	O420	O	0.558222	0.530922	0.500840
	H421	H	0.568798	0.557036	0.502656
	H422	H	0.574026	0.534636	0.483968
	O423	O	0.173540	1.184861	0.180600
	H424	H	0.140243	1.175436	0.195626
	H425	H	0.165396	1.152951	0.196778
	O426	O	0.919671	0.903195	0.090512
	H427	H	0.897821	0.905521	0.071430
	H428	H	0.925322	0.919197	0.072811
	O429	O	0.605311	0.499261	0.508236
	H430	H	0.617885	0.493314	0.493189
	H431	H	0.614585	0.519742	0.496648
	O432	O	0.683171	0.311261	0.403835
	H433	H	0.667172	0.300740	0.422289
	H434	H	0.667516	0.293347	0.418620
	O435	O	0.707811	0.706236	0.527507
	H436	H	0.729017	0.730672	0.530393
	H437	H	0.690221	0.710890	0.521195
	O438	O	0.014688	0.220080	0.225667
	H439	H	0.001341	0.221609	0.249710
	H440	H	-0.003011	0.232498	0.225176
	O441	O	1.178453	0.046226	-0.034404
	H442	H	1.178065	0.081835	-0.028472
	H443	H	1.179678	0.046842	-0.059156
	O444	O	0.403884	1.491978	0.709457
	H445	H	0.411613	1.497835	0.697416
	H446	H	0.393151	1.501964	0.710258
	O447	O	0.207648	-0.044602	0.087071
	H448	H	0.205668	-0.030594	0.068433
	H449	H	0.203867	-0.025064	0.087201
	O450	O	0.332240	0.660764	0.313626
	H451	H	0.373534	0.658910	0.313504
	H452	H	0.307413	0.674697	0.290145
	O453	O	0.296065	0.409523	0.564132
	H454	H	0.299091	0.402846	0.551786
	H455	H	0.306344	0.414840	0.554968
