data_Molecule from HDF5

_cell_length_a		16.403601
_cell_length_b		16.493614
_cell_length_c		16.454326
_cell_angle_alpha	90.023949
_cell_angle_beta	90.046528
_cell_angle_gamma	90.023284
_symmetry_space_group_name_H-M	'P 1'
_symmetry_Int_Tables_number		1

loop_
	_symmetry_equiv_pos_as_xyz
	x,y,z

loop_
	_atom_site_label
	_atom_site_type_symbol
	_atom_site_fract_x
	_atom_site_fract_y
	_atom_site_fract_z
	H0	H	0.383172	0.845246	0.734911
	H1	H	0.595488	0.161086	0.735930
	H2	H	0.594962	0.846197	0.291486
	H3	H	0.379299	0.158681	0.287892
	H4	H	0.713904	0.392120	0.857358
	H5	H	0.711001	0.606323	0.171797
	H6	H	0.270095	0.605519	0.854952
	H7	H	0.266837	0.394928	0.171066
	H8	H	0.832704	0.725936	0.404443
	H9	H	0.146550	0.726435	0.620541
	H10	H	0.833221	0.277428	0.621679
	H11	H	0.145626	0.276770	0.401799
	H12	H	0.831884	0.394169	0.735999
	H13	H	0.146805	0.609749	0.735931
	H14	H	0.833361	0.611634	0.287722
	H15	H	0.147520	0.396394	0.290053
	H16	H	0.382633	0.724446	0.856053
	H17	H	0.598840	0.726062	0.169550
	H18	H	0.596809	0.277958	0.856967
	H19	H	0.380373	0.277069	0.170079
	H20	H	0.711719	0.846600	0.405673
	H21	H	0.711715	0.161226	0.619601
	H22	H	0.267583	0.845013	0.617955
	H23	H	0.267012	0.160650	0.406392
	H24	H	0.880368	0.346507	0.240327
	H25	H	0.096929	0.658753	0.236037
	H26	H	0.096139	0.346531	0.789398
	H27	H	0.880062	0.657984	0.789903
	H28	H	0.211532	0.896041	0.354791
	H29	H	0.211219	0.109040	0.669562
	H30	H	0.763409	0.112445	0.355459
	H31	H	0.765858	0.897217	0.669184
	H32	H	0.332677	0.225320	0.907611
	H33	H	0.646808	0.226715	0.122828
	H34	H	0.333283	0.777635	0.120943
	H35	H	0.647868	0.780007	0.906694
	H36	H	0.331644	0.895049	0.234693
	H37	H	0.646818	0.111023	0.238293
	H38	H	0.332076	0.108982	0.791299
	H39	H	0.646839	0.894833	0.789346
	H40	H	0.877967	0.230248	0.356329
	H41	H	0.096741	0.227362	0.668129
	H42	H	0.097194	0.778982	0.356009
	H43	H	0.880882	0.779915	0.669035
	H44	H	0.211875	0.345382	0.906438
	H45	H	0.213402	0.658775	0.119834
	H46	H	0.766420	0.344602	0.122618
	H47	H	0.766698	0.658012	0.908244
	H48	H	0.404319	0.117910	0.611704
	H49	H	0.580273	0.890290	0.601855
	H50	H	0.578564	0.117561	0.424493
	H51	H	0.399223	0.890302	0.426767
	H52	H	0.575883	0.410482	0.126888
	H53	H	0.574986	0.591530	0.901090
	H54	H	0.401191	0.592027	0.127279
	H55	H	0.400073	0.408482	0.899358
	H56	H	0.100404	0.586882	0.425062
	H57	H	0.874442	0.592289	0.605654
	H58	H	0.101075	0.417830	0.600950
	H59	H	0.876974	0.415987	0.427137
	H60	H	0.102919	0.414147	0.601666
	H61	H	0.875792	0.594907	0.597270
	H62	H	0.104657	0.592694	0.422235
	H63	H	0.878359	0.417524	0.428287
	H64	H	0.400886	0.589529	0.125752
	H65	H	0.580549	0.592813	0.898754
	H66	H	0.580800	0.415918	0.126679
	H67	H	0.398640	0.419311	0.902318
	H68	H	0.570489	0.113987	0.424184
	H69	H	0.574188	0.891499	0.603775
	H70	H	0.405909	0.110827	0.593951
	H71	H	0.398356	0.889349	0.422677
	H72	H	0.903881	0.612376	0.100528
	H73	H	0.080847	0.388708	0.101758
	H74	H	0.079992	0.613730	0.933488
	H75	H	0.901398	0.388207	0.923266
	H76	H	0.074853	0.910806	0.625213
	H77	H	0.080417	0.090816	0.397613
	H78	H	0.902265	0.093114	0.623608
	H79	H	0.902535	0.917842	0.401297
	H80	H	0.603342	0.088449	0.923476
	H81	H	0.376223	0.093350	0.100809
	H82	H	0.603526	0.912463	0.103183
	H83	H	0.375644	0.914588	0.920671
	H84	H	0.602085	0.913576	0.098993
	H85	H	0.379756	0.088466	0.096670
	H86	H	0.603633	0.092967	0.925773
	H87	H	0.375568	0.909012	0.925679
	H88	H	0.899989	0.089087	0.623777
	H89	H	0.074912	0.085921	0.401864
	H90	H	0.081027	0.914762	0.626655
	H91	H	0.903291	0.911848	0.399920
	H92	H	0.085236	0.618514	0.920014
	H93	H	0.075849	0.389613	0.104025
	H94	H	0.900775	0.613060	0.098964
	H95	H	0.903789	0.389347	0.924204
	H96	H	0.389485	0.117741	0.600306
	H97	H	0.575877	0.892809	0.597609
	H98	H	0.575272	0.113154	0.431162
	H99	H	0.401935	0.890354	0.423146
	H100	H	0.574098	0.417165	0.123807
	H101	H	0.579394	0.587062	0.901494
	H102	H	0.403525	0.591023	0.125664
	H103	H	0.408647	0.414089	0.904149
	H104	H	0.101483	0.592960	0.429614
	H105	H	0.877974	0.586399	0.599958
	H106	H	0.100721	0.414585	0.597929
	H107	H	0.878190	0.417906	0.425970
	H108	H	0.901865	0.614021	0.102068
	H109	H	0.076180	0.391211	0.098373
	H110	H	0.071172	0.613955	0.921654
	H111	H	0.901673	0.389543	0.926253
	H112	H	0.075195	0.918315	0.623505
	H113	H	0.072996	0.093868	0.399952
	H114	H	0.904442	0.089150	0.622315
	H115	H	0.897770	0.914874	0.398083
	H116	H	0.601778	0.088677	0.927530
	H117	H	0.376885	0.086720	0.103331
	H118	H	0.602143	0.916773	0.101803
	H119	H	0.378959	0.915275	0.927790
	C120	C	0.367257	0.011409	0.634608
	C121	C	0.610393	0.995432	0.634609
	C122	C	0.609406	0.011742	0.392580
	C123	C	0.366543	0.993991	0.390905
	C124	C	0.610850	0.380043	0.022448
	C125	C	0.611665	0.622909	1.004750
	C126	C	0.368638	0.623530	0.022041
	C127	C	0.368335	0.380390	1.005297
	C128	C	-0.001701	0.623950	0.391737
	C129	C	0.980603	0.624477	0.634392
	C130	C	-0.001949	0.381745	0.633914
	C131	C	0.981218	0.382386	0.392076
	C132	C	0.868473	0.509852	0.135432
	C133	C	0.111057	0.493676	0.134480
	C134	C	0.111335	0.511496	0.891407
	C135	C	0.868110	0.492795	0.892002
	C136	C	0.110573	0.881363	0.521165
	C137	C	0.109740	0.124242	0.503639
	C138	C	0.867510	0.125220	0.520255
	C139	C	0.867555	0.881847	0.503432
	C140	C	0.498474	0.123161	0.892720
	C141	C	0.481248	0.123735	0.135210
	C142	C	0.498319	0.881013	0.134193
	C143	C	0.481167	0.880682	0.892053
	C144	C	0.364589	0.892804	0.695052
	C145	C	0.613590	0.113634	0.695672
	C146	C	0.613019	0.893553	0.331468
	C147	C	0.362585	0.111781	0.329147
	C148	C	0.673114	0.375404	0.904492
	C149	C	0.671788	0.625355	0.123836
	C150	C	0.309033	0.624882	0.902876
	C151	C	0.306704	0.376860	0.123583
	C152	C	0.880169	0.685946	0.386683
	C153	C	0.099131	0.685699	0.638140
	C154	C	0.880069	0.318606	0.638828
	C155	C	0.099020	0.318910	0.386169
	C156	C	0.879320	0.377146	0.695483
	C157	C	0.098976	0.627761	0.695899
	C158	C	0.880478	0.628603	0.328854
	C159	C	0.099741	0.378048	0.329997
	C160	C	0.365284	0.684173	0.903513
	C161	C	0.615721	0.684848	0.122779
	C162	C	0.614588	0.318636	0.904236
	C163	C	0.363781	0.318365	0.123157
	C164	C	0.671436	0.893923	0.388161
	C165	C	0.671637	0.113745	0.637659
	C166	C	0.306983	0.892532	0.636732
	C167	C	0.306379	0.112925	0.388389
	C168	C	0.863849	0.392940	0.198601
	C169	C	0.114815	0.611873	0.195615
	C170	C	0.114330	0.393484	0.830110
	C171	C	0.863459	0.610829	0.830869
	C172	C	0.171238	0.878454	0.402373
	C173	C	0.171150	0.127551	0.621948
	C174	C	0.804375	0.129961	0.402500
	C175	C	0.806123	0.878927	0.621850
	C176	C	0.379743	0.184600	0.889577
	C177	C	0.599492	0.185943	0.140118
	C178	C	0.380301	0.818768	0.137932
	C179	C	0.600241	0.820102	0.888644
	C180	C	0.379397	0.877555	0.194581
	C181	C	0.599358	0.128205	0.197703
	C182	C	0.379335	0.126670	0.831828
	C183	C	0.599622	0.877361	0.830201
	C184	C	0.861693	0.188504	0.402972
	C185	C	0.113956	0.186167	0.621469
	C186	C	0.114286	0.819735	0.403107
	C187	C	0.863406	0.820510	0.621832
	C188	C	0.171798	0.392759	0.888421
	C189	C	0.172784	0.611731	0.138039
	C190	C	0.806831	0.392010	0.140004
	C191	C	0.806562	0.610717	0.889301
	C192	C	0.392588	0.093788	0.609304
	C193	C	0.584387	0.913008	0.608663
	C194	C	0.582522	0.093521	0.419020
	C195	C	0.392308	0.911615	0.416594
	C196	C	0.584359	0.406743	0.104404
	C197	C	0.585910	0.597392	0.922138
	C198	C	0.394499	0.598223	0.104843
	C199	C	0.394748	0.406545	0.923321
	C200	C	0.080688	0.598124	0.418072
	C201	C	0.897756	0.598662	0.608353
	C202	C	0.080133	0.407980	0.607546
	C203	C	0.899279	0.409352	0.419346
	C204	C	0.894836	0.591721	0.108397
	C205	C	0.085038	0.411407	0.108677
	C206	C	0.086001	0.593866	0.917277
	C207	C	0.894526	0.410670	0.917407
	C208	C	0.084530	0.907204	0.603664
	C209	C	0.083377	0.098062	0.421287
	C210	C	0.894637	0.098277	0.601739
	C211	C	0.893641	0.907538	0.421190
	C212	C	0.581341	0.097293	0.918225
	C213	C	0.398930	0.097201	0.108135
	C214	C	0.580993	0.906887	0.108815
	C215	C	0.398482	0.905717	0.917370
	Zn216	Zn	0.489068	0.003011	0.763581
	Zn217	Zn	0.489352	0.002755	0.263358
	Zn218	Zn	0.739671	0.500839	0.014198
	Zn219	Zn	0.239631	0.502122	0.013489
	Zn220	Zn	-0.011121	0.752839	0.512618
	Zn221	Zn	-0.010813	0.253768	0.511925
	Zn222	Zn	-0.011083	0.502177	0.762859
	Zn223	Zn	-0.009697	0.502868	0.263610
	Zn224	Zn	0.490478	0.751818	0.013220
	Zn225	Zn	0.489924	0.251443	0.014268
	Zn226	Zn	0.738802	0.004055	0.512132
	Zn227	Zn	0.238657	0.002906	0.512515
	N228	N	0.401099	0.967747	0.694136
	N229	N	0.576366	0.038966	0.693698
	N230	N	0.575218	0.967816	0.333948
	N231	N	0.399143	0.036829	0.330459
	N232	N	0.670955	0.413146	0.978979
	N233	N	0.669459	0.587703	0.049417
	N234	N	0.311052	0.587974	0.977680
	N235	N	0.309463	0.414905	0.049324
	N236	N	0.954454	0.683368	0.425048
	N237	N	0.024310	0.683921	0.600800
	N238	N	0.954841	0.321002	0.601210
	N239	N	0.024173	0.321407	0.423932
	N240	N	0.953606	0.415566	0.692705
	N241	N	0.024078	0.590473	0.693804
	N242	N	0.955059	0.590866	0.331690
	N243	N	0.025584	0.416626	0.333534
	N244	N	0.401344	0.683906	0.979009
	N245	N	0.579348	0.683925	0.047441
	N246	N	0.576536	0.321547	0.978436
	N247	N	0.401458	0.320367	0.048642
	N248	N	0.669211	0.968454	0.425464
	N249	N	0.669967	0.039008	0.600583
	N250	N	0.308199	0.967437	0.600248
	N251	N	0.308292	0.038444	0.425715
	N252	N	0.901285	0.467422	0.195892
	N253	N	0.076999	0.537568	0.193354
	N254	N	0.077761	0.468253	0.831648
	N255	N	0.900845	0.536349	0.832165
	N256	N	0.168893	0.916183	0.476751
	N257	N	0.168658	0.089946	0.547449
	N258	N	0.807994	0.091211	0.476309
	N259	N	0.808471	0.916215	0.547302
	N260	N	0.454908	0.182602	0.926474
	N261	N	0.525020	0.183081	0.101973
	N262	N	0.455345	0.820717	0.101096
	N263	N	0.525563	0.821812	0.926119
	N264	N	0.453784	0.915789	0.192316
	N265	N	0.524750	0.090348	0.194827
	N266	N	0.454171	0.089326	0.833625
	N267	N	0.524445	0.914203	0.831784
	N268	N	0.900384	0.185570	0.476979
	N269	N	0.076668	0.184216	0.546677
	N270	N	0.077264	0.821418	0.478041
	N271	N	0.900898	0.822104	0.547188
	N272	N	0.170205	0.467431	0.925755
	N273	N	0.170440	0.537328	0.100628
	N274	N	0.809790	0.465749	0.101217
	N275	N	0.809170	0.536265	0.926546
	O276	O	0.704619	0.523679	0.726342
	H277	H	0.688804	0.517664	0.723335
	H278	H	0.733953	0.531085	0.752128
	O279	O	1.005933	-0.210288	0.801427
	H280	H	1.007242	-0.237252	0.773089
	H281	H	0.995652	-0.207822	0.834322
	O282	O	0.465791	0.290380	0.608048
	H283	H	0.481752	0.291834	0.608387
	H284	H	0.472076	0.284145	0.627737
	O285	O	0.467567	0.528385	0.363570
	H286	H	0.464235	0.531967	0.369595
	H287	H	0.494559	0.517640	0.356975
	O288	O	1.207725	1.024429	0.225826
	H289	H	1.195932	1.078076	0.213292
	H290	H	1.244769	1.029696	0.261188
	O291	O	0.419463	0.704215	0.372900
	H292	H	0.412561	0.719883	0.343370
	H293	H	0.388212	0.700984	0.372826
	O294	O	-0.072259	0.213836	1.063844
	H295	H	-0.059171	0.195060	1.077186
	H296	H	-0.057556	0.222982	1.055630
	O297	O	0.341902	0.532260	0.572224
	H298	H	0.355260	0.535218	0.554017
	H299	H	0.330714	0.516054	0.575773
	O300	O	0.279660	0.473661	0.707749
	H301	H	0.285037	0.474929	0.707983
	H302	H	0.259610	0.468863	0.719439
	O303	O	0.045798	0.804844	0.205810
	H304	H	0.044825	0.791095	0.211607
	H305	H	0.048897	0.812419	0.186909
	O306	O	0.477462	0.411376	0.619816
	H307	H	0.484712	0.407721	0.610489
	H308	H	0.496947	0.427276	0.623855
	O309	O	1.271674	-0.712495	0.536232
	H310	H	1.258491	-0.728487	0.561349
	H311	H	1.267357	-0.724541	0.563705
	O312	O	-0.003326	1.005084	0.885630
	H313	H	0.005544	0.991307	0.888325
	H314	H	-0.017122	1.015684	0.889247
	O315	O	0.460646	0.540742	0.703365
	H316	H	0.452733	0.551477	0.697018
	H317	H	0.461873	0.527457	0.691713
	O318	O	0.954552	-0.218257	-0.027143
	H319	H	0.936628	-0.210367	-0.021489
	H320	H	0.953323	-0.213166	-0.013240
	O321	O	-0.188289	-0.175838	0.199662
	H322	H	-0.143875	-0.187971	0.201868
	H323	H	-0.193448	-0.178897	0.166675
	O324	O	0.374885	0.487369	0.600138
	H325	H	0.376586	0.471014	0.601796
	H326	H	0.383071	0.487163	0.610559
	O327	O	0.511123	0.296680	0.305224
	H328	H	0.500822	0.269440	0.287137
	H329	H	0.489302	0.306937	0.311463
	O330	O	0.033826	1.009581	0.045647
	H331	H	0.034842	1.012683	0.058220
	H332	H	0.023529	1.009092	0.046260
	O333	O	0.934212	-0.044237	0.808427
	H334	H	0.926898	-0.059521	0.814978
	H335	H	0.929816	-0.044191	0.812672
	O336	O	-0.223415	-0.106865	-0.017007
	H337	H	-0.216050	-0.100776	-0.033168
	H338	H	-0.228042	-0.085172	-0.003767
	O339	O	0.057019	1.203267	0.971819
	H340	H	0.046157	1.199534	0.944437
	H341	H	0.062268	1.197230	0.964547
	O342	O	-0.221520	1.191904	1.005738
	H343	H	-0.211416	1.206168	1.015155
	H344	H	-0.220032	1.206225	1.011522
	O345	O	1.193986	0.918973	0.036917
	H346	H	1.192863	0.943994	0.031870
	H347	H	1.193403	0.919529	0.052360
	O348	O	0.355654	0.706778	0.500698
	H349	H	0.354138	0.690636	0.522378
	H350	H	0.341154	0.716148	0.503441
	O351	O	-0.071242	1.069474	1.236770
	H352	H	-0.081724	1.051034	1.232867
	H353	H	-0.086850	1.051928	1.238080
	O354	O	0.174331	0.860214	-0.177271
	H355	H	0.142152	0.844918	-0.165014
	H356	H	0.180464	0.846387	-0.157541
	O357	O	-0.218012	-0.023010	1.222056
	H358	H	-0.241911	-0.026799	1.229683
	H359	H	-0.214990	-0.059690	1.218603
	O360	O	0.386646	0.492075	0.298450
	H361	H	0.387468	0.512036	0.279663
	H362	H	0.399409	0.496686	0.306939
	O363	O	0.694250	-0.511771	0.316070
	H364	H	0.714484	-0.505075	0.312705
	H365	H	0.693586	-0.495197	0.325875
	O366	O	0.668212	0.329659	0.341581
	H367	H	0.676828	0.373675	0.335373
	H368	H	0.616602	0.318381	0.329192
	O369	O	0.678687	0.691278	0.696118
	H370	H	0.672818	0.669753	0.692544
	H371	H	0.642763	0.689550	0.701657
	O372	O	0.803454	0.048921	1.065554
	H373	H	0.800585	0.065680	1.048821
	H374	H	0.800782	0.058865	1.089197
	O375	O	0.289525	0.594462	0.325801
	H376	H	0.290626	0.584547	0.319635
	H377	H	0.280491	0.589761	0.325022
	O378	O	0.454421	0.472633	0.382443
	H379	H	0.459740	0.472543	0.383578
	H380	H	0.462939	0.474471	0.383038
	O381	O	0.610488	0.590369	0.423990
	H382	H	0.593383	0.575878	0.431975
	H383	H	0.607530	0.621647	0.443806
	O384	O	0.606590	0.702387	0.466973
	H385	H	0.611813	0.717436	0.445355
	H386	H	0.617263	0.698303	0.456752
	O387	O	-0.319996	0.243605	0.680444
	H388	H	-0.322022	0.249286	0.687985
	H389	H	-0.329367	0.242255	0.663672
	O390	O	-0.028639	0.210432	-0.190820
	H391	H	-0.019049	0.193713	-0.205073
	H392	H	-0.038094	0.220835	-0.209662
	O393	O	1.048204	0.954899	1.219615
	H394	H	1.084275	0.963069	1.227597
	H395	H	1.041207	0.956084	1.219200
	O396	O	1.026169	-0.203240	0.113481
	H397	H	1.047310	-0.197821	0.100212
	H398	H	1.019973	-0.196140	0.114001
	O399	O	1.188656	0.178077	1.013359
	H400	H	1.194742	0.169371	1.004165
	H401	H	1.176279	0.182125	0.998733
	O402	O	1.303131	0.311025	0.698605
	H403	H	1.322590	0.335644	0.709790
	H404	H	1.317934	0.295628	0.720889
	O405	O	0.806619	1.184797	-0.168230
	H406	H	0.806895	1.179140	-0.157288
	H407	H	0.818923	1.190590	-0.152922
	O408	O	1.099185	0.012327	-0.008891
	H409	H	1.101121	0.024191	-0.021811
	H410	H	1.087196	0.029398	-0.004469
	O411	O	0.788457	0.932121	-0.184713
	H412	H	0.805173	0.940326	-0.184645
	H413	H	0.772009	0.925634	-0.208859
	O414	O	-0.214965	0.829845	1.008154
	H415	H	-0.244194	0.804222	1.008345
	H416	H	-0.225129	0.858576	0.977679
	O417	O	0.453777	0.337288	0.486466
	H418	H	0.448768	0.319757	0.492907
	H419	H	0.450344	0.335838	0.472328
	O420	O	0.617088	0.396951	0.664331
	H421	H	0.619451	0.405351	0.649373
	H422	H	0.607834	0.405774	0.650427
	O423	O	0.679098	1.651839	0.521705
	H424	H	0.697414	1.673304	0.527854
	H425	H	0.668221	1.647076	0.550850
	O426	O	1.195329	0.801711	-0.044208
	H427	H	1.217223	0.785074	-0.026429
	H428	H	1.198756	0.818222	-0.023568
	O429	O	0.516060	0.709966	0.503639
	H430	H	0.532967	0.712108	0.485777
	H431	H	0.497048	0.701908	0.492210
	O432	O	1.206408	0.002352	-0.173825
	H433	H	1.215140	-0.021602	-0.194084
	H434	H	1.213714	-0.032794	-0.175668
	O435	O	0.510743	0.707580	0.724220
	H436	H	0.499469	0.725841	0.744263
	H437	H	0.484816	0.702013	0.712856
	O438	O	0.012100	0.217078	0.222804
	H439	H	-0.008086	0.213665	0.226378
	H440	H	-0.001564	0.212806	0.250187
	O441	O	1.113470	0.129190	-0.187529
	H442	H	1.092105	0.110684	-0.176724
	H443	H	1.125941	0.098848	-0.186634
	O444	O	0.706116	1.325017	0.513732
	H445	H	0.700407	1.322639	0.483870
	H446	H	0.727761	1.314752	0.494508
	O447	O	0.171078	0.179174	0.188802
	H448	H	0.131223	0.192836	0.184498
	H449	H	0.166711	0.192890	0.151872
	O450	O	0.539190	0.425133	0.494321
	H451	H	0.541367	0.423961	0.508024
	H452	H	0.536178	0.412700	0.492215
	O453	O	0.301129	0.637313	0.434488
	H454	H	0.293672	0.659955	0.455580
	H455	H	0.293089	0.596484	0.413684
