data_Molecule from HDF5

_cell_length_a		16.313003
_cell_length_b		16.326574
_cell_length_c		16.293135
_cell_angle_alpha	90.005748
_cell_angle_beta	90.015028
_cell_angle_gamma	89.997065
_symmetry_space_group_name_H-M	'P 1'
_symmetry_Int_Tables_number		1

loop_
	_symmetry_equiv_pos_as_xyz
	x,y,z

loop_
	_atom_site_label
	_atom_site_type_symbol
	_atom_site_fract_x
	_atom_site_fract_y
	_atom_site_fract_z
	H0	H	0.401675	0.836650	0.714337
	H1	H	0.598138	0.164038	0.713936
	H2	H	0.598781	0.836772	0.284884
	H3	H	0.403779	0.164369	0.286336
	H4	H	0.713334	0.402229	0.836096
	H5	H	0.712853	0.597470	0.163574
	H6	H	0.285356	0.597039	0.836192
	H7	H	0.285705	0.402944	0.164268
	H8	H	0.836741	0.713170	0.402754
	H9	H	0.163489	0.712936	0.598490
	H10	H	0.836431	0.284960	0.598593
	H11	H	0.163561	0.285067	0.402036
	H12	H	0.836040	0.401909	0.714448
	H13	H	0.163301	0.596749	0.714604
	H14	H	0.836953	0.597864	0.285517
	H15	H	0.163143	0.400678	0.285326
	H16	H	0.400979	0.714447	0.835926
	H17	H	0.597867	0.715254	0.163097
	H18	H	0.597820	0.285659	0.836144
	H19	H	0.401697	0.285760	0.163831
	H20	H	0.714794	0.836713	0.401784
	H21	H	0.714428	0.163720	0.597280
	H22	H	0.286252	0.836273	0.597069
	H23	H	0.285054	0.163125	0.401396
	H24	H	0.902007	0.336351	0.214123
	H25	H	0.097713	0.663545	0.214105
	H26	H	0.096788	0.336239	0.786789
	H27	H	0.901728	0.662904	0.785528
	H28	H	0.214500	0.901876	0.336899
	H29	H	0.214092	0.097550	0.664176
	H30	H	0.786960	0.097953	0.336326
	H31	H	0.786800	0.902750	0.663594
	H32	H	0.336389	0.214492	0.901849
	H33	H	0.663429	0.213887	0.097989
	H34	H	0.336070	0.786602	0.097512
	H35	H	0.663567	0.785729	0.901118
	H36	H	0.336603	0.902172	0.214756
	H37	H	0.663933	0.097271	0.212987
	H38	H	0.336587	0.097335	0.786254
	H39	H	0.664234	0.902490	0.785352
	H40	H	0.901886	0.215431	0.336692
	H41	H	0.098345	0.214890	0.663666
	H42	H	0.098492	0.785412	0.336802
	H43	H	0.902552	0.785846	0.663876
	H44	H	0.214378	0.336921	0.902350
	H45	H	0.214074	0.663656	0.098023
	H46	H	0.784569	0.336596	0.098564
	H47	H	0.785759	0.663871	0.902414
	H48	H	0.410926	0.116206	0.597849
	H49	H	0.600294	0.882398	0.593155
	H50	H	0.594840	0.116825	0.405724
	H51	H	0.403616	0.881070	0.398406
	H52	H	0.591897	0.408044	0.115049
	H53	H	0.596564	0.598439	0.880952
	H54	H	0.390428	0.585576	0.118785
	H55	H	0.397168	0.414563	0.883695
	H56	H	0.115210	0.596711	0.414654
	H57	H	0.886723	0.594578	0.581228
	H58	H	0.114754	0.406576	0.588512
	H59	H	0.882091	0.401671	0.405293
	H60	H	0.115768	0.411290	0.597572
	H61	H	0.884707	0.583040	0.599509
	H62	H	0.114824	0.584229	0.405463
	H63	H	0.885847	0.406828	0.412954
	H64	H	0.420687	0.585308	0.109383
	H65	H	0.595420	0.587246	0.884081
	H66	H	0.591584	0.404768	0.116447
	H67	H	0.417463	0.410423	0.888615
	H68	H	0.594185	0.115766	0.405156
	H69	H	0.590129	0.883503	0.598447
	H70	H	0.409429	0.113890	0.587570
	H71	H	0.416179	0.887104	0.406863
	H72	H	0.903975	0.616712	0.093132
	H73	H	0.088025	0.385807	0.091719
	H74	H	0.096000	0.620988	0.892960
	H75	H	0.911301	0.386037	0.907353
	H76	H	0.082469	0.912971	0.611414
	H77	H	0.090402	0.095197	0.383889
	H78	H	0.911646	0.088673	0.613582
	H79	H	0.903959	0.903297	0.381398
	H80	H	0.615044	0.094892	0.912331
	H81	H	0.382986	0.095305	0.092857
	H82	H	0.618719	0.900727	0.095686
	H83	H	0.380802	0.900415	0.901510
	H84	H	0.614509	0.906296	0.085410
	H85	H	0.384093	0.092607	0.092196
	H86	H	0.615842	0.087745	0.903844
	H87	H	0.386179	0.905717	0.914759
	H88	H	0.908305	0.098426	0.617760
	H89	H	0.096373	0.095210	0.382106
	H90	H	0.092087	0.893122	0.620690
	H91	H	0.906498	0.910787	0.384964
	H92	H	0.080484	0.611651	0.910733
	H93	H	0.097770	0.383966	0.088761
	H94	H	0.907173	0.616133	0.095345
	H95	H	0.902032	0.383951	0.912615
	H96	H	0.401055	0.117432	0.593486
	H97	H	0.590870	0.886803	0.587418
	H98	H	0.594511	0.116084	0.405941
	H99	H	0.401802	0.884988	0.414120
	H100	H	0.595008	0.406810	0.117313
	H101	H	0.586241	0.594720	0.884910
	H102	H	0.407835	0.611847	0.121071
	H103	H	0.405149	0.395198	0.879915
	H104	H	0.119632	0.598248	0.400223
	H105	H	0.878587	0.603626	0.599342
	H106	H	0.117901	0.401597	0.596650
	H107	H	0.884357	0.411285	0.403694
	H108	H	0.907050	0.615194	0.091430
	H109	H	0.094876	0.382307	0.098149
	H110	H	0.104097	0.616513	0.916428
	H111	H	0.902832	0.381326	0.902299
	H112	H	0.105341	0.912284	0.618290
	H113	H	0.094291	0.089552	0.384576
	H114	H	0.901346	0.090245	0.617457
	H115	H	0.911793	0.904388	0.384149
	H116	H	0.618250	0.098907	0.902632
	H117	H	0.383221	0.093108	0.094989
	H118	H	0.615488	0.912732	0.096497
	H119	H	0.385377	0.914484	0.902744
	C120	C	0.378917	0.007631	0.621075
	C121	C	0.621706	0.992322	0.621086
	C122	C	0.622476	0.008264	0.377796
	C123	C	0.378892	0.992098	0.378053
	C124	C	0.620886	0.378520	0.007949
	C125	C	0.621161	0.621688	0.991467
	C126	C	0.378223	0.621685	0.007878
	C127	C	0.378178	0.378444	0.992149
	C128	C	0.008581	0.621414	0.378513
	C129	C	0.991539	0.621442	0.621903
	C130	C	0.008122	0.377995	0.622355
	C131	C	0.992056	0.378121	0.378797
	C132	C	0.877736	0.507959	0.121797
	C133	C	0.121424	0.492126	0.121402
	C134	C	0.121533	0.508424	0.878699
	C135	C	0.877538	0.491581	0.878597
	C136	C	0.121574	0.878127	0.508567
	C137	C	0.121788	0.121498	0.491746
	C138	C	0.878910	0.121201	0.508223
	C139	C	0.878864	0.878333	0.491852
	C140	C	0.508236	0.121632	0.878650
	C141	C	0.491803	0.121599	0.121364
	C142	C	0.507881	0.878841	0.120827
	C143	C	0.491962	0.878673	0.878076
	C144	C	0.381368	0.885066	0.676480
	C145	C	0.618808	0.115076	0.676147
	C146	C	0.619122	0.885331	0.323195
	C147	C	0.381957	0.115236	0.323401
	C148	C	0.675759	0.381384	0.884924
	C149	C	0.675668	0.618718	0.114663
	C150	C	0.323466	0.618149	0.884763
	C151	C	0.323692	0.381869	0.115502
	C152	C	0.885521	0.675821	0.381510
	C153	C	0.114620	0.675744	0.619272
	C154	C	0.885004	0.322968	0.619171
	C155	C	0.114866	0.322919	0.381308
	C156	C	0.884836	0.380909	0.676731
	C157	C	0.114552	0.617868	0.676905
	C158	C	0.885560	0.618378	0.323791
	C159	C	0.114408	0.380346	0.323439
	C160	C	0.380773	0.676357	0.884606
	C161	C	0.618594	0.676960	0.114518
	C162	C	0.618293	0.323677	0.884900
	C163	C	0.381115	0.323644	0.115148
	C164	C	0.676962	0.885373	0.381185
	C165	C	0.676518	0.115153	0.618278
	C166	C	0.323840	0.885030	0.618321
	C167	C	0.323371	0.114748	0.380614
	C168	C	0.880788	0.385179	0.176616
	C169	C	0.118369	0.614740	0.176297
	C170	C	0.117971	0.385045	0.824541
	C171	C	0.880963	0.614620	0.823916
	C172	C	0.176104	0.881370	0.385389
	C173	C	0.176560	0.118654	0.615197
	C174	C	0.824261	0.118715	0.385086
	C175	C	0.824146	0.881514	0.614802
	C176	C	0.384886	0.175796	0.881919
	C177	C	0.614699	0.176251	0.118614
	C178	C	0.384952	0.824107	0.118501
	C179	C	0.615041	0.823514	0.880536
	C180	C	0.385126	0.881554	0.176473
	C181	C	0.615068	0.118243	0.175695
	C182	C	0.385122	0.118309	0.824046
	C183	C	0.615292	0.881651	0.823384
	C184	C	0.881714	0.176667	0.385113
	C185	C	0.118948	0.176524	0.615178
	C186	C	0.119059	0.823118	0.385501
	C187	C	0.881957	0.823911	0.615125
	C188	C	0.176355	0.385413	0.881731
	C189	C	0.176427	0.614771	0.118926
	C190	C	0.822518	0.385319	0.119296
	C191	C	0.823547	0.614973	0.881807
	C192	C	0.400677	0.093678	0.599269
	C193	C	0.600299	0.906432	0.599291
	C194	C	0.600959	0.094121	0.399299
	C195	C	0.400704	0.906532	0.399995
	C196	C	0.599155	0.400143	0.093923
	C197	C	0.599201	0.599905	0.905714
	C198	C	0.399870	0.600482	0.094142
	C199	C	0.400076	0.400280	0.906045
	C200	C	0.094527	0.599572	0.400242
	C201	C	0.905637	0.599929	0.600020
	C202	C	0.093939	0.399949	0.600695
	C203	C	0.906179	0.400041	0.400916
	C204	C	0.899642	0.593989	0.099752
	C205	C	0.099786	0.406152	0.099368
	C206	C	0.099755	0.594188	0.900247
	C207	C	0.899121	0.405870	0.900789
	C208	C	0.099682	0.899744	0.594659
	C209	C	0.100082	0.099864	0.405851
	C210	C	0.900829	0.099142	0.594032
	C211	C	0.901153	0.899993	0.405600
	C212	C	0.594110	0.100229	0.900076
	C213	C	0.405540	0.100078	0.099814
	C214	C	0.594065	0.900274	0.098948
	C215	C	0.406431	0.900356	0.899728
	Zn216	Zn	0.500048	0.000056	0.749867
	Zn217	Zn	0.500585	0.000303	0.249382
	Zn218	Zn	0.749449	0.500309	-0.000089
	Zn219	Zn	0.250134	0.500245	0.000341
	Zn220	Zn	0.000350	0.749856	0.500086
	Zn221	Zn	0.000144	0.250145	0.500368
	Zn222	Zn	-0.000734	0.499780	0.750470
	Zn223	Zn	-0.000065	0.499803	0.250285
	Zn224	Zn	0.499779	0.750143	-0.000703
	Zn225	Zn	0.499861	0.249995	0.000039
	Zn226	Zn	0.750757	0.000163	0.499931
	Zn227	Zn	0.250037	0.000092	0.500279
	N228	N	0.414951	0.962400	0.678064
	N229	N	0.585435	0.037647	0.678034
	N230	N	0.586106	0.962818	0.320981
	N231	N	0.415904	0.038123	0.321749
	N232	N	0.677289	0.415115	0.962322
	N233	N	0.676938	0.584710	0.037461
	N234	N	0.321847	0.584977	0.962396
	N235	N	0.321802	0.415214	0.037843
	N236	N	0.962905	0.677577	0.415172
	N237	N	0.037188	0.677964	0.585683
	N238	N	0.962587	0.320981	0.586050
	N239	N	0.037713	0.321671	0.415388
	N240	N	0.962107	0.414683	0.678450
	N241	N	0.037000	0.584903	0.678685
	N242	N	0.963051	0.585055	0.321987
	N243	N	0.037030	0.414004	0.321847
	N244	N	0.414330	0.678450	0.962173
	N245	N	0.585469	0.679122	0.036823
	N246	N	0.584920	0.321775	0.962441
	N247	N	0.414048	0.321528	0.037439
	N248	N	0.678655	0.962733	0.414812
	N249	N	0.678468	0.037761	0.584849
	N250	N	0.322225	0.962350	0.584820
	N251	N	0.321291	0.037226	0.413764
	N252	N	0.914533	0.462446	0.178120
	N253	N	0.084953	0.537309	0.177940
	N254	N	0.084543	0.462429	0.822411
	N255	N	0.913769	0.536955	0.821757
	N256	N	0.177590	0.915054	0.462697
	N257	N	0.178511	0.085210	0.537574
	N258	N	0.822463	0.085062	0.462474
	N259	N	0.822319	0.914618	0.537180
	N260	N	0.462419	0.178208	0.914923
	N261	N	0.536978	0.178434	0.085635
	N262	N	0.462191	0.822567	0.084341
	N263	N	0.537475	0.821389	0.913836
	N264	N	0.462747	0.914722	0.178161
	N265	N	0.537615	0.084811	0.177429
	N266	N	0.462703	0.085216	0.821915
	N267	N	0.537898	0.915164	0.821639
	N268	N	0.915286	0.178077	0.462610
	N269	N	0.085495	0.178255	0.537592
	N270	N	0.085766	0.821178	0.463188
	N271	N	0.915074	0.821559	0.537455
	N272	N	0.178496	0.462945	0.914805
	N273	N	0.178101	0.537505	0.085268
	N274	N	0.820468	0.462774	0.086037
	N275	N	0.821488	0.537508	0.915150
