data_Molecule from HDF5

_cell_length_a		16.305128
_cell_length_b		16.402596
_cell_length_c		16.512782
_cell_angle_alpha	89.958377
_cell_angle_beta	89.890624
_cell_angle_gamma	90.097246
_symmetry_space_group_name_H-M	'P 1'
_symmetry_Int_Tables_number		1

loop_
	_symmetry_equiv_pos_as_xyz
	x,y,z

loop_
	_atom_site_label
	_atom_site_type_symbol
	_atom_site_fract_x
	_atom_site_fract_y
	_atom_site_fract_z
	H0	H	0.389617	0.838182	0.721291
	H1	H	0.603195	0.155340	0.719671
	H2	H	0.602907	0.837718	0.277344
	H3	H	0.390574	0.154170	0.275649
	H4	H	0.718735	0.391409	0.840745
	H5	H	0.716906	0.599391	0.158508
	H6	H	0.277601	0.597749	0.840589
	H7	H	0.276506	0.391460	0.159099
	H8	H	0.836744	0.714690	0.399008
	H9	H	0.157766	0.717774	0.605721
	H10	H	0.835129	0.276783	0.604606
	H11	H	0.157059	0.276428	0.396284
	H12	H	0.837129	0.390233	0.722138
	H13	H	0.158518	0.600626	0.720418
	H14	H	0.838294	0.603248	0.279258
	H15	H	0.155658	0.388789	0.277317
	H16	H	0.393173	0.714683	0.839894
	H17	H	0.603049	0.719355	0.155765
	H18	H	0.601317	0.275637	0.840646
	H19	H	0.391079	0.272653	0.157800
	H20	H	0.715892	0.836303	0.395834
	H21	H	0.715896	0.157019	0.600514
	H22	H	0.275972	0.837423	0.603324
	H23	H	0.277427	0.155778	0.395321
	H24	H	0.888972	0.338575	0.224295
	H25	H	0.104266	0.654828	0.221633
	H26	H	0.104301	0.337712	0.777604
	H27	H	0.893303	0.654959	0.780450
	H28	H	0.217660	0.892300	0.340525
	H29	H	0.217001	0.099870	0.657324
	H30	H	0.778104	0.100825	0.339842
	H31	H	0.776259	0.893834	0.657112
	H32	H	0.336136	0.215239	0.894627
	H33	H	0.656947	0.216270	0.101539
	H34	H	0.337070	0.775650	0.103202
	H35	H	0.657794	0.777980	0.895481
	H36	H	0.338626	0.888009	0.221755
	H37	H	0.657086	0.101472	0.218369
	H38	H	0.336635	0.098292	0.779386
	H39	H	0.656317	0.891855	0.777213
	H40	H	0.890907	0.220284	0.342498
	H41	H	0.099701	0.215761	0.658352
	H42	H	0.105087	0.773036	0.342021
	H43	H	0.893061	0.776569	0.658431
	H44	H	0.215505	0.335682	0.898251
	H45	H	0.216275	0.655845	0.103024
	H46	H	0.776539	0.336879	0.105338
	H47	H	0.778466	0.654991	0.898088
	H48	H	0.412220	0.110457	0.593057
	H49	H	0.587636	0.882572	0.589233
	H50	H	0.585091	0.109182	0.408176
	H51	H	0.401873	0.881496	0.410682
	H52	H	0.596538	0.398787	0.117956
	H53	H	0.587005	0.590725	0.886374
	H54	H	0.405876	0.581601	0.111156
	H55	H	0.411249	0.397722	0.885825
	H56	H	0.111856	0.584368	0.410085
	H57	H	0.886777	0.580003	0.587276
	H58	H	0.109077	0.408355	0.584876
	H59	H	0.882134	0.404625	0.413410
	H60	H	0.110665	0.411105	0.591891
	H61	H	0.881499	0.584228	0.598070
	H62	H	0.111756	0.585161	0.411830
	H63	H	0.886137	0.412486	0.415863
	H64	H	0.413646	0.587285	0.110495
	H65	H	0.592542	0.583900	0.886049
	H66	H	0.586442	0.418670	0.107415
	H67	H	0.397550	0.406418	0.884958
	H68	H	0.588573	0.110193	0.408820
	H69	H	0.582505	0.883837	0.589449
	H70	H	0.411360	0.107605	0.583673
	H71	H	0.411415	0.881787	0.403441
	H72	H	0.907764	0.609075	0.088330
	H73	H	0.082693	0.381366	0.096369
	H74	H	0.084867	0.607303	0.914647
	H75	H	0.909899	0.380798	0.907253
	H76	H	0.092076	0.908626	0.612437
	H77	H	0.089832	0.088428	0.383821
	H78	H	0.908437	0.090722	0.612528
	H79	H	0.915702	0.901339	0.386908
	H80	H	0.609191	0.077334	0.906174
	H81	H	0.387932	0.082081	0.075695
	H82	H	0.608949	0.910517	0.084777
	H83	H	0.384815	0.911621	0.911278
	H84	H	0.611362	0.909085	0.090028
	H85	H	0.385146	0.072472	0.095028
	H86	H	0.615140	0.090252	0.901510
	H87	H	0.380046	0.906245	0.901624
	H88	H	0.901593	0.087000	0.613793
	H89	H	0.085760	0.082694	0.387996
	H90	H	0.083261	0.910598	0.609289
	H91	H	0.901681	0.901167	0.382510
	H92	H	0.091298	0.611505	0.908807
	H93	H	0.080505	0.385302	0.086054
	H94	H	0.906966	0.610638	0.091967
	H95	H	0.911505	0.383095	0.913193
	H96	H	0.403058	0.111045	0.588365
	H97	H	0.585041	0.884776	0.584923
	H98	H	0.586455	0.110538	0.405265
	H99	H	0.412353	0.886112	0.414659
	H100	H	0.573831	0.398225	0.110050
	H101	H	0.584116	0.582021	0.888288
	H102	H	0.405213	0.591001	0.114057
	H103	H	0.411241	0.412847	0.891158
	H104	H	0.110562	0.584047	0.411316
	H105	H	0.882405	0.592198	0.588188
	H106	H	0.111438	0.403808	0.590743
	H107	H	0.883120	0.411253	0.407884
	H108	H	0.910716	0.608764	0.091576
	H109	H	0.090717	0.381700	0.089054
	H110	H	0.082586	0.609032	0.906298
	H111	H	0.905004	0.381183	0.911536
	H112	H	0.084471	0.901986	0.613706
	H113	H	0.081693	0.090345	0.386356
	H114	H	0.907431	0.082695	0.610948
	H115	H	0.907112	0.913281	0.388709
	H116	H	0.609557	0.088886	0.915519
	H117	H	0.378124	0.092882	0.091985
	H118	H	0.610651	0.905130	0.086291
	H119	H	0.380707	0.900001	0.912151
	C120	C	0.375840	0.004738	0.620191
	C121	C	0.617842	0.988538	0.619421
	C122	C	0.619263	0.004803	0.376202
	C123	C	0.376116	0.988005	0.377264
	C124	C	0.618413	0.373815	0.007489
	C125	C	0.619955	0.618103	0.990982
	C126	C	0.375810	0.617675	0.007409
	C127	C	0.374871	0.373634	0.991880
	C128	C	0.005807	0.616959	0.379693
	C129	C	0.989568	0.617543	0.622186
	C130	C	0.004994	0.375034	0.621935
	C131	C	0.988692	0.376056	0.379464
	C132	C	0.875533	0.504741	0.122759
	C133	C	0.118037	0.487712	0.122088
	C134	C	0.118373	0.504186	0.878476
	C135	C	0.876945	0.487252	0.879394
	C136	C	0.119298	0.874543	0.507569
	C137	C	0.117752	0.118252	0.490738
	C138	C	0.874661	0.118749	0.507740
	C139	C	0.876075	0.874544	0.490892
	C140	C	0.505341	0.117049	0.876881
	C141	C	0.489006	0.115729	0.119245
	C142	C	0.505496	0.874842	0.119820
	C143	C	0.488082	0.874754	0.876951
	C144	C	0.372373	0.885386	0.680316
	C145	C	0.620577	0.108031	0.679249
	C146	C	0.621669	0.885324	0.316674
	C147	C	0.372878	0.107093	0.316503
	C148	C	0.678787	0.372760	0.888489
	C149	C	0.678289	0.619215	0.110413
	C150	C	0.316861	0.617367	0.888231
	C151	C	0.315779	0.372321	0.111372
	C152	C	0.885083	0.675896	0.379447
	C153	C	0.109958	0.677469	0.623656
	C154	C	0.883789	0.315781	0.623180
	C155	C	0.108718	0.315698	0.377480
	C156	C	0.884807	0.372128	0.682024
	C157	C	0.110180	0.619338	0.681151
	C158	C	0.885769	0.620169	0.320024
	C159	C	0.108121	0.371707	0.318050
	C160	C	0.374750	0.675417	0.887773
	C161	C	0.621720	0.678934	0.108985
	C162	C	0.620473	0.314931	0.888244
	C163	C	0.372839	0.313066	0.110590
	C164	C	0.677529	0.884478	0.376064
	C165	C	0.676841	0.108728	0.619972
	C166	C	0.315677	0.885074	0.621677
	C167	C	0.316639	0.107835	0.375975
	C168	C	0.871676	0.385994	0.183655
	C169	C	0.121566	0.607161	0.181493
	C170	C	0.121982	0.385076	0.817956
	C171	C	0.874935	0.607196	0.820279
	C172	C	0.178604	0.873163	0.388377
	C173	C	0.177131	0.118570	0.609933
	C174	C	0.816475	0.120165	0.387987
	C175	C	0.816120	0.874226	0.609990
	C176	C	0.384559	0.175729	0.876016
	C177	C	0.609212	0.176028	0.120246
	C178	C	0.385323	0.815028	0.121733
	C179	C	0.609379	0.816653	0.876154
	C180	C	0.386045	0.871094	0.180889
	C181	C	0.609150	0.118996	0.178498
	C182	C	0.384648	0.117856	0.818515
	C183	C	0.608698	0.873427	0.817601
	C184	C	0.872958	0.179481	0.389287
	C185	C	0.119033	0.176549	0.610311
	C186	C	0.122320	0.813793	0.389098
	C187	C	0.874070	0.815993	0.610609
	C188	C	0.177213	0.384033	0.878026
	C189	C	0.177420	0.607707	0.122328
	C190	C	0.815740	0.384870	0.124305
	C191	C	0.817949	0.607373	0.878944
	C192	C	0.401556	0.087988	0.595337
	C193	C	0.592250	0.905438	0.594882
	C194	C	0.594107	0.088319	0.400377
	C195	C	0.401466	0.904806	0.402269
	C196	C	0.593033	0.398337	0.090249
	C197	C	0.595115	0.592779	0.908337
	C198	C	0.400994	0.593561	0.090508
	C199	C	0.399599	0.398366	0.908879
	C200	C	0.089663	0.591865	0.404013
	C201	C	0.905439	0.592767	0.598214
	C202	C	0.088582	0.400450	0.596677
	C203	C	0.905437	0.402072	0.405007
	C204	C	0.901041	0.587887	0.097796
	C205	C	0.091958	0.404348	0.097568
	C206	C	0.093428	0.587525	0.902763
	C207	C	0.901609	0.403669	0.903627
	C208	C	0.093848	0.899595	0.590354
	C209	C	0.092980	0.094036	0.407541
	C210	C	0.898960	0.093810	0.590839
	C211	C	0.901015	0.898225	0.407795
	C212	C	0.589549	0.092662	0.900972
	C213	C	0.405441	0.089988	0.094557
	C214	C	0.588628	0.900775	0.094311
	C215	C	0.403792	0.898797	0.901257
	Zn216	Zn	0.496767	-0.003997	0.748810
	Zn217	Zn	0.497376	-0.004271	0.248942
	Zn218	Zn	0.747988	0.495181	0.000220
	Zn219	Zn	0.246005	0.495986	0.000337
	Zn220	Zn	-0.001995	0.745791	0.500327
	Zn221	Zn	-0.003715	0.247580	0.500467
	Zn222	Zn	-0.002657	0.495680	0.750154
	Zn223	Zn	-0.002731	0.496795	0.250480
	Zn224	Zn	0.497070	0.746886	-0.001881
	Zn225	Zn	0.496495	0.244230	-0.001458
	Zn226	Zn	0.746971	-0.003810	0.498155
	Zn227	Zn	0.247710	-0.003346	0.498862
	N228	N	0.409050	0.960860	0.679457
	N229	N	0.584407	0.032309	0.678935
	N230	N	0.586169	0.961169	0.316638
	N231	N	0.408894	0.031287	0.317125
	N232	N	0.677765	0.408457	0.963848
	N233	N	0.677245	0.582124	0.035991
	N234	N	0.317455	0.582102	0.963763
	N235	N	0.316593	0.409008	0.036632
	N236	N	0.960699	0.673890	0.415982
	N237	N	0.033990	0.676555	0.587869
	N238	N	0.959794	0.317191	0.586725
	N239	N	0.033632	0.318293	0.414981
	N240	N	0.960835	0.408265	0.681362
	N241	N	0.034262	0.582631	0.680259
	N242	N	0.961841	0.584296	0.319954
	N243	N	0.032515	0.408695	0.319326
	N244	N	0.410446	0.675995	0.963003
	N245	N	0.586246	0.678319	0.033701
	N246	N	0.583597	0.315414	0.963099
	N247	N	0.408670	0.313589	0.035098
	N248	N	0.676134	0.959758	0.412254
	N249	N	0.675312	0.033449	0.583376
	N250	N	0.317682	0.960273	0.585063
	N251	N	0.318648	0.033037	0.412990
	N252	N	0.908166	0.461528	0.182656
	N253	N	0.085485	0.531368	0.181570
	N254	N	0.086183	0.460861	0.818100
	N255	N	0.910733	0.531426	0.820378
	N256	N	0.176756	0.910139	0.462985
	N257	N	0.176637	0.083296	0.534304
	N258	N	0.817370	0.083022	0.462677
	N259	N	0.816968	0.909482	0.534487
	N260	N	0.460809	0.175353	0.911379
	N261	N	0.533375	0.174153	0.084263
	N262	N	0.460412	0.817375	0.084244
	N263	N	0.533334	0.817324	0.912240
	N264	N	0.461839	0.907728	0.179779
	N265	N	0.533361	0.082204	0.178163
	N266	N	0.460817	0.082306	0.818846
	N267	N	0.532215	0.908394	0.817717
	N268	N	0.908165	0.178774	0.464740
	N269	N	0.083067	0.176620	0.535170
	N270	N	0.086275	0.814400	0.464389
	N271	N	0.910333	0.815801	0.535476
	N272	N	0.175057	0.458886	0.915024
	N273	N	0.175419	0.532227	0.086173
	N274	N	0.817829	0.459818	0.087213
	N275	N	0.819123	0.531868	0.914822
	O276	O	0.354709	0.560094	0.551750
	H277	H	0.351078	0.540596	0.559765
	H278	H	0.349276	0.573904	0.537528
	O279	O	0.509987	0.648203	0.530533
	H280	H	0.507379	0.650822	0.530870
	H281	H	0.507317	0.657834	0.528270
	O282	O	0.631455	0.519955	0.336991
	H283	H	0.632569	0.522380	0.325596
	H284	H	0.629687	0.495896	0.351775
	O285	O	0.792191	1.109933	-0.107741
	H286	H	0.781689	1.126892	-0.113188
	H287	H	0.790178	1.101511	-0.117532
	O288	O	0.516346	0.304240	0.614515
	H289	H	0.518622	0.301689	0.618753
	H290	H	0.499587	0.295678	0.622834
	O291	O	0.306009	0.594152	0.306784
	H292	H	0.292752	0.562145	0.304386
	H293	H	0.301441	0.596762	0.304471
	O294	O	1.117614	1.112535	1.167473
	H295	H	1.118048	1.092243	1.180523
	H296	H	1.090952	1.113333	1.180296
	O297	O	0.416829	0.582336	0.618173
	H298	H	0.416945	0.585208	0.603169
	H299	H	0.407194	0.589276	0.615208
	O300	O	0.681656	0.569422	0.431913
	H301	H	0.690123	0.563961	0.421123
	H302	H	0.674930	0.589529	0.433937
	O303	O	0.330111	0.409424	0.444309
	H304	H	0.320182	0.395773	0.458281
	H305	H	0.342336	0.397615	0.451148
	O306	O	0.142571	-0.146243	1.047526
	H307	H	0.140317	-0.151509	1.046189
	H308	H	0.135014	-0.160163	1.038454
	O309	O	0.975853	-0.213915	-0.031895
	H310	H	0.947878	-0.214426	-0.033833
	H311	H	0.963196	-0.218166	-0.040277
	O312	O	0.651381	0.485218	0.699138
	H313	H	0.630139	0.511531	0.701173
	H314	H	0.675126	0.495684	0.711426
	O315	O	0.533726	0.294016	0.301217
	H316	H	0.536588	0.296409	0.302626
	H317	H	0.532696	0.274811	0.296730
	O318	O	-0.032982	0.192466	0.128727
	H319	H	-0.024439	0.180817	0.124969
	H320	H	-0.050671	0.193471	0.116722
	O321	O	0.537876	0.422531	0.568074
	H322	H	0.542058	0.436729	0.575658
	H323	H	0.537800	0.420076	0.569082
	O324	O	1.046263	0.176236	1.098178
	H325	H	1.033468	0.197035	1.090671
	H326	H	1.032146	0.158304	1.098422
	O327	O	0.322730	0.319262	0.514923
	H328	H	0.310382	0.301842	0.534005
	H329	H	0.332041	0.307482	0.539391
	O330	O	-0.127994	1.083892	1.115558
	H331	H	-0.120467	1.089611	1.123415
	H332	H	-0.113663	1.085030	1.119170
	O333	O	0.144970	1.083771	0.136025
	H334	H	0.142425	1.079195	0.127597
	H335	H	0.165858	1.087452	0.139985
	O336	O	1.113469	1.099732	0.035145
	H337	H	1.105580	1.104816	0.037275
	H338	H	1.120497	1.103158	0.021968
	O339	O	-0.047387	0.952807	1.084692
	H340	H	-0.039695	0.947414	1.081954
	H341	H	-0.039822	0.942600	1.078224
	O342	O	0.478272	0.491727	0.302778
	H343	H	0.501609	0.489208	0.301293
	H344	H	0.483792	0.486243	0.305867
	O345	O	-0.055567	-0.036060	0.911965
	H346	H	-0.051683	-0.040919	0.934424
	H347	H	-0.049451	-0.039560	0.912951
	O348	O	0.385254	0.400269	0.386668
	H349	H	0.401088	0.385590	0.396184
	H350	H	0.385088	0.396834	0.377782
	O351	O	0.810573	0.849467	0.081336
	H352	H	0.811609	0.862083	0.085850
	H353	H	0.793124	0.830991	0.088406
	O354	O	0.989993	0.930141	0.888075
	H355	H	0.989062	0.940291	0.880862
	H356	H	0.991693	0.929492	0.887306
	O357	O	-0.546615	0.462016	0.495964
	H358	H	-0.542140	0.450220	0.487287
	H359	H	-0.535594	0.460888	0.502593
	O360	O	0.592022	0.394271	0.601119
	H361	H	0.594816	0.406884	0.602173
	H362	H	0.595901	0.399907	0.617830
	O363	O	0.810788	-0.123620	0.188980
	H364	H	0.820700	-0.124496	0.183294
	H365	H	0.796785	-0.126082	0.199451
	O366	O	-0.446983	-0.536678	1.448537
	H367	H	-0.461201	-0.530146	1.454308
	H368	H	-0.443443	-0.536008	1.466908
	O369	O	0.389632	-0.711100	0.659160
	H370	H	0.375076	-0.728097	0.679436
	H371	H	0.403329	-0.695749	0.664107
	O372	O	0.503498	0.653481	0.702426
	H373	H	0.499073	0.665746	0.704521
	H374	H	0.496812	0.652447	0.692048
	O375	O	0.204252	0.166256	0.981375
	H376	H	0.195962	0.153840	1.007044
	H377	H	0.226560	0.185483	0.986234
	O378	O	0.410625	0.561310	0.613686
	H379	H	0.413362	0.551887	0.591911
	H380	H	0.417533	0.581485	0.604996
	O381	O	-0.183126	0.891534	0.109883
	H382	H	-0.179298	0.887867	0.103294
	H383	H	-0.197605	0.899002	0.109435
	O384	O	0.069232	0.807828	0.132624
	H385	H	0.065801	0.813469	0.147995
	H386	H	0.047627	0.813281	0.133553
	O387	O	0.974090	-0.100323	0.813175
	H388	H	0.987651	-0.093724	0.825610
	H389	H	0.989432	-0.109939	0.798427
	O390	O	1.935885	0.197347	-0.030946
	H391	H	1.946428	0.201453	-0.018902
	H392	H	1.944485	0.203075	-0.017857
	O393	O	0.821240	0.144157	0.813466
	H394	H	0.825968	0.149046	0.822676
	H395	H	0.822962	0.112956	0.813694
	O396	O	1.176107	0.847874	-0.021121
	H397	H	1.186739	0.842549	-0.029597
	H398	H	1.167606	0.857882	-0.008021
	O399	O	-0.127699	0.962806	1.040795
	H400	H	-0.139971	0.962340	1.047131
	H401	H	-0.115950	0.964046	1.035720
	O402	O	0.972215	0.909522	-0.159017
	H403	H	0.970958	0.900117	-0.172120
	H404	H	0.974872	0.898602	-0.159444
	O405	O	0.682792	0.665892	0.682431
	H406	H	0.653062	0.653629	0.678158
	H407	H	0.685670	0.678130	0.643334
	O408	O	0.485816	0.690325	0.293892
	H409	H	0.463257	0.668192	0.288481
	H410	H	0.469271	0.708367	0.269968
	O411	O	1.086340	0.994027	1.212028
	H412	H	1.095731	0.999240	1.223836
	H413	H	1.091021	0.995582	1.216229
	O414	O	0.612061	0.698938	0.491631
	H415	H	0.596701	0.693802	0.492954
	H416	H	0.606081	0.706118	0.472608
	O417	O	-0.014788	1.194156	0.816725
	H418	H	-0.026153	1.186694	0.816809
	H419	H	-0.017146	1.211732	0.815980
	O420	O	0.315084	1.387251	0.689454
	H421	H	0.328925	1.384591	0.696064
	H422	H	0.316355	1.394911	0.697480
	O423	O	0.105031	1.083291	-0.132005
	H424	H	0.089648	1.073400	-0.132787
	H425	H	0.086838	1.083103	-0.115481
	O426	O	0.305918	0.687376	0.403582
	H427	H	0.288291	0.697449	0.425583
	H428	H	0.296991	0.663769	0.379036
	O429	O	0.695764	0.401637	0.318781
	H430	H	0.712183	0.398977	0.330515
	H431	H	0.680416	0.395074	0.329493
	O432	O	0.693026	0.295722	0.417434
	H433	H	0.696001	0.312644	0.450432
	H434	H	0.711816	0.287920	0.411919
	O435	O	0.100014	-0.174965	-0.078464
	H436	H	0.106489	-0.188609	-0.072498
	H437	H	0.115403	-0.163282	-0.080021
	O438	O	0.142851	0.961665	0.793033
	H439	H	0.132228	0.967160	0.793545
	H440	H	0.128259	0.958129	0.776841
	O441	O	0.534862	0.656693	0.492393
	H442	H	0.505461	0.658762	0.479671
	H443	H	0.527729	0.641156	0.489994
