data_Molecule from HDF5

_cell_length_a		16.280325
_cell_length_b		16.252555
_cell_length_c		16.334450
_cell_angle_alpha	89.935942
_cell_angle_beta	89.907736
_cell_angle_gamma	90.113638
_symmetry_space_group_name_H-M	'P 1'
_symmetry_Int_Tables_number		1

loop_
	_symmetry_equiv_pos_as_xyz
	x,y,z

loop_
	_atom_site_label
	_atom_site_type_symbol
	_atom_site_fract_x
	_atom_site_fract_y
	_atom_site_fract_z
	H0	H	0.413891	0.842314	0.718594
	H1	H	0.610253	0.170043	0.716933
	H2	H	0.611471	0.841287	0.289669
	H3	H	0.414631	0.168756	0.289737
	H4	H	0.726151	0.407590	0.840747
	H5	H	0.725705	0.605900	0.167369
	H6	H	0.296490	0.605263	0.840346
	H7	H	0.295701	0.407587	0.167107
	H8	H	0.848302	0.720308	0.406692
	H9	H	0.176214	0.719502	0.600914
	H10	H	0.847889	0.290128	0.602852
	H11	H	0.176564	0.293667	0.406184
	H12	H	0.847791	0.406112	0.719431
	H13	H	0.175541	0.604918	0.718808
	H14	H	0.848478	0.604877	0.290327
	H15	H	0.174905	0.406868	0.288139
	H16	H	0.412563	0.721807	0.840652
	H17	H	0.608876	0.721658	0.167114
	H18	H	0.608098	0.292405	0.840297
	H19	H	0.411028	0.291778	0.167886
	H20	H	0.725932	0.841193	0.406486
	H21	H	0.727274	0.169924	0.601738
	H22	H	0.299006	0.841590	0.601821
	H23	H	0.300202	0.170652	0.406451
	H24	H	0.912933	0.341981	0.218413
	H25	H	0.109918	0.670447	0.217224
	H26	H	0.108780	0.342584	0.790059
	H27	H	0.912176	0.670380	0.789462
	H28	H	0.227419	0.908095	0.340935
	H29	H	0.225587	0.103028	0.667906
	H30	H	0.797285	0.105278	0.340588
	H31	H	0.797213	0.906980	0.667170
	H32	H	0.346370	0.218448	0.908059
	H33	H	0.674885	0.220688	0.101854
	H34	H	0.346591	0.792749	0.101194
	H35	H	0.675280	0.792556	0.906369
	H36	H	0.348486	0.905892	0.220180
	H37	H	0.674936	0.105262	0.218451
	H38	H	0.347798	0.105837	0.788378
	H39	H	0.675031	0.907690	0.789466
	H40	H	0.915331	0.220279	0.340456
	H41	H	0.110384	0.220136	0.668253
	H42	H	0.111180	0.791769	0.341110
	H43	H	0.913904	0.791749	0.668141
	H44	H	0.225844	0.342546	0.904765
	H45	H	0.225640	0.670358	0.101185
	H46	H	0.796594	0.342317	0.102486
	H47	H	0.797421	0.670837	0.906387
	H48	H	0.428151	0.120565	0.599123
	H49	H	0.596433	0.891987	0.596560
	H50	H	0.604477	0.121785	0.411482
	H51	H	0.422750	0.892061	0.415712
	H52	H	0.600142	0.410747	0.118972
	H53	H	0.605942	0.597849	0.887917
	H54	H	0.416799	0.596405	0.119510
	H55	H	0.412450	0.414745	0.886111
	H56	H	0.130212	0.602460	0.407372
	H57	H	0.892912	0.606312	0.596465
	H58	H	0.130735	0.408913	0.602099
	H59	H	0.892889	0.410905	0.404996
	H60	H	0.126368	0.412030	0.591652
	H61	H	0.898317	0.594335	0.591563
	H62	H	0.127740	0.600029	0.413507
	H63	H	0.896133	0.407682	0.417276
	H64	H	0.420267	0.599604	0.119820
	H65	H	0.601874	0.598852	0.889120
	H66	H	0.606933	0.411742	0.121418
	H67	H	0.421275	0.415286	0.890790
	H68	H	0.604747	0.122098	0.410591
	H69	H	0.608959	0.889505	0.590581
	H70	H	0.415472	0.121711	0.588140
	H71	H	0.412299	0.887568	0.412426
	H72	H	0.920576	0.624047	0.103712
	H73	H	0.114569	0.387608	0.092090
	H74	H	0.099359	0.622575	0.908945
	H75	H	0.917412	0.389200	0.908844
	H76	H	0.110617	0.918752	0.619632
	H77	H	0.110333	0.102600	0.386284
	H78	H	0.920109	0.106627	0.621935
	H79	H	0.914845	0.913524	0.387499
	H80	H	0.629112	0.099745	0.905068
	H81	H	0.394759	0.097049	0.099789
	H82	H	0.627282	0.910192	0.093601
	H83	H	0.394589	0.915190	0.907816
	H84	H	0.626298	0.918039	0.096457
	H85	H	0.393820	0.100425	0.098781
	H86	H	0.628676	0.105137	0.912328
	H87	H	0.394516	0.910772	0.910754
	H88	H	0.912036	0.091767	0.620134
	H89	H	0.107248	0.096090	0.389205
	H90	H	0.098273	0.912426	0.617718
	H91	H	0.921671	0.915890	0.389473
	H92	H	0.103968	0.621922	0.916218
	H93	H	0.100312	0.386944	0.108178
	H94	H	0.921845	0.620376	0.092869
	H95	H	0.921059	0.391314	0.912504
	H96	H	0.413286	0.126861	0.603704
	H97	H	0.607502	0.886387	0.604240
	H98	H	0.604331	0.121058	0.410997
	H99	H	0.421561	0.886620	0.404832
	H100	H	0.603262	0.417472	0.118983
	H101	H	0.604600	0.602174	0.887727
	H102	H	0.415684	0.600643	0.120878
	H103	H	0.417991	0.406835	0.886638
	H104	H	0.128194	0.595554	0.408184
	H105	H	0.894666	0.594838	0.604849
	H106	H	0.126025	0.419781	0.600891
	H107	H	0.898595	0.420066	0.412262
	H108	H	0.912386	0.624811	0.096064
	H109	H	0.094729	0.395700	0.089314
	H110	H	0.108284	0.624258	0.908893
	H111	H	0.915354	0.390214	0.914087
	H112	H	0.108440	0.906086	0.623270
	H113	H	0.103219	0.102302	0.388882
	H114	H	0.928022	0.093497	0.614858
	H115	H	0.921300	0.908938	0.387527
	H116	H	0.625669	0.096360	0.913362
	H117	H	0.395825	0.098116	0.095994
	H118	H	0.629292	0.911977	0.101543
	H119	H	0.395387	0.915102	0.913220
	C120	C	0.390566	0.014478	0.625549
	C121	C	0.633793	0.997528	0.625440
	C122	C	0.633519	0.013502	0.382303
	C123	C	0.390814	0.997185	0.382611
	C124	C	0.632320	0.384561	0.011950
	C125	C	0.632311	0.627967	0.996013
	C126	C	0.389036	0.627667	0.012054
	C127	C	0.388595	0.384070	0.995923
	C128	C	0.020603	0.627828	0.382139
	C129	C	1.003766	0.627045	0.625652
	C130	C	0.019519	0.383980	0.626619
	C131	C	1.004085	0.385164	0.382722
	C132	C	0.889241	0.514796	0.126258
	C133	C	0.132633	0.498007	0.125219
	C134	C	0.132175	0.514474	0.882960
	C135	C	0.889347	0.498554	0.882845
	C136	C	0.134460	0.884108	0.512671
	C137	C	0.134561	0.128412	0.495973
	C138	C	0.891045	0.127091	0.511745
	C139	C	0.890516	0.884072	0.496054
	C140	C	0.519132	0.128290	0.882261
	C141	C	0.502786	0.127398	0.126078
	C142	C	0.519564	0.884529	0.125503
	C143	C	0.503113	0.885183	0.882396
	C144	C	0.393200	0.891196	0.680621
	C145	C	0.631575	0.120991	0.679972
	C146	C	0.631504	0.890259	0.327240
	C147	C	0.393648	0.120353	0.327502
	C148	C	0.687839	0.387196	0.889439
	C149	C	0.687540	0.625831	0.118675
	C150	C	0.334292	0.625380	0.889023
	C151	C	0.333378	0.386800	0.118525
	C152	C	0.897155	0.682361	0.385999
	C153	C	0.127159	0.682024	0.622306
	C154	C	0.896726	0.328190	0.623618
	C155	C	0.127261	0.330843	0.385300
	C156	C	0.896805	0.385644	0.681854
	C157	C	0.126680	0.625224	0.680882
	C158	C	0.897343	0.625483	0.327728
	C159	C	0.126593	0.387325	0.326728
	C160	C	0.391834	0.683301	0.889159
	C161	C	0.629191	0.683065	0.118764
	C162	C	0.629134	0.330076	0.889080
	C163	C	0.390985	0.329449	0.118898
	C164	C	0.688422	0.890112	0.385374
	C165	C	0.689029	0.121020	0.622182
	C166	C	0.336232	0.890793	0.622647
	C167	C	0.336730	0.121082	0.385361
	C168	C	0.891988	0.391266	0.181020
	C169	C	0.130812	0.621445	0.179867
	C170	C	0.129722	0.391377	0.827849
	C171	C	0.891646	0.621506	0.827254
	C172	C	0.189059	0.887595	0.389451
	C173	C	0.188554	0.124816	0.619168
	C174	C	0.834964	0.125658	0.389447
	C175	C	0.835098	0.886415	0.618643
	C176	C	0.395674	0.181753	0.885910
	C177	C	0.625938	0.182996	0.122666
	C178	C	0.395732	0.830110	0.122320
	C179	C	0.626336	0.830075	0.885652
	C180	C	0.396861	0.886023	0.181540
	C181	C	0.626081	0.125496	0.180439
	C182	C	0.396519	0.125671	0.826767
	C183	C	0.626301	0.887152	0.827368
	C184	C	0.893996	0.182526	0.389163
	C185	C	0.131135	0.182678	0.619311
	C186	C	0.131774	0.829294	0.389792
	C187	C	0.893247	0.829163	0.619047
	C188	C	0.187469	0.391401	0.885122
	C189	C	0.188257	0.621397	0.122276
	C190	C	0.834564	0.391210	0.123342
	C191	C	0.834916	0.621821	0.885580
	C192	C	0.412444	0.100696	0.603617
	C193	C	0.611041	0.911517	0.603417
	C194	C	0.611040	0.099472	0.404490
	C195	C	0.412464	0.911054	0.404482
	C196	C	0.610143	0.406741	0.097595
	C197	C	0.610641	0.606049	0.910320
	C198	C	0.411184	0.605544	0.097795
	C199	C	0.410613	0.405799	0.910041
	C200	C	0.106492	0.605817	0.403420
	C201	C	0.917491	0.604892	0.603954
	C202	C	0.105553	0.406796	0.604682
	C203	C	0.918013	0.406679	0.404945
	C204	C	0.911795	0.600681	0.104277
	C205	C	0.109778	0.412277	0.103175
	C206	C	0.110197	0.600697	0.904953
	C207	C	0.911413	0.412395	0.905262
	C208	C	0.112384	0.906001	0.598102
	C209	C	0.113248	0.106734	0.410340
	C210	C	0.913373	0.104029	0.596932
	C211	C	0.912734	0.906261	0.410430
	C212	C	0.605477	0.106826	0.903832
	C213	C	0.417058	0.104972	0.104567
	C214	C	0.605345	0.906721	0.103634
	C215	C	0.417134	0.907250	0.903931
	Zn216	Zn	0.512023	0.006584	0.753588
	Zn217	Zn	0.511797	0.005212	0.254233
	Zn218	Zn	0.761235	0.506525	0.004505
	Zn219	Zn	0.260689	0.506164	0.003506
	Zn220	Zn	0.012410	0.755651	0.504141
	Zn221	Zn	0.012852	0.256523	0.504088
	Zn222	Zn	0.011206	0.506419	0.754927
	Zn223	Zn	0.011798	0.506599	0.253662
	Zn224	Zn	0.510395	0.756352	0.003796
	Zn225	Zn	0.510261	0.256099	0.004261
	Zn226	Zn	0.761337	0.005457	0.503937
	Zn227	Zn	0.262879	0.006168	0.504127
	N228	N	0.426678	0.969095	0.682222
	N229	N	0.597991	0.043234	0.682102
	N230	N	0.598198	0.968179	0.325352
	N231	N	0.426633	0.042500	0.325890
	N232	N	0.689776	0.420475	0.967007
	N233	N	0.689329	0.592139	0.041487
	N234	N	0.332559	0.591541	0.966365
	N235	N	0.331953	0.420289	0.041252
	N236	N	0.974720	0.684063	0.419141
	N237	N	0.049675	0.683044	0.588688
	N238	N	0.974208	0.327230	0.589991
	N239	N	0.050106	0.329557	0.419694
	N240	N	0.974086	0.419959	0.683544
	N241	N	0.048800	0.591849	0.683077
	N242	N	0.974822	0.592037	0.325436
	N243	N	0.048790	0.420351	0.324976
	N244	N	0.425271	0.684838	0.966494
	N245	N	0.595727	0.684607	0.041467
	N246	N	0.595603	0.328250	0.966273
	N247	N	0.424576	0.327609	0.041521
	N248	N	0.689961	0.967676	0.418729
	N249	N	0.690467	0.043067	0.589230
	N250	N	0.334746	0.968370	0.589041
	N251	N	0.335070	0.043500	0.419270
	N252	N	0.925404	0.469250	0.183010
	N253	N	0.096945	0.543831	0.181747
	N254	N	0.095993	0.468777	0.826627
	N255	N	0.924623	0.543672	0.825293
	N256	N	0.191065	0.920947	0.466877
	N257	N	0.191005	0.091835	0.541728
	N258	N	0.833147	0.091718	0.466795
	N259	N	0.833208	0.919703	0.541187
	N260	N	0.472963	0.183358	0.919619
	N261	N	0.548346	0.184343	0.089480
	N262	N	0.472860	0.828970	0.088193
	N263	N	0.548618	0.828635	0.919209
	N264	N	0.474696	0.919084	0.183530
	N265	N	0.548713	0.091613	0.182760
	N266	N	0.474629	0.093060	0.824344
	N267	N	0.548962	0.920826	0.825540
	N268	N	0.927749	0.183917	0.466171
	N269	N	0.098321	0.185233	0.541679
	N270	N	0.098520	0.827111	0.467092
	N271	N	0.927213	0.827786	0.541827
	N272	N	0.188835	0.469091	0.918813
	N273	N	0.189373	0.543687	0.088902
	N274	N	0.832574	0.468848	0.090289
	N275	N	0.833493	0.544281	0.919458
	O276	O	0.546206	0.480711	0.453864
	H277	H	0.542871	0.484404	0.453709
	H278	H	0.549455	0.475181	0.450785
	O279	O	-0.057445	0.034329	-0.006334
	H280	H	-0.074115	0.048496	-0.012184
	H281	H	-0.060664	0.021604	-0.009310
	O282	O	0.542732	0.461832	0.500077
	H283	H	0.543316	0.468973	0.494490
	H284	H	0.543267	0.461180	0.503792
	O285	O	0.565025	0.480315	0.486997
	H286	H	0.564084	0.477119	0.492925
	H287	H	0.563300	0.478286	0.490962
	O288	O	1.539694	0.457324	-0.530581
	H289	H	1.530035	0.446737	-0.529169
	H290	H	1.541155	0.451059	-0.535947
	O291	O	-1.022499	0.034514	-0.003190
	H292	H	-1.028101	0.033154	-0.001313
	H293	H	-1.031830	0.033378	-0.004387
	O294	O	0.558393	0.463116	0.485692
	H295	H	0.557326	0.460108	0.474311
	H296	H	0.563572	0.461903	0.491901
	O297	O	-0.021878	1.038122	0.000479
	H298	H	-0.018256	1.044996	0.006313
	H299	H	-0.021490	1.034230	0.005777
	O300	O	0.549702	0.479536	0.511813
	H301	H	0.544066	0.478899	0.509359
	H302	H	0.559544	0.485474	0.517117
	O303	O	0.560575	0.448718	0.481574
	H304	H	0.560238	0.455688	0.476343
	H305	H	0.567174	0.452770	0.488017
	O306	O	-0.092337	1.044878	0.991741
	H307	H	-0.093455	1.047900	0.997652
	H308	H	-0.094371	1.032762	0.980961
	O309	O	-0.062384	0.023011	0.963541
	H310	H	-0.059651	0.024144	0.961220
	H311	H	-0.049999	0.030970	0.962976
