data_Molecule from HDF5

_cell_length_a		16.188201
_cell_length_b		16.309512
_cell_length_c		16.255910
_cell_angle_alpha	89.653635
_cell_angle_beta	89.519684
_cell_angle_gamma	90.271681
_symmetry_space_group_name_H-M	'P 1'
_symmetry_Int_Tables_number		1

loop_
	_symmetry_equiv_pos_as_xyz
	x,y,z

loop_
	_atom_site_label
	_atom_site_type_symbol
	_atom_site_fract_x
	_atom_site_fract_y
	_atom_site_fract_z
	H0	H	0.401391	0.842113	0.716019
	H1	H	0.604301	0.168150	0.710435
	H2	H	0.604198	0.840448	0.281537
	H3	H	0.406291	0.166438	0.281137
	H4	H	0.720460	0.408324	0.833438
	H5	H	0.718968	0.603249	0.161653
	H6	H	0.293291	0.603897	0.832974
	H7	H	0.288010	0.404074	0.160131
	H8	H	0.839751	0.719076	0.397128
	H9	H	0.167947	0.719377	0.593636
	H10	H	0.841089	0.287251	0.599597
	H11	H	0.168690	0.291523	0.396297
	H12	H	0.841677	0.401903	0.714913
	H13	H	0.169460	0.602490	0.706968
	H14	H	0.838846	0.603182	0.283161
	H15	H	0.168064	0.408070	0.281280
	H16	H	0.405815	0.722085	0.834903
	H17	H	0.604999	0.720274	0.160965
	H18	H	0.606768	0.290098	0.833196
	H19	H	0.402241	0.287279	0.159842
	H20	H	0.718780	0.839210	0.400125
	H21	H	0.719527	0.167726	0.593209
	H22	H	0.288071	0.841523	0.598637
	H23	H	0.292396	0.167480	0.398316
	H24	H	0.901931	0.341705	0.214577
	H25	H	0.102391	0.668481	0.209461
	H26	H	0.105391	0.340851	0.780760
	H27	H	0.907601	0.667689	0.780352
	H28	H	0.220069	0.906909	0.333304
	H29	H	0.216863	0.100191	0.662056
	H30	H	0.794188	0.100981	0.332821
	H31	H	0.788335	0.903822	0.661101
	H32	H	0.340271	0.218873	0.898770
	H33	H	0.667974	0.219137	0.094739
	H34	H	0.340248	0.787536	0.099556
	H35	H	0.668822	0.791531	0.897630
	H36	H	0.340178	0.903432	0.214337
	H37	H	0.669307	0.102268	0.208175
	H38	H	0.339842	0.104039	0.784549
	H39	H	0.668116	0.907150	0.781225
	H40	H	0.905810	0.220419	0.334652
	H41	H	0.105889	0.220199	0.660294
	H42	H	0.103817	0.791347	0.332602
	H43	H	0.903611	0.787697	0.660510
	H44	H	0.219404	0.340538	0.898812
	H45	H	0.219317	0.667775	0.093136
	H46	H	0.787417	0.341902	0.098929
	H47	H	0.792442	0.668562	0.898150
	H48	H	0.406569	0.121934	0.589212
	H49	H	0.588675	0.892589	0.581962
	H50	H	0.594386	0.118111	0.403882
	H51	H	0.395912	0.883170	0.408476
	H52	H	0.592902	0.407427	0.114151
	H53	H	0.595338	0.592107	0.884315
	H54	H	0.407942	0.590127	0.113935
	H55	H	0.415783	0.408023	0.879535
	H56	H	0.119510	0.593978	0.402196
	H57	H	0.887592	0.596568	0.586368
	H58	H	0.124306	0.403496	0.586124
	H59	H	0.888068	0.418300	0.402450
	H60	H	0.117831	0.416868	0.580786
	H61	H	0.888081	0.591923	0.589696
	H62	H	0.123389	0.599855	0.397565
	H63	H	0.883208	0.403752	0.402564
	H64	H	0.416952	0.595714	0.112440
	H65	H	0.593378	0.605114	0.880947
	H66	H	0.598670	0.411512	0.114180
	H67	H	0.410438	0.410893	0.878352
	H68	H	0.602475	0.119933	0.405190
	H69	H	0.605902	0.885712	0.588844
	H70	H	0.412938	0.121647	0.595269
	H71	H	0.419824	0.886004	0.391841
	H72	H	0.914418	0.623652	0.098890
	H73	H	0.096459	0.384835	0.100308
	H74	H	0.104483	0.624440	0.894367
	H75	H	0.912476	0.388909	0.905206
	H76	H	0.093288	0.904917	0.614920
	H77	H	0.104340	0.092754	0.381319
	H78	H	0.917855	0.097159	0.612700
	H79	H	0.901798	0.907663	0.375951
	H80	H	0.621709	0.100266	0.905026
	H81	H	0.385652	0.090914	0.097100
	H82	H	0.622813	0.909947	0.090431
	H83	H	0.391412	0.921933	0.909566
	H84	H	0.621106	0.911271	0.087853
	H85	H	0.384451	0.103397	0.091549
	H86	H	0.620853	0.095561	0.904516
	H87	H	0.383103	0.909643	0.897257
	H88	H	0.907340	0.099964	0.617250
	H89	H	0.091683	0.096602	0.383339
	H90	H	0.100011	0.910071	0.614668
	H91	H	0.914190	0.920286	0.383259
	H92	H	0.091005	0.618771	0.899217
	H93	H	0.086344	0.392322	0.085803
	H94	H	0.919365	0.616824	0.084021
	H95	H	0.914136	0.389636	0.907059
	H96	H	0.414216	0.119683	0.586641
	H97	H	0.590219	0.886675	0.600923
	H98	H	0.599615	0.121221	0.397534
	H99	H	0.421302	0.893708	0.419418
	H100	H	0.591870	0.413841	0.111173
	H101	H	0.606172	0.599885	0.878585
	H102	H	0.408345	0.600711	0.116536
	H103	H	0.413931	0.413846	0.880261
	H104	H	0.120380	0.601003	0.405793
	H105	H	0.885572	0.597227	0.592120
	H106	H	0.123372	0.415656	0.595420
	H107	H	0.888965	0.409797	0.414761
	H108	H	0.903658	0.622605	0.086010
	H109	H	0.104305	0.387634	0.083576
	H110	H	0.102789	0.618591	0.908418
	H111	H	0.911964	0.388316	0.907712
	H112	H	0.092480	0.912571	0.611491
	H113	H	0.100066	0.104038	0.378080
	H114	H	0.909582	0.088981	0.613072
	H115	H	0.918665	0.902839	0.379682
	H116	H	0.622488	0.097898	0.899811
	H117	H	0.389711	0.093470	0.083621
	H118	H	0.621046	0.913068	0.090458
	H119	H	0.387230	0.903928	0.915055
	C120	C	0.381630	0.013300	0.620369
	C121	C	0.624878	0.996165	0.618384
	C122	C	0.627293	0.011536	0.374504
	C123	C	0.384059	0.995413	0.376834
	C124	C	0.625177	0.383276	0.005074
	C125	C	0.626993	0.627105	0.989318
	C126	C	0.383502	0.625510	0.006035
	C127	C	0.383082	0.381964	0.987771
	C128	C	0.012156	0.626481	0.374195
	C129	C	0.995720	0.624455	0.616833
	C130	C	0.013755	0.381700	0.618831
	C131	C	0.995373	0.383023	0.375968
	C132	C	0.881590	0.513426	0.119759
	C133	C	0.125041	0.496286	0.117911
	C134	C	0.128060	0.512712	0.872875
	C135	C	0.884460	0.496546	0.876150
	C136	C	0.125514	0.881718	0.505598
	C137	C	0.126868	0.126057	0.488955
	C138	C	0.883523	0.124744	0.506047
	C139	C	0.881947	0.881134	0.488122
	C140	C	0.512983	0.126185	0.875395
	C141	C	0.495408	0.124835	0.118358
	C142	C	0.513067	0.881667	0.119730
	C143	C	0.495749	0.883447	0.876885
	C144	C	0.382289	0.890786	0.677353
	C145	C	0.623804	0.119229	0.672590
	C146	C	0.624289	0.888900	0.319824
	C147	C	0.386085	0.117961	0.320178
	C148	C	0.682173	0.387019	0.882112
	C149	C	0.681977	0.624217	0.112482
	C150	C	0.329982	0.624139	0.882344
	C151	C	0.326188	0.383664	0.111157
	C152	C	0.888737	0.681423	0.376852
	C153	C	0.119387	0.680701	0.613896
	C154	C	0.890456	0.324891	0.619528
	C155	C	0.119239	0.328901	0.376806
	C156	C	0.890612	0.382483	0.676407
	C157	C	0.119967	0.622784	0.670310
	C158	C	0.888234	0.623684	0.320266
	C159	C	0.118992	0.386739	0.319555
	C160	C	0.385926	0.682867	0.883311
	C161	C	0.625101	0.682096	0.112281
	C162	C	0.625524	0.328274	0.882116
	C163	C	0.383073	0.325721	0.110942
	C164	C	0.681277	0.888279	0.378519
	C165	C	0.681543	0.118964	0.614669
	C166	C	0.325824	0.890277	0.618954
	C167	C	0.329388	0.118358	0.378419
	C168	C	0.881921	0.390673	0.176683
	C169	C	0.122593	0.619385	0.171838
	C170	C	0.125517	0.389620	0.818609
	C171	C	0.886810	0.618945	0.818795
	C172	C	0.181809	0.885991	0.382259
	C173	C	0.180383	0.122025	0.612692
	C174	C	0.830642	0.122018	0.382055
	C175	C	0.826502	0.883485	0.611960
	C176	C	0.389363	0.181241	0.878274
	C177	C	0.619108	0.180968	0.115106
	C178	C	0.389397	0.825514	0.119174
	C179	C	0.619494	0.828837	0.877597
	C180	C	0.389437	0.882904	0.176558
	C181	C	0.619828	0.122508	0.171409
	C182	C	0.389150	0.124292	0.821267
	C183	C	0.619228	0.886271	0.819748
	C184	C	0.886200	0.181390	0.383083
	C185	C	0.124951	0.181584	0.611793
	C186	C	0.123996	0.828503	0.381767
	C187	C	0.883429	0.825372	0.611523
	C188	C	0.182485	0.389520	0.877035
	C189	C	0.180609	0.619300	0.113928
	C190	C	0.825054	0.390759	0.118824
	C191	C	0.830045	0.619694	0.877817
	C192	C	0.404487	0.098869	0.597201
	C193	C	0.602003	0.910585	0.596844
	C194	C	0.605434	0.097540	0.395930
	C195	C	0.405963	0.909704	0.399863
	C196	C	0.601426	0.404738	0.090949
	C197	C	0.604842	0.605391	0.903511
	C198	C	0.404813	0.602272	0.092038
	C199	C	0.406343	0.404382	0.901817
	C200	C	0.098825	0.604719	0.395531
	C201	C	0.909529	0.601933	0.595628
	C202	C	0.099627	0.405182	0.594516
	C203	C	0.909102	0.404412	0.399583
	C204	C	0.905489	0.599004	0.096277
	C205	C	0.102260	0.410669	0.096290
	C206	C	0.106061	0.598239	0.894262
	C207	C	0.906452	0.411136	0.899771
	C208	C	0.102130	0.902863	0.591544
	C209	C	0.104989	0.104297	0.403131
	C210	C	0.904999	0.101991	0.591966
	C211	C	0.904900	0.903565	0.401938
	C212	C	0.599206	0.104157	0.896708
	C213	C	0.408911	0.102256	0.097087
	C214	C	0.599350	0.904678	0.096369
	C215	C	0.409535	0.905438	0.900323
	Zn216	Zn	0.503335	0.005358	0.748019
	Zn217	Zn	0.504580	0.003684	0.246593
	Zn218	Zn	0.754503	0.505022	-0.002464
	Zn219	Zn	0.255148	0.504147	-0.003866
	Zn220	Zn	0.003976	0.753200	0.496105
	Zn221	Zn	0.004666	0.254280	0.497519
	Zn222	Zn	0.005244	0.504151	0.745675
	Zn223	Zn	0.003187	0.504705	0.247415
	Zn224	Zn	0.504514	0.754366	-0.001846
	Zn225	Zn	0.504058	0.253367	-0.003327
	Zn226	Zn	0.754898	0.003652	0.496981
	Zn227	Zn	0.254342	0.003703	0.497557
	N228	N	0.416149	0.968333	0.678412
	N229	N	0.589238	0.041989	0.675015
	N230	N	0.591454	0.966712	0.317246
	N231	N	0.419420	0.040692	0.319182
	N232	N	0.682160	0.420370	0.959467
	N233	N	0.683199	0.590629	0.034998
	N234	N	0.328389	0.589082	0.959533
	N235	N	0.325945	0.417941	0.033551
	N236	N	0.966844	0.683296	0.409687
	N237	N	0.041204	0.681897	0.581375
	N238	N	0.967968	0.324529	0.584129
	N239	N	0.041319	0.326507	0.411340
	N240	N	0.968397	0.417000	0.676168
	N241	N	0.042183	0.588248	0.672222
	N242	N	0.966028	0.590143	0.318679
	N243	N	0.040957	0.419629	0.318933
	N244	N	0.418420	0.683737	0.961347
	N245	N	0.591627	0.684126	0.034820
	N246	N	0.590766	0.325767	0.959760
	N247	N	0.417481	0.324381	0.033275
	N248	N	0.683190	0.965602	0.411657
	N249	N	0.682206	0.041489	0.581471
	N250	N	0.325207	0.967419	0.584313
	N251	N	0.327907	0.040991	0.412967
	N252	N	0.916374	0.468031	0.177229
	N253	N	0.088856	0.541832	0.174433
	N254	N	0.092391	0.466958	0.816078
	N255	N	0.920042	0.541457	0.817973
	N256	N	0.182881	0.918408	0.460216
	N257	N	0.181762	0.088115	0.535362
	N258	N	0.828960	0.087497	0.459488
	N259	N	0.825455	0.917286	0.534299
	N260	N	0.467356	0.182658	0.911182
	N261	N	0.540852	0.182418	0.082761
	N262	N	0.467408	0.824423	0.084809
	N263	N	0.541835	0.827165	0.912602
	N264	N	0.467341	0.917054	0.177009
	N265	N	0.541876	0.088403	0.173651
	N266	N	0.466869	0.090663	0.819384
	N267	N	0.541158	0.919315	0.819018
	N268	N	0.918592	0.183078	0.461033
	N269	N	0.092561	0.184324	0.533773
	N270	N	0.089494	0.825884	0.459263
	N271	N	0.917144	0.823673	0.533476
	N272	N	0.184269	0.467115	0.910070
	N273	N	0.182248	0.541801	0.080995
	N274	N	0.824612	0.468107	0.084283
	N275	N	0.828112	0.542511	0.912478
	O276	O	-0.027325	0.057505	-0.099650
	H277	H	-0.030682	0.065300	-0.096824
	H278	H	-0.021761	0.050934	-0.105418
	O279	O	0.546626	0.508648	0.474350
	H280	H	0.545706	0.502429	0.476703
	H281	H	0.537780	0.515069	0.469719
	O282	O	0.488341	0.509064	0.485054
	H283	H	0.491915	0.506161	0.491566
	H284	H	0.481238	0.505404	0.486400
	O285	O	1.033374	0.043645	1.056801
	H286	H	1.026582	0.053319	1.045913
	H287	H	1.036145	0.050561	1.059332
	O288	O	1.074401	-0.012976	0.017353
	H289	H	1.077487	-0.027554	0.017859
	H290	H	1.073659	-0.011050	0.007984
	O291	O	0.511854	0.504516	0.500881
	H292	H	0.512650	0.504723	0.507414
	H293	H	0.519347	0.509121	0.504888
	O294	O	0.995461	-0.033451	1.099053
	H295	H	0.984982	-0.032193	1.090191
	H296	H	0.994296	-0.034811	1.106914
	O297	O	-0.029516	0.019208	-0.009652
	H298	H	-0.035011	0.023957	0.005124
	H299	H	-0.025620	0.010382	-0.013013
	O300	O	0.529042	0.516231	0.486349
	H301	H	0.530924	0.521448	0.479647
	H302	H	0.520297	0.510859	0.485813
	O303	O	0.453914	0.471529	0.552188
	H304	H	0.446404	0.458435	0.554104
	H305	H	0.451227	0.478564	0.565752
	O306	O	1.046262	-0.049645	-0.063775
	H307	H	1.042299	-0.057007	-0.065082
	H308	H	1.051915	-0.056228	-0.068072
	O309	O	-0.025554	0.060389	0.983797
	H310	H	-0.024891	0.064878	0.978693
	H311	H	-0.039793	0.059224	0.982715
	O312	O	1.024968	1.070893	1.005033
	H313	H	1.020914	1.079391	1.004574
	H314	H	1.028865	1.063389	1.014963
	O315	O	0.483073	0.599446	0.541647
	H316	H	0.478614	0.610254	0.535395
	H317	H	0.478701	0.594361	0.536297
	O318	O	0.535170	0.491817	0.433197
	H319	H	0.529856	0.486631	0.436084
	H320	H	0.539662	0.489183	0.431463
	O321	O	-0.012850	1.057265	0.984498
	H322	H	-0.009181	1.053554	0.987952
	H323	H	-0.007931	1.069878	0.977978
	O324	O	0.571105	0.501925	0.503361
	H325	H	0.568816	0.501605	0.496178
	H326	H	0.574549	0.488642	0.510014
	O327	O	0.538416	0.488699	0.452421
	H328	H	0.543802	0.484932	0.445730
	H329	H	0.530117	0.482438	0.448814
	O330	O	0.484835	0.498990	0.457229
	H331	H	0.478718	0.510315	0.458648
	H332	H	0.492019	0.494646	0.457703
	O333	O	0.398368	0.472552	0.522844
	H334	H	0.403897	0.476887	0.522397
	H335	H	0.406944	0.472454	0.536417
	O336	O	0.501706	0.432869	0.511812
	H337	H	0.496188	0.437218	0.515366
	H338	H	0.512407	0.440251	0.493965
	O339	O	1.032711	0.984078	-0.059282
	H340	H	1.027575	0.984823	-0.048141
	H341	H	1.036947	0.990910	-0.063235
	O342	O	0.498007	0.492250	0.546147
	H343	H	0.499691	0.485348	0.552200
	H344	H	0.511552	0.507711	0.553263
	O345	O	0.516367	0.597008	0.503290
	H346	H	0.515030	0.600911	0.484193
	H347	H	0.503313	0.598699	0.502205
	O348	O	-0.021543	-0.061781	-0.010056
	H349	H	-0.014949	-0.062989	-0.001884
	H350	H	-0.032483	-0.062106	-0.008125
	O351	O	0.004112	1.049752	0.998366
	H352	H	0.004871	1.047971	0.994445
	H353	H	0.000992	1.041653	1.005113
	O354	O	0.520090	0.448869	0.568942
	H355	H	0.513093	0.447019	0.567209
	H356	H	0.525080	0.459162	0.581030
	O357	O	0.010856	0.971875	0.955484
	H358	H	0.002769	0.971382	0.952747
	H359	H	0.007938	0.962254	0.957724
