data_Molecule from HDF5

_cell_length_a		16.229724
_cell_length_b		16.412835
_cell_length_c		16.299470
_cell_angle_alpha	89.699829
_cell_angle_beta	90.207977
_cell_angle_gamma	89.943281
_symmetry_space_group_name_H-M	'P 1'
_symmetry_Int_Tables_number		1

loop_
	_symmetry_equiv_pos_as_xyz
	x,y,z

loop_
	_atom_site_label
	_atom_site_type_symbol
	_atom_site_fract_x
	_atom_site_fract_y
	_atom_site_fract_z
	H0	H	0.373125	0.831936	0.719779
	H1	H	0.580269	0.152151	0.716915
	H2	H	0.578379	0.829903	0.283457
	H3	H	0.377229	0.153075	0.281431
	H4	H	0.694283	0.391276	0.836981
	H5	H	0.694997	0.590514	0.160909
	H6	H	0.262217	0.592060	0.834897
	H7	H	0.265509	0.394673	0.162569
	H8	H	0.816832	0.709694	0.392030
	H9	H	0.140531	0.708119	0.599284
	H10	H	0.816885	0.271711	0.601650
	H11	H	0.140872	0.272620	0.397205
	H12	H	0.817266	0.386914	0.716819
	H13	H	0.141914	0.590975	0.713292
	H14	H	0.815603	0.590595	0.281174
	H15	H	0.142931	0.392726	0.284741
	H16	H	0.372512	0.712745	0.837730
	H17	H	0.578260	0.706438	0.161483
	H18	H	0.582440	0.273386	0.838148
	H19	H	0.377834	0.273581	0.160741
	H20	H	0.693212	0.829709	0.399240
	H21	H	0.698136	0.151164	0.601903
	H22	H	0.261241	0.829760	0.599352
	H23	H	0.261163	0.153486	0.398457
	H24	H	0.878096	0.330830	0.216951
	H25	H	0.080813	0.653192	0.215838
	H26	H	0.084328	0.331167	0.779777
	H27	H	0.874823	0.650321	0.775857
	H28	H	0.194656	0.891674	0.335833
	H29	H	0.195965	0.091975	0.659785
	H30	H	0.759753	0.091151	0.336731
	H31	H	0.758160	0.884694	0.659189
	H32	H	0.316868	0.211825	0.896559
	H33	H	0.640874	0.209245	0.104836
	H34	H	0.314706	0.773672	0.101484
	H35	H	0.639344	0.774471	0.898526
	H36	H	0.312574	0.893275	0.213035
	H37	H	0.641098	0.089500	0.216520
	H38	H	0.315288	0.095635	0.781367
	H39	H	0.638851	0.889491	0.782233
	H40	H	0.871870	0.210736	0.337961
	H41	H	0.087054	0.211628	0.657607
	H42	H	0.081342	0.773756	0.335956
	H43	H	0.871792	0.765577	0.656523
	H44	H	0.196612	0.331031	0.898711
	H45	H	0.194376	0.654130	0.097051
	H46	H	0.760713	0.331161	0.101660
	H47	H	0.760335	0.652115	0.894238
	H48	H	0.377583	0.106572	0.582053
	H49	H	0.564693	0.878624	0.589405
	H50	H	0.562583	0.103196	0.410476
	H51	H	0.381390	0.874119	0.402625
	H52	H	0.565013	0.396665	0.114524
	H53	H	0.568996	0.586461	0.882352
	H54	H	0.388214	0.584051	0.113560
	H55	H	0.392366	0.400309	0.884903
	H56	H	0.097377	0.589457	0.404867
	H57	H	0.867752	0.572705	0.580031
	H58	H	0.093584	0.400300	0.588045
	H59	H	0.863876	0.406348	0.404915
	H60	H	0.094467	0.398759	0.588916
	H61	H	0.862206	0.576992	0.593535
	H62	H	0.093398	0.582504	0.411782
	H63	H	0.860095	0.395656	0.402602
	H64	H	0.385494	0.583908	0.115040
	H65	H	0.569228	0.581990	0.882986
	H66	H	0.573659	0.397506	0.116465
	H67	H	0.386974	0.396941	0.881839
	H68	H	0.573418	0.106472	0.410144
	H69	H	0.569506	0.877256	0.589532
	H70	H	0.382380	0.110363	0.600994
	H71	H	0.389021	0.877064	0.404902
	H72	H	0.894667	0.600572	0.078381
	H73	H	0.065190	0.381255	0.084290
	H74	H	0.066074	0.606854	0.898538
	H75	H	0.892739	0.377077	0.904475
	H76	H	0.067903	0.897401	0.613134
	H77	H	0.064981	0.078599	0.384317
	H78	H	0.894036	0.077138	0.610763
	H79	H	0.884890	0.899240	0.382230
	H80	H	0.590049	0.079480	0.914358
	H81	H	0.361414	0.087510	0.090250
	H82	H	0.591446	0.901768	0.089772
	H83	H	0.361546	0.900036	0.910520
	H84	H	0.594293	0.898071	0.096535
	H85	H	0.363853	0.082315	0.086231
	H86	H	0.594550	0.078881	0.903719
	H87	H	0.362599	0.902342	0.911848
	H88	H	0.889550	0.086194	0.614811
	H89	H	0.064191	0.085057	0.382849
	H90	H	0.067764	0.897386	0.613112
	H91	H	0.886184	0.903002	0.384890
	H92	H	0.065045	0.603774	0.910290
	H93	H	0.083099	0.374321	0.089408
	H94	H	0.873104	0.609501	0.086938
	H95	H	0.888431	0.379686	0.913176
	H96	H	0.396916	0.102992	0.588892
	H97	H	0.567044	0.876699	0.593954
	H98	H	0.566751	0.107895	0.401453
	H99	H	0.383568	0.876890	0.410113
	H100	H	0.569938	0.404107	0.112932
	H101	H	0.565049	0.584240	0.884703
	H102	H	0.386441	0.581446	0.113453
	H103	H	0.385968	0.403512	0.883685
	H104	H	0.095713	0.579331	0.401899
	H105	H	0.861975	0.587019	0.582468
	H106	H	0.094311	0.398403	0.586570
	H107	H	0.864331	0.397775	0.413019
	H108	H	0.892941	0.608577	0.101382
	H109	H	0.067896	0.374560	0.102490
	H110	H	0.075352	0.608115	0.906734
	H111	H	0.883642	0.375135	0.906031
	H112	H	0.067862	0.896953	0.612476
	H113	H	0.071307	0.082293	0.382205
	H114	H	0.883672	0.076531	0.613592
	H115	H	0.889175	0.900105	0.383565
	H116	H	0.594856	0.087254	0.909544
	H117	H	0.362274	0.081545	0.092580
	H118	H	0.594383	0.894122	0.089818
	H119	H	0.361573	0.903145	0.909420
	C120	C	0.355261	0.000175	0.620885
	C121	C	0.598671	0.983361	0.621140
	C122	C	0.598098	-0.000614	0.377911
	C123	C	0.354931	0.983111	0.376474
	C124	C	0.600244	0.369810	0.007763
	C125	C	0.598669	0.613076	0.990136
	C126	C	0.356336	0.613605	0.006839
	C127	C	0.357865	0.370331	0.990531
	C128	C	-0.012095	0.613177	0.375296
	C129	C	0.970639	0.610303	0.616841
	C130	C	-0.012390	0.367886	0.619914
	C131	C	0.970078	0.369473	0.376802
	C132	C	0.857023	0.500141	0.119951
	C133	C	0.100935	0.483803	0.120640
	C134	C	0.099958	0.499921	0.876217
	C135	C	0.856685	0.482661	0.876001
	C136	C	0.099100	0.868798	0.505943
	C137	C	0.098816	0.112408	0.489733
	C138	C	0.856716	0.111495	0.506900
	C139	C	0.855282	0.867887	0.489082
	C140	C	0.486364	0.113428	0.878155
	C141	C	0.470044	0.112878	0.120815
	C142	C	0.485576	0.869174	0.121474
	C143	C	0.468498	0.870796	0.879093
	C144	C	0.354765	0.879465	0.679661
	C145	C	0.599568	0.103979	0.678319
	C146	C	0.597581	0.878117	0.321810
	C147	C	0.356514	0.104796	0.319870
	C148	C	0.656365	0.371383	0.885658
	C149	C	0.655983	0.610738	0.112468
	C150	C	0.299997	0.612613	0.883959
	C151	C	0.302725	0.373293	0.113317
	C152	C	0.865457	0.670580	0.373689
	C153	C	0.092243	0.668810	0.617936
	C154	C	0.865771	0.310347	0.620596
	C155	C	0.092379	0.311977	0.377737
	C156	C	0.865760	0.367966	0.677802
	C157	C	0.093000	0.610204	0.674678
	C158	C	0.864730	0.611241	0.318747
	C159	C	0.093405	0.371449	0.321671
	C160	C	0.355132	0.672352	0.885413
	C161	C	0.598269	0.668462	0.112704
	C162	C	0.600713	0.312652	0.886247
	C163	C	0.358069	0.312912	0.112420
	C164	C	0.654963	0.878060	0.379417
	C165	C	0.658289	0.103373	0.621019
	C166	C	0.298783	0.878702	0.619936
	C167	C	0.298979	0.104926	0.378035
	C168	C	0.857930	0.379035	0.178043
	C169	C	0.099914	0.604976	0.176913
	C170	C	0.102087	0.379285	0.818902
	C171	C	0.855889	0.602843	0.815873
	C172	C	0.156546	0.871090	0.384458
	C173	C	0.157535	0.111521	0.611061
	C174	C	0.798193	0.111232	0.385440
	C175	C	0.797357	0.865933	0.610653
	C176	C	0.365108	0.172410	0.877199
	C177	C	0.592438	0.169436	0.122078
	C178	C	0.362952	0.812652	0.120602
	C179	C	0.590642	0.813013	0.878833
	C180	C	0.362117	0.871903	0.176329
	C181	C	0.592510	0.110193	0.178040
	C182	C	0.364187	0.114367	0.820211
	C183	C	0.590396	0.870474	0.821082
	C184	C	0.853960	0.170929	0.386164
	C185	C	0.102662	0.170930	0.610095
	C186	C	0.100022	0.812469	0.384310
	C187	C	0.853932	0.806847	0.609343
	C188	C	0.157844	0.378980	0.878333
	C189	C	0.156574	0.605440	0.117951
	C190	C	0.799571	0.379244	0.120665
	C191	C	0.798871	0.603628	0.874872
	C192	C	0.378593	0.084724	0.597472
	C193	C	0.574327	0.899330	0.597706
	C194	C	0.574353	0.084045	0.400732
	C195	C	0.377961	0.898323	0.399212
	C196	C	0.576628	0.392724	0.092707
	C197	C	0.574790	0.590770	0.905298
	C198	C	0.379884	0.590012	0.091947
	C199	C	0.381579	0.393339	0.905484
	C200	C	0.073203	0.590564	0.399152
	C201	C	0.885908	0.586013	0.592255
	C202	C	0.072345	0.392152	0.595213
	C203	C	0.884775	0.392884	0.400019
	C204	C	0.880182	0.584336	0.095775
	C205	C	0.078449	0.398671	0.098555
	C206	C	0.075807	0.584235	0.898805
	C207	C	0.881158	0.399031	0.900762
	C208	C	0.074915	0.890918	0.590840
	C209	C	0.073963	0.088816	0.404971
	C210	C	0.881992	0.087196	0.591168
	C211	C	0.879637	0.893569	0.405487
	C212	C	0.571167	0.089014	0.902413
	C213	C	0.384519	0.090244	0.096480
	C214	C	0.571205	0.891533	0.098759
	C215	C	0.383955	0.894934	0.903415
	Zn216	Zn	0.476881	-0.007955	0.750179
	Zn217	Zn	0.477008	-0.009023	0.248508
	Zn218	Zn	0.727726	0.491650	-0.001693
	Zn219	Zn	0.229033	0.492520	-0.002001
	Zn220	Zn	-0.021813	0.739948	0.496776
	Zn221	Zn	-0.021846	0.240406	0.498026
	Zn222	Zn	-0.020906	0.490410	0.747235
	Zn223	Zn	-0.020809	0.491526	0.248586
	Zn224	Zn	0.477034	0.741967	-0.000532
	Zn225	Zn	0.479732	0.241507	-0.000407
	Zn226	Zn	0.727310	-0.009506	0.498830
	Zn227	Zn	0.226678	-0.008814	0.498393
	N228	N	0.388963	0.956067	0.680401
	N229	N	0.563182	0.028347	0.678455
	N230	N	0.562873	0.954685	0.320731
	N231	N	0.390212	0.028009	0.318598
	N232	N	0.656433	0.406009	0.962226
	N233	N	0.656752	0.577419	0.035275
	N234	N	0.300820	0.576613	0.960285
	N235	N	0.302248	0.408111	0.036457
	N236	N	0.942942	0.672026	0.408101
	N237	N	0.015163	0.669092	0.582801
	N238	N	0.942722	0.310000	0.585599
	N239	N	0.014622	0.310482	0.411121
	N240	N	0.942771	0.402737	0.677905
	N241	N	0.016330	0.574431	0.673926
	N242	N	0.941870	0.576531	0.319293
	N243	N	0.016500	0.406424	0.321011
	N244	N	0.389319	0.673186	0.962838
	N245	N	0.563312	0.670182	0.035748
	N246	N	0.566377	0.311629	0.963321
	N247	N	0.391764	0.311132	0.035094
	N248	N	0.655273	0.954477	0.413598
	N249	N	0.657936	0.027207	0.586409
	N250	N	0.299065	0.954655	0.583986
	N251	N	0.297851	0.028256	0.412421
	N252	N	0.893041	0.455187	0.177793
	N253	N	0.066284	0.528141	0.178713
	N254	N	0.066826	0.455447	0.817510
	N255	N	0.891021	0.526599	0.816211
	N256	N	0.156223	0.905447	0.461253
	N257	N	0.155196	0.075460	0.535074
	N258	N	0.799772	0.074923	0.461575
	N259	N	0.798096	0.903199	0.535059
	N260	N	0.442016	0.171683	0.912833
	N261	N	0.515071	0.171212	0.087191
	N262	N	0.440811	0.810735	0.087366
	N263	N	0.513958	0.813223	0.914285
	N264	N	0.439285	0.906363	0.177078
	N265	N	0.515465	0.075639	0.177093
	N266	N	0.440641	0.078273	0.820643
	N267	N	0.513377	0.905530	0.820994
	N268	N	0.889745	0.171037	0.462718
	N269	N	0.066530	0.171152	0.533738
	N270	N	0.065119	0.810925	0.460950
	N271	N	0.889472	0.807934	0.532862
	N272	N	0.156912	0.455016	0.913283
	N273	N	0.157358	0.529045	0.083655
	N274	N	0.799029	0.455376	0.085162
	N275	N	0.799277	0.528067	0.911488
	O276	O	-0.078596	-0.156204	0.188750
	H277	H	-0.063672	-0.140706	0.203548
	H278	H	-0.087904	-0.154150	0.192545
	O279	O	0.100553	1.121946	0.014296
	H280	H	0.099467	1.114291	0.018519
	H281	H	0.103018	1.104134	0.016422
	O282	O	0.833709	0.014328	0.156264
	H283	H	0.841089	0.013107	0.152139
	H284	H	0.849909	0.003366	0.155715
	O285	O	-0.110881	1.020223	0.022321
	H286	H	-0.112605	1.026913	0.017557
	H287	H	-0.100825	1.018593	0.020032
	O288	O	0.508085	0.590476	0.603768
	H289	H	0.493551	0.581780	0.605786
	H290	H	0.512455	0.584374	0.612108
	O291	O	0.983843	-0.001034	0.793157
	H292	H	0.976446	0.015026	0.782596
	H293	H	0.980182	0.015026	0.804127
	O294	O	1.491477	0.385854	0.490433
	H295	H	1.487542	0.393097	0.506059
	H296	H	1.506343	0.372900	0.489770
	O297	O	-0.166670	-0.115658	-0.091476
	H298	H	-0.152988	-0.129052	-0.075895
	H299	H	-0.172503	-0.105940	-0.105087
	O300	O	0.994690	0.924223	0.952276
	H301	H	1.000814	0.922062	0.950231
	H302	H	0.981052	0.926223	0.947902
	O303	O	-0.047355	1.203811	0.786241
	H304	H	-0.063898	1.226332	0.760229
	H305	H	-0.065478	1.198047	0.785076
	O306	O	0.576779	0.449001	0.575564
	H307	H	0.571958	0.449423	0.586620
	H308	H	0.574500	0.455260	0.585409
	O309	O	1.089082	-0.064496	0.070627
	H310	H	1.104711	-0.059039	0.075497
	H311	H	1.077145	-0.065576	0.061328
	O312	O	-0.001807	-0.184817	0.922922
	H313	H	0.000275	-0.173413	0.908559
	H314	H	-0.022277	-0.188026	0.920813
	O315	O	0.489896	0.566659	0.565682
	H316	H	0.491277	0.576425	0.573121
	H317	H	0.493453	0.568528	0.557449
	O318	O	0.615168	0.385933	0.495731
	H319	H	0.620748	0.387097	0.501261
	H320	H	0.614853	0.385809	0.492504
	O321	O	0.464025	0.545500	0.369218
	H322	H	0.466836	0.543598	0.366546
	H323	H	0.468060	0.550078	0.362990
	O324	O	0.373567	0.504870	0.571873
	H325	H	0.374773	0.490433	0.577556
	H326	H	0.388490	0.503695	0.571669
	O327	O	-0.137922	1.137643	1.075773
	H328	H	-0.125052	1.119812	1.092700
	H329	H	-0.124104	1.136474	1.072020
	O330	O	0.449350	0.432317	0.567407
	H331	H	0.458118	0.429602	0.564179
	H332	H	0.446963	0.418171	0.566466
	O333	O	0.046234	1.095167	0.927830
	H334	H	0.044153	1.095715	0.926832
	H335	H	0.041721	1.091613	0.919106
	O336	O	1.895445	0.935260	0.185913
	H337	H	1.905036	0.949644	0.180163
	H338	H	1.901063	0.936462	0.185058
	O339	O	0.640526	0.463630	0.546496
	H340	H	0.644376	0.468967	0.542140
	H341	H	0.651976	0.468829	0.546184
	O342	O	0.900659	0.046337	0.013550
	H343	H	0.906338	0.046779	0.011678
	H344	H	0.905385	0.046363	0.008142
	O345	O	0.425838	0.514251	0.432852
	H346	H	0.422737	0.508899	0.435622
	H347	H	0.424472	0.513889	0.427887
	O348	O	0.826125	1.066243	0.967711
	H349	H	0.841582	1.063951	0.980670
	H350	H	0.829544	1.073420	0.990099
	O351	O	1.522600	1.489339	0.475468
	H352	H	1.508564	1.486316	0.464230
	H353	H	1.537088	1.505629	0.481835
	O354	O	0.793554	0.169966	0.819056
	H355	H	0.781210	0.170314	0.855690
	H356	H	0.796164	0.155045	0.824347
	O357	O	0.400338	0.437687	0.397757
	H358	H	0.403525	0.440638	0.388345
	H359	H	0.405774	0.433800	0.403069
	O360	O	0.120009	-0.105195	-0.090596
	H361	H	0.113895	-0.101010	-0.102653
	H362	H	0.127708	-0.099951	-0.097021
	O363	O	0.446844	0.590939	0.451092
	H364	H	0.439644	0.603556	0.455012
	H365	H	0.442007	0.599374	0.446208
	O366	O	0.580420	0.491078	0.599871
	H367	H	0.577955	0.490976	0.595382
	H368	H	0.560545	0.499483	0.606396
	O369	O	0.603568	0.641017	0.533080
	H370	H	0.609580	0.653509	0.538705
	H371	H	0.589734	0.649691	0.551926
	O372	O	0.144282	0.974089	0.948164
	H373	H	0.144502	0.971598	0.930463
	H374	H	0.130973	0.965905	0.957681
	O375	O	1.477216	0.446431	0.508335
	H376	H	1.476199	0.462872	0.502731
	H377	H	1.486770	0.433455	0.499910
	O378	O	0.368870	0.501796	0.462670
	H379	H	0.362572	0.508989	0.468419
	H380	H	0.378367	0.499686	0.458705
	O381	O	1.133743	0.086617	0.119044
	H382	H	1.137310	0.084280	0.105070
	H383	H	1.140330	0.089349	0.123502
	O384	O	0.093289	0.874718	0.102205
	H385	H	0.079626	0.862776	0.087553
	H386	H	0.087579	0.868809	0.111183
	O387	O	0.999951	-0.193180	0.824570
	H388	H	1.004637	-0.201136	0.799563
	H389	H	0.989801	-0.174355	0.833440
	O390	O	0.071908	1.147960	0.011197
	H391	H	0.059763	1.153368	-0.004064
	H392	H	0.072249	1.141729	0.000703
	O393	O	1.388830	1.571731	0.479647
	H394	H	1.390832	1.570998	0.472994
	H395	H	1.394147	1.559659	0.481353
	O396	O	0.578238	0.519177	0.388143
	H397	H	0.572237	0.523349	0.387503
	H398	H	0.577250	0.528696	0.393373
	O399	O	-0.175093	0.817456	1.086359
	H400	H	-0.169157	0.797567	1.087832
	H401	H	-0.173575	0.818019	1.098124
	O402	O	0.919333	0.947825	0.872323
	H403	H	0.925189	0.965359	0.895296
	H404	H	0.923279	0.962546	0.878268
	O405	O	-0.048262	1.109922	0.124135
	H406	H	-0.046267	1.122257	0.128029
	H407	H	-0.024681	1.117249	0.124724
