data_Molecule from HDF5

_cell_length_a		16.235014
_cell_length_b		16.503805
_cell_length_c		16.164319
_cell_angle_alpha	90.252258
_cell_angle_beta	90.011870
_cell_angle_gamma	90.415085
_symmetry_space_group_name_H-M	'P 1'
_symmetry_Int_Tables_number		1

loop_
	_symmetry_equiv_pos_as_xyz
	x,y,z

loop_
	_atom_site_label
	_atom_site_type_symbol
	_atom_site_fract_x
	_atom_site_fract_y
	_atom_site_fract_z
	H0	H	0.386470	0.847107	0.713544
	H1	H	0.592249	0.168459	0.713118
	H2	H	0.590488	0.847179	0.275135
	H3	H	0.390673	0.168380	0.278278
	H4	H	0.707400	0.411174	0.829848
	H5	H	0.710741	0.610135	0.159316
	H6	H	0.280669	0.605784	0.830235
	H7	H	0.277232	0.408340	0.158080
	H8	H	0.828076	0.722755	0.391418
	H9	H	0.151265	0.731807	0.601867
	H10	H	0.829438	0.286594	0.602361
	H11	H	0.151881	0.289030	0.391267
	H12	H	0.828914	0.409326	0.711730
	H13	H	0.157094	0.608767	0.708237
	H14	H	0.827910	0.603308	0.279625
	H15	H	0.154308	0.407210	0.279379
	H16	H	0.392092	0.724682	0.831871
	H17	H	0.601038	0.730549	0.157318
	H18	H	0.596341	0.290029	0.831270
	H19	H	0.389182	0.290297	0.156984
	H20	H	0.705758	0.846280	0.392578
	H21	H	0.712174	0.165396	0.600934
	H22	H	0.270264	0.846624	0.596008
	H23	H	0.271596	0.166632	0.392394
	H24	H	0.892698	0.346282	0.208684
	H25	H	0.095775	0.668098	0.215446
	H26	H	0.092052	0.346776	0.777449
	H27	H	0.895540	0.669926	0.779147
	H28	H	0.203267	0.908309	0.330722
	H29	H	0.205588	0.107310	0.658689
	H30	H	0.776200	0.103787	0.330962
	H31	H	0.775058	0.909165	0.659938
	H32	H	0.329708	0.223980	0.893445
	H33	H	0.654496	0.227401	0.097827
	H34	H	0.331938	0.786559	0.099661
	H35	H	0.655237	0.792449	0.892743
	H36	H	0.326379	0.911333	0.205151
	H37	H	0.654691	0.108657	0.211772
	H38	H	0.326012	0.102643	0.783516
	H39	H	0.654943	0.910872	0.779410
	H40	H	0.886453	0.224361	0.332816
	H41	H	0.093505	0.226245	0.657585
	H42	H	0.090907	0.789393	0.332610
	H43	H	0.886089	0.789107	0.658422
	H44	H	0.206654	0.345997	0.895824
	H45	H	0.213186	0.668930	0.097826
	H46	H	0.773553	0.349201	0.096222
	H47	H	0.776964	0.669683	0.893960
	H48	H	0.402946	0.119916	0.587785
	H49	H	0.573095	0.897799	0.580865
	H50	H	0.578182	0.117571	0.408006
	H51	H	0.390033	0.890519	0.401132
	H52	H	0.585355	0.411443	0.113121
	H53	H	0.590041	0.593728	0.879728
	H54	H	0.395055	0.599443	0.114030
	H55	H	0.399565	0.416620	0.877502
	H56	H	0.104400	0.597637	0.409837
	H57	H	0.877968	0.588736	0.588624
	H58	H	0.106671	0.411642	0.580240
	H59	H	0.876730	0.420381	0.403554
	H60	H	0.105495	0.419714	0.583876
	H61	H	0.872027	0.604531	0.592424
	H62	H	0.107821	0.599275	0.402374
	H63	H	0.871998	0.411580	0.398723
	H64	H	0.407923	0.590831	0.107384
	H65	H	0.575704	0.600048	0.882395
	H66	H	0.586641	0.422292	0.109782
	H67	H	0.404521	0.413532	0.878160
	H68	H	0.588743	0.121672	0.408223
	H69	H	0.589062	0.891961	0.582238
	H70	H	0.396444	0.120686	0.583155
	H71	H	0.400754	0.893044	0.395889
	H72	H	0.908651	0.616356	0.073407
	H73	H	0.088223	0.393224	0.088599
	H74	H	0.094062	0.622336	0.909000
	H75	H	0.899593	0.396011	0.909121
	H76	H	0.076879	0.919620	0.609757
	H77	H	0.076320	0.095978	0.380588
	H78	H	0.905395	0.098595	0.609923
	H79	H	0.892665	0.906050	0.374661
	H80	H	0.609257	0.101703	0.902190
	H81	H	0.381295	0.087722	0.081382
	H82	H	0.608554	0.922111	0.090527
	H83	H	0.373858	0.912291	0.899621
	H84	H	0.610560	0.912140	0.085575
	H85	H	0.370422	0.103431	0.098464
	H86	H	0.608271	0.102477	0.906084
	H87	H	0.375308	0.908484	0.910870
	H88	H	0.899057	0.102472	0.613282
	H89	H	0.078604	0.103832	0.377277
	H90	H	0.077931	0.914516	0.612631
	H91	H	0.894336	0.921109	0.379477
	H92	H	0.090997	0.625764	0.894890
	H93	H	0.082474	0.395000	0.088259
	H94	H	0.888206	0.627712	0.089104
	H95	H	0.895315	0.392006	0.899735
	H96	H	0.395843	0.122718	0.590851
	H97	H	0.578782	0.891161	0.595715
	H98	H	0.582139	0.122781	0.398712
	H99	H	0.399142	0.896150	0.407025
	H100	H	0.576248	0.417075	0.108760
	H101	H	0.586748	0.608279	0.876212
	H102	H	0.410917	0.606642	0.111422
	H103	H	0.400036	0.410735	0.876811
	H104	H	0.107580	0.605051	0.408497
	H105	H	0.878475	0.600767	0.576464
	H106	H	0.109397	0.413168	0.589312
	H107	H	0.875498	0.411403	0.410017
	H108	H	0.913370	0.623064	0.100094
	H109	H	0.085879	0.395559	0.082902
	H110	H	0.079745	0.620460	0.903610
	H111	H	0.906091	0.396249	0.900800
	H112	H	0.082325	0.918552	0.612354
	H113	H	0.084082	0.097615	0.377465
	H114	H	0.898402	0.094418	0.610871
	H115	H	0.906735	0.911791	0.381403
	H116	H	0.606790	0.098624	0.903867
	H117	H	0.376513	0.111775	0.074897
	H118	H	0.605614	0.920245	0.079838
	H119	H	0.378900	0.919438	0.907585
	C120	C	0.367407	0.015098	0.617185
	C121	C	0.611823	0.999096	0.617658
	C122	C	0.612351	0.015288	0.373274
	C123	C	0.367441	0.998886	0.371646
	C124	C	0.613283	0.387476	0.002522
	C125	C	0.615717	0.631163	0.987022
	C126	C	0.374065	0.628367	0.003013
	C127	C	0.371542	0.385410	0.985623
	C128	C	-0.000603	0.628630	0.375273
	C129	C	0.983754	0.629285	0.616261
	C130	C	-0.000200	0.385562	0.616135
	C131	C	0.982247	0.385365	0.373933
	C132	C	0.871932	0.516691	0.116656
	C133	C	0.116406	0.500213	0.117885
	C134	C	0.116117	0.516160	0.872741
	C135	C	0.871827	0.500780	0.873417
	C136	C	0.109457	0.887190	0.503775
	C137	C	0.111086	0.129212	0.486107
	C138	C	0.869266	0.128085	0.503767
	C139	C	0.867830	0.884448	0.486746
	C140	C	0.500128	0.129119	0.874198
	C141	C	0.483652	0.130661	0.116324
	C142	C	0.500510	0.887775	0.115490
	C143	C	0.483328	0.885352	0.874274
	C144	C	0.367342	0.894951	0.674280
	C145	C	0.611699	0.119919	0.675157
	C146	C	0.610670	0.894910	0.314577
	C147	C	0.369983	0.119852	0.315886
	C148	C	0.669828	0.389728	0.879130
	C149	C	0.673064	0.630479	0.109951
	C150	C	0.317995	0.626393	0.879468
	C151	C	0.315258	0.388039	0.108961
	C152	C	0.876835	0.684283	0.373418
	C153	C	0.104197	0.690377	0.618855
	C154	C	0.877825	0.327052	0.619023
	C155	C	0.103846	0.328184	0.372923
	C156	C	0.877587	0.387794	0.673879
	C157	C	0.106980	0.629002	0.671825
	C158	C	0.876743	0.625039	0.317515
	C159	C	0.105004	0.386952	0.317106
	C160	C	0.373331	0.685630	0.880430
	C161	C	0.618335	0.690377	0.108965
	C162	C	0.614260	0.329822	0.879840
	C163	C	0.371118	0.329381	0.108458
	C164	C	0.668256	0.894533	0.372942
	C165	C	0.671254	0.118681	0.618944
	C166	C	0.308909	0.894812	0.616285
	C167	C	0.310655	0.119114	0.372687
	C168	C	0.872875	0.394791	0.171215
	C169	C	0.115932	0.620408	0.176097
	C170	C	0.112676	0.394942	0.816112
	C171	C	0.874432	0.621739	0.817044
	C172	C	0.165543	0.888092	0.379976
	C173	C	0.168046	0.127907	0.609233
	C174	C	0.812911	0.125220	0.380664
	C175	C	0.812831	0.888170	0.610783
	C176	C	0.377447	0.184807	0.874727
	C177	C	0.605795	0.188234	0.117081
	C178	C	0.379213	0.827837	0.117108
	C179	C	0.606321	0.830583	0.873585
	C180	C	0.376340	0.890007	0.169428
	C181	C	0.606061	0.129093	0.173629
	C182	C	0.375954	0.124898	0.819791
	C183	C	0.606151	0.889415	0.817232
	C184	C	0.867975	0.185066	0.381333
	C185	C	0.112093	0.186997	0.608821
	C186	C	0.109569	0.829371	0.380982
	C187	C	0.867690	0.828197	0.609715
	C188	C	0.169866	0.394630	0.874744
	C189	C	0.174065	0.620753	0.117423
	C190	C	0.813573	0.396294	0.115238
	C191	C	0.815457	0.621556	0.874207
	C192	C	0.391347	0.099309	0.593917
	C193	C	0.587379	0.915302	0.593301
	C194	C	0.589580	0.098959	0.397763
	C195	C	0.390064	0.914919	0.394699
	C196	C	0.589680	0.410402	0.088198
	C197	C	0.591229	0.607559	0.901663
	C198	C	0.397694	0.605731	0.088486
	C199	C	0.394759	0.407216	0.899777
	C200	C	0.084501	0.606924	0.399852
	C201	C	0.898263	0.604918	0.592707
	C202	C	0.085071	0.408299	0.591514
	C203	C	0.897004	0.407882	0.397175
	C204	C	0.896267	0.600566	0.094102
	C205	C	0.092504	0.416291	0.093762
	C206	C	0.094678	0.600858	0.895808
	C207	C	0.894026	0.416693	0.896482
	C208	C	0.085967	0.910809	0.589425
	C209	C	0.086716	0.106002	0.400649
	C210	C	0.893928	0.105216	0.589202
	C211	C	0.890949	0.906605	0.400761
	C212	C	0.585879	0.107428	0.897228
	C213	C	0.398061	0.107658	0.092018
	C214	C	0.586060	0.911408	0.092123
	C215	C	0.398015	0.906852	0.898880
	Zn216	Zn	0.489706	0.007350	0.746700
	Zn217	Zn	0.490798	0.007709	0.243431
	Zn218	Zn	0.742057	0.509421	-0.004780
	Zn219	Zn	0.245473	0.508159	-0.005496
	Zn220	Zn	-0.010419	0.757554	0.495734
	Zn221	Zn	-0.010170	0.257288	0.494757
	Zn222	Zn	-0.006202	0.508530	0.743800
	Zn223	Zn	-0.007745	0.507209	0.246783
	Zn224	Zn	0.493468	0.757855	-0.004110
	Zn225	Zn	0.492586	0.258228	-0.005768
	Zn226	Zn	0.740727	0.006493	0.495422
	Zn227	Zn	0.238416	0.006902	0.494096
	N228	N	0.402983	0.970738	0.674881
	N229	N	0.575290	0.044320	0.674438
	N230	N	0.576656	0.970891	0.314415
	N231	N	0.404506	0.044066	0.315171
	N232	N	0.669204	0.425096	0.956324
	N233	N	0.671332	0.594240	0.033224
	N234	N	0.318116	0.591415	0.956554
	N235	N	0.315239	0.422260	0.031599
	N236	N	0.954041	0.686613	0.408646
	N237	N	0.026292	0.690818	0.585218
	N238	N	0.954964	0.325641	0.583914
	N239	N	0.026527	0.327068	0.407549
	N240	N	0.954324	0.423558	0.672111
	N241	N	0.030966	0.591798	0.670501
	N242	N	0.953849	0.591158	0.318446
	N243	N	0.028606	0.421980	0.317717
	N244	N	0.407667	0.686777	0.958189
	N245	N	0.583296	0.690911	0.031512
	N246	N	0.580010	0.328164	0.957620
	N247	N	0.405511	0.327766	0.030841
	N248	N	0.669344	0.970336	0.408748
	N249	N	0.671302	0.042814	0.583770
	N250	N	0.308852	0.970792	0.581438
	N251	N	0.308805	0.042846	0.406536
	N252	N	0.908808	0.470590	0.172171
	N253	N	0.080657	0.544441	0.176517
	N254	N	0.080194	0.471685	0.814506
	N255	N	0.908915	0.545891	0.816615
	N256	N	0.165509	0.923415	0.457258
	N257	N	0.167757	0.092788	0.531929
	N258	N	0.813765	0.090381	0.457786
	N259	N	0.812453	0.921990	0.533291
	N260	N	0.455738	0.187541	0.907699
	N261	N	0.528551	0.189221	0.082402
	N262	N	0.457372	0.826356	0.084516
	N263	N	0.529025	0.828142	0.908223
	N264	N	0.452910	0.926533	0.168518
	N265	N	0.528895	0.094243	0.173438
	N266	N	0.453089	0.091130	0.819403
	N267	N	0.528659	0.922679	0.817334
	N268	N	0.902109	0.187139	0.459074
	N269	N	0.077540	0.187938	0.531165
	N270	N	0.075519	0.828644	0.458814
	N271	N	0.901378	0.826060	0.531575
	N272	N	0.172249	0.471019	0.909039
	N273	N	0.174528	0.544852	0.082124
	N274	N	0.812896	0.472834	0.082023
	N275	N	0.813699	0.545428	0.908521
	O276	O	1.069653	-0.050782	1.011566
	H277	H	1.077282	-0.046479	1.007202
	H278	H	1.065851	-0.056363	1.010690
	O279	O	0.409411	0.383349	0.595148
	H280	H	0.418413	0.383183	0.610697
	H281	H	0.425227	0.392452	0.586012
	O282	O	0.672513	0.538868	0.426365
	H283	H	0.677305	0.545934	0.428317
	H284	H	0.667984	0.527526	0.423611
	O285	O	0.395270	0.626225	0.323737
	H286	H	0.384424	0.621572	0.337291
	H287	H	0.389792	0.615182	0.332884
	O288	O	0.975553	0.072865	-0.024853
	H289	H	0.960886	0.080702	-0.018001
	H290	H	0.987994	0.066404	-0.018673
	O291	O	-0.015763	0.006784	0.960634
	H292	H	-0.013240	-0.006262	0.972115
	H293	H	-0.004310	0.003634	0.959054
	O294	O	0.994728	1.064392	0.104755
	H295	H	1.012817	1.061350	0.101290
	H296	H	0.991769	1.075286	0.104200
	O297	O	1.027108	0.928641	-0.007521
	H298	H	1.031534	0.941907	0.010542
	H299	H	1.027092	0.929801	-0.014838
	O300	O	0.366539	0.614579	0.564598
	H301	H	0.367953	0.606059	0.566707
	H302	H	0.369568	0.613887	0.582113
	O303	O	0.445499	0.408066	0.492689
	H304	H	0.442844	0.409792	0.496586
	H305	H	0.439049	0.425379	0.488931
	O306	O	0.496035	0.431454	0.616467
	H307	H	0.507796	0.421294	0.607736
	H308	H	0.488232	0.435601	0.620236
	O309	O	0.495847	0.634510	0.402903
	H310	H	0.483877	0.626182	0.392701
	H311	H	0.492180	0.628981	0.383999
	O312	O	1.450987	1.388056	0.601941
	H313	H	1.435492	1.374770	0.608100
	H314	H	1.469790	1.403713	0.612987
	O315	O	0.929912	0.938907	0.032731
	H316	H	0.926470	0.928993	0.043225
	H317	H	0.914856	0.933703	0.031298
	O318	O	0.445716	0.547152	0.564518
	H319	H	0.447239	0.538340	0.567728
	H320	H	0.453996	0.543298	0.563674
	O321	O	0.591622	0.565394	0.503159
	H322	H	0.579683	0.570008	0.495596
	H323	H	0.587461	0.556880	0.519321
	O324	O	-0.023808	1.035531	0.929957
	H325	H	-0.022408	1.046536	0.921559
	H326	H	-0.017309	1.039318	0.928776
	O327	O	-0.625499	0.430724	1.538231
	H328	H	-0.615464	0.428051	1.540386
	H329	H	-0.619128	0.425709	1.538638
	O330	O	-0.466818	0.566583	0.635599
	H331	H	-0.469666	0.575217	0.630488
	H332	H	-0.450923	0.562580	0.638616
	O333	O	0.513850	0.614306	0.314283
	H334	H	0.496715	0.617848	0.325387
	H335	H	0.519316	0.640874	0.304231
	O336	O	-0.017118	0.012506	0.065549
	H337	H	-0.012725	0.008318	0.061807
	H338	H	-0.018932	0.006046	0.069381
	O339	O	0.434266	0.389813	-0.457777
	H340	H	0.431289	0.383900	-0.455734
	H341	H	0.436880	0.392802	-0.462703
	O342	O	0.459918	0.506144	0.443342
	H343	H	0.459771	0.518675	0.443750
	H344	H	0.471798	0.490766	0.437119
	O345	O	0.533471	0.483707	0.614745
	H346	H	0.529131	0.482007	0.622752
	H347	H	0.539437	0.482574	0.599070
	O348	O	0.693860	0.624920	0.560613
	H349	H	0.695653	0.625632	0.574664
	H350	H	0.705386	0.634555	0.550420
	O351	O	0.574017	0.314793	0.354632
	H352	H	0.560740	0.315707	0.358339
	H353	H	0.566343	0.313448	0.364968
	O354	O	0.030087	0.986947	-0.108112
	H355	H	0.041434	0.997912	-0.111380
	H356	H	0.023649	0.984053	-0.109814
	O357	O	-0.129863	0.101410	0.930426
	H358	H	-0.134992	0.097341	0.937571
	H359	H	-0.132754	0.114252	0.939474
	O360	O	0.926760	-0.005346	1.052231
	H361	H	0.917549	-0.000714	1.061712
	H362	H	0.930080	-0.005048	1.045111
	O363	O	0.401270	0.635987	0.546969
	H364	H	0.403035	0.636582	0.556126
	H365	H	0.404260	0.634410	0.543066
	O366	O	0.467250	0.464833	0.408567
	H367	H	0.449826	0.469114	0.421767
	H368	H	0.456838	0.472990	0.398371
	O369	O	0.993862	0.052313	-0.010809
	H370	H	0.977225	0.053276	-0.009536
	H371	H	0.993549	0.054459	-0.010724
	O372	O	0.428107	0.567259	0.521970
	H373	H	0.432463	0.586209	0.511902
	H374	H	0.427950	0.561682	0.534920
	O375	O	0.999741	0.056640	1.096106
	H376	H	0.992933	0.064009	1.092381
	H377	H	0.995251	0.047947	1.095995
	O378	O	0.601878	0.510210	0.376334
	H379	H	0.604789	0.512694	0.372588
	H380	H	0.593535	0.513592	0.369911
	O381	O	0.567416	0.325693	0.427606
	H382	H	0.562221	0.317914	0.434726
	H383	H	0.579132	0.321276	0.417376
	O384	O	0.960168	1.035098	0.943698
	H385	H	0.959830	1.045503	0.953925
	H386	H	0.959052	1.035132	0.941637
	O387	O	0.965019	-0.074424	0.942374
	H388	H	0.960479	-0.077964	0.948880
	H389	H	0.973321	-0.073374	0.930768
	O390	O	0.959691	0.940064	0.029675
	H391	H	0.954182	0.940365	0.024443
	H392	H	0.966302	0.938200	0.017720
	O393	O	0.432354	0.545130	0.463536
	H394	H	0.447865	0.538344	0.466052
	H395	H	0.428384	0.527328	0.473046
