data_Molecule from HDF5

_cell_length_a		16.290919
_cell_length_b		16.402039
_cell_length_c		16.311833
_cell_angle_alpha	89.884449
_cell_angle_beta	90.054761
_cell_angle_gamma	89.937147
_symmetry_space_group_name_H-M	'P 1'
_symmetry_Int_Tables_number		1

loop_
	_symmetry_equiv_pos_as_xyz
	x,y,z

loop_
	_atom_site_label
	_atom_site_type_symbol
	_atom_site_fract_x
	_atom_site_fract_y
	_atom_site_fract_z
	H0	H	0.396772	0.828995	0.722390
	H1	H	0.600781	0.150508	0.721781
	H2	H	0.601725	0.829002	0.285987
	H3	H	0.396029	0.149928	0.283517
	H4	H	0.716808	0.388571	0.842001
	H5	H	0.714310	0.585917	0.167366
	H6	H	0.280409	0.591488	0.843673
	H7	H	0.282911	0.385190	0.166607
	H8	H	0.837498	0.709845	0.400019
	H9	H	0.159464	0.710972	0.608655
	H10	H	0.838822	0.271270	0.607256
	H11	H	0.160122	0.271356	0.399580
	H12	H	0.837497	0.390160	0.721499
	H13	H	0.160553	0.594327	0.722884
	H14	H	0.837463	0.591309	0.286542
	H15	H	0.161846	0.389680	0.288012
	H16	H	0.395747	0.708361	0.843330
	H17	H	0.603553	0.706246	0.165320
	H18	H	0.602618	0.272606	0.842239
	H19	H	0.396470	0.268080	0.163672
	H20	H	0.717328	0.828838	0.403360
	H21	H	0.718143	0.149786	0.606807
	H22	H	0.280573	0.829501	0.605940
	H23	H	0.282147	0.151325	0.400894
	H24	H	0.899087	0.328965	0.223099
	H25	H	0.102052	0.651161	0.222633
	H26	H	0.104929	0.330915	0.783561
	H27	H	0.897024	0.651916	0.787956
	H28	H	0.216024	0.889435	0.341109
	H29	H	0.219256	0.094285	0.663833
	H30	H	0.779249	0.094278	0.342619
	H31	H	0.782009	0.888037	0.664564
	H32	H	0.339761	0.210228	0.897922
	H33	H	0.661087	0.208161	0.107553
	H34	H	0.339340	0.769067	0.107296
	H35	H	0.661826	0.771085	0.901489
	H36	H	0.338005	0.886308	0.222067
	H37	H	0.661246	0.091365	0.222318
	H38	H	0.338657	0.092076	0.785478
	H39	H	0.661784	0.888224	0.786470
	H40	H	0.894932	0.209887	0.342040
	H41	H	0.103065	0.208734	0.663967
	H42	H	0.102443	0.771104	0.343245
	H43	H	0.892718	0.770736	0.663116
	H44	H	0.218662	0.329410	0.902290
	H45	H	0.220193	0.649083	0.109588
	H46	H	0.784164	0.327390	0.106008
	H47	H	0.780014	0.650513	0.902749
	H48	H	0.415833	0.103567	0.601351
	H49	H	0.592591	0.873791	0.598363
	H50	H	0.582678	0.100049	0.418836
	H51	H	0.407866	0.875260	0.413521
	H52	H	0.595183	0.395393	0.120154
	H53	H	0.586035	0.586175	0.888572
	H54	H	0.410250	0.585164	0.121555
	H55	H	0.414894	0.394732	0.890418
	H56	H	0.112309	0.580324	0.419148
	H57	H	0.886158	0.584989	0.585408
	H58	H	0.114825	0.394739	0.591128
	H59	H	0.882874	0.394908	0.415283
	H60	H	0.111800	0.404815	0.589199
	H61	H	0.885731	0.573108	0.598433
	H62	H	0.114160	0.578118	0.411539
	H63	H	0.886208	0.403804	0.416359
	H64	H	0.407232	0.575463	0.118971
	H65	H	0.597609	0.582469	0.885674
	H66	H	0.590775	0.400151	0.118030
	H67	H	0.403417	0.398815	0.887722
	H68	H	0.597195	0.106009	0.416036
	H69	H	0.586377	0.876365	0.595815
	H70	H	0.411122	0.100666	0.585948
	H71	H	0.407828	0.876014	0.412315
	H72	H	0.909124	0.603928	0.095834
	H73	H	0.094204	0.372127	0.103609
	H74	H	0.080716	0.596967	0.925121
	H75	H	0.917548	0.377854	0.911663
	H76	H	0.089668	0.901511	0.618244
	H77	H	0.097629	0.080722	0.385830
	H78	H	0.909255	0.082026	0.619109
	H79	H	0.910433	0.896227	0.386589
	H80	H	0.616295	0.081403	0.910866
	H81	H	0.388356	0.074110	0.088352
	H82	H	0.613747	0.897224	0.089226
	H83	H	0.386387	0.903276	0.914439
	H84	H	0.613492	0.902928	0.097060
	H85	H	0.384401	0.078703	0.098357
	H86	H	0.615284	0.081972	0.914686
	H87	H	0.383237	0.896349	0.907807
	H88	H	0.909287	0.080279	0.617988
	H89	H	0.084831	0.075471	0.392273
	H90	H	0.088308	0.901139	0.618012
	H91	H	0.904759	0.903072	0.388003
	H92	H	0.101310	0.605985	0.919536
	H93	H	0.082759	0.378794	0.097852
	H94	H	0.906539	0.604193	0.093596
	H95	H	0.903460	0.375801	0.919622
	H96	H	0.400234	0.108449	0.596534
	H97	H	0.592158	0.876314	0.591407
	H98	H	0.586789	0.105731	0.403442
	H99	H	0.408684	0.875839	0.413029
	H100	H	0.588457	0.393957	0.119773
	H101	H	0.589286	0.574954	0.891457
	H102	H	0.416382	0.578189	0.116098
	H103	H	0.411963	0.406638	0.893072
	H104	H	0.115198	0.586121	0.413912
	H105	H	0.880234	0.589130	0.600756
	H106	H	0.114981	0.402646	0.598894
	H107	H	0.882548	0.401086	0.407956
	H108	H	0.905518	0.605353	0.096967
	H109	H	0.094874	0.376650	0.089469
	H110	H	0.083773	0.605713	0.903597
	H111	H	0.904631	0.371879	0.904507
	H112	H	0.089095	0.899948	0.617680
	H113	H	0.086014	0.089206	0.386726
	H114	H	0.910748	0.081395	0.616872
	H115	H	0.912731	0.903382	0.391012
	H116	H	0.614588	0.078724	0.913177
	H117	H	0.384684	0.085421	0.089166
	H118	H	0.616659	0.893940	0.097812
	H119	H	0.385230	0.894445	0.917625
	C120	C	0.377821	-0.001807	0.625340
	C121	C	0.620911	0.981068	0.625923
	C122	C	0.620360	-0.001937	0.382593
	C123	C	0.377410	0.981619	0.381699
	C124	C	0.621998	0.366668	0.012598
	C125	C	0.620801	0.610072	0.995595
	C126	C	0.378770	0.610813	0.012881
	C127	C	0.378748	0.367859	0.996291
	C128	C	0.007159	0.611983	0.383377
	C129	C	0.990515	0.613517	0.626045
	C130	C	0.007504	0.369565	0.624763
	C131	C	0.990642	0.368797	0.382486
	C132	C	0.878075	0.497999	0.125909
	C133	C	0.122170	0.481272	0.127799
	C134	C	0.120766	0.497769	0.883938
	C135	C	0.877844	0.481749	0.882322
	C136	C	0.120505	0.869719	0.511890
	C137	C	0.120930	0.112286	0.494503
	C138	C	0.877605	0.112590	0.511614
	C139	C	0.878130	0.869711	0.494775
	C140	C	0.508604	0.111349	0.881810
	C141	C	0.492146	0.110279	0.123931
	C142	C	0.508310	0.867251	0.125462
	C143	C	0.491917	0.867988	0.882665
	C144	C	0.377480	0.877480	0.683443
	C145	C	0.620844	0.102154	0.683333
	C146	C	0.621318	0.877273	0.324663
	C147	C	0.377336	0.102221	0.322948
	C148	C	0.678517	0.368522	0.890546
	C149	C	0.676598	0.607261	0.118487
	C150	C	0.319458	0.611122	0.891929
	C151	C	0.321345	0.366450	0.117559
	C152	C	0.885865	0.670350	0.381711
	C153	C	0.111318	0.671979	0.627344
	C154	C	0.886380	0.311418	0.625624
	C155	C	0.112140	0.310824	0.381661
	C156	C	0.885888	0.370312	0.682542
	C157	C	0.111755	0.613867	0.684414
	C158	C	0.885683	0.611483	0.325096
	C159	C	0.112884	0.369576	0.325736
	C160	C	0.376881	0.669301	0.891730
	C161	C	0.621481	0.666993	0.117397
	C162	C	0.621813	0.310673	0.890633
	C163	C	0.377774	0.308024	0.116216
	C164	C	0.678444	0.877088	0.383425
	C165	C	0.678957	0.101894	0.626167
	C166	C	0.319645	0.877551	0.625385
	C167	C	0.320381	0.102935	0.381325
	C168	C	0.879351	0.376789	0.183699
	C169	C	0.121941	0.602498	0.184830
	C170	C	0.122820	0.378168	0.824004
	C171	C	0.877498	0.603150	0.825636
	C172	C	0.177759	0.869764	0.390148
	C173	C	0.179804	0.112979	0.615692
	C174	C	0.818464	0.113366	0.390800
	C175	C	0.820177	0.868980	0.616016
	C176	C	0.387834	0.170557	0.879961
	C177	C	0.612729	0.169109	0.126039
	C178	C	0.387300	0.808604	0.126140
	C179	C	0.613383	0.810028	0.882116
	C180	C	0.386556	0.867076	0.182975
	C181	C	0.612874	0.110850	0.183315
	C182	C	0.387215	0.111674	0.823997
	C183	C	0.613544	0.868514	0.824978
	C184	C	0.876533	0.170722	0.390448
	C185	C	0.122058	0.170242	0.615703
	C186	C	0.121204	0.810849	0.391139
	C187	C	0.875685	0.810400	0.615300
	C188	C	0.179537	0.377397	0.883159
	C189	C	0.180746	0.601629	0.128582
	C190	C	0.822192	0.376090	0.125439
	C191	C	0.819486	0.602477	0.883170
	C192	C	0.401893	0.082380	0.601462
	C193	C	0.597329	0.897303	0.602111
	C194	C	0.595998	0.082231	0.405934
	C195	C	0.401083	0.897514	0.406036
	C196	C	0.598338	0.389714	0.097326
	C197	C	0.597799	0.587722	0.910678
	C198	C	0.404017	0.586604	0.096949
	C199	C	0.402999	0.392896	0.912262
	C200	C	0.091875	0.588379	0.407825
	C201	C	0.906003	0.589353	0.601830
	C202	C	0.091925	0.393762	0.600257
	C203	C	0.905798	0.392792	0.406382
	C204	C	0.900787	0.582239	0.102358
	C205	C	0.097766	0.397611	0.103867
	C206	C	0.095857	0.581224	0.908884
	C207	C	0.901669	0.397177	0.905376
	C208	C	0.096163	0.893931	0.596069
	C209	C	0.096423	0.088642	0.410301
	C210	C	0.902487	0.088372	0.596024
	C211	C	0.902230	0.893922	0.410351
	C212	C	0.593305	0.087588	0.905950
	C213	C	0.407630	0.086202	0.099106
	C214	C	0.592781	0.891101	0.101551
	C215	C	0.407088	0.891235	0.906440
	Zn216	Zn	0.499663	-0.010291	0.754267
	Zn217	Zn	0.499122	-0.010842	0.253140
	Zn218	Zn	0.749091	0.488860	0.004566
	Zn219	Zn	0.250135	0.489354	0.005781
	Zn220	Zn	-0.001510	0.741193	0.503985
	Zn221	Zn	-0.000429	0.240800	0.503088
	Zn222	Zn	-0.000164	0.491200	0.753718
	Zn223	Zn	-0.000362	0.490692	0.255067
	Zn224	Zn	0.500788	0.739135	0.003946
	Zn225	Zn	0.500105	0.239643	0.002796
	Zn226	Zn	0.749922	-0.010031	0.504024
	Zn227	Zn	0.248969	-0.009093	0.503299
	N228	N	0.412702	0.953603	0.683662
	N229	N	0.585700	0.026067	0.683449
	N230	N	0.585932	0.953386	0.324132
	N231	N	0.411942	0.025728	0.322881
	N232	N	0.678958	0.402471	0.967559
	N233	N	0.676568	0.572702	0.041820
	N234	N	0.320581	0.575545	0.968236
	N235	N	0.321597	0.403011	0.041772
	N236	N	0.962475	0.670716	0.417159
	N237	N	0.034709	0.671941	0.591881
	N238	N	0.962887	0.310952	0.590460
	N239	N	0.034965	0.310276	0.416051
	N240	N	0.962491	0.405668	0.682282
	N241	N	0.035573	0.578178	0.683552
	N242	N	0.962221	0.576029	0.325932
	N243	N	0.036477	0.405043	0.326156
	N244	N	0.412853	0.669475	0.968082
	N245	N	0.587390	0.668652	0.040289
	N246	N	0.587569	0.309262	0.967623
	N247	N	0.412718	0.308691	0.039714
	N248	N	0.678266	0.953345	0.418514
	N249	N	0.679271	0.025799	0.591188
	N250	N	0.319701	0.953815	0.590020
	N251	N	0.320434	0.027055	0.417335
	N252	N	0.913385	0.453433	0.184181
	N253	N	0.086194	0.526602	0.184374
	N254	N	0.087052	0.454089	0.824188
	N255	N	0.913026	0.527102	0.824954
	N256	N	0.177482	0.905556	0.466379
	N257	N	0.179148	0.077685	0.539476
	N258	N	0.819179	0.077945	0.467205
	N259	N	0.821780	0.905488	0.540118
	N260	N	0.464576	0.170387	0.915311
	N261	N	0.536508	0.168870	0.089793
	N262	N	0.464048	0.808625	0.091135
	N263	N	0.536753	0.809417	0.917078
	N264	N	0.462814	0.902716	0.182865
	N265	N	0.536755	0.075141	0.182076
	N266	N	0.463278	0.075624	0.825006
	N267	N	0.536894	0.903688	0.825178
	N268	N	0.912649	0.170511	0.466766
	N269	N	0.086049	0.170144	0.539443
	N270	N	0.086262	0.810745	0.467711
	N271	N	0.911332	0.810866	0.538935
	N272	N	0.178469	0.452836	0.919747
	N273	N	0.181163	0.525362	0.093859
	N274	N	0.821095	0.452373	0.090128
	N275	N	0.819420	0.525957	0.917633
	O276	O	0.552306	0.394695	0.417479
	H277	H	0.557198	0.395946	0.413595
	H278	H	0.563592	0.384210	0.414723
	O279	O	0.418082	0.578733	0.524195
	H280	H	0.411842	0.573509	0.524434
	H281	H	0.419587	0.561682	0.517806
	O282	O	0.951320	0.060427	1.125754
	H283	H	0.946879	0.058930	1.133258
	H284	H	0.963213	0.056779	1.120579
	O285	O	0.404200	0.391213	0.620974
	H286	H	0.394747	0.397893	0.621202
	H287	H	0.406196	0.391178	0.636123
	O288	O	0.822757	1.129759	0.839975
	H289	H	0.816280	1.135578	0.868120
	H290	H	0.833858	1.129381	0.840550
	O291	O	0.040850	0.839915	-0.143355
	H292	H	0.038642	0.831671	-0.140957
	H293	H	0.040889	0.838805	-0.161909
	O294	O	0.542439	0.605744	0.544470
	H295	H	0.548773	0.603594	0.549909
	H296	H	0.543450	0.603079	0.562608
	O297	O	0.380438	0.599505	0.505087
	H298	H	0.394615	0.603344	0.492966
	H299	H	0.364721	0.611889	0.503663
	O300	O	0.516227	0.400820	0.343514
	H301	H	0.513254	0.398343	0.350884
	H302	H	0.510344	0.409732	0.328139
	O303	O	0.578454	0.493984	0.412931
	H304	H	0.564134	0.499595	0.413218
	H305	H	0.579136	0.495948	0.404165
	O306	O	0.629352	0.433404	0.507905
	H307	H	0.622239	0.442272	0.502963
	H308	H	0.637173	0.417233	0.508266
	O309	O	0.568044	0.629187	0.608331
	H310	H	0.574030	0.642233	0.618168
	H311	H	0.551377	0.626241	0.618374
	O312	O	0.133982	0.185418	0.032216
	H313	H	0.128526	0.185370	0.017356
	H314	H	0.139897	0.194452	0.039120
	O315	O	0.441156	0.332004	0.579017
	H316	H	0.453346	0.328812	0.568179
	H317	H	0.437069	0.321413	0.588614
	O318	O	-0.044285	1.143817	0.894725
	H319	H	-0.064841	1.150612	0.905290
	H320	H	-0.050993	1.129328	0.904593
	O321	O	0.550101	0.471779	0.634313
	H322	H	0.537295	0.464138	0.637602
	H323	H	0.544051	0.466488	0.642629
	O324	O	-0.143256	0.825850	0.119466
	H325	H	-0.143087	0.827446	0.128900
	H326	H	-0.142315	0.831068	0.128336
	O327	O	0.361335	0.637601	0.386176
	H328	H	0.365530	0.635001	0.386299
	H329	H	0.361605	0.632769	0.383837
	O330	O	0.049451	-0.012999	1.121340
	H331	H	0.051511	-0.006738	1.131377
	H332	H	0.050759	-0.009502	1.113810
	O333	O	0.020278	0.120437	0.834118
	H334	H	0.002635	0.120355	0.838726
	H335	H	0.007246	0.126205	0.833405
	O336	O	0.409553	0.575844	0.378536
	H337	H	0.422933	0.584223	0.384653
	H338	H	0.409297	0.586465	0.373471
	O339	O	1.130723	-0.062730	0.023328
	H340	H	1.121276	-0.063801	0.025688
	H341	H	1.137335	-0.071273	0.009144
	O342	O	0.053806	-0.034536	0.181425
	H343	H	0.062479	-0.035802	0.181695
	H344	H	0.063883	-0.029492	0.196711
	O345	O	0.857206	0.058625	1.065670
	H346	H	0.872882	0.055895	1.055591
	H347	H	0.853189	0.051917	1.072307
	O348	O	0.911548	0.944471	-0.072260
	H349	H	0.929303	0.957953	-0.063231
	H350	H	0.905458	0.952304	-0.080207
	O351	O	0.320131	0.517978	0.590619
	H352	H	0.328350	0.514656	0.568689
	H353	H	0.311605	0.509274	0.596626
	O354	O	0.979331	0.192061	0.994897
	H355	H	0.970425	0.211849	0.994477
	H356	H	0.973811	0.183872	1.000043
	O357	O	0.322571	0.377593	0.499379
	H358	H	0.305711	0.369319	0.494449
	H359	H	0.322556	0.388096	0.509712
	O360	O	0.465923	0.628038	0.421043
	H361	H	0.462769	0.638341	0.417807
	H362	H	0.490060	0.635567	0.422770
	O363	O	0.065118	0.794158	0.895416
	H364	H	0.066931	0.796085	0.878793
	H365	H	0.062864	0.788536	0.882948
	O366	O	0.584209	0.532110	0.422642
	H367	H	0.590865	0.521347	0.426527
	H368	H	0.581774	0.529641	0.446497
	O369	O	0.060519	0.798761	0.089375
	H370	H	0.058150	0.794051	0.100529
	H371	H	0.065246	0.793017	0.075767
	O372	O	0.523569	0.553275	0.490242
	H373	H	0.511916	0.570061	0.496566
	H374	H	0.519850	0.544365	0.491303
	O375	O	0.618374	0.547493	0.644197
	H376	H	0.614355	0.551439	0.656366
	H377	H	0.618018	0.543497	0.642643
	O378	O	0.905670	0.928477	0.089814
	H379	H	0.896116	0.929314	0.083261
	H380	H	0.915536	0.927221	0.106435
	O381	O	0.960494	0.071103	0.170423
	H382	H	0.970439	0.071627	0.165041
	H383	H	0.958533	0.061493	0.165320
	O384	O	1.100838	0.991036	-0.186056
	H385	H	1.100552	0.989730	-0.189739
	H386	H	1.092178	1.010680	-0.185167
	O387	O	0.099031	0.022641	0.042497
	H388	H	0.111156	0.014689	0.051793
	H389	H	0.088922	0.021563	0.048201
	O390	O	0.125541	0.993498	0.008386
	H391	H	0.131742	0.985367	-0.000830
	H392	H	0.118998	0.994938	-0.004623
	O393	O	1.140962	0.903904	0.851779
	H394	H	1.137915	0.906929	0.841062
	H395	H	1.146559	0.909954	0.848489
	O396	O	0.609743	0.432587	0.580484
	H397	H	0.627116	0.443611	0.568732
	H398	H	0.619448	0.415478	0.572749
	O399	O	0.083082	1.150487	1.030420
	H400	H	0.082231	1.160590	1.030375
	H401	H	0.075907	1.153583	1.033781
	O402	O	0.463821	0.421612	0.542423
	H403	H	0.459966	0.409177	0.536497
	H404	H	0.465059	0.424103	0.548253
	O405	O	0.812076	0.832565	0.067284
	H406	H	0.821089	0.833678	0.081299
	H407	H	0.810044	0.817168	0.070936
	O408	O	1.031207	0.831241	0.017763
	H409	H	1.030264	0.829671	0.035836
	H410	H	1.040056	0.817723	0.015593
	O411	O	0.809201	0.021298	0.821847
	H412	H	0.798445	0.025662	0.808783
	H413	H	0.803437	0.036853	0.826065
	O414	O	0.587900	0.413474	0.523760
	H415	H	0.576973	0.421131	0.529711
	H416	H	0.579776	0.408565	0.526852
	O417	O	0.426170	0.365973	0.425795
	H418	H	0.423080	0.385408	0.409931
	H419	H	0.416044	0.369659	0.432359
