data_Molecule from HDF5

_cell_length_a		16.332721
_cell_length_b		16.547108
_cell_length_c		16.453897
_cell_angle_alpha	89.931681
_cell_angle_beta	89.868882
_cell_angle_gamma	90.203436
_symmetry_space_group_name_H-M	'P 1'
_symmetry_Int_Tables_number		1

loop_
	_symmetry_equiv_pos_as_xyz
	x,y,z

loop_
	_atom_site_label
	_atom_site_type_symbol
	_atom_site_fract_x
	_atom_site_fract_y
	_atom_site_fract_z
	H0	H	0.378335	0.847511	0.735148
	H1	H	0.596274	0.159936	0.732654
	H2	H	0.597773	0.847198	0.285492
	H3	H	0.380462	0.158370	0.283280
	H4	H	0.710401	0.400031	0.852011
	H5	H	0.712297	0.609180	0.168433
	H6	H	0.269240	0.606609	0.852356
	H7	H	0.266362	0.393913	0.168124
	H8	H	0.832342	0.724378	0.404479
	H9	H	0.146845	0.730183	0.621592
	H10	H	0.831599	0.279830	0.620236
	H11	H	0.146376	0.277198	0.401078
	H12	H	0.831393	0.397645	0.733562
	H13	H	0.149340	0.610522	0.732785
	H14	H	0.833550	0.610033	0.287258
	H15	H	0.147033	0.392041	0.285766
	H16	H	0.382134	0.725484	0.853190
	H17	H	0.600461	0.728653	0.165881
	H18	H	0.597735	0.280442	0.852651
	H19	H	0.380329	0.275890	0.165504
	H20	H	0.711935	0.846123	0.404248
	H21	H	0.711355	0.160563	0.614830
	H22	H	0.264260	0.847189	0.616991
	H23	H	0.265898	0.159941	0.400418
	H24	H	0.879035	0.347726	0.237683
	H25	H	0.104028	0.656503	0.239009
	H26	H	0.098743	0.346694	0.785168
	H27	H	0.883433	0.658839	0.786778
	H28	H	0.214709	0.894661	0.352668
	H29	H	0.215363	0.112339	0.666126
	H30	H	0.769004	0.108618	0.352752
	H31	H	0.767065	0.897106	0.667741
	H32	H	0.333308	0.228510	0.899670
	H33	H	0.648585	0.225696	0.116014
	H34	H	0.332475	0.776541	0.119639
	H35	H	0.647929	0.780942	0.902194
	H36	H	0.332354	0.892067	0.235133
	H37	H	0.649384	0.108911	0.230160
	H38	H	0.331389	0.110957	0.786666
	H39	H	0.647414	0.897323	0.786649
	H40	H	0.876765	0.231218	0.356820
	H41	H	0.099504	0.227725	0.667372
	H42	H	0.101456	0.775476	0.354497
	H43	H	0.879307	0.777865	0.666180
	H44	H	0.210214	0.343890	0.905298
	H45	H	0.215908	0.658197	0.118779
	H46	H	0.764659	0.346579	0.119690
	H47	H	0.770108	0.661014	0.906496
	H48	H	0.400415	0.116366	0.599487
	H49	H	0.575342	0.891134	0.598534
	H50	H	0.575037	0.113339	0.422249
	H51	H	0.402331	0.891378	0.421296
	H52	H	0.578374	0.409787	0.124939
	H53	H	0.574815	0.593919	0.898364
	H54	H	0.402382	0.587091	0.122217
	H55	H	0.402909	0.406377	0.894952
	H56	H	0.101388	0.586264	0.427464
	H57	H	0.878458	0.586670	0.600675
	H58	H	0.105051	0.411130	0.598193
	H59	H	0.879400	0.415854	0.430849
	H60	H	0.101691	0.415932	0.593358
	H61	H	0.874419	0.594742	0.601159
	H62	H	0.103763	0.589122	0.424557
	H63	H	0.879106	0.421084	0.423583
	H64	H	0.407115	0.588612	0.120759
	H65	H	0.582572	0.594874	0.896450
	H66	H	0.579330	0.417278	0.122236
	H67	H	0.394900	0.418007	0.896700
	H68	H	0.583811	0.116239	0.421856
	H69	H	0.578311	0.891117	0.597564
	H70	H	0.406080	0.114211	0.598567
	H71	H	0.404161	0.893193	0.423016
	H72	H	0.895517	0.615230	0.095464
	H73	H	0.072323	0.394516	0.094555
	H74	H	0.080676	0.616060	0.914768
	H75	H	0.899061	0.389246	0.920319
	H76	H	0.082997	0.915911	0.623312
	H77	H	0.074103	0.087013	0.401102
	H78	H	0.897267	0.090469	0.624546
	H79	H	0.900203	0.913584	0.396913
	H80	H	0.605322	0.090819	0.914294
	H81	H	0.376969	0.090092	0.098779
	H82	H	0.600514	0.916862	0.095305
	H83	H	0.376547	0.914808	0.921188
	H84	H	0.602585	0.917045	0.098503
	H85	H	0.377389	0.091274	0.094132
	H86	H	0.602559	0.097510	0.926424
	H87	H	0.375375	0.911344	0.924320
	H88	H	0.904201	0.088843	0.621864
	H89	H	0.070919	0.092869	0.399076
	H90	H	0.072248	0.924656	0.616258
	H91	H	0.903777	0.915257	0.398352
	H92	H	0.073069	0.611935	0.922986
	H93	H	0.081499	0.389753	0.097109
	H94	H	0.905103	0.616006	0.107515
	H95	H	0.903804	0.391608	0.920748
	H96	H	0.401970	0.113817	0.594333
	H97	H	0.577711	0.890669	0.600756
	H98	H	0.578560	0.117185	0.415216
	H99	H	0.401951	0.893051	0.423454
	H100	H	0.572541	0.413452	0.121534
	H101	H	0.579721	0.587548	0.898836
	H102	H	0.403982	0.591568	0.123051
	H103	H	0.408420	0.418096	0.901192
	H104	H	0.102588	0.590983	0.428574
	H105	H	0.878831	0.591722	0.594276
	H106	H	0.102664	0.418351	0.600850
	H107	H	0.875634	0.413239	0.423265
	H108	H	0.910370	0.609675	0.094325
	H109	H	0.073836	0.390865	0.104392
	H110	H	0.084134	0.615031	0.925849
	H111	H	0.900870	0.390936	0.924734
	H112	H	0.068848	0.909661	0.620438
	H113	H	0.077456	0.092139	0.397893
	H114	H	0.902841	0.095563	0.624442
	H115	H	0.904125	0.911535	0.397119
	H116	H	0.598788	0.083793	0.924728
	H117	H	0.378534	0.086915	0.095560
	H118	H	0.602592	0.913368	0.096423
	H119	H	0.377422	0.915322	0.925451
	C120	C	0.367904	0.011736	0.631490
	C121	C	0.610366	0.994899	0.631282
	C122	C	0.611917	0.011820	0.387363
	C123	C	0.368499	0.995260	0.388039
	C124	C	0.610564	0.381587	0.018804
	C125	C	0.612827	0.625301	1.001701
	C126	C	0.370466	0.622356	0.018276
	C127	C	0.368016	0.379712	1.001272
	C128	C	-0.000993	0.622923	0.391373
	C129	C	0.981669	0.625260	0.632553
	C130	C	-0.001671	0.382346	0.631252
	C131	C	0.981494	0.381664	0.390533
	C132	C	0.868809	0.510809	0.132841
	C133	C	0.111784	0.494032	0.133379
	C134	C	0.112095	0.510692	0.888340
	C135	C	0.868769	0.494274	0.889186
	C136	C	0.110613	0.881836	0.517411
	C137	C	0.109983	0.124812	0.502286
	C138	C	0.867312	0.125205	0.520058
	C139	C	0.868512	0.880952	0.501538
	C140	C	0.498192	0.124318	0.888349
	C141	C	0.482106	0.123025	0.129492
	C142	C	0.498049	0.880866	0.131462
	C143	C	0.480991	0.881832	0.889583
	C144	C	0.361769	0.894413	0.693799
	C145	C	0.614106	0.112716	0.692290
	C146	C	0.615171	0.894058	0.326392
	C147	C	0.363762	0.112055	0.324746
	C148	C	0.671343	0.380523	0.899665
	C149	C	0.672817	0.627544	0.120511
	C150	C	0.309271	0.625159	0.899912
	C151	C	0.306240	0.375830	0.120005
	C152	C	0.879819	0.683985	0.386879
	C153	C	0.099754	0.688679	0.637974
	C154	C	0.879213	0.320694	0.636916
	C155	C	0.099186	0.318358	0.384699
	C156	C	0.879125	0.379406	0.693268
	C157	C	0.101055	0.628862	0.693426
	C158	C	0.880463	0.627034	0.328709
	C159	C	0.099474	0.375831	0.326946
	C160	C	0.365955	0.684229	0.900208
	C161	C	0.617173	0.687211	0.119188
	C162	C	0.614496	0.321545	0.899722
	C163	C	0.362995	0.316970	0.118838
	C164	C	0.672287	0.893575	0.385183
	C165	C	0.671652	0.113092	0.633673
	C166	C	0.304881	0.894213	0.634937
	C167	C	0.306369	0.112660	0.383205
	C168	C	0.862631	0.394228	0.196090
	C169	C	0.119456	0.610037	0.197310
	C170	C	0.115400	0.393162	0.826670
	C171	C	0.865899	0.612181	0.827605
	C172	C	0.173969	0.877333	0.399838
	C173	C	0.173780	0.129189	0.619394
	C174	C	0.807263	0.127788	0.401027
	C175	C	0.807088	0.878641	0.620014
	C176	C	0.380032	0.186843	0.883467
	C177	C	0.601110	0.184805	0.133509
	C178	C	0.379924	0.817582	0.136907
	C179	C	0.600217	0.821291	0.885130
	C180	C	0.379827	0.875418	0.194330
	C181	C	0.601466	0.126591	0.190342
	C182	C	0.379204	0.128332	0.826877
	C183	C	0.599997	0.879223	0.827343
	C184	C	0.861348	0.188748	0.403102
	C185	C	0.116167	0.187058	0.619968
	C186	C	0.117852	0.817586	0.401084
	C187	C	0.862969	0.819143	0.619212
	C188	C	0.171251	0.391904	0.886567
	C189	C	0.175115	0.611004	0.137066
	C190	C	0.805611	0.393654	0.137241
	C191	C	0.809164	0.612991	0.887076
	C192	C	0.395023	0.093193	0.605236
	C193	C	0.584475	0.912644	0.605919
	C194	C	0.586398	0.094063	0.412556
	C195	C	0.395153	0.913905	0.414923
	C196	C	0.584197	0.406211	0.101312
	C197	C	0.586515	0.599560	0.919286
	C198	C	0.397071	0.596532	0.100542
	C199	C	0.394536	0.406501	0.919270
	C200	C	0.081023	0.596445	0.418907
	C201	C	0.898970	0.598600	0.606237
	C202	C	0.081485	0.407725	0.604991
	C203	C	0.899338	0.409021	0.418034
	C204	C	0.895933	0.592354	0.106567
	C205	C	0.083812	0.412817	0.106579
	C206	C	0.086739	0.592905	0.914012
	C207	C	0.893885	0.412068	0.914463
	C208	C	0.082707	0.909057	0.598849
	C209	C	0.082191	0.098337	0.420734
	C210	C	0.894063	0.099185	0.602203
	C211	C	0.895072	0.906382	0.419209
	C212	C	0.580729	0.098194	0.914524
	C213	C	0.399206	0.096788	0.103587
	C214	C	0.580315	0.907898	0.104310
	C215	C	0.398060	0.906832	0.916029
	Zn216	Zn	0.488529	0.003058	0.760719
	Zn217	Zn	0.489727	0.003035	0.258924
	Zn218	Zn	0.739260	0.502749	0.011012
	Zn219	Zn	0.240233	0.501737	0.010767
	Zn220	Zn	-0.009598	0.752146	0.510340
	Zn221	Zn	-0.010990	0.253385	0.511649
	Zn222	Zn	-0.009030	0.502943	0.759650
	Zn223	Zn	-0.009778	0.502807	0.262666
	Zn224	Zn	0.490166	0.752779	0.010314
	Zn225	Zn	0.490394	0.251833	0.009618
	Zn226	Zn	0.739927	0.003044	0.509935
	Zn227	Zn	0.239207	0.003895	0.508903
	N228	N	0.400057	0.968365	0.691705
	N229	N	0.576645	0.038213	0.690918
	N230	N	0.578602	0.968630	0.327481
	N231	N	0.401299	0.037791	0.327238
	N232	N	0.669000	0.417181	0.974538
	N233	N	0.670140	0.589833	0.046274
	N234	N	0.311918	0.587333	0.974188
	N235	N	0.309032	0.414034	0.045714
	N236	N	0.954432	0.681475	0.425184
	N237	N	0.024340	0.686682	0.601100
	N238	N	0.954311	0.322444	0.599255
	N239	N	0.024618	0.321635	0.423364
	N240	N	0.954210	0.417057	0.689930
	N241	N	0.026556	0.590181	0.690225
	N242	N	0.955587	0.589929	0.331292
	N243	N	0.025254	0.414527	0.330515
	N244	N	0.403366	0.682634	0.975107
	N245	N	0.580737	0.686105	0.044030
	N246	N	0.577865	0.321900	0.974993
	N247	N	0.400321	0.318836	0.043984
	N248	N	0.670492	0.967899	0.422231
	N249	N	0.669516	0.038728	0.596636
	N250	N	0.308229	0.968255	0.596906
	N251	N	0.309073	0.039051	0.421676
	N252	N	0.901465	0.467925	0.193449
	N253	N	0.080816	0.535939	0.195253
	N254	N	0.079627	0.468182	0.827613
	N255	N	0.902198	0.537272	0.828547
	N256	N	0.169534	0.916733	0.473353
	N257	N	0.170217	0.091383	0.545171
	N258	N	0.810963	0.088875	0.474726
	N259	N	0.810318	0.916558	0.545771
	N260	N	0.455110	0.184493	0.921012
	N261	N	0.525876	0.182649	0.096312
	N262	N	0.454530	0.820884	0.098568
	N263	N	0.525154	0.822675	0.923026
	N264	N	0.454388	0.914032	0.191129
	N265	N	0.526361	0.088822	0.187975
	N266	N	0.453585	0.090015	0.829984
	N267	N	0.524912	0.916207	0.830135
	N268	N	0.898136	0.187323	0.478113
	N269	N	0.077388	0.184638	0.545923
	N270	N	0.079063	0.820598	0.475142
	N271	N	0.900503	0.820251	0.544467
	N272	N	0.169375	0.466124	0.924141
	N273	N	0.170369	0.537931	0.098045
	N274	N	0.809142	0.467351	0.098613
	N275	N	0.810745	0.538803	0.924494
	O276	O	0.673509	0.692862	0.696280
	H277	H	0.683901	0.663170	0.684055
	H278	H	0.683640	0.702380	0.693457
	O279	O	0.986928	0.025834	1.021032
	H280	H	0.999573	0.020219	1.027370
	H281	H	0.990163	0.045373	1.027759
	O282	O	0.279469	0.521612	0.299512
	H283	H	0.240192	0.518463	0.279888
	H284	H	0.268958	0.500299	0.336763
	O285	O	0.476185	0.710393	0.296616
	H286	H	0.469994	0.737804	0.281763
	H287	H	0.457077	0.712730	0.311291
	O288	O	1.147600	1.177805	0.181994
	H289	H	1.162418	1.182384	0.135847
	H290	H	1.162950	1.132795	0.194052
	O291	O	0.488933	0.355484	0.700900
	H292	H	0.488721	0.348645	0.711617
	H293	H	0.510548	0.365503	0.705112
	O294	O	-0.134310	0.133577	1.002077
	H295	H	-0.144972	0.143670	1.011629
	H296	H	-0.133161	0.117418	1.010535
	O297	O	0.275347	0.291729	0.530004
	H298	H	0.253559	0.270365	0.541729
	H299	H	0.289862	0.283506	0.508342
	O300	O	0.445372	0.289659	0.549890
	H301	H	0.448686	0.286033	0.559565
	H302	H	0.456234	0.288982	0.542106
	O303	O	-0.192185	1.120418	0.026777
	H304	H	-0.198865	1.122578	0.050504
	H305	H	-0.189697	1.121460	0.030251
	O306	O	0.277582	0.486079	0.489155
	H307	H	0.269894	0.499693	0.504057
	H308	H	0.298684	0.480481	0.499745
	O309	O	1.284384	-0.309909	0.507970
	H310	H	1.303305	-0.319594	0.507191
	H311	H	1.272470	-0.287278	0.509363
	O312	O	-0.222383	0.956559	0.965062
	H313	H	-0.211600	0.956293	0.977077
	H314	H	-0.228324	0.966344	0.962511
	O315	O	0.693198	0.592240	0.419743
	H316	H	0.678358	0.576977	0.426537
	H317	H	0.694302	0.578507	0.405172
	O318	O	1.168672	-0.212940	0.019783
	H319	H	1.177007	-0.223778	-0.000405
	H320	H	1.171200	-0.211398	-0.005709
	O321	O	-0.191118	-0.185426	0.201164
	H322	H	-0.187308	-0.203188	0.196778
	H323	H	-0.201594	-0.165306	0.180934
	O324	O	0.441528	0.628925	0.642373
	H325	H	0.433074	0.636167	0.643956
	H326	H	0.424210	0.623831	0.656094
	O327	O	0.499979	0.390458	0.436762
	H328	H	0.494014	0.389974	0.422388
	H329	H	0.483247	0.404023	0.434542
	O330	O	0.016974	1.032509	-0.103461
	H331	H	0.006245	1.041371	-0.095508
	H332	H	0.011766	1.028676	-0.082537
	O333	O	1.047381	-0.052268	1.223015
	H334	H	1.021885	-0.066130	1.227895
	H335	H	1.062331	-0.067620	1.219234
	O336	O	0.020228	-0.217331	0.034599
	H337	H	0.004412	-0.215998	0.019073
	H338	H	0.045498	-0.229121	0.027652
	O339	O	-0.108548	1.046975	1.167256
	H340	H	-0.111164	1.058758	1.171260
	H341	H	-0.107895	1.063503	1.185112
	O342	O	0.027422	1.180275	0.858397
	H343	H	0.029203	1.176375	0.892589
	H344	H	0.016169	1.192811	0.851378
	O345	O	1.174233	0.818285	-0.163155
	H346	H	1.121460	0.807380	-0.178759
	H347	H	1.184811	0.871500	-0.175295
	O348	O	0.509766	0.722692	0.724434
	H349	H	0.527310	0.727690	0.741154
	H350	H	0.536937	0.728363	0.735457
	O351	O	-0.226010	0.976199	1.223329
	H352	H	-0.227278	0.988650	1.242699
	H353	H	-0.229141	0.955743	1.238471
	O354	O	0.204538	0.979351	-0.201689
	H355	H	0.179797	1.002723	-0.209567
	H356	H	0.228281	0.985873	-0.228288
	O357	O	-0.157959	-0.201810	1.006175
	H358	H	-0.172324	-0.198993	0.994718
	H359	H	-0.165255	-0.204131	0.998563
	O360	O	0.318257	0.680644	0.336403
	H361	H	0.307064	0.648002	0.346466
	H362	H	0.329759	0.671091	0.340059
	O363	O	0.588998	-0.604027	0.296412
	H364	H	0.592469	-0.593618	0.277819
	H365	H	0.586235	-0.627902	0.297100
	O366	O	0.614286	0.297449	0.449707
	H367	H	0.625035	0.295141	0.463937
	H368	H	0.590673	0.295620	0.454834
	O369	O	0.697057	0.534227	0.721075
	H370	H	0.692579	0.526667	0.698034
	H371	H	0.719617	0.533494	0.747820
	O372	O	0.794141	-0.174664	0.916360
	H373	H	0.792617	-0.181816	0.922421
	H374	H	0.794573	-0.143928	0.915521
	O375	O	0.473554	0.719414	0.506337
	H376	H	0.501230	0.714336	0.507437
	H377	H	0.467354	0.726090	0.544485
	O378	O	0.486560	0.604325	0.466917
	H379	H	0.484467	0.607753	0.455736
	H380	H	0.483468	0.603468	0.471291
	O381	O	0.272360	0.482944	0.726471
	H382	H	0.240702	0.477023	0.757905
	H383	H	0.279622	0.450908	0.711052
	O384	O	0.477523	0.546999	0.548209
	H385	H	0.477455	0.549696	0.555315
	H386	H	0.469682	0.585299	0.543248
	O387	O	-0.198607	0.101125	0.823011
	H388	H	-0.202619	0.101748	0.860693
	H389	H	-0.180184	0.113426	0.806077
	O390	O	-0.073244	0.213010	-0.075299
	H391	H	-0.074344	0.223046	-0.091887
	H392	H	-0.060407	0.222397	-0.049626
	O393	O	0.868751	0.981493	0.791284
	H394	H	0.848096	0.991343	0.771219
	H395	H	0.877600	1.010023	0.815964
	O396	O	0.975878	-0.207521	0.222224
	H397	H	0.983602	-0.228047	0.209802
	H398	H	0.951516	-0.222543	0.225850
	O399	O	1.200049	0.211543	1.014324
	H400	H	1.232004	0.231255	1.018057
	H401	H	1.197074	0.186341	0.996928
	O402	O	1.647813	0.499598	0.391956
	H403	H	1.631337	0.495545	0.393679
	H404	H	1.670731	0.497053	0.363642
	O405	O	0.914898	1.204355	-0.090797
	H406	H	0.923624	1.213317	-0.076818
	H407	H	0.923030	1.186770	-0.090892
	O408	O	1.202893	0.027687	0.223265
	H409	H	1.224981	0.019135	0.244284
	H410	H	1.199668	0.003057	0.214828
	O411	O	1.013228	0.789525	-0.205642
	H412	H	0.999694	0.795926	-0.218551
	H413	H	0.999723	0.784143	-0.224488
	O414	O	-0.005752	1.114230	1.005111
	H415	H	-0.001212	1.096525	1.021966
	H416	H	-0.014252	1.117479	1.020262
	O417	O	0.680873	0.299973	0.513243
	H418	H	0.683012	0.279283	0.512418
	H419	H	0.682332	0.308334	0.508063
	O420	O	0.442318	0.454657	0.313443
	H421	H	0.445585	0.487995	0.304682
	H422	H	0.424774	0.475695	0.321346
	O423	O	0.298028	1.464754	0.474459
	H424	H	0.297784	1.474804	0.488853
	H425	H	0.300478	1.460657	0.494002
	O426	O	0.989719	0.858549	-0.091930
	H427	H	0.987664	0.873141	-0.105013
	H428	H	0.985202	0.855050	-0.080045
	O429	O	0.646810	0.422027	0.550125
	H430	H	0.640575	0.411553	0.524440
	H431	H	0.649591	0.417487	0.542826
	O432	O	0.802271	0.228485	0.226275
	H433	H	0.796734	0.221853	0.226443
	H434	H	0.795928	0.243479	0.220419
	O435	O	0.693712	0.710279	0.532086
	H436	H	0.691167	0.708002	0.525727
	H437	H	0.714353	0.709830	0.531506
	O438	O	0.002350	0.218346	0.225297
	H439	H	0.012525	0.249451	0.250195
	H440	H	0.041107	0.208226	0.217017
	O441	O	1.205460	0.065453	-0.030349
	H442	H	1.195898	0.058427	-0.045147
	H443	H	1.205948	0.044991	-0.020823
	O444	O	0.607415	1.417820	0.673990
	H445	H	0.613906	1.434556	0.678584
	H446	H	0.584995	1.437913	0.669236
	O447	O	0.183180	-0.055352	0.078915
	H448	H	0.185231	-0.062263	0.086741
	H449	H	0.175189	-0.076834	0.067095
	O450	O	0.520114	0.461935	0.388586
	H451	H	0.522534	0.466084	0.388730
	H452	H	0.524467	0.476599	0.379257
	O453	O	0.312209	0.328144	0.688619
	H454	H	0.358937	0.316578	0.697227
	H455	H	0.301359	0.330351	0.650877
