data_Molecule from HDF5

_cell_length_a		16.344103
_cell_length_b		16.257624
_cell_length_c		16.325482
_cell_angle_alpha	89.864143
_cell_angle_beta	90.089261
_cell_angle_gamma	90.054576
_symmetry_space_group_name_H-M	'P 1'
_symmetry_Int_Tables_number		1

loop_
	_symmetry_equiv_pos_as_xyz
	x,y,z

loop_
	_atom_site_label
	_atom_site_type_symbol
	_atom_site_fract_x
	_atom_site_fract_y
	_atom_site_fract_z
	H0	H	0.400204	0.835300	0.722751
	H1	H	0.595693	0.163759	0.721027
	H2	H	0.595379	0.835188	0.294458
	H3	H	0.399254	0.163894	0.293544
	H4	H	0.712954	0.401641	0.844277
	H5	H	0.712723	0.598122	0.171070
	H6	H	0.282408	0.599903	0.844260
	H7	H	0.282579	0.400066	0.171151
	H8	H	0.834474	0.714033	0.409739
	H9	H	0.161088	0.712853	0.604253
	H10	H	0.834668	0.285170	0.605830
	H11	H	0.161197	0.285304	0.409792
	H12	H	0.835007	0.400443	0.722670
	H13	H	0.160547	0.599427	0.723270
	H14	H	0.834582	0.599493	0.292034
	H15	H	0.160712	0.401209	0.292286
	H16	H	0.400856	0.714586	0.844108
	H17	H	0.594590	0.712525	0.171843
	H18	H	0.595761	0.285544	0.844403
	H19	H	0.400986	0.286297	0.171745
	H20	H	0.712448	0.835816	0.409985
	H21	H	0.712047	0.163759	0.605810
	H22	H	0.282546	0.835536	0.606779
	H23	H	0.283153	0.163640	0.409200
	H24	H	0.899817	0.336466	0.222030
	H25	H	0.094301	0.664834	0.220070
	H26	H	0.094162	0.335584	0.795286
	H27	H	0.898817	0.663496	0.792177
	H28	H	0.211196	0.901726	0.343586
	H29	H	0.212854	0.098279	0.670282
	H30	H	0.782600	0.098906	0.344069
	H31	H	0.783741	0.901560	0.671266
	H32	H	0.334291	0.214797	0.909169
	H33	H	0.661040	0.214937	0.105961
	H34	H	0.333717	0.786142	0.104545
	H35	H	0.661290	0.785956	0.910833
	H36	H	0.333286	0.902222	0.220756
	H37	H	0.660910	0.098084	0.223019
	H38	H	0.335047	0.098773	0.791508
	H39	H	0.661222	0.901994	0.794040
	H40	H	0.900388	0.214361	0.344156
	H41	H	0.094204	0.211495	0.671610
	H42	H	0.093811	0.786503	0.343708
	H43	H	0.900889	0.785527	0.671429
	H44	H	0.211349	0.336060	0.910081
	H45	H	0.212703	0.663968	0.106083
	H46	H	0.782774	0.336935	0.106920
	H47	H	0.784241	0.664327	0.909208
	H48	H	0.410830	0.114948	0.603499
	H49	H	0.584902	0.885006	0.602231
	H50	H	0.589012	0.116271	0.409997
	H51	H	0.407353	0.883908	0.411966
	H52	H	0.581608	0.409097	0.120012
	H53	H	0.598676	0.591277	0.890432
	H54	H	0.413161	0.591078	0.120600
	H55	H	0.402944	0.406255	0.892303
	H56	H	0.116398	0.591378	0.403856
	H57	H	0.880993	0.594423	0.601332
	H58	H	0.113561	0.407916	0.600486
	H59	H	0.881030	0.407707	0.408279
	H60	H	0.114007	0.407137	0.605978
	H61	H	0.882023	0.591807	0.597887
	H62	H	0.114815	0.602513	0.418292
	H63	H	0.881687	0.401768	0.417282
	H64	H	0.401515	0.600248	0.126895
	H65	H	0.586053	0.587329	0.895222
	H66	H	0.593535	0.397514	0.126875
	H67	H	0.402319	0.409127	0.891796
	H68	H	0.586846	0.114399	0.417526
	H69	H	0.593165	0.884120	0.595437
	H70	H	0.404489	0.112996	0.593900
	H71	H	0.403335	0.884083	0.418651
	H72	H	0.904546	0.614238	0.089906
	H73	H	0.088810	0.383448	0.102526
	H74	H	0.092700	0.615680	0.918981
	H75	H	0.903988	0.383283	0.913600
	H76	H	0.089232	0.909184	0.622002
	H77	H	0.095435	0.089805	0.391113
	H78	H	0.905704	0.093980	0.623817
	H79	H	0.909690	0.903432	0.392366
	H80	H	0.611398	0.090071	0.917746
	H81	H	0.381798	0.096471	0.098033
	H82	H	0.612244	0.907450	0.098767
	H83	H	0.379023	0.897426	0.912822
	H84	H	0.613828	0.908451	0.104923
	H85	H	0.383671	0.088837	0.099724
	H86	H	0.614744	0.091039	0.909094
	H87	H	0.384722	0.909910	0.922551
	H88	H	0.902061	0.093798	0.624660
	H89	H	0.086545	0.091929	0.392694
	H90	H	0.089528	0.903710	0.623885
	H91	H	0.897081	0.904637	0.388560
	H92	H	0.092855	0.617744	0.910937
	H93	H	0.090139	0.384918	0.098014
	H94	H	0.895904	0.621067	0.104869
	H95	H	0.905539	0.384136	0.915638
	H96	H	0.399676	0.118356	0.603004
	H97	H	0.594436	0.880565	0.605600
	H98	H	0.594560	0.116560	0.416124
	H99	H	0.399634	0.881687	0.411989
	H100	H	0.598394	0.414735	0.122569
	H101	H	0.587804	0.601013	0.890784
	H102	H	0.398578	0.585206	0.122499
	H103	H	0.404906	0.407959	0.892369
	H104	H	0.108887	0.585265	0.419862
	H105	H	0.881863	0.590446	0.602309
	H106	H	0.115072	0.402948	0.601981
	H107	H	0.884362	0.412297	0.417588
	H108	H	0.913902	0.616266	0.105723
	H109	H	0.093740	0.382700	0.101485
	H110	H	0.085645	0.615608	0.914500
	H111	H	0.903415	0.383664	0.916345
	H112	H	0.094821	0.907481	0.623957
	H113	H	0.092718	0.098249	0.389080
	H114	H	0.903596	0.090959	0.622957
	H115	H	0.903900	0.914772	0.394224
	H116	H	0.614702	0.098364	0.914768
	H117	H	0.380485	0.093788	0.105808
	H118	H	0.614440	0.902334	0.102572
	H119	H	0.381749	0.912926	0.906177
	C120	C	0.376565	0.007518	0.629444
	C121	C	0.619292	0.991532	0.629079
	C122	C	0.618684	0.007615	0.386459
	C123	C	0.375644	0.991552	0.386044
	C124	C	0.619495	0.378632	0.015605
	C125	C	0.619533	0.621711	0.999701
	C126	C	0.376121	0.621423	0.015696
	C127	C	0.375587	0.378602	0.999905
	C128	C	0.005704	0.621638	0.385658
	C129	C	0.989307	0.620914	0.629084
	C130	C	0.006150	0.377638	0.630376
	C131	C	0.990057	0.378835	0.386171
	C132	C	0.876208	0.508908	0.128719
	C133	C	0.119063	0.491994	0.128947
	C134	C	0.118633	0.507952	0.886745
	C135	C	0.875985	0.491757	0.886286
	C136	C	0.119497	0.878308	0.515505
	C137	C	0.119746	0.121707	0.499191
	C138	C	0.875638	0.121640	0.515829
	C139	C	0.875998	0.878640	0.499701
	C140	C	0.505929	0.121744	0.885546
	C141	C	0.489874	0.121467	0.129504
	C142	C	0.505184	0.878004	0.129644
	C143	C	0.489898	0.878543	0.886138
	C144	C	0.379012	0.883954	0.684748
	C145	C	0.616734	0.114762	0.683808
	C146	C	0.616005	0.884362	0.332063
	C147	C	0.378854	0.115024	0.331359
	C148	C	0.675102	0.381024	0.892985
	C149	C	0.674459	0.618586	0.122550
	C150	C	0.320669	0.619965	0.893048
	C151	C	0.320942	0.380372	0.122574
	C152	C	0.883139	0.676467	0.388812
	C153	C	0.112381	0.675485	0.625684
	C154	C	0.883399	0.322796	0.626781
	C155	C	0.112712	0.323889	0.389404
	C156	C	0.883552	0.380004	0.684928
	C157	C	0.112022	0.618969	0.684679
	C158	C	0.883005	0.619181	0.330608
	C159	C	0.112444	0.381228	0.330879
	C160	C	0.379425	0.676636	0.892790
	C161	C	0.616034	0.675733	0.122908
	C162	C	0.616828	0.323595	0.892810
	C163	C	0.379702	0.323623	0.122737
	C164	C	0.673894	0.884460	0.389484
	C165	C	0.674363	0.114598	0.626345
	C166	C	0.320552	0.884351	0.627498
	C167	C	0.321437	0.115105	0.388948
	C168	C	0.878742	0.385478	0.184371
	C169	C	0.116018	0.615647	0.183351
	C170	C	0.115210	0.384609	0.832500
	C171	C	0.878485	0.614883	0.830602
	C172	C	0.173581	0.880980	0.392320
	C173	C	0.174607	0.118371	0.621807
	C174	C	0.820350	0.119434	0.392902
	C175	C	0.821477	0.880739	0.622546
	C176	C	0.382944	0.176463	0.888691
	C177	C	0.612569	0.176326	0.126225
	C178	C	0.382381	0.823490	0.125930
	C179	C	0.612821	0.824316	0.890282
	C180	C	0.382297	0.881219	0.183593
	C181	C	0.612356	0.118601	0.184564
	C182	C	0.383333	0.119317	0.830082
	C183	C	0.612625	0.881245	0.831619
	C184	C	0.878884	0.176572	0.392765
	C185	C	0.115840	0.174931	0.622502
	C186	C	0.115481	0.823587	0.392548
	C187	C	0.879826	0.823404	0.622677
	C188	C	0.173508	0.384836	0.889611
	C189	C	0.174085	0.615381	0.126220
	C190	C	0.820846	0.385664	0.127127
	C191	C	0.821050	0.615008	0.888112
	C192	C	0.398617	0.093185	0.606927
	C193	C	0.597225	0.905321	0.607469
	C194	C	0.596638	0.093599	0.408170
	C195	C	0.397117	0.905326	0.407856
	C196	C	0.597612	0.400608	0.100991
	C197	C	0.597372	0.599809	0.914013
	C198	C	0.397987	0.598762	0.101398
	C199	C	0.397057	0.401116	0.914296
	C200	C	0.091301	0.599460	0.407409
	C201	C	0.903723	0.598752	0.607096
	C202	C	0.092133	0.399489	0.609053
	C203	C	0.904429	0.400798	0.407926
	C204	C	0.898376	0.594950	0.106741
	C205	C	0.097116	0.405981	0.107369
	C206	C	0.096827	0.594255	0.908481
	C207	C	0.897934	0.405916	0.908612
	C208	C	0.097738	0.900367	0.601275
	C209	C	0.097937	0.099965	0.413161
	C210	C	0.897361	0.099464	0.601500
	C211	C	0.897355	0.900919	0.413950
	C212	C	0.591368	0.099625	0.907418
	C213	C	0.403998	0.099432	0.107453
	C214	C	0.591380	0.899648	0.108323
	C215	C	0.403992	0.900310	0.907479
	Zn216	Zn	0.498254	-0.000371	0.757368
	Zn217	Zn	0.497234	-0.000482	0.258298
	Zn218	Zn	0.748054	0.500414	0.007682
	Zn219	Zn	0.247050	0.500368	0.007885
	Zn220	Zn	-0.002402	0.749642	0.507542
	Zn221	Zn	-0.002143	0.249620	0.507996
	Zn222	Zn	-0.002515	0.499999	0.758038
	Zn223	Zn	-0.002316	0.500275	0.256735
	Zn224	Zn	0.497462	0.749713	0.007927
	Zn225	Zn	0.497504	0.250254	0.007343
	Zn226	Zn	0.747158	-0.000217	0.508027
	Zn227	Zn	0.247962	-0.000486	0.507038
	N228	N	0.412993	0.961343	0.686072
	N229	N	0.583160	0.037059	0.685661
	N230	N	0.582184	0.961726	0.330375
	N231	N	0.411740	0.037189	0.329303
	N232	N	0.676745	0.414736	0.970319
	N233	N	0.676695	0.585823	0.045012
	N234	N	0.318477	0.586325	0.970511
	N235	N	0.318318	0.413881	0.045217
	N236	N	0.960342	0.677996	0.422289
	N237	N	0.035342	0.676663	0.591677
	N238	N	0.960779	0.321243	0.593613
	N239	N	0.035706	0.322350	0.423188
	N240	N	0.960835	0.413551	0.687283
	N241	N	0.034572	0.585652	0.686734
	N242	N	0.960312	0.585858	0.328490
	N243	N	0.035150	0.414622	0.328732
	N244	N	0.413083	0.677688	0.969943
	N245	N	0.582548	0.677646	0.045554
	N246	N	0.583022	0.321996	0.969729
	N247	N	0.413144	0.322485	0.045429
	N248	N	0.675867	0.962243	0.422609
	N249	N	0.675719	0.037100	0.593021
	N250	N	0.319058	0.961971	0.593488
	N251	N	0.319644	0.037332	0.422274
	N252	N	0.912517	0.463045	0.185430
	N253	N	0.082543	0.537978	0.184952
	N254	N	0.081792	0.462162	0.830727
	N255	N	0.911827	0.537344	0.829342
	N256	N	0.176040	0.914263	0.469644
	N257	N	0.177077	0.086047	0.543992
	N258	N	0.818132	0.085995	0.470437
	N259	N	0.819329	0.914521	0.545434
	N260	N	0.460167	0.178319	0.922209
	N261	N	0.535301	0.178177	0.092768
	N262	N	0.459856	0.821590	0.093211
	N263	N	0.535509	0.822486	0.923363
	N264	N	0.459825	0.914258	0.186190
	N265	N	0.534957	0.085502	0.186675
	N266	N	0.460569	0.085917	0.828102
	N267	N	0.535217	0.914344	0.829181
	N268	N	0.912522	0.178028	0.469991
	N269	N	0.082372	0.176971	0.545218
	N270	N	0.082507	0.821799	0.470156
	N271	N	0.913011	0.821863	0.545194
	N272	N	0.175755	0.462742	0.922461
	N273	N	0.176300	0.537629	0.093386
	N274	N	0.819251	0.463239	0.093314
	N275	N	0.819424	0.537618	0.922134
	O276	O	0.512005	0.489159	0.510709
	H277	H	0.509520	0.495399	0.510598
	H278	H	0.524348	0.495646	0.513907
	O279	O	0.443372	0.469641	0.483824
	H280	H	0.457039	0.474264	0.489884
	H281	H	0.451322	0.462018	0.487595
	O282	O	1.489457	0.514208	-0.493601
	H283	H	1.474860	0.508780	-0.499215
	H284	H	1.479698	0.521869	-0.496090
	O285	O	0.426305	0.491649	0.479002
	H286	H	0.420654	0.485923	0.473887
	H287	H	0.420498	0.484471	0.475106
