data_Molecule from HDF5

_cell_length_a		16.437909
_cell_length_b		16.242515
_cell_length_c		16.255924
_cell_angle_alpha	90.293663
_cell_angle_beta	90.186227
_cell_angle_gamma	90.098755
_symmetry_space_group_name_H-M	'P 1'
_symmetry_Int_Tables_number		1

loop_
	_symmetry_equiv_pos_as_xyz
	x,y,z

loop_
	_atom_site_label
	_atom_site_type_symbol
	_atom_site_fract_x
	_atom_site_fract_y
	_atom_site_fract_z
	H0	H	0.388038	0.848027	0.712150
	H1	H	0.591348	0.172741	0.714192
	H2	H	0.587701	0.847934	0.279772
	H3	H	0.387504	0.173089	0.280382
	H4	H	0.709913	0.405049	0.835843
	H5	H	0.709102	0.615163	0.158278
	H6	H	0.267403	0.617169	0.837094
	H7	H	0.272372	0.408336	0.157712
	H8	H	0.828107	0.726528	0.394434
	H9	H	0.149707	0.730022	0.599844
	H10	H	0.828948	0.291305	0.596698
	H11	H	0.150779	0.291277	0.394247
	H12	H	0.829254	0.405678	0.715723
	H13	H	0.150212	0.614258	0.716517
	H14	H	0.828326	0.609126	0.277313
	H15	H	0.151150	0.408691	0.279398
	H16	H	0.388506	0.726592	0.833570
	H17	H	0.590711	0.729063	0.158779
	H18	H	0.591756	0.291508	0.834718
	H19	H	0.388770	0.295590	0.158643
	H20	H	0.706590	0.848205	0.392301
	H21	H	0.708325	0.172170	0.599568
	H22	H	0.270319	0.848806	0.599123
	H23	H	0.268422	0.170275	0.389863
	H24	H	0.893332	0.345235	0.207022
	H25	H	0.090353	0.673149	0.213099
	H26	H	0.089816	0.346384	0.780024
	H27	H	0.889578	0.672606	0.780270
	H28	H	0.205295	0.906516	0.333377
	H29	H	0.208125	0.112411	0.657632
	H30	H	0.772360	0.111075	0.334318
	H31	H	0.771421	0.906909	0.657631
	H32	H	0.327804	0.228302	0.894974
	H33	H	0.650541	0.227536	0.096841
	H34	H	0.327548	0.795298	0.094203
	H35	H	0.650420	0.793779	0.895258
	H36	H	0.326945	0.912206	0.210702
	H37	H	0.650014	0.111981	0.214210
	H38	H	0.327742	0.111425	0.777990
	H39	H	0.650689	0.909952	0.779337
	H40	H	0.891366	0.221834	0.332483
	H41	H	0.089703	0.226604	0.658573
	H42	H	0.086926	0.793666	0.333239
	H43	H	0.889322	0.794351	0.659261
	H44	H	0.208331	0.347970	0.893447
	H45	H	0.208230	0.672426	0.099934
	H46	H	0.770470	0.348756	0.099725
	H47	H	0.771454	0.672046	0.892350
	H48	H	0.390878	0.127618	0.583700
	H49	H	0.586461	0.891713	0.588796
	H50	H	0.588016	0.128709	0.404341
	H51	H	0.405234	0.897247	0.406105
	H52	H	0.585368	0.431664	0.109846
	H53	H	0.578989	0.602561	0.880762
	H54	H	0.402666	0.603471	0.111259
	H55	H	0.397993	0.416792	0.879123
	H56	H	0.104818	0.608314	0.409068
	H57	H	0.873696	0.602488	0.592523
	H58	H	0.102625	0.422726	0.589267
	H59	H	0.874510	0.408795	0.406698
	H60	H	0.104316	0.417176	0.588586
	H61	H	0.876609	0.603098	0.582890
	H62	H	0.100083	0.594774	0.408844
	H63	H	0.877387	0.423358	0.402972
	H64	H	0.396733	0.605386	0.113275
	H65	H	0.584916	0.601341	0.879736
	H66	H	0.571615	0.417226	0.110020
	H67	H	0.395741	0.424475	0.880709
	H68	H	0.577729	0.126730	0.402306
	H69	H	0.575273	0.895145	0.589501
	H70	H	0.403004	0.126566	0.593224
	H71	H	0.392118	0.894346	0.410361
	H72	H	0.897727	0.625625	0.084417
	H73	H	0.087029	0.393811	0.082341
	H74	H	0.077711	0.626095	0.900747
	H75	H	0.898594	0.393948	0.905014
	H76	H	0.072378	0.919694	0.609494
	H77	H	0.070862	0.110936	0.379300
	H78	H	0.902281	0.099787	0.610611
	H79	H	0.900174	0.914021	0.379868
	H80	H	0.605719	0.113667	0.908734
	H81	H	0.373466	0.101853	0.092688
	H82	H	0.600673	0.925957	0.084302
	H83	H	0.375868	0.922880	0.906261
	H84	H	0.605582	0.921529	0.096716
	H85	H	0.372339	0.107336	0.088557
	H86	H	0.597213	0.093952	0.915324
	H87	H	0.374128	0.919735	0.899554
	H88	H	0.897704	0.103822	0.613866
	H89	H	0.095182	0.102653	0.374501
	H90	H	0.086961	0.914262	0.615369
	H91	H	0.892614	0.917284	0.379037
	H92	H	0.076553	0.622224	0.914161
	H93	H	0.086022	0.390863	0.092554
	H94	H	0.896089	0.627364	0.089885
	H95	H	0.899782	0.395147	0.908090
	H96	H	0.404399	0.122357	0.578699
	H97	H	0.581648	0.896765	0.579252
	H98	H	0.581547	0.124863	0.411828
	H99	H	0.395837	0.891311	0.397065
	H100	H	0.589869	0.413548	0.116865
	H101	H	0.580723	0.597102	0.882491
	H102	H	0.397964	0.598958	0.111053
	H103	H	0.402266	0.422266	0.882857
	H104	H	0.105921	0.600760	0.397267
	H105	H	0.877935	0.594164	0.587815
	H106	H	0.101961	0.420264	0.583913
	H107	H	0.871843	0.413723	0.392490
	H108	H	0.901756	0.625905	0.088402
	H109	H	0.078349	0.395455	0.087358
	H110	H	0.088326	0.626928	0.909980
	H111	H	0.896647	0.394567	0.907652
	H112	H	0.085227	0.929912	0.609889
	H113	H	0.077909	0.086054	0.384838
	H114	H	0.895504	0.097668	0.611850
	H115	H	0.898284	0.922697	0.381617
	H116	H	0.604656	0.096601	0.894556
	H117	H	0.375247	0.101501	0.085195
	H118	H	0.604909	0.912497	0.085740
	H119	H	0.374655	0.915446	0.905677
	C120	C	0.368481	0.018438	0.615650
	C121	C	0.611703	1.001654	0.617325
	C122	C	0.611236	0.019302	0.375109
	C123	C	0.367453	1.001514	0.374351
	C124	C	0.612188	0.389288	0.005172
	C125	C	0.611786	0.632344	0.987744
	C126	C	0.368106	0.632846	0.005040
	C127	C	0.368610	0.390593	0.987768
	C128	C	-0.002686	0.630939	0.374594
	C129	C	0.981537	0.631915	0.619171
	C130	C	-0.002726	0.388561	0.617408
	C131	C	0.981451	0.386351	0.372509
	C132	C	0.869121	0.518475	0.116869
	C133	C	0.112872	0.501145	0.118217
	C134	C	0.111219	0.518147	0.876261
	C135	C	0.868056	0.501736	0.875743
	C136	C	0.110677	0.889443	0.504580
	C137	C	0.111677	0.131331	0.486762
	C138	C	0.868862	0.130247	0.504861
	C139	C	0.867644	0.888031	0.487424
	C140	C	0.496792	0.132482	0.875037
	C141	C	0.480308	0.133497	0.118949
	C142	C	0.497281	0.889991	0.117806
	C143	C	0.481226	0.888791	0.873816
	C144	C	0.368316	0.896666	0.673760
	C145	C	0.611231	0.124033	0.675558
	C146	C	0.608675	0.896787	0.317795
	C147	C	0.367696	0.123761	0.317599
	C148	C	0.670386	0.387157	0.883921
	C149	C	0.669697	0.634018	0.109863
	C150	C	0.308200	0.634416	0.884395
	C151	C	0.311282	0.389946	0.109591
	C152	C	0.876186	0.687700	0.374878
	C153	C	0.101825	0.690776	0.619173
	C154	C	0.876944	0.330221	0.616968
	C155	C	0.102464	0.329808	0.374295
	C156	C	0.877234	0.387184	0.676074
	C157	C	0.102193	0.633042	0.677320
	C158	C	0.876291	0.629123	0.316859
	C159	C	0.102698	0.387985	0.316894
	C160	C	0.368129	0.689366	0.882771
	C161	C	0.610949	0.690515	0.110061
	C162	C	0.611364	0.330685	0.883308
	C163	C	0.369028	0.333742	0.109950
	C164	C	0.667910	0.897027	0.373568
	C165	C	0.669637	0.123666	0.618508
	C166	C	0.309990	0.897001	0.617148
	C167	C	0.308350	0.122402	0.372365
	C168	C	0.871763	0.394840	0.170832
	C169	C	0.110706	0.624049	0.175153
	C170	C	0.110132	0.395553	0.818250
	C171	C	0.869440	0.623907	0.818577
	C172	C	0.167089	0.887873	0.382026
	C173	C	0.169507	0.132165	0.609000
	C174	C	0.811618	0.130067	0.382719
	C175	C	0.810545	0.888083	0.609528
	C176	C	0.375985	0.189653	0.875266
	C177	C	0.602014	0.189471	0.117209
	C178	C	0.375746	0.833901	0.114778
	C179	C	0.602168	0.832157	0.875414
	C180	C	0.375547	0.891895	0.172699
	C181	C	0.601812	0.131938	0.175668
	C182	C	0.376017	0.131573	0.817026
	C183	C	0.602339	0.889922	0.817502
	C184	C	0.870651	0.185285	0.381854
	C185	C	0.110447	0.188476	0.609695
	C186	C	0.108166	0.831656	0.381998
	C187	C	0.869191	0.832045	0.610341
	C188	C	0.168955	0.396172	0.874762
	C189	C	0.169601	0.623770	0.118934
	C190	C	0.811131	0.396589	0.116808
	C191	C	0.810659	0.623485	0.874404
	C192	C	0.392364	0.103309	0.591882
	C193	C	0.588018	0.916772	0.592885
	C194	C	0.588942	0.104667	0.399163
	C195	C	0.390915	0.916368	0.397894
	C196	C	0.588950	0.413714	0.090321
	C197	C	0.588304	0.607653	0.903049
	C198	C	0.392276	0.609519	0.089757
	C199	C	0.391857	0.414381	0.902929
	C200	C	0.081599	0.607951	0.398180
	C201	C	0.897958	0.607055	0.594771
	C202	C	0.081192	0.413060	0.593966
	C203	C	0.896559	0.408676	0.394527
	C204	C	0.891877	0.604152	0.094202
	C205	C	0.090568	0.415583	0.094340
	C206	C	0.087737	0.603050	0.900992
	C207	C	0.891639	0.416556	0.899834
	C208	C	0.088159	0.914061	0.589453
	C209	C	0.088300	0.106931	0.401597
	C210	C	0.891878	0.107224	0.590131
	C211	C	0.890502	0.911249	0.402304
	C212	C	0.580973	0.108499	0.899188
	C213	C	0.395682	0.110502	0.095629
	C214	C	0.581924	0.913040	0.095345
	C215	C	0.396643	0.912587	0.897058
	Zn216	Zn	0.489465	0.010406	0.745083
	Zn217	Zn	0.488751	0.011198	0.247686
	Zn218	Zn	0.740208	0.511191	-0.003185
	Zn219	Zn	0.240857	0.510240	-0.003374
	Zn220	Zn	-0.011116	0.760873	0.496864
	Zn221	Zn	-0.010588	0.258755	0.495682
	Zn222	Zn	-0.010250	0.509504	0.748011
	Zn223	Zn	-0.010260	0.509390	0.244707
	Zn224	Zn	0.489683	0.760444	-0.003982
	Zn225	Zn	0.488491	0.262437	-0.003382
	Zn226	Zn	0.740294	0.009904	0.496128
	Zn227	Zn	0.239635	0.009764	0.495055
	N228	N	0.404278	0.973199	0.672954
	N229	N	0.575690	0.047391	0.674810
	N230	N	0.574316	0.973902	0.318376
	N231	N	0.404072	0.047525	0.319018
	N232	N	0.670828	0.422759	0.960746
	N233	N	0.670390	0.598564	0.032883
	N234	N	0.308010	0.599787	0.961367
	N235	N	0.311201	0.424820	0.032641
	N236	N	0.952332	0.688877	0.409998
	N237	N	0.025657	0.690281	0.583708
	N238	N	0.952523	0.331187	0.581060
	N239	N	0.026022	0.328832	0.408471
	N240	N	0.953111	0.422922	0.676324
	N241	N	0.026531	0.596944	0.677343
	N242	N	0.952619	0.594654	0.316522
	N243	N	0.026346	0.422372	0.315497
	N244	N	0.404828	0.688281	0.958610
	N245	N	0.575606	0.689719	0.033281
	N246	N	0.575867	0.331789	0.959756
	N247	N	0.404194	0.334169	0.033395
	N248	N	0.669612	0.974218	0.408610
	N249	N	0.670191	0.046477	0.583246
	N250	N	0.309972	0.973719	0.581745
	N251	N	0.308189	0.045457	0.407068
	N252	N	0.907188	0.471626	0.170952
	N253	N	0.076261	0.546830	0.174866
	N254	N	0.075117	0.472258	0.819016
	N255	N	0.904421	0.547015	0.819314
	N256	N	0.168800	0.922900	0.459191
	N257	N	0.170548	0.097628	0.531462
	N258	N	0.810169	0.096649	0.460192
	N259	N	0.809314	0.922079	0.532259
	N260	N	0.452112	0.190127	0.910496
	N261	N	0.525562	0.190664	0.082536
	N262	N	0.452550	0.832813	0.081073
	N263	N	0.525718	0.831149	0.909398
	N264	N	0.452150	0.925886	0.174680
	N265	N	0.525097	0.098148	0.176859
	N266	N	0.452336	0.096824	0.816699
	N267	N	0.525920	0.924178	0.816408
	N268	N	0.905661	0.185405	0.458914
	N269	N	0.075586	0.188146	0.532853
	N270	N	0.074126	0.832273	0.459138
	N271	N	0.903818	0.831794	0.533438
	N272	N	0.170154	0.473566	0.909745
	N273	N	0.171102	0.546334	0.084312
	N274	N	0.809523	0.474559	0.083961
	N275	N	0.809569	0.546324	0.909044
	O276	O	1.055969	0.010271	1.059708
	H277	H	1.054855	0.013629	1.073846
	H278	H	1.048266	-0.002340	1.058890
	O279	O	0.588473	0.384381	0.528612
	H280	H	0.580253	0.392386	0.529602
	H281	H	0.592062	0.379027	0.529683
	O282	O	0.478600	0.405262	0.646977
	H283	H	0.479198	0.420274	0.641997
	H284	H	0.471362	0.395785	0.659970
	O285	O	0.384837	0.509977	0.628538
	H286	H	0.393506	0.492190	0.616018
	H287	H	0.378106	0.519416	0.647531
	O288	O	1.001168	-0.024899	-0.004214
	H289	H	1.002838	-0.025141	-0.008763
	H290	H	1.004618	-0.014760	0.002207
	O291	O	0.010657	0.060690	1.003249
	H292	H	0.005087	0.063375	1.000644
	H293	H	0.007696	0.066827	1.006452
	O294	O	1.031544	1.019392	0.050758
	H295	H	1.030978	1.021198	0.051545
	H296	H	1.022056	1.015598	0.055548
	O297	O	0.933452	1.002992	0.013295
	H298	H	0.929709	0.997685	0.015488
	H299	H	0.923806	1.006757	0.020106
	O300	O	0.590555	0.501499	0.550932
	H301	H	0.587226	0.497077	0.558200
	H302	H	0.591033	0.492875	0.545257
	O303	O	0.381100	0.384484	0.609260
	H304	H	0.389080	0.384251	0.615991
	H305	H	0.373551	0.377582	0.582380
	O306	O	0.348965	0.487295	0.421755
	H307	H	0.357007	0.488073	0.411630
	H308	H	0.346044	0.493898	0.410399
	O309	O	0.542655	0.470039	0.332879
	H310	H	0.539122	0.478538	0.348039
	H311	H	0.533031	0.472572	0.333776
	O312	O	1.296083	1.509828	0.402970
	H313	H	1.280568	1.519934	0.411217
	H314	H	1.293132	1.501729	0.409573
	O315	O	1.035066	0.943612	0.022959
	H316	H	1.035424	0.940191	0.033424
	H317	H	1.023334	0.944286	0.024793
	O318	O	0.562147	0.565826	0.651581
	H319	H	0.554623	0.572601	0.649827
	H320	H	0.555832	0.581964	0.652108
	O321	O	0.579994	0.660597	0.394776
	H322	H	0.584925	0.647481	0.400819
	H323	H	0.565822	0.668420	0.391599
	O324	O	-0.094755	1.038486	0.963000
	H325	H	-0.100088	1.036812	0.972350
	H326	H	-0.099130	1.039478	0.964838
	O327	O	-0.489376	0.469463	1.350796
	H328	H	-0.474588	0.454955	1.354062
	H329	H	-0.490248	0.466934	1.358517
	O330	O	-0.495423	0.470872	0.353923
	H331	H	-0.480053	0.472322	0.361812
	H332	H	-0.503821	0.457167	0.339097
	O333	O	0.470906	0.547253	0.636705
	H334	H	0.469884	0.535660	0.631936
	H335	H	0.465002	0.540995	0.627808
	O336	O	-0.058340	-0.011894	-0.075899
	H337	H	-0.046452	-0.029915	-0.082085
	H338	H	-0.051256	-0.009665	-0.074722
	O339	O	0.336733	0.313111	-0.393875
	H340	H	0.340157	0.314340	-0.416334
	H341	H	0.324667	0.296883	-0.379049
	O342	O	0.505577	0.638823	0.511410
	H343	H	0.516212	0.648766	0.524566
	H344	H	0.501849	0.624359	0.537243
	O345	O	0.397612	0.673752	0.539811
	H346	H	0.403047	0.660523	0.550452
	H347	H	0.396686	0.691841	0.529098
	O348	O	0.548226	0.556435	0.410292
	H349	H	0.550445	0.550910	0.419284
	H350	H	0.564504	0.573532	0.398593
	O351	O	0.619638	0.585626	0.699146
	H352	H	0.624958	0.588371	0.722433
	H353	H	0.609855	0.590118	0.689780
	O354	O	-0.050675	1.001419	-0.082724
	H355	H	-0.051266	0.994532	-0.079212
	H356	H	-0.052176	0.996322	-0.084776
	O357	O	-0.036411	0.028249	1.004333
	H358	H	-0.037916	0.034257	0.992018
	H359	H	-0.041767	0.028677	0.999491
	O360	O	0.944922	0.004046	0.933620
	H361	H	0.945085	-0.001864	0.932958
	H362	H	0.945996	0.005753	0.930858
	O363	O	0.660630	0.381205	0.418010
	H364	H	0.665576	0.370590	0.406112
	H365	H	0.663898	0.387762	0.424294
	O366	O	0.561315	0.358583	0.401563
	H367	H	0.564959	0.357450	0.404699
	H368	H	0.554436	0.373144	0.382768
	O369	O	0.947520	-0.000047	0.083724
	H370	H	0.933784	0.002887	0.090491
	H371	H	0.950426	-0.002915	0.069758
	O372	O	0.486890	0.575094	0.497130
	H373	H	0.476148	0.570373	0.492095
	H374	H	0.485680	0.580466	0.494034
	O375	O	0.925159	-0.077595	0.923920
	H376	H	0.936762	-0.079235	0.917924
	H377	H	0.929569	-0.089129	0.921910
	O378	O	0.520390	0.677328	0.676800
	H379	H	0.504622	0.660204	0.678237
	H380	H	0.512187	0.693423	0.689234
	O381	O	0.456462	0.468033	0.397052
	H382	H	0.463588	0.450716	0.404353
	H383	H	0.447211	0.480170	0.399531
	O384	O	1.501342	0.619980	0.631809
	H385	H	1.520188	0.633750	0.642220
	H386	H	1.514508	0.603394	0.616736
	O387	O	0.915869	0.024531	0.987843
	H388	H	0.918700	0.028151	0.979090
	H389	H	0.906417	0.023593	0.988002
	O390	O	0.972692	1.006519	0.088480
	H391	H	0.977915	1.013592	0.091218
	H392	H	0.962895	1.013013	0.085822
	O393	O	0.370485	0.596300	0.350361
	H394	H	0.355386	0.613023	0.348682
	H395	H	0.362059	0.580642	0.354076
