data_Molecule from HDF5

_cell_length_a		16.366290
_cell_length_b		16.338407
_cell_length_c		16.170078
_cell_angle_alpha	90.128777
_cell_angle_beta	90.058789
_cell_angle_gamma	90.090886
_symmetry_space_group_name_H-M	'P 1'
_symmetry_Int_Tables_number		1

loop_
	_symmetry_equiv_pos_as_xyz
	x,y,z

loop_
	_atom_site_label
	_atom_site_type_symbol
	_atom_site_fract_x
	_atom_site_fract_y
	_atom_site_fract_z
	H0	H	0.414602	0.838973	0.716019
	H1	H	0.607729	0.166525	0.716718
	H2	H	0.606377	0.839098	0.291237
	H3	H	0.413454	0.167000	0.289633
	H4	H	0.726075	0.405017	0.839108
	H5	H	0.726144	0.603126	0.167920
	H6	H	0.299147	0.601202	0.838100
	H7	H	0.296678	0.404975	0.166945
	H8	H	0.847694	0.717130	0.404921
	H9	H	0.172994	0.720977	0.604726
	H10	H	0.848396	0.288324	0.601598
	H11	H	0.173509	0.285811	0.402495
	H12	H	0.848149	0.406164	0.717285
	H13	H	0.174998	0.601179	0.717220
	H14	H	0.847717	0.599285	0.290862
	H15	H	0.175356	0.405521	0.289015
	H16	H	0.415259	0.715863	0.838024
	H17	H	0.610548	0.717645	0.167809
	H18	H	0.610827	0.289040	0.838969
	H19	H	0.412639	0.289324	0.168099
	H20	H	0.726372	0.840913	0.403335
	H21	H	0.727128	0.165893	0.603697
	H22	H	0.294389	0.841235	0.604336
	H23	H	0.294769	0.166138	0.403413
	H24	H	0.916255	0.339353	0.215049
	H25	H	0.109582	0.667314	0.218401
	H26	H	0.109040	0.339960	0.789532
	H27	H	0.916414	0.667067	0.791784
	H28	H	0.226180	0.904270	0.339186
	H29	H	0.226412	0.104039	0.668080
	H30	H	0.796663	0.102312	0.338923
	H31	H	0.796804	0.905220	0.668007
	H32	H	0.349863	0.219099	0.902078
	H33	H	0.674211	0.220408	0.104458
	H34	H	0.349429	0.786034	0.102964
	H35	H	0.674556	0.788335	0.904487
	H36	H	0.347821	0.906009	0.216338
	H37	H	0.675053	0.100780	0.218302
	H38	H	0.348304	0.098244	0.790629
	H39	H	0.675619	0.905949	0.789854
	H40	H	0.912643	0.217337	0.339337
	H41	H	0.109596	0.217728	0.668420
	H42	H	0.110303	0.788193	0.338677
	H43	H	0.912785	0.790148	0.668158
	H44	H	0.227073	0.341282	0.902959
	H45	H	0.228262	0.666672	0.103414
	H46	H	0.795682	0.341615	0.103513
	H47	H	0.797592	0.666097	0.904389
	H48	H	0.420928	0.117616	0.594854
	H49	H	0.609483	0.886581	0.591591
	H50	H	0.604248	0.120909	0.406976
	H51	H	0.421100	0.887882	0.406697
	H52	H	0.604150	0.407618	0.121181
	H53	H	0.600042	0.596185	0.886955
	H54	H	0.423790	0.599962	0.120265
	H55	H	0.414755	0.409508	0.884783
	H56	H	0.125133	0.594937	0.415008
	H57	H	0.893795	0.596191	0.603945
	H58	H	0.127553	0.410031	0.595962
	H59	H	0.896070	0.406626	0.411363
	H60	H	0.127158	0.410074	0.595904
	H61	H	0.893177	0.603368	0.595472
	H62	H	0.126890	0.594939	0.408289
	H63	H	0.896945	0.411375	0.411057
	H64	H	0.414601	0.596137	0.121860
	H65	H	0.609528	0.601540	0.883010
	H66	H	0.609249	0.413554	0.121271
	H67	H	0.421056	0.414036	0.887393
	H68	H	0.601895	0.117814	0.413968
	H69	H	0.606933	0.884487	0.600834
	H70	H	0.414176	0.119445	0.594400
	H71	H	0.419433	0.890075	0.416580
	H72	H	0.922648	0.617562	0.092163
	H73	H	0.114063	0.388595	0.085522
	H74	H	0.095423	0.618058	0.907232
	H75	H	0.919896	0.386633	0.908041
	H76	H	0.098789	0.911721	0.618749
	H77	H	0.114358	0.097756	0.383056
	H78	H	0.921432	0.096455	0.619868
	H79	H	0.912145	0.915504	0.386084
	H80	H	0.627122	0.092490	0.909170
	H81	H	0.397241	0.098682	0.089365
	H82	H	0.629589	0.902037	0.095241
	H83	H	0.395550	0.903588	0.913628
	H84	H	0.623830	0.914827	0.090854
	H85	H	0.397879	0.091689	0.097474
	H86	H	0.629717	0.100906	0.907008
	H87	H	0.397959	0.913469	0.911831
	H88	H	0.916531	0.098736	0.622331
	H89	H	0.100397	0.082137	0.391676
	H90	H	0.104728	0.907616	0.621639
	H91	H	0.924975	0.911528	0.389184
	H92	H	0.109940	0.617370	0.922435
	H93	H	0.108652	0.384259	0.107326
	H94	H	0.911138	0.621785	0.094893
	H95	H	0.918169	0.387350	0.913737
	H96	H	0.418386	0.120353	0.600949
	H97	H	0.600304	0.888676	0.594154
	H98	H	0.609229	0.120262	0.412784
	H99	H	0.412405	0.885813	0.411208
	H100	H	0.601533	0.414473	0.118693
	H101	H	0.610002	0.590480	0.886688
	H102	H	0.422156	0.590642	0.118026
	H103	H	0.421814	0.406340	0.885529
	H104	H	0.127596	0.600445	0.411817
	H105	H	0.897065	0.593229	0.593439
	H106	H	0.126622	0.410038	0.596242
	H107	H	0.895686	0.408886	0.407793
	H108	H	0.920562	0.621765	0.104122
	H109	H	0.093213	0.392867	0.092732
	H110	H	0.114845	0.624594	0.903106
	H111	H	0.914567	0.385297	0.909333
	H112	H	0.105574	0.915599	0.619866
	H113	H	0.093353	0.103474	0.387665
	H114	H	0.916648	0.093303	0.620906
	H115	H	0.916301	0.902543	0.382734
	H116	H	0.627030	0.099196	0.915962
	H117	H	0.394780	0.101377	0.099318
	H118	H	0.629062	0.912943	0.104733
	H119	H	0.394440	0.907490	0.904539
	C120	C	0.389803	0.011328	0.625199
	C121	C	0.633601	0.994488	0.624796
	C122	C	0.632799	0.011724	0.382149
	C123	C	0.388850	0.995333	0.382153
	C124	C	0.633327	0.382746	0.011932
	C125	C	0.634392	0.624912	0.994785
	C126	C	0.391746	0.624057	0.011171
	C127	C	0.390551	0.381832	0.994586
	C128	C	0.018822	0.624681	0.382661
	C129	C	1.002620	0.625972	0.626119
	C130	C	0.019353	0.382130	0.624685
	C131	C	1.003603	0.380762	0.381376
	C132	C	0.890126	0.512421	0.125403
	C133	C	0.134322	0.495669	0.125156
	C134	C	0.134457	0.512220	0.881729
	C135	C	0.890405	0.494607	0.882389
	C136	C	0.132171	0.882178	0.511539
	C137	C	0.132469	0.124483	0.495508
	C138	C	0.890053	0.124246	0.512007
	C139	C	0.889688	0.882100	0.495074
	C140	C	0.520279	0.124988	0.881702
	C141	C	0.504080	0.125418	0.124636
	C142	C	0.519725	0.881295	0.125199
	C143	C	0.503848	0.880542	0.881319
	C144	C	0.393183	0.888230	0.679371
	C145	C	0.629735	0.117644	0.679770
	C146	C	0.628469	0.888347	0.327789
	C147	C	0.392056	0.118106	0.327061
	C148	C	0.688096	0.385014	0.888005
	C149	C	0.688499	0.622983	0.118573
	C150	C	0.336989	0.621309	0.887122
	C151	C	0.334937	0.384271	0.118152
	C152	C	0.896410	0.679376	0.384934
	C153	C	0.124925	0.681951	0.624010
	C154	C	0.896900	0.326664	0.622259
	C155	C	0.125507	0.324785	0.382756
	C156	C	0.896808	0.385299	0.679543
	C157	C	0.125785	0.622603	0.680210
	C158	C	0.896210	0.620604	0.328268
	C159	C	0.126262	0.383971	0.326127
	C160	C	0.394633	0.678277	0.887074
	C161	C	0.631063	0.679928	0.118616
	C162	C	0.630550	0.327551	0.887964
	C163	C	0.392502	0.326948	0.118610
	C164	C	0.687860	0.889199	0.383576
	C165	C	0.688829	0.117200	0.623629
	C166	C	0.333664	0.889316	0.623633
	C167	C	0.333045	0.117608	0.383452
	C168	C	0.894151	0.388708	0.178800
	C169	C	0.131275	0.618363	0.180769
	C170	C	0.130056	0.389050	0.827028
	C171	C	0.894712	0.617931	0.828621
	C172	C	0.187982	0.883929	0.388141
	C173	C	0.188271	0.123529	0.618983
	C174	C	0.834888	0.122130	0.388090
	C175	C	0.834922	0.885006	0.618890
	C176	C	0.398253	0.180486	0.883036
	C177	C	0.626093	0.181254	0.123698
	C178	C	0.397683	0.824895	0.122945
	C179	C	0.626452	0.826457	0.883937
	C180	C	0.396869	0.884415	0.179388
	C181	C	0.626527	0.121907	0.180271
	C182	C	0.397341	0.120587	0.827412
	C183	C	0.626642	0.884838	0.826867
	C184	C	0.892356	0.179424	0.388274
	C185	C	0.130459	0.180301	0.619249
	C186	C	0.129964	0.826660	0.387729
	C187	C	0.892564	0.827874	0.618937
	C188	C	0.188979	0.389604	0.883074
	C189	C	0.190215	0.617965	0.123725
	C190	C	0.834552	0.389787	0.123207
	C191	C	0.835873	0.617510	0.884672
	C192	C	0.411591	0.096975	0.603112
	C193	C	0.611910	0.908821	0.602099
	C194	C	0.611428	0.097465	0.404615
	C195	C	0.411014	0.910019	0.404849
	C196	C	0.611453	0.405205	0.098303
	C197	C	0.612734	0.602727	0.907983
	C198	C	0.413646	0.602047	0.097729
	C199	C	0.412760	0.403641	0.908126
	C200	C	0.104567	0.603096	0.405189
	C201	C	0.916993	0.603987	0.603953
	C202	C	0.105187	0.403740	0.602449
	C203	C	0.918265	0.402482	0.403515
	C204	C	0.911796	0.598017	0.103568
	C205	C	0.112041	0.410532	0.101929
	C206	C	0.113216	0.597701	0.904397
	C207	C	0.911372	0.408675	0.903934
	C208	C	0.109543	0.904923	0.597815
	C209	C	0.109398	0.101377	0.409676
	C210	C	0.911938	0.102578	0.598661
	C211	C	0.911361	0.903455	0.408387
	C212	C	0.605931	0.103797	0.904064
	C213	C	0.418633	0.103530	0.102033
	C214	C	0.605438	0.903327	0.103368
	C215	C	0.418090	0.901734	0.903617
	Zn216	Zn	0.512146	0.002523	0.753228
	Zn217	Zn	0.511073	0.003459	0.253969
	Zn218	Zn	0.761509	0.503864	0.003536
	Zn219	Zn	0.263051	0.503679	0.002627
	Zn220	Zn	0.010687	0.753870	0.503275
	Zn221	Zn	0.011600	0.252069	0.503952
	Zn222	Zn	0.011839	0.503506	0.753983
	Zn223	Zn	0.011542	0.503683	0.253518
	Zn224	Zn	0.512591	0.752068	0.003424
	Zn225	Zn	0.512143	0.254615	0.003513
	Zn226	Zn	0.761826	0.003467	0.503017
	Zn227	Zn	0.260418	0.003812	0.503722
	N228	N	0.427428	0.965127	0.680292
	N229	N	0.596289	0.040379	0.680741
	N230	N	0.594789	0.965497	0.326868
	N231	N	0.426054	0.041157	0.325924
	N232	N	0.690069	0.418489	0.966135
	N233	N	0.690379	0.589340	0.040577
	N234	N	0.334898	0.588459	0.965453
	N235	N	0.333500	0.417471	0.040069
	N236	N	0.973912	0.681777	0.418033
	N237	N	0.047295	0.684219	0.591205
	N238	N	0.974210	0.324733	0.588766
	N239	N	0.048300	0.322496	0.416319
	N240	N	0.974010	0.418748	0.681201
	N241	N	0.048882	0.588550	0.681585
	N242	N	0.973412	0.587463	0.326636
	N243	N	0.049490	0.418085	0.325246
	N244	N	0.428093	0.679972	0.965125
	N245	N	0.598041	0.681263	0.040407
	N246	N	0.597007	0.326243	0.965926
	N247	N	0.426355	0.325289	0.040644
	N248	N	0.690857	0.966850	0.416359
	N249	N	0.691234	0.039744	0.590003
	N250	N	0.331124	0.966928	0.590775
	N251	N	0.331087	0.040273	0.416902
	N252	N	0.928121	0.465702	0.180127
	N253	N	0.097365	0.541353	0.182006
	N254	N	0.096721	0.466321	0.826107
	N255	N	0.928009	0.540778	0.827152
	N256	N	0.189361	0.917586	0.466102
	N257	N	0.189526	0.089426	0.541165
	N258	N	0.833426	0.088543	0.465973
	N259	N	0.833351	0.918400	0.540772
	N260	N	0.475873	0.183405	0.916100
	N261	N	0.548935	0.183336	0.090001
	N262	N	0.475214	0.822801	0.090106
	N263	N	0.549240	0.823700	0.917157
	N264	N	0.473612	0.918722	0.180872
	N265	N	0.549474	0.087736	0.180865
	N266	N	0.474110	0.086769	0.826396
	N267	N	0.549310	0.917876	0.825434
	N268	N	0.926070	0.180721	0.466318
	N269	N	0.096427	0.181064	0.541481
	N270	N	0.096085	0.825376	0.465670
	N271	N	0.925856	0.825842	0.540901
	N272	N	0.191845	0.466967	0.916411
	N273	N	0.191997	0.540686	0.089752
	N274	N	0.831778	0.467567	0.090734
	N275	N	0.833071	0.539924	0.917531
	O276	O	0.426017	0.542262	0.421634
	H277	H	0.427637	0.539477	0.421226
	H278	H	0.431725	0.540258	0.420348
	O279	O	0.123309	0.055223	0.047550
	H280	H	0.117327	0.049703	0.050518
	H281	H	0.120667	0.043183	0.060555
	O282	O	0.434948	0.502474	0.499142
	H283	H	0.440039	0.502853	0.502874
	H284	H	0.430195	0.509475	0.500893
	O285	O	0.433739	0.506009	0.471868
	H286	H	0.434929	0.506646	0.465704
	H287	H	0.426448	0.508160	0.467808
	O288	O	1.390151	0.533908	-0.546976
	H289	H	1.397185	0.532165	-0.549088
	H290	H	1.384729	0.529487	-0.551907
	O291	O	-0.844397	0.031444	0.032425
	H292	H	-0.838755	0.038758	0.040032
	H293	H	-0.847411	0.026487	0.024725
	O294	O	0.433240	0.570558	0.486122
	H295	H	0.425052	0.577943	0.472060
	H296	H	0.422654	0.572678	0.486712
	O297	O	0.129559	1.017771	-0.013352
	H298	H	0.140657	1.019971	-0.008895
	H299	H	0.141723	1.021815	-0.020761
	O300	O	0.453559	0.520635	0.460539
	H301	H	0.454214	0.525530	0.473549
	H302	H	0.456900	0.521967	0.464052
	O303	O	0.412517	0.514044	0.500151
	H304	H	0.405680	0.513899	0.498489
	H305	H	0.404685	0.508978	0.504117
	O306	O	0.101718	1.049481	1.043858
	H307	H	0.099840	1.059541	1.045520
	H308	H	0.102021	1.054433	1.055792
	O309	O	0.095204	0.020740	1.026658
	H310	H	0.094409	0.029940	1.021463
	H311	H	0.098126	0.017264	1.016285
