data_Molecule from HDF5

_cell_length_a		16.579428
_cell_length_b		16.348149
_cell_length_c		16.449652
_cell_angle_alpha	89.990394
_cell_angle_beta	89.986644
_cell_angle_gamma	90.038517
_symmetry_space_group_name_H-M	'P 1'
_symmetry_Int_Tables_number		1

loop_
	_symmetry_equiv_pos_as_xyz
	x,y,z

loop_
	_atom_site_label
	_atom_site_type_symbol
	_atom_site_fract_x
	_atom_site_fract_y
	_atom_site_fract_z
	H0	H	0.390798	0.845046	0.722102
	H1	H	0.602525	0.163449	0.723800
	H2	H	0.600942	0.844394	0.283563
	H3	H	0.390767	0.162068	0.278172
	H4	H	0.722785	0.393522	0.846393
	H5	H	0.718509	0.611230	0.158966
	H6	H	0.272450	0.612663	0.843465
	H7	H	0.275375	0.399756	0.159088
	H8	H	0.841013	0.729177	0.394300
	H9	H	0.153318	0.728165	0.608079
	H10	H	0.840713	0.281409	0.606997
	H11	H	0.153818	0.282829	0.394160
	H12	H	0.841335	0.395348	0.725670
	H13	H	0.151891	0.613578	0.726612
	H14	H	0.841278	0.613338	0.277426
	H15	H	0.152865	0.398923	0.277245
	H16	H	0.391177	0.726111	0.841926
	H17	H	0.599407	0.723576	0.160269
	H18	H	0.601780	0.281787	0.844205
	H19	H	0.395193	0.287005	0.161019
	H20	H	0.718401	0.847119	0.396464
	H21	H	0.720109	0.162925	0.609707
	H22	H	0.275414	0.845673	0.607349
	H23	H	0.272901	0.161915	0.392676
	H24	H	0.892006	0.345711	0.223376
	H25	H	0.097409	0.665080	0.218773
	H26	H	0.101277	0.345852	0.779486
	H27	H	0.890723	0.663897	0.782163
	H28	H	0.217192	0.898826	0.343722
	H29	H	0.218322	0.110303	0.659501
	H30	H	0.774489	0.112302	0.343810
	H31	H	0.772739	0.896236	0.657969
	H32	H	0.339890	0.226268	0.895099
	H33	H	0.655171	0.224597	0.105289
	H34	H	0.338818	0.786269	0.103195
	H35	H	0.655647	0.782898	0.898024
	H36	H	0.341136	0.898601	0.223871
	H37	H	0.655454	0.108986	0.222847
	H38	H	0.339312	0.107077	0.781039
	H39	H	0.653879	0.896095	0.777643
	H40	H	0.895341	0.223902	0.341763
	H41	H	0.101181	0.225645	0.659721
	H42	H	0.096740	0.786987	0.341971
	H43	H	0.891576	0.783873	0.659196
	H44	H	0.218377	0.345822	0.893609
	H45	H	0.217523	0.662568	0.107447
	H46	H	0.774291	0.346332	0.110756
	H47	H	0.774958	0.662768	0.897540
	H48	H	0.413506	0.115512	0.591270
	H49	H	0.584871	0.893023	0.586457
	H50	H	0.585572	0.119622	0.409908
	H51	H	0.410013	0.889221	0.406659
	H52	H	0.586351	0.406978	0.117695
	H53	H	0.585297	0.585415	0.891146
	H54	H	0.412479	0.588914	0.109938
	H55	H	0.403061	0.420006	0.887624
	H56	H	0.108458	0.595259	0.413172
	H57	H	0.884771	0.593603	0.590867
	H58	H	0.108405	0.416047	0.588886
	H59	H	0.885584	0.419240	0.410405
	H60	H	0.107089	0.419943	0.589903
	H61	H	0.884374	0.594082	0.591478
	H62	H	0.107127	0.592180	0.414557
	H63	H	0.883594	0.412686	0.412581
	H64	H	0.406137	0.600328	0.115822
	H65	H	0.582265	0.592777	0.890010
	H66	H	0.593793	0.420656	0.115682
	H67	H	0.411636	0.415884	0.890191
	H68	H	0.582954	0.117729	0.414381
	H69	H	0.587563	0.891847	0.589537
	H70	H	0.406149	0.115765	0.584593
	H71	H	0.411644	0.894186	0.418633
	H72	H	0.904088	0.618712	0.087882
	H73	H	0.084810	0.390942	0.089952
	H74	H	0.083147	0.616953	0.914494
	H75	H	0.909451	0.390536	0.911491
	H76	H	0.083278	0.912536	0.615555
	H77	H	0.081046	0.093261	0.391066
	H78	H	0.902720	0.088530	0.614211
	H79	H	0.902775	0.913095	0.384921
	H80	H	0.609438	0.093052	0.913224
	H81	H	0.386798	0.087158	0.092504
	H82	H	0.610734	0.912944	0.090834
	H83	H	0.387416	0.916515	0.914598
	H84	H	0.610466	0.915528	0.093668
	H85	H	0.383170	0.096224	0.096236
	H86	H	0.607664	0.091000	0.913702
	H87	H	0.385074	0.917412	0.908396
	H88	H	0.913408	0.090417	0.611240
	H89	H	0.090173	0.099179	0.385450
	H90	H	0.092078	0.916102	0.616522
	H91	H	0.904912	0.924701	0.390372
	H92	H	0.085672	0.617151	0.915599
	H93	H	0.085939	0.390367	0.089488
	H94	H	0.908494	0.618585	0.093110
	H95	H	0.910051	0.392500	0.916683
	H96	H	0.405358	0.120494	0.593220
	H97	H	0.583728	0.892426	0.590144
	H98	H	0.588446	0.118988	0.414929
	H99	H	0.400015	0.889109	0.414885
	H100	H	0.579119	0.419300	0.111690
	H101	H	0.590050	0.591104	0.888147
	H102	H	0.398660	0.588432	0.113663
	H103	H	0.404794	0.410759	0.885324
	H104	H	0.108382	0.592335	0.411000
	H105	H	0.883994	0.594303	0.590762
	H106	H	0.109259	0.417522	0.592608
	H107	H	0.887606	0.416944	0.416781
	H108	H	0.909833	0.616523	0.087211
	H109	H	0.085970	0.390389	0.090883
	H110	H	0.085047	0.617375	0.913082
	H111	H	0.905657	0.390135	0.914605
	H112	H	0.085227	0.921831	0.613355
	H113	H	0.091364	0.087864	0.388963
	H114	H	0.907689	0.099034	0.616020
	H115	H	0.914157	0.915985	0.390567
	H116	H	0.608371	0.091575	0.911164
	H117	H	0.386423	0.095587	0.086075
	H118	H	0.611204	0.912175	0.094330
	H119	H	0.385128	0.911129	0.911065
	C120	C	0.375932	0.012296	0.622487
	C121	C	0.618294	0.996690	0.622689
	C122	C	0.617605	0.013435	0.381193
	C123	C	0.375093	0.995674	0.380197
	C124	C	0.618815	0.382320	0.010843
	C125	C	0.617428	0.623551	0.993696
	C126	C	0.373676	0.625862	0.008924
	C127	C	0.374876	0.383069	0.992387
	C128	C	0.005017	0.626576	0.380185
	C129	C	0.987900	0.627256	0.623964
	C130	C	0.005466	0.383043	0.623442
	C131	C	0.988549	0.383430	0.379708
	C132	C	0.875282	0.513113	0.123286
	C133	C	0.116813	0.496017	0.121947
	C134	C	0.117552	0.512877	0.880393
	C135	C	0.875463	0.495898	0.881605
	C136	C	0.118039	0.883921	0.510407
	C137	C	0.119186	0.125901	0.493112
	C138	C	0.875683	0.125798	0.509464
	C139	C	0.874970	0.884334	0.492672
	C140	C	0.504930	0.124735	0.880346
	C141	C	0.489726	0.125305	0.123430
	C142	C	0.506470	0.882141	0.124041
	C143	C	0.489277	0.881656	0.879030
	C144	C	0.373193	0.892930	0.682437
	C145	C	0.621048	0.115672	0.683916
	C146	C	0.619179	0.892877	0.322703
	C147	C	0.372318	0.114561	0.318734
	C148	C	0.681404	0.376724	0.893011
	C149	C	0.678012	0.628139	0.112016
	C150	C	0.313296	0.629461	0.890395
	C151	C	0.315793	0.381494	0.111867
	C152	C	0.887509	0.687968	0.376818
	C153	C	0.105757	0.688488	0.626754
	C154	C	0.887901	0.321589	0.625440
	C155	C	0.106723	0.322932	0.376399
	C156	C	0.888092	0.378333	0.684650
	C157	C	0.105212	0.630935	0.685468
	C158	C	0.887722	0.630373	0.318644
	C159	C	0.106022	0.380634	0.318074
	C160	C	0.372601	0.685969	0.889780
	C161	C	0.618571	0.684048	0.112511
	C162	C	0.621031	0.321431	0.891895
	C163	C	0.375029	0.325046	0.112803
	C164	C	0.677786	0.894047	0.378866
	C165	C	0.679500	0.115509	0.626930
	C166	C	0.315541	0.893150	0.625223
	C167	C	0.313748	0.114402	0.375807
	C168	C	0.873350	0.393751	0.183730
	C169	C	0.117598	0.616526	0.180453
	C170	C	0.119933	0.393679	0.819299
	C171	C	0.872477	0.615688	0.821556
	C172	C	0.176987	0.881253	0.391027
	C173	C	0.178402	0.128570	0.612247
	C174	C	0.815002	0.129583	0.390872
	C175	C	0.813928	0.879849	0.611075
	C176	C	0.387012	0.185550	0.877525
	C177	C	0.607917	0.185178	0.124393
	C178	C	0.387053	0.824502	0.123549
	C179	C	0.608003	0.821993	0.878062
	C180	C	0.388081	0.880728	0.183438
	C181	C	0.607923	0.127665	0.183096
	C182	C	0.386695	0.126550	0.820300
	C183	C	0.607127	0.878445	0.818326
	C184	C	0.875200	0.185193	0.389889
	C185	C	0.120196	0.185958	0.612298
	C186	C	0.117120	0.825574	0.390123
	C187	C	0.872768	0.823488	0.611537
	C188	C	0.178154	0.393696	0.876237
	C189	C	0.176663	0.615433	0.124399
	C190	C	0.814752	0.393765	0.127371
	C191	C	0.814975	0.615239	0.879208
	C192	C	0.401303	0.095502	0.596889
	C193	C	0.592700	0.913968	0.596379
	C194	C	0.592707	0.096911	0.405823
	C195	C	0.400159	0.912486	0.405957
	C196	C	0.593590	0.408203	0.093267
	C197	C	0.592680	0.597172	0.911114
	C198	C	0.398563	0.600091	0.091712
	C199	C	0.399432	0.408271	0.909229
	C200	C	0.086716	0.600679	0.405752
	C201	C	0.905906	0.601345	0.598360
	C202	C	0.087230	0.409859	0.597774
	C203	C	0.906864	0.408994	0.405726
	C204	C	0.900257	0.596326	0.096969
	C205	C	0.092556	0.412332	0.097064
	C206	C	0.091827	0.595602	0.906755
	C207	C	0.901194	0.412602	0.907033
	C208	C	0.093842	0.909341	0.593474
	C209	C	0.094671	0.100537	0.409980
	C210	C	0.900590	0.099894	0.592424
	C211	C	0.900141	0.910397	0.410213
	C212	C	0.587123	0.099366	0.905416
	C213	C	0.406921	0.100116	0.098668
	C214	C	0.589233	0.906459	0.099787
	C215	C	0.407441	0.907342	0.904139
	Zn216	Zn	0.497095	0.003780	0.750431
	Zn217	Zn	0.497913	0.004672	0.252811
	Zn218	Zn	0.747150	0.503383	0.002554
	Zn219	Zn	0.245731	0.503798	0.000865
	Zn220	Zn	-0.003580	0.755754	0.501431
	Zn221	Zn	-0.002278	0.254122	0.500958
	Zn222	Zn	-0.004336	0.504994	0.752690
	Zn223	Zn	-0.003254	0.505581	0.251023
	Zn224	Zn	0.497163	0.753026	0.001062
	Zn225	Zn	0.496654	0.254664	0.001626
	Zn226	Zn	0.746534	0.005313	0.501165
	Zn227	Zn	0.247322	0.004578	0.502066
	N228	N	0.410440	0.968071	0.680558
	N229	N	0.583706	0.040620	0.681480
	N230	N	0.582427	0.968264	0.324033
	N231	N	0.409698	0.039707	0.321322
	N232	N	0.680374	0.413715	0.968064
	N233	N	0.677320	0.590992	0.037090
	N234	N	0.313668	0.592913	0.965670
	N235	N	0.315239	0.416447	0.035772
	N236	N	0.961222	0.685449	0.414741
	N237	N	0.031549	0.686486	0.589354
	N238	N	0.962073	0.324324	0.588176
	N239	N	0.032761	0.324449	0.414059
	N240	N	0.962089	0.416151	0.683514
	N241	N	0.030662	0.594056	0.684177
	N242	N	0.961720	0.592641	0.320733
	N243	N	0.031742	0.417646	0.320188
	N244	N	0.409503	0.683766	0.964388
	N245	N	0.581569	0.681193	0.037925
	N246	N	0.583084	0.324864	0.965877
	N247	N	0.410941	0.325935	0.037472
	N248	N	0.676987	0.969839	0.414508
	N249	N	0.677972	0.040458	0.589687
	N250	N	0.317238	0.968469	0.588349
	N251	N	0.315441	0.039351	0.413456
	N252	N	0.910099	0.468950	0.181350
	N253	N	0.080958	0.541226	0.178930
	N254	N	0.083020	0.468955	0.821645
	N255	N	0.909321	0.540339	0.823016
	N256	N	0.177804	0.916533	0.466865
	N257	N	0.178228	0.092560	0.536892
	N258	N	0.815229	0.093667	0.466554
	N259	N	0.815243	0.916998	0.536134
	N260	N	0.461634	0.184762	0.913957
	N261	N	0.533245	0.183949	0.088339
	N262	N	0.461673	0.825112	0.087384
	N263	N	0.533627	0.823583	0.914700
	N264	N	0.463553	0.915377	0.184225
	N265	N	0.533198	0.091216	0.182478
	N266	N	0.461074	0.089579	0.821915
	N267	N	0.532186	0.914292	0.818329
	N268	N	0.912398	0.182826	0.464500
	N269	N	0.084164	0.184376	0.537061
	N270	N	0.081199	0.827133	0.465440
	N271	N	0.910121	0.826124	0.537058
	N272	N	0.176925	0.468986	0.913361
	N273	N	0.176172	0.539508	0.088515
	N274	N	0.815897	0.469128	0.090381
	N275	N	0.816486	0.539562	0.915557
	O276	O	0.466379	0.500203	0.546913
	H277	H	0.466508	0.500526	0.538471
	H278	H	0.472476	0.517685	0.546154
	O279	O	1.154684	0.137037	1.190270
	H280	H	1.165458	0.114596	1.204837
	H281	H	1.135757	0.145333	1.189931
	O282	O	0.467174	0.300731	0.709599
	H283	H	0.476174	0.316244	0.727499
	H284	H	0.479051	0.297353	0.724079
	O285	O	0.534291	0.462252	0.725734
	H286	H	0.562852	0.485468	0.727069
	H287	H	0.532781	0.476977	0.720961
	O288	O	0.788384	1.212599	-0.026160
	H289	H	0.780299	1.224617	-0.037785
	H290	H	0.788195	1.228324	-0.035295
	O291	O	0.396462	0.527146	0.541227
	H292	H	0.393227	0.511470	0.542386
	H293	H	0.399937	0.516678	0.551982
	O294	O	-0.014675	0.091473	1.202940
	H295	H	-0.017572	0.098590	1.204760
	H296	H	-0.013784	0.090659	1.210174
	O297	O	0.502897	0.690023	0.522547
	H298	H	0.499603	0.684523	0.532057
	H299	H	0.493833	0.691032	0.508377
	O300	O	0.291691	0.698123	0.349467
	H301	H	0.294001	0.685530	0.360401
	H302	H	0.296800	0.682851	0.358627
	O303	O	0.004874	0.806746	0.217067
	H304	H	0.010387	0.788894	0.225395
	H305	H	0.010070	0.801117	0.205473
	O306	O	0.563692	0.346730	0.423752
	H307	H	0.565858	0.342974	0.432253
	H308	H	0.581684	0.349526	0.420143
	O309	O	0.592744	0.308578	0.406113
	H310	H	0.588166	0.302792	0.409120
	H311	H	0.597339	0.312592	0.418944
	O312	O	0.001232	1.139429	1.077453
	H313	H	-0.013257	1.138716	1.079244
	H314	H	-0.001192	1.136670	1.085108
	O315	O	0.697848	0.610694	0.400824
	H316	H	0.706436	0.610355	0.401982
	H317	H	0.699518	0.607964	0.402636
	O318	O	1.192176	-0.059002	-0.169643
	H319	H	1.192957	-0.024646	-0.158411
	H320	H	1.169209	-0.050514	-0.181907
	O321	O	0.122935	-0.171238	-0.128916
	H322	H	0.133232	-0.163058	-0.131077
	H323	H	0.118297	-0.166615	-0.140605
	O324	O	0.704957	0.394681	0.403872
	H325	H	0.688890	0.405723	0.417085
	H326	H	0.717954	0.385564	0.388922
	O327	O	0.371167	0.289913	0.526353
	H328	H	0.368294	0.289951	0.550652
	H329	H	0.352803	0.278606	0.539762
	O330	O	-0.065501	0.935793	0.031376
	H331	H	-0.051216	0.941076	0.047734
	H332	H	-0.076539	0.950813	0.012995
	O333	O	1.019172	-0.021662	0.817648
	H334	H	1.027862	-0.007540	0.823293
	H335	H	1.010514	-0.037671	0.806856
	O336	O	-0.205751	0.092370	-0.203896
	H337	H	-0.197753	0.096338	-0.214898
	H338	H	-0.213042	0.078130	-0.226495
	O339	O	-0.083457	1.017706	0.972733
	H340	H	-0.070382	1.031913	0.971705
	H341	H	-0.086722	1.038921	0.973775
	O342	O	0.099718	0.833002	1.128448
	H343	H	0.119316	0.820951	1.124347
	H344	H	0.093146	0.841961	1.110525
	O345	O	0.853716	0.951522	0.182744
	H346	H	0.859265	0.940501	0.160694
	H347	H	0.845314	0.949522	0.196530
	O348	O	0.297314	0.704081	0.515080
	H349	H	0.305492	0.694657	0.505165
	H350	H	0.282984	0.720916	0.513515
	O351	O	-0.055152	0.902655	1.082859
	H352	H	-0.022421	0.902197	1.078091
	H353	H	-0.059145	0.908763	1.077644
	O354	O	-0.048603	1.075906	0.149436
	H355	H	-0.058533	1.074067	0.151232
	H356	H	-0.035093	1.065619	0.140565
	O357	O	0.126878	-0.065103	1.008754
	H358	H	0.132932	-0.085392	1.029942
	H359	H	0.111865	-0.056254	1.000615
	O360	O	0.523192	0.714476	0.716530
	H361	H	0.512444	0.718040	0.705226
	H362	H	0.529033	0.737641	0.733732
	O363	O	0.176693	-0.081405	0.988785
	H364	H	0.170910	-0.069741	0.965649
	H365	H	0.191227	-0.106233	0.996134
	O366	O	0.521223	0.559682	0.286178
	H367	H	0.531781	0.563103	0.284398
	H368	H	0.513679	0.574584	0.272844
	O369	O	0.446201	0.678868	0.568010
	H370	H	0.448126	0.660530	0.568852
	H371	H	0.439194	0.676400	0.574946
	O372	O	1.028702	-0.023275	0.992311
	H373	H	1.040782	-0.026111	0.993680
	H374	H	1.036218	-0.020712	0.974728
	O375	O	0.305158	0.314274	0.692291
	H376	H	0.324639	0.342273	0.700100
	H377	H	0.317124	0.304048	0.682024
	O378	O	0.686516	0.686910	0.697266
	H379	H	0.688179	0.679053	0.670026
	H380	H	0.658960	0.689953	0.696774
	O381	O	0.619496	0.549746	0.341751
	H382	H	0.640318	0.544711	0.330423
	H383	H	0.612166	0.547577	0.339327
	O384	O	0.688032	0.330859	0.335762
	H385	H	0.687916	0.329948	0.355345
	H386	H	0.696721	0.342738	0.342693
	O387	O	0.214547	0.219223	1.027045
	H388	H	0.213910	0.225114	1.059006
	H389	H	0.228693	0.241882	1.041217
	O390	O	0.191177	0.009738	0.198491
	H391	H	0.200148	-0.003865	0.194643
	H392	H	0.210023	0.008437	0.203393
	O393	O	1.029220	1.076797	0.819522
	H394	H	1.031110	1.066957	0.825050
	H395	H	1.024608	1.063898	0.823737
	O396	O	0.922304	0.148692	-0.181116
	H397	H	0.942393	0.132588	-0.178597
	H398	H	0.929799	0.156182	-0.189130
	O399	O	0.790730	-0.208912	1.120474
	H400	H	0.794789	-0.214210	1.115640
	H401	H	0.798401	-0.191771	1.107505
	O402	O	1.577147	0.304872	0.591758
	H403	H	1.577437	0.296950	0.619934
	H404	H	1.565498	0.307388	0.580508
	O405	O	1.028022	0.827754	-0.094425
	H406	H	1.030342	0.825260	-0.093075
	H407	H	1.019070	0.828545	-0.105761
	O408	O	0.958620	-0.061418	-0.158143
	H409	H	0.957937	-0.062992	-0.147982
	H410	H	0.948030	-0.047054	-0.144476
	O411	O	1.161630	1.126092	-0.080281
	H412	H	1.164453	1.132752	-0.055999
	H413	H	1.177532	1.134259	-0.072158
	O414	O	0.419989	0.294793	0.401255
	H415	H	0.422144	0.292318	0.422947
	H416	H	0.427429	0.299283	0.387595
	O417	O	0.708183	0.711496	0.520867
	H418	H	0.716822	0.730797	0.524065
	H419	H	0.713423	0.699573	0.505402
	O420	O	0.483315	0.704762	0.298128
	H421	H	0.484162	0.726638	0.283504
	H422	H	0.464941	0.700876	0.306635
	O423	O	0.332614	0.516350	0.518466
	H424	H	0.341914	0.515639	0.506924
	H425	H	0.333517	0.506403	0.508706
	O426	O	0.709342	0.457768	0.561965
	H427	H	0.700709	0.454389	0.544449
	H428	H	0.713566	0.472002	0.581119
	O429	O	0.320046	0.555186	0.333525
	H430	H	0.311264	0.549274	0.340019
	H431	H	0.343193	0.551921	0.327606
	O432	O	0.473876	0.492277	0.427521
	H433	H	0.475210	0.499441	0.423527
	H434	H	0.473070	0.491479	0.427485
	O435	O	0.282572	0.480101	0.714074
	H436	H	0.287727	0.474230	0.698328
	H437	H	0.256530	0.484471	0.737037
	O438	O	-0.132831	0.117741	-0.199127
	H439	H	-0.131497	0.112515	-0.174828
	H440	H	-0.100788	0.114903	-0.195355
	O441	O	0.958836	-0.100103	0.006840
	H442	H	0.951545	-0.106058	0.010151
	H443	H	0.958042	-0.093182	-0.001661
	O444	O	-0.100815	1.137425	1.095016
	H445	H	-0.108716	1.134902	1.099757
	H446	H	-0.097198	1.125564	1.100942
	O447	O	0.712814	0.521865	0.714232
	H448	H	0.718644	0.539622	0.708523
	H449	H	0.729085	0.521178	0.730856
	O450	O	0.418102	0.424758	0.379590
	H451	H	0.427999	0.436876	0.367757
	H452	H	0.435821	0.429026	0.384445
	O453	O	0.271036	0.395452	0.459721
	H454	H	0.270802	0.382398	0.438879
	H455	H	0.264977	0.367222	0.464034
