data_Molecule from HDF5

_cell_length_a		16.215178
_cell_length_b		16.190733
_cell_length_c		16.364214
_cell_angle_alpha	89.981281
_cell_angle_beta	90.220287
_cell_angle_gamma	89.859038
_symmetry_space_group_name_H-M	'P 1'
_symmetry_Int_Tables_number		1

loop_
	_symmetry_equiv_pos_as_xyz
	x,y,z

loop_
	_atom_site_label
	_atom_site_type_symbol
	_atom_site_fract_x
	_atom_site_fract_y
	_atom_site_fract_z
	H0	H	0.411775	0.835207	0.710505
	H1	H	0.612716	0.162925	0.711874
	H2	H	0.611547	0.835471	0.280638
	H3	H	0.410435	0.163157	0.279628
	H4	H	0.725955	0.398109	0.834412
	H5	H	0.726096	0.596841	0.159653
	H6	H	0.294060	0.599915	0.833332
	H7	H	0.297620	0.401143	0.159194
	H8	H	0.847046	0.713810	0.398410
	H9	H	0.175799	0.713310	0.595824
	H10	H	0.846642	0.286477	0.593557
	H11	H	0.176363	0.286306	0.400293
	H12	H	0.847144	0.399953	0.711062
	H13	H	0.174398	0.600461	0.714293
	H14	H	0.847065	0.600671	0.280515
	H15	H	0.175802	0.399968	0.282076
	H16	H	0.410607	0.716165	0.834070
	H17	H	0.610988	0.713819	0.159489
	H18	H	0.610282	0.283826	0.834309
	H19	H	0.414107	0.284636	0.159844
	H20	H	0.725717	0.835091	0.396922
	H21	H	0.723288	0.164320	0.592400
	H22	H	0.298189	0.834428	0.592324
	H23	H	0.297835	0.164785	0.397755
	H24	H	0.913246	0.335074	0.210773
	H25	H	0.109461	0.663987	0.210692
	H26	H	0.111172	0.335499	0.782403
	H27	H	0.908269	0.662417	0.780028
	H28	H	0.224213	0.901395	0.332300
	H29	H	0.228022	0.100400	0.658152
	H30	H	0.796314	0.098850	0.332436
	H31	H	0.796254	0.900781	0.658323
	H32	H	0.348140	0.213359	0.898529
	H33	H	0.676812	0.209831	0.093660
	H34	H	0.347556	0.785478	0.093949
	H35	H	0.676528	0.784640	0.898688
	H36	H	0.348263	0.898340	0.211727
	H37	H	0.674285	0.100596	0.213214
	H38	H	0.348198	0.100623	0.780481
	H39	H	0.675027	0.898050	0.780345
	H40	H	0.913101	0.214367	0.332438
	H41	H	0.109994	0.214487	0.659485
	H42	H	0.109377	0.784205	0.333286
	H43	H	0.911919	0.784504	0.658580
	H44	H	0.225125	0.335429	0.898049
	H45	H	0.226164	0.664062	0.096064
	H46	H	0.801248	0.333530	0.093035
	H47	H	0.795767	0.662722	0.898673
	H48	H	0.416354	0.116113	0.586409
	H49	H	0.604252	0.882239	0.589536
	H50	H	0.602764	0.114269	0.407812
	H51	H	0.416342	0.881581	0.404341
	H52	H	0.601951	0.400012	0.113810
	H53	H	0.605460	0.594599	0.879894
	H54	H	0.417261	0.593243	0.112942
	H55	H	0.421374	0.409632	0.882602
	H56	H	0.128143	0.593446	0.406801
	H57	H	0.890794	0.602698	0.589566
	H58	H	0.128903	0.407734	0.593028
	H59	H	0.891070	0.399494	0.400284
	H60	H	0.129191	0.405588	0.589982
	H61	H	0.899362	0.586951	0.578430
	H62	H	0.126275	0.586945	0.403610
	H63	H	0.896997	0.409498	0.410498
	H64	H	0.417777	0.590418	0.110746
	H65	H	0.606012	0.587429	0.880575
	H66	H	0.612538	0.403134	0.115355
	H67	H	0.419805	0.401527	0.879533
	H68	H	0.607002	0.118089	0.401050
	H69	H	0.603075	0.881766	0.588954
	H70	H	0.417592	0.117722	0.591586
	H71	H	0.417466	0.881132	0.399600
	H72	H	0.917464	0.618221	0.094075
	H73	H	0.110097	0.380407	0.088807
	H74	H	0.092997	0.612878	0.906377
	H75	H	0.922214	0.383653	0.907790
	H76	H	0.104649	0.905154	0.612387
	H77	H	0.098092	0.090828	0.382699
	H78	H	0.914694	0.087974	0.611166
	H79	H	0.920788	0.912809	0.381957
	H80	H	0.627050	0.082025	0.900485
	H81	H	0.394154	0.095465	0.084690
	H82	H	0.629772	0.901001	0.086323
	H83	H	0.395067	0.914114	0.895808
	H84	H	0.625999	0.911817	0.086410
	H85	H	0.395858	0.086648	0.087567
	H86	H	0.633195	0.096321	0.896019
	H87	H	0.392732	0.899167	0.902434
	H88	H	0.923926	0.093644	0.610355
	H89	H	0.104223	0.100296	0.378679
	H90	H	0.107151	0.907691	0.611614
	H91	H	0.922792	0.900956	0.380057
	H92	H	0.106396	0.616040	0.911495
	H93	H	0.102882	0.381667	0.095992
	H94	H	0.922498	0.614715	0.088098
	H95	H	0.913409	0.379899	0.903929
	H96	H	0.421739	0.115332	0.588830
	H97	H	0.603896	0.882016	0.587894
	H98	H	0.598468	0.116392	0.400507
	H99	H	0.421078	0.883323	0.402410
	H100	H	0.605043	0.410112	0.111204
	H101	H	0.599259	0.590694	0.882127
	H102	H	0.420285	0.592892	0.111906
	H103	H	0.413116	0.407841	0.879531
	H104	H	0.129245	0.592673	0.399722
	H105	H	0.894475	0.583618	0.598813
	H106	H	0.127716	0.408704	0.589812
	H107	H	0.894816	0.414011	0.395806
	H108	H	0.914444	0.617541	0.086125
	H109	H	0.100179	0.384977	0.086109
	H110	H	0.102682	0.619238	0.897383
	H111	H	0.921482	0.380629	0.897534
	H112	H	0.103632	0.908814	0.610670
	H113	H	0.109303	0.090004	0.379018
	H114	H	0.914850	0.098669	0.613981
	H115	H	0.911223	0.905785	0.377362
	H116	H	0.627568	0.094211	0.910718
	H117	H	0.392468	0.092346	0.093317
	H118	H	0.629775	0.907584	0.096572
	H119	H	0.399422	0.911516	0.911425
	C120	C	0.389707	0.007976	0.617245
	C121	C	0.632687	0.990631	0.617242
	C122	C	0.632180	0.007837	0.374376
	C123	C	0.389296	0.991004	0.373725
	C124	C	0.634389	0.376235	0.005616
	C125	C	0.632809	0.619823	0.988376
	C126	C	0.388704	0.621667	0.004480
	C127	C	0.389855	0.377691	0.988384
	C128	C	0.019381	0.620519	0.374917
	C129	C	1.003056	0.620585	0.618454
	C130	C	0.019958	0.378585	0.618633
	C131	C	1.003025	0.378630	0.374798
	C132	C	0.890222	0.507810	0.117787
	C133	C	0.133001	0.491037	0.118741
	C134	C	0.131147	0.508157	0.875931
	C135	C	0.889073	0.490088	0.874315
	C136	C	0.133229	0.877926	0.504191
	C137	C	0.132976	0.122089	0.487684
	C138	C	0.889008	0.122137	0.503840
	C139	C	0.889822	0.877935	0.487533
	C140	C	0.520867	0.120791	0.874075
	C141	C	0.502967	0.120038	0.117272
	C142	C	0.520128	0.877993	0.117830
	C143	C	0.503707	0.878063	0.874529
	C144	C	0.391631	0.884187	0.672571
	C145	C	0.631476	0.114086	0.672905
	C146	C	0.630942	0.884575	0.318805
	C147	C	0.390742	0.114320	0.317993
	C148	C	0.688559	0.378485	0.883092
	C149	C	0.688749	0.617812	0.110761
	C150	C	0.332008	0.620331	0.882342
	C151	C	0.335128	0.380044	0.110631
	C152	C	0.895964	0.675854	0.377695
	C153	C	0.126587	0.675992	0.616473
	C154	C	0.895942	0.323729	0.615038
	C155	C	0.127092	0.323761	0.379029
	C156	C	0.896124	0.380254	0.673340
	C157	C	0.125917	0.620003	0.675448
	C158	C	0.896217	0.619932	0.318925
	C159	C	0.126875	0.380490	0.320511
	C160	C	0.390310	0.677644	0.882341
	C161	C	0.630936	0.675485	0.110961
	C162	C	0.631327	0.321133	0.883116
	C163	C	0.393137	0.322086	0.110780
	C164	C	0.688032	0.884348	0.376393
	C165	C	0.687216	0.114601	0.614128
	C166	C	0.334982	0.883907	0.614029
	C167	C	0.334655	0.115090	0.376618
	C168	C	0.892915	0.383968	0.172805
	C169	C	0.130470	0.614912	0.173419
	C170	C	0.130474	0.384427	0.820727
	C171	C	0.889365	0.613415	0.818532
	C172	C	0.187084	0.880475	0.381167
	C173	C	0.189130	0.119878	0.609890
	C174	C	0.833874	0.119416	0.381350
	C175	C	0.834454	0.880319	0.609858
	C176	C	0.397127	0.175816	0.877659
	C177	C	0.627110	0.173963	0.114857
	C178	C	0.396585	0.822888	0.114658
	C179	C	0.627258	0.822227	0.877848
	C180	C	0.397023	0.879186	0.173221
	C181	C	0.625914	0.118946	0.173853
	C182	C	0.397247	0.119933	0.818575
	C183	C	0.626573	0.878331	0.818766
	C184	C	0.891744	0.177216	0.381424
	C185	C	0.130705	0.176869	0.610471
	C186	C	0.130197	0.822288	0.381822
	C187	C	0.891992	0.822467	0.609981
	C188	C	0.187395	0.384555	0.877803
	C189	C	0.188094	0.614986	0.116112
	C190	C	0.836965	0.383328	0.114419
	C191	C	0.833350	0.613533	0.877308
	C192	C	0.412029	0.094148	0.595437
	C193	C	0.610448	0.904405	0.595303
	C194	C	0.609191	0.094009	0.396607
	C195	C	0.411588	0.904367	0.395751
	C196	C	0.612896	0.398043	0.091302
	C197	C	0.610044	0.597482	0.903056
	C198	C	0.411615	0.599028	0.089745
	C199	C	0.411734	0.399853	0.902753
	C200	C	0.105776	0.597746	0.397125
	C201	C	0.917075	0.597737	0.595583
	C202	C	0.106117	0.400825	0.597186
	C203	C	0.916630	0.401155	0.395885
	C204	C	0.911802	0.594535	0.095921
	C205	C	0.110924	0.404831	0.096748
	C206	C	0.107612	0.593882	0.898449
	C207	C	0.912207	0.403625	0.896606
	C208	C	0.111610	0.900550	0.589435
	C209	C	0.110534	0.100141	0.402162
	C210	C	0.911327	0.099910	0.589734
	C211	C	0.911717	0.899827	0.401817
	C212	C	0.607147	0.097625	0.895923
	C213	C	0.416548	0.098050	0.094988
	C214	C	0.606375	0.900321	0.096267
	C215	C	0.417936	0.901375	0.896578
	Zn216	Zn	0.511767	-0.000755	0.745499
	Zn217	Zn	0.510845	-0.000372	0.246004
	Zn218	Zn	0.762378	0.498213	-0.003121
	Zn219	Zn	0.260023	0.499676	-0.003592
	Zn220	Zn	0.011583	0.748690	0.496841
	Zn221	Zn	0.010971	0.250772	0.496443
	Zn222	Zn	0.011219	0.499536	0.747142
	Zn223	Zn	0.010981	0.499739	0.246111
	Zn224	Zn	0.511901	0.749390	-0.003717
	Zn225	Zn	0.512617	0.248368	-0.003614
	Zn226	Zn	0.760639	-0.000661	0.495743
	Zn227	Zn	0.261291	-0.000351	0.495233
	N228	N	0.424834	0.962375	0.674727
	N229	N	0.598429	0.036065	0.674972
	N230	N	0.596805	0.962599	0.317431
	N231	N	0.423706	0.036055	0.315903
	N232	N	0.690742	0.412083	0.960275
	N233	N	0.689996	0.583882	0.033720
	N234	N	0.330838	0.586343	0.959383
	N235	N	0.332876	0.413606	0.033490
	N236	N	0.973599	0.676471	0.411631
	N237	N	0.048941	0.676722	0.581993
	N238	N	0.973648	0.322660	0.581591
	N239	N	0.049300	0.322669	0.412231
	N240	N	0.974160	0.413571	0.675768
	N241	N	0.048207	0.586263	0.676660
	N242	N	0.974178	0.586064	0.317139
	N243	N	0.048626	0.413628	0.317606
	N244	N	0.424759	0.678707	0.959275
	N245	N	0.596982	0.676911	0.033748
	N246	N	0.598155	0.319698	0.960258
	N247	N	0.426496	0.320314	0.033486
	N248	N	0.688889	0.961974	0.410109
	N249	N	0.687963	0.036855	0.579827
	N250	N	0.333728	0.961689	0.580220
	N251	N	0.333689	0.037228	0.410466
	N252	N	0.925205	0.462325	0.175025
	N253	N	0.096938	0.536981	0.175165
	N254	N	0.096212	0.462186	0.819319
	N255	N	0.923296	0.535373	0.816599
	N256	N	0.189243	0.914201	0.458266
	N257	N	0.190751	0.086686	0.532493
	N258	N	0.832206	0.085857	0.458617
	N259	N	0.833067	0.914188	0.532717
	N260	N	0.474946	0.176428	0.911232
	N261	N	0.549746	0.174611	0.080131
	N262	N	0.474084	0.822039	0.080796
	N263	N	0.549732	0.821709	0.911664
	N264	N	0.474791	0.912811	0.175156
	N265	N	0.547647	0.086357	0.175664
	N266	N	0.475224	0.086293	0.816408
	N267	N	0.548691	0.912064	0.816533
	N268	N	0.925112	0.179107	0.458758
	N269	N	0.096196	0.178082	0.533580
	N270	N	0.097566	0.820377	0.459203
	N271	N	0.925584	0.821007	0.532902
	N272	N	0.187900	0.462339	0.911722
	N273	N	0.189824	0.537003	0.082895
	N274	N	0.835351	0.461364	0.080696
	N275	N	0.833186	0.535843	0.911254
	O276	O	1.025606	1.003546	-0.142908
	H277	H	1.036554	1.002872	-0.151767
	H278	H	1.035150	1.015122	-0.149413
	O279	O	-0.004294	-0.002468	0.973500
	H280	H	0.002106	0.006174	0.979049
	H281	H	-0.005133	0.001910	0.985323
	O282	O	-0.526208	0.473543	0.554998
	H283	H	-0.523717	0.481216	0.559940
	H284	H	-0.530542	0.471469	0.551889
	O285	O	0.497847	0.488021	0.506017
	H286	H	0.499563	0.488938	0.508431
	H287	H	0.500546	0.484942	0.513116
	O288	O	0.107237	-0.015097	-0.042787
	H289	H	0.114972	-0.013093	-0.047804
	H290	H	0.103961	-0.012484	-0.036134
	O291	O	0.035113	0.960284	-0.053699
	H292	H	0.038433	0.959020	-0.055594
	H293	H	0.021663	0.957232	-0.047420
	O294	O	0.134952	0.934027	-0.043157
	H295	H	0.137856	0.934550	-0.062850
	H296	H	0.134257	0.932679	-0.041476
	O297	O	0.544675	0.514887	0.568666
	H298	H	0.544039	0.516362	0.563861
	H299	H	0.552752	0.523701	0.572795
	O300	O	0.555409	0.525601	0.528762
	H301	H	0.553862	0.529376	0.519516
	H302	H	0.548073	0.527699	0.533987
	O303	O	0.490132	-0.558343	1.524247
	H304	H	0.474262	-0.548976	1.536898
	H305	H	0.505981	-0.563430	1.529329
	O306	O	0.057616	1.004554	1.027901
	H307	H	0.064282	0.998557	1.027208
	H308	H	0.058875	0.988088	1.029964
	O309	O	0.079283	1.045698	0.986977
	H310	H	0.079886	1.037601	0.984062
	H311	H	0.082494	1.037480	0.989707
	O312	O	0.056519	-0.122408	0.934492
	H313	H	0.049522	-0.121943	0.918394
	H314	H	0.050390	-0.126054	0.940169
	O315	O	0.547192	0.556456	0.470535
	H316	H	0.554128	0.558809	0.477066
	H317	H	0.550706	0.542905	0.467214
	O318	O	0.047628	0.025534	1.028741
	H319	H	0.059727	0.015608	1.029771
	H320	H	0.046849	0.029858	1.035715
	O321	O	0.510060	0.523529	0.552755
	H322	H	0.509698	0.528916	0.553956
	H323	H	0.502092	0.524830	0.553854
	O324	O	1.026914	-0.011563	0.931382
	H325	H	1.027372	-0.004899	0.928288
	H326	H	1.029730	-0.009684	0.919125
	O327	O	1.033216	0.922278	0.974723
	H328	H	1.029506	0.916046	0.977830
	H329	H	1.032515	0.927048	0.979440
	O330	O	0.521986	0.524073	0.566869
	H331	H	0.522955	0.529829	0.569219
	H332	H	0.523153	0.526590	0.566028
	O333	O	0.506373	0.523575	0.438128
	H334	H	0.503121	0.519976	0.434088
	H335	H	0.507731	0.525413	0.429680
	O336	O	0.515397	0.455814	0.474078
	H337	H	0.524688	0.459287	0.478143
	H338	H	0.523800	0.455946	0.483896
	O339	O	-0.471328	0.463883	-0.611200
	H340	H	-0.471064	0.460916	-0.622200
	H341	H	-0.478323	0.448854	-0.603958
	O342	O	0.562358	0.522789	0.537312
	H343	H	0.550237	0.520676	0.526306
	H344	H	0.569663	0.525700	0.541529
	O345	O	0.454517	0.501403	0.478387
	H346	H	0.443245	0.503601	0.473012
	H347	H	0.456196	0.494989	0.470068
