data_Molecule from HDF5

_cell_length_a		16.480378
_cell_length_b		16.244616
_cell_length_c		16.497952
_cell_angle_alpha	89.912464
_cell_angle_beta	89.956131
_cell_angle_gamma	90.299174
_symmetry_space_group_name_H-M	'P 1'
_symmetry_Int_Tables_number		1

loop_
	_symmetry_equiv_pos_as_xyz
	x,y,z

loop_
	_atom_site_label
	_atom_site_type_symbol
	_atom_site_fract_x
	_atom_site_fract_y
	_atom_site_fract_z
	H0	H	0.390855	0.830999	0.720451
	H1	H	0.601186	0.152322	0.720575
	H2	H	0.602452	0.833069	0.278381
	H3	H	0.388782	0.150077	0.275769
	H4	H	0.717177	0.388296	0.840456
	H5	H	0.721258	0.599276	0.157382
	H6	H	0.275096	0.600863	0.841926
	H7	H	0.271418	0.382941	0.155967
	H8	H	0.839174	0.713186	0.393908
	H9	H	0.155950	0.714672	0.602343
	H10	H	0.838080	0.273311	0.601003
	H11	H	0.157710	0.273896	0.396025
	H12	H	0.839008	0.386732	0.719430
	H13	H	0.154838	0.601407	0.721519
	H14	H	0.840290	0.598181	0.277214
	H15	H	0.155057	0.383567	0.274121
	H16	H	0.396157	0.711577	0.841036
	H17	H	0.601653	0.710794	0.158824
	H18	H	0.595806	0.276465	0.839255
	H19	H	0.390987	0.270663	0.157707
	H20	H	0.717187	0.833143	0.394626
	H21	H	0.718067	0.153008	0.605945
	H22	H	0.274709	0.832272	0.604843
	H23	H	0.280269	0.153507	0.396450
	H24	H	0.893424	0.331802	0.218387
	H25	H	0.104820	0.652536	0.220009
	H26	H	0.100449	0.331552	0.780115
	H27	H	0.896363	0.653447	0.780149
	H28	H	0.220094	0.886085	0.342332
	H29	H	0.219017	0.098564	0.658010
	H30	H	0.774442	0.099675	0.343804
	H31	H	0.774579	0.884977	0.658413
	H32	H	0.337609	0.211726	0.895936
	H33	H	0.655401	0.212794	0.103226
	H34	H	0.338838	0.768183	0.105082
	H35	H	0.658495	0.777908	0.901780
	H36	H	0.338544	0.882607	0.222129
	H37	H	0.653064	0.098357	0.222089
	H38	H	0.339675	0.098569	0.777278
	H39	H	0.654687	0.886353	0.778987
	H40	H	0.897943	0.209013	0.340082
	H41	H	0.098423	0.209289	0.660040
	H42	H	0.102102	0.772112	0.340725
	H43	H	0.895048	0.772228	0.659031
	H44	H	0.216173	0.331778	0.895341
	H45	H	0.220968	0.652199	0.105012
	H46	H	0.778264	0.331774	0.101837
	H47	H	0.781955	0.654925	0.896637
	H48	H	0.410698	0.104656	0.588269
	H49	H	0.585473	0.878666	0.587557
	H50	H	0.587908	0.106814	0.414117
	H51	H	0.403316	0.873731	0.406184
	H52	H	0.589483	0.400665	0.114123
	H53	H	0.591473	0.580688	0.886422
	H54	H	0.409178	0.574671	0.110885
	H55	H	0.407799	0.396953	0.885221
	H56	H	0.105895	0.577989	0.418035
	H57	H	0.889692	0.570889	0.586260
	H58	H	0.111489	0.401471	0.591239
	H59	H	0.886900	0.403554	0.410120
	H60	H	0.111332	0.402987	0.590861
	H61	H	0.881727	0.580476	0.597681
	H62	H	0.110995	0.575473	0.402632
	H63	H	0.884220	0.402622	0.406384
	H64	H	0.411195	0.579898	0.110518
	H65	H	0.588801	0.585826	0.885649
	H66	H	0.590995	0.406715	0.113139
	H67	H	0.400329	0.406456	0.885652
	H68	H	0.583938	0.106863	0.407700
	H69	H	0.585950	0.877536	0.590671
	H70	H	0.405884	0.107113	0.589398
	H71	H	0.416565	0.880229	0.410781
	H72	H	0.912923	0.606562	0.087104
	H73	H	0.083294	0.381099	0.084835
	H74	H	0.091969	0.610331	0.906398
	H75	H	0.907552	0.376445	0.906066
	H76	H	0.084972	0.905047	0.610797
	H77	H	0.088100	0.089800	0.384187
	H78	H	0.897471	0.081471	0.616564
	H79	H	0.902015	0.898506	0.383992
	H80	H	0.610040	0.078783	0.907184
	H81	H	0.386377	0.071986	0.088246
	H82	H	0.611037	0.901541	0.094468
	H83	H	0.383873	0.901341	0.909944
	H84	H	0.608670	0.901471	0.088526
	H85	H	0.380625	0.082093	0.094692
	H86	H	0.611578	0.086285	0.908558
	H87	H	0.383079	0.901152	0.910156
	H88	H	0.910035	0.073741	0.610584
	H89	H	0.097075	0.080226	0.385576
	H90	H	0.085995	0.906949	0.611289
	H91	H	0.901996	0.910793	0.387843
	H92	H	0.079893	0.605292	0.906912
	H93	H	0.085320	0.379451	0.086283
	H94	H	0.906170	0.607523	0.086096
	H95	H	0.908156	0.378786	0.910545
	H96	H	0.409566	0.107558	0.592653
	H97	H	0.583061	0.877594	0.589557
	H98	H	0.581056	0.104608	0.413960
	H99	H	0.403904	0.879164	0.420661
	H100	H	0.585900	0.404622	0.111563
	H101	H	0.594183	0.585246	0.883993
	H102	H	0.406224	0.578916	0.112574
	H103	H	0.411762	0.408137	0.889859
	H104	H	0.113684	0.590099	0.409645
	H105	H	0.885103	0.586708	0.582328
	H106	H	0.112365	0.402651	0.592011
	H107	H	0.884934	0.399010	0.409919
	H108	H	0.909118	0.609256	0.092755
	H109	H	0.082781	0.378922	0.087255
	H110	H	0.087558	0.604614	0.917698
	H111	H	0.903753	0.376541	0.909041
	H112	H	0.083626	0.906833	0.610680
	H113	H	0.084741	0.077971	0.389497
	H114	H	0.910928	0.089118	0.614759
	H115	H	0.912267	0.903485	0.389834
	H116	H	0.608220	0.082002	0.913764
	H117	H	0.384646	0.084260	0.081931
	H118	H	0.608844	0.907167	0.091889
	H119	H	0.383308	0.901541	0.910513
	C120	C	0.375459	0.000779	0.622372
	C121	C	0.617465	0.983771	0.621455
	C122	C	0.616972	0.000842	0.379388
	C123	C	0.376217	0.983520	0.379853
	C124	C	0.618510	0.372186	0.007432
	C125	C	0.621999	0.615013	0.990698
	C126	C	0.377047	0.611997	0.007627
	C127	C	0.373793	0.370272	0.990945
	C128	C	0.006154	0.614149	0.377404
	C129	C	0.989652	0.613408	0.620303
	C130	C	0.006489	0.370495	0.621953
	C131	C	0.990224	0.370251	0.377341
	C132	C	0.877304	0.501583	0.120261
	C133	C	0.118344	0.484442	0.119560
	C134	C	0.118418	0.500824	0.878250
	C135	C	0.876616	0.484109	0.877468
	C136	C	0.117991	0.872436	0.507259
	C137	C	0.120893	0.115065	0.491018
	C138	C	0.875865	0.113441	0.508905
	C139	C	0.873991	0.870517	0.491532
	C140	C	0.505106	0.114048	0.878203
	C141	C	0.487866	0.112831	0.120950
	C142	C	0.505285	0.869239	0.123204
	C143	C	0.488670	0.870632	0.879406
	C144	C	0.372576	0.879528	0.681332
	C145	C	0.619545	0.104557	0.680563
	C146	C	0.620039	0.880925	0.319013
	C147	C	0.372484	0.102972	0.317459
	C148	C	0.676969	0.370416	0.887938
	C149	C	0.681055	0.616962	0.109880
	C150	C	0.316071	0.617243	0.889244
	C151	C	0.312457	0.365830	0.109075
	C152	C	0.886941	0.673819	0.375679
	C153	C	0.108523	0.674652	0.621445
	C154	C	0.886217	0.312070	0.620749
	C155	C	0.109625	0.311864	0.376406
	C156	C	0.886736	0.368446	0.680029
	C157	C	0.107956	0.618043	0.680510
	C158	C	0.887721	0.616662	0.317241
	C159	C	0.108295	0.367088	0.315879
	C160	C	0.376621	0.672174	0.888535
	C161	C	0.621338	0.672619	0.110714
	C162	C	0.616637	0.314652	0.887368
	C163	C	0.371986	0.309928	0.109995
	C164	C	0.677310	0.880926	0.376939
	C165	C	0.677532	0.104700	0.623445
	C166	C	0.314789	0.880285	0.623658
	C167	C	0.318243	0.104667	0.377441
	C168	C	0.874796	0.380183	0.179242
	C169	C	0.122528	0.604534	0.180140
	C170	C	0.119237	0.379755	0.819556
	C171	C	0.876826	0.605399	0.819235
	C172	C	0.179347	0.868806	0.389009
	C173	C	0.179714	0.117226	0.610437
	C174	C	0.815866	0.116508	0.390292
	C175	C	0.814679	0.867249	0.610788
	C176	C	0.385651	0.172828	0.877013
	C177	C	0.607414	0.172923	0.122206
	C178	C	0.386501	0.808044	0.124047
	C179	C	0.609509	0.814506	0.880655
	C180	C	0.386199	0.865032	0.182536
	C181	C	0.606257	0.116035	0.181349
	C182	C	0.386545	0.116310	0.817975
	C183	C	0.607855	0.868942	0.819811
	C184	C	0.877176	0.170988	0.388529
	C185	C	0.119565	0.172405	0.611462
	C186	C	0.120376	0.811965	0.388388
	C187	C	0.874850	0.811264	0.611169
	C188	C	0.177078	0.380007	0.876633
	C189	C	0.180159	0.604381	0.122719
	C190	C	0.817710	0.380035	0.121313
	C191	C	0.819727	0.605826	0.876925
	C192	C	0.401475	0.084749	0.597484
	C193	C	0.592215	0.899711	0.596593
	C194	C	0.591548	0.084439	0.404790
	C195	C	0.400726	0.899691	0.405296
	C196	C	0.595141	0.396735	0.091118
	C197	C	0.598416	0.590830	0.907122
	C198	C	0.401757	0.585548	0.089884
	C199	C	0.399327	0.396468	0.908454
	C200	C	0.088650	0.588627	0.402781
	C201	C	0.906812	0.586984	0.595767
	C202	C	0.089926	0.395303	0.598259
	C203	C	0.907101	0.394819	0.401546
	C204	C	0.902173	0.585691	0.095786
	C205	C	0.091447	0.401358	0.093481
	C206	C	0.093711	0.584860	0.903146
	C207	C	0.899695	0.399177	0.901449
	C208	C	0.092229	0.898705	0.589548
	C209	C	0.097008	0.090016	0.407913
	C210	C	0.899305	0.088584	0.592066
	C211	C	0.898294	0.896603	0.408633
	C212	C	0.588278	0.089377	0.902751
	C213	C	0.405216	0.086983	0.095730
	C214	C	0.588070	0.895924	0.098706
	C215	C	0.405330	0.894322	0.903354
	Zn216	Zn	0.497252	-0.008316	0.750200
	Zn217	Zn	0.495810	-0.008817	0.250899
	Zn218	Zn	0.749371	0.492717	-0.001077
	Zn219	Zn	0.246328	0.492482	-0.001150
	Zn220	Zn	-0.002711	0.742617	0.499440
	Zn221	Zn	-0.001820	0.242098	0.499968
	Zn222	Zn	-0.002313	0.492449	0.749922
	Zn223	Zn	-0.001678	0.492111	0.248284
	Zn224	Zn	0.497849	0.741419	0.000302
	Zn225	Zn	0.496782	0.242833	-0.000259
	Zn226	Zn	0.745534	-0.007175	0.500823
	Zn227	Zn	0.248206	-0.007357	0.499815
	N228	N	0.409789	0.955478	0.680469
	N229	N	0.582663	0.028402	0.679169
	N230	N	0.583231	0.956506	0.320342
	N231	N	0.407926	0.026534	0.318770
	N232	N	0.678255	0.405584	0.963753
	N233	N	0.681537	0.581807	0.034181
	N234	N	0.316288	0.580349	0.964264
	N235	N	0.313408	0.402610	0.034063
	N236	N	0.961834	0.672520	0.412485
	N237	N	0.033998	0.671466	0.584365
	N238	N	0.961780	0.313020	0.585495
	N239	N	0.035405	0.313958	0.414193
	N240	N	0.962490	0.404008	0.680762
	N241	N	0.033033	0.580442	0.679677
	N242	N	0.962748	0.580390	0.318110
	N243	N	0.032946	0.402861	0.316393
	N244	N	0.413730	0.669280	0.963038
	N245	N	0.585297	0.671587	0.035546
	N246	N	0.581152	0.315603	0.962827
	N247	N	0.409333	0.312331	0.035472
	N248	N	0.675314	0.956651	0.414101
	N249	N	0.676236	0.028492	0.587488
	N250	N	0.316372	0.956765	0.587928
	N251	N	0.320346	0.029465	0.415527
	N252	N	0.910895	0.456681	0.178838
	N253	N	0.084947	0.528892	0.178470
	N254	N	0.083690	0.456032	0.820159
	N255	N	0.911332	0.528481	0.819469
	N256	N	0.178068	0.905749	0.463922
	N257	N	0.180649	0.082309	0.534598
	N258	N	0.814672	0.081686	0.466180
	N259	N	0.813916	0.903218	0.535298
	N260	N	0.460418	0.171615	0.913741
	N261	N	0.532698	0.171252	0.085482
	N262	N	0.461827	0.810364	0.088025
	N263	N	0.534543	0.815417	0.916962
	N264	N	0.461058	0.902318	0.182010
	N265	N	0.530795	0.079581	0.180748
	N266	N	0.461947	0.080412	0.818572
	N267	N	0.531509	0.902814	0.818537
	N268	N	0.913822	0.169223	0.463289
	N269	N	0.084085	0.171543	0.536147
	N270	N	0.082760	0.814390	0.462727
	N271	N	0.910579	0.812813	0.535855
	N272	N	0.176713	0.456336	0.912250
	N273	N	0.177536	0.528676	0.085743
	N274	N	0.818908	0.456516	0.085485
	N275	N	0.819556	0.529353	0.912503
	O276	O	0.382983	0.438146	0.703851
	H277	H	0.376870	0.430724	0.701265
	H278	H	0.393105	0.429252	0.701321
	O279	O	0.698622	0.290132	0.373769
	H280	H	0.674933	0.298809	0.356585
	H281	H	0.717837	0.290652	0.380530
	O282	O	0.497622	0.459812	0.663662
	H283	H	0.505718	0.466583	0.656636
	H284	H	0.501989	0.478358	0.658463
	O285	O	0.991961	1.136843	-0.128057
	H286	H	0.982351	1.146787	-0.134701
	H287	H	0.974239	1.144737	-0.120885
	O288	O	0.488947	0.313363	0.464723
	H289	H	0.484189	0.325944	0.471768
	H290	H	0.490744	0.310659	0.446240
	O291	O	0.629790	0.570879	0.378214
	H292	H	0.625422	0.574676	0.381208
	H293	H	0.635888	0.578820	0.382266
	O294	O	0.846420	1.041473	1.033486
	H295	H	0.843603	1.026112	1.049282
	H296	H	0.835726	1.027978	1.039560
	O297	O	0.376792	0.677764	0.317257
	H298	H	0.361595	0.635625	0.312521
	H299	H	0.374094	0.688160	0.331347
	O300	O	0.534506	0.482814	0.529807
	H301	H	0.524752	0.475436	0.516136
	H302	H	0.551251	0.495105	0.523998
	O303	O	0.713152	0.709171	0.529898
	H304	H	0.728418	0.725362	0.547970
	H305	H	0.717753	0.719113	0.540398
	O306	O	-0.138466	-0.049369	1.081197
	H307	H	-0.132431	-0.063636	1.080579
	H308	H	-0.150568	-0.062320	1.082558
	O309	O	0.974250	-0.191939	0.204246
	H310	H	0.974221	-0.214952	0.236178
	H311	H	0.992871	-0.159645	0.214154
	O312	O	0.330526	0.293602	0.515737
	H313	H	0.319199	0.280984	0.509130
	H314	H	0.332958	0.291035	0.512573
	O315	O	0.550331	0.398673	0.308097
	H316	H	0.546932	0.406753	0.310545
	H317	H	0.562937	0.419315	0.302672
	O318	O	-0.010994	0.016042	0.067100
	H319	H	-0.019442	0.017782	0.058594
	H320	H	-0.008245	0.022795	0.047982
	O321	O	0.435816	0.613624	0.709957
	H322	H	0.440448	0.588883	0.705998
	H323	H	0.431435	0.624428	0.732165
	O324	O	1.058775	-0.153443	1.009718
	H325	H	1.055851	-0.160109	1.040026
	H326	H	1.054303	-0.132664	1.012133
	O327	O	0.696760	0.504254	0.689656
	H328	H	0.679736	0.493524	0.676844
	H329	H	0.705978	0.511936	0.696731
	O330	O	0.209868	0.964553	1.036791
	H331	H	0.211321	0.952077	1.016349
	H332	H	0.221197	0.979054	1.036922
	O333	O	-0.125245	1.060543	0.196965
	H334	H	-0.146310	1.035489	0.199423
	H335	H	-0.129823	1.078010	0.214753
	O336	O	0.838453	1.057045	-0.008275
	H337	H	0.841982	1.061079	-0.008532
	H338	H	0.844022	1.054266	0.002279
	O339	O	0.182060	1.077435	0.905969
	H340	H	0.163314	1.079707	0.907004
	H341	H	0.176732	1.060182	0.887027
	O342	O	0.371514	0.433537	0.424818
	H343	H	0.366842	0.409696	0.444433
	H344	H	0.391912	0.426993	0.424971
	O345	O	0.004124	0.201170	1.070931
	H346	H	0.001284	0.209129	1.089704
	H347	H	0.003243	0.195776	1.063298
	O348	O	0.294973	0.441045	0.585864
	H349	H	0.299593	0.418971	0.577350
	H350	H	0.290082	0.443631	0.593485
	O351	O	0.965931	0.927683	0.203474
	H352	H	0.981805	0.934053	0.206483
	H353	H	0.963760	0.943347	0.203651
	O354	O	0.841023	0.969147	0.796281
	H355	H	0.838236	0.990120	0.788931
	H356	H	0.832581	0.985087	0.795932
	O357	O	-0.584522	0.486050	0.637852
	H358	H	-0.564314	0.495631	0.635612
	H359	H	-0.585561	0.488806	0.629726
	O360	O	0.331875	0.427349	0.328685
	H361	H	0.326387	0.423852	0.341002
	H362	H	0.317260	0.422562	0.324096
	O363	O	1.038805	-0.079897	-0.093643
	H364	H	1.038738	-0.057635	-0.079356
	H365	H	1.040626	-0.085624	-0.090061
	O366	O	-0.259401	-0.258612	1.149108
	H367	H	-0.276550	-0.289290	1.149781
	H368	H	-0.237387	-0.265492	1.143892
	O369	O	0.689122	-0.487576	0.480526
	H370	H	0.675700	-0.501175	0.468593
	H371	H	0.698214	-0.484074	0.473510
	O372	O	0.565446	0.455273	0.409739
	H373	H	0.574188	0.475081	0.418007
	H374	H	0.554447	0.467632	0.411862
	O375	O	0.027559	-0.169388	1.017426
	H376	H	0.019037	-0.175557	1.026611
	H377	H	0.026804	-0.163270	1.016148
	O378	O	0.305663	0.649877	0.476153
	H379	H	0.317548	0.660682	0.476117
	H380	H	0.293187	0.646074	0.500068
	O381	O	0.009834	0.963061	-0.186287
	H382	H	0.002962	0.974274	-0.190534
	H383	H	0.007011	0.972334	-0.186716
	O384	O	0.450659	0.562362	0.308270
	H385	H	0.455188	0.564086	0.324320
	H386	H	0.427045	0.583435	0.290615
	O387	O	0.813263	0.182821	0.900357
	H388	H	0.797321	0.198495	0.898689
	H389	H	0.814824	0.180383	0.937839
	O390	O	0.949334	0.798040	-0.171172
	H391	H	0.950368	0.806619	-0.174149
	H392	H	0.972363	0.812214	-0.161300
	O393	O	1.033439	-0.093156	0.862116
	H394	H	1.035469	-0.100925	0.873654
	H395	H	1.023531	-0.092768	0.843277
	O396	O	1.132256	0.833426	-0.034164
	H397	H	1.132653	0.825072	-0.034243
	H398	H	1.119886	0.822510	-0.029311
	O399	O	0.121621	1.169980	1.029066
	H400	H	0.127631	1.166504	1.019990
	H401	H	0.118045	1.193033	1.036663
	O402	O	1.083589	1.048074	0.042234
	H403	H	1.076710	1.050427	0.032518
	H404	H	1.085629	1.061634	0.050163
	O405	O	0.508291	0.614472	0.490817
	H406	H	0.494392	0.632531	0.504442
	H407	H	0.523954	0.607990	0.498895
	O408	O	0.470010	0.677780	0.335713
	H409	H	0.461235	0.695179	0.318914
	H410	H	0.443523	0.684973	0.337377
	O411	O	1.057955	1.169217	1.170335
	H412	H	1.056460	1.158199	1.155918
	H413	H	1.059488	1.164167	1.185732
	O414	O	0.472037	0.411439	0.546241
	H415	H	0.484801	0.413236	0.563684
	H416	H	0.465029	0.431616	0.560868
	O417	O	0.181773	1.114466	1.058547
	H418	H	0.187476	1.110971	1.051610
	H419	H	0.183396	1.128519	1.041163
	O420	O	0.394119	1.615633	0.481738
	H421	H	0.388768	1.616615	0.502630
	H422	H	0.406280	1.605971	0.475153
	O423	O	-0.189142	0.871453	0.163216
	H424	H	-0.185601	0.855455	0.171945
	H425	H	-0.185673	0.858556	0.133923
	O426	O	0.614734	0.344426	0.588904
	H427	H	0.615049	0.341126	0.576047
	H428	H	0.596969	0.346315	0.581725
	O429	O	0.566963	0.388962	0.622263
	H430	H	0.564186	0.398617	0.621439
	H431	H	0.554118	0.381979	0.600761
	O432	O	0.594519	0.287885	0.322235
	H433	H	0.570802	0.288928	0.318515
	H434	H	0.589636	0.291880	0.309954
	O435	O	-0.107870	0.162168	-0.194456
	H436	H	-0.106017	0.159622	-0.207546
	H437	H	-0.135695	0.169502	-0.172329
	O438	O	0.197498	0.929618	0.833373
	H439	H	0.221400	0.919956	0.810615
	H440	H	0.187567	0.912045	0.835219
	O441	O	0.680057	0.665135	0.681087
	H442	H	0.686285	0.664493	0.680850
	H443	H	0.674440	0.634630	0.692829
