data_Molecule from HDF5

_cell_length_a		16.286702
_cell_length_b		16.284699
_cell_length_c		16.314965
_cell_angle_alpha	90.281389
_cell_angle_beta	89.943645
_cell_angle_gamma	89.996218
_symmetry_space_group_name_H-M	'P 1'
_symmetry_Int_Tables_number		1

loop_
	_symmetry_equiv_pos_as_xyz
	x,y,z

loop_
	_atom_site_label
	_atom_site_type_symbol
	_atom_site_fract_x
	_atom_site_fract_y
	_atom_site_fract_z
	H0	H	0.409609	0.843197	0.716775
	H1	H	0.607857	0.170868	0.716853
	H2	H	0.607211	0.843261	0.287296
	H3	H	0.411037	0.171291	0.288577
	H4	H	0.725264	0.406691	0.840144
	H5	H	0.723602	0.606267	0.166136
	H6	H	0.294687	0.603478	0.839200
	H7	H	0.295377	0.409445	0.166454
	H8	H	0.845444	0.719910	0.405785
	H9	H	0.172647	0.722929	0.601731
	H10	H	0.845149	0.294902	0.599213
	H11	H	0.173053	0.292914	0.404195
	H12	H	0.846165	0.408069	0.718015
	H13	H	0.173324	0.606839	0.718349
	H14	H	0.845647	0.604964	0.288774
	H15	H	0.172707	0.407486	0.287560
	H16	H	0.411306	0.720281	0.838954
	H17	H	0.608175	0.722895	0.165769
	H18	H	0.607514	0.292842	0.839666
	H19	H	0.411263	0.293645	0.166067
	H20	H	0.723541	0.842917	0.402856
	H21	H	0.723570	0.170772	0.599736
	H22	H	0.294267	0.843290	0.599793
	H23	H	0.295564	0.171069	0.405975
	H24	H	0.911069	0.343304	0.216042
	H25	H	0.107452	0.669611	0.218881
	H26	H	0.108765	0.342660	0.786200
	H27	H	0.909143	0.670275	0.787887
	H28	H	0.223203	0.907254	0.338998
	H29	H	0.223680	0.106960	0.665161
	H30	H	0.796961	0.103343	0.337874
	H31	H	0.794134	0.910374	0.665316
	H32	H	0.346117	0.221395	0.904284
	H33	H	0.673269	0.220977	0.100486
	H34	H	0.345934	0.793948	0.099444
	H35	H	0.674644	0.792729	0.904141
	H36	H	0.345655	0.910382	0.215215
	H37	H	0.673101	0.105836	0.216699
	H38	H	0.345998	0.105029	0.788437
	H39	H	0.673831	0.907462	0.786233
	H40	H	0.912676	0.219529	0.338940
	H41	H	0.107327	0.222631	0.665459
	H42	H	0.107336	0.791326	0.339468
	H43	H	0.908962	0.792837	0.665770
	H44	H	0.224503	0.342147	0.903411
	H45	H	0.223022	0.669976	0.101624
	H46	H	0.795163	0.343076	0.100658
	H47	H	0.794068	0.670183	0.906294
	H48	H	0.420048	0.122485	0.598048
	H49	H	0.597168	0.893639	0.589169
	H50	H	0.601170	0.121854	0.413516
	H51	H	0.429791	0.895015	0.408708
	H52	H	0.594344	0.404216	0.120633
	H53	H	0.597136	0.598931	0.888418
	H54	H	0.403819	0.596788	0.120703
	H55	H	0.418435	0.416248	0.887849
	H56	H	0.125161	0.598880	0.410281
	H57	H	0.895222	0.596139	0.595743
	H58	H	0.123234	0.417078	0.589789
	H59	H	0.891105	0.410559	0.406783
	H60	H	0.126114	0.418327	0.600326
	H61	H	0.892365	0.601459	0.599066
	H62	H	0.125686	0.598993	0.410029
	H63	H	0.892955	0.411796	0.410277
	H64	H	0.424906	0.594931	0.114727
	H65	H	0.605186	0.601684	0.885000
	H66	H	0.615244	0.410753	0.124028
	H67	H	0.418673	0.410069	0.887134
	H68	H	0.609147	0.125130	0.409025
	H69	H	0.609601	0.889584	0.591269
	H70	H	0.416816	0.122326	0.592143
	H71	H	0.408068	0.890976	0.418516
	H72	H	0.919928	0.623240	0.098892
	H73	H	0.107988	0.388776	0.094921
	H74	H	0.101130	0.624153	0.903532
	H75	H	0.917879	0.394540	0.922984
	H76	H	0.097619	0.915645	0.616631
	H77	H	0.097929	0.090622	0.390707
	H78	H	0.917937	0.115217	0.622535
	H79	H	0.913802	0.902908	0.382519
	H80	H	0.624495	0.093728	0.911034
	H81	H	0.391925	0.105998	0.094537
	H82	H	0.628293	0.912902	0.100107
	H83	H	0.395690	0.909622	0.916919
	H84	H	0.626034	0.910515	0.092020
	H85	H	0.395343	0.096008	0.093690
	H86	H	0.627752	0.100316	0.902888
	H87	H	0.396308	0.922963	0.908124
	H88	H	0.901874	0.096263	0.621401
	H89	H	0.096738	0.110628	0.384688
	H90	H	0.103355	0.914222	0.619236
	H91	H	0.909211	0.920669	0.385855
	H92	H	0.096403	0.618927	0.914454
	H93	H	0.100227	0.389176	0.099768
	H94	H	0.916441	0.621939	0.093010
	H95	H	0.905294	0.385063	0.904072
	H96	H	0.413099	0.124390	0.597818
	H97	H	0.600449	0.889304	0.601464
	H98	H	0.600638	0.124795	0.403906
	H99	H	0.411604	0.885928	0.395112
	H100	H	0.600653	0.425322	0.115359
	H101	H	0.604241	0.593320	0.887459
	H102	H	0.417719	0.613823	0.121892
	H103	H	0.413291	0.412957	0.885658
	H104	H	0.125728	0.599496	0.410173
	H105	H	0.893920	0.601555	0.592944
	H106	H	0.127405	0.408995	0.595121
	H107	H	0.892712	0.414379	0.407478
	H108	H	0.912621	0.624716	0.098644
	H109	H	0.099297	0.391924	0.091278
	H110	H	0.108196	0.623002	0.914214
	H111	H	0.928546	0.391762	0.901457
	H112	H	0.102264	0.919341	0.616796
	H113	H	0.114910	0.100060	0.381730
	H114	H	0.925634	0.093231	0.613419
	H115	H	0.925865	0.914160	0.389274
	H116	H	0.626426	0.104588	0.913356
	H117	H	0.390975	0.099169	0.102532
	H118	H	0.625647	0.919023	0.094369
	H119	H	0.390428	0.909207	0.901706
	C120	C	0.387565	0.015025	0.623967
	C121	C	0.630924	0.998757	0.622928
	C122	C	0.631279	0.015401	0.380344
	C123	C	0.388119	0.999162	0.380241
	C124	C	0.631503	0.384860	0.011601
	C125	C	0.630543	0.627509	0.994367
	C126	C	0.387412	0.629232	0.010984
	C127	C	0.388558	0.385587	0.994972
	C128	C	0.017368	0.627470	0.382028
	C129	C	1.001475	0.629204	0.624980
	C130	C	0.017680	0.385856	0.623733
	C131	C	1.000588	0.384358	0.380326
	C132	C	0.887905	0.515285	0.124595
	C133	C	0.131147	0.497884	0.124719
	C134	C	0.131076	0.514125	0.881247
	C135	C	0.888254	0.498676	0.881703
	C136	C	0.130177	0.886280	0.510322
	C137	C	0.131465	0.129619	0.493566
	C138	C	0.887674	0.128683	0.510792
	C139	C	0.887678	0.885137	0.493849
	C140	C	0.517906	0.127869	0.881200
	C141	C	0.500683	0.129075	0.124735
	C142	C	0.518222	0.886185	0.123338
	C143	C	0.502362	0.884749	0.880026
	C144	C	0.389302	0.892119	0.678861
	C145	C	0.628215	0.121863	0.678639
	C146	C	0.628293	0.892156	0.324989
	C147	C	0.390839	0.122394	0.326374
	C148	C	0.687172	0.386373	0.888907
	C149	C	0.685641	0.626252	0.117492
	C150	C	0.332616	0.624894	0.887883
	C151	C	0.333081	0.388665	0.117620
	C152	C	0.894495	0.682425	0.384864
	C153	C	0.124190	0.684918	0.622680
	C154	C	0.894206	0.331685	0.620505
	C155	C	0.124000	0.330034	0.383309
	C156	C	0.894718	0.388081	0.679368
	C157	C	0.124285	0.627232	0.680651
	C158	C	0.894389	0.624998	0.326984
	C159	C	0.123913	0.387484	0.325782
	C160	C	0.390407	0.683165	0.887874
	C161	C	0.628175	0.683971	0.117452
	C162	C	0.628569	0.329829	0.888663
	C163	C	0.391104	0.331548	0.117751
	C164	C	0.686143	0.892182	0.382464
	C165	C	0.685458	0.122119	0.620545
	C166	C	0.332218	0.892078	0.620441
	C167	C	0.333213	0.122151	0.384458
	C168	C	0.890871	0.392015	0.178467
	C169	C	0.128437	0.620891	0.180639
	C170	C	0.128836	0.391305	0.825130
	C171	C	0.889747	0.621591	0.826713
	C172	C	0.185536	0.887206	0.387816
	C173	C	0.186315	0.127452	0.616373
	C174	C	0.834289	0.124364	0.387061
	C175	C	0.832013	0.888995	0.616863
	C176	C	0.394809	0.183093	0.884181
	C177	C	0.624310	0.183541	0.121514
	C178	C	0.394859	0.831699	0.120150
	C179	C	0.625563	0.830164	0.883210
	C180	C	0.394630	0.889690	0.177538
	C181	C	0.624210	0.126531	0.179117
	C182	C	0.394813	0.125279	0.826444
	C183	C	0.625105	0.887162	0.824585
	C184	C	0.891647	0.182071	0.387535
	C185	C	0.128189	0.184740	0.616588
	C186	C	0.127971	0.829588	0.388188
	C187	C	0.889327	0.831069	0.617183
	C188	C	0.186426	0.390935	0.883206
	C189	C	0.185544	0.621182	0.122358
	C190	C	0.833301	0.391807	0.121027
	C191	C	0.832079	0.621443	0.884910
	C192	C	0.410155	0.100864	0.602337
	C193	C	0.608807	0.912923	0.600554
	C194	C	0.609983	0.101744	0.402455
	C195	C	0.410116	0.912856	0.401354
	C196	C	0.609880	0.407158	0.097817
	C197	C	0.608622	0.604896	0.909030
	C198	C	0.408962	0.608039	0.096920
	C199	C	0.410283	0.406983	0.908804
	C200	C	0.103433	0.605665	0.403925
	C201	C	0.915759	0.606383	0.602680
	C202	C	0.103347	0.408105	0.601324
	C203	C	0.914534	0.405797	0.401912
	C204	C	0.909907	0.601235	0.103201
	C205	C	0.109059	0.412184	0.101790
	C206	C	0.108684	0.599929	0.904132
	C207	C	0.910689	0.412620	0.903075
	C208	C	0.107525	0.909513	0.595773
	C209	C	0.109597	0.107191	0.407722
	C210	C	0.908799	0.107820	0.596942
	C211	C	0.909932	0.906089	0.408088
	C212	C	0.603968	0.105931	0.902753
	C213	C	0.415112	0.107168	0.103199
	C214	C	0.604333	0.907766	0.101861
	C215	C	0.416371	0.907282	0.902356
	Zn216	Zn	0.509940	0.006607	0.752063
	Zn217	Zn	0.509502	0.007670	0.251874
	Zn218	Zn	0.759339	0.506281	0.003488
	Zn219	Zn	0.259521	0.506408	0.003070
	Zn220	Zn	0.009393	0.756912	0.503058
	Zn221	Zn	0.009116	0.257013	0.502369
	Zn222	Zn	0.009587	0.506701	0.752633
	Zn223	Zn	0.009110	0.506243	0.252858
	Zn224	Zn	0.510142	0.756918	0.002090
	Zn225	Zn	0.509528	0.256667	0.003259
	Zn226	Zn	0.759770	0.007324	0.502015
	Zn227	Zn	0.259467	0.006901	0.501890
	N228	N	0.422949	0.969446	0.681076
	N229	N	0.594833	0.044152	0.680103
	N230	N	0.594945	0.969809	0.323321
	N231	N	0.424173	0.044797	0.323711
	N232	N	0.688714	0.420139	0.966233
	N233	N	0.687206	0.591701	0.040386
	N234	N	0.330554	0.592425	0.965505
	N235	N	0.331630	0.421571	0.040146
	N236	N	0.971976	0.683932	0.418483
	N237	N	0.046965	0.686098	0.588842
	N238	N	0.971716	0.330103	0.586728
	N239	N	0.046454	0.328116	0.416733
	N240	N	0.972333	0.421089	0.681454
	N241	N	0.046862	0.593256	0.682038
	N242	N	0.971940	0.591490	0.325161
	N243	N	0.046212	0.420370	0.323573
	N244	N	0.423545	0.685889	0.965383
	N245	N	0.594407	0.684854	0.040175
	N246	N	0.594744	0.328655	0.966061
	N247	N	0.424673	0.329358	0.040286
	N248	N	0.687902	0.969780	0.416340
	N249	N	0.687461	0.044695	0.586928
	N250	N	0.330834	0.969645	0.587151
	N251	N	0.331576	0.044428	0.417021
	N252	N	0.924052	0.469670	0.180836
	N253	N	0.095568	0.543074	0.182307
	N254	N	0.095450	0.468880	0.823750
	N255	N	0.923713	0.544284	0.824615
	N256	N	0.187218	0.921532	0.464912
	N257	N	0.188492	0.093901	0.538765
	N258	N	0.831935	0.091767	0.464806
	N259	N	0.830711	0.921803	0.539324
	N260	N	0.472317	0.184638	0.917679
	N261	N	0.546608	0.185315	0.088310
	N262	N	0.472632	0.829473	0.087188
	N263	N	0.547947	0.828631	0.916808
	N264	N	0.472362	0.922786	0.179554
	N265	N	0.546786	0.093076	0.181017
	N266	N	0.472318	0.091744	0.824554
	N267	N	0.547319	0.920067	0.822449
	N268	N	0.924011	0.184871	0.465248
	N269	N	0.094961	0.186246	0.539193
	N270	N	0.094427	0.828901	0.465576
	N271	N	0.923147	0.828469	0.539887
	N272	N	0.187980	0.468429	0.917384
	N273	N	0.187345	0.543859	0.088200
	N274	N	0.831348	0.469473	0.088246
	N275	N	0.831132	0.544052	0.918511
	O276	O	0.496115	0.564018	0.541694
	H277	H	0.494162	0.570146	0.544924
	H278	H	0.498697	0.555365	0.542905
	O279	O	0.073953	-0.079512	-0.041388
	H280	H	0.066765	-0.086682	-0.039325
	H281	H	0.074224	-0.082171	-0.049173
	O282	O	0.506037	0.549783	0.599716
	H283	H	0.502910	0.557287	0.613235
	H284	H	0.511402	0.554217	0.597139
	O285	O	0.509264	0.490965	0.595595
	H286	H	0.503583	0.493595	0.598595
	H287	H	0.505972	0.494854	0.601045
	O288	O	1.461409	0.558769	-0.520555
	H289	H	1.465400	0.555768	-0.522025
	H290	H	1.463169	0.547431	-0.527503
	O291	O	-0.922677	-0.099304	-0.033491
	H292	H	-0.919909	-0.109276	-0.034680
	H293	H	-0.919472	-0.093424	-0.047954
	O294	O	0.517569	0.548144	0.567341
	H295	H	0.518529	0.546234	0.563348
	H296	H	0.511380	0.550475	0.561225
	O297	O	0.073958	0.898787	-0.063361
	H298	H	0.076700	0.895501	-0.065399
	H299	H	0.085185	0.895887	-0.061600
	O300	O	0.488093	0.530549	0.557076
	H301	H	0.493230	0.530803	0.563334
	H302	H	0.489226	0.531459	0.559783
	O303	O	0.483893	0.541390	0.496854
	H304	H	0.480317	0.549713	0.503265
	H305	H	0.483617	0.538046	0.493634
	O306	O	0.132267	0.912987	0.908901
	H307	H	0.130244	0.914290	0.905632
	H308	H	0.136883	0.917673	0.921420
	O309	O	0.102399	-0.086642	0.963101
	H310	H	0.099756	-0.090804	0.961416
	H311	H	0.107199	-0.083409	0.970834
