data_Molecule from HDF5

_cell_length_a		16.259349
_cell_length_b		16.318472
_cell_length_c		16.223126
_cell_angle_alpha	90.043182
_cell_angle_beta	89.942214
_cell_angle_gamma	90.170065
_symmetry_space_group_name_H-M	'P 1'
_symmetry_Int_Tables_number		1

loop_
	_symmetry_equiv_pos_as_xyz
	x,y,z

loop_
	_atom_site_label
	_atom_site_type_symbol
	_atom_site_fract_x
	_atom_site_fract_y
	_atom_site_fract_z
	H0	H	0.412107	0.840213	0.709919
	H1	H	0.610269	0.167152	0.710707
	H2	H	0.609811	0.839403	0.280416
	H3	H	0.414234	0.166793	0.281174
	H4	H	0.725959	0.405444	0.830969
	H5	H	0.725678	0.603568	0.159284
	H6	H	0.298222	0.600932	0.831153
	H7	H	0.296333	0.404940	0.159268
	H8	H	0.848430	0.720426	0.395650
	H9	H	0.175246	0.719979	0.593911
	H10	H	0.848928	0.288454	0.596797
	H11	H	0.175404	0.288913	0.394499
	H12	H	0.847537	0.407921	0.708654
	H13	H	0.176651	0.602572	0.707889
	H14	H	0.848144	0.602021	0.281500
	H15	H	0.175816	0.407055	0.281915
	H16	H	0.412726	0.716936	0.831388
	H17	H	0.610005	0.719051	0.159031
	H18	H	0.610775	0.288743	0.831761
	H19	H	0.411613	0.289758	0.159594
	H20	H	0.726283	0.840367	0.396220
	H21	H	0.726939	0.167054	0.595493
	H22	H	0.295076	0.841526	0.594934
	H23	H	0.298412	0.167440	0.396813
	H24	H	0.912468	0.340600	0.210645
	H25	H	0.112275	0.667673	0.210519
	H26	H	0.109216	0.340807	0.780738
	H27	H	0.914607	0.668346	0.782151
	H28	H	0.225944	0.905846	0.332092
	H29	H	0.226788	0.104219	0.659861
	H30	H	0.796137	0.103933	0.332062
	H31	H	0.796239	0.905963	0.659849
	H32	H	0.346949	0.218266	0.896547
	H33	H	0.674627	0.220113	0.095173
	H34	H	0.347912	0.788118	0.094381
	H35	H	0.674491	0.788181	0.894075
	H36	H	0.346610	0.906753	0.206599
	H37	H	0.675266	0.102724	0.208927
	H38	H	0.346911	0.101760	0.780992
	H39	H	0.674949	0.906498	0.781974
	H40	H	0.911350	0.220694	0.332111
	H41	H	0.110405	0.218669	0.660076
	H42	H	0.111940	0.789240	0.333121
	H43	H	0.912544	0.790822	0.660116
	H44	H	0.225144	0.340335	0.896430
	H45	H	0.227621	0.667109	0.093970
	H46	H	0.795325	0.341364	0.095492
	H47	H	0.797251	0.667803	0.896823
	H48	H	0.425258	0.118562	0.591285
	H49	H	0.601424	0.887225	0.594274
	H50	H	0.610214	0.118318	0.412762
	H51	H	0.422323	0.890581	0.407274
	H52	H	0.599722	0.411984	0.110026
	H53	H	0.605576	0.586995	0.880627
	H54	H	0.416817	0.595888	0.112890
	H55	H	0.421234	0.412105	0.879940
	H56	H	0.128733	0.604792	0.407973
	H57	H	0.895298	0.603450	0.582353
	H58	H	0.126008	0.411930	0.578404
	H59	H	0.896091	0.416085	0.400388
	H60	H	0.126977	0.420699	0.593298
	H61	H	0.897005	0.590642	0.587880
	H62	H	0.125874	0.592113	0.406592
	H63	H	0.893823	0.406366	0.402987
	H64	H	0.421149	0.594632	0.111671
	H65	H	0.596039	0.600917	0.878937
	H66	H	0.604548	0.408787	0.113458
	H67	H	0.419237	0.407352	0.877290
	H68	H	0.609391	0.122914	0.392588
	H69	H	0.599873	0.890685	0.583080
	H70	H	0.419250	0.118559	0.582505
	H71	H	0.409060	0.884588	0.402668
	H72	H	0.918431	0.620897	0.089756
	H73	H	0.107626	0.386425	0.089294
	H74	H	0.113804	0.622409	0.906285
	H75	H	0.920949	0.387149	0.896618
	H76	H	0.109364	0.909563	0.616282
	H77	H	0.116239	0.095411	0.376530
	H78	H	0.907751	0.094206	0.614560
	H79	H	0.913993	0.908145	0.376214
	H80	H	0.628926	0.101402	0.900311
	H81	H	0.394357	0.098373	0.087936
	H82	H	0.629981	0.909009	0.091502
	H83	H	0.394570	0.909416	0.904539
	H84	H	0.627984	0.906471	0.082812
	H85	H	0.395208	0.096554	0.087212
	H86	H	0.625267	0.098055	0.908418
	H87	H	0.395131	0.911166	0.904029
	H88	H	0.926549	0.090263	0.607426
	H89	H	0.098687	0.090413	0.382781
	H90	H	0.104197	0.919124	0.610359
	H91	H	0.917898	0.917738	0.380449
	H92	H	0.104368	0.622782	0.893374
	H93	H	0.100963	0.387627	0.092155
	H94	H	0.919698	0.619553	0.089572
	H95	H	0.921522	0.390599	0.906887
	H96	H	0.414353	0.122911	0.591652
	H97	H	0.609588	0.886227	0.586727
	H98	H	0.592351	0.115786	0.401454
	H99	H	0.420292	0.885574	0.393433
	H100	H	0.604905	0.415018	0.111625
	H101	H	0.612560	0.602394	0.874325
	H102	H	0.420078	0.598825	0.113200
	H103	H	0.415643	0.412309	0.878316
	H104	H	0.130516	0.598572	0.395721
	H105	H	0.892459	0.600884	0.596827
	H106	H	0.132227	0.404961	0.592459
	H107	H	0.898263	0.413330	0.410487
	H108	H	0.918441	0.619713	0.088042
	H109	H	0.101969	0.389817	0.085323
	H110	H	0.098998	0.616527	0.907863
	H111	H	0.911709	0.386554	0.902852
	H112	H	0.097450	0.909328	0.612941
	H113	H	0.101809	0.108724	0.376673
	H114	H	0.922065	0.108248	0.614796
	H115	H	0.924919	0.909279	0.380031
	H116	H	0.626459	0.092051	0.901004
	H117	H	0.394271	0.097565	0.089211
	H118	H	0.625961	0.915694	0.086140
	H119	H	0.393965	0.909960	0.902302
	C120	C	0.390349	0.012292	0.617287
	C121	C	0.633063	0.995590	0.617547
	C122	C	0.633373	0.011680	0.373029
	C123	C	0.389703	0.994970	0.372979
	C124	C	0.632548	0.382737	0.003520
	C125	C	0.633274	0.625873	0.986515
	C126	C	0.390567	0.624385	0.004087
	C127	C	0.389477	0.381909	0.986872
	C128	C	0.020161	0.627000	0.374514
	C129	C	1.002996	0.627020	0.617523
	C130	C	0.020398	0.383418	0.617251
	C131	C	1.003998	0.383335	0.375184
	C132	C	0.889438	0.512333	0.118219
	C133	C	0.133097	0.496025	0.116982
	C134	C	0.133922	0.512445	0.873436
	C135	C	0.890101	0.496215	0.873874
	C136	C	0.132708	0.883887	0.504685
	C137	C	0.134010	0.126718	0.487361
	C138	C	0.889732	0.126472	0.503979
	C139	C	0.890106	0.883202	0.487483
	C140	C	0.519022	0.126040	0.873786
	C141	C	0.502663	0.126469	0.117024
	C142	C	0.519819	0.882168	0.115417
	C143	C	0.502638	0.881498	0.873969
	C144	C	0.391855	0.889372	0.672485
	C145	C	0.630790	0.118457	0.672680
	C146	C	0.630729	0.888480	0.317819
	C147	C	0.393118	0.118148	0.318511
	C148	C	0.688209	0.384838	0.880122
	C149	C	0.687826	0.623567	0.110271
	C150	C	0.335556	0.621830	0.880340
	C151	C	0.333991	0.384236	0.110324
	C152	C	0.897103	0.681837	0.376427
	C153	C	0.126397	0.682460	0.615139
	C154	C	0.897524	0.327106	0.615948
	C155	C	0.126691	0.327409	0.375651
	C156	C	0.896832	0.386439	0.671886
	C157	C	0.127049	0.623829	0.671302
	C158	C	0.897007	0.623470	0.319217
	C159	C	0.127097	0.386081	0.319643
	C160	C	0.392552	0.679346	0.880390
	C161	C	0.630523	0.681239	0.110005
	C162	C	0.630854	0.326892	0.880463
	C163	C	0.391256	0.327170	0.110456
	C164	C	0.688465	0.888872	0.375506
	C165	C	0.688687	0.118373	0.615328
	C166	C	0.333919	0.889651	0.615141
	C167	C	0.335674	0.118512	0.376105
	C168	C	0.891434	0.389744	0.173634
	C169	C	0.131511	0.618885	0.171960
	C170	C	0.130465	0.389705	0.818033
	C171	C	0.893510	0.619405	0.819350
	C172	C	0.187958	0.885701	0.381165
	C173	C	0.189102	0.124512	0.610689
	C174	C	0.833986	0.124165	0.380907
	C175	C	0.834285	0.885476	0.610898
	C176	C	0.395958	0.180802	0.875828
	C177	C	0.625714	0.182069	0.114974
	C178	C	0.396727	0.826329	0.114153
	C179	C	0.625532	0.826205	0.874717
	C180	C	0.396109	0.885274	0.170147
	C181	C	0.626236	0.123328	0.171397
	C182	C	0.395801	0.122717	0.818534
	C183	C	0.625960	0.885332	0.819288
	C184	C	0.891855	0.181805	0.380962
	C185	C	0.131107	0.181287	0.611034
	C186	C	0.131079	0.827945	0.381675
	C187	C	0.891930	0.828237	0.610934
	C188	C	0.188132	0.389446	0.875637
	C189	C	0.189193	0.618530	0.114286
	C190	C	0.833462	0.389843	0.116103
	C191	C	0.835318	0.619248	0.876611
	C192	C	0.413057	0.097982	0.594897
	C193	C	0.610373	0.910267	0.594700
	C194	C	0.610823	0.096756	0.395514
	C195	C	0.410939	0.909255	0.394652
	C196	C	0.609878	0.405366	0.089601
	C197	C	0.611312	0.603449	0.900241
	C198	C	0.412719	0.602717	0.090267
	C199	C	0.411991	0.404188	0.900777
	C200	C	0.106084	0.605038	0.396833
	C201	C	0.917107	0.604847	0.595474
	C202	C	0.106117	0.405860	0.594544
	C203	C	0.918280	0.405713	0.398061
	C204	C	0.912189	0.597853	0.095754
	C205	C	0.110198	0.410016	0.095222
	C206	C	0.112138	0.598405	0.895985
	C207	C	0.911680	0.410319	0.895761
	C208	C	0.110438	0.906243	0.590878
	C209	C	0.112039	0.104656	0.400911
	C210	C	0.912228	0.104143	0.590107
	C211	C	0.912413	0.905219	0.401327
	C212	C	0.604890	0.103858	0.896762
	C213	C	0.416727	0.103912	0.094660
	C214	C	0.605730	0.904014	0.093269
	C215	C	0.416791	0.903679	0.896970
	Zn216	Zn	0.511050	0.003494	0.746313
	Zn217	Zn	0.511442	0.003270	0.243993
	Zn218	Zn	0.761086	0.504213	-0.004755
	Zn219	Zn	0.261982	0.503634	-0.004787
	Zn220	Zn	0.011653	0.755732	0.496601
	Zn221	Zn	0.012640	0.254565	0.495886
	Zn222	Zn	0.011893	0.505141	0.745432
	Zn223	Zn	0.012198	0.504162	0.246531
	Zn224	Zn	0.511022	0.752957	-0.005042
	Zn225	Zn	0.510516	0.254601	-0.004559
	Zn226	Zn	0.761533	0.003826	0.495533
	Zn227	Zn	0.261694	0.004396	0.495871
	N228	N	0.426092	0.966654	0.673779
	N229	N	0.596881	0.041251	0.674300
	N230	N	0.596919	0.965789	0.316026
	N231	N	0.426072	0.040600	0.316475
	N232	N	0.689202	0.419007	0.957614
	N233	N	0.689708	0.590105	0.032437
	N234	N	0.334251	0.588388	0.958051
	N235	N	0.332712	0.417611	0.032483
	N236	N	0.974916	0.684306	0.409757
	N237	N	0.048531	0.684446	0.582256
	N238	N	0.975437	0.325019	0.582783
	N239	N	0.049015	0.325468	0.409256
	N240	N	0.974263	0.420608	0.673028
	N241	N	0.049357	0.590240	0.673098
	N242	N	0.974586	0.590241	0.317785
	N243	N	0.049801	0.420132	0.319094
	N244	N	0.426210	0.680973	0.958246
	N245	N	0.597497	0.682886	0.031918
	N246	N	0.597059	0.325625	0.958236
	N247	N	0.425225	0.325798	0.032785
	N248	N	0.690505	0.966282	0.408809
	N249	N	0.690045	0.040951	0.581587
	N250	N	0.333139	0.966871	0.581210
	N251	N	0.333403	0.041037	0.409506
	N252	N	0.925688	0.466940	0.174998
	N253	N	0.097186	0.541630	0.173747
	N254	N	0.097458	0.467298	0.816696
	N255	N	0.926742	0.542042	0.817606
	N256	N	0.188849	0.920120	0.458541
	N257	N	0.191056	0.091236	0.532742
	N258	N	0.832655	0.090369	0.458568
	N259	N	0.833152	0.918918	0.532965
	N260	N	0.473595	0.182880	0.909287
	N261	N	0.547818	0.184063	0.082001
	N262	N	0.474431	0.824340	0.080882
	N263	N	0.547693	0.823656	0.908099
	N264	N	0.473732	0.919290	0.171099
	N265	N	0.548751	0.089361	0.172843
	N266	N	0.473422	0.089187	0.817261
	N267	N	0.548628	0.919061	0.818801
	N268	N	0.925495	0.183609	0.458639
	N269	N	0.097684	0.182754	0.533203
	N270	N	0.097378	0.826911	0.459509
	N271	N	0.925955	0.826858	0.533323
	N272	N	0.190258	0.466807	0.909354
	N273	N	0.190157	0.541082	0.080822
	N274	N	0.831846	0.467264	0.082574
	N275	N	0.833219	0.541642	0.909906
	O276	O	0.914076	0.901370	0.068602
	H277	H	0.904560	0.887164	0.077634
	H278	H	0.912859	0.900625	0.087000
	O279	O	0.032519	-0.024420	1.055400
	H280	H	0.037469	-0.023236	1.056266
	H281	H	0.030263	-0.030715	1.062070
	O282	O	0.035004	-0.004793	-0.054715
	H283	H	0.028975	0.001531	-0.059392
	H284	H	0.032003	-0.005203	-0.058129
	O285	O	0.561797	0.478618	0.450965
	H286	H	0.560215	0.482136	0.451849
	H287	H	0.562823	0.472497	0.451520
	O288	O	-0.069869	-0.015427	0.071163
	H289	H	-0.067832	-0.024237	0.073360
	H290	H	-0.068887	-0.009333	0.074783
	O291	O	0.044866	0.944117	0.046698
	H292	H	0.043487	0.940159	0.038387
	H293	H	0.043986	0.939180	0.039971
	O294	O	-0.029950	1.005151	0.025694
	H295	H	-0.036932	1.008732	0.035342
	H296	H	-0.030145	1.000397	0.026636
	O297	O	0.542988	0.475139	0.470873
	H298	H	0.551566	0.461733	0.465827
	H299	H	0.535666	0.481387	0.470219
	O300	O	0.592662	0.432330	0.509442
	H301	H	0.592587	0.435236	0.498601
	H302	H	0.602202	0.425065	0.511975
	O303	O	0.563130	-0.540858	1.442324
	H304	H	0.578023	-0.543042	1.447015
	H305	H	0.553519	-0.544734	1.440938
	O306	O	-0.059891	1.098522	0.982132
	H307	H	-0.049297	1.103713	0.991034
	H308	H	-0.069114	1.110202	0.974117
	O309	O	0.066333	1.022371	1.034855
	H310	H	0.063286	1.022358	1.038283
	H311	H	0.061015	1.013649	1.033198
	O312	O	-0.020347	-0.006265	0.989803
	H313	H	-0.019137	-0.006873	0.984511
	H314	H	-0.015661	-0.011048	0.986864
	O315	O	0.448774	0.476518	0.533368
	H316	H	0.448504	0.476984	0.542726
	H317	H	0.453776	0.478596	0.525562
	O318	O	0.042502	0.082285	1.027787
	H319	H	0.053229	0.076639	1.024955
	H320	H	0.038898	0.084769	1.027633
	O321	O	0.519502	0.420877	0.472151
	H322	H	0.517653	0.423122	0.470473
	H323	H	0.518487	0.408802	0.470649
	O324	O	1.041969	-0.042400	1.021722
	H325	H	1.038347	-0.039192	1.017812
	H326	H	1.045428	-0.035398	1.016153
	O327	O	0.972804	1.058417	1.001545
	H328	H	0.979248	1.061859	0.989931
	H329	H	0.967404	1.057210	1.001233
	O330	O	0.460962	0.421973	0.570789
	H331	H	0.460114	0.417524	0.577498
	H332	H	0.455762	0.419278	0.567206
	O333	O	0.555646	0.510778	0.436695
	H334	H	0.560333	0.506318	0.435024
	H335	H	0.548569	0.522835	0.437883
	O336	O	0.565212	0.471402	0.508140
	H337	H	0.561165	0.470428	0.501339
	H338	H	0.567686	0.478112	0.511117
	O339	O	-0.433148	0.449835	-0.492353
	H340	H	-0.432744	0.446562	-0.493886
	H341	H	-0.428414	0.457946	-0.498832
	O342	O	0.484358	0.425297	0.555129
	H343	H	0.483626	0.424288	0.546891
	H344	H	0.485954	0.420387	0.564135
	O345	O	0.446280	0.479668	0.544555
	H346	H	0.440146	0.471848	0.556470
	H347	H	0.444289	0.471016	0.542473
