data_Molecule from HDF5

_cell_length_a		16.483243
_cell_length_b		16.733848
_cell_length_c		16.552532
_cell_angle_alpha	89.932310
_cell_angle_beta	90.005132
_cell_angle_gamma	89.844884
_symmetry_space_group_name_H-M	'P 1'
_symmetry_Int_Tables_number		1

loop_
	_symmetry_equiv_pos_as_xyz
	x,y,z

loop_
	_atom_site_label
	_atom_site_type_symbol
	_atom_site_fract_x
	_atom_site_fract_y
	_atom_site_fract_z
	H0	H	0.370887	0.860237	0.716108
	H1	H	0.583686	0.169105	0.714202
	H2	H	0.581946	0.858268	0.271991
	H3	H	0.372018	0.169246	0.270790
	H4	H	0.694569	0.413806	0.833384
	H5	H	0.695328	0.615788	0.150005
	H6	H	0.257224	0.618961	0.836148
	H7	H	0.258300	0.411325	0.149652
	H8	H	0.820742	0.735202	0.387067
	H9	H	0.134300	0.733474	0.598095
	H10	H	0.820308	0.294264	0.595550
	H11	H	0.133407	0.290255	0.384362
	H12	H	0.819877	0.411435	0.710461
	H13	H	0.135280	0.615234	0.711717
	H14	H	0.819817	0.617197	0.273832
	H15	H	0.133853	0.408109	0.270460
	H16	H	0.369487	0.738551	0.838824
	H17	H	0.584112	0.736158	0.147638
	H18	H	0.582357	0.293913	0.834226
	H19	H	0.371732	0.292830	0.148648
	H20	H	0.697153	0.856983	0.390719
	H21	H	0.699742	0.168852	0.596908
	H22	H	0.257151	0.859244	0.596783
	H23	H	0.255076	0.168876	0.387436
	H24	H	0.870495	0.360171	0.216555
	H25	H	0.081738	0.669218	0.214264
	H26	H	0.084119	0.357189	0.770703
	H27	H	0.874654	0.668615	0.772033
	H28	H	0.199147	0.908792	0.336325
	H29	H	0.199806	0.118921	0.649598
	H30	H	0.758514	0.115932	0.335437
	H31	H	0.758784	0.910342	0.649748
	H32	H	0.319636	0.236487	0.885897
	H33	H	0.635271	0.233093	0.096374
	H34	H	0.321915	0.791976	0.100363
	H35	H	0.632417	0.790825	0.884571
	H36	H	0.320653	0.909948	0.213497
	H37	H	0.636036	0.115850	0.210492
	H38	H	0.318751	0.118787	0.772233
	H39	H	0.634404	0.910399	0.773136
	H40	H	0.870926	0.234858	0.336555
	H41	H	0.086605	0.237610	0.647700
	H42	H	0.086076	0.790394	0.337833
	H43	H	0.873946	0.792723	0.649305
	H44	H	0.201167	0.357949	0.886980
	H45	H	0.199135	0.669539	0.097325
	H46	H	0.754448	0.360440	0.098892
	H47	H	0.757716	0.669630	0.889667
	H48	H	0.392691	0.125409	0.585433
	H49	H	0.568211	0.900768	0.589107
	H50	H	0.567077	0.124964	0.401664
	H51	H	0.391674	0.901015	0.392972
	H52	H	0.574895	0.422383	0.106916
	H53	H	0.569610	0.602962	0.879427
	H54	H	0.391076	0.603299	0.104270
	H55	H	0.394631	0.426965	0.882925
	H56	H	0.090574	0.600162	0.401977
	H57	H	0.866344	0.601329	0.579351
	H58	H	0.090758	0.421727	0.579936
	H59	H	0.864288	0.419060	0.407822
	H60	H	0.089448	0.425200	0.578137
	H61	H	0.862461	0.603377	0.585773
	H62	H	0.090966	0.606094	0.404158
	H63	H	0.868076	0.429148	0.407566
	H64	H	0.389972	0.603691	0.105060
	H65	H	0.561734	0.602348	0.880973
	H66	H	0.562427	0.429372	0.100601
	H67	H	0.390168	0.418805	0.878399
	H68	H	0.568720	0.124646	0.402482
	H69	H	0.561971	0.906199	0.581867
	H70	H	0.390372	0.123206	0.576267
	H71	H	0.395866	0.907395	0.408357
	H72	H	0.890668	0.624320	0.083649
	H73	H	0.067611	0.404378	0.080120
	H74	H	0.066674	0.621754	0.906213
	H75	H	0.885580	0.401916	0.903004
	H76	H	0.065169	0.921742	0.605732
	H77	H	0.064758	0.101925	0.381541
	H78	H	0.887641	0.100939	0.604389
	H79	H	0.889158	0.919847	0.378726
	H80	H	0.588229	0.098081	0.898227
	H81	H	0.363986	0.105576	0.082581
	H82	H	0.590941	0.924113	0.083044
	H83	H	0.364103	0.925628	0.903628
	H84	H	0.589439	0.922328	0.078512
	H85	H	0.364453	0.105538	0.080788
	H86	H	0.592913	0.111325	0.899437
	H87	H	0.366413	0.926475	0.908850
	H88	H	0.892956	0.104222	0.605034
	H89	H	0.064137	0.100871	0.382736
	H90	H	0.068266	0.924741	0.604785
	H91	H	0.885679	0.924085	0.378843
	H92	H	0.070817	0.625331	0.899591
	H93	H	0.066550	0.403475	0.081957
	H94	H	0.887056	0.624038	0.078854
	H95	H	0.885941	0.400857	0.899630
	H96	H	0.383508	0.127018	0.582121
	H97	H	0.572389	0.903247	0.578828
	H98	H	0.568557	0.125484	0.400695
	H99	H	0.379924	0.900487	0.405940
	H100	H	0.561206	0.414895	0.105530
	H101	H	0.564993	0.608657	0.877952
	H102	H	0.389571	0.602343	0.104159
	H103	H	0.384932	0.427980	0.879187
	H104	H	0.088945	0.601357	0.408590
	H105	H	0.863711	0.608554	0.580013
	H106	H	0.090241	0.425711	0.582305
	H107	H	0.863227	0.425467	0.399012
	H108	H	0.885292	0.626594	0.083621
	H109	H	0.065121	0.404548	0.080570
	H110	H	0.062573	0.622995	0.899095
	H111	H	0.888779	0.402126	0.901850
	H112	H	0.064229	0.925062	0.603067
	H113	H	0.063484	0.102450	0.383074
	H114	H	0.887548	0.107238	0.606749
	H115	H	0.890675	0.924546	0.381288
	H116	H	0.587247	0.104316	0.911143
	H117	H	0.364562	0.103960	0.081063
	H118	H	0.589345	0.927679	0.079497
	H119	H	0.365715	0.930645	0.904714
	C120	C	0.356505	0.022866	0.613513
	C121	C	0.599687	1.005917	0.614805
	C122	C	0.599462	0.021900	0.370837
	C123	C	0.356305	1.005687	0.370687
	C124	C	0.598366	0.391942	0.000244
	C125	C	0.597868	0.635792	0.983352
	C126	C	0.356813	0.635612	0.001592
	C127	C	0.356928	0.392788	0.983811
	C128	C	-0.014079	0.634260	0.372858
	C129	C	0.968959	0.634559	0.613258
	C130	C	-0.013902	0.392825	0.612243
	C131	C	0.968835	0.392400	0.371456
	C132	C	0.854956	0.522999	0.114794
	C133	C	0.098751	0.506313	0.113479
	C134	C	0.099946	0.521146	0.869712
	C135	C	0.856131	0.504959	0.870831
	C136	C	0.099398	0.891802	0.501350
	C137	C	0.098229	0.134713	0.484969
	C138	C	0.856936	0.134684	0.501301
	C139	C	0.856988	0.891828	0.483650
	C140	C	0.485352	0.136484	0.870498
	C141	C	0.468798	0.135750	0.113116
	C142	C	0.486116	0.892962	0.113211
	C143	C	0.468416	0.894159	0.872293
	C144	C	0.353526	0.906484	0.674798
	C145	C	0.601794	0.122593	0.674064
	C146	C	0.600629	0.904811	0.312005
	C147	C	0.353668	0.122563	0.310802
	C148	C	0.656307	0.393196	0.881031
	C149	C	0.656800	0.635680	0.101963
	C150	C	0.296832	0.637700	0.883480
	C151	C	0.297493	0.392074	0.102211
	C152	C	0.867804	0.694556	0.369934
	C153	C	0.087141	0.693546	0.615958
	C154	C	0.867472	0.334089	0.614295
	C155	C	0.086481	0.331284	0.367237
	C156	C	0.867262	0.392095	0.671435
	C157	C	0.087761	0.634918	0.672423
	C158	C	0.867093	0.635869	0.313596
	C159	C	0.086768	0.389598	0.310437
	C160	C	0.352575	0.697132	0.884770
	C161	C	0.601622	0.695765	0.100852
	C162	C	0.600253	0.333977	0.881461
	C163	C	0.353969	0.333058	0.101577
	C164	C	0.657880	0.904154	0.371059
	C165	C	0.659672	0.122392	0.615804
	C166	C	0.296524	0.905921	0.615895
	C167	C	0.295683	0.122468	0.369072
	C168	C	0.852224	0.406886	0.175861
	C169	C	0.100652	0.622807	0.173825
	C170	C	0.102438	0.404194	0.810415
	C171	C	0.855527	0.622319	0.811930
	C172	C	0.159686	0.890025	0.383769
	C173	C	0.159760	0.137476	0.602252
	C174	C	0.797550	0.135379	0.382921
	C175	C	0.798410	0.891237	0.602777
	C176	C	0.366770	0.196177	0.868455
	C177	C	0.588002	0.193639	0.114420
	C178	C	0.368590	0.832724	0.117080
	C179	C	0.585696	0.832556	0.867892
	C180	C	0.367898	0.891177	0.173469
	C181	C	0.588145	0.135586	0.171500
	C182	C	0.366314	0.137726	0.811726
	C183	C	0.586917	0.892020	0.812515
	C184	C	0.853571	0.194475	0.383372
	C185	C	0.103168	0.196340	0.601559
	C186	C	0.103322	0.831089	0.384499
	C187	C	0.855215	0.832660	0.602212
	C188	C	0.160899	0.404665	0.868216
	C189	C	0.158775	0.623075	0.115688
	C190	C	0.794453	0.406833	0.117439
	C191	C	0.797579	0.622821	0.870323
	C192	C	0.381640	0.103975	0.588312
	C193	C	0.574641	0.924633	0.590229
	C194	C	0.575161	0.103836	0.394849
	C195	C	0.381913	0.924262	0.395412
	C196	C	0.573475	0.415233	0.082918
	C197	C	0.572596	0.611611	0.900904
	C198	C	0.382725	0.610224	0.083131
	C199	C	0.382555	0.417478	0.901608
	C200	C	0.068548	0.609374	0.397794
	C201	C	0.885903	0.611067	0.588830
	C202	C	0.068676	0.417159	0.587341
	C203	C	0.886656	0.417513	0.397412
	C204	C	0.880341	0.603859	0.089244
	C205	C	0.073560	0.425223	0.088138
	C206	C	0.074166	0.602400	0.894368
	C207	C	0.879970	0.422988	0.894805
	C208	C	0.073430	0.916995	0.583394
	C209	C	0.071586	0.109128	0.403634
	C210	C	0.882089	0.110824	0.583715
	C211	C	0.881436	0.915989	0.401267
	C212	C	0.567971	0.111660	0.895712
	C213	C	0.385973	0.111808	0.088574
	C214	C	0.568575	0.917893	0.087749
	C215	C	0.386783	0.919968	0.898282
	Zn216	Zn	0.476805	0.014684	0.743317
	Zn217	Zn	0.477859	0.013960	0.240830
	Zn218	Zn	0.726306	0.514065	-0.008081
	Zn219	Zn	0.228581	0.514181	-0.007607
	Zn220	Zn	-0.022146	0.763567	0.492241
	Zn221	Zn	-0.022673	0.263542	0.492576
	Zn222	Zn	-0.022366	0.512534	0.740964
	Zn223	Zn	-0.022469	0.514259	0.243497
	Zn224	Zn	0.476879	0.764685	-0.007273
	Zn225	Zn	0.477724	0.263661	-0.008247
	Zn226	Zn	0.728975	0.013227	0.492824
	Zn227	Zn	0.226971	0.013740	0.492547
	N228	N	0.389862	0.980267	0.673750
	N229	N	0.565481	0.048966	0.674009
	N230	N	0.565175	0.979180	0.311678
	N231	N	0.390395	0.048823	0.311424
	N232	N	0.655423	0.428546	0.956010
	N233	N	0.654526	0.598898	0.027806
	N234	N	0.299137	0.600099	0.957017
	N235	N	0.299068	0.428418	0.027854
	N236	N	0.942899	0.693856	0.405924
	N237	N	0.011985	0.693825	0.580091
	N238	N	0.942457	0.334160	0.578635
	N239	N	0.011973	0.332622	0.404363
	N240	N	0.942071	0.427787	0.670379
	N241	N	0.012998	0.599152	0.671212
	N242	N	0.941576	0.599002	0.315243
	N243	N	0.012374	0.426678	0.312605
	N244	N	0.388822	0.696232	0.959254
	N245	N	0.565957	0.696193	0.025860
	N246	N	0.565223	0.332796	0.956734
	N247	N	0.389976	0.333112	0.026726
	N248	N	0.657524	0.978088	0.406721
	N249	N	0.658590	0.048795	0.579689
	N250	N	0.298074	0.979261	0.578762
	N251	N	0.297129	0.048677	0.405448
	N252	N	0.889112	0.480271	0.174514
	N253	N	0.063980	0.549225	0.172622
	N254	N	0.065272	0.477784	0.811117
	N255	N	0.890937	0.547959	0.811884
	N256	N	0.157224	0.927251	0.457565
	N257	N	0.156891	0.099883	0.528669
	N258	N	0.799352	0.099026	0.457290
	N259	N	0.799104	0.927117	0.528037
	N260	N	0.441934	0.195472	0.904307
	N261	N	0.512666	0.194240	0.079174
	N262	N	0.443269	0.833697	0.080350
	N263	N	0.511103	0.833692	0.904486
	N264	N	0.442088	0.928053	0.171225
	N265	N	0.513009	0.100195	0.170922
	N266	N	0.441067	0.101402	0.812662
	N267	N	0.512869	0.929735	0.814905
	N268	N	0.889774	0.194210	0.458167
	N269	N	0.065739	0.195031	0.527408
	N270	N	0.066594	0.831918	0.458943
	N271	N	0.890583	0.832563	0.527110
	N272	N	0.159701	0.478634	0.904156
	N273	N	0.157823	0.549529	0.078935
	N274	N	0.795897	0.480023	0.080232
	N275	N	0.797576	0.548808	0.905987
	O276	O	-0.240019	0.940865	-0.058414
	H277	H	-0.231367	0.948715	-0.052729
	H278	H	-0.239007	0.952324	-0.058762
	O279	O	0.721613	0.274588	0.138436
	H280	H	0.699558	0.286847	0.144565
	H281	H	0.717077	0.269081	0.133027
	O282	O	0.838454	0.225737	0.831544
	H283	H	0.833901	0.245293	0.827358
	H284	H	0.821203	0.230645	0.819375
	O285	O	0.433428	0.379357	0.489608
	H286	H	0.427527	0.377915	0.466206
	H287	H	0.414786	0.379965	0.482794
	O288	O	0.298675	0.342367	0.317660
	H289	H	0.287954	0.334244	0.313855
	H290	H	0.302198	0.359841	0.330575
	O291	O	0.677669	0.721241	0.700360
	H292	H	0.698428	0.738382	0.680618
	H293	H	0.697296	0.702520	0.717436
	O294	O	0.649062	-0.304793	1.306469
	H295	H	0.628158	-0.324350	1.313733
	H296	H	0.644889	-0.295208	1.306567
	O297	O	-0.079006	0.782782	0.927866
	H298	H	-0.070284	0.781019	0.944306
	H299	H	-0.084026	0.780967	0.921483
	O300	O	-0.082329	-0.067003	0.920128
	H301	H	-0.090630	-0.059783	0.922726
	H302	H	-0.062428	-0.057653	0.912257
	O303	O	0.937935	0.175570	-0.052764
	H304	H	0.938501	0.185113	-0.064293
	H305	H	0.926116	0.169278	-0.061111
	O306	O	1.013091	0.793095	0.773709
	H307	H	1.001423	0.793766	0.766278
	H308	H	1.006133	0.787223	0.764655
	O309	O	0.594121	0.296886	0.611076
	H310	H	0.570368	0.299701	0.602846
	H311	H	0.581912	0.306496	0.612719
	O312	O	0.443041	0.406632	0.602072
	H313	H	0.444048	0.401691	0.597803
	H314	H	0.434768	0.393010	0.605280
	O315	O	1.277562	0.717003	1.289893
	H316	H	1.248379	0.742726	1.268122
	H317	H	1.288301	0.712102	1.313935
	O318	O	0.073827	0.232753	0.890530
	H319	H	0.081080	0.259350	0.885013
	H320	H	0.049978	0.235395	0.888241
	O321	O	0.070596	0.168960	-0.094670
	H322	H	0.057548	0.170096	-0.106686
	H323	H	0.071540	0.159009	-0.094506
	O324	O	0.990845	1.212311	0.187731
	H325	H	0.985011	1.230429	0.190529
	H326	H	0.997919	1.218923	0.192629
	O327	O	-0.049283	0.007542	1.192310
	H328	H	-0.054671	-0.002493	1.204670
	H329	H	-0.054949	0.018181	1.174960
	O330	O	0.773329	0.804598	1.200108
	H331	H	0.782936	0.809085	1.171200
	H332	H	0.762794	0.783256	1.200284
	O333	O	0.197513	0.047068	0.215392
	H334	H	0.203693	0.064106	0.221358
	H335	H	0.216073	0.045751	0.224446
	O336	O	0.927985	-0.196378	-0.069672
	H337	H	0.939837	-0.190379	-0.057571
	H338	H	0.939699	-0.184842	-0.054189
	O339	O	1.266810	-0.440117	0.555497
	H340	H	1.277338	-0.449538	0.556336
	H341	H	1.258836	-0.448096	0.554429
	O342	O	0.501377	0.736733	-0.288089
	H343	H	0.532607	0.741762	-0.274128
	H344	H	0.522231	0.743989	-0.274059
	O345	O	0.040509	1.131379	0.883119
	H346	H	0.049919	1.138111	0.879839
	H347	H	0.047183	1.132425	0.872729
	O348	O	0.613210	0.464409	0.580781
	H349	H	0.608682	0.460912	0.564310
	H350	H	0.613011	0.472849	0.579929
	O351	O	1.030876	1.067982	-0.152557
	H352	H	1.038296	1.049355	-0.159293
	H353	H	1.038175	1.063741	-0.143346
	O354	O	-0.074050	-0.021128	1.002742
	H355	H	-0.079550	-0.016559	1.016710
	H356	H	-0.066716	-0.011392	1.016073
	O357	O	0.285712	0.708020	0.684528
	H358	H	0.309888	0.680231	0.680361
	H359	H	0.301084	0.698494	0.656843
	O360	O	1.122471	0.075779	0.990307
	H361	H	1.127421	0.065651	0.989675
	H362	H	1.129342	0.063950	0.998550
	O363	O	-0.408322	-0.526091	-0.580079
	H364	H	-0.414435	-0.524936	-0.592748
	H365	H	-0.400936	-0.535898	-0.575375
	O366	O	0.405392	0.490314	0.315014
	H367	H	0.390129	0.497911	0.319266
	H368	H	0.408723	0.475997	0.309970
	O369	O	0.824829	0.187379	0.191854
	H370	H	0.825508	0.181769	0.192518
	H371	H	0.843877	0.180396	0.183153
	O372	O	1.690505	1.479780	0.279146
	H373	H	1.705856	1.480437	0.260254
	H374	H	1.689286	1.493198	0.286673
	O375	O	1.196125	0.159978	-0.024707
	H376	H	1.200201	0.161752	-0.044787
	H377	H	1.205431	0.162313	-0.038307
	O378	O	-0.051139	-0.201045	1.207542
	H379	H	-0.051838	-0.213273	1.222375
	H380	H	-0.057517	-0.192206	1.212468
	O381	O	0.165610	0.826688	1.175763
	H382	H	0.158584	0.847427	1.158074
	H383	H	0.135633	0.841647	1.164761
	O384	O	0.982706	0.024027	1.175996
	H385	H	0.976098	0.023412	1.157814
	H386	H	0.988158	0.039986	1.184482
	O387	O	1.332860	0.605393	0.282509
	H388	H	1.324719	0.618754	0.284368
	H389	H	1.328955	0.624600	0.284151
	O390	O	0.507020	0.286114	0.271915
	H391	H	0.507126	0.275441	0.253651
	H392	H	0.532863	0.280064	0.263744
	O393	O	0.433017	0.745794	0.544590
	H394	H	0.433637	0.748242	0.568727
	H395	H	0.449985	0.752388	0.546523
	O396	O	-0.133475	0.890658	0.780100
	H397	H	-0.138954	0.899531	0.790811
	H398	H	-0.119897	0.915870	0.790134
	O399	O	-0.735205	0.728062	0.463459
	H400	H	-0.732017	0.722169	0.461825
	H401	H	-0.748451	0.746800	0.467341
	O402	O	0.282080	0.316971	0.677794
	H403	H	0.300137	0.317985	0.677859
	H404	H	0.272192	0.341234	0.665640
	O405	O	0.761906	-0.023422	1.209038
	H406	H	0.763792	-0.057343	1.206286
	H407	H	0.749434	-0.022107	1.235059
	O408	O	-0.004291	-0.125761	0.048382
	H409	H	0.002409	-0.144565	0.039107
	H410	H	0.000020	-0.125906	0.034494
	O411	O	1.197457	0.987513	0.781552
	H412	H	1.190518	0.961070	0.781081
	H413	H	1.217588	0.980145	0.755386
	O414	O	1.193587	-0.033336	0.054107
	H415	H	1.196672	-0.030128	0.064861
	H416	H	1.189404	-0.034991	0.041938
	O417	O	0.691044	0.294254	0.463837
	H418	H	0.706602	0.277490	0.455695
	H419	H	0.684224	0.288130	0.458792
	O420	O	0.469791	0.645387	0.461446
	H421	H	0.478442	0.648546	0.470844
	H422	H	0.483925	0.649300	0.442116
	O423	O	0.478011	-0.274174	1.336820
	H424	H	0.468980	-0.263193	1.333118
	H425	H	0.468211	-0.281772	1.345286
	O426	O	0.665831	0.388911	0.406729
	H427	H	0.666766	0.401800	0.405993
	H428	H	0.689432	0.374603	0.383413
	O429	O	0.965665	1.127684	0.979747
	H430	H	0.972346	1.118406	0.966105
	H431	H	0.990380	1.120607	0.981960
	O432	O	0.266794	0.387866	0.440996
	H433	H	0.257732	0.379270	0.429654
	H434	H	0.268195	0.401168	0.430186
	O435	O	0.482264	0.295490	0.473411
	H436	H	0.479524	0.290390	0.453602
	H437	H	0.489696	0.302060	0.464577
	O438	O	-0.040512	0.146566	0.084301
	H439	H	-0.030769	0.145282	0.089225
	H440	H	-0.052010	0.147610	0.099170
	O441	O	0.325485	0.501793	0.445088
	H442	H	0.318681	0.506464	0.424231
	H443	H	0.324030	0.505282	0.447008
	O444	O	0.478138	0.521218	0.463628
	H445	H	0.476534	0.522435	0.461398
	H446	H	0.471164	0.518636	0.455936
	O447	O	-0.244651	1.045010	0.770283
	H448	H	-0.256404	1.058683	0.774511
	H449	H	-0.262973	1.067144	0.751144
	O450	O	-0.240656	1.111820	1.008609
	H451	H	-0.239642	1.105002	1.023755
	H452	H	-0.225330	1.123395	1.004881
	O453	O	0.180852	0.217943	0.199534
	H454	H	0.172070	0.211882	0.212739
	H455	H	0.178768	0.222899	0.156421
	O456	O	-0.242050	-0.205369	1.025102
	H457	H	-0.269459	-0.220473	1.021765
	H458	H	-0.242502	-0.183586	1.011964
	O459	O	1.196089	0.796715	-0.041493
	H460	H	1.200089	0.798523	-0.070023
	H461	H	1.218281	0.780295	-0.054048
	O462	O	1.658452	0.708291	0.556102
	H463	H	1.662758	0.698651	0.541291
	H464	H	1.678830	0.716911	0.551954
	O465	O	1.182983	-0.190726	-0.213700
	H466	H	1.211917	-0.223974	-0.245090
	H467	H	1.142902	-0.187700	-0.215859
	O468	O	0.426087	0.567384	0.715889
	H469	H	0.447383	0.581303	0.713493
	H470	H	0.441280	0.555628	0.714357
	O471	O	0.509191	0.520411	0.267101
	H472	H	0.504239	0.521536	0.261685
	H473	H	0.488755	0.522543	0.267116
	O474	O	0.654457	0.581517	0.533839
	H475	H	0.643250	0.582619	0.531596
	H476	H	0.665683	0.592744	0.549580
	O477	O	0.564962	0.561831	1.532226
	H478	H	0.570269	0.551163	1.522935
	H479	H	0.549402	0.569461	1.524794
	O480	O	0.438098	0.290076	0.705466
	H481	H	0.436191	0.296988	0.694841
	H482	H	0.430296	0.262911	0.735166
	O483	O	0.695061	0.554789	0.710327
	H484	H	0.692366	0.559742	0.697991
	H485	H	0.713037	0.545192	0.734313
	O486	O	0.259657	0.479628	0.714234
	H487	H	0.243040	0.487443	0.747325
	H488	H	0.272004	0.483762	0.716908
	O489	O	0.749857	1.250104	-0.240487
	H490	H	0.754999	1.264361	-0.224644
	H491	H	0.724762	1.254121	-0.262436
