data_Molecule from HDF5

_cell_length_a		16.600391
_cell_length_b		16.571500
_cell_length_c		16.612613
_cell_angle_alpha	89.901072
_cell_angle_beta	90.196872
_cell_angle_gamma	90.102788
_symmetry_space_group_name_H-M	'P 1'
_symmetry_Int_Tables_number		1

loop_
	_symmetry_equiv_pos_as_xyz
	x,y,z

loop_
	_atom_site_label
	_atom_site_type_symbol
	_atom_site_fract_x
	_atom_site_fract_y
	_atom_site_fract_z
	H0	H	0.370159	0.848075	0.714010
	H1	H	0.579274	0.160436	0.715313
	H2	H	0.577768	0.848143	0.273133
	H3	H	0.370559	0.162171	0.273743
	H4	H	0.690112	0.405951	0.835494
	H5	H	0.697860	0.612356	0.148647
	H6	H	0.253229	0.608858	0.837587
	H7	H	0.248319	0.394845	0.145839
	H8	H	0.819141	0.727538	0.387152
	H9	H	0.130357	0.727444	0.599940
	H10	H	0.816572	0.287269	0.595848
	H11	H	0.130982	0.286741	0.391840
	H12	H	0.817305	0.402525	0.712835
	H13	H	0.130174	0.610663	0.716218
	H14	H	0.819247	0.610919	0.271338
	H15	H	0.129354	0.400827	0.273105
	H16	H	0.369345	0.726367	0.838740
	H17	H	0.580607	0.727747	0.150037
	H18	H	0.574172	0.288587	0.835880
	H19	H	0.368538	0.283709	0.149327
	H20	H	0.694905	0.848409	0.389210
	H21	H	0.694618	0.160669	0.598612
	H22	H	0.253929	0.848342	0.596800
	H23	H	0.257117	0.163589	0.391646
	H24	H	0.867391	0.350600	0.216233
	H25	H	0.083919	0.660416	0.217871
	H26	H	0.078739	0.350588	0.771299
	H27	H	0.868973	0.662042	0.771797
	H28	H	0.197071	0.898780	0.337895
	H29	H	0.192891	0.106470	0.651602
	H30	H	0.749866	0.111966	0.339926
	H31	H	0.749517	0.894911	0.646967
	H32	H	0.317653	0.224948	0.890060
	H33	H	0.630478	0.224187	0.096918
	H34	H	0.317944	0.780154	0.101787
	H35	H	0.627832	0.782514	0.887305
	H36	H	0.316250	0.899130	0.214881
	H37	H	0.629393	0.109262	0.215378
	H38	H	0.318035	0.110330	0.771878
	H39	H	0.625897	0.896145	0.769874
	H40	H	0.867306	0.227324	0.339168
	H41	H	0.075944	0.222411	0.652147
	H42	H	0.083031	0.780759	0.338590
	H43	H	0.868543	0.781905	0.647986
	H44	H	0.195479	0.350176	0.886989
	H45	H	0.200439	0.659152	0.102609
	H46	H	0.752343	0.350680	0.098380
	H47	H	0.754547	0.663836	0.889664
	H48	H	0.389105	0.117469	0.585574
	H49	H	0.564594	0.892949	0.578864
	H50	H	0.563839	0.117872	0.402258
	H51	H	0.380088	0.891040	0.404711
	H52	H	0.568436	0.419378	0.105887
	H53	H	0.555491	0.592599	0.885381
	H54	H	0.386023	0.588044	0.104276
	H55	H	0.384520	0.425264	0.884220
	H56	H	0.087966	0.593682	0.400626
	H57	H	0.862581	0.592911	0.583658
	H58	H	0.086181	0.414668	0.582659
	H59	H	0.862050	0.419097	0.401656
	H60	H	0.085716	0.417193	0.584560
	H61	H	0.862496	0.595210	0.581624
	H62	H	0.085616	0.598360	0.411116
	H63	H	0.859526	0.413105	0.402849
	H64	H	0.390534	0.591230	0.103968
	H65	H	0.563156	0.604720	0.878816
	H66	H	0.559434	0.415810	0.104893
	H67	H	0.393142	0.410766	0.882606
	H68	H	0.557472	0.114203	0.405418
	H69	H	0.562293	0.890901	0.586677
	H70	H	0.382758	0.115995	0.579096
	H71	H	0.387117	0.892580	0.399929
	H72	H	0.883032	0.619147	0.081808
	H73	H	0.057501	0.398625	0.076994
	H74	H	0.062961	0.616192	0.908293
	H75	H	0.881314	0.391400	0.900558
	H76	H	0.063676	0.922135	0.602571
	H77	H	0.068785	0.094877	0.381227
	H78	H	0.883955	0.096278	0.607206
	H79	H	0.888151	0.925314	0.385736
	H80	H	0.583018	0.092391	0.908753
	H81	H	0.360651	0.098165	0.081870
	H82	H	0.584427	0.914369	0.081546
	H83	H	0.359693	0.913757	0.903038
	H84	H	0.581830	0.919997	0.082007
	H85	H	0.362355	0.091961	0.081437
	H86	H	0.586946	0.091827	0.898990
	H87	H	0.363166	0.915796	0.911299
	H88	H	0.883901	0.094541	0.606066
	H89	H	0.061434	0.096592	0.382780
	H90	H	0.058694	0.914322	0.603017
	H91	H	0.891385	0.915342	0.383595
	H92	H	0.063027	0.618132	0.905071
	H93	H	0.066069	0.392919	0.081045
	H94	H	0.888533	0.617936	0.085638
	H95	H	0.884619	0.394273	0.903410
	H96	H	0.380512	0.120322	0.586813
	H97	H	0.557366	0.895714	0.581749
	H98	H	0.564334	0.115071	0.409883
	H99	H	0.387242	0.894543	0.409092
	H100	H	0.566486	0.410080	0.107514
	H101	H	0.571077	0.591114	0.881673
	H102	H	0.385993	0.593418	0.106319
	H103	H	0.376979	0.411564	0.877339
	H104	H	0.083108	0.586478	0.409044
	H105	H	0.864101	0.593289	0.580345
	H106	H	0.087897	0.415379	0.585847
	H107	H	0.862659	0.416193	0.407652
	H108	H	0.888457	0.616134	0.078731
	H109	H	0.057586	0.394326	0.087066
	H110	H	0.059725	0.616685	0.906148
	H111	H	0.880210	0.394087	0.905117
	H112	H	0.068035	0.914145	0.606636
	H113	H	0.066005	0.101568	0.379289
	H114	H	0.885860	0.095580	0.606582
	H115	H	0.881415	0.917766	0.380983
	H116	H	0.587823	0.100852	0.904616
	H117	H	0.360363	0.094380	0.087277
	H118	H	0.584636	0.917766	0.087398
	H119	H	0.363146	0.922036	0.904454
	C120	C	0.352358	0.014066	0.615714
	C121	C	0.594462	0.996043	0.615174
	C122	C	0.594341	0.012729	0.373060
	C123	C	0.352835	0.996665	0.372757
	C124	C	0.595021	0.384785	0.001862
	C125	C	0.595898	0.628366	0.985206
	C126	C	0.353985	0.624337	0.002138
	C127	C	0.351868	0.382790	0.984178
	C128	C	-0.017035	0.626176	0.372931
	C129	C	0.966022	0.626724	0.614883
	C130	C	-0.017401	0.384693	0.615143
	C131	C	0.964851	0.384307	0.372612
	C132	C	0.853286	0.514843	0.114790
	C133	C	0.095543	0.497149	0.115575
	C134	C	0.094280	0.514114	0.873217
	C135	C	0.851889	0.497413	0.871746
	C136	C	0.096457	0.883694	0.501488
	C137	C	0.095802	0.127536	0.485623
	C138	C	0.852016	0.127157	0.503352
	C139	C	0.853838	0.884823	0.485368
	C140	C	0.482406	0.126582	0.872381
	C141	C	0.464893	0.126244	0.114961
	C142	C	0.481007	0.883472	0.116294
	C143	C	0.464406	0.884294	0.873641
	C144	C	0.351250	0.895297	0.674379
	C145	C	0.597703	0.113470	0.675488
	C146	C	0.596373	0.895060	0.313086
	C147	C	0.352234	0.115324	0.313976
	C148	C	0.651822	0.385722	0.883053
	C149	C	0.657038	0.630536	0.102388
	C150	C	0.293454	0.627295	0.884647
	C151	C	0.290148	0.378277	0.100267
	C152	C	0.865817	0.686945	0.369671
	C153	C	0.083370	0.687337	0.618245
	C154	C	0.863922	0.326484	0.615128
	C155	C	0.083371	0.325836	0.372307
	C156	C	0.864278	0.383828	0.673231
	C157	C	0.083288	0.629506	0.676172
	C158	C	0.865870	0.629332	0.311719
	C159	C	0.082911	0.382657	0.313599
	C160	C	0.351303	0.685255	0.884926
	C161	C	0.598632	0.687708	0.102989
	C162	C	0.594207	0.327446	0.883112
	C163	C	0.349763	0.322846	0.101757
	C164	C	0.654416	0.895105	0.370854
	C165	C	0.655055	0.113472	0.617450
	C166	C	0.293589	0.895406	0.616404
	C167	C	0.295603	0.115750	0.372389
	C168	C	0.849867	0.397445	0.175411
	C169	C	0.101267	0.613444	0.177627
	C170	C	0.096710	0.397071	0.812088
	C171	C	0.850787	0.615628	0.812452
	C172	C	0.157350	0.880479	0.384782
	C173	C	0.153505	0.126120	0.604282
	C174	C	0.790978	0.129754	0.386321
	C175	C	0.791437	0.878840	0.601108
	C176	C	0.364799	0.185792	0.870935
	C177	C	0.583163	0.185057	0.116281
	C178	C	0.364437	0.821314	0.119451
	C179	C	0.580728	0.822710	0.869920
	C180	C	0.363766	0.880182	0.176082
	C181	C	0.582738	0.127757	0.174781
	C182	C	0.364767	0.128572	0.812508
	C183	C	0.579960	0.879377	0.811308
	C184	C	0.849284	0.187238	0.386022
	C185	C	0.095745	0.184093	0.604647
	C186	C	0.100122	0.822047	0.385069
	C187	C	0.850578	0.822498	0.601488
	C188	C	0.154974	0.397105	0.869356
	C189	C	0.159223	0.612844	0.120199
	C190	C	0.792533	0.397444	0.116950
	C191	C	0.793873	0.616161	0.870856
	C192	C	0.377115	0.096522	0.590932
	C193	C	0.568675	0.914218	0.589933
	C194	C	0.569124	0.094526	0.398563
	C195	C	0.377417	0.914034	0.397592
	C196	C	0.571688	0.408307	0.084391
	C197	C	0.570700	0.603503	0.903182
	C198	C	0.380001	0.598164	0.083646
	C199	C	0.377362	0.408680	0.902700
	C200	C	0.064409	0.600198	0.399366
	C201	C	0.884422	0.601208	0.589296
	C202	C	0.065127	0.408896	0.591239
	C203	C	0.882937	0.409095	0.396854
	C204	C	0.879237	0.596641	0.089254
	C205	C	0.068157	0.416228	0.089122
	C206	C	0.068973	0.595849	0.899040
	C207	C	0.875489	0.414709	0.895910
	C208	C	0.070820	0.909587	0.582852
	C209	C	0.072068	0.104455	0.402717
	C210	C	0.877332	0.102325	0.585265
	C211	C	0.879714	0.911811	0.404417
	C212	C	0.564569	0.101818	0.897127
	C213	C	0.382559	0.101798	0.090560
	C214	C	0.562550	0.909723	0.090859
	C215	C	0.382955	0.909976	0.899131
	Zn216	Zn	0.473565	0.005109	0.743810
	Zn217	Zn	0.473215	0.005065	0.244291
	Zn218	Zn	0.723980	0.506563	-0.006869
	Zn219	Zn	0.224009	0.504816	-0.006034
	Zn220	Zn	-0.025117	0.755373	0.492979
	Zn221	Zn	-0.026110	0.256101	0.494499
	Zn222	Zn	-0.026191	0.505909	0.744111
	Zn223	Zn	-0.025288	0.505920	0.243715
	Zn224	Zn	0.473115	0.755457	-0.005139
	Zn225	Zn	0.474063	0.255393	-0.006418
	Zn226	Zn	0.723625	0.004392	0.494181
	Zn227	Zn	0.224675	0.005515	0.493168
	N228	N	0.386619	0.970337	0.674333
	N229	N	0.560655	0.039353	0.674258
	N230	N	0.559801	0.969433	0.314292
	N231	N	0.387003	0.040004	0.313905
	N232	N	0.652763	0.420451	0.957924
	N233	N	0.655566	0.594533	0.028012
	N234	N	0.295132	0.590260	0.958781
	N235	N	0.291282	0.414914	0.026248
	N236	N	0.939868	0.685225	0.406811
	N237	N	0.009700	0.685617	0.580778
	N238	N	0.938744	0.326680	0.579989
	N239	N	0.009003	0.326520	0.408230
	N240	N	0.939094	0.419256	0.673546
	N241	N	0.009172	0.592518	0.674290
	N242	N	0.939809	0.592493	0.313630
	N243	N	0.008227	0.418193	0.313411
	N244	N	0.388049	0.683826	0.959076
	N245	N	0.561500	0.686616	0.028979
	N246	N	0.559751	0.326578	0.958124
	N247	N	0.387348	0.325250	0.028382
	N248	N	0.653382	0.969403	0.407358
	N249	N	0.653320	0.039333	0.580815
	N250	N	0.294006	0.970188	0.580750
	N251	N	0.295834	0.040822	0.407975
	N252	N	0.886855	0.471577	0.174326
	N253	N	0.062480	0.540320	0.174835
	N254	N	0.059292	0.470874	0.814548
	N255	N	0.886089	0.540656	0.812756
	N256	N	0.155224	0.918075	0.458285
	N257	N	0.153982	0.091940	0.529091
	N258	N	0.792552	0.092981	0.460338
	N259	N	0.793339	0.916988	0.527794
	N260	N	0.438917	0.184559	0.907481
	N261	N	0.508780	0.184439	0.080035
	N262	N	0.438548	0.823047	0.083186
	N263	N	0.507809	0.825749	0.908393
	N264	N	0.437402	0.918203	0.174308
	N265	N	0.508015	0.092043	0.174432
	N266	N	0.439104	0.092332	0.813364
	N267	N	0.506721	0.917406	0.813669
	N268	N	0.886743	0.185750	0.459843
	N269	N	0.060825	0.185442	0.529630
	N270	N	0.062906	0.823960	0.458694
	N271	N	0.888814	0.826172	0.528507
	N272	N	0.153366	0.470778	0.906829
	N273	N	0.155881	0.539320	0.082252
	N274	N	0.794438	0.471575	0.079992
	N275	N	0.794238	0.541639	0.906760
	O276	O	-0.250208	0.786977	0.022761
	H277	H	-0.248505	0.779205	0.020765
	H278	H	-0.262508	0.767647	0.033080
	O279	O	0.663343	0.475664	-0.723481
	H280	H	0.669507	0.467993	-0.725573
	H281	H	0.668276	0.471620	-0.730030
	O282	O	0.785562	0.031813	0.776021
	H283	H	0.757782	0.038129	0.757110
	H284	H	0.796935	0.042435	0.791072
	O285	O	0.443044	0.717834	0.275861
	H286	H	0.445987	0.727860	0.248677
	H287	H	0.443522	0.712534	0.276767
	O288	O	0.176987	0.823553	0.789084
	H289	H	0.183474	0.808707	0.774935
	H290	H	0.155766	0.847329	0.788518
	O291	O	0.497808	0.699288	0.703717
	H292	H	0.488879	0.705882	0.692385
	H293	H	0.486510	0.693633	0.707258
	O294	O	0.578293	-0.705158	1.281909
	H295	H	0.585535	-0.692762	1.277090
	H296	H	0.591428	-0.719248	1.268361
	O297	O	0.191709	0.936143	0.796270
	H298	H	0.183483	0.932428	0.807237
	H299	H	0.213223	0.940559	0.769164
	O300	O	0.271215	0.295508	0.702859
	H301	H	0.280452	0.281804	0.712363
	H302	H	0.257241	0.323002	0.711753
	O303	O	0.836660	-0.131818	0.074352
	H304	H	0.830434	-0.136204	0.078789
	H305	H	0.842337	-0.149346	0.070591
	O306	O	0.933656	0.815096	1.190831
	H307	H	0.925167	0.808778	1.191433
	H308	H	0.924056	0.806917	1.194972
	O309	O	0.339488	0.303053	0.351508
	H310	H	0.331346	0.310228	0.366484
	H311	H	0.343327	0.321409	0.341737
	O312	O	0.437503	0.445553	0.314486
	H313	H	0.430693	0.430183	0.316396
	H314	H	0.424125	0.443278	0.312973
	O315	O	1.285534	0.685162	1.311135
	H316	H	1.295087	0.701777	1.307190
	H317	H	1.301719	0.671865	1.326230
	O318	O	0.022847	-0.027145	0.946592
	H319	H	0.018640	-0.023271	0.947165
	H320	H	0.033394	-0.025453	0.952216
	O321	O	0.004775	0.227374	0.215482
	H322	H	0.009334	0.239365	0.226259
	H323	H	0.013644	0.235168	0.218310
	O324	O	1.009968	0.932442	0.047187
	H325	H	1.008411	0.929591	0.050956
	H326	H	0.996879	0.935150	0.031898
	O327	O	-0.023000	-0.080681	1.085874
	H328	H	-0.010965	-0.085094	1.079957
	H329	H	-0.020206	-0.082833	1.081942
	O330	O	1.193763	0.975243	1.047611
	H331	H	1.189901	0.964175	1.056401
	H332	H	1.190074	0.984866	1.060567
	O333	O	-0.059633	0.124505	-0.221062
	H334	H	-0.062357	0.137206	-0.224570
	H335	H	-0.055524	0.116489	-0.229599
	O336	O	0.857407	-0.215531	0.146936
	H337	H	0.868711	-0.217283	0.158583
	H338	H	0.848233	-0.221426	0.162597
	O339	O	1.662184	-0.542113	0.583086
	H340	H	1.668931	-0.518957	0.602949
	H341	H	1.664780	-0.530281	0.563294
	O342	O	0.547953	0.483834	-0.571099
	H343	H	0.559536	0.475460	-0.575744
	H344	H	0.545334	0.486486	-0.560769
	O345	O	0.167908	1.198886	0.842360
	H346	H	0.153054	1.182842	0.841346
	H347	H	0.165108	1.195621	0.864320
	O348	O	0.454485	0.585249	0.391181
	H349	H	0.452165	0.578551	0.382601
	H350	H	0.461469	0.587457	0.400447
	O351	O	0.979376	0.838377	-0.076143
	H352	H	0.992290	0.835489	-0.080439
	H353	H	0.972066	0.842789	-0.080578
	O354	O	0.003591	0.099081	0.778905
	H355	H	0.002406	0.099693	0.770423
	H356	H	-0.012516	0.100524	0.779485
	O357	O	0.029908	1.227415	0.951335
	H358	H	0.033094	1.228668	0.952122
	H359	H	0.019588	1.223778	0.933208
	O360	O	1.218961	0.254487	1.245469
	H361	H	1.223604	0.238345	1.220117
	H362	H	1.240924	0.281779	1.257407
	O363	O	-0.483319	-0.308673	-0.529234
	H364	H	-0.475436	-0.309723	-0.543366
	H365	H	-0.482160	-0.315600	-0.529316
	O366	O	0.276011	0.442101	0.600821
	H367	H	0.274127	0.458170	0.578111
	H368	H	0.267236	0.446224	0.623356
	O369	O	1.176125	-0.073839	0.176075
	H370	H	1.179007	-0.069229	0.182781
	H371	H	1.168166	-0.056842	0.168381
	O372	O	1.684157	1.704317	0.512545
	H373	H	1.697203	1.715060	0.519434
	H374	H	1.677498	1.709687	0.539525
	O375	O	0.795006	0.217390	-0.005430
	H376	H	0.790397	0.211760	-0.002247
	H377	H	0.785023	0.223650	-0.024048
	O378	O	-0.073011	-0.069250	0.855926
	H379	H	-0.086099	-0.069004	0.856469
	H380	H	-0.081099	-0.058833	0.866226
	O381	O	-0.241206	0.970039	0.921099
	H382	H	-0.241731	0.976272	0.928702
	H383	H	-0.243979	0.973346	0.941051
	O384	O	0.922996	0.192480	1.062550
	H385	H	0.939501	0.190876	1.065865
	H386	H	0.916548	0.194340	1.061734
	O387	O	1.439388	0.586796	0.481836
	H388	H	1.444656	0.568260	0.495854
	H389	H	1.430579	0.595752	0.486081
	O390	O	0.523575	0.643369	0.523386
	H391	H	0.513350	0.651464	0.512324
	H392	H	0.534184	0.642659	0.515088
	O393	O	0.283605	0.697486	0.683866
	H394	H	0.289253	0.697679	0.690654
	H395	H	0.294931	0.687603	0.674505
	O396	O	0.015050	1.021845	1.061091
	H397	H	0.014610	1.022760	1.063376
	H398	H	0.016283	1.040725	1.061187
	O399	O	-0.711442	0.684535	0.452800
	H400	H	-0.714680	0.696435	0.456193
	H401	H	-0.710147	0.679578	0.432376
	O402	O	0.249687	0.279706	0.533170
	H403	H	0.253708	0.299838	0.571927
	H404	H	0.209907	0.243243	0.533758
	O405	O	0.886838	0.158363	0.875783
	H406	H	0.902779	0.155251	0.876437
	H407	H	0.869028	0.176106	0.867045
	O408	O	0.003999	-0.205312	-0.215888
	H409	H	0.004195	-0.202649	-0.205842
	H410	H	0.006397	-0.214446	-0.227971
	O411	O	0.785030	1.036259	1.201188
	H412	H	0.804506	1.020655	1.210042
	H413	H	0.787065	1.024358	1.206136
	O414	O	1.185687	-0.202527	-0.029287
	H415	H	1.185931	-0.192494	-0.046091
	H416	H	1.199191	-0.215658	-0.032234
	O417	O	0.391361	0.511852	0.646576
	H418	H	0.378957	0.505928	0.657384
	H419	H	0.404804	0.509663	0.649610
	O420	O	0.691076	0.527267	0.450834
	H421	H	0.701790	0.516502	0.436663
	H422	H	0.681809	0.535401	0.450249
	O423	O	0.478672	-0.599591	1.618646
	H424	H	0.469025	-0.616871	1.603642
	H425	H	0.510965	-0.587689	1.616817
	O426	O	1.191991	0.079833	-0.080005
	H427	H	1.200787	0.086390	-0.080235
	H428	H	1.196205	0.061790	-0.068242
	O429	O	0.778628	0.815328	0.798769
	H430	H	0.803646	0.826708	0.819514
	H431	H	0.789152	0.845087	0.812680
	O432	O	0.411372	0.436779	0.571291
	H433	H	0.408833	0.431867	0.567188
	H434	H	0.402744	0.429782	0.583923
	O435	O	0.437169	0.298215	0.700941
	H436	H	0.445943	0.284111	0.705822
	H437	H	0.418573	0.302962	0.704959
	O438	O	0.156316	0.179533	0.024111
	H439	H	0.165921	0.186362	0.027570
	H440	H	0.137981	0.174844	0.022499
	O441	O	0.685541	0.291429	0.457141
	H442	H	0.692928	0.281935	0.452282
	H443	H	0.692661	0.287829	0.451327
	O444	O	0.760766	0.221712	0.783340
	H445	H	0.729279	0.252466	0.749036
	H446	H	0.768566	0.210002	0.798961
	O447	O	0.039717	0.908302	1.115480
	H448	H	0.048825	0.928266	1.117115
	H449	H	0.036283	0.886047	1.119273
	O450	O	-0.238690	1.157865	1.173555
	H451	H	-0.223455	1.140363	1.167901
	H452	H	-0.240755	1.143400	1.173343
	O453	O	0.258859	0.518252	0.284545
	H454	H	0.241045	0.539690	0.276439
	H455	H	0.256179	0.534936	0.288962
	O456	O	0.186854	0.113474	1.207013
	H457	H	0.175430	0.126075	1.198498
	H458	H	0.187757	0.116493	1.217181
	O459	O	0.943523	1.058574	0.215269
	H460	H	0.958984	1.065090	0.220797
	H461	H	0.946077	1.053639	0.210789
	O462	O	1.662362	0.317349	0.677176
	H463	H	1.641222	0.333884	0.657418
	H464	H	1.651068	0.334915	0.651833
	O465	O	0.766124	0.019199	0.028474
	H466	H	0.769194	0.022946	0.039599
	H467	H	0.769997	0.012513	0.039161
	O468	O	0.318717	0.411458	0.505493
	H469	H	0.299264	0.385794	0.520772
	H470	H	0.336483	0.404724	0.516310
	O471	O	0.703683	0.731954	0.269333
	H472	H	0.685945	0.711106	0.280114
	H473	H	0.693222	0.720545	0.263431
	O474	O	0.327219	0.569727	0.605365
	H475	H	0.337119	0.567541	0.596775
	H476	H	0.333941	0.568336	0.588900
	O477	O	0.509279	0.453181	1.278550
	H478	H	0.518147	0.428835	1.267346
	H479	H	0.509679	0.448583	1.279791
	O480	O	0.513220	0.542019	0.507811
	H481	H	0.508439	0.548494	0.510545
	H482	H	0.506233	0.541801	0.507649
	O483	O	0.697079	0.540779	0.714067
	H484	H	0.701812	0.574712	0.716292
	H485	H	0.718007	0.560356	0.736317
	O486	O	0.692689	0.281167	0.283556
	H487	H	0.710356	0.260233	0.268906
	H488	H	0.689536	0.276769	0.289651
	O489	O	0.678234	1.710034	-0.301180
	H490	H	0.674744	1.732729	-0.287964
	H491	H	0.669756	1.730647	-0.291335
