data_Molecule from HDF5

_cell_length_a		16.381449
_cell_length_b		16.259928
_cell_length_c		16.160139
_cell_angle_alpha	90.377567
_cell_angle_beta	90.035371
_cell_angle_gamma	90.448261
_symmetry_space_group_name_H-M	'P 1'
_symmetry_Int_Tables_number		1

loop_
	_symmetry_equiv_pos_as_xyz
	x,y,z

loop_
	_atom_site_label
	_atom_site_type_symbol
	_atom_site_fract_x
	_atom_site_fract_y
	_atom_site_fract_z
	H0	H	0.405043	0.834890	0.710284
	H1	H	0.603938	0.162824	0.714536
	H2	H	0.600602	0.836162	0.283003
	H3	H	0.406986	0.163759	0.285774
	H4	H	0.716106	0.401069	0.834434
	H5	H	0.721652	0.605447	0.161635
	H6	H	0.288079	0.600465	0.835320
	H7	H	0.285176	0.398298	0.161019
	H8	H	0.840370	0.712921	0.399062
	H9	H	0.164266	0.718615	0.600434
	H10	H	0.840820	0.281191	0.597370
	H11	H	0.164332	0.282396	0.394913
	H12	H	0.839305	0.399385	0.711898
	H13	H	0.164394	0.601382	0.715032
	H14	H	0.840337	0.595572	0.284026
	H15	H	0.165104	0.399420	0.280786
	H16	H	0.406312	0.712163	0.834019
	H17	H	0.604282	0.717754	0.162803
	H18	H	0.602505	0.284571	0.835363
	H19	H	0.401730	0.285335	0.162570
	H20	H	0.719125	0.836584	0.395782
	H21	H	0.722937	0.161394	0.602235
	H22	H	0.284446	0.837558	0.598183
	H23	H	0.287404	0.161704	0.395506
	H24	H	0.903923	0.335519	0.210616
	H25	H	0.102932	0.663186	0.214355
	H26	H	0.098492	0.335884	0.782914
	H27	H	0.907559	0.664643	0.786853
	H28	H	0.216800	0.899097	0.333123
	H29	H	0.220960	0.103308	0.661066
	H30	H	0.789134	0.097101	0.334196
	H31	H	0.786911	0.899526	0.661774
	H32	H	0.341480	0.213641	0.898755
	H33	H	0.665280	0.219422	0.100049
	H34	H	0.341665	0.782796	0.097823
	H35	H	0.666444	0.785724	0.898614
	H36	H	0.341081	0.900335	0.212187
	H37	H	0.666657	0.100696	0.213938
	H38	H	0.341353	0.096742	0.783077
	H39	H	0.666364	0.901024	0.782827
	H40	H	0.905602	0.210590	0.333011
	H41	H	0.102488	0.215651	0.662133
	H42	H	0.099650	0.784409	0.333445
	H43	H	0.903931	0.786682	0.663175
	H44	H	0.218686	0.336499	0.895308
	H45	H	0.221716	0.662565	0.101197
	H46	H	0.783740	0.337673	0.099616
	H47	H	0.788894	0.663434	0.898769
	H48	H	0.416712	0.113040	0.585433
	H49	H	0.593114	0.882964	0.592633
	H50	H	0.603596	0.117593	0.407313
	H51	H	0.413011	0.883848	0.404835
	H52	H	0.596302	0.422814	0.113026
	H53	H	0.596880	0.602025	0.878010
	H54	H	0.413316	0.586398	0.114174
	H55	H	0.410452	0.399951	0.878856
	H56	H	0.116467	0.590161	0.410708
	H57	H	0.889299	0.589318	0.584036
	H58	H	0.118190	0.409545	0.593356
	H59	H	0.890807	0.408822	0.411896
	H60	H	0.117989	0.406067	0.587167
	H61	H	0.885562	0.587783	0.599427
	H62	H	0.119548	0.591105	0.403281
	H63	H	0.886737	0.408086	0.397954
	H64	H	0.416969	0.596403	0.115433
	H65	H	0.605176	0.587351	0.880429
	H66	H	0.583707	0.406810	0.113261
	H67	H	0.404342	0.410532	0.880706
	H68	H	0.594865	0.115863	0.405120
	H69	H	0.593824	0.884708	0.585113
	H70	H	0.404540	0.117335	0.589529
	H71	H	0.407110	0.882853	0.409203
	H72	H	0.909931	0.617666	0.093077
	H73	H	0.100505	0.384523	0.080406
	H74	H	0.095977	0.615035	0.908522
	H75	H	0.910970	0.383263	0.901553
	H76	H	0.095858	0.902843	0.617482
	H77	H	0.089496	0.097013	0.380870
	H78	H	0.909338	0.088350	0.615354
	H79	H	0.905084	0.903928	0.379264
	H80	H	0.623216	0.093126	0.895601
	H81	H	0.389709	0.097707	0.080777
	H82	H	0.619257	0.916875	0.099340
	H83	H	0.390162	0.908092	0.907265
	H84	H	0.623997	0.897623	0.094309
	H85	H	0.390920	0.081558	0.093988
	H86	H	0.620346	0.104571	0.914579
	H87	H	0.387510	0.905799	0.902218
	H88	H	0.916812	0.089689	0.613531
	H89	H	0.103934	0.092346	0.377406
	H90	H	0.101552	0.916313	0.614938
	H91	H	0.909436	0.910453	0.382179
	H92	H	0.098924	0.615909	0.908800
	H93	H	0.098198	0.380756	0.096201
	H94	H	0.914052	0.615763	0.092569
	H95	H	0.909552	0.384851	0.910172
	H96	H	0.414593	0.117255	0.597755
	H97	H	0.599660	0.881913	0.588963
	H98	H	0.597170	0.114350	0.413243
	H99	H	0.406758	0.881718	0.401729
	H100	H	0.602987	0.405471	0.120766
	H101	H	0.588250	0.588005	0.884879
	H102	H	0.407301	0.594347	0.117808
	H103	H	0.417161	0.410076	0.884349
	H104	H	0.119231	0.597259	0.408586
	H105	H	0.884092	0.601710	0.592549
	H106	H	0.115694	0.412507	0.587462
	H107	H	0.884445	0.396760	0.405535
	H108	H	0.911343	0.615149	0.088572
	H109	H	0.085771	0.386687	0.087433
	H110	H	0.097353	0.615988	0.906396
	H111	H	0.902608	0.382011	0.904749
	H112	H	0.087070	0.912480	0.611708
	H113	H	0.094322	0.082203	0.384033
	H114	H	0.911729	0.095631	0.617218
	H115	H	0.913868	0.903238	0.380528
	H116	H	0.614170	0.083153	0.913096
	H117	H	0.383558	0.099646	0.100742
	H118	H	0.615858	0.910332	0.080476
	H119	H	0.387491	0.902363	0.906593
	C120	C	0.382037	0.007937	0.619552
	C121	C	0.625681	0.990791	0.619670
	C122	C	0.626186	0.008340	0.377496
	C123	C	0.381257	0.990893	0.376337
	C124	C	0.623295	0.381200	0.007328
	C125	C	0.625707	0.622591	0.989734
	C126	C	0.383397	0.620903	0.007379
	C127	C	0.381314	0.378152	0.989906
	C128	C	0.011141	0.620542	0.377895
	C129	C	0.993882	0.622942	0.621217
	C130	C	0.010402	0.378480	0.619050
	C131	C	0.994563	0.376254	0.375103
	C132	C	0.881103	0.508379	0.119972
	C133	C	0.125350	0.491340	0.119375
	C134	C	0.125322	0.508149	0.877092
	C135	C	0.880547	0.491460	0.877052
	C136	C	0.123339	0.879919	0.506025
	C137	C	0.125521	0.121672	0.489140
	C138	C	0.883314	0.119082	0.506631
	C139	C	0.881378	0.877997	0.489686
	C140	C	0.512118	0.121431	0.877649
	C141	C	0.495229	0.123218	0.121532
	C142	C	0.512346	0.878363	0.120006
	C143	C	0.495510	0.877294	0.876228
	C144	C	0.384001	0.884432	0.673605
	C145	C	0.624406	0.113910	0.676687
	C146	C	0.622580	0.885234	0.320545
	C147	C	0.385685	0.114470	0.322327
	C148	C	0.678764	0.381152	0.883869
	C149	C	0.682709	0.623921	0.112891
	C150	C	0.326849	0.619647	0.883989
	C151	C	0.324463	0.379170	0.112599
	C152	C	0.888820	0.675019	0.379343
	C153	C	0.115683	0.679972	0.620297
	C154	C	0.888947	0.320755	0.617097
	C155	C	0.116092	0.320450	0.375415
	C156	C	0.888302	0.379402	0.674279
	C157	C	0.115845	0.621491	0.677189
	C158	C	0.888845	0.616475	0.322276
	C159	C	0.116458	0.378920	0.318814
	C160	C	0.385328	0.675583	0.883487
	C161	C	0.624242	0.679519	0.113524
	C162	C	0.622047	0.323429	0.884276
	C163	C	0.382124	0.322671	0.113288
	C164	C	0.681202	0.885453	0.376870
	C165	C	0.683636	0.113001	0.620894
	C166	C	0.324219	0.885734	0.617752
	C167	C	0.326067	0.113415	0.376998
	C168	C	0.882954	0.384775	0.173890
	C169	C	0.123682	0.614169	0.176301
	C170	C	0.120872	0.385005	0.820327
	C171	C	0.885389	0.615191	0.823145
	C172	C	0.178847	0.879550	0.382286
	C173	C	0.182298	0.122188	0.612138
	C174	C	0.827555	0.116854	0.383028
	C175	C	0.825199	0.879584	0.612973
	C176	C	0.389977	0.175913	0.878900
	C177	C	0.616871	0.180762	0.120385
	C178	C	0.390001	0.821644	0.117644
	C179	C	0.617704	0.822959	0.878474
	C180	C	0.389641	0.880489	0.174297
	C181	C	0.617629	0.121482	0.176822
	C182	C	0.390038	0.117882	0.821175
	C183	C	0.617894	0.880425	0.820978
	C184	C	0.885495	0.173023	0.382361
	C185	C	0.123742	0.178504	0.612691
	C186	C	0.120518	0.822712	0.382514
	C187	C	0.883593	0.823759	0.613755
	C188	C	0.180527	0.385488	0.876264
	C189	C	0.182632	0.613877	0.120032
	C190	C	0.823236	0.386052	0.118502
	C191	C	0.826756	0.614772	0.879367
	C192	C	0.405195	0.093770	0.597443
	C193	C	0.602450	0.905406	0.595838
	C194	C	0.604835	0.093728	0.401682
	C195	C	0.402647	0.904999	0.398640
	C196	C	0.600887	0.404869	0.093373
	C197	C	0.603401	0.599364	0.903570
	C198	C	0.405792	0.598792	0.093496
	C199	C	0.404132	0.400413	0.903782
	C200	C	0.096321	0.599033	0.400734
	C201	C	0.908431	0.599814	0.598546
	C202	C	0.095381	0.402428	0.596154
	C203	C	0.909452	0.398180	0.398241
	C204	C	0.904746	0.594010	0.097904
	C205	C	0.101816	0.405972	0.095189
	C206	C	0.103814	0.593353	0.900927
	C207	C	0.901435	0.405562	0.899028
	C208	C	0.101214	0.903594	0.592434
	C209	C	0.102607	0.097613	0.403107
	C210	C	0.905913	0.097554	0.592919
	C211	C	0.903141	0.899434	0.403025
	C212	C	0.597408	0.099919	0.900834
	C213	C	0.410042	0.099695	0.098646
	C214	C	0.597690	0.901436	0.097883
	C215	C	0.410387	0.899097	0.898787
	Zn216	Zn	0.504320	-0.000692	0.748102
	Zn217	Zn	0.503668	0.000248	0.249825
	Zn218	Zn	0.752188	0.500826	-0.001250
	Zn219	Zn	0.254744	0.499960	-0.001756
	Zn220	Zn	0.002503	0.750734	0.498902
	Zn221	Zn	0.002953	0.248534	0.497493
	Zn222	Zn	0.002329	0.499843	0.748878
	Zn223	Zn	0.003465	0.499094	0.247815
	Zn224	Zn	0.504145	0.749304	-0.001616
	Zn225	Zn	0.503103	0.251650	-0.000756
	Zn226	Zn	0.754422	-0.000796	0.498397
	Zn227	Zn	0.253324	-0.000101	0.496972
	N228	N	0.419243	0.961512	0.674915
	N229	N	0.589013	0.036939	0.676069
	N230	N	0.589004	0.962483	0.320725
	N231	N	0.419492	0.037287	0.321839
	N232	N	0.679407	0.416478	0.961346
	N233	N	0.683966	0.589252	0.034987
	N234	N	0.325347	0.586413	0.962058
	N235	N	0.323632	0.412771	0.034759
	N236	N	0.965886	0.677838	0.413104
	N237	N	0.038664	0.680931	0.586322
	N238	N	0.966062	0.319941	0.583496
	N239	N	0.039275	0.318697	0.409786
	N240	N	0.964864	0.414830	0.675362
	N241	N	0.039023	0.586741	0.677922
	N242	N	0.965939	0.583268	0.321120
	N243	N	0.039777	0.412673	0.318342
	N244	N	0.419602	0.676582	0.961204
	N245	N	0.589437	0.678862	0.036032
	N246	N	0.587969	0.323451	0.961996
	N247	N	0.416898	0.322066	0.035893
	N248	N	0.683672	0.962918	0.411482
	N249	N	0.684536	0.035611	0.586122
	N250	N	0.322814	0.963571	0.584969
	N251	N	0.323319	0.035532	0.409975
	N252	N	0.918279	0.461666	0.174904
	N253	N	0.088712	0.537019	0.175912
	N254	N	0.087083	0.462137	0.820647
	N255	N	0.918106	0.537592	0.821455
	N256	N	0.180747	0.914291	0.460226
	N257	N	0.183571	0.087775	0.534170
	N258	N	0.826110	0.084109	0.461275
	N259	N	0.823976	0.912804	0.534967
	N260	N	0.466953	0.178293	0.913017
	N261	N	0.539742	0.182013	0.086878
	N262	N	0.467196	0.820334	0.084563
	N263	N	0.540546	0.820839	0.912129
	N264	N	0.466686	0.915005	0.176103
	N265	N	0.540872	0.086354	0.177649
	N266	N	0.467115	0.084710	0.820157
	N267	N	0.540877	0.913333	0.819197
	N268	N	0.919566	0.174566	0.460165
	N269	N	0.089260	0.178453	0.534996
	N270	N	0.086952	0.822817	0.460609
	N271	N	0.917582	0.822552	0.536039
	N272	N	0.183622	0.463094	0.910653
	N273	N	0.183904	0.536350	0.085459
	N274	N	0.822022	0.463949	0.085649
	N275	N	0.823545	0.536797	0.912081
	O276	O	0.064212	-0.010029	-0.052744
	H277	H	0.068480	-0.007666	-0.061697
	H278	H	0.054818	-0.012919	-0.048073
	O279	O	0.498183	0.513592	0.497877
	H280	H	0.495525	0.515075	0.494410
	H281	H	0.495640	0.509309	0.494156
	O282	O	0.410272	0.518147	0.460866
	H283	H	0.407456	0.514501	0.465395
	H284	H	0.408206	0.514086	0.465760
	O285	O	-0.007383	-0.037807	0.974699
	H286	H	0.000473	-0.039961	0.970772
	H287	H	-0.016053	-0.041128	0.972661
	O288	O	1.050895	0.054665	0.008850
	H289	H	1.053944	0.046170	0.009694
	H290	H	1.044027	0.058906	0.016332
	O291	O	1.054138	0.969129	0.999414
	H292	H	1.062737	0.964601	1.007729
	H293	H	1.060488	0.970241	0.993110
	O294	O	0.517343	1.455538	0.454074
	H295	H	0.510768	1.458526	0.453326
	H296	H	0.511099	1.452172	0.453695
	O297	O	1.033604	-0.068984	1.065206
	H298	H	1.033281	-0.075552	1.069370
	H299	H	1.028248	-0.072747	1.073149
	O300	O	0.543428	0.506130	0.404054
	H301	H	0.540909	0.501951	0.408945
	H302	H	0.548285	0.501330	0.398640
	O303	O	1.654813	0.514049	-0.398577
	H304	H	1.654961	0.516701	-0.398716
	H305	H	1.662419	0.516614	-0.394749
	O306	O	0.082905	1.015939	1.074834
	H307	H	0.082329	1.017247	1.063672
	H308	H	0.081565	1.018513	1.071644
	O309	O	0.503083	0.529631	0.523846
	H310	H	0.507332	0.531224	0.520249
	H311	H	0.517239	0.525278	0.521023
	O312	O	0.534057	-0.568642	1.483949
	H313	H	0.528528	-0.566773	1.493943
	H314	H	0.531751	-0.580415	1.484712
	O315	O	0.440299	0.479762	0.410943
	H316	H	0.427545	0.471022	0.407595
	H317	H	0.456826	0.471931	0.421884
	O318	O	0.008283	1.010263	1.020721
	H319	H	0.006749	1.008966	1.026084
	H320	H	0.002343	1.021959	1.030283
	O321	O	1.076019	0.956346	0.992958
	H322	H	1.083210	0.947524	1.003739
	H323	H	1.070865	0.957477	0.991917
	O324	O	0.365430	0.422000	0.564178
	H325	H	0.364263	0.426592	0.559748
	H326	H	0.378939	0.428847	0.573040
	O327	O	0.504530	0.352421	0.622500
	H328	H	0.493943	0.349910	0.636782
	H329	H	0.485670	0.360826	0.624847
	O330	O	1.042113	0.031091	1.056527
	H331	H	1.046798	0.033390	1.041681
	H332	H	1.041646	0.034894	1.047211
	O333	O	1.035248	1.013613	0.006391
	H334	H	1.036340	1.005754	0.007557
	H335	H	1.036185	1.018725	0.007589
	O336	O	0.494411	0.517750	0.381699
	H337	H	0.494794	0.512657	0.371499
	H338	H	0.498246	0.509877	0.387211
	O339	O	0.586797	0.590540	0.437247
	H340	H	0.591463	0.592646	0.434728
	H341	H	0.578848	0.590254	0.444710
	O342	O	-0.006050	1.042704	0.015546
	H343	H	-0.001309	1.044497	0.018416
	H344	H	-0.004349	1.045620	0.018023
	O345	O	0.107281	0.022466	-0.061662
	H346	H	0.110539	0.026785	-0.056869
	H347	H	0.101373	0.016200	-0.064690
	O348	O	0.592929	0.466579	0.455891
	H349	H	0.592291	0.461675	0.452358
	H350	H	0.603272	0.458730	0.456661
	O351	O	0.367032	0.510954	0.559263
	H352	H	0.350562	0.508667	0.565321
	H353	H	0.360413	0.523587	0.553315
	O354	O	0.452670	0.544928	0.502705
	H355	H	0.449110	0.547788	0.489862
	H356	H	0.466311	0.553993	0.498310
	O357	O	0.499494	0.543684	0.638140
	H358	H	0.498490	0.538682	0.641511
	H359	H	0.503006	0.546679	0.637462
	O360	O	-0.463551	-0.439045	-0.507276
	H361	H	-0.464552	-0.434454	-0.512072
	H362	H	-0.458563	-0.431216	-0.505801
	O363	O	0.400346	1.513611	0.441645
	H364	H	0.402269	1.505586	0.446129
	H365	H	0.411772	1.517899	0.433858
	O366	O	-0.470533	0.406196	1.531100
	H367	H	-0.479411	0.404528	1.524216
	H368	H	-0.483802	0.404562	1.532367
	O369	O	0.495975	0.477868	0.557505
	H370	H	0.490172	0.488558	0.557678
	H371	H	0.500482	0.479904	0.547798
