data_Molecule from HDF5

_cell_length_a		16.619329
_cell_length_b		16.490845
_cell_length_c		16.528032
_cell_angle_alpha	90.033681
_cell_angle_beta	89.942593
_cell_angle_gamma	89.985442
_symmetry_space_group_name_H-M	'P 1'
_symmetry_Int_Tables_number		1

loop_
	_symmetry_equiv_pos_as_xyz
	x,y,z

loop_
	_atom_site_label
	_atom_site_type_symbol
	_atom_site_fract_x
	_atom_site_fract_y
	_atom_site_fract_z
	H0	H	0.371865	0.853882	0.706372
	H1	H	0.581426	0.167330	0.703848
	H2	H	0.580980	0.852593	0.263166
	H3	H	0.374469	0.167804	0.264209
	H4	H	0.701684	0.402904	0.827404
	H5	H	0.698831	0.613967	0.141305
	H6	H	0.253810	0.618440	0.828875
	H7	H	0.256927	0.404273	0.140457
	H8	H	0.822694	0.729560	0.379561
	H9	H	0.134093	0.731876	0.588377
	H10	H	0.821801	0.288419	0.589028
	H11	H	0.132826	0.283382	0.376620
	H12	H	0.823033	0.403149	0.707801
	H13	H	0.134452	0.616244	0.706683
	H14	H	0.822260	0.612399	0.263650
	H15	H	0.132650	0.398730	0.257975
	H16	H	0.372052	0.731735	0.828062
	H17	H	0.581168	0.729221	0.141818
	H18	H	0.583749	0.288325	0.826227
	H19	H	0.375278	0.289448	0.141837
	H20	H	0.697447	0.851862	0.379363
	H21	H	0.698986	0.166131	0.588758
	H22	H	0.255705	0.853356	0.589193
	H23	H	0.254587	0.165551	0.376968
	H24	H	0.876415	0.351340	0.202208
	H25	H	0.086305	0.665330	0.208270
	H26	H	0.086191	0.351963	0.760875
	H27	H	0.876616	0.668135	0.765239
	H28	H	0.202811	0.901121	0.327288
	H29	H	0.204178	0.118957	0.639006
	H30	H	0.758245	0.113376	0.327101
	H31	H	0.755253	0.902811	0.638353
	H32	H	0.320615	0.231895	0.878264
	H33	H	0.635568	0.225947	0.082067
	H34	H	0.320956	0.785955	0.091784
	H35	H	0.633603	0.788735	0.880043
	H36	H	0.320480	0.902625	0.207330
	H37	H	0.634974	0.110840	0.200855
	H38	H	0.320381	0.115625	0.761845
	H39	H	0.632958	0.905813	0.763028
	H40	H	0.876358	0.228520	0.326883
	H41	H	0.084629	0.230481	0.641918
	H42	H	0.084277	0.787397	0.325661
	H43	H	0.874629	0.788595	0.639455
	H44	H	0.202794	0.352898	0.875784
	H45	H	0.202077	0.665293	0.092588
	H46	H	0.757867	0.353111	0.088232
	H47	H	0.758899	0.667394	0.880833
	H48	H	0.390484	0.121133	0.570761
	H49	H	0.563633	0.897187	0.573309
	H50	H	0.569858	0.123630	0.392263
	H51	H	0.392667	0.898522	0.396665
	H52	H	0.566612	0.421338	0.094404
	H53	H	0.571493	0.596941	0.871055
	H54	H	0.395598	0.589316	0.091015
	H55	H	0.390102	0.423196	0.872267
	H56	H	0.089326	0.591218	0.392161
	H57	H	0.868043	0.599743	0.567922
	H58	H	0.089128	0.419678	0.569981
	H59	H	0.864613	0.413326	0.393943
	H60	H	0.088843	0.423081	0.573102
	H61	H	0.868209	0.592718	0.576550
	H62	H	0.093363	0.601957	0.391266
	H63	H	0.870825	0.423318	0.400932
	H64	H	0.393852	0.605960	0.097892
	H65	H	0.565276	0.595836	0.873424
	H66	H	0.567394	0.417206	0.096341
	H67	H	0.390996	0.421972	0.872559
	H68	H	0.567689	0.124029	0.392288
	H69	H	0.567091	0.897944	0.569465
	H70	H	0.391077	0.121420	0.570394
	H71	H	0.387867	0.897588	0.398202
	H72	H	0.882507	0.624492	0.070731
	H73	H	0.068071	0.397794	0.069175
	H74	H	0.072319	0.622874	0.896166
	H75	H	0.886855	0.395070	0.891587
	H76	H	0.063788	0.916824	0.595033
	H77	H	0.073243	0.097393	0.369907
	H78	H	0.885912	0.099407	0.598898
	H79	H	0.884682	0.925702	0.370636
	H80	H	0.590666	0.103667	0.889308
	H81	H	0.367413	0.097842	0.065263
	H82	H	0.588038	0.920242	0.073161
	H83	H	0.366224	0.918188	0.899091
	H84	H	0.588374	0.920323	0.074729
	H85	H	0.364395	0.093321	0.081517
	H86	H	0.588083	0.100545	0.897721
	H87	H	0.367282	0.924795	0.896412
	H88	H	0.885468	0.098287	0.597818
	H89	H	0.063682	0.087703	0.376927
	H90	H	0.071857	0.923592	0.595781
	H91	H	0.894015	0.919769	0.371709
	H92	H	0.063855	0.621486	0.890933
	H93	H	0.065988	0.397435	0.072372
	H94	H	0.888443	0.625253	0.079945
	H95	H	0.894484	0.398407	0.895668
	H96	H	0.390211	0.121570	0.570115
	H97	H	0.568942	0.895622	0.573965
	H98	H	0.568638	0.122915	0.394107
	H99	H	0.389108	0.896954	0.393095
	H100	H	0.570889	0.420190	0.096213
	H101	H	0.566912	0.602045	0.871233
	H102	H	0.380107	0.594244	0.098383
	H103	H	0.389565	0.421402	0.871512
	H104	H	0.088778	0.598528	0.400756
	H105	H	0.864524	0.603037	0.577793
	H106	H	0.090440	0.418984	0.574212
	H107	H	0.866525	0.425229	0.387913
	H108	H	0.893002	0.621462	0.070784
	H109	H	0.064886	0.399395	0.069474
	H110	H	0.064422	0.618253	0.900437
	H111	H	0.886385	0.397859	0.900481
	H112	H	0.063145	0.926371	0.591226
	H113	H	0.058814	0.101770	0.373732
	H114	H	0.887097	0.098716	0.597398
	H115	H	0.884630	0.914950	0.367102
	H116	H	0.588536	0.094731	0.890614
	H117	H	0.360739	0.109362	0.076353
	H118	H	0.587805	0.918869	0.073815
	H119	H	0.364027	0.920022	0.892229
	C120	C	0.357060	0.018231	0.604081
	C121	C	0.598490	1.000909	0.604527
	C122	C	0.599626	0.018912	0.361713
	C123	C	0.356921	1.001344	0.362714
	C124	C	0.600166	0.387770	-0.008306
	C125	C	0.598990	0.630012	0.976144
	C126	C	0.356284	0.630706	-0.006945
	C127	C	0.357825	0.389287	0.975885
	C128	C	-0.012809	0.629438	0.362272
	C129	C	0.970293	0.630870	0.605638
	C130	C	-0.013648	0.388205	0.605292
	C131	C	0.969916	0.386860	0.361594
	C132	C	0.857098	0.518797	0.105102
	C133	C	0.099572	0.501217	0.104770
	C134	C	0.100483	0.517661	0.862425
	C135	C	0.857696	0.501293	0.863349
	C136	C	0.099453	0.888639	0.490689
	C137	C	0.099324	0.130043	0.476288
	C138	C	0.855754	0.130643	0.493524
	C139	C	0.856190	0.887481	0.473550
	C140	C	0.485782	0.132011	0.861027
	C141	C	0.469036	0.130598	0.104072
	C142	C	0.484906	0.887404	0.106469
	C143	C	0.468914	0.888712	0.863530
	C144	C	0.353930	0.900444	0.665439
	C145	C	0.600011	0.119668	0.664204
	C146	C	0.600126	0.899709	0.302868
	C147	C	0.355209	0.120181	0.303342
	C148	C	0.661018	0.384952	0.874066
	C149	C	0.658476	0.632172	0.094215
	C150	C	0.294564	0.635489	0.876021
	C151	C	0.297391	0.386133	0.093773
	C152	C	0.869522	0.689366	0.360840
	C153	C	0.087502	0.691441	0.607360
	C154	C	0.868741	0.328193	0.607562
	C155	C	0.086532	0.324603	0.358345
	C156	C	0.869340	0.385114	0.666680
	C157	C	0.087630	0.634033	0.666038
	C158	C	0.869211	0.631085	0.303351
	C159	C	0.086351	0.381666	0.299282
	C160	C	0.353566	0.691965	0.875421
	C161	C	0.599886	0.689379	0.094497
	C162	C	0.602434	0.327852	0.873630
	C163	C	0.356391	0.329415	0.094439
	C164	C	0.658032	0.899499	0.360360
	C165	C	0.658515	0.119310	0.606951
	C166	C	0.296008	0.900372	0.607771
	C167	C	0.295685	0.118962	0.359378
	C168	C	0.856732	0.399383	0.163412
	C169	C	0.103512	0.618454	0.166936
	C170	C	0.103808	0.399302	0.801381
	C171	C	0.857099	0.620553	0.804421
	C172	C	0.161393	0.884347	0.373816
	C173	C	0.162326	0.135308	0.592793
	C174	C	0.797720	0.132270	0.374278
	C175	C	0.796131	0.884914	0.591701
	C176	C	0.367674	0.192002	0.859650
	C177	C	0.588165	0.187475	0.102610
	C178	C	0.367843	0.826415	0.109462
	C179	C	0.586531	0.828719	0.861217
	C180	C	0.367678	0.884474	0.167171
	C181	C	0.587826	0.130363	0.161601
	C182	C	0.367618	0.134234	0.801628
	C183	C	0.586283	0.886712	0.803080
	C184	C	0.856436	0.189413	0.374444
	C185	C	0.102721	0.191049	0.594178
	C186	C	0.102408	0.827616	0.372916
	C187	C	0.854940	0.827914	0.592149
	C188	C	0.162356	0.399964	0.858207
	C189	C	0.161173	0.618591	0.109284
	C190	C	0.797948	0.400054	0.106618
	C191	C	0.798431	0.620198	0.861480
	C192	C	0.383062	0.100036	0.577864
	C193	C	0.573804	0.918414	0.579315
	C194	C	0.575702	0.101801	0.385910
	C195	C	0.382590	0.918915	0.388590
	C196	C	0.575367	0.412567	0.074216
	C197	C	0.574637	0.605259	0.893209
	C198	C	0.382378	0.603916	0.074609
	C199	C	0.383004	0.414847	0.893490
	C200	C	0.069237	0.604297	0.387427
	C201	C	0.888442	0.605626	0.580951
	C202	C	0.068052	0.413679	0.579776
	C203	C	0.888643	0.413119	0.387127
	C204	C	0.881036	0.601944	0.080943
	C205	C	0.073625	0.419456	0.077952
	C206	C	0.074460	0.599531	0.888326
	C207	C	0.882236	0.418703	0.888424
	C208	C	0.073624	0.914822	0.572685
	C209	C	0.072804	0.103428	0.394886
	C210	C	0.879064	0.105845	0.576488
	C211	C	0.880793	0.912818	0.391288
	C212	C	0.567675	0.106901	0.885482
	C213	C	0.385829	0.106845	0.080964
	C214	C	0.566801	0.912717	0.081142
	C215	C	0.387134	0.913807	0.888660
	Zn216	Zn	0.477160	0.009792	0.733526
	Zn217	Zn	0.477270	0.009836	0.233938
	Zn218	Zn	0.728616	0.509651	-0.016199
	Zn219	Zn	0.227881	0.509159	-0.016028
	Zn220	Zn	-0.021243	0.759571	0.482664
	Zn221	Zn	-0.021467	0.258603	0.484926
	Zn222	Zn	-0.021038	0.508965	0.735006
	Zn223	Zn	-0.020916	0.509169	0.232885
	Zn224	Zn	0.477708	0.759116	-0.015191
	Zn225	Zn	0.477573	0.259925	-0.016968
	Zn226	Zn	0.727487	0.009203	0.483326
	Zn227	Zn	0.228369	0.009647	0.483683
	N228	N	0.390990	0.974687	0.663320
	N229	N	0.563465	0.045068	0.662768
	N230	N	0.564608	0.974843	0.303374
	N231	N	0.392705	0.045933	0.305436
	N232	N	0.659574	0.421820	0.948413
	N233	N	0.658083	0.596039	0.019469
	N234	N	0.296258	0.598104	0.950183
	N235	N	0.298284	0.422581	0.019077
	N236	N	0.944061	0.688677	0.396605
	N237	N	0.013548	0.689845	0.570624
	N238	N	0.942563	0.329981	0.570208
	N239	N	0.013293	0.327652	0.396406
	N240	N	0.943494	0.421725	0.665384
	N241	N	0.013543	0.597046	0.665157
	N242	N	0.943510	0.594589	0.304272
	N243	N	0.012883	0.419840	0.301308
	N244	N	0.391210	0.689360	0.949307
	N245	N	0.563606	0.688057	0.019804
	N246	N	0.565181	0.329563	0.947757
	N247	N	0.393098	0.331135	0.019848
	N248	N	0.658148	0.974803	0.395978
	N249	N	0.657857	0.044437	0.570528
	N250	N	0.297946	0.974754	0.570421
	N251	N	0.296764	0.043952	0.395332
	N252	N	0.892548	0.474348	0.162724
	N253	N	0.065757	0.544521	0.164085
	N254	N	0.066150	0.473466	0.803675
	N255	N	0.892806	0.545545	0.805312
	N256	N	0.159451	0.921640	0.448144
	N257	N	0.160399	0.098063	0.518438
	N258	N	0.797011	0.096761	0.449506
	N259	N	0.796653	0.921084	0.516950
	N260	N	0.442279	0.191027	0.895581
	N261	N	0.513052	0.187966	0.068024
	N262	N	0.441891	0.828047	0.072518
	N263	N	0.512421	0.829577	0.897878
	N264	N	0.441648	0.921546	0.165599
	N265	N	0.512428	0.096168	0.162859
	N266	N	0.441948	0.097821	0.802136
	N267	N	0.512009	0.923106	0.804254
	N268	N	0.891641	0.188648	0.449599
	N269	N	0.064187	0.187932	0.520788
	N270	N	0.064419	0.830180	0.446782
	N271	N	0.891621	0.829277	0.517716
	N272	N	0.160555	0.474582	0.895295
	N273	N	0.158805	0.544520	0.071149
	N274	N	0.797751	0.475466	0.071458
	N275	N	0.798511	0.544958	0.897253
	O276	O	0.874928	1.210123	-0.182508
	H277	H	0.892758	1.213231	-0.188750
	H278	H	0.868018	1.214379	-0.175469
	O279	O	0.196544	0.038536	1.199710
	H280	H	0.175880	0.020888	1.213597
	H281	H	0.213410	0.028697	1.214256
	O282	O	0.138279	0.173609	0.921113
	H283	H	0.150992	0.184841	0.938119
	H284	H	0.155594	0.168101	0.937330
	O285	O	0.618990	0.465991	0.592492
	H286	H	0.623886	0.457973	0.596576
	H287	H	0.623805	0.476911	0.601624
	O288	O	1.253352	-0.262677	1.714428
	H289	H	1.269510	-0.284360	1.694691
	H290	H	1.260413	-0.272613	1.713352
	O291	O	1.193818	-0.204278	-0.044288
	H292	H	1.206117	-0.217743	-0.036733
	H293	H	1.183000	-0.218679	-0.041532
	O294	O	0.518979	0.464053	0.268083
	H295	H	0.544432	0.459335	0.255678
	H296	H	0.523194	0.469766	0.264863
	O297	O	0.518219	-0.306977	-0.305326
	H298	H	0.530276	-0.291548	-0.286303
	H299	H	0.551856	-0.307785	-0.302348
	O300	O	0.179243	0.206143	0.174511
	H301	H	0.194228	0.201699	0.197985
	H302	H	0.166588	0.181503	0.187740
	O303	O	-0.227454	-0.066022	-0.105976
	H304	H	-0.224249	-0.069669	-0.110246
	H305	H	-0.229376	-0.063764	-0.104955
	O306	O	1.444076	0.293954	-0.302655
	H307	H	1.454568	0.282767	-0.278684
	H308	H	1.461838	0.297770	-0.302322
	O309	O	-0.318910	0.713635	-0.310078
	H310	H	-0.295178	0.745574	-0.282796
	H311	H	-0.315695	0.716748	-0.354665
	O312	O	0.639468	0.530626	0.626101
	H313	H	0.651200	0.540319	0.639519
	H314	H	0.639618	0.538323	0.631085
	O315	O	0.263992	0.485136	0.702229
	H316	H	0.234151	0.477249	0.734949
	H317	H	0.274782	0.469092	0.686550
	O318	O	0.788496	0.829300	-0.199813
	H319	H	0.803684	0.849572	-0.184699
	H320	H	0.806800	0.845659	-0.181670
	O321	O	-0.230624	1.105913	0.771377
	H322	H	-0.227758	1.101847	0.761785
	H323	H	-0.244774	1.119153	0.753350
	O324	O	0.932526	0.119817	0.864834
	H325	H	0.945360	0.136164	0.875984
	H326	H	0.937788	0.134029	0.866640
	O327	O	-0.069697	1.134570	1.004035
	H328	H	-0.048601	1.137429	1.003438
	H329	H	-0.065585	1.127699	0.992001
	O330	O	0.274334	0.529257	0.283710
	H331	H	0.253945	0.518737	0.290122
	H332	H	0.286139	0.509061	0.283152
	O333	O	0.490561	1.659092	1.485228
	H334	H	0.498265	1.644491	1.482887
	H335	H	0.491172	1.668515	1.493228
	O336	O	0.684303	0.398300	0.597240
	H337	H	0.682098	0.412077	0.601711
	H338	H	0.677571	0.409775	0.588042
	O339	O	0.264767	0.301449	0.502131
	H340	H	0.255364	0.275657	0.510269
	H341	H	0.290545	0.294381	0.502886
	O342	O	0.177401	0.985191	0.033108
	H343	H	0.177869	0.984204	0.042130
	H344	H	0.174949	0.994760	0.035885
	O345	O	0.259613	0.585164	0.562408
	H346	H	0.254992	0.563781	0.563295
	H347	H	0.270597	0.577983	0.550406
	O348	O	0.463015	0.720808	0.275582
	H349	H	0.439430	0.733939	0.266848
	H350	H	0.440183	0.722403	0.274189
	O351	O	0.520049	-0.381172	1.321950
	H352	H	0.529008	-0.387788	1.316627
	H353	H	0.504333	-0.371837	1.319567
	O354	O	1.114182	0.181560	0.985108
	H355	H	1.138848	0.196932	0.986244
	H356	H	1.111212	0.177012	1.005555
	O357	O	0.360429	0.546368	0.457684
	H358	H	0.361567	0.559622	0.439359
	H359	H	0.367067	0.542733	0.455979
	O360	O	1.434074	0.576479	1.552272
	H361	H	1.436938	0.569549	1.544324
	H362	H	1.441588	0.574024	1.564911
	O363	O	1.024930	1.040576	-0.182877
	H364	H	1.052333	1.053631	-0.191358
	H365	H	1.033755	1.056706	-0.184595
	O366	O	1.088639	1.159976	0.924755
	H367	H	1.111837	1.146063	0.933127
	H368	H	1.084702	1.159901	0.938552
	O369	O	0.077331	-0.066160	1.202634
	H370	H	0.061461	-0.072363	1.179349
	H371	H	0.076462	-0.068557	1.206053
	O372	O	0.606307	0.483726	1.403879
	H373	H	0.607684	0.473462	1.388338
	H374	H	0.621325	0.484775	1.398519
	O375	O	1.516292	-0.713488	0.259049
	H376	H	1.565804	-0.703738	0.268865
	H377	H	1.519603	-0.750200	0.223791
	O378	O	0.549005	0.302299	0.540421
	H379	H	0.539856	0.296967	0.537299
	H380	H	0.552902	0.322689	0.553754
	O381	O	0.687522	0.719660	0.521317
	H382	H	0.675832	0.708833	0.505448
	H383	H	0.703809	0.737520	0.507028
	O384	O	0.310015	0.683048	0.314218
	H385	H	0.312088	0.661203	0.333263
	H386	H	0.296630	0.665420	0.332848
	O387	O	-0.038206	0.873398	0.762401
	H388	H	-0.021133	0.880321	0.757490
	H389	H	-0.027104	0.867961	0.749839
	O390	O	-0.238036	0.983601	1.196507
	H391	H	-0.262504	0.968388	1.213584
	H392	H	-0.232966	0.949321	1.195594
	O393	O	0.937540	0.046276	0.200476
	H394	H	0.941730	0.038216	0.208627
	H395	H	0.930430	0.045635	0.187639
	O396	O	0.288134	0.324874	0.664165
	H397	H	0.329181	0.314447	0.669458
	H398	H	0.284450	0.336202	0.643985
	O399	O	0.251916	0.454491	0.438674
	H400	H	0.252555	0.444925	0.450700
	H401	H	0.251938	0.441437	0.452551
	O402	O	0.880604	-0.144197	0.932841
	H403	H	0.888203	-0.134052	0.920024
	H404	H	0.871228	-0.140035	0.937534
	O405	O	0.663424	0.366065	0.658860
	H406	H	0.674457	0.375234	0.657375
	H407	H	0.671590	0.364442	0.680029
	O408	O	0.771353	0.803661	1.189706
	H409	H	0.799476	0.790095	1.205824
	H410	H	0.762810	0.778051	1.202552
	O411	O	1.192504	0.983225	-0.235889
	H412	H	1.213194	0.973058	-0.243801
	H413	H	1.203205	0.967279	-0.232495
	O414	O	0.120058	0.092984	-0.057656
	H415	H	0.118934	0.088870	-0.044290
	H416	H	0.126672	0.086689	-0.046000
	O417	O	1.015798	-0.027416	-0.101611
	H418	H	1.027924	-0.025442	-0.106267
	H419	H	1.012331	-0.024840	-0.117147
	O420	O	1.418389	-0.662845	1.402379
	H421	H	1.433672	-0.658587	1.387152
	H422	H	1.433447	-0.664246	1.409477
	O423	O	0.977588	0.899557	-0.153792
	H424	H	0.992385	0.895540	-0.173504
	H425	H	0.987742	0.900823	-0.161800
	O426	O	0.558396	0.538335	0.665751
	H427	H	0.581419	0.545815	0.673371
	H428	H	0.563601	0.558336	0.678205
	O429	O	0.685271	0.303847	0.274122
	H430	H	0.695012	0.309815	0.315860
	H431	H	0.718798	0.271220	0.244122
	O432	O	1.009011	0.217423	1.192002
	H433	H	1.014264	0.210824	1.187486
	H434	H	1.010622	0.232363	1.211157
	O435	O	0.660500	0.694410	0.313742
	H436	H	0.655526	0.673336	0.335552
	H437	H	0.629709	0.689150	0.331048
	O438	O	0.817294	0.808472	0.076387
	H439	H	0.806565	0.794444	0.099671
	H440	H	0.814578	0.800055	0.085619
	O441	O	0.646671	0.532659	0.331124
	H442	H	0.671846	0.530663	0.311088
	H443	H	0.630818	0.503182	0.335950
	O444	O	0.332644	0.724985	0.489958
	H445	H	0.337551	0.714699	0.495267
	H446	H	0.331919	0.727883	0.503676
	O447	O	0.128806	0.861786	0.842481
	H448	H	0.138451	0.874425	0.848819
	H449	H	0.138137	0.840195	0.824617
	O450	O	1.074775	-0.203634	0.074685
	H451	H	1.068993	-0.212780	0.077408
	H452	H	1.058408	-0.192011	0.059852
	O453	O	0.498943	0.562916	0.403336
	H454	H	0.481671	0.567500	0.408636
	H455	H	0.505049	0.562645	0.386951
	O456	O	-0.219170	1.210636	0.958389
	H457	H	-0.215592	1.212491	0.950447
	H458	H	-0.220868	1.211459	0.959058
	O459	O	0.429618	0.543394	0.711781
	H460	H	0.425123	0.550712	0.715339
	H461	H	0.424593	0.531247	0.707289
	O462	O	0.892516	-0.123639	1.155904
	H463	H	0.904486	-0.140375	1.163116
	H464	H	0.899982	-0.119431	1.150888
	O465	O	0.697801	0.294163	0.440717
	H466	H	0.703709	0.271854	0.451507
	H467	H	0.702126	0.291550	0.451490
	O468	O	-0.052693	0.893694	0.039419
	H469	H	-0.058690	0.881981	0.025151
	H470	H	-0.050502	0.897859	0.025675
	O471	O	0.776130	0.043228	-0.010251
	H472	H	0.771758	0.045770	-0.033532
	H473	H	0.778925	0.042153	0.000283
	O474	O	0.787071	1.198919	0.173457
	H475	H	0.797740	1.167878	0.160070
	H476	H	0.810818	1.191007	0.148632
	O477	O	0.359918	0.372149	0.328977
	H478	H	0.372359	0.369832	0.334584
	H479	H	0.367562	0.391267	0.331820
