data_Molecule from HDF5

_cell_length_a		16.289271
_cell_length_b		16.474439
_cell_length_c		16.456448
_cell_angle_alpha	89.986260
_cell_angle_beta	89.914457
_cell_angle_gamma	90.093109
_symmetry_space_group_name_H-M	'P 1'
_symmetry_Int_Tables_number		1

loop_
	_symmetry_equiv_pos_as_xyz
	x,y,z

loop_
	_atom_site_label
	_atom_site_type_symbol
	_atom_site_fract_x
	_atom_site_fract_y
	_atom_site_fract_z
	H0	H	0.390387	0.834691	0.720898
	H1	H	0.604523	0.149917	0.722645
	H2	H	0.602334	0.833574	0.277247
	H3	H	0.386137	0.148451	0.273070
	H4	H	0.716833	0.390162	0.839474
	H5	H	0.716608	0.597861	0.157371
	H6	H	0.272930	0.599270	0.840367
	H7	H	0.273751	0.384966	0.156137
	H8	H	0.838074	0.713738	0.394795
	H9	H	0.157909	0.712482	0.604967
	H10	H	0.839067	0.268335	0.608602
	H11	H	0.154875	0.269421	0.390177
	H12	H	0.837489	0.385716	0.721457
	H13	H	0.156349	0.598170	0.721307
	H14	H	0.836635	0.598473	0.280129
	H15	H	0.154057	0.385000	0.274271
	H16	H	0.389865	0.714741	0.839638
	H17	H	0.605135	0.717481	0.154684
	H18	H	0.605435	0.269201	0.841107
	H19	H	0.385919	0.265893	0.153763
	H20	H	0.716715	0.833031	0.395878
	H21	H	0.720218	0.150137	0.605209
	H22	H	0.276533	0.832768	0.602614
	H23	H	0.275250	0.151123	0.395104
	H24	H	0.887140	0.335664	0.223307
	H25	H	0.104028	0.650213	0.221683
	H26	H	0.105591	0.335014	0.773174
	H27	H	0.889488	0.649809	0.776148
	H28	H	0.218849	0.887509	0.340502
	H29	H	0.216450	0.096739	0.658317
	H30	H	0.774010	0.100584	0.341054
	H31	H	0.778250	0.891108	0.658225
	H32	H	0.338505	0.216371	0.889551
	H33	H	0.655631	0.214083	0.104368
	H34	H	0.336886	0.769228	0.104484
	H35	H	0.654647	0.771384	0.891569
	H36	H	0.336729	0.884054	0.221078
	H37	H	0.654504	0.099512	0.220840
	H38	H	0.337807	0.101209	0.774478
	H39	H	0.656192	0.889500	0.778534
	H40	H	0.886791	0.219658	0.343364
	H41	H	0.105764	0.217210	0.655558
	H42	H	0.107911	0.767834	0.343045
	H43	H	0.890200	0.770497	0.656691
	H44	H	0.219349	0.334145	0.892056
	H45	H	0.220817	0.649701	0.105763
	H46	H	0.774284	0.334791	0.103732
	H47	H	0.777844	0.652329	0.897004
	H48	H	0.407176	0.103845	0.583733
	H49	H	0.591425	0.877495	0.591728
	H50	H	0.588647	0.107210	0.406712
	H51	H	0.410271	0.879088	0.406023
	H52	H	0.584512	0.409386	0.108889
	H53	H	0.586426	0.584603	0.884549
	H54	H	0.404870	0.579695	0.110723
	H55	H	0.412366	0.401173	0.885265
	H56	H	0.108868	0.573902	0.409385
	H57	H	0.883191	0.583315	0.587705
	H58	H	0.109949	0.408378	0.587835
	H59	H	0.883095	0.406747	0.412451
	H60	H	0.111284	0.403404	0.587524
	H61	H	0.883859	0.580274	0.586798
	H62	H	0.114441	0.584339	0.405107
	H63	H	0.883339	0.404718	0.413036
	H64	H	0.412843	0.576173	0.107554
	H65	H	0.587067	0.580468	0.885371
	H66	H	0.576829	0.400580	0.109644
	H67	H	0.405072	0.404006	0.884134
	H68	H	0.579207	0.103365	0.406079
	H69	H	0.579736	0.879724	0.593357
	H70	H	0.404324	0.106706	0.589560
	H71	H	0.411484	0.882227	0.413418
	H72	H	0.911866	0.605897	0.093849
	H73	H	0.086358	0.382258	0.081151
	H74	H	0.086017	0.604739	0.908370
	H75	H	0.905433	0.380243	0.913120
	H76	H	0.087123	0.900082	0.613801
	H77	H	0.086893	0.079556	0.386745
	H78	H	0.912730	0.076123	0.608187
	H79	H	0.917881	0.902715	0.389002
	H80	H	0.609538	0.074092	0.904605
	H81	H	0.385843	0.076725	0.079449
	H82	H	0.612279	0.897413	0.088223
	H83	H	0.384020	0.900740	0.919264
	H84	H	0.607045	0.905629	0.081173
	H85	H	0.382323	0.075156	0.090621
	H86	H	0.613667	0.087811	0.907436
	H87	H	0.383515	0.913470	0.907112
	H88	H	0.913793	0.085973	0.611328
	H89	H	0.081860	0.079576	0.387501
	H90	H	0.087531	0.902547	0.612898
	H91	H	0.905852	0.894620	0.381940
	H92	H	0.080046	0.602469	0.910013
	H93	H	0.086272	0.377190	0.092634
	H94	H	0.908002	0.603550	0.083581
	H95	H	0.906809	0.378469	0.906594
	H96	H	0.411486	0.104881	0.590099
	H97	H	0.584818	0.881308	0.582851
	H98	H	0.584292	0.102456	0.414401
	H99	H	0.404331	0.879096	0.411660
	H100	H	0.587672	0.399179	0.113695
	H101	H	0.583484	0.582196	0.886007
	H102	H	0.412529	0.585163	0.110563
	H103	H	0.410510	0.407943	0.888247
	H104	H	0.110130	0.583873	0.417129
	H105	H	0.882692	0.581582	0.589417
	H106	H	0.109463	0.405891	0.583552
	H107	H	0.884855	0.405946	0.414532
	H108	H	0.901131	0.607704	0.090883
	H109	H	0.076281	0.383179	0.088122
	H110	H	0.084128	0.603291	0.915002
	H111	H	0.911851	0.381812	0.910639
	H112	H	0.085086	0.901162	0.612721
	H113	H	0.084284	0.083321	0.385774
	H114	H	0.904863	0.080469	0.612083
	H115	H	0.904242	0.910085	0.385792
	H116	H	0.606344	0.079506	0.917767
	H117	H	0.381121	0.085407	0.085378
	H118	H	0.609958	0.908444	0.092621
	H119	H	0.377385	0.897842	0.903075
	C120	C	0.374792	0.000792	0.620900
	C121	C	0.618246	0.984154	0.620807
	C122	C	0.617388	0.000103	0.377134
	C123	C	0.374438	0.984051	0.376907
	C124	C	0.617231	0.371306	0.006726
	C125	C	0.618531	0.615002	0.989604
	C126	C	0.375609	0.613784	0.005807
	C127	C	0.374847	0.370123	0.989465
	C128	C	0.005929	0.614075	0.378150
	C129	C	0.988814	0.613964	0.620941
	C130	C	0.005227	0.372270	0.619890
	C131	C	0.987980	0.372062	0.378498
	C132	C	0.873899	0.501474	0.121710
	C133	C	0.117634	0.484350	0.120764
	C134	C	0.117464	0.499910	0.877179
	C135	C	0.875129	0.484335	0.877724
	C136	C	0.119101	0.869717	0.508209
	C137	C	0.117791	0.113769	0.490930
	C138	C	0.875642	0.114857	0.507207
	C139	C	0.877102	0.871405	0.490431
	C140	C	0.505200	0.114157	0.876298
	C141	C	0.487715	0.112671	0.118709
	C142	C	0.504329	0.870773	0.119664
	C143	C	0.487378	0.872382	0.877867
	C144	C	0.372426	0.881971	0.680860
	C145	C	0.621736	0.102769	0.681526
	C146	C	0.620225	0.881150	0.317190
	C147	C	0.369815	0.101663	0.314776
	C148	C	0.678073	0.370089	0.887643
	C149	C	0.677514	0.616566	0.109198
	C150	C	0.313668	0.616968	0.887579
	C151	C	0.313267	0.366884	0.108143
	C152	C	0.886102	0.674252	0.376088
	C153	C	0.109387	0.673156	0.623152
	C154	C	0.886139	0.309756	0.624689
	C155	C	0.107120	0.309902	0.373045
	C156	C	0.885619	0.367952	0.681341
	C157	C	0.108722	0.616070	0.681268
	C158	C	0.885325	0.616525	0.319080
	C159	C	0.106647	0.367503	0.315389
	C160	C	0.371988	0.674509	0.887189
	C161	C	0.621894	0.676178	0.107888
	C162	C	0.622105	0.310266	0.888155
	C163	C	0.369181	0.307265	0.106971
	C164	C	0.677235	0.880841	0.376360
	C165	C	0.679714	0.102849	0.623368
	C166	C	0.315484	0.881053	0.622199
	C167	C	0.314228	0.103018	0.375419
	C168	C	0.869924	0.382886	0.182665
	C169	C	0.121749	0.602650	0.181746
	C170	C	0.122406	0.382168	0.814551
	C171	C	0.872176	0.602964	0.817240
	C172	C	0.179328	0.868562	0.388642
	C173	C	0.177476	0.115783	0.610080
	C174	C	0.813669	0.118443	0.388915
	C175	C	0.817558	0.871278	0.610411
	C176	C	0.385925	0.175888	0.872414
	C177	C	0.607535	0.173814	0.122052
	C178	C	0.384520	0.809651	0.122340
	C179	C	0.607388	0.812022	0.874453
	C180	C	0.384233	0.867106	0.180255
	C181	C	0.606961	0.117023	0.180466
	C182	C	0.385717	0.118410	0.815072
	C183	C	0.608076	0.870659	0.818197
	C184	C	0.870042	0.177806	0.389905
	C185	C	0.122290	0.175916	0.608646
	C186	C	0.124087	0.808774	0.389813
	C187	C	0.873502	0.811461	0.609645
	C188	C	0.179237	0.381510	0.873799
	C189	C	0.180304	0.602185	0.124062
	C190	C	0.813621	0.382226	0.123202
	C191	C	0.816470	0.604261	0.877269
	C192	C	0.400181	0.083688	0.595271
	C193	C	0.592803	0.901062	0.596107
	C194	C	0.591650	0.082707	0.401817
	C195	C	0.401288	0.901598	0.402875
	C196	C	0.590492	0.396007	0.089158
	C197	C	0.593099	0.589712	0.906927
	C198	C	0.402321	0.587812	0.088048
	C199	C	0.401774	0.396555	0.907435
	C200	C	0.089327	0.588251	0.403251
	C201	C	0.905063	0.589006	0.595379
	C202	C	0.088383	0.398353	0.593557
	C203	C	0.905319	0.398276	0.405509
	C204	C	0.899584	0.584092	0.096789
	C205	C	0.090680	0.402186	0.094802
	C206	C	0.090992	0.582051	0.903589
	C207	C	0.900603	0.401675	0.902820
	C208	C	0.093671	0.894082	0.591366
	C209	C	0.091845	0.088299	0.408296
	C210	C	0.902629	0.088553	0.589021
	C211	C	0.902184	0.895497	0.407212
	C212	C	0.588205	0.087966	0.902502
	C213	C	0.404845	0.086556	0.092587
	C214	C	0.587932	0.896448	0.094533
	C215	C	0.403609	0.896836	0.902758
	Zn216	Zn	0.495964	-0.007382	0.749686
	Zn217	Zn	0.495848	-0.008220	0.247566
	Zn218	Zn	0.745985	0.492832	-0.000888
	Zn219	Zn	0.246884	0.491985	-0.001963
	Zn220	Zn	-0.002249	0.741685	0.499387
	Zn221	Zn	-0.002624	0.243565	0.499040
	Zn222	Zn	-0.003903	0.492514	0.748373
	Zn223	Zn	-0.004221	0.493012	0.249830
	Zn224	Zn	0.496095	0.743111	-0.002510
	Zn225	Zn	0.496339	0.241675	-0.002049
	Zn226	Zn	0.747529	-0.007592	0.498763
	Zn227	Zn	0.246433	-0.007765	0.499734
	N228	N	0.408511	0.957487	0.680027
	N229	N	0.584266	0.027884	0.680122
	N230	N	0.583867	0.956321	0.317537
	N231	N	0.406248	0.026389	0.315586
	N232	N	0.675251	0.407123	0.962428
	N233	N	0.675544	0.579183	0.034705
	N234	N	0.315954	0.579884	0.962353
	N235	N	0.316652	0.405397	0.034000
	N236	N	0.962231	0.673113	0.411922
	N237	N	0.033803	0.671775	0.586261
	N238	N	0.961534	0.312267	0.587201
	N239	N	0.032419	0.312628	0.411703
	N240	N	0.960594	0.406159	0.678419
	N241	N	0.032495	0.580073	0.680064
	N242	N	0.960920	0.579811	0.320241
	N243	N	0.031643	0.405390	0.318576
	N244	N	0.409549	0.672686	0.961862
	N245	N	0.585637	0.675326	0.032461
	N246	N	0.585202	0.310593	0.963317
	N247	N	0.406870	0.309400	0.032356
	N248	N	0.676186	0.955995	0.412590
	N249	N	0.677467	0.028232	0.586081
	N250	N	0.316987	0.955876	0.585490
	N251	N	0.316904	0.028602	0.413025
	N252	N	0.906396	0.458107	0.181964
	N253	N	0.083685	0.528159	0.179930
	N254	N	0.084737	0.456762	0.816719
	N255	N	0.907810	0.527355	0.817211
	N256	N	0.176487	0.905761	0.463359
	N257	N	0.174668	0.077812	0.535862
	N258	N	0.816951	0.080068	0.463049
	N259	N	0.819539	0.907779	0.535361
	N260	N	0.461363	0.173531	0.909729
	N261	N	0.532236	0.171502	0.084553
	N262	N	0.460306	0.811668	0.085508
	N263	N	0.531545	0.812999	0.910911
	N264	N	0.459707	0.904371	0.178693
	N265	N	0.531393	0.079852	0.178801
	N266	N	0.460904	0.080944	0.817228
	N267	N	0.532480	0.907465	0.820213
	N268	N	0.907698	0.175757	0.464460
	N269	N	0.086123	0.175205	0.533249
	N270	N	0.087436	0.809302	0.465120
	N271	N	0.909871	0.811455	0.534119
	N272	N	0.176266	0.455680	0.912131
	N273	N	0.177785	0.527657	0.086736
	N274	N	0.815702	0.456934	0.086259
	N275	N	0.818020	0.529265	0.914083
	O276	O	0.436498	0.505465	0.657194
	H277	H	0.420834	0.483886	0.678208
	H278	H	0.441264	0.496149	0.644385
	O279	O	0.701699	0.445739	0.292884
	H280	H	0.705819	0.444637	0.276589
	H281	H	0.702001	0.418983	0.297712
	O282	O	0.480809	0.519476	0.329912
	H283	H	0.488489	0.519132	0.315374
	H284	H	0.510273	0.515350	0.328206
	O285	O	0.884635	1.183203	-0.126309
	H286	H	0.887815	1.183567	-0.153103
	H287	H	0.851294	1.197146	-0.122070
	O288	O	0.455660	0.286100	0.447742
	H289	H	0.463920	0.297037	0.447558
	H290	H	0.439129	0.287514	0.463413
	O291	O	0.665644	0.519778	0.401405
	H292	H	0.665574	0.519554	0.388617
	H293	H	0.687338	0.503514	0.394708
	O294	O	1.004986	1.069420	0.956994
	H295	H	1.004403	1.071231	0.976006
	H296	H	1.011199	1.070023	0.976219
	O297	O	0.322167	0.671661	0.339752
	H298	H	0.311512	0.658109	0.365228
	H299	H	0.314729	0.646899	0.350492
	O300	O	0.517838	0.345814	0.283936
	H301	H	0.517233	0.330077	0.286871
	H302	H	0.529397	0.342597	0.275856
	O303	O	0.681207	0.665319	0.587125
	H304	H	0.685830	0.667242	0.581681
	H305	H	0.662933	0.690811	0.594621
	O306	O	-0.061061	0.036801	1.154148
	H307	H	-0.071212	0.039990	1.149883
	H308	H	-0.091864	0.039044	1.168474
	O309	O	0.945394	-0.219720	0.208222
	H310	H	0.935846	-0.248090	0.245809
	H311	H	0.978992	-0.187865	0.212387
	O312	O	0.650687	0.523258	0.525167
	H313	H	0.645853	0.513151	0.514582
	H314	H	0.639910	0.533831	0.516584
	O315	O	0.293796	0.314056	0.508245
	H316	H	0.292223	0.338907	0.497372
	H317	H	0.269817	0.300901	0.511384
	O318	O	-0.086240	-0.061762	0.040433
	H319	H	-0.098980	-0.057058	0.037138
	H320	H	-0.085890	-0.073273	0.033484
	O321	O	0.537537	0.702824	0.610458
	H322	H	0.528679	0.711812	0.608318
	H323	H	0.534217	0.710859	0.629038
	O324	O	0.870406	-0.090634	1.034832
	H325	H	0.861929	-0.074976	1.026560
	H326	H	0.852815	-0.102442	1.036972
	O327	O	0.529121	0.364727	0.711591
	H328	H	0.546826	0.359466	0.725984
	H329	H	0.521332	0.378720	0.692409
	O330	O	0.210075	1.012375	1.211294
	H331	H	0.203260	1.044918	1.194444
	H332	H	0.246339	1.015578	1.242075
	O333	O	0.040470	0.950393	0.207451
	H334	H	0.001258	0.977997	0.207695
	H335	H	0.077261	0.976956	0.215894
	O336	O	1.172413	1.063161	-0.058072
	H337	H	1.162676	1.050812	-0.068525
	H338	H	1.170104	1.045541	-0.043912
	O339	O	0.148446	0.957808	0.995170
	H340	H	0.152133	0.929826	0.997637
	H341	H	0.148624	0.967252	1.005877
	O342	O	0.323970	0.514088	0.664985
	H343	H	0.315137	0.512281	0.686145
	H344	H	0.332051	0.480451	0.660118
	O345	O	0.015836	0.199680	1.208769
	H346	H	-0.000240	0.216598	1.198268
	H347	H	0.010930	0.197483	1.219185
	O348	O	0.316031	0.339078	0.673330
	H349	H	0.309356	0.345450	0.643498
	H350	H	0.358376	0.328936	0.686796
	O351	O	0.939565	0.837364	0.045988
	H352	H	0.919650	0.853730	0.041685
	H353	H	0.939536	0.839615	0.040826
	O354	O	0.816116	1.135815	0.819622
	H355	H	0.814868	1.116907	0.827748
	H356	H	0.830573	1.134199	0.812959
	O357	O	-0.476579	0.539111	0.546955
	H358	H	-0.487980	0.547786	0.556880
	H359	H	-0.488173	0.543899	0.535700
	O360	O	0.302263	0.527608	0.297572
	H361	H	0.280902	0.524416	0.268933
	H362	H	0.336439	0.506258	0.295334
	O363	O	0.987160	0.091761	-0.132754
	H364	H	1.008515	0.092563	-0.112023
	H365	H	0.985754	0.110489	-0.128003
	O366	O	-0.204927	-0.108622	0.915772
	H367	H	-0.211203	-0.098541	0.918809
	H368	H	-0.186947	-0.103237	0.920489
	O369	O	0.704112	-0.712468	0.464780
	H370	H	0.703537	-0.712879	0.483199
	H371	H	0.714654	-0.728812	0.478560
	O372	O	0.369171	0.461390	0.415208
	H373	H	0.382162	0.460296	0.425728
	H374	H	0.388774	0.462563	0.394586
	O375	O	-0.092300	0.047550	0.986569
	H376	H	-0.093005	0.034727	1.002934
	H377	H	-0.094622	0.046780	0.972129
	O378	O	0.298469	0.655566	0.495036
	H379	H	0.304768	0.634861	0.503919
	H380	H	0.274903	0.679108	0.501084
	O381	O	0.005995	0.784970	-0.166848
	H382	H	0.011520	0.768351	-0.190060
	H383	H	0.045281	0.797480	-0.153427
	O384	O	0.478202	0.684315	0.607499
	H385	H	0.491649	0.690362	0.617237
	H386	H	0.487101	0.676634	0.591234
	O387	O	0.975077	-0.070888	1.074088
	H388	H	0.974313	-0.078463	1.079341
	H389	H	0.972862	-0.060815	1.087918
	O390	O	0.827087	0.818291	0.111436
	H391	H	0.842679	0.819542	0.103106
	H392	H	0.834924	0.804803	0.093323
	O393	O	1.180315	-0.124048	0.908028
	H394	H	1.191825	-0.134393	0.944689
	H395	H	1.172923	-0.099322	0.912621
	O396	O	1.196987	0.785064	-0.036223
	H397	H	1.176181	0.770524	-0.020306
	H398	H	1.203606	0.771479	-0.031810
	O399	O	-0.005467	1.174849	0.888136
	H400	H	-0.011619	1.178390	0.889469
	H401	H	0.003636	1.190983	0.875288
	O402	O	0.913876	0.971197	-0.149644
	H403	H	0.916192	0.986726	-0.163582
	H404	H	0.925626	0.954466	-0.148706
	O405	O	0.579396	0.473759	0.517321
	H406	H	0.582934	0.487118	0.521389
	H407	H	0.579224	0.463160	0.518034
	O408	O	0.479845	0.705301	0.287291
	H409	H	0.463745	0.729930	0.266138
	H410	H	0.437898	0.703830	0.294849
	O411	O	1.179214	1.174680	1.184175
	H412	H	1.182572	1.190490	1.150413
	H413	H	1.140885	1.167497	1.191970
	O414	O	0.340090	0.520387	0.565137
	H415	H	0.352264	0.537595	0.563448
	H416	H	0.351293	0.524737	0.560886
	O417	O	0.197968	1.201519	1.019932
	H418	H	0.197653	1.176811	1.014508
	H419	H	0.226522	1.219550	1.016117
	O420	O	0.587854	1.335098	0.337927
	H421	H	0.559369	1.338733	0.331112
	H422	H	0.595431	1.329869	0.378367
	O423	O	-0.215750	0.946526	0.214017
	H424	H	-0.224801	0.921134	0.230206
	H425	H	-0.222598	0.920944	0.210616
	O426	O	0.564866	0.479753	0.428145
	H427	H	0.564619	0.494219	0.429597
	H428	H	0.574568	0.484786	0.433252
	O429	O	0.454393	0.283009	0.636712
	H430	H	0.463393	0.310855	0.632355
	H431	H	0.454973	0.272664	0.648148
	O432	O	0.623683	0.391493	0.554116
	H433	H	0.607072	0.387897	0.561820
	H434	H	0.609648	0.384572	0.554554
	O435	O	0.088028	-0.093242	-0.192616
	H436	H	0.089934	-0.109818	-0.200443
	H437	H	0.092379	-0.092047	-0.183308
	O438	O	0.040495	1.057889	0.836878
	H439	H	0.059308	1.055323	0.823883
	H440	H	0.047257	1.062683	0.834484
	O441	O	0.702330	0.606602	0.703778
	H442	H	0.707042	0.643818	0.705948
	H443	H	0.721469	0.589704	0.724810
