data_Molecule from HDF5

_cell_length_a		16.323816
_cell_length_b		16.243002
_cell_length_c		16.343222
_cell_angle_alpha	89.973984
_cell_angle_beta	90.092903
_cell_angle_gamma	90.014707
_symmetry_space_group_name_H-M	'P 1'
_symmetry_Int_Tables_number		1

loop_
	_symmetry_equiv_pos_as_xyz
	x,y,z

loop_
	_atom_site_label
	_atom_site_type_symbol
	_atom_site_fract_x
	_atom_site_fract_y
	_atom_site_fract_z
	H0	H	0.401013	0.835694	0.713401
	H1	H	0.596799	0.164416	0.713306
	H2	H	0.597555	0.835788	0.286513
	H3	H	0.401017	0.163605	0.285309
	H4	H	0.714557	0.401597	0.836710
	H5	H	0.715956	0.599074	0.162411
	H6	H	0.285277	0.597695	0.837019
	H7	H	0.286254	0.400777	0.163313
	H8	H	0.835823	0.712985	0.403834
	H9	H	0.163724	0.713727	0.597526
	H10	H	0.836187	0.285844	0.597321
	H11	H	0.164188	0.286870	0.403905
	H12	H	0.836511	0.400470	0.716005
	H13	H	0.162890	0.599867	0.716420
	H14	H	0.836191	0.598671	0.284940
	H15	H	0.163527	0.401556	0.285777
	H16	H	0.402512	0.713340	0.836100
	H17	H	0.598471	0.714634	0.163572
	H18	H	0.597121	0.286708	0.835983
	H19	H	0.403631	0.285591	0.163520
	H20	H	0.714451	0.836084	0.401081
	H21	H	0.713210	0.164129	0.597380
	H22	H	0.286159	0.836074	0.597261
	H23	H	0.286354	0.164015	0.402421
	H24	H	0.903475	0.336088	0.213169
	H25	H	0.097820	0.664195	0.213785
	H26	H	0.099744	0.336785	0.785089
	H27	H	0.901722	0.664489	0.785762
	H28	H	0.214977	0.900834	0.337713
	H29	H	0.214964	0.099419	0.663805
	H30	H	0.785036	0.098893	0.336678
	H31	H	0.785470	0.901436	0.663294
	H32	H	0.336695	0.212848	0.902576
	H33	H	0.664567	0.212140	0.095813
	H34	H	0.337066	0.785775	0.097317
	H35	H	0.664308	0.786906	0.903044
	H36	H	0.336880	0.900654	0.214946
	H37	H	0.663641	0.098529	0.215038
	H38	H	0.336733	0.097999	0.785298
	H39	H	0.663256	0.901351	0.784362
	H40	H	0.902273	0.213774	0.336428
	H41	H	0.096080	0.213170	0.664397
	H42	H	0.097377	0.785623	0.337082
	H43	H	0.902526	0.786155	0.663529
	H44	H	0.214188	0.335886	0.901413
	H45	H	0.214329	0.663727	0.098115
	H46	H	0.787057	0.335867	0.096913
	H47	H	0.786096	0.664097	0.901996
	H48	H	0.416630	0.115440	0.598340
	H49	H	0.601477	0.880946	0.591279
	H50	H	0.588151	0.118755	0.395989
	H51	H	0.418796	0.886533	0.405811
	H52	H	0.584883	0.408943	0.112076
	H53	H	0.591432	0.592143	0.885309
	H54	H	0.408616	0.594499	0.115041
	H55	H	0.411790	0.402955	0.884527
	H56	H	0.116722	0.596193	0.406529
	H57	H	0.883943	0.592873	0.593874
	H58	H	0.114903	0.410248	0.594387
	H59	H	0.878570	0.396461	0.398301
	H60	H	0.116910	0.405535	0.597021
	H61	H	0.884349	0.592990	0.593297
	H62	H	0.114481	0.591452	0.409084
	H63	H	0.887225	0.405059	0.419212
	H64	H	0.405144	0.593548	0.117319
	H65	H	0.594208	0.596514	0.882768
	H66	H	0.595936	0.396775	0.119105
	H67	H	0.400220	0.403889	0.881626
	H68	H	0.585594	0.112119	0.415255
	H69	H	0.589185	0.882102	0.600502
	H70	H	0.405667	0.114326	0.582745
	H71	H	0.401904	0.885612	0.417550
	H72	H	0.896368	0.618118	0.086210
	H73	H	0.095440	0.384427	0.087528
	H74	H	0.077812	0.611738	0.908687
	H75	H	0.911940	0.383456	0.902817
	H76	H	0.090882	0.902828	0.616939
	H77	H	0.090527	0.098642	0.384026
	H78	H	0.911129	0.086042	0.612165
	H79	H	0.913522	0.913995	0.388212
	H80	H	0.619945	0.100387	0.901394
	H81	H	0.385233	0.085298	0.097404
	H82	H	0.614503	0.907556	0.086444
	H83	H	0.382661	0.908269	0.901847
	H84	H	0.616086	0.913174	0.097637
	H85	H	0.381193	0.099809	0.096365
	H86	H	0.614255	0.093372	0.915209
	H87	H	0.383666	0.902196	0.907304
	H88	H	0.910075	0.100582	0.617163
	H89	H	0.100011	0.094879	0.382165
	H90	H	0.097623	0.907920	0.617079
	H91	H	0.908746	0.896727	0.381708
	H92	H	0.101203	0.615535	0.920016
	H93	H	0.097439	0.380339	0.098694
	H94	H	0.906835	0.621054	0.105597
	H95	H	0.908233	0.385803	0.912487
	H96	H	0.397917	0.121397	0.598726
	H97	H	0.587938	0.887026	0.586106
	H98	H	0.604136	0.119077	0.408942
	H99	H	0.400921	0.878845	0.398361
	H100	H	0.601610	0.413548	0.116472
	H101	H	0.596837	0.591671	0.883730
	H102	H	0.407316	0.590490	0.115181
	H103	H	0.406427	0.413471	0.885664
	H104	H	0.116432	0.591293	0.403671
	H105	H	0.883679	0.592057	0.593452
	H106	H	0.115345	0.405000	0.591688
	H107	H	0.885574	0.419616	0.399834
	H108	H	0.917571	0.612861	0.087917
	H109	H	0.086762	0.384187	0.095842
	H110	H	0.097533	0.621704	0.895209
	H111	H	0.901558	0.381173	0.904963
	H112	H	0.090156	0.910478	0.615096
	H113	H	0.092879	0.088418	0.385743
	H114	H	0.898070	0.091002	0.617862
	H115	H	0.896693	0.910978	0.382219
	H116	H	0.615651	0.084963	0.901078
	H117	H	0.387084	0.092238	0.084372
	H118	H	0.618551	0.900780	0.096117
	H119	H	0.385964	0.909625	0.908808
	C120	C	0.378402	0.008480	0.621286
	C121	C	0.621170	0.991652	0.620778
	C122	C	0.621260	0.008260	0.378557
	C123	C	0.378399	0.991718	0.378554
	C124	C	0.622139	0.378330	0.007901
	C125	C	0.621939	0.621404	0.991725
	C126	C	0.378287	0.621451	0.008102
	C127	C	0.378331	0.377864	0.992029
	C128	C	0.007945	0.621577	0.378230
	C129	C	0.991975	0.621297	0.621927
	C130	C	0.007815	0.378487	0.622255
	C131	C	0.991946	0.378934	0.378337
	C132	C	0.878925	0.508950	0.121214
	C133	C	0.121427	0.491335	0.121846
	C134	C	0.121186	0.508286	0.879049
	C135	C	0.878686	0.492024	0.878657
	C136	C	0.121116	0.878722	0.508620
	C137	C	0.122116	0.122022	0.491921
	C138	C	0.877729	0.121569	0.508093
	C139	C	0.877995	0.878476	0.491778
	C140	C	0.508570	0.121352	0.877793
	C141	C	0.492255	0.121434	0.121287
	C142	C	0.508461	0.878481	0.121667
	C143	C	0.492181	0.878073	0.877739
	C144	C	0.380457	0.884840	0.675952
	C145	C	0.618191	0.115282	0.675685
	C146	C	0.618999	0.884878	0.323606
	C147	C	0.380425	0.114649	0.322922
	C148	C	0.676977	0.381037	0.885209
	C149	C	0.677241	0.619014	0.114335
	C150	C	0.322862	0.618806	0.885653
	C151	C	0.323924	0.380325	0.114720
	C152	C	0.884717	0.675921	0.382070
	C153	C	0.115005	0.676142	0.618681
	C154	C	0.884811	0.323485	0.618700
	C155	C	0.115174	0.324262	0.382431
	C156	C	0.885280	0.380595	0.677409
	C157	C	0.114540	0.619509	0.677500
	C158	C	0.884943	0.619213	0.323181
	C159	C	0.114992	0.381269	0.323676
	C160	C	0.381037	0.676347	0.885288
	C161	C	0.619219	0.676496	0.114797
	C162	C	0.618489	0.324009	0.884891
	C163	C	0.382137	0.322946	0.114543
	C164	C	0.676842	0.885134	0.380677
	C165	C	0.675855	0.115352	0.618204
	C166	C	0.323427	0.884938	0.618240
	C167	C	0.323867	0.115205	0.381566
	C168	C	0.882113	0.384907	0.175579
	C169	C	0.118839	0.615148	0.176519
	C170	C	0.119479	0.385632	0.823340
	C171	C	0.881209	0.615293	0.823589
	C172	C	0.176531	0.880839	0.386110
	C173	C	0.176564	0.119267	0.615270
	C174	C	0.822875	0.119383	0.385306
	C175	C	0.823278	0.880829	0.614580
	C176	C	0.385595	0.176071	0.880952
	C177	C	0.615583	0.175393	0.117537
	C178	C	0.385617	0.823359	0.118332
	C179	C	0.615353	0.823905	0.881544
	C180	C	0.385729	0.880495	0.176562
	C181	C	0.615031	0.119071	0.176757
	C182	C	0.385584	0.118663	0.823065
	C183	C	0.614666	0.880961	0.822682
	C184	C	0.881230	0.176417	0.385181
	C185	C	0.117944	0.176196	0.615492
	C186	C	0.117866	0.823808	0.385726
	C187	C	0.881492	0.823657	0.614769
	C188	C	0.176301	0.384930	0.881252
	C189	C	0.176336	0.614984	0.118909
	C190	C	0.824362	0.384923	0.118068
	C191	C	0.823878	0.615378	0.881426
	C192	C	0.400218	0.094868	0.599633
	C193	C	0.599495	0.905424	0.598936
	C194	C	0.599106	0.094623	0.400287
	C195	C	0.400607	0.905694	0.400740
	C196	C	0.600485	0.400137	0.093695
	C197	C	0.600371	0.599860	0.906017
	C198	C	0.400326	0.599285	0.093909
	C199	C	0.399835	0.400148	0.905974
	C200	C	0.093959	0.599445	0.399946
	C201	C	0.906058	0.599119	0.599934
	C202	C	0.093744	0.400491	0.600724
	C203	C	0.905913	0.400573	0.399442
	C204	C	0.900593	0.594944	0.099537
	C205	C	0.099739	0.405317	0.100342
	C206	C	0.098854	0.594490	0.901443
	C207	C	0.900881	0.405662	0.900322
	C208	C	0.099320	0.900719	0.594292
	C209	C	0.100819	0.100394	0.406146
	C210	C	0.899886	0.099056	0.593740
	C211	C	0.899957	0.900647	0.406126
	C212	C	0.594428	0.099345	0.899494
	C213	C	0.406733	0.099097	0.099144
	C214	C	0.594350	0.900701	0.099957
	C215	C	0.406147	0.899984	0.899530
	Zn216	Zn	0.499603	-0.000182	0.748951
	Zn217	Zn	0.499960	-0.000182	0.250391
	Zn218	Zn	0.750564	0.500122	-0.000043
	Zn219	Zn	0.249070	0.499256	0.000204
	Zn220	Zn	-0.000125	0.750093	0.500476
	Zn221	Zn	-0.000321	0.249834	0.500218
	Zn222	Zn	-0.000021	0.500271	0.750752
	Zn223	Zn	-0.000210	0.500417	0.249543
	Zn224	Zn	0.500366	0.750044	-0.000015
	Zn225	Zn	0.500243	0.249980	-0.000334
	Zn226	Zn	0.749438	0.000290	0.499817
	Zn227	Zn	0.250109	0.000398	0.500617
	N228	N	0.414088	0.962539	0.677717
	N229	N	0.584771	0.037466	0.677403
	N230	N	0.585160	0.962404	0.322194
	N231	N	0.413826	0.036894	0.321146
	N232	N	0.679661	0.413734	0.962752
	N233	N	0.678896	0.585481	0.037144
	N234	N	0.321262	0.585181	0.962968
	N235	N	0.321414	0.413663	0.037211
	N236	N	0.962062	0.677381	0.415602
	N237	N	0.037590	0.677247	0.584690
	N238	N	0.962046	0.322001	0.585069
	N239	N	0.037785	0.322538	0.415746
	N240	N	0.962701	0.413955	0.679619
	N241	N	0.037177	0.586109	0.679534
	N242	N	0.962708	0.586104	0.320807
	N243	N	0.037441	0.414422	0.321164
	N244	N	0.415008	0.677874	0.962401
	N245	N	0.585359	0.678175	0.037448
	N246	N	0.584909	0.322488	0.962132
	N247	N	0.415104	0.321488	0.037129
	N248	N	0.678219	0.962927	0.414169
	N249	N	0.677561	0.037611	0.584677
	N250	N	0.322042	0.962905	0.584969
	N251	N	0.322324	0.037570	0.415384
	N252	N	0.915212	0.462785	0.177665
	N253	N	0.085327	0.537485	0.178349
	N254	N	0.085659	0.463238	0.822223
	N255	N	0.914334	0.537441	0.821784
	N256	N	0.178497	0.914393	0.463516
	N257	N	0.179328	0.086336	0.537636
	N258	N	0.820779	0.086045	0.462653
	N259	N	0.821206	0.914360	0.537261
	N260	N	0.462978	0.177701	0.914610
	N261	N	0.538274	0.177129	0.083905
	N262	N	0.462877	0.822294	0.084635
	N263	N	0.538057	0.822155	0.915152
	N264	N	0.463214	0.913868	0.178910
	N265	N	0.537470	0.085982	0.179105
	N266	N	0.463099	0.085458	0.820931
	N267	N	0.537042	0.914005	0.820593
	N268	N	0.914672	0.177970	0.462654
	N269	N	0.084691	0.177919	0.538076
	N270	N	0.084383	0.822314	0.462921
	N271	N	0.914840	0.822122	0.537377
	N272	N	0.177486	0.462412	0.915312
	N273	N	0.177971	0.537244	0.085490
	N274	N	0.822340	0.462741	0.084947
	N275	N	0.822343	0.537691	0.915125
