data_Molecule from HDF5

_cell_length_a		16.374777
_cell_length_b		16.483859
_cell_length_c		16.372051
_cell_angle_alpha	89.955813
_cell_angle_beta	90.053198
_cell_angle_gamma	90.050067
_symmetry_space_group_name_H-M	'P 1'
_symmetry_Int_Tables_number		1

loop_
	_symmetry_equiv_pos_as_xyz
	x,y,z

loop_
	_atom_site_label
	_atom_site_type_symbol
	_atom_site_fract_x
	_atom_site_fract_y
	_atom_site_fract_z
	H0	H	0.390561	0.834802	0.722469
	H1	H	0.600836	0.152244	0.722243
	H2	H	0.601241	0.836561	0.277476
	H3	H	0.386990	0.151726	0.277712
	H4	H	0.716046	0.391314	0.842659
	H5	H	0.714871	0.597864	0.162175
	H6	H	0.274747	0.599871	0.843203
	H7	H	0.274337	0.387709	0.160368
	H8	H	0.837271	0.714813	0.395048
	H9	H	0.153831	0.715257	0.608605
	H10	H	0.834164	0.273939	0.604692
	H11	H	0.153988	0.272264	0.396119
	H12	H	0.834295	0.391468	0.720055
	H13	H	0.154729	0.597891	0.722175
	H14	H	0.835980	0.598245	0.280630
	H15	H	0.155255	0.389332	0.282341
	H16	H	0.390560	0.713889	0.842045
	H17	H	0.602073	0.717227	0.160127
	H18	H	0.604149	0.272834	0.842867
	H19	H	0.388407	0.270169	0.159312
	H20	H	0.718055	0.836314	0.392688
	H21	H	0.716534	0.152451	0.604342
	H22	H	0.273889	0.834762	0.606503
	H23	H	0.272529	0.151872	0.395333
	H24	H	0.886089	0.336316	0.226461
	H25	H	0.103523	0.650626	0.225934
	H26	H	0.101604	0.335937	0.780506
	H27	H	0.889836	0.651153	0.779208
	H28	H	0.217574	0.886356	0.342481
	H29	H	0.213128	0.095051	0.661661
	H30	H	0.773410	0.098318	0.340997
	H31	H	0.775044	0.890499	0.659697
	H32	H	0.338534	0.216475	0.894283
	H33	H	0.653688	0.216941	0.111403
	H34	H	0.336653	0.770210	0.109044
	H35	H	0.653142	0.772665	0.895602
	H36	H	0.336238	0.886636	0.223992
	H37	H	0.653451	0.100279	0.224611
	H38	H	0.336096	0.097674	0.781449
	H39	H	0.653800	0.889413	0.780328
	H40	H	0.885812	0.215815	0.342118
	H41	H	0.097992	0.212520	0.660823
	H42	H	0.103532	0.768692	0.344003
	H43	H	0.890026	0.772963	0.659647
	H44	H	0.218218	0.336709	0.896338
	H45	H	0.220027	0.651053	0.109592
	H46	H	0.768638	0.337263	0.112097
	H47	H	0.774314	0.651860	0.896983
	H48	H	0.397052	0.109101	0.590915
	H49	H	0.585740	0.879827	0.592120
	H50	H	0.590516	0.109075	0.409259
	H51	H	0.408293	0.882353	0.412617
	H52	H	0.580372	0.402736	0.114929
	H53	H	0.582558	0.585230	0.888000
	H54	H	0.409640	0.582344	0.114830
	H55	H	0.411003	0.403506	0.889433
	H56	H	0.107072	0.579442	0.417941
	H57	H	0.881437	0.585150	0.587896
	H58	H	0.109945	0.398975	0.593001
	H59	H	0.883337	0.409676	0.413081
	H60	H	0.107441	0.401642	0.586670
	H61	H	0.882734	0.579613	0.589146
	H62	H	0.108903	0.578638	0.409970
	H63	H	0.879310	0.401230	0.409329
	H64	H	0.408011	0.583379	0.115673
	H65	H	0.586467	0.585170	0.887153
	H66	H	0.584811	0.404958	0.115983
	H67	H	0.405536	0.404288	0.886770
	H68	H	0.574752	0.105079	0.407816
	H69	H	0.582078	0.881774	0.590729
	H70	H	0.410283	0.107014	0.596982
	H71	H	0.404907	0.881477	0.413960
	H72	H	0.903152	0.606521	0.089479
	H73	H	0.084064	0.379778	0.096114
	H74	H	0.086346	0.604975	0.919466
	H75	H	0.911382	0.382236	0.912715
	H76	H	0.080046	0.908203	0.611570
	H77	H	0.077849	0.082072	0.389702
	H78	H	0.903058	0.075486	0.612885
	H79	H	0.904974	0.906352	0.386552
	H80	H	0.611905	0.082317	0.906071
	H81	H	0.386213	0.073303	0.086538
	H82	H	0.604913	0.904281	0.082327
	H83	H	0.383967	0.909197	0.914822
	H84	H	0.606115	0.912390	0.090952
	H85	H	0.379615	0.084969	0.095069
	H86	H	0.611383	0.089138	0.914975
	H87	H	0.378578	0.904357	0.905719
	H88	H	0.912927	0.084823	0.612548
	H89	H	0.084511	0.088834	0.384356
	H90	H	0.081360	0.897938	0.615492
	H91	H	0.909395	0.906075	0.389127
	H92	H	0.091008	0.610348	0.908084
	H93	H	0.077640	0.385194	0.087592
	H94	H	0.909050	0.605758	0.094815
	H95	H	0.903949	0.381700	0.917350
	H96	H	0.407876	0.102760	0.582946
	H97	H	0.585290	0.881958	0.588454
	H98	H	0.582637	0.102868	0.421696
	H99	H	0.405383	0.880658	0.410919
	H100	H	0.581378	0.407228	0.114071
	H101	H	0.584674	0.581753	0.889299
	H102	H	0.407854	0.581436	0.115304
	H103	H	0.408412	0.409220	0.890465
	H104	H	0.110147	0.585333	0.414246
	H105	H	0.880402	0.583250	0.593354
	H106	H	0.107798	0.405988	0.592997
	H107	H	0.882995	0.401315	0.418907
	H108	H	0.910241	0.602890	0.087479
	H109	H	0.088570	0.381419	0.085814
	H110	H	0.078100	0.605924	0.908475
	H111	H	0.903916	0.379647	0.908645
	H112	H	0.089896	0.904898	0.616127
	H113	H	0.087676	0.079100	0.387132
	H114	H	0.900417	0.087719	0.616488
	H115	H	0.907799	0.902222	0.386504
	H116	H	0.607432	0.079134	0.915910
	H117	H	0.383988	0.087978	0.080265
	H118	H	0.609689	0.901636	0.092368
	H119	H	0.380395	0.897855	0.914950
	C120	C	0.373296	0.001919	0.623083
	C121	C	0.616951	0.985750	0.622317
	C122	C	0.615743	0.002062	0.379128
	C123	C	0.372757	0.985587	0.379222
	C124	C	0.616431	0.372672	0.010291
	C125	C	0.616771	0.616456	0.993368
	C126	C	0.374999	0.615122	0.010400
	C127	C	0.374876	0.372292	0.993381
	C128	C	0.003784	0.613976	0.380652
	C129	C	0.986628	0.614505	0.622777
	C130	C	0.002991	0.371108	0.622835
	C131	C	0.986422	0.371388	0.380538
	C132	C	0.873316	0.501524	0.124085
	C133	C	0.117056	0.485844	0.123416
	C134	C	0.117899	0.502695	0.879821
	C135	C	0.873956	0.485498	0.880647
	C136	C	0.116668	0.870998	0.509682
	C137	C	0.115174	0.114262	0.492758
	C138	C	0.873247	0.114962	0.508897
	C139	C	0.874588	0.872622	0.492100
	C140	C	0.505023	0.115453	0.879728
	C141	C	0.487554	0.115191	0.121858
	C142	C	0.502596	0.872488	0.122282
	C143	C	0.486086	0.871986	0.879694
	C144	C	0.372034	0.882454	0.682793
	C145	C	0.619290	0.104850	0.682180
	C146	C	0.618478	0.883499	0.318152
	C147	C	0.369178	0.104159	0.318236
	C148	C	0.676961	0.371701	0.890494
	C149	C	0.675758	0.617274	0.113821
	C150	C	0.314515	0.617660	0.890800
	C151	C	0.313917	0.369257	0.112419
	C152	C	0.884689	0.674746	0.376966
	C153	C	0.106211	0.674862	0.625783
	C154	C	0.882196	0.313276	0.623466
	C155	C	0.106363	0.311787	0.377929
	C156	C	0.882292	0.371734	0.680936
	C157	C	0.106887	0.616315	0.682302
	C158	C	0.884069	0.616378	0.320121
	C159	C	0.106765	0.370245	0.321296
	C160	C	0.372113	0.674756	0.890344
	C161	C	0.619650	0.676638	0.112870
	C162	C	0.620948	0.312754	0.890769
	C163	C	0.370991	0.310847	0.111927
	C164	C	0.677043	0.883552	0.375420
	C165	C	0.676740	0.104891	0.623281
	C166	C	0.313678	0.882496	0.625172
	C167	C	0.312215	0.104443	0.376982
	C168	C	0.869005	0.383577	0.185833
	C169	C	0.121018	0.603725	0.185134
	C170	C	0.120070	0.383574	0.820236
	C171	C	0.871541	0.604096	0.819946
	C172	C	0.177405	0.868322	0.390284
	C173	C	0.173994	0.114488	0.613449
	C174	C	0.813294	0.116677	0.388814
	C175	C	0.814876	0.871545	0.612037
	C176	C	0.385650	0.175986	0.876438
	C177	C	0.606413	0.176173	0.127076
	C178	C	0.383818	0.810995	0.126288
	C179	C	0.605582	0.812284	0.877228
	C180	C	0.383565	0.869239	0.183384
	C181	C	0.605990	0.118244	0.184152
	C182	C	0.384507	0.116792	0.820522
	C183	C	0.605897	0.870533	0.820112
	C184	C	0.869388	0.175391	0.389370
	C185	C	0.116745	0.172766	0.613178
	C186	C	0.120585	0.809593	0.390894
	C187	C	0.872066	0.813131	0.612023
	C188	C	0.178159	0.383984	0.877961
	C189	C	0.179012	0.603771	0.126964
	C190	C	0.810701	0.383930	0.128328
	C191	C	0.813981	0.604202	0.878393
	C192	C	0.398033	0.084691	0.597819
	C193	C	0.591605	0.902903	0.597718
	C194	C	0.589971	0.084268	0.405328
	C195	C	0.398696	0.902978	0.404919
	C196	C	0.589989	0.397778	0.093258
	C197	C	0.591818	0.591402	0.909971
	C198	C	0.401057	0.589749	0.093624
	C199	C	0.400831	0.398205	0.910423
	C200	C	0.086739	0.588502	0.406618
	C201	C	0.903391	0.589737	0.597513
	C202	C	0.086726	0.395306	0.598160
	C203	C	0.903298	0.396888	0.406335
	C204	C	0.899918	0.583697	0.098011
	C205	C	0.090815	0.403772	0.097176
	C206	C	0.092373	0.585614	0.904801
	C207	C	0.899350	0.402777	0.905694
	C208	C	0.091075	0.896464	0.592804
	C209	C	0.090620	0.090211	0.408957
	C210	C	0.898611	0.089991	0.592229
	C211	C	0.900055	0.897682	0.408922
	C212	C	0.588433	0.090562	0.905117
	C213	C	0.404770	0.089365	0.094965
	C214	C	0.585230	0.898684	0.096067
	C215	C	0.402638	0.896702	0.904832
	Zn216	Zn	0.495307	-0.006041	0.751756
	Zn217	Zn	0.494127	-0.005595	0.250117
	Zn218	Zn	0.744232	0.494237	0.002343
	Zn219	Zn	0.246874	0.494102	0.001813
	Zn220	Zn	-0.005160	0.742774	0.501504
	Zn221	Zn	-0.005777	0.242680	0.500741
	Zn222	Zn	-0.004544	0.493560	0.751273
	Zn223	Zn	-0.004564	0.492908	0.252514
	Zn224	Zn	0.494809	0.743560	0.001596
	Zn225	Zn	0.496104	0.243610	0.001044
	Zn226	Zn	0.745576	-0.006243	0.499935
	Zn227	Zn	0.244248	-0.006629	0.500998
	N228	N	0.408461	0.957707	0.681607
	N229	N	0.582622	0.029827	0.681585
	N230	N	0.580942	0.958050	0.320369
	N231	N	0.406195	0.029290	0.319637
	N232	N	0.674639	0.407913	0.966010
	N233	N	0.674224	0.580700	0.038419
	N234	N	0.315986	0.581591	0.966472
	N235	N	0.316307	0.407035	0.037616
	N236	N	0.960141	0.673471	0.413602
	N237	N	0.030526	0.673733	0.589350
	N238	N	0.958279	0.312789	0.588242
	N239	N	0.030557	0.312362	0.413931
	N240	N	0.958559	0.406843	0.680953
	N241	N	0.031646	0.579392	0.680613
	N242	N	0.959255	0.579358	0.322196
	N243	N	0.031068	0.406272	0.322603
	N244	N	0.408752	0.673450	0.965897
	N245	N	0.583898	0.676207	0.036836
	N246	N	0.584381	0.313036	0.966317
	N247	N	0.408285	0.312793	0.036777
	N248	N	0.675472	0.958174	0.412759
	N249	N	0.675177	0.029951	0.586821
	N250	N	0.314462	0.957521	0.588509
	N251	N	0.314000	0.029453	0.413796
	N252	N	0.907524	0.457769	0.183129
	N253	N	0.083067	0.529494	0.182735
	N254	N	0.083240	0.458519	0.821242
	N255	N	0.908187	0.529142	0.821234
	N256	N	0.174936	0.905930	0.465037
	N257	N	0.173069	0.078970	0.537504
	N258	N	0.815525	0.079844	0.464021
	N259	N	0.816328	0.907612	0.536397
	N260	N	0.461494	0.175362	0.912404
	N261	N	0.531707	0.174352	0.088915
	N262	N	0.458920	0.812955	0.088992
	N263	N	0.529961	0.813092	0.913549
	N264	N	0.458513	0.906683	0.181157
	N265	N	0.530927	0.081050	0.180854
	N266	N	0.459835	0.080055	0.822198
	N267	N	0.530551	0.906879	0.821459
	N268	N	0.906358	0.174219	0.464959
	N269	N	0.081073	0.172819	0.537204
	N270	N	0.083548	0.811171	0.466199
	N271	N	0.908329	0.813632	0.536457
	N272	N	0.177125	0.459208	0.913954
	N273	N	0.176644	0.529373	0.089142
	N274	N	0.813366	0.458247	0.090439
	N275	N	0.815306	0.529413	0.915468
	O276	O	0.365222	0.527670	0.618621
	H277	H	0.357724	0.511427	0.623429
	H278	H	0.382875	0.543332	0.609624
	O279	O	0.557042	0.333848	0.499142
	H280	H	0.559116	0.351296	0.490803
	H281	H	0.562153	0.333571	0.509289
	O282	O	0.302182	0.503230	0.666246
	H283	H	0.294416	0.506297	0.665513
	H284	H	0.295772	0.509164	0.670303
	O285	O	1.002783	1.061788	0.078992
	H286	H	1.015674	1.078924	0.087209
	H287	H	1.025112	1.060742	0.080158
	O288	O	0.409983	0.673242	0.301756
	H289	H	0.419795	0.698336	0.277435
	H290	H	0.418007	0.671588	0.326576
	O291	O	0.392248	0.286503	0.550634
	H292	H	0.382394	0.274634	0.562641
	H293	H	0.369233	0.284328	0.566715
	O294	O	0.942360	0.803394	1.069606
	H295	H	0.947275	0.807120	1.081016
	H296	H	0.956980	0.802201	1.067047
	O297	O	0.466741	0.372449	0.334562
	H298	H	0.473055	0.365495	0.332084
	H299	H	0.478401	0.376270	0.334147
	O300	O	0.567425	0.522771	0.417114
	H301	H	0.563659	0.543454	0.412679
	H302	H	0.576723	0.514318	0.432773
	O303	O	0.701672	0.698231	0.559469
	H304	H	0.716420	0.711677	0.573821
	H305	H	0.702127	0.697984	0.582793
	O306	O	-0.163222	0.141023	1.051791
	H307	H	-0.159448	0.166996	1.053097
	H308	H	-0.150083	0.144735	1.068734
	O309	O	0.800113	-0.074013	0.063622
	H310	H	0.789079	-0.075990	0.065495
	H311	H	0.815634	-0.084098	0.079874
	O312	O	0.559523	0.455290	0.536172
	H313	H	0.557530	0.450524	0.530535
	H314	H	0.570756	0.448494	0.520676
	O315	O	0.473284	0.508153	0.641024
	H316	H	0.458487	0.519590	0.634218
	H317	H	0.467080	0.492821	0.643942
	O318	O	0.124715	0.124617	-0.169902
	H319	H	0.116745	0.136365	-0.161839
	H320	H	0.118678	0.115133	-0.167682
	O321	O	0.593842	0.338620	0.551874
	H322	H	0.575963	0.321393	0.544601
	H323	H	0.594112	0.353573	0.555306
	O324	O	1.132629	0.008959	0.845315
	H325	H	1.123423	0.007397	0.851585
	H326	H	1.127233	0.019055	0.841873
	O327	O	0.447008	0.524127	0.393313
	H328	H	0.453722	0.508459	0.406600
	H329	H	0.449806	0.525724	0.394100
	O330	O	-0.056442	1.128744	1.125218
	H331	H	-0.042470	1.142476	1.142553
	H332	H	-0.047335	1.112795	1.113062
	O333	O	-0.031422	1.210408	-0.210292
	H334	H	-0.071918	1.200346	-0.206277
	H335	H	-0.047192	1.237960	-0.238327
	O336	O	1.190424	1.015272	0.208302
	H337	H	1.205998	1.012444	0.235665
	H338	H	1.184999	0.994976	0.205463
	O339	O	0.058944	1.195896	1.068026
	H340	H	0.085348	1.219257	1.073699
	H341	H	0.047512	1.194914	1.061966
	O342	O	0.305723	0.341623	0.684706
	H343	H	0.326649	0.341394	0.675949
	H344	H	0.288386	0.359239	0.703094
	O345	O	0.172193	0.175895	1.176193
	H346	H	0.175404	0.174374	1.134280
	H347	H	0.188004	0.136853	1.187420
	O348	O	0.295173	0.621389	0.441352
	H349	H	0.275622	0.627162	0.421021
	H350	H	0.301657	0.633595	0.444221
	O351	O	1.174261	0.779360	0.009499
	H352	H	1.199477	0.750736	-0.002074
	H353	H	1.165729	0.792525	-0.016479
	O354	O	0.810056	1.172129	0.815776
	H355	H	0.790423	1.162047	0.820113
	H356	H	0.799159	1.154022	0.836852
	O357	O	-0.009301	-0.210838	-0.136873
	H358	H	-0.026790	-0.212915	-0.140483
	H359	H	-0.006407	-0.206085	-0.137767
	O360	O	0.541006	0.686310	0.382113
	H361	H	0.548198	0.691181	0.391956
	H362	H	0.554287	0.685989	0.388159
	O363	O	1.011617	0.190445	0.087199
	H364	H	1.002991	0.205310	0.088165
	H365	H	1.038631	0.178739	0.078449
	O366	O	0.127064	-0.173477	0.932156
	H367	H	0.135147	-0.163181	0.934683
	H368	H	0.132145	-0.182802	0.934996
	O369	O	0.561122	-0.349803	0.646581
	H370	H	0.553802	-0.361685	0.643588
	H371	H	0.556006	-0.345980	0.648303
	O372	O	0.487098	0.322797	0.704140
	H373	H	0.482739	0.323064	0.704396
	H374	H	0.481244	0.302633	0.711397
	O375	O	0.179570	0.089127	1.009359
	H376	H	0.174382	0.081705	1.011941
	H377	H	0.175132	0.085803	1.014113
	O378	O	0.542667	0.593736	0.594224
	H379	H	0.536166	0.598582	0.576103
	H380	H	0.547799	0.602268	0.592978
	O381	O	-0.212882	0.867268	0.142109
	H382	H	-0.216649	0.882820	0.133308
	H383	H	-0.223375	0.865281	0.150477
	O384	O	0.428836	0.478902	0.408893
	H385	H	0.436447	0.483457	0.409522
	H386	H	0.425311	0.471658	0.415572
	O387	O	1.043966	-0.097271	1.203705
	H388	H	1.041189	-0.102811	1.197738
	H389	H	1.029941	-0.110967	1.197433
	O390	O	1.084663	0.980757	-0.105572
	H391	H	1.093830	0.985871	-0.101629
	H392	H	1.085086	0.992391	-0.102910
	O393	O	0.889408	-0.197814	1.202578
	H394	H	0.901715	-0.219562	1.220883
	H395	H	0.884638	-0.175307	1.186158
	O396	O	0.877744	1.071593	-0.070351
	H397	H	0.864826	1.085603	-0.083041
	H398	H	0.881369	1.077718	-0.053178
	O399	O	0.107478	1.076984	1.006944
	H400	H	0.092922	1.071139	0.993426
	H401	H	0.093252	1.074376	1.015738
	O402	O	0.879499	0.824634	-0.179883
	H403	H	0.886280	0.823020	-0.179754
	H404	H	0.873126	0.839007	-0.165337
	O405	O	0.570528	0.354795	0.405215
	H406	H	0.576862	0.357017	0.412654
	H407	H	0.554429	0.358994	0.409844
	O408	O	0.338115	0.565936	0.323219
	H409	H	0.336726	0.542165	0.315160
	H410	H	0.350182	0.569563	0.319413
	O411	O	1.179856	0.851250	0.852687
	H412	H	1.162195	0.849842	0.849765
	H413	H	1.181614	0.884995	0.844262
	O414	O	0.658024	0.590427	0.619160
	H415	H	0.658936	0.578795	0.626698
	H416	H	0.648051	0.603075	0.629962
	O417	O	-0.194405	0.853651	1.010482
	H418	H	-0.185130	0.857056	1.032340
	H419	H	-0.203075	0.856051	1.010360
	O420	O	0.474151	1.414583	0.534457
	H421	H	0.465627	1.395801	0.536159
	H422	H	0.460272	1.403871	0.509198
	O423	O	-0.039164	0.942929	0.037708
	H424	H	-0.048858	0.927459	0.053960
	H425	H	-0.035234	0.952654	0.028509
	O426	O	0.662292	0.472988	0.499851
	H427	H	0.654339	0.473028	0.501062
	H428	H	0.654517	0.471927	0.513241
	O429	O	0.671765	0.553285	0.512086
	H430	H	0.672061	0.560096	0.503601
	H431	H	0.668223	0.558454	0.528541
	O432	O	0.590536	0.353228	0.310966
	H433	H	0.597730	0.347182	0.296820
	H434	H	0.609714	0.373912	0.322452
	O435	O	-0.116699	0.052269	0.092873
	H436	H	-0.123624	0.047681	0.105711
	H437	H	-0.108183	0.067413	0.092282
	O438	O	-0.179453	1.001193	0.802197
	H439	H	-0.189558	1.001825	0.798690
	H440	H	-0.161707	0.996911	0.819465
	O441	O	0.364619	0.617458	0.505205
	H442	H	0.360836	0.608759	0.496409
	H443	H	0.348112	0.627225	0.500428
