data_Molecule from HDF5

_cell_length_a		16.548381
_cell_length_b		16.561930
_cell_length_c		16.668161
_cell_angle_alpha	90.103462
_cell_angle_beta	89.916041
_cell_angle_gamma	90.021084
_symmetry_space_group_name_H-M	'P 1'
_symmetry_Int_Tables_number		1

loop_
	_symmetry_equiv_pos_as_xyz
	x,y,z

loop_
	_atom_site_label
	_atom_site_type_symbol
	_atom_site_fract_x
	_atom_site_fract_y
	_atom_site_fract_z
	H0	H	0.368492	0.850969	0.710127
	H1	H	0.580145	0.162221	0.712529
	H2	H	0.579881	0.852493	0.266167
	H3	H	0.367032	0.163324	0.268458
	H4	H	0.695493	0.402849	0.835283
	H5	H	0.695743	0.614878	0.144752
	H6	H	0.253323	0.611107	0.833041
	H7	H	0.253246	0.404049	0.146267
	H8	H	0.817160	0.728630	0.385982
	H9	H	0.129757	0.728004	0.594777
	H10	H	0.817143	0.285760	0.595419
	H11	H	0.131069	0.287897	0.386626
	H12	H	0.818964	0.399393	0.713980
	H13	H	0.129205	0.614066	0.712386
	H14	H	0.817653	0.613819	0.268203
	H15	H	0.130944	0.403643	0.270531
	H16	H	0.370255	0.727184	0.833240
	H17	H	0.579099	0.730897	0.144425
	H18	H	0.579719	0.284535	0.835462
	H19	H	0.370252	0.287741	0.146699
	H20	H	0.698081	0.853151	0.380281
	H21	H	0.694780	0.163275	0.594834
	H22	H	0.253337	0.851051	0.593587
	H23	H	0.254116	0.165052	0.387457
	H24	H	0.867162	0.350936	0.210846
	H25	H	0.076929	0.664011	0.210463
	H26	H	0.078424	0.350050	0.769014
	H27	H	0.865222	0.660686	0.765118
	H28	H	0.195402	0.902827	0.335202
	H29	H	0.193105	0.112682	0.647015
	H30	H	0.752434	0.112278	0.334303
	H31	H	0.748515	0.900294	0.643716
	H32	H	0.316480	0.227869	0.886271
	H33	H	0.630546	0.227193	0.093189
	H34	H	0.317392	0.785822	0.094409
	H35	H	0.629629	0.786528	0.884287
	H36	H	0.318074	0.900264	0.212448
	H37	H	0.628553	0.114788	0.212356
	H38	H	0.316986	0.113684	0.767994
	H39	H	0.629430	0.902755	0.768208
	H40	H	0.868835	0.228366	0.334302
	H41	H	0.079549	0.231194	0.645251
	H42	H	0.079110	0.785262	0.335595
	H43	H	0.866644	0.784894	0.644744
	H44	H	0.192909	0.349402	0.887026
	H45	H	0.192385	0.664535	0.092614
	H46	H	0.752130	0.351335	0.094537
	H47	H	0.752291	0.663163	0.883825
	H48	H	0.380680	0.121559	0.580357
	H49	H	0.565567	0.895471	0.573503
	H50	H	0.552305	0.116293	0.400140
	H51	H	0.378825	0.894769	0.404177
	H52	H	0.557755	0.413923	0.101558
	H53	H	0.562170	0.592604	0.880924
	H54	H	0.381469	0.601591	0.103401
	H55	H	0.384371	0.413803	0.877007
	H56	H	0.085417	0.594516	0.399642
	H57	H	0.860264	0.597307	0.581169
	H58	H	0.084541	0.416879	0.574491
	H59	H	0.861993	0.420088	0.400680
	H60	H	0.084344	0.424465	0.578952
	H61	H	0.862988	0.595274	0.574449
	H62	H	0.086878	0.597823	0.398221
	H63	H	0.859879	0.416541	0.397080
	H64	H	0.379894	0.592788	0.100216
	H65	H	0.559829	0.597323	0.879117
	H66	H	0.567278	0.417872	0.104190
	H67	H	0.380740	0.417429	0.878148
	H68	H	0.565008	0.116750	0.410389
	H69	H	0.560485	0.893179	0.583177
	H70	H	0.385382	0.121026	0.583502
	H71	H	0.385865	0.893705	0.393423
	H72	H	0.885024	0.617801	0.073582
	H73	H	0.063746	0.393668	0.083545
	H74	H	0.063820	0.620828	0.894611
	H75	H	0.885590	0.396042	0.902300
	H76	H	0.066223	0.914175	0.603924
	H77	H	0.062201	0.099377	0.378896
	H78	H	0.891811	0.101798	0.600534
	H79	H	0.887604	0.921065	0.380541
	H80	H	0.587446	0.103400	0.901957
	H81	H	0.358311	0.104356	0.079289
	H82	H	0.584199	0.920732	0.076557
	H83	H	0.362454	0.920585	0.899940
	H84	H	0.584848	0.920860	0.078015
	H85	H	0.364923	0.092588	0.073268
	H86	H	0.581089	0.090301	0.906261
	H87	H	0.359879	0.917840	0.898096
	H88	H	0.877562	0.098740	0.604012
	H89	H	0.066988	0.097814	0.377628
	H90	H	0.065624	0.922435	0.601612
	H91	H	0.887983	0.917240	0.379922
	H92	H	0.057129	0.617079	0.901694
	H93	H	0.061894	0.394573	0.080076
	H94	H	0.880030	0.622556	0.083031
	H95	H	0.887158	0.396612	0.901903
	H96	H	0.385442	0.118918	0.577561
	H97	H	0.554842	0.897901	0.575310
	H98	H	0.566376	0.122759	0.395384
	H99	H	0.391209	0.899115	0.403950
	H100	H	0.560862	0.424022	0.098689
	H101	H	0.564912	0.596115	0.877523
	H102	H	0.388346	0.596745	0.099021
	H103	H	0.386079	0.418160	0.878703
	H104	H	0.085684	0.597223	0.401757
	H105	H	0.863093	0.589899	0.579797
	H106	H	0.087336	0.417325	0.582405
	H107	H	0.860804	0.414952	0.402248
	H108	H	0.891415	0.618719	0.083534
	H109	H	0.065879	0.393948	0.079659
	H110	H	0.067112	0.618848	0.904339
	H111	H	0.887069	0.396404	0.903292
	H112	H	0.058775	0.917386	0.601623
	H113	H	0.063633	0.094566	0.379519
	H114	H	0.886013	0.087772	0.598293
	H115	H	0.884755	0.919190	0.378952
	H116	H	0.586479	0.091532	0.892066
	H117	H	0.359741	0.091870	0.087411
	H118	H	0.585154	0.919680	0.077051
	H119	H	0.361096	0.917010	0.902005
	C120	C	0.351954	0.016887	0.611887
	C121	C	0.593885	0.998416	0.610192
	C122	C	0.594892	0.016121	0.368065
	C123	C	0.352584	0.999371	0.368815
	C124	C	0.594910	0.386043	-0.001039
	C125	C	0.595194	0.628946	0.981502
	C126	C	0.351943	0.628576	-0.002297
	C127	C	0.352193	0.385524	0.981481
	C128	C	-0.017790	0.628824	0.368568
	C129	C	0.964845	0.627692	0.611359
	C130	C	-0.017846	0.386657	0.610778
	C131	C	0.964685	0.385719	0.368558
	C132	C	0.852570	0.516225	0.111620
	C133	C	0.095093	0.498286	0.111833
	C134	C	0.095099	0.515260	0.868407
	C135	C	0.853187	0.498836	0.869200
	C136	C	0.095550	0.885830	0.499278
	C137	C	0.095490	0.129497	0.482039
	C138	C	0.852519	0.128530	0.498313
	C139	C	0.852519	0.885939	0.481736
	C140	C	0.481764	0.128344	0.868214
	C141	C	0.464652	0.128714	0.111422
	C142	C	0.481618	0.887055	0.110079
	C143	C	0.464703	0.886288	0.868202
	C144	C	0.349962	0.898330	0.670649
	C145	C	0.597565	0.115682	0.671504
	C146	C	0.598285	0.899239	0.306499
	C147	C	0.349575	0.116770	0.309133
	C148	C	0.655270	0.383949	0.881908
	C149	C	0.655555	0.632647	0.098196
	C150	C	0.292962	0.629956	0.880060
	C151	C	0.293122	0.385032	0.099420
	C152	C	0.864418	0.688945	0.366867
	C153	C	0.082683	0.688110	0.613279
	C154	C	0.864256	0.325895	0.613583
	C155	C	0.083571	0.327169	0.367538
	C156	C	0.865034	0.382577	0.672373
	C157	C	0.082334	0.631409	0.671862
	C158	C	0.864397	0.631540	0.308638
	C159	C	0.083340	0.384684	0.309709
	C160	C	0.351012	0.687750	0.880126
	C161	C	0.597500	0.690319	0.097812
	C162	C	0.597845	0.325364	0.881896
	C163	C	0.350932	0.326990	0.099616
	C164	C	0.656854	0.899576	0.363366
	C165	C	0.654410	0.116216	0.612890
	C166	C	0.292689	0.898316	0.612849
	C167	C	0.293237	0.117502	0.368116
	C168	C	0.849190	0.398304	0.171220
	C169	C	0.096065	0.616915	0.170511
	C170	C	0.096883	0.397192	0.808972
	C171	C	0.848503	0.614974	0.806842
	C172	C	0.155526	0.883839	0.381990
	C173	C	0.154140	0.131201	0.599586
	C174	C	0.792597	0.130603	0.381111
	C175	C	0.789851	0.882379	0.597560
	C176	C	0.363816	0.188301	0.866875
	C177	C	0.582922	0.188213	0.112629
	C178	C	0.364384	0.825904	0.112961
	C179	C	0.582701	0.826521	0.865835
	C180	C	0.364535	0.883093	0.171375
	C181	C	0.581989	0.132228	0.171800
	C182	C	0.363977	0.131264	0.808347
	C183	C	0.582499	0.883923	0.807932
	C184	C	0.850224	0.188532	0.381082
	C185	C	0.097433	0.190194	0.598734
	C186	C	0.097763	0.825666	0.382197
	C187	C	0.848339	0.824995	0.598143
	C188	C	0.153881	0.396800	0.867586
	C189	C	0.153535	0.617019	0.112346
	C190	C	0.792000	0.398503	0.113218
	C191	C	0.792232	0.615935	0.865748
	C192	C	0.376713	0.099050	0.587470
	C193	C	0.567840	0.916829	0.584619
	C194	C	0.568506	0.097320	0.394410
	C195	C	0.378044	0.917255	0.393448
	C196	C	0.569390	0.411420	0.080186
	C197	C	0.569691	0.602598	0.900387
	C198	C	0.376268	0.603983	0.079607
	C199	C	0.376721	0.409654	0.899363
	C200	C	0.064559	0.603688	0.392828
	C201	C	0.883143	0.601430	0.585835
	C202	C	0.063968	0.412199	0.585633
	C203	C	0.882109	0.410143	0.393021
	C204	C	0.878222	0.598291	0.087156
	C205	C	0.070973	0.415449	0.087834
	C206	C	0.069925	0.597601	0.893078
	C207	C	0.879221	0.417466	0.895120
	C208	C	0.070785	0.910748	0.580951
	C209	C	0.071156	0.104514	0.400074
	C210	C	0.877879	0.103305	0.579649
	C211	C	0.879208	0.911774	0.400949
	C212	C	0.563650	0.102466	0.893105
	C213	C	0.382383	0.103534	0.086835
	C214	C	0.563431	0.913039	0.084595
	C215	C	0.382435	0.911428	0.893095
	Zn216	Zn	0.473250	0.006941	0.739654
	Zn217	Zn	0.473489	0.007658	0.239533
	Zn218	Zn	0.724637	0.507926	-0.009924
	Zn219	Zn	0.223560	0.507354	-0.010195
	Zn220	Zn	-0.026261	0.756434	0.490838
	Zn221	Zn	-0.026411	0.257507	0.490226
	Zn222	Zn	-0.026527	0.506886	0.740017
	Zn223	Zn	-0.026651	0.507339	0.240351
	Zn224	Zn	0.473710	0.757967	-0.010782
	Zn225	Zn	0.473552	0.256848	-0.009645
	Zn226	Zn	0.723324	0.007489	0.489574
	Zn227	Zn	0.224203	0.007841	0.490627
	N228	N	0.385909	0.973076	0.670278
	N229	N	0.560663	0.041490	0.669945
	N230	N	0.560334	0.972866	0.309213
	N231	N	0.385524	0.042089	0.309178
	N232	N	0.653586	0.420934	0.955628
	N233	N	0.654325	0.595092	0.024755
	N234	N	0.293149	0.594159	0.954271
	N235	N	0.293346	0.420401	0.024858
	N236	N	0.938684	0.687375	0.403430
	N237	N	0.008623	0.685898	0.576414
	N238	N	0.937966	0.328356	0.575806
	N239	N	0.008744	0.327488	0.403309
	N240	N	0.939218	0.419552	0.670790
	N241	N	0.008046	0.594466	0.670932
	N242	N	0.938813	0.594792	0.309557
	N243	N	0.008328	0.420301	0.309973
	N244	N	0.386795	0.687192	0.954359
	N245	N	0.560735	0.688168	0.024189
	N246	N	0.560978	0.326444	0.955730
	N247	N	0.386635	0.326923	0.025164
	N248	N	0.654756	0.973180	0.401053
	N249	N	0.652524	0.042240	0.575481
	N250	N	0.293382	0.972992	0.577161
	N251	N	0.294854	0.043339	0.404690
	N252	N	0.886019	0.472584	0.170670
	N253	N	0.060719	0.541872	0.170622
	N254	N	0.061264	0.472090	0.809096
	N255	N	0.885704	0.541068	0.808853
	N256	N	0.154484	0.920447	0.455839
	N257	N	0.153290	0.094241	0.525718
	N258	N	0.793799	0.094044	0.455017
	N259	N	0.792028	0.919233	0.523967
	N260	N	0.438150	0.186904	0.903363
	N261	N	0.508767	0.186379	0.075918
	N262	N	0.438330	0.828213	0.075584
	N263	N	0.508382	0.827882	0.902451
	N264	N	0.438632	0.920340	0.169849
	N265	N	0.507296	0.095996	0.171277
	N266	N	0.438483	0.094749	0.808855
	N267	N	0.508080	0.920382	0.809177
	N268	N	0.886628	0.187624	0.455097
	N269	N	0.061898	0.189409	0.524491
	N270	N	0.061391	0.826620	0.456263
	N271	N	0.886839	0.827110	0.525140
	N272	N	0.152873	0.471284	0.903891
	N273	N	0.153278	0.542068	0.076829
	N274	N	0.793633	0.472969	0.077206
	N275	N	0.794851	0.542496	0.903749
	O276	O	-0.091892	1.195627	0.004968
	H277	H	-0.104288	1.188140	0.006088
	H278	H	-0.079332	1.195310	0.016081
	O279	O	0.673279	0.311502	0.294806
	H280	H	0.673078	0.301237	0.291033
	H281	H	0.660225	0.331351	0.293831
	O282	O	0.758295	0.223639	0.952840
	H283	H	0.759025	0.201272	0.973476
	H284	H	0.731937	0.240730	0.963860
	O285	O	0.439109	0.460003	0.549884
	H286	H	0.452266	0.463836	0.553840
	H287	H	0.448180	0.452332	0.561052
	O288	O	0.363536	0.316975	0.382050
	H289	H	0.364903	0.322143	0.402503
	H290	H	0.371790	0.322831	0.392257
	O291	O	0.682179	0.651849	0.692449
	H292	H	0.668116	0.646751	0.690940
	H293	H	0.682366	0.640035	0.679837
	O294	O	0.851136	-0.193836	1.189323
	H295	H	0.870042	-0.192872	1.179917
	H296	H	0.839815	-0.219563	1.196506
	O297	O	0.001225	0.813651	0.797589
	H298	H	0.017399	0.808648	0.805349
	H299	H	0.010167	0.792953	0.779787
	O300	O	-0.197025	-0.149632	0.959726
	H301	H	-0.201034	-0.142728	0.981176
	H302	H	-0.207329	-0.170178	0.972783
	O303	O	1.026498	-0.035169	-0.154148
	H304	H	1.024895	-0.022824	-0.150490
	H305	H	1.011435	-0.038884	-0.162913
	O306	O	0.936243	0.920759	0.757765
	H307	H	0.933472	0.913278	0.768405
	H308	H	0.931338	0.895810	0.749296
	O309	O	0.619022	0.304478	0.631196
	H310	H	0.630127	0.296281	0.634898
	H311	H	0.622964	0.317218	0.622569
	O312	O	0.700776	0.544520	0.446553
	H313	H	0.706343	0.561343	0.439332
	H314	H	0.695278	0.545958	0.432606
	O315	O	1.265488	0.716288	1.279245
	H316	H	1.233354	0.748423	1.246267
	H317	H	1.277889	0.699002	1.289166
	O318	O	0.073499	0.207699	0.790065
	H319	H	0.073010	0.206526	0.790431
	H320	H	0.046444	0.216214	0.792165
	O321	O	0.204171	0.297832	0.225103
	H322	H	0.219463	0.301993	0.232911
	H323	H	0.204756	0.307387	0.236431
	O324	O	0.885125	0.858615	-0.029561
	H325	H	0.861788	0.847893	-0.021888
	H326	H	0.893073	0.853761	-0.029980
	O327	O	-0.069012	0.021050	1.135114
	H328	H	-0.058297	0.033242	1.145690
	H329	H	-0.055709	0.027734	1.119307
	O330	O	0.758431	0.793466	1.097580
	H331	H	0.759269	0.792131	1.114462
	H332	H	0.748574	0.803489	1.104430
	O333	O	0.178073	0.083497	0.202278
	H334	H	0.197459	0.094798	0.190547
	H335	H	0.180397	0.086629	0.209731
	O336	O	0.910128	-0.000372	-0.056353
	H337	H	0.909264	0.004744	-0.060269
	H338	H	0.918269	-0.005500	-0.042938
	O339	O	1.255206	-0.302675	0.663366
	H340	H	1.266514	-0.314036	0.645488
	H341	H	1.264263	-0.287139	0.662154
	O342	O	0.500783	0.667390	-0.346016
	H343	H	0.524198	0.663958	-0.347881
	H344	H	0.509238	0.677570	-0.325376
	O345	O	0.159935	0.988484	1.100223
	H346	H	0.161779	0.991058	1.103143
	H347	H	0.165291	0.984372	1.089223
	O348	O	0.657313	0.691841	0.308280
	H349	H	0.644309	0.686703	0.306679
	H350	H	0.643901	0.690628	0.322833
	O351	O	0.999041	1.215334	-0.175513
	H352	H	0.978767	1.207656	-0.170619
	H353	H	0.996550	1.226650	-0.187159
	O354	O	-0.112338	0.144641	1.151677
	H355	H	-0.107461	0.134167	1.154510
	H356	H	-0.112402	0.148368	1.153847
	O357	O	0.388703	0.643823	0.499281
	H358	H	0.390291	0.620645	0.497342
	H359	H	0.393625	0.633484	0.495714
	O360	O	0.952481	-0.002466	0.952327
	H361	H	0.948033	0.003391	0.957967
	H362	H	0.959935	-0.000813	0.940958
	O363	O	-0.524892	-0.580245	-0.480831
	H364	H	-0.518465	-0.570847	-0.479216
	H365	H	-0.523292	-0.591276	-0.488562
	O366	O	0.402752	0.431321	0.506345
	H367	H	0.408647	0.428125	0.505156
	H368	H	0.402311	0.444828	0.512263
	O369	O	1.006463	0.230011	0.216758
	H370	H	1.017358	0.251985	0.242844
	H371	H	1.045366	0.229576	0.219539
	O372	O	1.562699	1.529569	0.314636
	H373	H	1.558739	1.529280	0.309874
	H374	H	1.563148	1.517397	0.309931
	O375	O	1.192969	0.172469	-0.003294
	H376	H	1.190063	0.174559	-0.007997
	H377	H	1.204304	0.170631	-0.019309
	O378	O	-0.045617	-0.072502	1.213826
	H379	H	-0.036869	-0.081279	1.220730
	H380	H	-0.034173	-0.046648	1.223017
	O381	O	0.161279	0.817735	1.182206
	H382	H	0.142330	0.839839	1.169855
	H383	H	0.145083	0.833522	1.157091
	O384	O	0.830650	-0.134281	0.886694
	H385	H	0.833479	-0.151592	0.885719
	H386	H	0.828341	-0.110259	0.898805
	O387	O	1.251839	0.543260	0.268204
	H388	H	1.255547	0.554267	0.272766
	H389	H	1.228386	0.549619	0.243487
	O390	O	0.680109	0.464253	0.270468
	H391	H	0.676918	0.467909	0.261353
	H392	H	0.686533	0.455832	0.255931
	O393	O	0.465374	0.617099	0.516178
	H394	H	0.460879	0.615951	0.521991
	H395	H	0.461308	0.620440	0.516207
	O396	O	-0.165518	1.011777	0.785389
	H397	H	-0.170397	0.994686	0.799330
	H398	H	-0.168132	1.004710	0.768731
	O399	O	-0.746246	0.723037	0.455720
	H400	H	-0.749774	0.724214	0.426868
	H401	H	-0.760492	0.743367	0.456759
	O402	O	0.281770	0.307986	0.690592
	H403	H	0.305213	0.317264	0.684621
	H404	H	0.274618	0.306391	0.681887
	O405	O	0.754487	-0.016636	1.202453
	H406	H	0.759581	-0.021288	1.207726
	H407	H	0.745663	-0.020994	1.220517
	O408	O	-0.025828	-0.111195	0.139624
	H409	H	-0.005293	-0.106232	0.135293
	H410	H	-0.023574	-0.128112	0.144265
	O411	O	1.102197	1.068206	0.839583
	H412	H	1.096510	1.068502	0.810207
	H413	H	1.076033	1.084332	0.843754
	O414	O	1.173686	-0.002684	0.002260
	H415	H	1.164316	-0.005951	-0.019713
	H416	H	1.177156	-0.008805	-0.001624
	O417	O	0.689387	0.292919	0.459660
	H418	H	0.692437	0.309881	0.440517
	H419	H	0.707051	0.264689	0.464953
	O420	O	0.538797	0.733205	0.443143
	H421	H	0.534576	0.722983	0.430903
	H422	H	0.521649	0.739012	0.457183
	O423	O	0.442949	-0.281259	1.275185
	H424	H	0.434398	-0.288849	1.278731
	H425	H	0.433089	-0.268607	1.262196
	O426	O	0.364705	0.621074	0.592547
	H427	H	0.380541	0.623844	0.585462
	H428	H	0.371272	0.607204	0.582122
	O429	O	0.788577	1.066161	1.087147
	H430	H	0.809839	1.064666	1.076159
	H431	H	0.790843	1.049054	1.085837
	O432	O	0.349020	0.415061	0.618099
	H433	H	0.339522	0.426161	0.603314
	H434	H	0.340148	0.413994	0.612966
	O435	O	0.491295	0.298790	0.288403
	H436	H	0.492266	0.305467	0.309659
	H437	H	0.489778	0.272249	0.272347
	O438	O	0.073225	0.116351	-0.142242
	H439	H	0.053441	0.115781	-0.146778
	H440	H	0.075499	0.111948	-0.155291
	O441	O	0.250456	0.483601	0.477591
	H442	H	0.253767	0.506942	0.475944
	H443	H	0.255633	0.497068	0.466949
	O444	O	0.415999	0.509209	0.441940
	H445	H	0.412006	0.482813	0.444217
	H446	H	0.429813	0.507418	0.445696
	O447	O	-0.161412	1.017572	0.946517
	H448	H	-0.156243	1.020258	0.972663
	H449	H	-0.155794	1.020194	0.940743
	O450	O	0.007936	0.853748	1.022334
	H451	H	0.004272	0.848132	1.010046
	H452	H	0.016553	0.859493	1.016802
	O453	O	0.243970	0.277780	0.385500
	H454	H	0.255274	0.292610	0.415761
	H455	H	0.248310	0.271360	0.376629
	O456	O	0.052664	0.118995	1.062195
	H457	H	0.049544	0.119939	1.033951
	H458	H	0.064077	0.141750	1.071326
	O459	O	1.192839	0.788412	-0.044000
	H460	H	1.210399	0.773061	-0.070834
	H461	H	1.200515	0.785822	-0.063369
	O462	O	1.537826	0.614365	0.711604
	H463	H	1.536575	0.622010	0.725593
	H464	H	1.545394	0.598643	0.704313
	O465	O	1.177590	-0.125998	-0.212520
	H466	H	1.172599	-0.118828	-0.219570
	H467	H	1.187914	-0.102452	-0.226776
	O468	O	0.564128	0.471858	0.621980
	H469	H	0.576344	0.475959	0.624775
	H470	H	0.570941	0.473969	0.613547
	O471	O	0.456734	0.500423	0.268232
	H472	H	0.437755	0.496599	0.272799
	H473	H	0.445217	0.515662	0.265499
	O474	O	0.689373	0.724963	0.515188
	H475	H	0.672814	0.729086	0.508773
	H476	H	0.707217	0.742196	0.518745
	O477	O	0.683680	0.443557	1.569769
	H478	H	0.692447	0.434096	1.556110
	H479	H	0.683012	0.458642	1.558174
	O480	O	0.452120	0.301097	0.700127
	H481	H	0.456480	0.298037	0.696080
	H482	H	0.454331	0.293152	0.714385
	O483	O	0.616942	0.510554	0.705406
	H484	H	0.618105	0.506665	0.708309
	H485	H	0.624233	0.498813	0.697199
	O486	O	0.250592	0.472092	0.709280
	H487	H	0.262274	0.463259	0.707091
	H488	H	0.226612	0.467981	0.732455
	O489	O	0.767998	1.212355	-0.220064
	H490	H	0.766581	1.182142	-0.204626
	H491	H	0.758952	1.226880	-0.198223
