data_Molecule from HDF5

_cell_length_a		16.309173
_cell_length_b		16.408677
_cell_length_c		16.221314
_cell_angle_alpha	89.702961
_cell_angle_beta	90.372634
_cell_angle_gamma	89.456074
_symmetry_space_group_name_H-M	'P 1'
_symmetry_Int_Tables_number		1

loop_
	_symmetry_equiv_pos_as_xyz
	x,y,z

loop_
	_atom_site_label
	_atom_site_type_symbol
	_atom_site_fract_x
	_atom_site_fract_y
	_atom_site_fract_z
	H0	H	0.387643	0.836777	0.704928
	H1	H	0.585771	0.159044	0.700935
	H2	H	0.591920	0.835679	0.270157
	H3	H	0.386266	0.158547	0.269194
	H4	H	0.703199	0.395695	0.823425
	H5	H	0.704212	0.595338	0.148390
	H6	H	0.269922	0.596538	0.822880
	H7	H	0.274875	0.396588	0.150933
	H8	H	0.827183	0.718034	0.381348
	H9	H	0.149326	0.711065	0.591699
	H10	H	0.824895	0.280820	0.587671
	H11	H	0.148711	0.276801	0.385817
	H12	H	0.823500	0.397581	0.701129
	H13	H	0.148367	0.593315	0.705761
	H14	H	0.825256	0.598457	0.268659
	H15	H	0.150257	0.396054	0.273723
	H16	H	0.380886	0.717010	0.824616
	H17	H	0.591423	0.713650	0.147545
	H18	H	0.587240	0.280133	0.822332
	H19	H	0.388409	0.278249	0.148807
	H20	H	0.708701	0.836531	0.385193
	H21	H	0.703378	0.158390	0.586434
	H22	H	0.272445	0.836223	0.590561
	H23	H	0.267109	0.156858	0.382384
	H24	H	0.887174	0.334536	0.205677
	H25	H	0.087749	0.656479	0.202895
	H26	H	0.086844	0.333302	0.772985
	H27	H	0.880308	0.656091	0.766143
	H28	H	0.205390	0.893992	0.324376
	H29	H	0.204249	0.094319	0.650122
	H30	H	0.767126	0.102669	0.324577
	H31	H	0.772879	0.895842	0.649307
	H32	H	0.326168	0.217591	0.880437
	H33	H	0.649562	0.210665	0.087985
	H34	H	0.326560	0.778285	0.092128
	H35	H	0.646642	0.774761	0.882337
	H36	H	0.326558	0.896757	0.203838
	H37	H	0.648707	0.097342	0.204355
	H38	H	0.325958	0.100488	0.766319
	H39	H	0.650201	0.895648	0.771755
	H40	H	0.882533	0.217881	0.325077
	H41	H	0.089852	0.212126	0.649624
	H42	H	0.093720	0.775233	0.326088
	H43	H	0.886281	0.778419	0.648386
	H44	H	0.205295	0.334441	0.886989
	H45	H	0.204388	0.656253	0.089266
	H46	H	0.770383	0.334987	0.090169
	H47	H	0.762430	0.655327	0.880140
	H48	H	0.398646	0.110374	0.574647
	H49	H	0.579394	0.883580	0.577102
	H50	H	0.581174	0.111308	0.398361
	H51	H	0.388117	0.879741	0.396734
	H52	H	0.586637	0.404324	0.104104
	H53	H	0.563417	0.589905	0.872774
	H54	H	0.400317	0.590343	0.102027
	H55	H	0.394884	0.412934	0.872734
	H56	H	0.105927	0.587568	0.389278
	H57	H	0.874738	0.586013	0.567565
	H58	H	0.101010	0.410945	0.582703
	H59	H	0.870814	0.400155	0.399910
	H60	H	0.105604	0.396043	0.585458
	H61	H	0.871085	0.584524	0.581638
	H62	H	0.102574	0.591855	0.401733
	H63	H	0.874322	0.411864	0.399278
	H64	H	0.392141	0.590477	0.104308
	H65	H	0.580907	0.592260	0.866663
	H66	H	0.572981	0.406363	0.098608
	H67	H	0.402348	0.401865	0.871426
	H68	H	0.578197	0.112831	0.390863
	H69	H	0.585004	0.881258	0.577043
	H70	H	0.393716	0.111093	0.572047
	H71	H	0.400870	0.880266	0.386498
	H72	H	0.891422	0.610317	0.075872
	H73	H	0.079694	0.381195	0.076299
	H74	H	0.073490	0.608749	0.896694
	H75	H	0.897805	0.385848	0.905135
	H76	H	0.069663	0.906974	0.598164
	H77	H	0.077763	0.095744	0.368336
	H78	H	0.897284	0.092056	0.604116
	H79	H	0.899567	0.903383	0.370142
	H80	H	0.602603	0.091168	0.897648
	H81	H	0.375415	0.076776	0.075980
	H82	H	0.601193	0.905454	0.072778
	H83	H	0.373865	0.908486	0.901018
	H84	H	0.603226	0.904933	0.080554
	H85	H	0.367749	0.094104	0.083478
	H86	H	0.602485	0.084070	0.894379
	H87	H	0.372455	0.913080	0.890838
	H88	H	0.892903	0.086386	0.602563
	H89	H	0.083010	0.081223	0.371833
	H90	H	0.081959	0.892476	0.606600
	H91	H	0.896057	0.910950	0.371132
	H92	H	0.079421	0.610141	0.898542
	H93	H	0.085110	0.379588	0.079919
	H94	H	0.898396	0.609445	0.078295
	H95	H	0.886684	0.378174	0.894796
	H96	H	0.394151	0.112761	0.577653
	H97	H	0.582411	0.880543	0.581847
	H98	H	0.572981	0.109344	0.395673
	H99	H	0.402912	0.884993	0.401397
	H100	H	0.577177	0.393642	0.104008
	H101	H	0.575929	0.575626	0.873628
	H102	H	0.395920	0.583530	0.100949
	H103	H	0.389673	0.402241	0.867409
	H104	H	0.100526	0.578722	0.398488
	H105	H	0.869265	0.596683	0.575114
	H106	H	0.100743	0.400470	0.570148
	H107	H	0.870347	0.406639	0.389308
	H108	H	0.896330	0.607387	0.071903
	H109	H	0.079415	0.380094	0.083019
	H110	H	0.077834	0.610644	0.893018
	H111	H	0.902501	0.382147	0.889234
	H112	H	0.089029	0.911298	0.603284
	H113	H	0.068207	0.084917	0.374778
	H114	H	0.900096	0.085974	0.600433
	H115	H	0.904119	0.909687	0.373554
	H116	H	0.604783	0.090310	0.889870
	H117	H	0.374238	0.093824	0.064446
	H118	H	0.603380	0.899291	0.075692
	H119	H	0.370470	0.902641	0.893752
	C120	C	0.366613	0.005312	0.606591
	C121	C	0.610372	0.988488	0.608044
	C122	C	0.609467	0.005117	0.364911
	C123	C	0.365827	0.988200	0.364036
	C124	C	0.608902	0.372784	-0.005370
	C125	C	0.605726	0.615704	0.977715
	C126	C	0.364163	0.619147	-0.004896
	C127	C	0.366779	0.375160	0.978123
	C128	C	-0.003722	0.618141	0.364702
	C129	C	0.978503	0.617529	0.607725
	C130	C	-0.004902	0.374117	0.608674
	C131	C	0.978905	0.375431	0.366579
	C132	C	0.865826	0.503388	0.107403
	C133	C	0.110385	0.486697	0.109352
	C134	C	0.107863	0.503607	0.865751
	C135	C	0.863346	0.487574	0.864183
	C136	C	0.111143	0.873059	0.495711
	C137	C	0.108064	0.117153	0.478556
	C138	C	0.865496	0.119596	0.495259
	C139	C	0.868915	0.876855	0.478505
	C140	C	0.496257	0.119305	0.863084
	C141	C	0.479379	0.117133	0.105964
	C142	C	0.496105	0.874389	0.107775
	C143	C	0.478884	0.876478	0.865269
	C144	C	0.368107	0.884647	0.665580
	C145	C	0.607077	0.110478	0.663345
	C146	C	0.610672	0.884047	0.308363
	C147	C	0.365980	0.109669	0.306866
	C148	C	0.665517	0.375018	0.872176
	C149	C	0.664971	0.615013	0.099817
	C150	C	0.307117	0.617652	0.872275
	C151	C	0.312357	0.376570	0.101652
	C152	C	0.875211	0.677619	0.363359
	C153	C	0.100349	0.673017	0.609993
	C154	C	0.873253	0.318728	0.607494
	C155	C	0.100580	0.316646	0.367058
	C156	C	0.872565	0.376807	0.664016
	C157	C	0.099913	0.614657	0.667029
	C158	C	0.874218	0.618333	0.307095
	C159	C	0.101425	0.375831	0.311252
	C160	C	0.362928	0.677242	0.873034
	C161	C	0.608654	0.673642	0.099489
	C162	C	0.607876	0.317439	0.871567
	C163	C	0.368942	0.317778	0.100720
	C164	C	0.669156	0.884440	0.365408
	C165	C	0.665378	0.110032	0.606326
	C166	C	0.310861	0.884255	0.608460
	C167	C	0.306920	0.108987	0.363438
	C168	C	0.867030	0.382763	0.166649
	C169	C	0.108334	0.607947	0.165638
	C170	C	0.106981	0.382031	0.810258
	C171	C	0.861501	0.607948	0.805256
	C172	C	0.167810	0.873910	0.373560
	C173	C	0.166154	0.115195	0.601022
	C174	C	0.806575	0.121045	0.373212
	C175	C	0.811655	0.876722	0.600570
	C176	C	0.374496	0.177953	0.862134
	C177	C	0.601025	0.173007	0.107048
	C178	C	0.375002	0.817180	0.109822
	C179	C	0.599303	0.815887	0.864379
	C180	C	0.375046	0.876044	0.165853
	C181	C	0.600679	0.116458	0.164770
	C182	C	0.374261	0.119799	0.805301
	C183	C	0.601074	0.876059	0.809261
	C184	C	0.863836	0.178466	0.373544
	C185	C	0.108865	0.173492	0.601091
	C186	C	0.112287	0.814744	0.374285
	C187	C	0.867941	0.817785	0.600072
	C188	C	0.165950	0.382471	0.867043
	C189	C	0.166351	0.607862	0.108867
	C190	C	0.809041	0.382765	0.108789
	C191	C	0.802875	0.607551	0.861991
	C192	C	0.389065	0.089471	0.581893
	C193	C	0.588460	0.903768	0.585407
	C194	C	0.584557	0.089317	0.388242
	C195	C	0.390084	0.903605	0.388033
	C196	C	0.585874	0.394960	0.080020
	C197	C	0.580732	0.592608	0.893128
	C198	C	0.388830	0.595121	0.080402
	C199	C	0.389056	0.398771	0.892714
	C200	C	0.080952	0.593303	0.389344
	C201	C	0.893747	0.595502	0.582332
	C202	C	0.080186	0.396025	0.586102
	C203	C	0.893890	0.399147	0.389433
	C204	C	0.888837	0.587251	0.082561
	C205	C	0.087980	0.402232	0.086332
	C206	C	0.083762	0.588091	0.889091
	C207	C	0.888429	0.403783	0.889313
	C208	C	0.087149	0.896667	0.580697
	C209	C	0.083446	0.094156	0.393691
	C210	C	0.889730	0.095315	0.580274
	C211	C	0.892909	0.901103	0.393842
	C212	C	0.581266	0.095384	0.886936
	C213	C	0.394500	0.094686	0.081561
	C214	C	0.580786	0.896832	0.083416
	C215	C	0.394190	0.901081	0.888580
	Zn216	Zn	0.487431	-0.002939	0.735485
	Zn217	Zn	0.488216	-0.003381	0.235096
	Zn218	Zn	0.735525	0.495768	-0.013486
	Zn219	Zn	0.237514	0.495663	-0.012898
	Zn220	Zn	-0.011392	0.746704	0.486520
	Zn221	Zn	-0.012844	0.246250	0.487267
	Zn222	Zn	-0.014081	0.495214	0.736276
	Zn223	Zn	-0.012192	0.495621	0.236756
	Zn224	Zn	0.486452	0.746412	-0.013562
	Zn225	Zn	0.487570	0.245363	-0.013979
	Zn226	Zn	0.739077	-0.002924	0.486453
	Zn227	Zn	0.237229	-0.004269	0.486418
	N228	N	0.402161	0.961041	0.664688
	N229	N	0.573779	0.033907	0.664849
	N230	N	0.574369	0.960098	0.308027
	N231	N	0.401822	0.033377	0.306957
	N232	N	0.666269	0.408652	0.949714
	N233	N	0.663100	0.579394	0.023218
	N234	N	0.307734	0.582350	0.949285
	N235	N	0.310763	0.411411	0.024290
	N236	N	0.952461	0.677925	0.398061
	N237	N	0.023711	0.675092	0.573967
	N238	N	0.950595	0.316663	0.574088
	N239	N	0.023418	0.316285	0.400652
	N240	N	0.949367	0.410450	0.664826
	N241	N	0.023104	0.580959	0.665719
	N242	N	0.950751	0.582547	0.307451
	N243	N	0.024826	0.411710	0.310752
	N244	N	0.397423	0.678402	0.950640
	N245	N	0.572223	0.674085	0.022867
	N246	N	0.573560	0.315837	0.948625
	N247	N	0.401916	0.316706	0.022965
	N248	N	0.668679	0.960818	0.399679
	N249	N	0.667616	0.033207	0.572883
	N250	N	0.309850	0.960269	0.572419
	N251	N	0.306740	0.032376	0.398265
	N252	N	0.901771	0.458850	0.165853
	N253	N	0.073956	0.531725	0.166032
	N254	N	0.071619	0.458567	0.809396
	N255	N	0.898487	0.532328	0.806391
	N256	N	0.167370	0.909200	0.450260
	N257	N	0.165751	0.080820	0.523735
	N258	N	0.807432	0.084952	0.449827
	N259	N	0.812066	0.912792	0.523954
	N260	N	0.451389	0.177589	0.897341
	N261	N	0.524644	0.173344	0.070936
	N262	N	0.451472	0.815953	0.074353
	N263	N	0.522221	0.815837	0.898073
	N264	N	0.451335	0.910684	0.164832
	N265	N	0.524072	0.082144	0.164082
	N266	N	0.451027	0.084174	0.805401
	N267	N	0.525057	0.913227	0.809675
	N268	N	0.899813	0.177687	0.450353
	N269	N	0.073479	0.174886	0.524064
	N270	N	0.077891	0.813941	0.451392
	N271	N	0.902896	0.817835	0.523221
	N272	N	0.166613	0.459176	0.900840
	N273	N	0.167942	0.531368	0.074824
	N274	N	0.808268	0.458634	0.072648
	N275	N	0.804081	0.531749	0.898090
	O276	O	0.060399	-0.096828	0.080747
	H277	H	0.071940	-0.098449	0.066902
	H278	H	0.067826	-0.099074	0.066797
	O279	O	-0.158748	1.021325	0.082698
	H280	H	-0.180350	1.012798	0.093504
	H281	H	-0.145812	1.019378	0.087207
	O282	O	0.877152	-0.066655	-0.132574
	H283	H	0.863036	-0.071082	-0.128139
	H284	H	0.891569	-0.069343	-0.126576
	O285	O	-0.201614	0.940891	0.011239
	H286	H	-0.199796	0.941037	0.028698
	H287	H	-0.220006	0.950954	0.016319
	O288	O	0.576569	0.508460	0.574814
	H289	H	0.577262	0.513141	0.579599
	H290	H	0.577734	0.506312	0.573727
	O291	O	0.926724	-0.177473	1.150799
	H292	H	0.933237	-0.179102	1.164720
	H293	H	0.932733	-0.176287	1.134441
	O294	O	1.135712	0.965571	0.823676
	H295	H	1.127862	0.959062	0.822905
	H296	H	1.137459	0.972139	0.833412
	O297	O	-0.128788	-0.077066	-0.029529
	H298	H	-0.136967	-0.078108	-0.023256
	H299	H	-0.138105	-0.081982	-0.027550
	O300	O	1.081835	1.148703	1.123480
	H301	H	1.071306	1.147990	1.117664
	H302	H	1.075188	1.141738	1.127085
	O303	O	-0.088559	1.057044	0.986615
	H304	H	-0.088656	1.054186	0.987940
	H305	H	-0.093357	1.065103	0.971664
	O306	O	0.454142	0.539261	0.533796
	H307	H	0.450952	0.530040	0.530637
	H308	H	0.456114	0.547581	0.515922
	O309	O	0.953419	0.050893	-0.087298
	H310	H	0.958883	0.063216	-0.090838
	H311	H	0.944642	0.043887	-0.078715
	O312	O	0.010643	-0.162263	0.995010
	H313	H	0.020227	-0.153770	1.002743
	H314	H	0.028228	-0.165936	0.993539
	O315	O	0.568553	0.583568	0.453855
	H316	H	0.572850	0.573060	0.449956
	H317	H	0.573869	0.585626	0.455655
	O318	O	0.397379	0.587533	0.414089
	H319	H	0.388142	0.598489	0.420399
	H320	H	0.398663	0.574537	0.408784
	O321	O	0.470145	0.559649	0.483193
	H322	H	0.468945	0.568759	0.487482
	H323	H	0.471867	0.560555	0.476759
	O324	O	0.433878	0.501763	0.353411
	H325	H	0.434922	0.507955	0.350946
	H326	H	0.433055	0.500322	0.349265
	O327	O	0.082104	1.167056	1.031912
	H328	H	0.086786	1.163236	1.024299
	H329	H	0.075113	1.162018	1.032032
	O330	O	0.436523	0.340465	0.540738
	H331	H	0.427409	0.345929	0.545769
	H332	H	0.419157	0.338075	0.550611
	O333	O	0.000547	1.010365	0.995457
	H334	H	0.005527	0.994959	0.994540
	H335	H	0.021040	1.006933	0.992806
	O336	O	1.198135	0.835679	0.962843
	H337	H	1.217249	0.828327	0.953370
	H338	H	1.193647	0.844443	0.938189
	O339	O	0.464259	0.389980	0.592964
	H340	H	0.461743	0.408800	0.590783
	H341	H	0.460251	0.396764	0.589386
	O342	O	0.992200	0.174652	0.046606
	H343	H	0.995100	0.172428	0.053359
	H344	H	0.979076	0.176082	0.048679
	O345	O	0.472366	0.524221	0.545392
	H346	H	0.455436	0.522156	0.544126
	H347	H	0.481375	0.524611	0.539813
	O348	O	1.042343	0.993775	0.995832
	H349	H	1.042009	0.990110	0.988517
	H350	H	1.046494	0.994505	0.995185
	O351	O	1.400733	1.282546	0.308335
	H352	H	1.397970	1.285135	0.298985
	H353	H	1.386637	1.289429	0.308258
	O354	O	0.949921	0.084030	0.975593
	H355	H	0.953939	0.073667	0.966475
	H356	H	0.934108	0.089373	0.965039
	O357	O	0.564082	0.611136	0.494945
	H358	H	0.566087	0.607616	0.494137
	H359	H	0.562325	0.615448	0.497538
	O360	O	0.048377	-0.155499	-0.203217
	H361	H	0.025179	-0.161268	-0.194606
	H362	H	0.044146	-0.169032	-0.219702
	O363	O	0.431878	0.509354	0.384549
	H364	H	0.426900	0.509081	0.378138
	H365	H	0.433302	0.506098	0.387935
	O366	O	0.448041	0.499545	0.500028
	H367	H	0.462701	0.497385	0.497868
	H368	H	0.442858	0.494805	0.493433
	O369	O	0.452113	0.443800	0.496312
	H370	H	0.444379	0.431748	0.498001
	H371	H	0.459362	0.435721	0.491041
	O372	O	0.527785	0.581323	0.578726
	H373	H	0.522437	0.579513	0.581124
	H374	H	0.525172	0.582197	0.569447
	O375	O	0.835213	-0.078755	1.134066
	H376	H	0.867704	-0.082502	1.140434
	H377	H	0.821594	-0.070482	1.142281
	O378	O	0.564561	0.488733	0.384195
	H379	H	0.571256	0.494849	0.390678
	H380	H	0.573562	0.474863	0.388055
	O381	O	0.497699	0.449131	0.447883
	H382	H	0.495636	0.447759	0.449515
	H383	H	0.485418	0.445454	0.443846
	O384	O	-0.076174	0.858065	-0.018576
	H385	H	-0.071797	0.858119	-0.004133
	H386	H	-0.082927	0.860565	-0.033403
	O387	O	1.067570	-0.121111	0.816356
	H388	H	1.056987	-0.104585	0.815791
	H389	H	1.046383	-0.126939	0.812927
	O390	O	-0.118408	1.181832	-0.148595
	H391	H	-0.115973	1.190545	-0.165170
	H392	H	-0.141953	1.185502	-0.144367
	O393	O	1.409340	1.587243	0.405833
	H394	H	1.411152	1.579462	0.394911
	H395	H	1.395889	1.590218	0.408022
	O396	O	0.487705	0.343051	0.499832
	H397	H	0.481179	0.343438	0.505598
	H398	H	0.485810	0.336258	0.495385
	O399	O	0.101110	1.029356	1.168670
	H400	H	0.119344	1.030752	1.190747
	H401	H	0.098789	1.028529	1.157719
	O402	O	1.064623	1.122328	0.919074
	H403	H	1.066578	1.127790	0.931065
	H404	H	1.061239	1.126759	0.912612
	O405	O	0.456918	0.603333	0.481435
	H406	H	0.449009	0.616108	0.490799
	H407	H	0.464703	0.609482	0.476336
