data_Molecule from HDF5

_cell_length_a		16.271458
_cell_length_b		16.345290
_cell_length_c		16.588959
_cell_angle_alpha	89.848582
_cell_angle_beta	90.077606
_cell_angle_gamma	90.003328
_symmetry_space_group_name_H-M	'P 1'
_symmetry_Int_Tables_number		1

loop_
	_symmetry_equiv_pos_as_xyz
	x,y,z

loop_
	_atom_site_label
	_atom_site_type_symbol
	_atom_site_fract_x
	_atom_site_fract_y
	_atom_site_fract_z
	H0	H	0.386914	0.838870	0.729291
	H1	H	0.605740	0.154304	0.727277
	H2	H	0.603665	0.837381	0.282091
	H3	H	0.393071	0.155592	0.283723
	H4	H	0.718484	0.392600	0.846607
	H5	H	0.717964	0.599887	0.161853
	H6	H	0.276761	0.600008	0.844442
	H7	H	0.277436	0.392803	0.162236
	H8	H	0.834748	0.713221	0.404611
	H9	H	0.158396	0.716104	0.608530
	H10	H	0.834986	0.278800	0.607753
	H11	H	0.157249	0.276878	0.403022
	H12	H	0.837045	0.390890	0.726189
	H13	H	0.156380	0.604389	0.727043
	H14	H	0.837536	0.603360	0.283154
	H15	H	0.155134	0.388340	0.282337
	H16	H	0.390103	0.720136	0.846888
	H17	H	0.600697	0.716502	0.162313
	H18	H	0.600354	0.276768	0.845531
	H19	H	0.394801	0.275852	0.162036
	H20	H	0.713113	0.833481	0.403762
	H21	H	0.715093	0.156634	0.605796
	H22	H	0.277119	0.836341	0.607969
	H23	H	0.280571	0.157758	0.402785
	H24	H	0.889595	0.338132	0.227025
	H25	H	0.104227	0.655465	0.226273
	H26	H	0.106609	0.338641	0.781447
	H27	H	0.889381	0.654586	0.781194
	H28	H	0.216776	0.893366	0.345712
	H29	H	0.220377	0.101208	0.661801
	H30	H	0.779572	0.095542	0.344822
	H31	H	0.775368	0.890449	0.663102
	H32	H	0.335391	0.214116	0.901080
	H33	H	0.659424	0.212124	0.102315
	H34	H	0.335202	0.776801	0.108083
	H35	H	0.656744	0.775388	0.900128
	H36	H	0.336498	0.890324	0.225818
	H37	H	0.658616	0.099389	0.221892
	H38	H	0.337826	0.102427	0.781832
	H39	H	0.654997	0.886269	0.780455
	H40	H	0.893250	0.216552	0.346811
	H41	H	0.102874	0.218017	0.662681
	H42	H	0.101190	0.776397	0.347088
	H43	H	0.892967	0.774425	0.663733
	H44	H	0.212877	0.335411	0.904947
	H45	H	0.214677	0.657911	0.104566
	H46	H	0.779324	0.335229	0.105788
	H47	H	0.777890	0.657132	0.900902
	H48	H	0.409029	0.108767	0.589385
	H49	H	0.586148	0.881529	0.595140
	H50	H	0.587525	0.111867	0.407374
	H51	H	0.407604	0.882047	0.413167
	H52	H	0.583832	0.404623	0.114711
	H53	H	0.584289	0.589043	0.892407
	H54	H	0.407890	0.580516	0.113600
	H55	H	0.400849	0.404512	0.889450
	H56	H	0.113613	0.586937	0.408883
	H57	H	0.883026	0.583205	0.596968
	H58	H	0.111954	0.406826	0.596105
	H59	H	0.880796	0.407819	0.412098
	H60	H	0.110439	0.407363	0.591802
	H61	H	0.883384	0.586828	0.592146
	H62	H	0.111544	0.588521	0.419463
	H63	H	0.882058	0.406722	0.416893
	H64	H	0.409851	0.591117	0.116289
	H65	H	0.588736	0.584429	0.891266
	H66	H	0.589215	0.401455	0.117589
	H67	H	0.405382	0.410051	0.892896
	H68	H	0.581801	0.108341	0.413989
	H69	H	0.582799	0.882051	0.596288
	H70	H	0.409217	0.110541	0.596309
	H71	H	0.408667	0.882020	0.413875
	H72	H	0.908577	0.611797	0.098105
	H73	H	0.087561	0.383289	0.091938
	H74	H	0.082189	0.608690	0.917189
	H75	H	0.911609	0.383636	0.914115
	H76	H	0.088951	0.913483	0.615296
	H77	H	0.084822	0.095437	0.390648
	H78	H	0.909152	0.082023	0.614810
	H79	H	0.903957	0.899829	0.390596
	H80	H	0.609155	0.081533	0.915815
	H81	H	0.382424	0.082495	0.097284
	H82	H	0.608176	0.913776	0.094921
	H83	H	0.381867	0.904528	0.916875
	H84	H	0.613458	0.904835	0.100268
	H85	H	0.380202	0.089183	0.098190
	H86	H	0.613468	0.085389	0.909840
	H87	H	0.387157	0.914352	0.922324
	H88	H	0.908713	0.091417	0.618742
	H89	H	0.094553	0.084299	0.390732
	H90	H	0.079308	0.905089	0.614566
	H91	H	0.902303	0.908300	0.393315
	H92	H	0.088784	0.612094	0.914585
	H93	H	0.086453	0.381295	0.099145
	H94	H	0.913025	0.609194	0.092997
	H95	H	0.908639	0.382580	0.916030
	H96	H	0.415072	0.107136	0.593150
	H97	H	0.583583	0.883646	0.592876
	H98	H	0.590735	0.109993	0.416155
	H99	H	0.408148	0.881824	0.413736
	H100	H	0.589998	0.408465	0.116580
	H101	H	0.582979	0.583253	0.893718
	H102	H	0.399982	0.586809	0.117042
	H103	H	0.408582	0.402562	0.891731
	H104	H	0.109196	0.578409	0.414677
	H105	H	0.885367	0.581042	0.592072
	H106	H	0.109772	0.410928	0.594482
	H107	H	0.883607	0.411322	0.415183
	H108	H	0.906182	0.610827	0.091633
	H109	H	0.080149	0.384099	0.095544
	H110	H	0.082573	0.611387	0.909944
	H111	H	0.908342	0.382301	0.912576
	H112	H	0.090490	0.901922	0.619364
	H113	H	0.080893	0.082388	0.396340
	H114	H	0.900865	0.084693	0.618959
	H115	H	0.910593	0.904459	0.394567
	H116	H	0.611841	0.089688	0.916847
	H117	H	0.382739	0.087670	0.091885
	H118	H	0.609758	0.903823	0.089826
	H119	H	0.383696	0.914863	0.910229
	C120	C	0.376447	0.004498	0.625583
	C121	C	0.617695	0.987472	0.626137
	C122	C	0.618059	0.004076	0.382246
	C123	C	0.376466	0.987778	0.382631
	C124	C	0.619307	0.374030	0.012027
	C125	C	0.618069	0.617878	0.996327
	C126	C	0.374174	0.618183	0.011569
	C127	C	0.374418	0.374341	0.995659
	C128	C	0.005491	0.617125	0.383290
	C129	C	0.989212	0.617083	0.626045
	C130	C	0.004940	0.375814	0.626323
	C131	C	0.988013	0.375632	0.383602
	C132	C	0.876125	0.505100	0.125610
	C133	C	0.117721	0.488331	0.126269
	C134	C	0.117098	0.505080	0.883001
	C135	C	0.876353	0.488027	0.882477
	C136	C	0.118841	0.875017	0.512536
	C137	C	0.119230	0.118938	0.496640
	C138	C	0.875250	0.117173	0.512823
	C139	C	0.874366	0.872586	0.497375
	C140	C	0.505546	0.117377	0.882528
	C141	C	0.488452	0.117433	0.125209
	C142	C	0.504519	0.875229	0.126325
	C143	C	0.488835	0.876214	0.883539
	C144	C	0.370821	0.885877	0.687769
	C145	C	0.622255	0.106786	0.686202
	C146	C	0.620716	0.884270	0.322957
	C147	C	0.374570	0.108249	0.323632
	C148	C	0.678855	0.373040	0.893573
	C149	C	0.677934	0.618791	0.114723
	C150	C	0.315195	0.619504	0.892476
	C151	C	0.316354	0.373457	0.114767
	C152	C	0.883867	0.675306	0.384056
	C153	C	0.109936	0.677077	0.627478
	C154	C	0.883842	0.317150	0.627218
	C155	C	0.108584	0.316059	0.383198
	C156	C	0.884959	0.373428	0.685945
	C157	C	0.109000	0.621140	0.686349
	C158	C	0.884832	0.620267	0.323943
	C159	C	0.107774	0.372027	0.323493
	C160	C	0.371515	0.679464	0.893663
	C161	C	0.619677	0.676796	0.114909
	C162	C	0.620071	0.315651	0.893136
	C163	C	0.374927	0.315590	0.114616
	C164	C	0.675490	0.882591	0.383329
	C165	C	0.677226	0.108043	0.625980
	C166	C	0.316080	0.884811	0.627297
	C167	C	0.318689	0.109028	0.382911
	C168	C	0.872710	0.385540	0.186003
	C169	C	0.121301	0.608213	0.185618
	C170	C	0.122073	0.385739	0.822753
	C171	C	0.872211	0.607401	0.821932
	C172	C	0.177554	0.874346	0.393703
	C173	C	0.179812	0.120124	0.614821
	C174	C	0.817648	0.116547	0.392970
	C175	C	0.815197	0.871368	0.615861
	C176	C	0.384188	0.175697	0.881722
	C177	C	0.610651	0.174309	0.123346
	C178	C	0.383697	0.815938	0.127175
	C179	C	0.608532	0.814773	0.881293
	C180	C	0.384175	0.872676	0.185776
	C181	C	0.610294	0.118011	0.182498
	C182	C	0.385356	0.120278	0.822160
	C183	C	0.607872	0.870357	0.821729
	C184	C	0.874117	0.176564	0.393928
	C185	C	0.121543	0.178339	0.615190
	C186	C	0.120128	0.815880	0.394094
	C187	C	0.873772	0.813648	0.616137
	C188	C	0.175278	0.384021	0.883985
	C189	C	0.176443	0.609179	0.125305
	C190	C	0.817654	0.384021	0.125822
	C191	C	0.816651	0.608619	0.881660
	C192	C	0.403446	0.087275	0.600346
	C193	C	0.591731	0.904093	0.601831
	C194	C	0.593734	0.087950	0.405693
	C195	C	0.401075	0.904014	0.406431
	C196	C	0.594724	0.397974	0.094715
	C197	C	0.592667	0.592921	0.913968
	C198	C	0.398914	0.593294	0.094088
	C199	C	0.398319	0.398658	0.912816
	C200	C	0.089446	0.591833	0.407301
	C201	C	0.905670	0.590956	0.600960
	C202	C	0.088824	0.401054	0.601325
	C203	C	0.903893	0.401332	0.407875
	C204	C	0.901572	0.588687	0.101060
	C205	C	0.092224	0.404675	0.102475
	C206	C	0.091678	0.588872	0.906909
	C207	C	0.902069	0.404642	0.907170
	C208	C	0.093610	0.899662	0.595066
	C209	C	0.094072	0.094451	0.414177
	C210	C	0.899397	0.092983	0.595832
	C211	C	0.898653	0.897005	0.414332
	C212	C	0.589597	0.092612	0.906977
	C213	C	0.403798	0.093444	0.102432
	C214	C	0.588507	0.900100	0.101945
	C215	C	0.405818	0.903402	0.909288
	Zn216	Zn	0.496801	-0.003857	0.754743
	Zn217	Zn	0.497345	-0.003530	0.253746
	Zn218	Zn	0.748194	0.496395	0.003803
	Zn219	Zn	0.244818	0.496110	0.003743
	Zn220	Zn	-0.002171	0.744632	0.505053
	Zn221	Zn	-0.004151	0.247680	0.505317
	Zn222	Zn	-0.002375	0.496903	0.754686
	Zn223	Zn	-0.003313	0.497162	0.254611
	Zn224	Zn	0.496487	0.747428	0.004372
	Zn225	Zn	0.496845	0.245099	0.003040
	Zn226	Zn	0.745627	-0.004945	0.504359
	Zn227	Zn	0.248360	-0.003757	0.504006
	N228	N	0.407871	0.961489	0.686800
	N229	N	0.586268	0.030740	0.686716
	N230	N	0.585669	0.960746	0.322250
	N231	N	0.409725	0.031896	0.323328
	N232	N	0.678347	0.408727	0.968399
	N233	N	0.677127	0.583000	0.040024
	N234	N	0.316627	0.582226	0.966910
	N235	N	0.315857	0.409196	0.039818
	N236	N	0.959937	0.673571	0.420203
	N237	N	0.034355	0.674553	0.590353
	N238	N	0.959627	0.318366	0.591045
	N239	N	0.032982	0.318459	0.419891
	N240	N	0.961609	0.408838	0.685842
	N241	N	0.033026	0.584593	0.685460
	N242	N	0.961466	0.584978	0.323203
	N243	N	0.031481	0.408305	0.323555
	N244	N	0.407429	0.678798	0.968611
	N245	N	0.582765	0.675937	0.040261
	N246	N	0.583756	0.316119	0.967907
	N247	N	0.409999	0.315815	0.039484
	N248	N	0.674018	0.958025	0.419624
	N249	N	0.674504	0.032682	0.589284
	N250	N	0.319539	0.959496	0.589369
	N251	N	0.319573	0.033133	0.418829
	N252	N	0.907874	0.461953	0.186316
	N253	N	0.085678	0.531971	0.186373
	N254	N	0.086730	0.462153	0.822044
	N255	N	0.908534	0.531566	0.822333
	N256	N	0.176827	0.910338	0.468496
	N257	N	0.178618	0.084117	0.540130
	N258	N	0.818084	0.080444	0.467911
	N259	N	0.815459	0.907190	0.540844
	N260	N	0.459928	0.174100	0.918392
	N261	N	0.534089	0.174116	0.088458
	N262	N	0.459603	0.817462	0.090932
	N263	N	0.533451	0.818233	0.918954
	N264	N	0.460430	0.908648	0.185536
	N265	N	0.533151	0.083587	0.183955
	N266	N	0.461938	0.084858	0.822463
	N267	N	0.532487	0.908096	0.823219
	N268	N	0.908885	0.177149	0.469474
	N269	N	0.084564	0.177896	0.540661
	N270	N	0.084486	0.815948	0.469093
	N271	N	0.909987	0.814484	0.541289
	N272	N	0.172294	0.459112	0.920797
	N273	N	0.174359	0.533649	0.089084
	N274	N	0.819603	0.459485	0.088948
	N275	N	0.819111	0.533405	0.918750
	O276	O	0.459795	0.331206	0.401709
	H277	H	0.461437	0.335466	0.398758
	H278	H	0.475571	0.340182	0.403453
	O279	O	0.490882	0.681362	0.312170
	H280	H	0.485104	0.701792	0.302396
	H281	H	0.509653	0.678223	0.336369
	O282	O	0.566217	0.409296	0.596823
	H283	H	0.582455	0.402973	0.587372
	H284	H	0.570544	0.406181	0.595618
	O285	O	0.819875	1.082156	-0.195982
	H286	H	0.808266	1.058789	-0.197829
	H287	H	0.810273	1.097293	-0.178559
	O288	O	0.359453	0.671139	0.366224
	H289	H	0.354812	0.676838	0.382690
	H290	H	0.365952	0.681205	0.370320
	O291	O	0.636130	0.551104	0.663692
	H292	H	0.646202	0.553925	0.666379
	H293	H	0.632087	0.532322	0.647903
	O294	O	0.930511	1.070120	0.983529
	H295	H	0.929371	1.062008	0.985897
	H296	H	0.936456	1.071874	0.994731
	O297	O	0.484051	0.484235	0.453500
	H298	H	0.488561	0.486926	0.454265
	H299	H	0.480313	0.485543	0.439294
	O300	O	0.551158	0.433671	0.370535
	H301	H	0.554210	0.419239	0.367890
	H302	H	0.546498	0.444604	0.369532
	O303	O	0.355781	0.682113	0.476394
	H304	H	0.347135	0.694127	0.479189
	H305	H	0.380339	0.678735	0.475889
	O306	O	0.021969	0.196230	1.144481
	H307	H	0.031291	0.203510	1.135892
	H308	H	0.039749	0.201190	1.141607
	O309	O	0.811493	-0.029241	0.191156
	H310	H	0.810808	-0.025604	0.180031
	H311	H	0.826645	-0.021416	0.193339
	O312	O	0.383864	0.325301	0.527097
	H313	H	0.381357	0.323869	0.517289
	H314	H	0.381807	0.327176	0.511324
	O315	O	0.410330	0.652974	0.592754
	H316	H	0.398579	0.634718	0.590593
	H317	H	0.425946	0.654370	0.589026
	O318	O	-0.152478	-0.157233	0.205073
	H319	H	-0.169622	-0.168976	0.202890
	H320	H	-0.157251	-0.112537	0.205229
	O321	O	0.380626	0.564001	0.614478
	H322	H	0.376401	0.563370	0.616144
	H323	H	0.378091	0.560336	0.604104
	O324	O	1.005565	-0.168691	1.214872
	H325	H	0.996060	-0.184948	1.233991
	H326	H	0.985316	-0.176267	1.209214
	O327	O	0.577604	0.693679	0.697229
	H328	H	0.575973	0.680240	0.689613
	H329	H	0.566848	0.701519	0.712244
	O330	O	0.152269	1.083389	0.998385
	H331	H	0.142246	1.071744	1.000580
	H332	H	0.170932	1.064568	0.990994
	O333	O	-0.203761	0.908348	-0.032100
	H334	H	-0.200888	0.887440	-0.018218
	H335	H	-0.199803	0.905868	-0.022527
	O336	O	1.202269	0.823103	-0.027257
	H337	H	1.213872	0.810542	-0.051244
	H338	H	1.203993	0.820748	-0.057949
	O339	O	0.159690	1.171089	0.980172
	H340	H	0.174680	1.183590	0.987900
	H341	H	0.167906	1.169321	0.985956
	O342	O	0.337196	0.397418	0.485063
	H343	H	0.326966	0.397780	0.497770
	H344	H	0.346908	0.407465	0.467612
	O345	O	-0.122244	-0.145069	0.928501
	H346	H	-0.130100	-0.138323	0.927275
	H347	H	-0.104700	-0.148990	0.940882
	O348	O	0.397948	0.409380	0.691401
	H349	H	0.389508	0.407577	0.680392
	H350	H	0.397646	0.397862	0.690293
	O351	O	0.947011	0.933481	0.056961
	H352	H	0.954772	0.923775	0.049452
	H353	H	0.961674	0.926009	0.068440
	O354	O	0.890561	1.205453	0.794233
	H355	H	0.853304	1.197222	0.790512
	H356	H	0.883587	1.225573	0.800823
	O357	O	-0.037645	-0.049130	0.091813
	H358	H	-0.037445	-0.023952	0.085597
	H359	H	-0.018060	-0.061519	0.086747
	O360	O	0.676645	0.309341	0.318819
	H361	H	0.689653	0.300605	0.311454
	H362	H	0.641884	0.304011	0.314252
	O363	O	1.108300	-0.001150	-0.098436
	H364	H	1.103800	0.004793	-0.107864
	H365	H	1.091458	-0.009109	-0.103531
	O366	O	0.105132	-0.157981	0.814212
	H367	H	0.094313	-0.150838	0.801955
	H368	H	0.087374	-0.143938	0.801719
	O369	O	0.608929	-0.517738	0.566531
	H370	H	0.596746	-0.518400	0.565565
	H371	H	0.610705	-0.518741	0.569249
	O372	O	0.417005	0.383225	0.365219
	H373	H	0.413006	0.373357	0.358834
	H374	H	0.396875	0.400613	0.363167
	O375	O	0.002359	0.116142	1.069142
	H376	H	-0.004788	0.110956	1.063718
	H377	H	0.025576	0.130141	1.067646
	O378	O	0.353971	0.440868	0.569938
	H379	H	0.351690	0.436585	0.588971
	H380	H	0.356715	0.435951	0.557325
	O381	O	0.118717	1.015566	-0.091776
	H382	H	0.128468	1.038718	-0.097404
	H383	H	0.109172	1.009515	-0.084626
	O384	O	0.700070	0.403846	0.476011
	H385	H	0.701633	0.397420	0.465413
	H386	H	0.711441	0.405675	0.487664
	O387	O	0.683449	0.305807	0.579195
	H388	H	0.670887	0.324113	0.567717
	H389	H	0.677628	0.296349	0.572674
	O390	O	0.831938	0.825721	0.081465
	H391	H	0.816204	0.798808	0.074738
	H392	H	0.856776	0.829415	0.081048
	O393	O	0.816138	0.030324	0.958688
	H394	H	0.817155	0.023092	0.981228
	H395	H	0.804005	0.028013	0.929117
	O396	O	1.064317	0.918577	0.122445
	H397	H	1.056609	0.897499	0.120254
	H398	H	1.050172	0.927832	0.131757
	O399	O	0.605151	0.613435	0.460917
	H400	H	0.598927	0.605289	0.476506
	H401	H	0.620893	0.626534	0.457969
	O402	O	0.992986	0.979096	-0.198099
	H403	H	0.978348	0.987214	-0.187651
	H404	H	0.976350	0.995228	-0.203778
	O405	O	0.607988	0.595429	0.390830
	H406	H	0.603116	0.569608	0.397023
	H407	H	0.634215	0.592399	0.390767
	O408	O	0.390171	0.571478	0.465077
	H409	H	0.394940	0.567041	0.461580
	H410	H	0.386391	0.571881	0.485954
	O411	O	1.103817	1.006607	1.170132
	H412	H	1.115820	1.014262	1.163921
	H413	H	1.116485	1.003293	1.181906
	O414	O	0.561715	0.534073	0.382557
	H415	H	0.562367	0.540489	0.362751
	H416	H	0.566588	0.526310	0.389513
	O417	O	0.024549	1.183736	0.963670
	H418	H	0.034468	1.187303	0.956629
	H419	H	0.026299	1.171474	0.966936
	O420	O	0.169410	0.905607	0.816559
	H421	H	0.135401	0.912307	0.806368
	H422	H	0.171489	0.924332	0.826848
	O423	O	0.183128	1.185798	0.191784
	H424	H	0.185540	1.151534	0.204103
	H425	H	0.193583	1.196272	0.185836
	O426	O	0.315850	0.590366	0.299624
	H427	H	0.319685	0.621731	0.296440
	H428	H	0.297567	0.584149	0.285331
	O429	O	0.615260	0.564326	0.696098
	H430	H	0.618726	0.569374	0.689178
	H431	H	0.601481	0.556656	0.696607
	O432	O	0.581730	0.391989	0.576253
	H433	H	0.567472	0.410718	0.586524
	H434	H	0.574761	0.397448	0.573186
	O435	O	0.099604	-0.074976	0.102325
	H436	H	0.109939	-0.087014	0.087189
	H437	H	0.103051	-0.078206	0.100531
	O438	O	-0.163809	1.146454	0.963115
	H439	H	-0.176854	1.164808	0.981071
	H440	H	-0.132569	1.147751	0.972547
	O441	O	0.462030	0.355468	0.627968
	H442	H	0.466642	0.344710	0.629884
	H443	H	0.469052	0.353919	0.630987
