data_Molecule from HDF5

_cell_length_a		16.376008
_cell_length_b		16.122121
_cell_length_c		16.255713
_cell_angle_alpha	89.867556
_cell_angle_beta	90.171848
_cell_angle_gamma	89.995086
_symmetry_space_group_name_H-M	'P 1'
_symmetry_Int_Tables_number		1

loop_
	_symmetry_equiv_pos_as_xyz
	x,y,z

loop_
	_atom_site_label
	_atom_site_type_symbol
	_atom_site_fract_x
	_atom_site_fract_y
	_atom_site_fract_z
	H0	H	0.403427	0.835433	0.719865
	H1	H	0.600834	0.165416	0.720281
	H2	H	0.598852	0.835218	0.293219
	H3	H	0.401309	0.164692	0.292565
	H4	H	0.714082	0.402002	0.840555
	H5	H	0.718185	0.603372	0.167525
	H6	H	0.282444	0.603639	0.841312
	H7	H	0.281887	0.397983	0.167127
	H8	H	0.838293	0.715113	0.404784
	H9	H	0.164206	0.712556	0.603709
	H10	H	0.837413	0.284380	0.602482
	H11	H	0.162911	0.284117	0.405649
	H12	H	0.837556	0.398407	0.719872
	H13	H	0.161584	0.600282	0.723236
	H14	H	0.839900	0.601988	0.285693
	H15	H	0.163503	0.398651	0.288652
	H16	H	0.400733	0.716242	0.841510
	H17	H	0.596257	0.711593	0.170657
	H18	H	0.596424	0.287414	0.840477
	H19	H	0.402897	0.287445	0.170483
	H20	H	0.715903	0.835195	0.405461
	H21	H	0.718487	0.163156	0.607204
	H22	H	0.284735	0.836874	0.609581
	H23	H	0.285910	0.164432	0.405102
	H24	H	0.901238	0.335554	0.218147
	H25	H	0.100815	0.663927	0.218921
	H26	H	0.097639	0.334845	0.791659
	H27	H	0.901127	0.665350	0.790516
	H28	H	0.219091	0.897983	0.343396
	H29	H	0.219462	0.104939	0.667339
	H30	H	0.782533	0.101217	0.343009
	H31	H	0.784228	0.894711	0.668425
	H32	H	0.337057	0.214461	0.908007
	H33	H	0.663062	0.215554	0.105603
	H34	H	0.337008	0.784956	0.104601
	H35	H	0.662373	0.784578	0.907583
	H36	H	0.338454	0.899728	0.222751
	H37	H	0.662940	0.101248	0.224309
	H38	H	0.339460	0.104477	0.786940
	H39	H	0.662227	0.898883	0.790799
	H40	H	0.901224	0.214174	0.341327
	H41	H	0.098241	0.213789	0.669600
	H42	H	0.098712	0.786866	0.340539
	H43	H	0.904698	0.784338	0.669347
	H44	H	0.216283	0.336726	0.901731
	H45	H	0.215844	0.663853	0.104420
	H46	H	0.783178	0.337144	0.107019
	H47	H	0.784242	0.664694	0.902920
	H48	H	0.409775	0.116944	0.593076
	H49	H	0.592584	0.883564	0.597854
	H50	H	0.601813	0.119432	0.414689
	H51	H	0.411181	0.881612	0.408619
	H52	H	0.592060	0.406449	0.121829
	H53	H	0.592824	0.589598	0.889333
	H54	H	0.409249	0.587850	0.120025
	H55	H	0.415979	0.409276	0.892503
	H56	H	0.116866	0.591393	0.411470
	H57	H	0.888739	0.584621	0.592277
	H58	H	0.115695	0.406789	0.599308
	H59	H	0.884030	0.406320	0.409454
	H60	H	0.115722	0.406640	0.597653
	H61	H	0.882572	0.590958	0.605322
	H62	H	0.117738	0.592004	0.409714
	H63	H	0.886224	0.407090	0.412293
	H64	H	0.407661	0.594019	0.121671
	H65	H	0.590066	0.595201	0.889401
	H66	H	0.596486	0.408558	0.122506
	H67	H	0.403627	0.400669	0.885239
	H68	H	0.587226	0.118259	0.409140
	H69	H	0.595643	0.881862	0.599176
	H70	H	0.405791	0.119008	0.597837
	H71	H	0.412349	0.885358	0.420407
	H72	H	0.906562	0.619838	0.097418
	H73	H	0.086157	0.384602	0.092445
	H74	H	0.095920	0.617829	0.917034
	H75	H	0.903594	0.382130	0.914857
	H76	H	0.099004	0.908019	0.623056
	H77	H	0.096719	0.082391	0.390915
	H78	H	0.912268	0.092099	0.621422
	H79	H	0.909051	0.911460	0.390182
	H80	H	0.617899	0.100461	0.916150
	H81	H	0.387229	0.095015	0.089617
	H82	H	0.613275	0.910593	0.094145
	H83	H	0.381810	0.904347	0.905786
	H84	H	0.616870	0.911228	0.107940
	H85	H	0.387046	0.083210	0.104715
	H86	H	0.613271	0.088352	0.918581
	H87	H	0.385408	0.905240	0.920269
	H88	H	0.906267	0.092222	0.623137
	H89	H	0.085505	0.094122	0.390539
	H90	H	0.093057	0.911165	0.621182
	H91	H	0.908882	0.905712	0.389173
	H92	H	0.092000	0.620062	0.907278
	H93	H	0.097506	0.382110	0.091146
	H94	H	0.912590	0.616556	0.095666
	H95	H	0.903886	0.381034	0.910248
	H96	H	0.412745	0.117801	0.599598
	H97	H	0.592341	0.882064	0.601802
	H98	H	0.590031	0.113773	0.424369
	H99	H	0.402170	0.880076	0.417199
	H100	H	0.592876	0.411677	0.120393
	H101	H	0.595889	0.594749	0.887202
	H102	H	0.402979	0.589491	0.120853
	H103	H	0.401558	0.416205	0.889408
	H104	H	0.116354	0.593231	0.411070
	H105	H	0.883515	0.599780	0.591795
	H106	H	0.115415	0.409349	0.598867
	H107	H	0.885212	0.410262	0.409963
	H108	H	0.907197	0.616761	0.091466
	H109	H	0.091712	0.379876	0.101156
	H110	H	0.085935	0.614602	0.914710
	H111	H	0.907531	0.382807	0.912224
	H112	H	0.093140	0.903997	0.621997
	H113	H	0.099994	0.097166	0.384870
	H114	H	0.908793	0.087040	0.620664
	H115	H	0.903097	0.908739	0.387924
	H116	H	0.617649	0.090909	0.906378
	H117	H	0.380533	0.101277	0.106474
	H118	H	0.617912	0.899063	0.100124
	H119	H	0.385878	0.916869	0.911188
	C120	C	0.379902	0.009327	0.627541
	C121	C	0.623316	0.990909	0.628839
	C122	C	0.621674	0.008417	0.386072
	C123	C	0.379443	0.991312	0.385639
	C124	C	0.621997	0.379508	0.013398
	C125	C	0.621896	0.622553	0.996592
	C126	C	0.377336	0.621587	0.012992
	C127	C	0.378061	0.378818	0.997058
	C128	C	0.009812	0.622159	0.381654
	C129	C	0.992116	0.621254	0.626574
	C130	C	0.008209	0.377739	0.627243
	C131	C	0.992431	0.377938	0.381825
	C132	C	0.879056	0.509513	0.125391
	C133	C	0.121644	0.490953	0.124571
	C134	C	0.120128	0.508845	0.883687
	C135	C	0.877121	0.491334	0.882929
	C136	C	0.123805	0.878234	0.514071
	C137	C	0.122525	0.121228	0.496873
	C138	C	0.879225	0.120450	0.513826
	C139	C	0.879013	0.877857	0.496835
	C140	C	0.508993	0.122698	0.884357
	C141	C	0.492194	0.122446	0.129236
	C142	C	0.508467	0.878194	0.128961
	C143	C	0.491668	0.879271	0.884476
	C144	C	0.382284	0.885258	0.683166
	C145	C	0.621499	0.115334	0.683504
	C146	C	0.619242	0.884344	0.330456
	C147	C	0.381358	0.115369	0.330089
	C148	C	0.676446	0.381671	0.889697
	C149	C	0.678721	0.621868	0.119283
	C150	C	0.321159	0.622201	0.890156
	C151	C	0.321362	0.379169	0.119093
	C152	C	0.887327	0.677724	0.383963
	C153	C	0.114998	0.675623	0.624281
	C154	C	0.885882	0.322071	0.623350
	C155	C	0.114544	0.322056	0.384976
	C156	C	0.886125	0.378665	0.682026
	C157	C	0.113623	0.619820	0.683818
	C158	C	0.887958	0.621436	0.324811
	C159	C	0.114420	0.378606	0.326207
	C160	C	0.379966	0.678393	0.890376
	C161	C	0.618313	0.676070	0.120641
	C162	C	0.617732	0.324769	0.889647
	C163	C	0.381411	0.323937	0.120723
	C164	C	0.677166	0.884313	0.386869
	C165	C	0.680002	0.114388	0.627344
	C166	C	0.323442	0.885931	0.627924
	C167	C	0.323961	0.115281	0.386324
	C168	C	0.880537	0.385340	0.181162
	C169	C	0.120302	0.614889	0.180497
	C170	C	0.118217	0.384344	0.828771
	C171	C	0.880053	0.615577	0.827260
	C172	C	0.179961	0.879260	0.391517
	C173	C	0.179565	0.122303	0.619312
	C174	C	0.821496	0.120524	0.391559
	C175	C	0.823023	0.876813	0.619533
	C176	C	0.386317	0.177970	0.886553
	C177	C	0.614519	0.177967	0.126440
	C178	C	0.386004	0.822456	0.125851
	C179	C	0.614064	0.823429	0.887826
	C180	C	0.386619	0.879572	0.184456
	C181	C	0.614446	0.121310	0.185566
	C182	C	0.387524	0.122715	0.826606
	C183	C	0.613788	0.879757	0.829040
	C184	C	0.880729	0.176575	0.390565
	C185	C	0.119494	0.176787	0.620171
	C186	C	0.120279	0.823746	0.390230
	C187	C	0.882969	0.821670	0.620173
	C188	C	0.177393	0.385273	0.883422
	C189	C	0.177700	0.614795	0.123771
	C190	C	0.822033	0.386107	0.125538
	C191	C	0.822261	0.615550	0.883598
	C192	C	0.402723	0.095678	0.603736
	C193	C	0.600370	0.904707	0.606237
	C194	C	0.599373	0.094712	0.409147
	C195	C	0.401969	0.904686	0.408694
	C196	C	0.600272	0.402251	0.099207
	C197	C	0.599666	0.599888	0.910966
	C198	C	0.400059	0.597452	0.098844
	C199	C	0.400451	0.401919	0.911189
	C200	C	0.094898	0.598944	0.404162
	C201	C	0.907016	0.598541	0.603244
	C202	C	0.093650	0.401017	0.605243
	C203	C	0.907183	0.401087	0.404008
	C204	C	0.902099	0.595417	0.101866
	C205	C	0.098566	0.404660	0.101688
	C206	C	0.097774	0.594973	0.906303
	C207	C	0.898571	0.404563	0.905621
	C208	C	0.101650	0.900993	0.599636
	C209	C	0.100541	0.098041	0.411138
	C210	C	0.902192	0.097279	0.599536
	C211	C	0.900650	0.901702	0.411033
	C212	C	0.594224	0.099873	0.906988
	C213	C	0.407045	0.099804	0.106816
	C214	C	0.593746	0.900384	0.107280
	C215	C	0.406351	0.902282	0.906272
	Zn216	Zn	0.500776	0.000585	0.755347
	Zn217	Zn	0.500581	0.000212	0.258468
	Zn218	Zn	0.750650	0.501256	0.004887
	Zn219	Zn	0.248937	0.500287	0.003735
	Zn220	Zn	0.001577	0.750184	0.504806
	Zn221	Zn	0.001001	0.249421	0.504747
	Zn222	Zn	-0.000835	0.499418	0.756105
	Zn223	Zn	0.001192	0.499692	0.252654
	Zn224	Zn	0.499487	0.749660	0.005874
	Zn225	Zn	0.500266	0.250889	0.006100
	Zn226	Zn	0.750295	-0.000852	0.506430
	Zn227	Zn	0.251850	0.000623	0.506159
	N228	N	0.416891	0.963012	0.682849
	N229	N	0.586731	0.037661	0.684283
	N230	N	0.585458	0.962598	0.329848
	N231	N	0.414956	0.037155	0.329449
	N232	N	0.679399	0.414786	0.967775
	N233	N	0.681415	0.589414	0.041155
	N234	N	0.319655	0.587387	0.967692
	N235	N	0.319059	0.412330	0.041099
	N236	N	0.964109	0.678401	0.418599
	N237	N	0.038333	0.676777	0.589470
	N238	N	0.963063	0.321263	0.589968
	N239	N	0.037570	0.321219	0.418644
	N240	N	0.963135	0.412455	0.684309
	N241	N	0.036160	0.586761	0.685300
	N242	N	0.965245	0.587772	0.322957
	N243	N	0.037462	0.412773	0.324320
	N244	N	0.414575	0.677909	0.967665
	N245	N	0.583480	0.676666	0.043441
	N246	N	0.584771	0.323190	0.967382
	N247	N	0.415849	0.323554	0.043672
	N248	N	0.678723	0.962403	0.420702
	N249	N	0.681511	0.036087	0.594237
	N250	N	0.321506	0.964315	0.594317
	N251	N	0.322693	0.037010	0.420142
	N252	N	0.915398	0.462994	0.181248
	N253	N	0.086321	0.536818	0.181190
	N254	N	0.083182	0.461857	0.828844
	N255	N	0.913424	0.537159	0.826706
	N256	N	0.182335	0.912446	0.469547
	N257	N	0.181604	0.088286	0.541803
	N258	N	0.820521	0.086325	0.469284
	N259	N	0.820538	0.911101	0.541888
	N260	N	0.462954	0.178209	0.921685
	N261	N	0.537528	0.178930	0.092336
	N262	N	0.462774	0.821542	0.091809
	N263	N	0.536972	0.822714	0.921274
	N264	N	0.463642	0.913474	0.186564
	N265	N	0.537431	0.087320	0.187330
	N266	N	0.464747	0.089106	0.825066
	N267	N	0.536864	0.913913	0.826920
	N268	N	0.916018	0.176698	0.467499
	N269	N	0.084651	0.176339	0.543050
	N270	N	0.086128	0.822814	0.467350
	N271	N	0.917060	0.822106	0.542798
	N272	N	0.178772	0.463685	0.917042
	N273	N	0.178664	0.536700	0.089809
	N274	N	0.820975	0.464307	0.091497
	N275	N	0.820405	0.537407	0.917574
	O276	O	0.419631	0.485952	0.465703
	H277	H	0.427820	0.491485	0.465112
	H278	H	0.416114	0.472084	0.463472
	O279	O	0.543780	0.507698	0.411657
	H280	H	0.540160	0.506239	0.400347
	H281	H	0.555547	0.505884	0.405954
	O282	O	0.517654	0.475966	-0.505325
	H283	H	0.514932	0.482289	-0.500010
	H284	H	0.509274	0.477117	-0.491638
	O285	O	0.897745	-0.026704	0.901563
	H286	H	0.892482	-0.010380	0.892129
	H287	H	0.886212	-0.013958	0.885294
	O288	O	0.474893	0.603334	0.548031
	H289	H	0.477285	0.604399	0.537773
	H290	H	0.484953	0.598375	0.543273
	O291	O	-0.088075	1.047279	-0.056121
	H292	H	-0.100131	1.046929	-0.061062
	H293	H	-0.089109	1.049658	-0.047802
	O294	O	0.496143	0.427371	0.484700
	H295	H	0.506259	0.433388	0.476870
	H296	H	0.498789	0.418855	0.483898
	O297	O	0.000163	0.074864	0.947074
	H298	H	0.005332	0.079182	0.962142
	H299	H	0.012719	0.073448	0.947458
	O300	O	0.451204	0.527967	0.457052
	H301	H	0.449344	0.517988	0.450509
	H302	H	0.440035	0.538381	0.447180
	O303	O	1.038698	1.101579	0.035514
	H304	H	1.039001	1.103845	0.034453
	H305	H	1.043730	1.093839	0.032446
	O306	O	-0.031976	0.966790	0.953396
	H307	H	-0.045407	0.975216	0.948904
	H308	H	-0.032102	0.949871	0.962381
	O309	O	0.526952	0.421471	0.607388
	H310	H	0.520142	0.414655	0.616016
	H311	H	0.523852	0.432583	0.607319
	O312	O	0.099119	0.042911	-0.094207
	H313	H	0.101348	0.045017	-0.078644
	H314	H	0.118664	0.026436	-0.099790
	O315	O	1.064686	-0.001328	0.064095
	H316	H	1.061611	-0.002220	0.060651
	H317	H	1.061968	0.004309	0.067508
	O318	O	0.970975	1.020860	0.959826
	H319	H	0.975343	1.025612	0.956642
	H320	H	0.970168	1.035559	0.968055
	O321	O	-0.041910	-0.097328	1.061414
	H322	H	-0.039247	-0.100202	1.071846
	H323	H	-0.058921	-0.099739	1.057066
	O324	O	1.001367	0.002760	0.140112
	H325	H	1.009785	0.001601	0.139175
	H326	H	0.997150	-0.003103	0.133113
	O327	O	-0.154747	0.010645	-0.049287
	H328	H	-0.160107	0.026396	-0.052464
	H329	H	-0.156245	0.013409	-0.061273
	O330	O	0.529554	0.610783	0.526551
	H331	H	0.541981	0.617272	0.541248
	H332	H	0.526275	0.613585	0.523624
	O333	O	0.085835	0.932437	1.046800
	H334	H	0.090499	0.927792	1.042223
	H335	H	0.085597	0.921163	1.037188
	O336	O	0.114721	0.072790	0.035416
	H337	H	0.119153	0.082173	0.044052
	H338	H	0.118545	0.075756	0.035765
	O339	O	0.477039	0.576632	0.515572
	H340	H	0.462377	0.574853	0.517692
	H341	H	0.474807	0.580361	0.514216
	O342	O	1.472201	1.449199	1.477281
	H343	H	1.472376	1.452477	1.477478
	H344	H	1.477919	1.437601	1.481189
	O345	O	1.096259	0.965330	-0.061935
	H346	H	1.087799	0.953536	-0.064768
	H347	H	1.077626	0.956540	-0.068856
	O348	O	0.497397	0.469417	0.555193
	H349	H	0.494968	0.460309	0.567661
	H350	H	0.483989	0.466361	0.559620
	O351	O	0.599967	0.559250	0.562826
	H352	H	0.589576	0.562769	0.565822
	H353	H	0.598639	0.570304	0.565015
	O354	O	0.435931	0.526607	0.581034
	H355	H	0.426573	0.516913	0.575173
	H356	H	0.443122	0.537314	0.578604
	O357	O	0.626275	-0.557229	0.415228
	H358	H	0.625805	-0.535079	0.424178
	H359	H	0.648098	-0.561236	0.415322
	O360	O	0.594736	0.481678	0.438670
	H361	H	0.594498	0.494868	0.443404
	H362	H	0.601696	0.486124	0.447068
	O363	O	0.395808	0.517070	0.455892
	H364	H	0.398172	0.517503	0.451339
	H365	H	0.390816	0.512334	0.437545
	O366	O	1.040883	1.067414	0.999452
	H367	H	1.054382	1.065856	1.003933
	H368	H	1.042335	1.069445	0.991785
	O369	O	0.935812	-0.018730	1.032238
	H370	H	0.938662	-0.016892	1.041361
	H371	H	0.935614	-0.021435	1.040409
	O372	O	-0.052379	0.075948	-0.020889
	H373	H	-0.062643	0.076790	-0.032260
	H374	H	-0.054178	0.082645	-0.012497
	O375	O	1.030403	-0.129759	0.016157
	H376	H	1.026000	-0.132564	0.022556
	H377	H	1.038602	-0.125482	0.009068
	O378	O	0.924777	0.914358	1.149240
	H379	H	0.922324	0.906238	1.144355
	H380	H	0.918868	0.916374	1.158520
	O381	O	0.547363	0.497687	0.540623
	H382	H	0.542518	0.493390	0.539142
	H383	H	0.551195	0.508485	0.533101
