data_Molecule from HDF5

_cell_length_a		16.666059
_cell_length_b		16.554775
_cell_length_c		16.563482
_cell_angle_alpha	89.991120
_cell_angle_beta	90.025306
_cell_angle_gamma	90.067158
_symmetry_space_group_name_H-M	'P 1'
_symmetry_Int_Tables_number		1

loop_
	_symmetry_equiv_pos_as_xyz
	x,y,z

loop_
	_atom_site_label
	_atom_site_type_symbol
	_atom_site_fract_x
	_atom_site_fract_y
	_atom_site_fract_z
	H0	H	0.381716	0.832931	0.713360
	H1	H	0.585549	0.147550	0.710715
	H2	H	0.592619	0.832407	0.270599
	H3	H	0.382245	0.145528	0.273040
	H4	H	0.704768	0.386774	0.837477
	H5	H	0.707279	0.597061	0.151253
	H6	H	0.265445	0.592917	0.837981
	H7	H	0.265761	0.385412	0.150805
	H8	H	0.828969	0.711793	0.388966
	H9	H	0.140137	0.711837	0.600116
	H10	H	0.827455	0.273175	0.592210
	H11	H	0.142122	0.271425	0.391370
	H12	H	0.827318	0.388997	0.710424
	H13	H	0.141495	0.592410	0.714596
	H14	H	0.828924	0.594928	0.273142
	H15	H	0.141273	0.388248	0.274405
	H16	H	0.384678	0.706206	0.836342
	H17	H	0.589912	0.711660	0.151495
	H18	H	0.588161	0.271146	0.837398
	H19	H	0.382418	0.269732	0.151313
	H20	H	0.708050	0.832356	0.386797
	H21	H	0.702176	0.147444	0.594493
	H22	H	0.264054	0.833732	0.599241
	H23	H	0.265708	0.145053	0.388324
	H24	H	0.883174	0.332824	0.212652
	H25	H	0.091804	0.646927	0.215984
	H26	H	0.086603	0.330876	0.776804
	H27	H	0.880878	0.645208	0.772824
	H28	H	0.210832	0.880454	0.339004
	H29	H	0.205510	0.093527	0.649363
	H30	H	0.764969	0.093087	0.336526
	H31	H	0.766556	0.886771	0.651198
	H32	H	0.331416	0.212386	0.887556
	H33	H	0.640749	0.210843	0.098911
	H34	H	0.330108	0.765883	0.100497
	H35	H	0.640899	0.766978	0.887965
	H36	H	0.331370	0.881006	0.218212
	H37	H	0.641997	0.091488	0.213586
	H38	H	0.330473	0.094284	0.773313
	H39	H	0.640541	0.883553	0.771751
	H40	H	0.883891	0.206655	0.334819
	H41	H	0.086727	0.206525	0.650561
	H42	H	0.094188	0.764978	0.338578
	H43	H	0.882754	0.770895	0.651665
	H44	H	0.204054	0.331615	0.892443
	H45	H	0.209148	0.645583	0.102100
	H46	H	0.765153	0.333715	0.098137
	H47	H	0.763580	0.645576	0.887776
	H48	H	0.391344	0.104658	0.584816
	H49	H	0.582165	0.873416	0.587027
	H50	H	0.574181	0.099423	0.404623
	H51	H	0.392862	0.875177	0.407041
	H52	H	0.568459	0.404468	0.103747
	H53	H	0.573873	0.580737	0.882956
	H54	H	0.398857	0.578819	0.106169
	H55	H	0.397902	0.401691	0.883301
	H56	H	0.095584	0.579487	0.408740
	H57	H	0.873532	0.580439	0.582590
	H58	H	0.097248	0.398806	0.584596
	H59	H	0.875120	0.403101	0.405198
	H60	H	0.099215	0.398572	0.590384
	H61	H	0.874335	0.577284	0.583609
	H62	H	0.093483	0.575455	0.407749
	H63	H	0.871165	0.398518	0.398411
	H64	H	0.394695	0.578377	0.108275
	H65	H	0.578015	0.578406	0.881945
	H66	H	0.575813	0.390713	0.110168
	H67	H	0.395015	0.397935	0.880320
	H68	H	0.575411	0.098702	0.405739
	H69	H	0.570977	0.876601	0.587789
	H70	H	0.399259	0.101443	0.586312
	H71	H	0.401761	0.877013	0.401967
	H72	H	0.894698	0.602861	0.083361
	H73	H	0.074348	0.377970	0.083917
	H74	H	0.072835	0.600860	0.903405
	H75	H	0.895913	0.378444	0.907843
	H76	H	0.070020	0.904384	0.602114
	H77	H	0.078443	0.080726	0.378760
	H78	H	0.896266	0.082957	0.606331
	H79	H	0.898750	0.901198	0.382515
	H80	H	0.598734	0.079647	0.900467
	H81	H	0.372504	0.082759	0.084957
	H82	H	0.595529	0.899105	0.077820
	H83	H	0.372038	0.897796	0.899166
	H84	H	0.594055	0.904831	0.081712
	H85	H	0.375244	0.078053	0.079728
	H86	H	0.597711	0.082732	0.906480
	H87	H	0.374267	0.895319	0.908228
	H88	H	0.890473	0.083327	0.608639
	H89	H	0.076493	0.077841	0.380443
	H90	H	0.074385	0.898400	0.605692
	H91	H	0.895752	0.899850	0.381159
	H92	H	0.075992	0.600884	0.907956
	H93	H	0.074848	0.378908	0.083537
	H94	H	0.896149	0.603239	0.083989
	H95	H	0.891391	0.376278	0.905955
	H96	H	0.395338	0.100559	0.578624
	H97	H	0.576560	0.877948	0.577443
	H98	H	0.575413	0.100099	0.404575
	H99	H	0.400755	0.880186	0.411423
	H100	H	0.584702	0.405270	0.108991
	H101	H	0.573598	0.576153	0.884022
	H102	H	0.396556	0.574770	0.105545
	H103	H	0.392744	0.402205	0.881784
	H104	H	0.095958	0.577790	0.404418
	H105	H	0.873199	0.579067	0.586190
	H106	H	0.099135	0.393276	0.586827
	H107	H	0.872324	0.394371	0.406514
	H108	H	0.895848	0.602257	0.083059
	H109	H	0.074994	0.377917	0.083604
	H110	H	0.077862	0.603315	0.903123
	H111	H	0.895893	0.375754	0.902826
	H112	H	0.077370	0.906311	0.604341
	H113	H	0.075178	0.081507	0.380115
	H114	H	0.892365	0.078335	0.606221
	H115	H	0.895631	0.902795	0.382754
	H116	H	0.596242	0.076267	0.905481
	H117	H	0.373988	0.075003	0.086463
	H118	H	0.597054	0.898939	0.084349
	H119	H	0.375822	0.904121	0.905226
	C120	C	0.364072	-0.001467	0.614930
	C121	C	0.606393	0.980750	0.614577
	C122	C	0.607287	-0.003626	0.372123
	C123	C	0.365746	0.980424	0.373408
	C124	C	0.606750	0.369091	0.003525
	C125	C	0.607164	0.611661	0.986614
	C126	C	0.364838	0.609421	0.003142
	C127	C	0.364112	0.368457	0.985602
	C128	C	-0.007323	0.611058	0.373725
	C129	C	0.976669	0.610772	0.616191
	C130	C	-0.006190	0.367357	0.615893
	C131	C	0.976585	0.368002	0.372261
	C132	C	0.863997	0.499186	0.115135
	C133	C	0.107119	0.481591	0.116241
	C134	C	0.106082	0.497390	0.873807
	C135	C	0.863168	0.480787	0.873063
	C136	C	0.107236	0.868653	0.501736
	C137	C	0.107557	0.111104	0.483905
	C138	C	0.863227	0.111196	0.502035
	C139	C	0.864779	0.869418	0.485841
	C140	C	0.494607	0.111230	0.872641
	C141	C	0.477059	0.110375	0.115500
	C142	C	0.493546	0.867737	0.114702
	C143	C	0.476759	0.867015	0.871991
	C144	C	0.362809	0.880299	0.674129
	C145	C	0.605458	0.100081	0.671883
	C146	C	0.610409	0.879186	0.311067
	C147	C	0.363639	0.098215	0.312832
	C148	C	0.665210	0.367940	0.884810
	C149	C	0.666778	0.614432	0.104342
	C150	C	0.305484	0.611215	0.884905
	C151	C	0.305550	0.366829	0.103961
	C152	C	0.875740	0.671415	0.371044
	C153	C	0.093908	0.671028	0.618422
	C154	C	0.874677	0.311462	0.613028
	C155	C	0.094884	0.310642	0.372069
	C156	C	0.874757	0.368652	0.671898
	C157	C	0.094341	0.612034	0.675507
	C158	C	0.875743	0.613237	0.313390
	C159	C	0.094564	0.368540	0.313963
	C160	C	0.364700	0.667399	0.884029
	C161	C	0.608654	0.671768	0.104353
	C162	C	0.607161	0.310575	0.884748
	C163	C	0.363704	0.309695	0.104130
	C164	C	0.667943	0.879214	0.369003
	C165	C	0.663292	0.099846	0.614184
	C166	C	0.304388	0.880577	0.617274
	C167	C	0.305693	0.098143	0.370331
	C168	C	0.863486	0.380353	0.173647
	C169	C	0.109963	0.599453	0.176448
	C170	C	0.105924	0.378243	0.816046
	C171	C	0.862061	0.598454	0.813079
	C172	C	0.169536	0.863372	0.385391
	C173	C	0.165950	0.112298	0.602139
	C174	C	0.804832	0.111772	0.383411
	C175	C	0.805820	0.867919	0.604087
	C176	C	0.377961	0.171823	0.869775
	C177	C	0.594199	0.170497	0.117457
	C178	C	0.376705	0.806602	0.118130
	C179	C	0.593942	0.806939	0.869686
	C180	C	0.377405	0.863657	0.176870
	C181	C	0.594809	0.111345	0.174420
	C182	C	0.377465	0.113137	0.812842
	C183	C	0.593821	0.864788	0.811702
	C184	C	0.863687	0.168359	0.382662
	C185	C	0.106900	0.168430	0.602836
	C186	C	0.111201	0.806056	0.385210
	C187	C	0.863785	0.810513	0.604314
	C188	C	0.164194	0.378599	0.873304
	C189	C	0.168335	0.598679	0.119534
	C190	C	0.804865	0.380723	0.116877
	C191	C	0.803654	0.598547	0.870087
	C192	C	0.388420	0.080840	0.590374
	C193	C	0.583224	0.897583	0.590884
	C194	C	0.582105	0.078241	0.397553
	C195	C	0.391297	0.898720	0.399301
	C196	C	0.583160	0.393187	0.086237
	C197	C	0.582280	0.585952	0.904376
	C198	C	0.389566	0.584671	0.085281
	C199	C	0.388356	0.393447	0.903174
	C200	C	0.073721	0.585270	0.399588
	C201	C	0.895076	0.586120	0.591171
	C202	C	0.076840	0.390271	0.593777
	C203	C	0.894147	0.391983	0.396319
	C204	C	0.888529	0.581452	0.090473
	C205	C	0.081872	0.399527	0.091120
	C206	C	0.082428	0.580050	0.897926
	C207	C	0.887565	0.398262	0.898464
	C208	C	0.081222	0.895396	0.582934
	C209	C	0.083649	0.087058	0.401242
	C210	C	0.886445	0.088094	0.585193
	C211	C	0.889651	0.894125	0.403558
	C212	C	0.576338	0.086606	0.897266
	C213	C	0.395319	0.085731	0.090862
	C214	C	0.574433	0.893768	0.088777
	C215	C	0.395283	0.891896	0.897102
	Zn216	Zn	0.485555	-0.010391	0.743876
	Zn217	Zn	0.485912	-0.011607	0.244229
	Zn218	Zn	0.735293	0.490540	-0.005317
	Zn219	Zn	0.235274	0.489012	-0.005433
	Zn220	Zn	-0.014538	0.740351	0.494673
	Zn221	Zn	-0.014625	0.238847	0.493398
	Zn222	Zn	-0.015079	0.488934	0.745138
	Zn223	Zn	-0.014654	0.490589	0.243748
	Zn224	Zn	0.485264	0.738903	-0.005952
	Zn225	Zn	0.485347	0.240253	-0.005622
	Zn226	Zn	0.735273	-0.010593	0.493143
	Zn227	Zn	0.235781	-0.010596	0.493207
	N228	N	0.399047	0.954713	0.673154
	N229	N	0.570876	0.024670	0.672449
	N230	N	0.573342	0.953164	0.312920
	N231	N	0.400314	0.024043	0.314661
	N232	N	0.665459	0.403510	0.959826
	N233	N	0.666101	0.577892	0.029770
	N234	N	0.305070	0.576244	0.960130
	N235	N	0.305790	0.402599	0.029221
	N236	N	0.949644	0.670386	0.407737
	N237	N	0.019674	0.670600	0.582465
	N238	N	0.949941	0.310102	0.579437
	N239	N	0.020307	0.309930	0.407199
	N240	N	0.949967	0.402374	0.674172
	N241	N	0.020469	0.575303	0.674363
	N242	N	0.949537	0.576491	0.314757
	N243	N	0.019825	0.403314	0.313730
	N244	N	0.400724	0.666647	0.958618
	N245	N	0.572437	0.670200	0.029952
	N246	N	0.571642	0.311026	0.959542
	N247	N	0.399300	0.310398	0.029425
	N248	N	0.665930	0.953171	0.406489
	N249	N	0.664145	0.024569	0.579479
	N250	N	0.304707	0.955239	0.581369
	N251	N	0.307002	0.023889	0.407373
	N252	N	0.899414	0.455061	0.172982
	N253	N	0.072645	0.525502	0.174614
	N254	N	0.070654	0.453206	0.815920
	N255	N	0.898368	0.523999	0.814883
	N256	N	0.167089	0.901648	0.458803
	N257	N	0.166880	0.077757	0.526922
	N258	N	0.804321	0.077165	0.458666
	N259	N	0.805875	0.903422	0.529114
	N260	N	0.451836	0.170719	0.906395
	N261	N	0.519928	0.170102	0.081569
	N262	N	0.449846	0.809035	0.080145
	N263	N	0.520042	0.807976	0.906192
	N264	N	0.451086	0.900787	0.175028
	N265	N	0.520864	0.074987	0.173579
	N266	N	0.451062	0.076144	0.814332
	N267	N	0.519893	0.901443	0.812797
	N268	N	0.899326	0.168310	0.457516
	N269	N	0.071360	0.168164	0.528044
	N270	N	0.072948	0.809177	0.458687
	N271	N	0.899564	0.811133	0.529667
	N272	N	0.164732	0.453819	0.908285
	N273	N	0.166787	0.524326	0.082733
	N274	N	0.804796	0.455717	0.081525
	N275	N	0.804557	0.524235	0.906993
	O276	O	0.207911	0.890179	0.018090
	H277	H	0.208544	0.876135	0.010557
	H278	H	0.204511	0.881259	0.008217
	O279	O	0.363052	0.563680	0.544955
	H280	H	0.360331	0.567296	0.541557
	H281	H	0.378898	0.558011	0.558358
	O282	O	0.759977	0.208308	0.957395
	H283	H	0.767072	0.223847	0.948863
	H284	H	0.749560	0.230648	0.946631
	O285	O	0.458162	0.263161	0.480904
	H286	H	0.452323	0.266754	0.473493
	H287	H	0.454295	0.262615	0.463549
	O288	O	0.708683	0.712551	0.528546
	H289	H	0.712722	0.718339	0.557111
	H290	H	0.732380	0.724262	0.533909
	O291	O	0.313014	0.430788	0.473486
	H292	H	0.308937	0.444088	0.490059
	H293	H	0.307250	0.426666	0.460255
	O294	O	0.926072	0.062931	1.205507
	H295	H	0.935540	0.069524	1.206852
	H296	H	0.931739	0.042080	1.209020
	O297	O	0.422732	0.592034	0.337518
	H298	H	0.418107	0.584878	0.362811
	H299	H	0.428904	0.603063	0.323450
	O300	O	0.025833	0.168865	0.988036
	H301	H	0.043079	0.167801	0.986703
	H302	H	0.031414	0.166843	0.980512
	O303	O	0.578657	0.617480	0.492004
	H304	H	0.576477	0.614234	0.496317
	H305	H	0.587827	0.624792	0.512055
	O306	O	0.674965	0.671316	0.610130
	H307	H	0.703095	0.688500	0.636363
	H308	H	0.658920	0.676011	0.606939
	O309	O	0.297433	0.677222	0.681549
	H310	H	0.314590	0.652074	0.669036
	H311	H	0.311414	0.675587	0.655786
	O312	O	0.666181	0.473600	0.493716
	H313	H	0.671270	0.469217	0.488046
	H314	H	0.660964	0.488794	0.482392
	O315	O	0.764350	0.773998	1.026340
	H316	H	0.775146	0.790635	1.029023
	H317	H	0.733610	0.745817	1.021975
	O318	O	0.690955	0.519451	0.699439
	H319	H	0.697895	0.527235	0.712402
	H320	H	0.684047	0.510310	0.694818
	O321	O	0.200955	0.782604	0.783351
	H322	H	0.203588	0.769690	0.767971
	H323	H	0.218023	0.763241	0.802373
	O324	O	0.757896	1.054685	0.043129
	H325	H	0.757404	1.075631	0.026654
	H326	H	0.765878	1.063879	0.034245
	O327	O	0.008297	0.211098	1.189547
	H328	H	0.014771	0.210253	1.179539
	H329	H	0.013037	0.233431	1.203017
	O330	O	0.862068	0.843080	0.906563
	H331	H	0.866102	0.832235	0.909584
	H332	H	0.888340	0.838823	0.904500
	O333	O	0.675887	0.303763	0.682804
	H334	H	0.658991	0.329896	0.669292
	H335	H	0.657676	0.318766	0.658427
	O336	O	0.798868	0.177756	0.179795
	H337	H	0.802804	0.158924	0.163201
	H338	H	0.826710	0.164268	0.167826
	O339	O	1.169845	-0.197264	0.931032
	H340	H	1.166585	-0.204612	0.941460
	H341	H	1.168264	-0.214184	0.932079
	O342	O	0.154909	0.180315	-0.183548
	H343	H	0.159453	0.152129	-0.163360
	H344	H	0.124702	0.165870	-0.175204
	O345	O	0.156451	0.981413	1.103241
	H346	H	0.156806	0.984348	1.098336
	H347	H	0.166472	0.988779	1.100496
	O348	O	0.691181	0.283505	0.312707
	H349	H	0.698626	0.308113	0.326030
	H350	H	0.719572	0.257164	0.295905
	O351	O	0.790584	0.797464	0.187969
	H352	H	0.805515	0.826415	0.189366
	H353	H	0.802753	0.791018	0.163208
	O354	O	0.076932	-0.228640	1.075534
	H355	H	0.082726	-0.204078	1.079800
	H356	H	0.047492	-0.223300	1.074024
	O357	O	0.500929	0.402911	0.270908
	H358	H	0.492421	0.402707	0.255308
	H359	H	0.522191	0.406690	0.276889
	O360	O	0.280568	0.283500	0.698095
	H361	H	0.280960	0.293716	0.667388
	H362	H	0.256975	0.253758	0.726773
	O363	O	0.013118	-0.077929	0.202263
	H364	H	0.016413	-0.072901	0.206469
	H365	H	0.020884	-0.077258	0.199688
	O366	O	0.452774	0.283703	0.704393
	H367	H	0.439040	0.263902	0.714644
	H368	H	0.436926	0.284923	0.700993
	O369	O	1.028888	0.006061	-0.035638
	H370	H	1.036056	0.024762	-0.030880
	H371	H	1.041886	-0.011178	-0.026649
	O372	O	1.196964	1.199229	0.205901
	H373	H	1.215688	1.229716	0.233359
	H374	H	1.180091	1.190111	0.191381
	O375	O	0.836072	-0.049747	-0.033892
	H376	H	0.829293	-0.051719	-0.029128
	H377	H	0.845262	-0.026715	-0.035020
	O378	O	0.565236	0.603651	0.405534
	H379	H	0.570337	0.592320	0.412310
	H380	H	0.564637	0.612364	0.401201
	O381	O	-0.125985	0.921898	0.814442
	H382	H	-0.143271	0.930337	0.818071
	H383	H	-0.129225	0.929105	0.830437
	O384	O	0.760380	0.027407	0.771137
	H385	H	0.746478	0.039155	0.766163
	H386	H	0.746985	0.042842	0.760565
	O387	O	1.026070	0.911382	-0.199105
	H388	H	1.028403	0.911078	-0.191138
	H389	H	1.005128	0.905717	-0.205591
	O390	O	0.495143	0.528998	0.507943
	H391	H	0.493624	0.538104	0.504125
	H392	H	0.501079	0.533729	0.504172
	O393	O	0.542488	0.433882	0.718526
	H394	H	0.534726	0.436887	0.720851
	H395	H	0.522752	0.424829	0.718188
	O396	O	0.210722	1.037065	0.938584
	H397	H	0.207475	1.023173	0.937744
	H398	H	0.219459	1.030906	0.925385
	O399	O	-0.229242	0.198360	0.782842
	H400	H	-0.260549	0.232214	0.750441
	H401	H	-0.215621	0.190480	0.800751
	O402	O	0.330879	0.691453	0.386137
	H403	H	0.338965	0.681829	0.385869
	H404	H	0.340865	0.688208	0.387651
	O405	O	0.919797	0.205644	0.940873
	H406	H	0.926415	0.218301	0.928359
	H407	H	0.917542	0.199403	0.939050
	O408	O	-0.014651	-0.099754	0.004709
	H409	H	-0.018843	-0.109567	0.014656
	H410	H	-0.006899	-0.096664	-0.002082
	O411	O	0.764936	0.766940	0.773693
	H412	H	0.783063	0.767212	0.791654
	H413	H	0.780007	0.781473	0.785761
	O414	O	0.702069	0.429151	0.279857
	H415	H	0.723871	0.421699	0.265735
	H416	H	0.695392	0.441201	0.270769
	O417	O	0.518633	0.704470	0.704814
	H418	H	0.537456	0.700369	0.691621
	H419	H	0.513990	0.724282	0.731821
	O420	O	0.444000	0.497985	0.370976
	H421	H	0.446390	0.494997	0.368824
	H422	H	0.455022	0.512463	0.364716
	O423	O	-0.017655	0.176286	0.774749
	H424	H	-0.015351	0.194498	0.763890
	H425	H	-0.024647	0.172674	0.765570
	O426	O	0.268337	0.455316	0.714157
	H427	H	0.253943	0.446034	0.719578
	H428	H	0.260286	0.441288	0.719078
	O429	O	0.957251	0.844864	1.043637
	H430	H	0.935295	0.837628	1.055888
	H431	H	0.953817	0.858648	1.038238
	O432	O	0.505709	0.540785	0.357191
	H433	H	0.503362	0.526602	0.346242
	H434	H	0.518705	0.547738	0.359905
	O435	O	0.281927	0.639467	0.289531
	H436	H	0.298460	0.626777	0.304279
	H437	H	0.276318	0.643812	0.279642
	O438	O	0.110605	0.100137	0.166692
	H439	H	0.108999	0.112377	0.180577
	H440	H	0.102885	0.115444	0.164456
	O441	O	0.296109	0.302568	0.307188
	H442	H	0.324762	0.324119	0.311655
	H443	H	0.294311	0.317445	0.328240
	O444	O	0.680573	0.274556	0.470156
	H445	H	0.683415	0.267020	0.471232
	H446	H	0.677268	0.265339	0.465637
	O447	O	0.170464	0.849061	1.145778
	H448	H	0.182575	0.846118	1.135606
	H449	H	0.160719	0.869968	1.136973
	O450	O	0.056717	0.863910	0.831517
	H451	H	0.071780	0.865609	0.829549
	H452	H	0.077771	0.851021	0.826532
	O453	O	0.427203	0.548296	0.715950
	H454	H	0.427331	0.545278	0.713012
	H455	H	0.420432	0.549341	0.717325
	O456	O	0.135750	-0.014862	0.844959
	H457	H	0.134632	-0.038384	0.834319
	H458	H	0.152035	-0.022621	0.829204
	O459	O	1.010242	1.075467	-0.192488
	H460	H	1.004479	1.063117	-0.201009
	H461	H	1.008667	1.073229	-0.197722
	O462	O	0.777294	0.960599	0.199554
	H463	H	0.759255	0.967785	0.212562
	H464	H	0.782674	0.958002	0.182929
	O465	O	1.202908	0.204200	0.023947
	H466	H	1.216873	0.212424	0.026802
	H467	H	1.215715	0.201280	0.037572
	O468	O	0.506808	0.417546	0.289488
	H469	H	0.521013	0.424231	0.276730
	H470	H	0.517594	0.405843	0.291623
	O471	O	0.342737	0.709368	0.509942
	H472	H	0.358970	0.699858	0.491377
	H473	H	0.336000	0.719788	0.512689
	O474	O	0.337117	0.516449	0.332321
	H475	H	0.331615	0.525078	0.320691
	H476	H	0.337809	0.530609	0.327170
	O477	O	0.662203	0.508243	1.426919
	H478	H	0.678716	0.505652	1.414880
	H479	H	0.660623	0.526421	1.415918
	O480	O	0.269779	0.274674	0.530019
	H481	H	0.280573	0.263317	0.526477
	H482	H	0.250912	0.265312	0.526978
	O483	O	0.493760	0.284706	0.488995
	H484	H	0.496931	0.297423	0.489071
	H485	H	0.483907	0.282503	0.471067
	O486	O	0.403751	0.510167	0.522814
	H487	H	0.408468	0.520089	0.519650
	H488	H	0.402392	0.495801	0.516530
	O489	O	0.950794	0.768549	0.214109
	H490	H	0.956187	0.765983	0.215624
	H491	H	0.952401	0.757936	0.233210
