data_Molecule from HDF5

_cell_length_a		16.234294
_cell_length_b		16.240290
_cell_length_c		16.307461
_cell_angle_alpha	90.079263
_cell_angle_beta	90.114508
_cell_angle_gamma	90.072877
_symmetry_space_group_name_H-M	'P 1'
_symmetry_Int_Tables_number		1

loop_
	_symmetry_equiv_pos_as_xyz
	x,y,z

loop_
	_atom_site_label
	_atom_site_type_symbol
	_atom_site_fract_x
	_atom_site_fract_y
	_atom_site_fract_z
	H0	H	0.393374	0.836959	0.724996
	H1	H	0.592687	0.164469	0.724483
	H2	H	0.594627	0.837791	0.292823
	H3	H	0.391430	0.162846	0.291452
	H4	H	0.711315	0.398278	0.846017
	H5	H	0.712137	0.597208	0.172212
	H6	H	0.281055	0.597427	0.845975
	H7	H	0.280303	0.399533	0.172269
	H8	H	0.831384	0.714883	0.408789
	H9	H	0.159031	0.717585	0.608351
	H10	H	0.831952	0.287143	0.607769
	H11	H	0.158022	0.284510	0.410123
	H12	H	0.832867	0.400757	0.723571
	H13	H	0.159614	0.602124	0.724994
	H14	H	0.833561	0.602091	0.290665
	H15	H	0.160457	0.401576	0.295517
	H16	H	0.394729	0.715950	0.846648
	H17	H	0.598221	0.715668	0.171934
	H18	H	0.594406	0.283395	0.846349
	H19	H	0.398037	0.285128	0.173309
	H20	H	0.709779	0.837857	0.408934
	H21	H	0.709667	0.163804	0.610469
	H22	H	0.279347	0.836780	0.607170
	H23	H	0.280535	0.165547	0.412135
	H24	H	0.898390	0.336902	0.223953
	H25	H	0.099341	0.663617	0.225459
	H26	H	0.096132	0.336787	0.791998
	H27	H	0.895891	0.664335	0.793029
	H28	H	0.209595	0.900957	0.346030
	H29	H	0.210209	0.101668	0.671844
	H30	H	0.776753	0.101786	0.347045
	H31	H	0.778959	0.901652	0.672709
	H32	H	0.331854	0.215275	0.911009
	H33	H	0.659443	0.213858	0.109824
	H34	H	0.332283	0.782103	0.108865
	H35	H	0.659272	0.785931	0.910399
	H36	H	0.331004	0.898656	0.224977
	H37	H	0.657063	0.101927	0.227714
	H38	H	0.329942	0.098177	0.796910
	H39	H	0.658068	0.900906	0.793648
	H40	H	0.895098	0.215884	0.346403
	H41	H	0.093984	0.216888	0.672571
	H42	H	0.094167	0.785141	0.345985
	H43	H	0.894314	0.784589	0.671497
	H44	H	0.209480	0.335021	0.909768
	H45	H	0.212527	0.663824	0.107528
	H46	H	0.784511	0.335476	0.106474
	H47	H	0.778076	0.662486	0.906392
	H48	H	0.396263	0.121099	0.608083
	H49	H	0.590800	0.884179	0.598713
	H50	H	0.585089	0.117018	0.418475
	H51	H	0.393332	0.881975	0.417838
	H52	H	0.589207	0.411388	0.124183
	H53	H	0.589379	0.592755	0.892801
	H54	H	0.396790	0.590765	0.127805
	H55	H	0.399050	0.394997	0.888862
	H56	H	0.115555	0.591627	0.403823
	H57	H	0.875725	0.601097	0.604631
	H58	H	0.108947	0.418338	0.596413
	H59	H	0.878318	0.407120	0.415368
	H60	H	0.115726	0.408463	0.611831
	H61	H	0.882597	0.591100	0.592496
	H62	H	0.113797	0.605581	0.422998
	H63	H	0.879170	0.409934	0.415820
	H64	H	0.408539	0.582912	0.121254
	H65	H	0.588595	0.589539	0.893776
	H66	H	0.586283	0.401199	0.126166
	H67	H	0.395381	0.414321	0.893591
	H68	H	0.584137	0.116799	0.418256
	H69	H	0.586007	0.882288	0.607868
	H70	H	0.407285	0.117038	0.606155
	H71	H	0.405856	0.883808	0.409441
	H72	H	0.904527	0.616588	0.102140
	H73	H	0.082651	0.384537	0.104512
	H74	H	0.094056	0.617778	0.918234
	H75	H	0.904707	0.383572	0.912988
	H76	H	0.084744	0.911354	0.623959
	H77	H	0.083105	0.095747	0.393926
	H78	H	0.911086	0.090438	0.621321
	H79	H	0.900718	0.904862	0.392334
	H80	H	0.613779	0.100412	0.918668
	H81	H	0.376182	0.105599	0.093469
	H82	H	0.610199	0.909435	0.098959
	H83	H	0.382495	0.911273	0.925776
	H84	H	0.610585	0.910643	0.103904
	H85	H	0.384325	0.080074	0.092915
	H86	H	0.608062	0.085611	0.922000
	H87	H	0.376827	0.911275	0.909042
	H88	H	0.901052	0.102973	0.628948
	H89	H	0.090149	0.094421	0.391562
	H90	H	0.085636	0.906992	0.625218
	H91	H	0.897345	0.911290	0.393151
	H92	H	0.086723	0.616817	0.912150
	H93	H	0.089027	0.384592	0.095897
	H94	H	0.906120	0.616187	0.099918
	H95	H	0.905311	0.385200	0.915887
	H96	H	0.399297	0.115762	0.597822
	H97	H	0.580511	0.885820	0.599993
	H98	H	0.584875	0.116453	0.418975
	H99	H	0.406068	0.888175	0.424011
	H100	H	0.596403	0.404401	0.127754
	H101	H	0.585922	0.592219	0.894108
	H102	H	0.410112	0.597684	0.124936
	H103	H	0.414085	0.406964	0.896952
	H104	H	0.106636	0.583499	0.424301
	H105	H	0.880345	0.585179	0.607658
	H106	H	0.113893	0.399554	0.594801
	H107	H	0.878873	0.409265	0.414068
	H108	H	0.903394	0.616820	0.099529
	H109	H	0.092288	0.380914	0.106322
	H110	H	0.086061	0.613364	0.920805
	H111	H	0.902110	0.383539	0.915486
	H112	H	0.089420	0.910262	0.625357
	H113	H	0.085882	0.089138	0.394896
	H114	H	0.894624	0.086971	0.625304
	H115	H	0.905068	0.910518	0.395171
	H116	H	0.613437	0.088837	0.907469
	H117	H	0.374895	0.089920	0.115441
	H118	H	0.611867	0.906062	0.102920
	H119	H	0.376070	0.897255	0.918570
	C120	C	0.371700	0.009111	0.631748
	C121	C	0.615016	0.992065	0.631296
	C122	C	0.614769	0.009265	0.388313
	C123	C	0.372066	0.992342	0.387701
	C124	C	0.618469	0.376643	0.017861
	C125	C	0.617879	0.620489	1.001141
	C126	C	0.375040	0.620217	0.017411
	C127	C	0.374308	0.377013	1.000899
	C128	C	0.004320	0.622616	0.387240
	C129	C	0.987263	0.622879	0.630803
	C130	C	0.004514	0.379945	0.629771
	C131	C	0.987109	0.379314	0.386916
	C132	C	0.876230	0.508525	0.129391
	C133	C	0.118329	0.491521	0.130995
	C134	C	0.117687	0.507854	0.887442
	C135	C	0.874322	0.492029	0.886038
	C136	C	0.115644	0.879691	0.517336
	C137	C	0.115787	0.123131	0.500697
	C138	C	0.872164	0.123205	0.518037
	C139	C	0.871790	0.879195	0.500750
	C140	C	0.503556	0.120983	0.887993
	C141	C	0.486382	0.121282	0.130800
	C142	C	0.503118	0.878394	0.131235
	C143	C	0.486382	0.877790	0.887958
	C144	C	0.373409	0.885938	0.686857
	C145	C	0.613135	0.115317	0.686910
	C146	C	0.613938	0.886518	0.331554
	C147	C	0.372339	0.114661	0.330645
	C148	C	0.673296	0.378464	0.895017
	C149	C	0.674388	0.618271	0.123544
	C150	C	0.319138	0.618370	0.894579
	C151	C	0.318534	0.379265	0.123793
	C152	C	0.880695	0.677574	0.388599
	C153	C	0.110211	0.679486	0.628896
	C154	C	0.881093	0.324723	0.627927
	C155	C	0.109714	0.322872	0.389465
	C156	C	0.881592	0.381556	0.685268
	C157	C	0.110570	0.622121	0.686886
	C158	C	0.881933	0.621738	0.329595
	C159	C	0.110884	0.381271	0.332631
	C160	C	0.375811	0.676913	0.895001
	C161	C	0.617470	0.676704	0.123525
	C162	C	0.615085	0.321364	0.895045
	C163	C	0.376911	0.322268	0.124192
	C164	C	0.671368	0.886483	0.389058
	C165	C	0.671202	0.115142	0.629978
	C166	C	0.316650	0.885922	0.628193
	C167	C	0.317216	0.115973	0.390502
	C168	C	0.878253	0.385749	0.185585
	C169	C	0.118291	0.614695	0.186806
	C170	C	0.115972	0.385396	0.830736
	C171	C	0.875748	0.615013	0.830670
	C172	C	0.171572	0.880842	0.394665
	C173	C	0.171869	0.121474	0.623356
	C174	C	0.815087	0.121833	0.395663
	C175	C	0.816574	0.881124	0.623747
	C176	C	0.380404	0.177068	0.890796
	C177	C	0.609876	0.176775	0.129850
	C178	C	0.380588	0.820827	0.129454
	C179	C	0.609973	0.823147	0.889750
	C180	C	0.380087	0.878947	0.187029
	C181	C	0.608772	0.120904	0.188465
	C182	C	0.379423	0.119208	0.833726
	C183	C	0.609128	0.880122	0.831574
	C184	C	0.874030	0.178661	0.395408
	C185	C	0.113989	0.178746	0.623649
	C186	C	0.114073	0.823447	0.394685
	C187	C	0.874038	0.822984	0.623016
	C188	C	0.172125	0.384290	0.889520
	C189	C	0.174659	0.614751	0.128056
	C190	C	0.821773	0.384936	0.127022
	C191	C	0.817074	0.614004	0.887294
	C192	C	0.394290	0.095504	0.610333
	C193	C	0.592367	0.906433	0.608848
	C194	C	0.591435	0.094674	0.411678
	C195	C	0.395016	0.906881	0.410418
	C196	C	0.596909	0.398991	0.103724
	C197	C	0.594775	0.598169	0.915748
	C198	C	0.398217	0.597326	0.102560
	C199	C	0.396275	0.399148	0.915392
	C200	C	0.089759	0.600159	0.410309
	C201	C	0.901743	0.599429	0.608115
	C202	C	0.090594	0.402316	0.607547
	C203	C	0.900977	0.402181	0.408775
	C204	C	0.898364	0.594415	0.107018
	C205	C	0.094977	0.405571	0.108665
	C206	C	0.095396	0.593855	0.910190
	C207	C	0.897401	0.406260	0.908300
	C208	C	0.093259	0.902694	0.602512
	C209	C	0.092979	0.100014	0.415463
	C210	C	0.895363	0.100123	0.603069
	C211	C	0.894284	0.902233	0.415486
	C212	C	0.589455	0.098247	0.909642
	C213	C	0.400627	0.098349	0.107602
	C214	C	0.588722	0.901860	0.108672
	C215	C	0.400620	0.900037	0.911014
	Zn216	Zn	0.493764	0.000255	0.760035
	Zn217	Zn	0.493705	0.000855	0.259637
	Zn218	Zn	0.746848	0.499018	0.009032
	Zn219	Zn	0.245816	0.499019	0.009023
	Zn220	Zn	-0.005263	0.751032	0.508579
	Zn221	Zn	-0.005480	0.251515	0.509201
	Zn222	Zn	-0.003500	0.500510	0.758168
	Zn223	Zn	-0.003237	0.501188	0.258916
	Zn224	Zn	0.495944	0.749384	0.009731
	Zn225	Zn	0.496214	0.248467	0.010036
	Zn226	Zn	0.743423	0.000930	0.509617
	Zn227	Zn	0.243909	0.000977	0.509006
	N228	N	0.406795	0.963825	0.689135
	N229	N	0.578747	0.037788	0.687915
	N230	N	0.579395	0.963890	0.331085
	N231	N	0.405779	0.037033	0.328768
	N232	N	0.675683	0.412113	0.972427
	N233	N	0.674918	0.584325	0.046147
	N234	N	0.318520	0.583853	0.971371
	N235	N	0.316545	0.412322	0.046160
	N236	N	0.957895	0.678567	0.423660
	N237	N	0.032633	0.680140	0.594869
	N238	N	0.958601	0.323647	0.594037
	N239	N	0.031608	0.321430	0.422194
	N240	N	0.959397	0.415133	0.686645
	N241	N	0.033062	0.587715	0.688347
	N242	N	0.959744	0.588478	0.328480
	N243	N	0.033506	0.415498	0.330877
	N244	N	0.410052	0.678147	0.972488
	N245	N	0.582883	0.678351	0.046538
	N246	N	0.581919	0.320079	0.972436
	N247	N	0.410763	0.320561	0.046913
	N248	N	0.671970	0.963703	0.423726
	N249	N	0.672327	0.037727	0.595904
	N250	N	0.315393	0.963639	0.594758
	N251	N	0.317025	0.038834	0.425386
	N252	N	0.911457	0.463737	0.187242
	N253	N	0.084102	0.537180	0.188780
	N254	N	0.082767	0.463246	0.829367
	N255	N	0.910822	0.537909	0.829666
	N256	N	0.172565	0.915381	0.471739
	N257	N	0.173141	0.087430	0.546176
	N258	N	0.813760	0.088189	0.472998
	N259	N	0.814946	0.915271	0.546596
	N260	N	0.458561	0.178485	0.923580
	N261	N	0.532777	0.177147	0.094801
	N262	N	0.458124	0.820287	0.095444
	N263	N	0.532724	0.821595	0.924279
	N264	N	0.457306	0.913858	0.188299
	N265	N	0.531052	0.087064	0.189186
	N266	N	0.456818	0.085134	0.831851
	N267	N	0.531203	0.913270	0.830221
	N268	N	0.908636	0.179775	0.472447
	N269	N	0.079928	0.180003	0.546294
	N270	N	0.079930	0.822645	0.471788
	N271	N	0.907369	0.821435	0.545536
	N272	N	0.173296	0.461513	0.924178
	N273	N	0.174681	0.537022	0.093942
	N274	N	0.820551	0.462184	0.092712
	N275	N	0.816038	0.536450	0.920927
	O276	O	0.578301	0.548963	0.522987
	H277	H	0.581054	0.547067	0.521900
	H278	H	0.584438	0.548842	0.521438
	O279	O	0.435481	0.596573	0.518376
	H280	H	0.432034	0.592904	0.531128
	H281	H	0.439609	0.597993	0.518546
	O282	O	0.506492	0.426338	-0.385165
	H283	H	0.513576	0.422867	-0.379888
	H284	H	0.502541	0.423760	-0.380556
	O285	O	1.147993	0.039752	1.020420
	H286	H	1.146507	0.047717	1.024273
	H287	H	1.162703	0.037820	1.021039
	O288	O	0.535797	0.660263	0.480168
	H289	H	0.528158	0.668923	0.466723
	H290	H	0.531107	0.652915	0.493704
	O291	O	0.016859	1.040522	-0.075199
	H292	H	0.012984	1.033036	-0.070175
	H293	H	0.029392	1.045896	-0.075230
	O294	O	0.590787	0.496059	0.525524
	H295	H	0.595959	0.513723	0.530716
	H296	H	0.590791	0.494772	0.530055
	O297	O	0.093309	-0.101239	1.001919
	H298	H	0.099547	-0.100053	0.999429
	H299	H	0.081308	-0.093951	0.997459
	O300	O	0.529244	0.530658	0.541984
	H301	H	0.524982	0.529628	0.535571
	H302	H	0.516632	0.523985	0.543824
	O303	O	0.973333	1.010021	0.052948
	H304	H	0.978562	1.007767	0.064269
	H305	H	0.963312	0.995823	0.050127
	O306	O	-0.001334	0.886885	1.018718
	H307	H	-0.009223	0.886798	1.026688
	H308	H	-0.011378	0.869919	1.024963
	O309	O	0.504897	0.477687	0.599509
	H310	H	0.510586	0.470068	0.587081
	H311	H	0.511258	0.490037	0.594194
	O312	O	0.098140	0.031865	0.084696
	H313	H	0.089693	0.040857	0.084727
	H314	H	0.085796	0.041429	0.088547
	O315	O	1.008487	-0.059108	-0.061679
	H316	H	1.005166	-0.060089	-0.069300
	H317	H	1.008544	-0.053666	-0.056942
	O318	O	0.997910	0.971751	1.078874
	H319	H	0.982621	0.977951	1.071652
	H320	H	1.011478	0.961209	1.068553
	O321	O	0.034793	-0.018671	0.917900
	H322	H	0.031317	-0.013331	0.938555
	H323	H	0.040805	-0.011806	0.916586
	O324	O	0.874345	0.103387	-0.071142
	H325	H	0.887836	0.105503	-0.080229
	H326	H	0.863145	0.114817	-0.073451
	O327	O	-0.019165	-0.059899	0.070973
	H328	H	-0.006315	-0.055939	0.073331
	H329	H	-0.018681	-0.078453	0.077378
	O330	O	0.407992	0.451818	0.539464
	H331	H	0.403318	0.462730	0.540750
	H332	H	0.415502	0.451912	0.535409
	O333	O	-0.115529	1.111422	1.109899
	H334	H	-0.100631	1.117414	1.098762
	H335	H	-0.119669	1.111467	1.110557
	O336	O	-0.126365	-0.017704	0.077662
	H337	H	-0.117816	-0.007280	0.065084
	H338	H	-0.121231	-0.018744	0.079603
	O339	O	0.447453	0.483401	0.427457
	H340	H	0.443496	0.470762	0.424750
	H341	H	0.448609	0.489166	0.428563
	O342	O	1.571237	1.451595	1.581690
	H343	H	1.576311	1.463005	1.591337
	H344	H	1.567665	1.446259	1.592872
	O345	O	0.982693	0.970662	0.021402
	H346	H	0.986527	0.977950	0.032619
	H347	H	0.976932	0.980713	0.027737
	O348	O	0.492652	0.456933	0.515710
	H349	H	0.502302	0.455750	0.522493
	H350	H	0.496124	0.457672	0.518222
	O351	O	0.504404	0.449357	0.483988
	H352	H	0.498947	0.456569	0.478983
	H353	H	0.515620	0.443725	0.483566
	O354	O	0.533621	0.451660	0.545204
	H355	H	0.530160	0.437564	0.549836
	H356	H	0.520838	0.458820	0.551489
	O357	O	1.576203	-0.496758	-0.480619
	H358	H	1.568772	-0.502195	-0.480573
	H359	H	1.570204	-0.482057	-0.485089
	O360	O	0.439810	0.564191	0.357796
	H361	H	0.436181	0.565875	0.353250
	H362	H	0.424437	0.575960	0.350784
	O363	O	0.432366	0.558311	0.531042
	H364	H	0.439554	0.556304	0.540093
	H365	H	0.435792	0.557351	0.527691
	O366	O	0.992640	1.074993	0.954114
	H367	H	0.991400	1.059479	0.950686
	H368	H	1.005141	1.080065	0.947269
	O369	O	0.948728	0.113322	0.912301
	H370	H	0.939986	0.117021	0.897667
	H371	H	0.947306	0.108953	0.913711
	O372	O	-0.146592	0.016624	0.023045
	H373	H	-0.149285	0.021238	0.019410
	H374	H	-0.157429	0.008738	0.023108
	O375	O	1.098245	-0.013543	0.046996
	H376	H	1.089439	-0.029170	0.041807
	H377	H	1.089154	-0.017956	0.042128
	O378	O	0.928092	0.863294	0.985880
	H379	H	0.942573	0.856799	0.984860
	H380	H	0.929381	0.868963	0.990180
	O381	O	0.460783	0.511636	0.550288
	H382	H	0.476441	0.503096	0.535053
	H383	H	0.467900	0.515544	0.546240
