data_Molecule from HDF5

_cell_length_a		16.602672
_cell_length_b		16.477960
_cell_length_c		16.548686
_cell_angle_alpha	89.895648
_cell_angle_beta	89.895114
_cell_angle_gamma	89.946938
_symmetry_space_group_name_H-M	'P 1'
_symmetry_Int_Tables_number		1

loop_
	_symmetry_equiv_pos_as_xyz
	x,y,z

loop_
	_atom_site_label
	_atom_site_type_symbol
	_atom_site_fract_x
	_atom_site_fract_y
	_atom_site_fract_z
	H0	H	0.396671	0.845992	0.723152
	H1	H	0.607333	0.159999	0.721452
	H2	H	0.608094	0.844451	0.280151
	H3	H	0.399712	0.160559	0.281549
	H4	H	0.723578	0.397095	0.844593
	H5	H	0.725529	0.609428	0.157217
	H6	H	0.277809	0.612490	0.845980
	H7	H	0.279207	0.396702	0.157047
	H8	H	0.845704	0.724905	0.395995
	H9	H	0.159171	0.722836	0.604375
	H10	H	0.845143	0.280424	0.608048
	H11	H	0.158860	0.283400	0.399318
	H12	H	0.845378	0.397976	0.723538
	H13	H	0.158098	0.608179	0.721513
	H14	H	0.846613	0.610395	0.277397
	H15	H	0.158126	0.398010	0.280501
	H16	H	0.395837	0.726834	0.845855
	H17	H	0.607346	0.724281	0.158569
	H18	H	0.604763	0.283118	0.843392
	H19	H	0.397612	0.282050	0.158804
	H20	H	0.725798	0.845346	0.393883
	H21	H	0.723183	0.159935	0.605127
	H22	H	0.279621	0.846135	0.607340
	H23	H	0.282613	0.160471	0.397798
	H24	H	0.898239	0.344985	0.222017
	H25	H	0.106217	0.660792	0.220826
	H26	H	0.104547	0.345246	0.781634
	H27	H	0.897144	0.661764	0.781090
	H28	H	0.222141	0.898942	0.342085
	H29	H	0.221851	0.105732	0.657550
	H30	H	0.781982	0.107042	0.343635
	H31	H	0.779985	0.895184	0.657322
	H32	H	0.344276	0.219465	0.900436
	H33	H	0.660096	0.222186	0.104642
	H34	H	0.344580	0.781856	0.105683
	H35	H	0.658726	0.781275	0.896359
	H36	H	0.345094	0.897561	0.222378
	H37	H	0.660358	0.103794	0.220399
	H38	H	0.346141	0.105853	0.780623
	H39	H	0.658705	0.896066	0.779059
	H40	H	0.897389	0.225241	0.344838
	H41	H	0.103717	0.220764	0.659740
	H42	H	0.104757	0.783275	0.342015
	H43	H	0.897817	0.780286	0.657513
	H44	H	0.221708	0.345486	0.896246
	H45	H	0.223334	0.660412	0.105849
	H46	H	0.781698	0.344152	0.106297
	H47	H	0.779545	0.659380	0.895213
	H48	H	0.417288	0.114659	0.593812
	H49	H	0.589243	0.892352	0.587298
	H50	H	0.591523	0.113584	0.413136
	H51	H	0.415308	0.890119	0.412054
	H52	H	0.594729	0.412417	0.114619
	H53	H	0.594571	0.590525	0.889127
	H54	H	0.412186	0.589874	0.112973
	H55	H	0.410802	0.410822	0.887305
	H56	H	0.113437	0.589101	0.409829
	H57	H	0.887516	0.593417	0.597473
	H58	H	0.114716	0.413890	0.595120
	H59	H	0.891826	0.419688	0.411812
	H60	H	0.113762	0.408703	0.589653
	H61	H	0.889700	0.597477	0.585863
	H62	H	0.114822	0.593631	0.410045
	H63	H	0.887152	0.412785	0.408177
	H64	H	0.412779	0.587864	0.111729
	H65	H	0.589062	0.586711	0.892341
	H66	H	0.591676	0.415422	0.112240
	H67	H	0.410796	0.411978	0.888035
	H68	H	0.593114	0.114398	0.411715
	H69	H	0.593299	0.888923	0.587726
	H70	H	0.414760	0.112381	0.583327
	H71	H	0.409279	0.889405	0.414523
	H72	H	0.915326	0.612881	0.086106
	H73	H	0.086038	0.392658	0.087351
	H74	H	0.087027	0.616754	0.907098
	H75	H	0.921842	0.392843	0.907849
	H76	H	0.090006	0.915820	0.611032
	H77	H	0.094826	0.095618	0.387033
	H78	H	0.907738	0.084984	0.612570
	H79	H	0.923506	0.909526	0.390126
	H80	H	0.617394	0.096137	0.907704
	H81	H	0.388053	0.091824	0.099358
	H82	H	0.610932	0.914742	0.086499
	H83	H	0.391057	0.917367	0.910434
	H84	H	0.613988	0.916628	0.095003
	H85	H	0.389011	0.098366	0.089954
	H86	H	0.613553	0.092689	0.915433
	H87	H	0.390241	0.911667	0.913200
	H88	H	0.918873	0.091726	0.610393
	H89	H	0.092237	0.088299	0.389712
	H90	H	0.089282	0.910644	0.611722
	H91	H	0.905524	0.909004	0.384121
	H92	H	0.087895	0.613278	0.916642
	H93	H	0.096041	0.389202	0.085871
	H94	H	0.910046	0.615219	0.087602
	H95	H	0.912449	0.393246	0.921023
	H96	H	0.407369	0.116905	0.589848
	H97	H	0.590225	0.889843	0.591402
	H98	H	0.591140	0.114393	0.410564
	H99	H	0.410147	0.887504	0.408127
	H100	H	0.590404	0.411225	0.114289
	H101	H	0.588426	0.593257	0.890333
	H102	H	0.414596	0.589482	0.112163
	H103	H	0.411505	0.410977	0.888015
	H104	H	0.112527	0.591409	0.413754
	H105	H	0.892533	0.585146	0.588817
	H106	H	0.111752	0.415818	0.588842
	H107	H	0.890399	0.412046	0.416623
	H108	H	0.914690	0.615203	0.091580
	H109	H	0.091516	0.388813	0.095445
	H110	H	0.095985	0.617619	0.911882
	H111	H	0.906856	0.386470	0.907392
	H112	H	0.093966	0.912805	0.612861
	H113	H	0.086699	0.094827	0.389415
	H114	H	0.908396	0.097725	0.616727
	H115	H	0.912186	0.925043	0.392377
	H116	H	0.614851	0.087177	0.908443
	H117	H	0.392999	0.087738	0.090088
	H118	H	0.615249	0.908178	0.091294
	H119	H	0.392751	0.916483	0.916167
	C120	C	0.380777	0.010926	0.621994
	C121	C	0.623748	0.993727	0.621994
	C122	C	0.623989	0.010221	0.379616
	C123	C	0.380470	0.993520	0.379719
	C124	C	0.623838	0.380978	0.009929
	C125	C	0.623347	0.623515	0.993501
	C126	C	0.380551	0.623329	0.009306
	C127	C	0.379444	0.379846	0.992037
	C128	C	0.010486	0.624250	0.378865
	C129	C	0.993463	0.624072	0.621778
	C130	C	0.009999	0.380803	0.623877
	C131	C	0.993378	0.382196	0.380395
	C132	C	0.880981	0.510695	0.121524
	C133	C	0.122946	0.494713	0.121613
	C134	C	0.122619	0.511867	0.879737
	C135	C	0.880888	0.494537	0.879730
	C136	C	0.123463	0.880783	0.508233
	C137	C	0.122488	0.123771	0.492804
	C138	C	0.880243	0.124054	0.509499
	C139	C	0.881152	0.881419	0.492483
	C140	C	0.511190	0.123691	0.879440
	C141	C	0.494007	0.123870	0.123714
	C142	C	0.510070	0.880635	0.123378
	C143	C	0.494210	0.881693	0.880462
	C144	C	0.378100	0.893179	0.683100
	C145	C	0.625600	0.112511	0.681774
	C146	C	0.626445	0.891895	0.319697
	C147	C	0.380523	0.113090	0.321239
	C148	C	0.683503	0.378700	0.891728
	C149	C	0.684720	0.627263	0.110728
	C150	C	0.318909	0.629288	0.892554
	C151	C	0.319489	0.378395	0.110199
	C152	C	0.892655	0.684826	0.376802
	C153	C	0.111683	0.683529	0.623016
	C154	C	0.892243	0.320976	0.626139
	C155	C	0.111552	0.322874	0.379648
	C156	C	0.892283	0.379109	0.683892
	C157	C	0.111272	0.626247	0.681421
	C158	C	0.893215	0.627928	0.317955
	C159	C	0.111147	0.379839	0.320616
	C160	C	0.377885	0.685938	0.892404
	C161	C	0.625935	0.684340	0.111269
	C162	C	0.624571	0.321906	0.891257
	C163	C	0.378334	0.321205	0.110909
	C164	C	0.684875	0.892316	0.376610
	C165	C	0.683353	0.112502	0.623914
	C166	C	0.319971	0.893279	0.625573
	C167	C	0.321842	0.112878	0.378333
	C168	C	0.879350	0.392249	0.182038
	C169	C	0.124827	0.613361	0.181199
	C170	C	0.123604	0.392855	0.820980
	C171	C	0.878833	0.613682	0.820579
	C172	C	0.182459	0.880095	0.389646
	C173	C	0.181975	0.124921	0.610825
	C174	C	0.821029	0.126208	0.391185
	C175	C	0.820624	0.877747	0.610328
	C176	C	0.392128	0.181048	0.880134
	C177	C	0.612779	0.182581	0.123937
	C178	C	0.391919	0.821309	0.124669
	C179	C	0.611722	0.821174	0.878272
	C180	C	0.392263	0.878750	0.183064
	C181	C	0.613080	0.124014	0.181496
	C182	C	0.392999	0.124490	0.820741
	C183	C	0.611567	0.878345	0.819556
	C184	C	0.878388	0.184861	0.391699
	C185	C	0.123035	0.181909	0.611817
	C186	C	0.124355	0.822326	0.389436
	C187	C	0.879077	0.820287	0.610383
	C188	C	0.181700	0.392987	0.878256
	C189	C	0.183092	0.613056	0.123830
	C190	C	0.821691	0.391688	0.124079
	C191	C	0.820115	0.612662	0.877287
	C192	C	0.406132	0.093316	0.596300
	C193	C	0.598300	0.911641	0.596323
	C194	C	0.598865	0.092758	0.404813
	C195	C	0.404661	0.910632	0.404504
	C196	C	0.599309	0.405949	0.092287
	C197	C	0.597932	0.597735	0.911817
	C198	C	0.405959	0.596532	0.091000
	C199	C	0.403892	0.404470	0.909343
	C200	C	0.092202	0.598698	0.403965
	C201	C	0.911308	0.599338	0.597531
	C202	C	0.092055	0.405809	0.598713
	C203	C	0.911138	0.407423	0.405276
	C204	C	0.905950	0.593030	0.095859
	C205	C	0.098163	0.411886	0.096738
	C206	C	0.097629	0.594419	0.904617
	C207	C	0.906273	0.412270	0.904872
	C208	C	0.098333	0.905807	0.590649
	C209	C	0.098099	0.099692	0.410127
	C210	C	0.904782	0.098626	0.591776
	C211	C	0.906482	0.907081	0.410496
	C212	C	0.593738	0.099249	0.903638
	C213	C	0.411503	0.099587	0.100211
	C214	C	0.591998	0.905904	0.098165
	C215	C	0.412532	0.907677	0.905908
	Zn216	Zn	0.502366	0.002350	0.750216
	Zn217	Zn	0.502754	0.001815	0.251976
	Zn218	Zn	0.752077	0.502226	0.001137
	Zn219	Zn	0.251676	0.503205	0.000358
	Zn220	Zn	0.002225	0.752425	0.500001
	Zn221	Zn	0.001421	0.252913	0.501849
	Zn222	Zn	0.001623	0.503774	0.751251
	Zn223	Zn	0.001942	0.503159	0.250572
	Zn224	Zn	0.501785	0.752266	0.001905
	Zn225	Zn	0.502659	0.252295	0.001445
	Zn226	Zn	0.751831	0.001953	0.500517
	Zn227	Zn	0.251693	0.002705	0.501015
	N228	N	0.415314	0.967411	0.680807
	N229	N	0.589461	0.037420	0.680936
	N230	N	0.589078	0.966273	0.321582
	N231	N	0.415861	0.037680	0.321586
	N232	N	0.683200	0.414608	0.966503
	N233	N	0.683505	0.590332	0.036377
	N234	N	0.320475	0.591086	0.966288
	N235	N	0.320082	0.414078	0.035178
	N236	N	0.966659	0.682955	0.413793
	N237	N	0.037287	0.682520	0.586717
	N238	N	0.966426	0.322053	0.589447
	N239	N	0.037104	0.324063	0.415925
	N240	N	0.966594	0.415705	0.682518
	N241	N	0.036784	0.590271	0.680883
	N242	N	0.967467	0.591130	0.319184
	N243	N	0.036504	0.415890	0.320827
	N244	N	0.415568	0.682295	0.966051
	N245	N	0.588528	0.682147	0.037416
	N246	N	0.588309	0.323128	0.965885
	N247	N	0.415016	0.321840	0.036406
	N248	N	0.683472	0.967023	0.413142
	N249	N	0.682440	0.037704	0.587632
	N250	N	0.321380	0.967742	0.588276
	N251	N	0.321544	0.037510	0.413873
	N252	N	0.915474	0.467203	0.180691
	N253	N	0.088154	0.538677	0.179942
	N254	N	0.087601	0.467827	0.821725
	N255	N	0.915850	0.539178	0.821856
	N256	N	0.182217	0.915448	0.464878
	N257	N	0.181677	0.089538	0.535759
	N258	N	0.821917	0.089222	0.465601
	N259	N	0.821793	0.915042	0.536119
	N260	N	0.466840	0.180794	0.915774
	N261	N	0.537764	0.182905	0.088915
	N262	N	0.466344	0.822197	0.088308
	N263	N	0.537666	0.822999	0.915355
	N264	N	0.466769	0.914725	0.182395
	N265	N	0.538082	0.088743	0.181801
	N266	N	0.468229	0.089833	0.819958
	N267	N	0.537272	0.915207	0.820616
	N268	N	0.914117	0.183894	0.466447
	N269	N	0.086967	0.181497	0.537306
	N270	N	0.088635	0.822541	0.464301
	N271	N	0.915886	0.822329	0.535963
	N272	N	0.181490	0.468148	0.913954
	N273	N	0.182107	0.538095	0.087737
	N274	N	0.822461	0.466437	0.087333
	N275	N	0.821181	0.537677	0.913500
	O276	O	0.977710	0.788465	0.212040
	H277	H	0.957418	0.773385	0.227125
	H278	H	0.947401	0.789906	0.218818
	O279	O	0.195395	-0.188046	0.885877
	H280	H	0.196167	-0.184543	0.910976
	H281	H	0.212753	-0.203329	0.878028
	O282	O	0.556579	0.448687	0.728765
	H283	H	0.545089	0.433877	0.732208
	H284	H	0.562308	0.437920	0.727416
	O285	O	0.465040	0.285900	0.718066
	H286	H	0.457298	0.272355	0.714979
	H287	H	0.454180	0.274372	0.729750
	O288	O	0.942770	-0.123293	0.981932
	H289	H	0.948239	-0.127887	0.965034
	H290	H	0.948971	-0.127308	0.992141
	O291	O	0.667727	0.717337	0.516683
	H292	H	0.682235	0.717143	0.527011
	H293	H	0.662467	0.714728	0.535091
	O294	O	0.167591	0.084130	0.007447
	H295	H	0.167805	0.101075	-0.003723
	H296	H	0.185125	0.077809	-0.010729
	O297	O	0.860279	0.156344	-0.070305
	H298	H	0.879323	0.149501	-0.081963
	H299	H	0.858139	0.152478	-0.055630
	O300	O	0.208524	0.170059	0.209113
	H301	H	0.207449	0.137505	0.213774
	H302	H	0.241935	0.189456	0.243109
	O303	O	-0.100201	-0.012756	0.205061
	H304	H	-0.101754	0.007278	0.204904
	H305	H	-0.083999	-0.009774	0.204946
	O306	O	1.157503	-0.119609	-0.009344
	H307	H	1.152931	-0.128327	-0.008481
	H308	H	1.155516	-0.128433	-0.014052
	O309	O	0.447794	0.475227	0.280863
	H310	H	0.461159	0.459291	0.289866
	H311	H	0.450057	0.482109	0.271179
	O312	O	0.313095	0.315539	0.319358
	H313	H	0.337167	0.325993	0.339202
	H314	H	0.324772	0.334121	0.339003
	O315	O	0.620835	0.454013	0.571034
	H316	H	0.631817	0.456751	0.572373
	H317	H	0.608882	0.450056	0.571922
	O318	O	1.011546	0.953438	-0.191617
	H319	H	1.009700	0.961703	-0.207383
	H320	H	0.993279	0.948983	-0.181466
	O321	O	0.188882	1.183525	0.813866
	H322	H	0.171202	1.169848	0.840179
	H323	H	0.173280	1.158979	0.825225
	O324	O	1.083207	-0.021134	0.841972
	H325	H	1.076221	-0.034400	0.840445
	H326	H	1.071242	-0.022898	0.830512
	O327	O	0.701618	0.699890	0.698222
	H328	H	0.714353	0.704615	0.690204
	H329	H	0.658628	0.699408	0.707974
	O330	O	0.283496	0.529093	0.284642
	H331	H	0.291446	0.531832	0.271147
	H332	H	0.277680	0.540452	0.270024
	O333	O	0.668923	0.519432	0.680702
	H334	H	0.678484	0.527097	0.702611
	H335	H	0.653433	0.529376	0.686926
	O336	O	0.387649	0.474856	0.440704
	H337	H	0.387670	0.468576	0.436537
	H338	H	0.391677	0.482580	0.416990
	O339	O	0.284835	0.719881	0.466882
	H340	H	0.269176	0.719461	0.479691
	H341	H	0.271282	0.721983	0.459783
	O342	O	0.114160	0.796108	-0.212379
	H343	H	0.124353	0.791537	-0.207067
	H344	H	0.130687	0.767263	-0.229186
	O345	O	0.437726	0.400983	0.511269
	H346	H	0.430384	0.415745	0.491144
	H347	H	0.471096	0.392318	0.502731
	O348	O	0.286654	0.476847	0.718930
	H349	H	0.268665	0.461077	0.738451
	H350	H	0.282692	0.444142	0.714262
	O351	O	0.218804	0.220000	1.037343
	H352	H	0.219603	0.217713	1.068928
	H353	H	0.246502	0.244379	1.050335
	O354	O	0.965211	0.219195	1.017458
	H355	H	0.958684	0.210974	1.018497
	H356	H	0.963297	0.220758	1.027712
	O357	O	0.528020	0.706510	0.435627
	H358	H	0.509856	0.712230	0.426426
	H359	H	0.541552	0.709859	0.461512
	O360	O	0.669761	0.426034	0.525115
	H361	H	0.654385	0.434432	0.524995
	H362	H	0.670080	0.435381	0.524684
	O363	O	0.719558	0.479483	0.286781
	H364	H	0.724926	0.479064	0.278596
	H365	H	0.732474	0.469977	0.280652
	O366	O	0.764063	0.297768	0.695263
	H367	H	0.775686	0.280944	0.700421
	H368	H	0.769842	0.301790	0.710936
	O369	O	-0.081241	0.121382	1.209183
	H370	H	-0.065913	0.140027	1.210007
	H371	H	-0.065628	0.095684	1.202880
	O372	O	0.111467	0.802958	1.116205
	H373	H	0.102661	0.812895	1.115316
	H374	H	0.094518	0.809949	1.134258
	O375	O	0.927224	0.088101	0.074899
	H376	H	0.911100	0.093333	0.075155
	H377	H	0.934953	0.088652	0.081964
	O378	O	0.575865	0.299011	0.370591
	H379	H	0.599211	0.304609	0.373249
	H380	H	0.574418	0.291085	0.368536
	O381	O	0.109241	0.958378	0.181964
	H382	H	0.112343	0.950488	0.181692
	H383	H	0.113060	0.966007	0.171570
	O384	O	0.400137	0.325825	0.495944
	H385	H	0.414362	0.328365	0.488104
	H386	H	0.395435	0.330376	0.502589
	O387	O	-0.052360	0.988514	1.044525
	H388	H	-0.055571	0.978795	1.032822
	H389	H	-0.055088	1.007451	1.032094
	O390	O	0.164726	1.082130	0.870668
	H391	H	0.158216	1.079259	0.875633
	H392	H	0.172609	1.066251	0.881222
	O393	O	1.066821	0.215301	0.214921
	H394	H	1.088392	0.222229	0.224969
	H395	H	1.076497	0.231572	0.222286
	O396	O	0.469138	0.719236	0.280497
	H397	H	0.447331	0.742551	0.263391
	H398	H	0.480584	0.733533	0.293153
	O399	O	0.537537	0.717390	0.714215
	H400	H	0.529457	0.707116	0.718479
	H401	H	0.525704	0.727073	0.724864
	O402	O	0.783348	0.044348	0.782020
	H403	H	0.772173	0.041893	0.757831
	H404	H	0.783862	0.057637	0.780610
	O405	O	0.283425	0.546264	0.532797
	H406	H	0.286232	0.538394	0.531141
	H407	H	0.286764	0.525700	0.534024
	O408	O	0.909284	0.821168	0.861006
	H409	H	0.912626	0.822429	0.878589
	H410	H	0.914429	0.836941	0.857787
	O411	O	0.827810	0.808490	0.172002
	H412	H	0.819464	0.823222	0.168300
	H413	H	0.815222	0.827732	0.187075
	O414	O	0.222195	0.038352	0.145192
	H415	H	0.228394	0.021553	0.137864
	H416	H	0.234151	0.025777	0.143444
	O417	O	0.708941	0.302223	0.374307
	H418	H	0.721036	0.298355	0.399082
	H419	H	0.726283	0.298774	0.364683
	O420	O	0.981171	0.197584	0.810550
	H421	H	0.983532	0.211676	0.811216
	H422	H	0.997959	0.195553	0.813570
	O423	O	0.907001	0.986163	0.036862
	H424	H	0.906784	0.971093	0.042191
	H425	H	0.904420	0.984971	0.013819
	O426	O	0.600620	0.391286	0.456718
	H427	H	0.617105	0.381349	0.452606
	H428	H	0.605678	0.407340	0.474994
	O429	O	0.449678	0.551013	0.679474
	H430	H	0.458024	0.546528	0.681070
	H431	H	0.428232	0.536157	0.682930
	O432	O	0.786160	0.216604	0.963265
	H433	H	0.767562	0.235818	0.964711
	H434	H	0.796219	0.217431	0.960735
	O435	O	0.696907	0.472969	0.614845
	H436	H	0.718335	0.483439	0.619829
	H437	H	0.692845	0.466117	0.617803
	O438	O	0.697036	0.685666	0.303992
	H439	H	0.687005	0.683306	0.312240
	H440	H	0.682783	0.672782	0.310357
	O441	O	0.457752	0.664877	0.576600
	H442	H	0.459641	0.657305	0.569442
	H443	H	0.449955	0.675928	0.578608
	O444	O	0.304365	0.696177	0.302991
	H445	H	0.326876	0.677135	0.295315
	H446	H	0.287818	0.711569	0.328616
	O447	O	0.536831	0.452759	0.610445
	H448	H	0.530773	0.453436	0.609876
	H449	H	0.551289	0.437395	0.622826
	O450	O	0.888212	-0.097580	-0.185093
	H451	H	0.889459	-0.105016	-0.200074
	H452	H	0.894609	-0.101755	-0.171561
	O453	O	0.317346	0.337937	0.547078
	H454	H	0.318472	0.332420	0.545105
	H455	H	0.315582	0.337162	0.541214
	O456	O	0.057267	1.023170	0.908374
	H457	H	0.072964	1.016986	0.900986
	H458	H	0.061426	1.007136	0.905305
	O459	O	0.652921	0.593050	0.454252
	H460	H	0.645549	0.587493	0.460244
	H461	H	0.664443	0.592587	0.465733
	O462	O	0.535028	0.283282	0.279943
	H463	H	0.547878	0.263088	0.263624
	H464	H	0.556405	0.284396	0.276680
	O465	O	0.528762	0.515743	0.283386
	H466	H	0.528086	0.523257	0.283274
	H467	H	0.540352	0.532046	0.277022
	O468	O	-0.214006	0.788569	0.024638
	H469	H	-0.218553	0.769193	0.038100
	H470	H	-0.210413	0.776867	0.039096
	O471	O	0.320832	0.689089	0.687490
	H472	H	0.341366	0.674454	0.669806
	H473	H	0.328551	0.663503	0.673995
	O474	O	0.800047	0.983116	0.041570
	H475	H	0.806452	0.985173	0.022200
	H476	H	0.800702	0.969113	0.037915
	O477	O	0.291724	0.293077	0.712482
	H478	H	0.303895	0.287512	0.679676
	H479	H	0.259048	0.259133	0.742131
