data_Molecule from HDF5

_cell_length_a		16.224546
_cell_length_b		16.245887
_cell_length_c		16.323628
_cell_angle_alpha	90.152718
_cell_angle_beta	89.746588
_cell_angle_gamma	90.028145
_symmetry_space_group_name_H-M	'P 1'
_symmetry_Int_Tables_number		1

loop_
	_symmetry_equiv_pos_as_xyz
	x,y,z

loop_
	_atom_site_label
	_atom_site_type_symbol
	_atom_site_fract_x
	_atom_site_fract_y
	_atom_site_fract_z
	H0	H	0.414589	0.839201	0.708556
	H1	H	0.615506	0.165997	0.709082
	H2	H	0.615746	0.839601	0.276242
	H3	H	0.417827	0.167016	0.280908
	H4	H	0.729405	0.404922	0.830314
	H5	H	0.729174	0.602748	0.157008
	H6	H	0.299115	0.604143	0.831247
	H7	H	0.300427	0.406164	0.157884
	H8	H	0.850967	0.718516	0.394599
	H9	H	0.178638	0.718564	0.591543
	H10	H	0.850343	0.289260	0.591690
	H11	H	0.179120	0.288670	0.393447
	H12	H	0.851225	0.402516	0.710400
	H13	H	0.177984	0.604448	0.708182
	H14	H	0.850041	0.600884	0.280170
	H15	H	0.178313	0.402303	0.277077
	H16	H	0.417121	0.718631	0.830702
	H17	H	0.613335	0.719294	0.156968
	H18	H	0.615929	0.287145	0.830890
	H19	H	0.415116	0.288544	0.157104
	H20	H	0.728381	0.837781	0.395083
	H21	H	0.729342	0.166082	0.591770
	H22	H	0.300147	0.839129	0.591247
	H23	H	0.301356	0.165967	0.395325
	H24	H	0.913148	0.338966	0.208144
	H25	H	0.113176	0.665675	0.209419
	H26	H	0.115431	0.341216	0.775684
	H27	H	0.914309	0.666493	0.778568
	H28	H	0.230955	0.903093	0.330095
	H29	H	0.228651	0.101448	0.656839
	H30	H	0.800375	0.101997	0.329798
	H31	H	0.798478	0.903262	0.656054
	H32	H	0.350902	0.217128	0.896812
	H33	H	0.679910	0.217214	0.090216
	H34	H	0.351272	0.789396	0.093084
	H35	H	0.679487	0.789864	0.894596
	H36	H	0.351392	0.904774	0.208813
	H37	H	0.679265	0.104452	0.208005
	H38	H	0.351861	0.102806	0.779472
	H39	H	0.678831	0.902823	0.776897
	H40	H	0.918465	0.215557	0.329167
	H41	H	0.113758	0.218783	0.655793
	H42	H	0.115024	0.787099	0.330418
	H43	H	0.914098	0.787434	0.655690
	H44	H	0.228749	0.339364	0.895085
	H45	H	0.227867	0.666522	0.094023
	H46	H	0.800352	0.338692	0.089858
	H47	H	0.801504	0.667170	0.895879
	H48	H	0.413797	0.120941	0.582015
	H49	H	0.608659	0.886685	0.579603
	H50	H	0.612976	0.118208	0.409709
	H51	H	0.432392	0.887214	0.397327
	H52	H	0.605221	0.414409	0.107871
	H53	H	0.601561	0.596495	0.879504
	H54	H	0.426158	0.604125	0.110681
	H55	H	0.415185	0.403691	0.873738
	H56	H	0.130618	0.590431	0.396567
	H57	H	0.896939	0.599776	0.584683
	H58	H	0.133007	0.408716	0.588563
	H59	H	0.896408	0.409658	0.396829
	H60	H	0.130313	0.409634	0.580878
	H61	H	0.900398	0.591535	0.583419
	H62	H	0.133196	0.599105	0.398446
	H63	H	0.896961	0.406059	0.400252
	H64	H	0.413103	0.597504	0.112790
	H65	H	0.611673	0.604087	0.874874
	H66	H	0.605127	0.408159	0.109902
	H67	H	0.419278	0.420561	0.879978
	H68	H	0.612693	0.122642	0.392288
	H69	H	0.610213	0.883997	0.589603
	H70	H	0.423277	0.122280	0.596924
	H71	H	0.420188	0.888070	0.409225
	H72	H	0.919197	0.619549	0.085712
	H73	H	0.110899	0.385029	0.082395
	H74	H	0.110892	0.620283	0.901542
	H75	H	0.921480	0.387636	0.905432
	H76	H	0.099860	0.902263	0.610084
	H77	H	0.104967	0.094246	0.378249
	H78	H	0.919502	0.087924	0.608250
	H79	H	0.919804	0.915228	0.378069
	H80	H	0.632195	0.099055	0.903859
	H81	H	0.397364	0.100280	0.086260
	H82	H	0.633869	0.909972	0.090076
	H83	H	0.398017	0.912311	0.897128
	H84	H	0.631969	0.908782	0.081983
	H85	H	0.399519	0.093935	0.086560
	H86	H	0.630980	0.091313	0.901441
	H87	H	0.397158	0.907474	0.902546
	H88	H	0.929426	0.099233	0.607091
	H89	H	0.109790	0.099204	0.375109
	H90	H	0.117973	0.908744	0.613018
	H91	H	0.928698	0.910296	0.378374
	H92	H	0.106115	0.621007	0.897830
	H93	H	0.108256	0.383961	0.090790
	H94	H	0.919513	0.621695	0.091976
	H95	H	0.919238	0.385014	0.897733
	H96	H	0.430938	0.115194	0.582151
	H97	H	0.600446	0.887516	0.585991
	H98	H	0.598218	0.115850	0.400262
	H99	H	0.417114	0.882362	0.394030
	H100	H	0.610248	0.412288	0.110362
	H101	H	0.613516	0.590521	0.877742
	H102	H	0.424286	0.589813	0.107271
	H103	H	0.431853	0.407515	0.880159
	H104	H	0.129666	0.593576	0.405238
	H105	H	0.897122	0.593300	0.591371
	H106	H	0.130200	0.415721	0.586461
	H107	H	0.898687	0.410322	0.402060
	H108	H	0.924664	0.618964	0.088727
	H109	H	0.103045	0.386628	0.083968
	H110	H	0.104503	0.619469	0.903384
	H111	H	0.927461	0.386793	0.898887
	H112	H	0.103626	0.921160	0.605376
	H113	H	0.112035	0.092585	0.377287
	H114	H	0.915663	0.101746	0.612602
	H115	H	0.920874	0.904741	0.375401
	H116	H	0.634056	0.096257	0.895923
	H117	H	0.397324	0.096584	0.092190
	H118	H	0.630883	0.916662	0.085929
	H119	H	0.399750	0.914112	0.903689
	C120	C	0.393279	0.011353	0.615490
	C121	C	0.635913	0.994170	0.614288
	C122	C	0.637394	0.010810	0.371084
	C123	C	0.394356	0.993989	0.371896
	C124	C	0.636557	0.382284	0.001802
	C125	C	0.637159	0.625586	0.985490
	C126	C	0.392732	0.626067	0.002464
	C127	C	0.393088	0.381918	0.985676
	C128	C	0.022746	0.623515	0.371834
	C129	C	1.006211	0.624596	0.614714
	C130	C	0.022845	0.381736	0.615031
	C131	C	1.006121	0.380518	0.370999
	C132	C	0.892343	0.511608	0.116186
	C133	C	0.135609	0.493796	0.115241
	C134	C	0.136702	0.512391	0.871631
	C135	C	0.893878	0.494434	0.872112
	C136	C	0.136872	0.881063	0.501839
	C137	C	0.137077	0.124566	0.484542
	C138	C	0.893154	0.124565	0.501450
	C139	C	0.893326	0.880966	0.484747
	C140	C	0.523952	0.124602	0.872225
	C141	C	0.506757	0.125594	0.116007
	C142	C	0.523732	0.882794	0.114850
	C143	C	0.506799	0.882371	0.872191
	C144	C	0.394890	0.888171	0.670526
	C145	C	0.634855	0.117245	0.670523
	C146	C	0.635563	0.888088	0.314987
	C147	C	0.397082	0.117817	0.317972
	C148	C	0.691654	0.384524	0.878995
	C149	C	0.691653	0.623149	0.108163
	C150	C	0.337463	0.623938	0.879873
	C151	C	0.337812	0.384992	0.108771
	C152	C	0.899540	0.679707	0.374378
	C153	C	0.129493	0.680690	0.612270
	C154	C	0.899677	0.326360	0.612740
	C155	C	0.129865	0.326036	0.373252
	C156	C	0.900132	0.382669	0.671675
	C157	C	0.129142	0.624049	0.670275
	C158	C	0.899261	0.621224	0.317470
	C159	C	0.129408	0.382403	0.315151
	C160	C	0.395885	0.681120	0.879659
	C161	C	0.633993	0.681214	0.108071
	C162	C	0.635345	0.325850	0.879533
	C163	C	0.395165	0.326654	0.108307
	C164	C	0.691959	0.887312	0.373797
	C165	C	0.691626	0.117473	0.612077
	C166	C	0.337967	0.888033	0.612177
	C167	C	0.339013	0.117218	0.374661
	C168	C	0.893712	0.387953	0.170325
	C169	C	0.133005	0.616919	0.171102
	C170	C	0.135240	0.389544	0.815066
	C171	C	0.895282	0.617769	0.816790
	C172	C	0.192656	0.882879	0.378934
	C173	C	0.191558	0.122294	0.607685
	C174	C	0.838350	0.122067	0.378664
	C175	C	0.836714	0.882941	0.607187
	C176	C	0.400473	0.180237	0.875361
	C177	C	0.630559	0.180250	0.111663
	C178	C	0.400218	0.827520	0.112927
	C179	C	0.630353	0.827191	0.874102
	C180	C	0.400254	0.884719	0.170391
	C181	C	0.630178	0.123916	0.170225
	C182	C	0.400719	0.123214	0.817268
	C183	C	0.630025	0.883371	0.815570
	C184	C	0.896829	0.178916	0.378310
	C185	C	0.134136	0.180401	0.607361
	C186	C	0.135087	0.825323	0.379137
	C187	C	0.894275	0.825692	0.607206
	C188	C	0.191684	0.388747	0.874014
	C189	C	0.190071	0.617400	0.113572
	C190	C	0.837771	0.387628	0.111379
	C191	C	0.838896	0.618059	0.874906
	C192	C	0.416024	0.097301	0.593487
	C193	C	0.612992	0.908407	0.591832
	C194	C	0.614783	0.096787	0.393947
	C195	C	0.416790	0.908067	0.393837
	C196	C	0.613621	0.405098	0.087267
	C197	C	0.615452	0.603420	0.899629
	C198	C	0.414704	0.603833	0.088070
	C199	C	0.415591	0.404196	0.900127
	C200	C	0.108727	0.601033	0.393833
	C201	C	0.920486	0.601655	0.592769
	C202	C	0.109122	0.404793	0.591938
	C203	C	0.919568	0.402272	0.393291
	C204	C	0.914690	0.597769	0.095086
	C205	C	0.113866	0.407520	0.092397
	C206	C	0.113892	0.598036	0.894246
	C207	C	0.916196	0.408684	0.894142
	C208	C	0.113925	0.903920	0.587321
	C209	C	0.115326	0.102031	0.399062
	C210	C	0.914975	0.102897	0.587083
	C211	C	0.916539	0.903316	0.399283
	C212	C	0.610015	0.102163	0.893914
	C213	C	0.420541	0.103493	0.094561
	C214	C	0.609960	0.905179	0.092517
	C215	C	0.420625	0.904653	0.894615
	Zn216	Zn	0.515136	0.002750	0.743857
	Zn217	Zn	0.515202	0.003433	0.243438
	Zn218	Zn	0.765676	0.503216	-0.006395
	Zn219	Zn	0.264023	0.503841	-0.005825
	Zn220	Zn	0.014797	0.752516	0.493192
	Zn221	Zn	0.015034	0.253390	0.493098
	Zn222	Zn	0.014407	0.503550	0.743660
	Zn223	Zn	0.014289	0.501882	0.243212
	Zn224	Zn	0.515422	0.754549	-0.006306
	Zn225	Zn	0.515449	0.253406	-0.006071
	Zn226	Zn	0.765273	0.002463	0.492840
	Zn227	Zn	0.265710	0.002700	0.493275
	N228	N	0.428211	0.965896	0.672833
	N229	N	0.600792	0.039722	0.671842
	N230	N	0.602460	0.966002	0.313244
	N231	N	0.430640	0.040154	0.316160
	N232	N	0.692498	0.418998	0.956114
	N233	N	0.693778	0.589402	0.030823
	N234	N	0.335294	0.590498	0.957202
	N235	N	0.336511	0.418660	0.031421
	N236	N	0.977363	0.681237	0.407575
	N237	N	0.051985	0.681166	0.578385
	N238	N	0.977215	0.325824	0.578092
	N239	N	0.052113	0.324444	0.407083
	N240	N	0.977901	0.416434	0.672873
	N241	N	0.051535	0.589861	0.672059
	N242	N	0.976836	0.587097	0.315928
	N243	N	0.051409	0.415579	0.313760
	N244	N	0.429567	0.682585	0.956861
	N245	N	0.600885	0.682839	0.030564
	N246	N	0.601552	0.324697	0.956790
	N247	N	0.429008	0.324717	0.030968
	N248	N	0.692957	0.964858	0.408057
	N249	N	0.692685	0.039936	0.578087
	N250	N	0.336894	0.965640	0.578526
	N251	N	0.337252	0.039387	0.407619
	N252	N	0.926859	0.465871	0.173319
	N253	N	0.099774	0.538846	0.172005
	N254	N	0.101868	0.467303	0.813614
	N255	N	0.928646	0.539934	0.814896
	N256	N	0.193905	0.916980	0.456221
	N257	N	0.193527	0.088408	0.530373
	N258	N	0.836393	0.088680	0.456053
	N259	N	0.836182	0.916834	0.530059
	N260	N	0.478094	0.181136	0.908994
	N261	N	0.552689	0.181444	0.078679
	N262	N	0.477991	0.826209	0.079070
	N263	N	0.552861	0.826585	0.908599
	N264	N	0.478191	0.918144	0.171810
	N265	N	0.552261	0.090606	0.173090
	N266	N	0.478385	0.089458	0.815159
	N267	N	0.552017	0.916853	0.814120
	N268	N	0.930144	0.180767	0.455691
	N269	N	0.101026	0.182100	0.529980
	N270	N	0.101037	0.824147	0.456394
	N271	N	0.928904	0.824421	0.530150
	N272	N	0.192709	0.466206	0.908572
	N273	N	0.191666	0.539911	0.079438
	N274	N	0.836689	0.465487	0.078413
	N275	N	0.837912	0.540664	0.908744
	O276	O	1.003150	0.993267	-0.018178
	H277	H	1.014132	1.000177	-0.011678
	H278	H	1.009249	0.998424	-0.009224
	O279	O	0.046395	-0.045828	0.989999
	H280	H	0.060467	-0.049996	0.985619
	H281	H	0.037800	-0.048701	0.985209
	O282	O	-0.495549	0.460593	0.537982
	H283	H	-0.488177	0.454868	0.523833
	H284	H	-0.493436	0.451819	0.537695
	O285	O	0.511889	0.471387	0.506994
	H286	H	0.506208	0.469862	0.519600
	H287	H	0.516758	0.478354	0.500386
	O288	O	-0.017082	-0.017510	0.015816
	H289	H	-0.028477	-0.011738	0.026584
	H290	H	-0.012900	-0.013591	0.015091
	O291	O	0.054110	0.945132	-0.062052
	H292	H	0.034772	0.939791	-0.061634
	H293	H	0.047926	0.949586	-0.061443
	O294	O	-0.077465	1.008903	-0.033291
	H295	H	-0.070910	1.013953	-0.029308
	H296	H	-0.081354	1.017023	-0.032508
	O297	O	0.563819	0.403077	0.466336
	H298	H	0.564360	0.399692	0.470319
	H299	H	0.563360	0.391784	0.468500
	O300	O	0.480104	0.460984	0.483248
	H301	H	0.478947	0.468179	0.479009
	H302	H	0.479632	0.461384	0.471923
	O303	O	0.499018	-0.524073	1.477369
	H304	H	0.495420	-0.518958	1.479772
	H305	H	0.506255	-0.533202	1.488340
	O306	O	0.045659	0.946209	1.048128
	H307	H	0.031602	0.933730	1.042362
	H308	H	0.055858	0.940092	1.040876
	O309	O	0.061242	0.990542	0.935572
	H310	H	0.078453	0.980587	0.931372
	H311	H	0.054894	0.992016	0.933523
	O312	O	-0.058774	-0.095137	0.995079
	H313	H	-0.073964	-0.103725	0.999505
	H314	H	-0.053395	-0.095327	0.992664
	O315	O	0.540289	0.455956	0.501229
	H316	H	0.546628	0.453038	0.508895
	H317	H	0.521491	0.458345	0.504390
	O318	O	0.086879	0.031510	1.014943
	H319	H	0.090602	0.031861	1.009722
	H320	H	0.091370	0.033834	1.026818
	O321	O	0.481443	0.456850	0.439400
	H322	H	0.485113	0.449175	0.451495
	H323	H	0.485720	0.460903	0.439891
	O324	O	1.026514	0.015205	1.087867
	H325	H	1.029477	0.016850	1.082500
	H326	H	1.029341	0.008433	1.091791
	O327	O	1.021697	0.930865	1.027932
	H328	H	1.021087	0.923824	1.027708
	H329	H	1.016874	0.928576	1.018875
	O330	O	0.407072	0.312158	0.581339
	H331	H	0.404714	0.307446	0.585977
	H332	H	0.411803	0.303450	0.584653
	O333	O	0.516540	0.534887	0.491444
	H334	H	0.507746	0.524908	0.485761
	H335	H	0.512541	0.541047	0.490219
	O336	O	0.582203	0.448623	0.467449
	H337	H	0.591133	0.455212	0.466731
	H338	H	0.584125	0.453408	0.460642
	O339	O	-0.429177	0.534724	-0.512935
	H340	H	-0.423976	0.534309	-0.525920
	H341	H	-0.426953	0.523980	-0.519906
	O342	O	0.481507	0.468084	0.551045
	H343	H	0.480301	0.474200	0.556955
	H344	H	0.481345	0.465341	0.550085
	O345	O	0.425065	0.501836	0.591031
	H346	H	0.412864	0.495772	0.602531
	H347	H	0.441277	0.502223	0.589022
