data_Molecule from HDF5

_cell_length_a		16.291289
_cell_length_b		16.251489
_cell_length_c		16.357402
_cell_angle_alpha	89.839171
_cell_angle_beta	90.366463
_cell_angle_gamma	89.929950
_symmetry_space_group_name_H-M	'P 1'
_symmetry_Int_Tables_number		1

loop_
	_symmetry_equiv_pos_as_xyz
	x,y,z

loop_
	_atom_site_label
	_atom_site_type_symbol
	_atom_site_fract_x
	_atom_site_fract_y
	_atom_site_fract_z
	H0	H	0.381413	0.840028	0.720691
	H1	H	0.586755	0.164435	0.718328
	H2	H	0.588243	0.840131	0.282947
	H3	H	0.382197	0.164007	0.283326
	H4	H	0.701986	0.397241	0.838053
	H5	H	0.704747	0.601100	0.161288
	H6	H	0.266997	0.604028	0.839157
	H7	H	0.269542	0.399625	0.162887
	H8	H	0.822906	0.717765	0.396608
	H9	H	0.147020	0.717580	0.601629
	H10	H	0.822743	0.284211	0.599530
	H11	H	0.147191	0.283220	0.399168
	H12	H	0.824572	0.394902	0.719007
	H13	H	0.146857	0.601853	0.718187
	H14	H	0.823972	0.603967	0.280037
	H15	H	0.147510	0.398480	0.282755
	H16	H	0.380997	0.721046	0.839967
	H17	H	0.589799	0.717469	0.162213
	H18	H	0.584079	0.283176	0.838533
	H19	H	0.386442	0.285378	0.163730
	H20	H	0.701406	0.839410	0.398927
	H21	H	0.702362	0.164133	0.602807
	H22	H	0.268686	0.838096	0.602053
	H23	H	0.266047	0.162928	0.397817
	H24	H	0.886266	0.339352	0.215909
	H25	H	0.087041	0.664061	0.215919
	H26	H	0.087008	0.338313	0.784183
	H27	H	0.882312	0.662725	0.780457
	H28	H	0.201332	0.898606	0.338360
	H29	H	0.202879	0.101066	0.661189
	H30	H	0.766441	0.102907	0.338466
	H31	H	0.768424	0.899342	0.661836
	H32	H	0.320978	0.216246	0.902139
	H33	H	0.648916	0.214186	0.101272
	H34	H	0.323193	0.784155	0.101003
	H35	H	0.648221	0.785323	0.902246
	H36	H	0.322597	0.899523	0.216992
	H37	H	0.646740	0.101365	0.219175
	H38	H	0.322717	0.103549	0.783075
	H39	H	0.647620	0.898952	0.784366
	H40	H	0.883135	0.217223	0.338236
	H41	H	0.085973	0.216972	0.661824
	H42	H	0.083900	0.785105	0.337242
	H43	H	0.884149	0.783148	0.661747
	H44	H	0.201412	0.337855	0.901915
	H45	H	0.202731	0.663820	0.101508
	H46	H	0.771611	0.338064	0.099061
	H47	H	0.766810	0.663038	0.896480
	H48	H	0.392155	0.117097	0.591084
	H49	H	0.582710	0.883660	0.594167
	H50	H	0.571371	0.118664	0.401685
	H51	H	0.399132	0.887920	0.411881
	H52	H	0.579971	0.407274	0.115867
	H53	H	0.577826	0.590539	0.885127
	H54	H	0.389611	0.588353	0.116307
	H55	H	0.398365	0.404214	0.885972
	H56	H	0.102515	0.591873	0.404483
	H57	H	0.869665	0.586663	0.595449
	H58	H	0.100983	0.410161	0.594823
	H59	H	0.871790	0.409663	0.411848
	H60	H	0.100647	0.407852	0.591551
	H61	H	0.867123	0.597557	0.589001
	H62	H	0.101897	0.596322	0.409410
	H63	H	0.871249	0.415199	0.404436
	H64	H	0.399696	0.590362	0.113753
	H65	H	0.571693	0.591400	0.886943
	H66	H	0.580521	0.408505	0.116212
	H67	H	0.386673	0.407817	0.883496
	H68	H	0.570136	0.113450	0.416283
	H69	H	0.572558	0.886331	0.599558
	H70	H	0.395150	0.116557	0.592818
	H71	H	0.388574	0.884792	0.412566
	H72	H	0.896526	0.617321	0.090657
	H73	H	0.082962	0.385171	0.088536
	H74	H	0.083202	0.617501	0.913361
	H75	H	0.888569	0.380072	0.897307
	H76	H	0.074289	0.909352	0.613751
	H77	H	0.072012	0.105034	0.381682
	H78	H	0.898954	0.092884	0.613835
	H79	H	0.891119	0.911590	0.385358
	H80	H	0.600724	0.091109	0.907175
	H81	H	0.367875	0.096084	0.091729
	H82	H	0.601860	0.908629	0.094763
	H83	H	0.372796	0.914901	0.912436
	H84	H	0.600262	0.910632	0.092672
	H85	H	0.369691	0.091576	0.092158
	H86	H	0.600848	0.095550	0.911200
	H87	H	0.370042	0.912807	0.906925
	H88	H	0.890814	0.096651	0.617514
	H89	H	0.086407	0.086551	0.383015
	H90	H	0.077747	0.906796	0.615786
	H91	H	0.894165	0.909435	0.385106
	H92	H	0.075562	0.619456	0.900468
	H93	H	0.078861	0.382548	0.098537
	H94	H	0.896308	0.616739	0.087745
	H95	H	0.907181	0.388970	0.908759
	H96	H	0.395486	0.115308	0.589202
	H97	H	0.573531	0.888499	0.587780
	H98	H	0.583578	0.119671	0.411078
	H99	H	0.393587	0.883362	0.402864
	H100	H	0.578885	0.408312	0.115364
	H101	H	0.575147	0.596868	0.884362
	H102	H	0.393279	0.598176	0.117175
	H103	H	0.394956	0.416263	0.888414
	H104	H	0.099278	0.590202	0.410977
	H105	H	0.872905	0.587259	0.583045
	H106	H	0.099649	0.411471	0.590958
	H107	H	0.867840	0.406561	0.404170
	H108	H	0.893908	0.617388	0.089530
	H109	H	0.071902	0.387723	0.091273
	H110	H	0.069175	0.613352	0.912407
	H111	H	0.886787	0.386230	0.919752
	H112	H	0.078321	0.911077	0.614670
	H113	H	0.064989	0.084700	0.389800
	H114	H	0.891452	0.087127	0.614817
	H115	H	0.889830	0.908995	0.384283
	H116	H	0.599050	0.090067	0.912375
	H117	H	0.367911	0.094215	0.095569
	H118	H	0.599917	0.910606	0.095423
	H119	H	0.370399	0.909115	0.911891
	C120	C	0.363667	0.009230	0.621625
	C121	C	0.606552	0.993446	0.623173
	C122	C	0.605167	0.010035	0.379937
	C123	C	0.363005	0.992659	0.378613
	C124	C	0.607935	0.378346	0.008577
	C125	C	0.606463	0.622094	0.992200
	C126	C	0.363173	0.623247	0.009103
	C127	C	0.363843	0.379447	0.992831
	C128	C	-0.006073	0.622997	0.377644
	C129	C	0.976660	0.621201	0.620535
	C130	C	-0.006321	0.378996	0.621707
	C131	C	0.977085	0.379616	0.377381
	C132	C	0.865350	0.509941	0.119765
	C133	C	0.107934	0.492529	0.122169
	C134	C	0.106140	0.509273	0.879732
	C135	C	0.863210	0.491987	0.877231
	C136	C	0.106200	0.879244	0.507899
	C137	C	0.105578	0.122106	0.491674
	C138	C	0.862841	0.122682	0.508655
	C139	C	0.862423	0.879126	0.491522
	C140	C	0.493332	0.123002	0.879579
	C141	C	0.476198	0.122404	0.122796
	C142	C	0.493556	0.879360	0.123669
	C143	C	0.477534	0.880869	0.880109
	C144	C	0.363136	0.887909	0.680450
	C145	C	0.605964	0.115745	0.679812
	C146	C	0.606289	0.888410	0.322252
	C147	C	0.362746	0.115240	0.321716
	C148	C	0.663524	0.378551	0.886700
	C149	C	0.665814	0.621257	0.113170
	C150	C	0.305296	0.623620	0.887642
	C151	C	0.307833	0.380228	0.114665
	C152	C	0.871858	0.679899	0.377297
	C153	C	0.098423	0.678868	0.621059
	C154	C	0.871496	0.322221	0.619709
	C155	C	0.098552	0.321575	0.378849
	C156	C	0.872294	0.377483	0.679054
	C157	C	0.098516	0.621289	0.678919
	C158	C	0.872303	0.623218	0.319084
	C159	C	0.098893	0.379217	0.321124
	C160	C	0.362389	0.681891	0.888218
	C161	C	0.608065	0.678748	0.113914
	C162	C	0.604890	0.321496	0.886870
	C163	C	0.365825	0.323156	0.114965
	C164	C	0.662780	0.887978	0.380243
	C165	C	0.663710	0.115679	0.622394
	C166	C	0.306700	0.887046	0.621617
	C167	C	0.305101	0.114648	0.378816
	C168	C	0.866501	0.387791	0.176913
	C169	C	0.107430	0.615285	0.178172
	C170	C	0.105977	0.386639	0.823117
	C171	C	0.863232	0.614298	0.819484
	C172	C	0.162364	0.879930	0.386432
	C173	C	0.163533	0.120929	0.613116
	C174	C	0.804977	0.122226	0.386838
	C175	C	0.806876	0.879762	0.613558
	C176	C	0.370267	0.178960	0.881222
	C177	C	0.599507	0.177035	0.121355
	C178	C	0.371690	0.822623	0.121283
	C179	C	0.599605	0.823591	0.881584
	C180	C	0.371410	0.880329	0.178825
	C181	C	0.598463	0.120985	0.180000
	C182	C	0.371128	0.122851	0.822179
	C183	C	0.599157	0.880031	0.823059
	C184	C	0.863142	0.179153	0.386681
	C185	C	0.105657	0.178665	0.613318
	C186	C	0.103968	0.823176	0.385980
	C187	C	0.864421	0.821930	0.613283
	C188	C	0.162958	0.386500	0.881545
	C189	C	0.164497	0.615076	0.120922
	C190	C	0.809545	0.387126	0.118722
	C191	C	0.805693	0.614452	0.876903
	C192	C	0.387316	0.094250	0.597742
	C193	C	0.583136	0.908248	0.600468
	C194	C	0.581790	0.095241	0.402968
	C195	C	0.386868	0.907553	0.402197
	C196	C	0.586214	0.401308	0.093673
	C197	C	0.582032	0.599369	0.907561
	C198	C	0.387198	0.599216	0.093835
	C199	C	0.386507	0.402768	0.907921
	C200	C	0.079072	0.599621	0.401383
	C201	C	0.891854	0.597287	0.596276
	C202	C	0.078291	0.402850	0.599041
	C203	C	0.892200	0.403571	0.400104
	C204	C	0.888792	0.595140	0.096079
	C205	C	0.084615	0.407156	0.099487
	C206	C	0.082728	0.594478	0.901985
	C207	C	0.887277	0.407099	0.901353
	C208	C	0.083494	0.902384	0.592937
	C209	C	0.081527	0.098714	0.406842
	C210	C	0.886746	0.099014	0.593229
	C211	C	0.885060	0.902939	0.406810
	C212	C	0.577932	0.099145	0.903311
	C213	C	0.390664	0.100318	0.100004
	C214	C	0.578849	0.902910	0.100870
	C215	C	0.392863	0.905309	0.903628
	Zn216	Zn	0.484900	0.001531	0.751317
	Zn217	Zn	0.484353	0.001562	0.251312
	Zn218	Zn	0.735894	0.501300	-0.000702
	Zn219	Zn	0.235276	0.500940	0.000700
	Zn220	Zn	-0.015494	0.750433	0.499728
	Zn221	Zn	-0.015376	0.251347	0.499548
	Zn222	Zn	-0.014994	0.500195	0.749910
	Zn223	Zn	-0.013841	0.502318	0.249172
	Zn224	Zn	0.485914	0.751423	0.000973
	Zn225	Zn	0.485193	0.250706	0.001620
	Zn226	Zn	0.733830	0.001404	0.500529
	Zn227	Zn	0.235157	0.000566	0.499512
	N228	N	0.397873	0.964787	0.680677
	N229	N	0.571094	0.038707	0.680377
	N230	N	0.571035	0.965194	0.322000
	N231	N	0.398013	0.038394	0.321581
	N232	N	0.665623	0.413131	0.963394
	N233	N	0.664945	0.586730	0.036591
	N234	N	0.305524	0.587869	0.963896
	N235	N	0.306446	0.414492	0.037669
	N236	N	0.948434	0.679893	0.412932
	N237	N	0.021759	0.678907	0.585413
	N238	N	0.947948	0.322968	0.584690
	N239	N	0.021686	0.321836	0.413208
	N240	N	0.949171	0.412127	0.680514
	N241	N	0.021800	0.586105	0.678792
	N242	N	0.949357	0.588615	0.318988
	N243	N	0.022419	0.414770	0.320031
	N244	N	0.397736	0.681686	0.964765
	N245	N	0.571692	0.679298	0.037793
	N246	N	0.571284	0.321087	0.963753
	N247	N	0.399888	0.322394	0.038200
	N248	N	0.662287	0.964607	0.415576
	N249	N	0.664456	0.038589	0.587970
	N250	N	0.307131	0.963554	0.585437
	N251	N	0.305154	0.037589	0.413651
	N252	N	0.900379	0.465233	0.177754
	N253	N	0.072986	0.538145	0.179224
	N254	N	0.071468	0.463778	0.821698
	N255	N	0.898083	0.537073	0.819381
	N256	N	0.163977	0.913856	0.463295
	N257	N	0.163865	0.086803	0.536277
	N258	N	0.804592	0.087650	0.463961
	N259	N	0.805402	0.914530	0.536833
	N260	N	0.447361	0.179376	0.916221
	N261	N	0.522566	0.177969	0.086298
	N262	N	0.448797	0.821888	0.087747
	N263	N	0.522869	0.823886	0.916253
	N264	N	0.448514	0.914748	0.180372
	N265	N	0.520863	0.087778	0.181119
	N266	N	0.448431	0.088880	0.820974
	N267	N	0.522164	0.914920	0.822027
	N268	N	0.898164	0.179676	0.463211
	N269	N	0.070466	0.179516	0.536739
	N270	N	0.069697	0.822469	0.462649
	N271	N	0.898175	0.821407	0.536385
	N272	N	0.163093	0.463659	0.916006
	N273	N	0.164942	0.537714	0.086821
	N274	N	0.808741	0.464137	0.083944
	N275	N	0.805613	0.537513	0.912104
	O276	O	0.989389	-0.029646	0.969533
	H277	H	0.979301	-0.028695	0.971278
	H278	H	0.996809	-0.038381	0.972204
	O279	O	0.425494	0.562793	0.351451
	H280	H	0.427355	0.554981	0.345732
	H281	H	0.420568	0.567839	0.348649
	O282	O	0.499668	0.375403	0.400828
	H283	H	0.494529	0.380940	0.400083
	H284	H	0.508805	0.382906	0.404856
	O285	O	0.500010	0.494300	0.345511
	H286	H	0.497350	0.494930	0.341243
	H287	H	0.505399	0.497147	0.341366
	O288	O	0.391129	0.608509	0.428217
	H289	H	0.379969	0.609630	0.435327
	H290	H	0.396346	0.602273	0.413952
	O291	O	0.007955	-0.040399	0.883733
	H292	H	0.002755	-0.043636	0.888684
	H293	H	0.005489	-0.038778	0.874484
	O294	O	1.047619	1.027829	0.057134
	H295	H	1.056362	1.035978	0.058637
	H296	H	1.058394	1.028305	0.058696
	O297	O	0.937155	1.116752	-0.038726
	H298	H	0.942478	1.124182	-0.040337
	H299	H	0.935266	1.110769	-0.048341
	O300	O	0.654746	0.654896	0.593996
	H301	H	0.642602	0.647554	0.572413
	H302	H	0.667921	0.679598	0.586621
	O303	O	0.323898	0.604058	0.544042
	H304	H	0.324680	0.589788	0.542194
	H305	H	0.304301	0.611400	0.540779
	O306	O	0.589217	0.397131	0.507433
	H307	H	0.607292	0.402908	0.503615
	H308	H	0.586821	0.398448	0.516552
	O309	O	0.577998	0.643656	0.579950
	H310	H	0.569585	0.645932	0.576792
	H311	H	0.572264	0.657718	0.567569
	O312	O	1.358593	1.486266	0.665232
	H313	H	1.350527	1.489262	0.651493
	H314	H	1.363559	1.484157	0.674362
	O315	O	1.035896	1.003494	0.008719
	H316	H	1.034367	1.001177	0.005255
	H317	H	1.031058	1.003943	0.016522
	O318	O	0.431553	0.549863	0.339277
	H319	H	0.444498	0.539156	0.327291
	H320	H	0.434465	0.529069	0.340910
	O321	O	0.550882	0.419492	0.649523
	H322	H	0.569658	0.420973	0.680532
	H323	H	0.536595	0.434441	0.648171
	O324	O	-0.053483	1.047162	0.962884
	H325	H	-0.061457	1.047451	0.963491
	H326	H	-0.057228	1.054572	0.959090
	O327	O	-0.046156	0.960278	0.952806
	H328	H	-0.057907	0.967738	0.947916
	H329	H	-0.040959	0.964966	0.955692
	O330	O	-0.041873	0.073759	0.052667
	H331	H	-0.041963	0.070769	0.057193
	H332	H	-0.040061	0.079805	0.057915
	O333	O	0.362647	0.519050	0.326820
	H334	H	0.364542	0.507453	0.319964
	H335	H	0.368317	0.515280	0.329118
	O336	O	0.018964	0.053443	-0.059841
	H337	H	0.006050	0.051277	-0.062879
	H338	H	0.030245	0.048624	-0.061904
	O339	O	0.502692	0.626920	-0.341867
	H340	H	0.496817	0.626112	-0.346404
	H341	H	0.492411	0.632545	-0.327952
	O342	O	0.358401	0.433378	0.646266
	H343	H	0.365834	0.429959	0.633104
	H344	H	0.359038	0.430545	0.646214
	O345	O	0.071773	0.926716	0.991002
	H346	H	0.070834	0.919936	0.996274
	H347	H	0.068156	0.918393	0.986810
	O348	O	0.538626	0.394499	0.493295
	H349	H	0.545412	0.377518	0.480684
	H350	H	0.530969	0.402433	0.479603
	O351	O	0.627676	0.381635	0.406073
	H352	H	0.625875	0.390956	0.421335
	H353	H	0.623987	0.377971	0.416940
	O354	O	0.002531	1.131856	0.001312
	H355	H	0.001842	1.131786	0.005920
	H356	H	0.008393	1.131422	0.006100
	O357	O	0.471736	0.459496	0.656288
	H358	H	0.466502	0.454411	0.664054
	H359	H	0.483722	0.461940	0.658064
	O360	O	1.046307	-0.032804	1.037918
	H361	H	1.039307	-0.032383	1.043402
	H362	H	1.048341	-0.026034	1.034710
	O363	O	0.361754	0.430515	0.688666
	H364	H	0.355630	0.430437	0.692638
	H365	H	0.367076	0.421122	0.688352
	O366	O	0.598664	0.393386	0.597152
	H367	H	0.597843	0.398322	0.603707
	H368	H	0.603245	0.400109	0.600794
	O369	O	0.916310	-0.035508	-0.042846
	H370	H	0.915371	-0.028737	-0.041746
	H371	H	0.913659	-0.031822	-0.046887
	O372	O	0.412711	0.393098	0.471360
	H373	H	0.411626	0.402903	0.478834
	H374	H	0.411634	0.393356	0.473808
	O375	O	0.951264	-0.033143	0.957644
	H376	H	0.948842	-0.030860	0.953503
	H377	H	0.956947	-0.030818	0.945552
	O378	O	0.530730	0.591183	0.334099
	H379	H	0.520808	0.575480	0.333641
	H380	H	0.539687	0.586405	0.336522
	O381	O	0.396389	0.348458	0.497043
	H382	H	0.398867	0.340887	0.506463
	H383	H	0.403567	0.355386	0.510918
	O384	O	1.549014	0.622065	0.489020
	H385	H	1.533758	0.620477	0.489483
	H386	H	1.543562	0.613760	0.485389
	O387	O	0.946644	0.094286	1.044610
	H388	H	0.956575	0.091079	1.050703
	H389	H	0.942044	0.099346	1.041577
	O390	O	0.991185	0.885622	0.062457
	H391	H	0.987602	0.885378	0.070829
	H392	H	0.982340	0.886496	0.067914
	O393	O	0.590370	0.697281	0.485803
	H394	H	0.585254	0.712785	0.494430
	H395	H	0.579040	0.696974	0.478208
