data_Molecule from HDF5

_cell_length_a		16.532309
_cell_length_b		16.637125
_cell_length_c		16.618887
_cell_angle_alpha	90.011307
_cell_angle_beta	90.031962
_cell_angle_gamma	89.814289
_symmetry_space_group_name_H-M	'P 1'
_symmetry_Int_Tables_number		1

loop_
	_symmetry_equiv_pos_as_xyz
	x,y,z

loop_
	_atom_site_label
	_atom_site_type_symbol
	_atom_site_fract_x
	_atom_site_fract_y
	_atom_site_fract_z
	H0	H	0.373267	0.839174	0.715175
	H1	H	0.580924	0.152361	0.715390
	H2	H	0.581509	0.840275	0.274827
	H3	H	0.371348	0.151041	0.273212
	H4	H	0.699978	0.389897	0.839665
	H5	H	0.695162	0.598436	0.151960
	H6	H	0.257994	0.597202	0.836588
	H7	H	0.257512	0.392146	0.150295
	H8	H	0.821427	0.716263	0.392590
	H9	H	0.133705	0.715727	0.601340
	H10	H	0.820595	0.274183	0.599879
	H11	H	0.134517	0.276102	0.392380
	H12	H	0.819106	0.390940	0.714749
	H13	H	0.132256	0.600569	0.718119
	H14	H	0.820490	0.598674	0.276457
	H15	H	0.134812	0.393052	0.276545
	H16	H	0.374357	0.713472	0.835933
	H17	H	0.578263	0.715160	0.151162
	H18	H	0.586368	0.271617	0.840827
	H19	H	0.372341	0.273489	0.149167
	H20	H	0.696851	0.839610	0.392538
	H21	H	0.696895	0.152401	0.598123
	H22	H	0.256876	0.839712	0.599578
	H23	H	0.256579	0.152203	0.392513
	H24	H	0.871097	0.340453	0.217369
	H25	H	0.081321	0.650977	0.215622
	H26	H	0.084358	0.341366	0.770559
	H27	H	0.870155	0.650894	0.771872
	H28	H	0.200664	0.889828	0.340474
	H29	H	0.198288	0.100063	0.651905
	H30	H	0.757731	0.098932	0.338376
	H31	H	0.756328	0.890677	0.650540
	H32	H	0.322121	0.218258	0.888526
	H33	H	0.631694	0.219216	0.103581
	H34	H	0.318792	0.777096	0.097695
	H35	H	0.634787	0.775188	0.890728
	H36	H	0.319719	0.891714	0.215284
	H37	H	0.630323	0.105139	0.221366
	H38	H	0.320410	0.099854	0.774937
	H39	H	0.635401	0.892322	0.775812
	H40	H	0.873724	0.214861	0.338071
	H41	H	0.083643	0.218680	0.650409
	H42	H	0.085768	0.772717	0.341051
	H43	H	0.872164	0.773272	0.649860
	H44	H	0.200323	0.341001	0.886808
	H45	H	0.196753	0.651045	0.097889
	H46	H	0.755475	0.340705	0.099948
	H47	H	0.756345	0.653048	0.890811
	H48	H	0.391279	0.107577	0.587243
	H49	H	0.564270	0.883419	0.589583
	H50	H	0.568229	0.107434	0.409057
	H51	H	0.387913	0.883293	0.403243
	H52	H	0.565145	0.403064	0.108023
	H53	H	0.575147	0.589890	0.878259
	H54	H	0.384924	0.582760	0.105083
	H55	H	0.388278	0.411121	0.883847
	H56	H	0.095306	0.589389	0.397860
	H57	H	0.868064	0.580244	0.580076
	H58	H	0.085800	0.412667	0.581797
	H59	H	0.864546	0.400472	0.410257
	H60	H	0.090430	0.406155	0.587941
	H61	H	0.863745	0.584744	0.586001
	H62	H	0.089565	0.589137	0.412952
	H63	H	0.866736	0.411814	0.406640
	H64	H	0.390916	0.589805	0.106089
	H65	H	0.567294	0.577124	0.885134
	H66	H	0.568671	0.411547	0.104490
	H67	H	0.393477	0.406222	0.883939
	H68	H	0.565522	0.109243	0.403960
	H69	H	0.566769	0.886385	0.581331
	H70	H	0.388804	0.105491	0.581313
	H71	H	0.391533	0.885779	0.405248
	H72	H	0.883635	0.607587	0.082760
	H73	H	0.065428	0.384139	0.083863
	H74	H	0.065483	0.608189	0.901989
	H75	H	0.895588	0.388213	0.905949
	H76	H	0.068866	0.905211	0.608576
	H77	H	0.061706	0.087824	0.384503
	H78	H	0.893403	0.087814	0.606312
	H79	H	0.891473	0.907025	0.384551
	H80	H	0.591127	0.083205	0.900606
	H81	H	0.368904	0.081955	0.076576
	H82	H	0.587126	0.906130	0.080093
	H83	H	0.365390	0.906602	0.904701
	H84	H	0.588239	0.909456	0.086643
	H85	H	0.365904	0.080056	0.084675
	H86	H	0.590656	0.088404	0.908398
	H87	H	0.364185	0.905854	0.902298
	H88	H	0.883932	0.090153	0.609148
	H89	H	0.070200	0.088447	0.381742
	H90	H	0.066916	0.911655	0.605632
	H91	H	0.888140	0.904266	0.382636
	H92	H	0.060099	0.604614	0.905806
	H93	H	0.067681	0.382589	0.084089
	H94	H	0.885833	0.610019	0.090188
	H95	H	0.884316	0.385349	0.911883
	H96	H	0.384821	0.108619	0.585530
	H97	H	0.572595	0.881908	0.586585
	H98	H	0.562327	0.106269	0.407814
	H99	H	0.387105	0.884544	0.407728
	H100	H	0.559028	0.409056	0.103076
	H101	H	0.559109	0.591265	0.882820
	H102	H	0.381516	0.590537	0.108757
	H103	H	0.387375	0.404879	0.881088
	H104	H	0.088585	0.576095	0.403701
	H105	H	0.865144	0.588315	0.578455
	H106	H	0.087801	0.403817	0.578896
	H107	H	0.861061	0.404383	0.398899
	H108	H	0.891264	0.605678	0.085545
	H109	H	0.066496	0.384344	0.086395
	H110	H	0.066885	0.606586	0.908988
	H111	H	0.886272	0.382117	0.899397
	H112	H	0.061709	0.905826	0.605519
	H113	H	0.067324	0.080947	0.385070
	H114	H	0.886013	0.081153	0.606165
	H115	H	0.887194	0.908732	0.383863
	H116	H	0.587710	0.079265	0.909208
	H117	H	0.364379	0.088503	0.081538
	H118	H	0.590687	0.902269	0.086103
	H119	H	0.363730	0.903891	0.904192
	C120	C	0.356514	0.004000	0.616356
	C121	C	0.598999	0.987484	0.616870
	C122	C	0.597668	0.004504	0.374442
	C123	C	0.355511	0.987217	0.373393
	C124	C	0.598644	0.374407	0.003054
	C125	C	0.597534	0.617036	0.986148
	C126	C	0.354550	0.618090	0.002636
	C127	C	0.357096	0.375157	0.985866
	C128	C	-0.013216	0.616701	0.373917
	C129	C	0.969042	0.615758	0.614521
	C130	C	-0.015088	0.374845	0.615733
	C131	C	0.968471	0.374437	0.373944
	C132	C	0.854836	0.504559	0.117669
	C133	C	0.098173	0.486682	0.116313
	C134	C	0.097486	0.503874	0.873041
	C135	C	0.855614	0.487934	0.873676
	C136	C	0.099373	0.874497	0.504082
	C137	C	0.098833	0.117633	0.486974
	C138	C	0.856110	0.117447	0.503543
	C139	C	0.856736	0.874333	0.486738
	C140	C	0.486404	0.116665	0.873781
	C141	C	0.468679	0.117005	0.115624
	C142	C	0.484673	0.874969	0.115668
	C143	C	0.468766	0.874045	0.872963
	C144	C	0.354991	0.886318	0.675467
	C145	C	0.600153	0.105211	0.675783
	C146	C	0.599686	0.887088	0.314978
	C147	C	0.353186	0.104848	0.314002
	C148	C	0.660017	0.371675	0.886586
	C149	C	0.655697	0.617746	0.104669
	C150	C	0.297420	0.616667	0.883749
	C151	C	0.297180	0.373107	0.103309
	C152	C	0.868583	0.676655	0.372838
	C153	C	0.086626	0.675747	0.618887
	C154	C	0.867332	0.314389	0.617946
	C155	C	0.087306	0.315736	0.373362
	C156	C	0.866729	0.372549	0.675183
	C157	C	0.085881	0.618552	0.676884
	C158	C	0.867673	0.617827	0.315896
	C159	C	0.087556	0.373612	0.315691
	C160	C	0.354832	0.674889	0.883650
	C161	C	0.597548	0.675419	0.104447
	C162	C	0.603327	0.312838	0.887032
	C163	C	0.354210	0.314265	0.102714
	C164	C	0.657191	0.886630	0.373321
	C165	C	0.657669	0.105430	0.617495
	C166	C	0.297010	0.886470	0.617823
	C167	C	0.296018	0.105286	0.372695
	C168	C	0.852588	0.387399	0.177264
	C169	C	0.100285	0.603973	0.176009
	C170	C	0.101840	0.387689	0.811407
	C171	C	0.852349	0.604804	0.812715
	C172	C	0.160538	0.871590	0.387249
	C173	C	0.158613	0.119245	0.604712
	C174	C	0.797038	0.118011	0.385544
	C175	C	0.796452	0.871997	0.603755
	C176	C	0.368837	0.177572	0.870806
	C177	C	0.584924	0.178753	0.120840
	C178	C	0.366315	0.816221	0.116951
	C179	C	0.587326	0.814757	0.871958
	C180	C	0.366760	0.873375	0.175331
	C181	C	0.584246	0.121876	0.179289
	C182	C	0.367980	0.118772	0.814289
	C183	C	0.587809	0.873070	0.814825
	C184	C	0.854911	0.175607	0.385437
	C185	C	0.101471	0.177911	0.604051
	C186	C	0.103493	0.813332	0.387617
	C187	C	0.854304	0.814050	0.603490
	C188	C	0.159444	0.387650	0.869425
	C189	C	0.157409	0.604206	0.117264
	C190	C	0.794861	0.387524	0.119093
	C191	C	0.795890	0.605737	0.871792
	C192	C	0.381266	0.085810	0.591888
	C193	C	0.574921	0.905257	0.592829
	C194	C	0.572603	0.086256	0.399610
	C195	C	0.381362	0.905665	0.398256
	C196	C	0.571738	0.400419	0.084007
	C197	C	0.573985	0.592969	0.903803
	C198	C	0.378562	0.594485	0.085068
	C199	C	0.382385	0.400395	0.904289
	C200	C	0.069559	0.591825	0.397977
	C201	C	0.886987	0.591280	0.588850
	C202	C	0.066843	0.400269	0.590191
	C203	C	0.885841	0.398646	0.398121
	C204	C	0.879708	0.586627	0.093238
	C205	C	0.073396	0.404935	0.091743
	C206	C	0.071456	0.585402	0.898428
	C207	C	0.881062	0.406646	0.898813
	C208	C	0.073078	0.900240	0.585405
	C209	C	0.073678	0.092584	0.405219
	C210	C	0.880661	0.093328	0.585984
	C211	C	0.881917	0.899585	0.404906
	C212	C	0.568558	0.090958	0.899011
	C213	C	0.387402	0.090859	0.088658
	C214	C	0.567279	0.899097	0.091206
	C215	C	0.386085	0.898503	0.896668
	Zn216	Zn	0.477647	-0.004003	0.745483
	Zn217	Zn	0.476505	-0.003829	0.244341
	Zn218	Zn	0.726876	0.496189	-0.005057
	Zn219	Zn	0.226638	0.495274	-0.006084
	Zn220	Zn	-0.021125	0.745555	0.495230
	Zn221	Zn	-0.023015	0.245997	0.495214
	Zn222	Zn	-0.023963	0.495745	0.744218
	Zn223	Zn	-0.022491	0.495068	0.245545
	Zn224	Zn	0.476381	0.746212	-0.005702
	Zn225	Zn	0.477799	0.245322	-0.005918
	Zn226	Zn	0.727508	-0.004016	0.495101
	Zn227	Zn	0.227282	-0.003895	0.495855
	N228	N	0.391367	0.960525	0.674831
	N229	N	0.564547	0.030816	0.675582
	N230	N	0.563653	0.961494	0.315308
	N231	N	0.389133	0.030472	0.314346
	N232	N	0.657305	0.409250	0.959900
	N233	N	0.656060	0.582383	0.030101
	N234	N	0.296644	0.582482	0.958910
	N235	N	0.298705	0.410198	0.029615
	N236	N	0.943792	0.676177	0.407871
	N237	N	0.013071	0.674123	0.580664
	N238	N	0.941934	0.315571	0.581667
	N239	N	0.012256	0.315843	0.408659
	N240	N	0.940948	0.409379	0.673908
	N241	N	0.011794	0.581769	0.674206
	N242	N	0.942434	0.581664	0.316071
	N243	N	0.012633	0.409285	0.315954
	N244	N	0.389540	0.676062	0.958718
	N245	N	0.562707	0.675626	0.029497
	N246	N	0.565934	0.314307	0.960735
	N247	N	0.390364	0.315066	0.028500
	N248	N	0.656243	0.960701	0.409610
	N249	N	0.657316	0.031043	0.581755
	N250	N	0.297848	0.960635	0.581752
	N251	N	0.297062	0.031075	0.408810
	N252	N	0.889193	0.461292	0.176506
	N253	N	0.064306	0.529798	0.175539
	N254	N	0.063933	0.461085	0.813532
	N255	N	0.888593	0.530541	0.813485
	N256	N	0.158113	0.908986	0.460881
	N257	N	0.157015	0.082454	0.530772
	N258	N	0.797659	0.082688	0.460234
	N259	N	0.797965	0.909152	0.530030
	N260	N	0.443613	0.176490	0.906816
	N261	N	0.512023	0.175574	0.081515
	N262	N	0.440890	0.816919	0.080451
	N263	N	0.512080	0.814984	0.907037
	N264	N	0.441475	0.909153	0.174619
	N265	N	0.510764	0.084027	0.176106
	N266	N	0.442262	0.081716	0.815835
	N267	N	0.512947	0.909088	0.815079
	N268	N	0.890659	0.175754	0.460137
	N269	N	0.065019	0.177017	0.529766
	N270	N	0.066150	0.815080	0.461162
	N271	N	0.891151	0.815363	0.529651
	N272	N	0.156874	0.460993	0.907135
	N273	N	0.156417	0.530169	0.080813
	N274	N	0.796336	0.461498	0.082534
	N275	N	0.797400	0.532065	0.908879
	O276	O	-0.077131	0.862848	-0.000421
	H277	H	-0.081233	0.873383	0.012249
	H278	H	-0.093089	0.867784	-0.002287
	O279	O	0.658551	0.302868	0.289693
	H280	H	0.668721	0.315754	0.308889
	H281	H	0.684742	0.275903	0.272942
	O282	O	0.766931	0.204443	1.006438
	H283	H	0.758375	0.228854	1.007806
	H284	H	0.786494	0.195159	1.013355
	O285	O	0.382989	0.512277	0.615474
	H286	H	0.386031	0.521658	0.602184
	H287	H	0.394637	0.524246	0.613251
	O288	O	0.641543	0.397194	0.608210
	H289	H	0.650851	0.395459	0.623005
	H290	H	0.639590	0.390625	0.622010
	O291	O	0.675679	0.520268	0.709174
	H292	H	0.682950	0.527050	0.692928
	H293	H	0.687885	0.528616	0.726015
	O294	O	0.762054	0.030377	0.773386
	H295	H	0.752618	0.026301	0.758729
	H296	H	0.758872	0.027533	0.773110
	O297	O	0.165619	0.783787	0.781085
	H298	H	0.169088	0.798171	0.799764
	H299	H	0.136867	0.779692	0.779528
	O300	O	-0.235044	0.041171	1.060890
	H301	H	-0.242544	0.028551	1.078119
	H302	H	-0.240959	0.056178	1.056118
	O303	O	0.753454	-0.225584	0.030010
	H304	H	0.747950	-0.230967	0.070253
	H305	H	0.733995	-0.243881	0.038618
	O306	O	1.131605	0.987526	0.916568
	H307	H	1.128627	0.989233	0.915142
	H308	H	1.130272	1.002893	0.918674
	O309	O	0.476334	0.356346	0.305348
	H310	H	0.485370	0.342481	0.302686
	H311	H	0.503743	0.351083	0.309544
	O312	O	0.430956	0.498919	0.605486
	H313	H	0.418036	0.512389	0.613291
	H314	H	0.442691	0.523893	0.612410
	O315	O	1.008088	0.966001	1.140925
	H316	H	1.001709	0.970770	1.146092
	H317	H	1.011385	0.975155	1.128049
	O318	O	0.271436	0.289858	0.699980
	H319	H	0.288308	0.293218	0.685656
	H320	H	0.280968	0.321992	0.698792
	O321	O	0.269474	0.707456	0.464283
	H322	H	0.267958	0.720151	0.471762
	H323	H	0.261423	0.708992	0.458169
	O324	O	0.797627	0.818465	-0.187295
	H325	H	0.801921	0.833188	-0.162085
	H326	H	0.809957	0.822121	-0.192231
	O327	O	-0.053853	-0.160470	1.212339
	H328	H	-0.048675	-0.155403	1.220330
	H329	H	-0.048245	-0.150908	1.219708
	O330	O	0.766151	0.788836	1.202477
	H331	H	0.819646	0.782109	1.210462
	H332	H	0.738039	0.755931	1.237815
	O333	O	0.188403	0.210742	0.205876
	H334	H	0.205111	0.185713	0.218956
	H335	H	0.211964	0.231678	0.213462
	O336	O	1.190514	0.186060	-0.004841
	H337	H	1.187677	0.193278	0.012925
	H338	H	1.208907	0.193925	-0.000681
	O339	O	1.187325	-0.011303	0.910822
	H340	H	1.176867	-0.015420	0.916219
	H341	H	1.195138	-0.005758	0.885852
	O342	O	0.624135	0.326705	-0.466481
	H343	H	0.638562	0.331732	-0.454655
	H344	H	0.625720	0.316668	-0.456374
	O345	O	-0.185208	1.159260	1.186249
	H346	H	-0.176525	1.140323	1.178740
	H347	H	-0.164961	1.159292	1.165896
	O348	O	0.314911	0.313408	0.541406
	H349	H	0.314390	0.312838	0.544206
	H350	H	0.306300	0.306931	0.548441
	O351	O	0.942623	1.003081	-0.009420
	H352	H	0.940630	1.004994	-0.009702
	H353	H	0.939457	0.998701	-0.022754
	O354	O	-0.164601	0.111021	0.873875
	H355	H	-0.164694	0.114198	0.887946
	H356	H	-0.169494	0.093520	0.873865
	O357	O	0.418920	0.371091	0.322889
	H358	H	0.439299	0.372257	0.329394
	H359	H	0.441170	0.355798	0.327391
	O360	O	0.725676	0.250818	0.739611
	H361	H	0.723118	0.257216	0.767203
	H362	H	0.745672	0.228687	0.744937
	O363	O	-0.324058	-0.339935	-0.488535
	H364	H	-0.314789	-0.334098	-0.503042
	H365	H	-0.331240	-0.350941	-0.493095
	O366	O	0.689584	0.457172	0.276652
	H367	H	0.692871	0.437687	0.269725
	H368	H	0.703809	0.454609	0.261102
	O369	O	0.759366	-0.071116	-0.042931
	H370	H	0.752322	-0.076025	-0.029439
	H371	H	0.756062	-0.074254	-0.027126
	O372	O	1.328227	1.493802	0.706985
	H373	H	1.319732	1.508915	0.709452
	H374	H	1.323688	1.516789	0.706395
	O375	O	0.980457	0.221744	-0.063585
	H376	H	0.988066	0.227804	-0.058752
	H377	H	0.997008	0.216508	-0.059753
	O378	O	0.028369	-0.039786	0.869345
	H379	H	0.027983	-0.036080	0.864057
	H380	H	0.027617	-0.033661	0.858423
	O381	O	0.009284	0.949032	0.931999
	H382	H	0.015206	0.933271	0.928562
	H383	H	0.012784	0.967178	0.924106
	O384	O	1.077013	-0.029141	0.767173
	H385	H	1.080241	-0.047739	0.759427
	H386	H	1.080747	-0.041917	0.760103
	O387	O	1.147833	0.771171	0.136308
	H388	H	1.124751	0.771623	0.125660
	H389	H	1.144756	0.756569	0.146706
	O390	O	0.693498	0.517106	0.457417
	H391	H	0.697020	0.494981	0.450215
	H392	H	0.695961	0.497461	0.469544
	O393	O	0.291643	0.517633	0.278393
	H394	H	0.275927	0.509753	0.261817
	H395	H	0.308729	0.489344	0.277179
	O396	O	-0.052235	1.212027	0.783027
	H397	H	-0.055044	1.220228	0.788393
	H398	H	-0.050462	1.214983	0.771600
	O399	O	-0.503795	0.677032	0.456426
	H400	H	-0.490126	0.674974	0.460871
	H401	H	-0.512665	0.678859	0.456400
	O402	O	0.442110	0.290853	0.700476
	H403	H	0.453819	0.310828	0.709023
	H404	H	0.432482	0.278785	0.723563
	O405	O	0.753994	-0.017115	1.197869
	H406	H	0.750529	-0.040284	1.203374
	H407	H	0.744642	-0.045013	1.210713
	O408	O	-0.053895	-0.225062	0.041111
	H409	H	-0.069816	-0.231425	0.047438
	H410	H	-0.052413	-0.220365	0.045130
	O411	O	1.017333	0.975025	1.120784
	H412	H	1.033827	0.989233	1.118469
	H413	H	1.005088	0.987411	1.120577
	O414	O	1.077174	0.022730	0.020898
	H415	H	1.071947	0.025175	0.010367
	H416	H	1.078791	0.027385	0.023958
	O417	O	0.618472	0.342182	0.490137
	H418	H	0.604910	0.340693	0.487958
	H419	H	0.619686	0.324741	0.486561
	O420	O	0.474512	0.642521	0.418571
	H421	H	0.471890	0.647056	0.428145
	H422	H	0.480991	0.648079	0.419584
	O423	O	0.259508	-0.204066	1.220064
	H424	H	0.241006	-0.202588	1.226177
	H425	H	0.268817	-0.197013	1.209633
	O426	O	0.553489	0.338159	0.488815
	H427	H	0.555116	0.335225	0.505652
	H428	H	0.556244	0.338292	0.506507
	O429	O	1.143673	1.182593	0.829979
	H430	H	1.149799	1.189458	0.831595
	H431	H	1.145477	1.190420	0.819990
	O432	O	0.602974	0.711738	0.711883
	H433	H	0.604991	0.723028	0.685103
	H434	H	0.629317	0.735498	0.729909
	O435	O	0.293977	0.308324	0.307019
	H436	H	0.308059	0.325857	0.329724
	H437	H	0.319918	0.322082	0.320638
	O438	O	0.035039	0.220166	0.184845
	H439	H	0.053544	0.221943	0.203505
	H440	H	0.060531	0.231896	0.198959
	O441	O	0.429752	0.511315	0.523334
	H442	H	0.431045	0.511100	0.522765
	H443	H	0.426393	0.505764	0.519342
	O444	O	0.351359	0.404787	0.442263
	H445	H	0.358221	0.408941	0.455593
	H446	H	0.347332	0.408230	0.453379
	O447	O	0.044539	1.001568	1.085414
	H448	H	0.044837	1.009765	1.079437
	H449	H	0.045355	0.995952	1.075530
	O450	O	0.000712	0.787309	0.805361
	H451	H	-0.009358	0.780316	0.810908
	H452	H	-0.003586	0.791450	0.814676
	O453	O	0.282983	0.567182	0.372763
	H454	H	0.281778	0.564098	0.406335
	H455	H	0.279359	0.537397	0.373095
	O456	O	0.183415	0.046538	1.210959
	H457	H	0.190079	0.031901	1.216639
	H458	H	0.196123	0.046481	1.211477
	O459	O	1.197219	0.772673	-0.046621
	H460	H	1.209417	0.751688	-0.035572
	H461	H	1.198454	0.775223	-0.051523
	O462	O	1.561542	0.659742	0.540758
	H463	H	1.559193	0.657786	0.525336
	H464	H	1.538232	0.650453	0.537335
	O465	O	1.033069	-0.001795	-0.000973
	H466	H	1.038417	-0.000456	0.012584
	H467	H	1.041680	0.005493	0.003450
	O468	O	0.542565	0.613421	0.421865
	H469	H	0.530613	0.609055	0.414912
	H470	H	0.536756	0.593729	0.417430
	O471	O	0.669308	0.686214	0.306353
	H472	H	0.662468	0.661400	0.329976
	H473	H	0.637330	0.672559	0.319227
	O474	O	0.528101	0.706062	0.642004
	H475	H	0.541146	0.707900	0.639757
	H476	H	0.539282	0.719933	0.639391
	O477	O	0.430946	0.337125	1.457169
	H478	H	0.431502	0.331820	1.462590
	H479	H	0.438432	0.337855	1.464832
	O480	O	0.426434	0.637429	0.529759
	H481	H	0.424400	0.651348	0.546664
	H482	H	0.425929	0.649537	0.513306
	O483	O	0.287303	0.651848	0.649152
	H484	H	0.270000	0.674085	0.661838
	H485	H	0.295436	0.650034	0.641787
	O486	O	0.434662	0.455268	0.474204
	H487	H	0.448864	0.448367	0.466031
	H488	H	0.435216	0.451363	0.486269
	O489	O	0.922422	1.220290	0.054605
	H490	H	0.944011	1.222753	0.068268
	H491	H	0.941679	1.214914	0.054278
