data_Molecule from HDF5

_cell_length_a		16.287600
_cell_length_b		16.335833
_cell_length_c		16.281099
_cell_angle_alpha	90.042404
_cell_angle_beta	89.914013
_cell_angle_gamma	90.010960
_symmetry_space_group_name_H-M	'P 1'
_symmetry_Int_Tables_number		1

loop_
	_symmetry_equiv_pos_as_xyz
	x,y,z

loop_
	_atom_site_label
	_atom_site_type_symbol
	_atom_site_fract_x
	_atom_site_fract_y
	_atom_site_fract_z
	H0	H	0.402610	0.836062	0.713550
	H1	H	0.597767	0.163132	0.713795
	H2	H	0.597061	0.836478	0.285923
	H3	H	0.402860	0.164042	0.286657
	H4	H	0.713815	0.402598	0.836090
	H5	H	0.712049	0.597390	0.164731
	H6	H	0.285774	0.597398	0.835875
	H7	H	0.286465	0.402987	0.164160
	H8	H	0.835658	0.714118	0.402886
	H9	H	0.163570	0.714541	0.598006
	H10	H	0.836893	0.284396	0.599542
	H11	H	0.163600	0.285164	0.400492
	H12	H	0.835693	0.403511	0.712296
	H13	H	0.164346	0.597235	0.713053
	H14	H	0.835974	0.596531	0.287332
	H15	H	0.164216	0.403334	0.285978
	H16	H	0.401523	0.714013	0.836306
	H17	H	0.597349	0.714310	0.163820
	H18	H	0.598311	0.286148	0.836078
	H19	H	0.402719	0.286312	0.164708
	H20	H	0.713755	0.836730	0.401716
	H21	H	0.714547	0.163268	0.598598
	H22	H	0.285602	0.836137	0.596661
	H23	H	0.287005	0.164331	0.402750
	H24	H	0.901772	0.336865	0.214370
	H25	H	0.097530	0.663103	0.214311
	H26	H	0.097717	0.336526	0.785512
	H27	H	0.902818	0.663680	0.786051
	H28	H	0.213788	0.902399	0.335989
	H29	H	0.213381	0.097443	0.664358
	H30	H	0.786449	0.097704	0.336114
	H31	H	0.785430	0.901212	0.664005
	H32	H	0.335754	0.213460	0.902640
	H33	H	0.663924	0.215461	0.098449
	H34	H	0.335840	0.786562	0.097261
	H35	H	0.663855	0.785077	0.901193
	H36	H	0.335435	0.903304	0.213113
	H37	H	0.664975	0.096344	0.212756
	H38	H	0.336100	0.096248	0.786340
	H39	H	0.664609	0.902267	0.785461
	H40	H	0.901390	0.214967	0.336612
	H41	H	0.098395	0.214894	0.663678
	H42	H	0.098250	0.786289	0.335754
	H43	H	0.902764	0.786034	0.664194
	H44	H	0.213849	0.336393	0.901537
	H45	H	0.213830	0.662986	0.098538
	H46	H	0.786841	0.335970	0.096631
	H47	H	0.786371	0.663653	0.902664
	H48	H	0.408016	0.115551	0.594056
	H49	H	0.588386	0.888929	0.582579
	H50	H	0.593008	0.118188	0.398508
	H51	H	0.410501	0.887416	0.412851
	H52	H	0.594473	0.401355	0.119073
	H53	H	0.594918	0.595318	0.881842
	H54	H	0.412992	0.594429	0.114510
	H55	H	0.407755	0.404950	0.883589
	H56	H	0.115102	0.594573	0.411657
	H57	H	0.881583	0.593863	0.600385
	H58	H	0.117290	0.405749	0.592054
	H59	H	0.883844	0.409059	0.406402
	H60	H	0.115967	0.407487	0.592072
	H61	H	0.882468	0.599065	0.590255
	H62	H	0.116145	0.589703	0.404010
	H63	H	0.882961	0.404854	0.406206
	H64	H	0.403619	0.597976	0.118594
	H65	H	0.595237	0.590485	0.884358
	H66	H	0.597226	0.411368	0.116420
	H67	H	0.405429	0.405553	0.882586
	H68	H	0.587215	0.112901	0.410548
	H69	H	0.606070	0.880089	0.592888
	H70	H	0.404209	0.115691	0.591779
	H71	H	0.398415	0.881804	0.407147
	H72	H	0.902616	0.615823	0.089982
	H73	H	0.092491	0.382080	0.100644
	H74	H	0.090115	0.612942	0.914747
	H75	H	0.903361	0.381294	0.900603
	H76	H	0.085542	0.902146	0.615311
	H77	H	0.096428	0.080331	0.387040
	H78	H	0.910707	0.088672	0.613944
	H79	H	0.905122	0.906689	0.382955
	H80	H	0.615812	0.091946	0.905448
	H81	H	0.387104	0.085634	0.090419
	H82	H	0.619423	0.897850	0.097003
	H83	H	0.384390	0.904133	0.908638
	H84	H	0.613977	0.906344	0.083902
	H85	H	0.380860	0.094740	0.102723
	H86	H	0.617117	0.095707	0.905815
	H87	H	0.385473	0.909050	0.909082
	H88	H	0.908445	0.098135	0.617300
	H89	H	0.080771	0.098649	0.385564
	H90	H	0.100316	0.903687	0.619462
	H91	H	0.907337	0.907405	0.384104
	H92	H	0.102677	0.618864	0.905424
	H93	H	0.087663	0.386479	0.089027
	H94	H	0.903964	0.618549	0.098517
	H95	H	0.913156	0.385990	0.906281
	H96	H	0.404712	0.117333	0.596504
	H97	H	0.587123	0.882765	0.603888
	H98	H	0.600823	0.117569	0.410293
	H99	H	0.410131	0.883534	0.398728
	H100	H	0.587084	0.407602	0.114322
	H101	H	0.590988	0.592963	0.884604
	H102	H	0.404303	0.587749	0.115332
	H103	H	0.406364	0.407178	0.884168
	H104	H	0.118915	0.598630	0.403723
	H105	H	0.885629	0.588494	0.591025
	H106	H	0.116822	0.406572	0.593148
	H107	H	0.884876	0.406675	0.409671
	H108	H	0.910319	0.614993	0.093398
	H109	H	0.100502	0.382090	0.090140
	H110	H	0.087488	0.616285	0.899321
	H111	H	0.902496	0.385579	0.912010
	H112	H	0.092487	0.915494	0.613889
	H113	H	0.103524	0.101884	0.378218
	H114	H	0.901490	0.090991	0.617929
	H115	H	0.906919	0.905288	0.383286
	H116	H	0.615983	0.093717	0.908898
	H117	H	0.384036	0.101592	0.087730
	H118	H	0.615587	0.913855	0.098166
	H119	H	0.383961	0.907259	0.904689
	C120	C	0.378096	0.007826	0.621623
	C121	C	0.621759	0.991724	0.621366
	C122	C	0.621639	0.008397	0.378131
	C123	C	0.378560	0.992346	0.378479
	C124	C	0.621367	0.378614	0.008275
	C125	C	0.621606	0.621437	0.991757
	C126	C	0.378462	0.621459	0.008003
	C127	C	0.378352	0.378134	0.991778
	C128	C	0.008150	0.621755	0.378657
	C129	C	0.991802	0.621559	0.621502
	C130	C	0.008312	0.378420	0.621071
	C131	C	0.992111	0.378521	0.378641
	C132	C	0.877810	0.508233	0.121947
	C133	C	0.121330	0.491562	0.121418
	C134	C	0.121544	0.507949	0.878386
	C135	C	0.878566	0.492178	0.878476
	C136	C	0.121269	0.878680	0.508124
	C137	C	0.121587	0.121748	0.491895
	C138	C	0.878709	0.121296	0.508177
	C139	C	0.878547	0.878278	0.491901
	C140	C	0.508110	0.121662	0.878607
	C141	C	0.492274	0.122011	0.121746
	C142	C	0.508110	0.878079	0.121638
	C143	C	0.492216	0.877905	0.878212
	C144	C	0.381199	0.884820	0.675898
	C145	C	0.618316	0.114730	0.675852
	C146	C	0.618592	0.885430	0.323029
	C147	C	0.382026	0.115388	0.324182
	C148	C	0.676362	0.381666	0.884987
	C149	C	0.675279	0.618634	0.115463
	C150	C	0.323630	0.618372	0.885023
	C151	C	0.324026	0.381735	0.115413
	C152	C	0.884785	0.676427	0.381696
	C153	C	0.114827	0.676577	0.618590
	C154	C	0.885454	0.322883	0.619185
	C155	C	0.115128	0.323737	0.380987
	C156	C	0.885018	0.381645	0.675697
	C157	C	0.115272	0.618593	0.675863
	C158	C	0.884580	0.617914	0.324660
	C159	C	0.115411	0.382134	0.323915
	C160	C	0.380877	0.676583	0.884958
	C161	C	0.618203	0.676383	0.115115
	C162	C	0.618854	0.323931	0.884966
	C163	C	0.381595	0.323776	0.115506
	C164	C	0.676115	0.885460	0.381093
	C165	C	0.676503	0.114582	0.618942
	C166	C	0.323359	0.884865	0.617821
	C167	C	0.324228	0.115375	0.381729
	C168	C	0.880856	0.385291	0.176690
	C169	C	0.118003	0.614453	0.176170
	C170	C	0.118609	0.385140	0.823354
	C171	C	0.882169	0.615149	0.824121
	C172	C	0.175891	0.881886	0.384614
	C173	C	0.175933	0.118222	0.615309
	C174	C	0.823815	0.118426	0.385096
	C175	C	0.823841	0.881546	0.615306
	C176	C	0.384750	0.176050	0.881866
	C177	C	0.615424	0.176942	0.118972
	C178	C	0.384766	0.823696	0.118552
	C179	C	0.615387	0.823097	0.880576
	C180	C	0.384398	0.882118	0.175569
	C181	C	0.615832	0.118039	0.175699
	C182	C	0.384732	0.117357	0.824530
	C183	C	0.615618	0.881364	0.823312
	C184	C	0.881185	0.176448	0.385211
	C185	C	0.118472	0.176194	0.615139
	C186	C	0.118353	0.824000	0.384818
	C187	C	0.881485	0.823852	0.615322
	C188	C	0.176407	0.385079	0.881008
	C189	C	0.175928	0.614321	0.118810
	C190	C	0.823523	0.385089	0.118640
	C191	C	0.824181	0.615017	0.881883
	C192	C	0.399400	0.093989	0.600444
	C193	C	0.600188	0.905878	0.599694
	C194	C	0.600039	0.094221	0.400035
	C195	C	0.399963	0.906462	0.399921
	C196	C	0.599370	0.400362	0.094356
	C197	C	0.599923	0.599491	0.905807
	C198	C	0.400565	0.599737	0.094045
	C199	C	0.400109	0.399480	0.905661
	C200	C	0.094352	0.600572	0.400046
	C201	C	0.905618	0.600106	0.600244
	C202	C	0.094462	0.400227	0.599134
	C203	C	0.906141	0.400392	0.400921
	C204	C	0.899292	0.594207	0.100360
	C205	C	0.099787	0.405535	0.099838
	C206	C	0.099831	0.593787	0.900060
	C207	C	0.900110	0.406311	0.899983
	C208	C	0.099394	0.900689	0.594249
	C209	C	0.099818	0.100085	0.405597
	C210	C	0.900505	0.099102	0.594151
	C211	C	0.900103	0.900032	0.405671
	C212	C	0.594162	0.100039	0.900377
	C213	C	0.406214	0.100348	0.100043
	C214	C	0.594233	0.899572	0.099526
	C215	C	0.406653	0.900238	0.900888
	Zn216	Zn	0.500212	-0.000229	0.750002
	Zn217	Zn	0.500044	-0.000015	0.249769
	Zn218	Zn	0.749662	0.500153	0.000224
	Zn219	Zn	0.249931	0.499966	0.000209
	Zn220	Zn	0.000039	0.750072	0.500087
	Zn221	Zn	0.000054	0.249953	0.500154
	Zn222	Zn	0.000315	0.499890	0.749357
	Zn223	Zn	0.000036	0.500015	0.250080
	Zn224	Zn	0.500013	0.749517	-0.000125
	Zn225	Zn	0.500084	0.250272	0.000071
	Zn226	Zn	0.750204	-0.000071	0.500335
	Zn227	Zn	0.249614	0.000169	0.499649
	N228	N	0.414591	0.962148	0.678214
	N229	N	0.584964	0.037353	0.677492
	N230	N	0.585154	0.962777	0.321389
	N231	N	0.414876	0.037828	0.321905
	N232	N	0.677717	0.415147	0.962548
	N233	N	0.677553	0.585150	0.037787
	N234	N	0.321892	0.585001	0.962512
	N235	N	0.321974	0.414977	0.037709
	N236	N	0.962643	0.678872	0.414440
	N237	N	0.037067	0.678595	0.585658
	N238	N	0.963051	0.320925	0.586048
	N239	N	0.037425	0.321359	0.414122
	N240	N	0.962351	0.415747	0.676709
	N241	N	0.037785	0.584938	0.677764
	N242	N	0.962365	0.584819	0.322457
	N243	N	0.037877	0.415443	0.322199
	N244	N	0.414547	0.678166	0.962495
	N245	N	0.585548	0.678238	0.037381
	N246	N	0.585448	0.321971	0.962566
	N247	N	0.414759	0.321516	0.037761
	N248	N	0.678199	0.962783	0.414549
	N249	N	0.678575	0.037210	0.585726
	N250	N	0.321246	0.962473	0.584890
	N251	N	0.321888	0.037866	0.414854
	N252	N	0.913950	0.462834	0.178940
	N253	N	0.084531	0.537128	0.177629
	N254	N	0.085464	0.462506	0.821360
	N255	N	0.915335	0.537680	0.821930
	N256	N	0.177812	0.915082	0.462286
	N257	N	0.177962	0.085051	0.537533
	N258	N	0.822266	0.084853	0.462470
	N259	N	0.821852	0.914613	0.537493
	N260	N	0.462494	0.178581	0.914537
	N261	N	0.537602	0.179624	0.086357
	N262	N	0.462653	0.821240	0.085676
	N263	N	0.537746	0.821016	0.914166
	N264	N	0.461961	0.915376	0.177540
	N265	N	0.538232	0.084362	0.177229
	N266	N	0.462434	0.084165	0.822439
	N267	N	0.538001	0.914431	0.821465
	N268	N	0.914559	0.178370	0.462764
	N269	N	0.085398	0.178188	0.537434
	N270	N	0.084872	0.822378	0.462523
	N271	N	0.914806	0.821929	0.537691
	N272	N	0.178110	0.462474	0.914707
	N273	N	0.178009	0.536943	0.085557
	N274	N	0.821712	0.462387	0.085291
	N275	N	0.821975	0.537679	0.914972
