data_Molecule from HDF5

_cell_length_a		16.684508
_cell_length_b		16.643978
_cell_length_c		16.607902
_cell_angle_alpha	90.070126
_cell_angle_beta	90.052940
_cell_angle_gamma	89.996187
_symmetry_space_group_name_H-M	'P 1'
_symmetry_Int_Tables_number		1

loop_
	_symmetry_equiv_pos_as_xyz
	x,y,z

loop_
	_atom_site_label
	_atom_site_type_symbol
	_atom_site_fract_x
	_atom_site_fract_y
	_atom_site_fract_z
	H0	H	0.391566	0.846855	0.714036
	H1	H	0.604793	0.155098	0.711903
	H2	H	0.604360	0.845432	0.268340
	H3	H	0.391954	0.153881	0.267528
	H4	H	0.719979	0.394441	0.834370
	H5	H	0.722096	0.606879	0.144772
	H6	H	0.281925	0.603057	0.833036
	H7	H	0.278198	0.394858	0.144895
	H8	H	0.845593	0.723872	0.383406
	H9	H	0.154646	0.721795	0.595221
	H10	H	0.844491	0.279154	0.596005
	H11	H	0.153849	0.278948	0.384911
	H12	H	0.843402	0.396661	0.710397
	H13	H	0.156323	0.602979	0.708522
	H14	H	0.845033	0.608287	0.266738
	H15	H	0.154246	0.396526	0.269342
	H16	H	0.397164	0.719359	0.833469
	H17	H	0.606930	0.722266	0.144793
	H18	H	0.604734	0.278286	0.835470
	H19	H	0.394489	0.279660	0.145277
	H20	H	0.721951	0.845829	0.382341
	H21	H	0.721524	0.154089	0.595978
	H22	H	0.275170	0.847614	0.598718
	H23	H	0.277429	0.154785	0.385266
	H24	H	0.894726	0.346085	0.211180
	H25	H	0.103865	0.656708	0.210571
	H26	H	0.099275	0.343185	0.774010
	H27	H	0.896892	0.656988	0.770007
	H28	H	0.221281	0.894760	0.335509
	H29	H	0.220288	0.106784	0.645301
	H30	H	0.775988	0.107672	0.334855
	H31	H	0.777466	0.894429	0.645158
	H32	H	0.346081	0.223991	0.882852
	H33	H	0.651923	0.225335	0.100002
	H34	H	0.344990	0.778824	0.093885
	H35	H	0.653746	0.776242	0.881547
	H36	H	0.343790	0.896055	0.209709
	H37	H	0.652433	0.108191	0.215050
	H38	H	0.346528	0.107792	0.766527
	H39	H	0.653959	0.893679	0.767123
	H40	H	0.891487	0.223834	0.335665
	H41	H	0.102468	0.220328	0.645934
	H42	H	0.106048	0.778250	0.335767
	H43	H	0.894235	0.779822	0.645177
	H44	H	0.218087	0.343914	0.888106
	H45	H	0.221021	0.656052	0.095402
	H46	H	0.779771	0.345512	0.092960
	H47	H	0.779062	0.656280	0.884593
	H48	H	0.410740	0.114195	0.586274
	H49	H	0.587378	0.891564	0.572386
	H50	H	0.590562	0.112675	0.402174
	H51	H	0.410893	0.889587	0.403816
	H52	H	0.586305	0.409829	0.101627
	H53	H	0.586789	0.592668	0.877622
	H54	H	0.408581	0.587486	0.101794
	H55	H	0.414595	0.408217	0.878568
	H56	H	0.108016	0.589350	0.406647
	H57	H	0.889831	0.590313	0.575438
	H58	H	0.112554	0.403599	0.578763
	H59	H	0.886553	0.411874	0.396178
	H60	H	0.108191	0.413794	0.576726
	H61	H	0.888728	0.587096	0.581994
	H62	H	0.109725	0.584238	0.398962
	H63	H	0.887688	0.408717	0.405704
	H64	H	0.413071	0.590172	0.100812
	H65	H	0.593199	0.588981	0.877496
	H66	H	0.593087	0.411710	0.103859
	H67	H	0.405785	0.410238	0.876129
	H68	H	0.583443	0.109753	0.400844
	H69	H	0.594411	0.884889	0.580793
	H70	H	0.416990	0.108623	0.575811
	H71	H	0.408069	0.887921	0.401572
	H72	H	0.913095	0.611900	0.078592
	H73	H	0.089205	0.388912	0.081587
	H74	H	0.095151	0.615075	0.898005
	H75	H	0.905725	0.385908	0.896732
	H76	H	0.094607	0.919887	0.601267
	H77	H	0.087376	0.091407	0.376533
	H78	H	0.914018	0.089430	0.600162
	H79	H	0.914679	0.917492	0.381776
	H80	H	0.611239	0.089508	0.901410
	H81	H	0.388051	0.086722	0.081810
	H82	H	0.608335	0.915137	0.077515
	H83	H	0.388884	0.905809	0.904609
	H84	H	0.611359	0.911633	0.082413
	H85	H	0.387490	0.093504	0.078066
	H86	H	0.609364	0.089284	0.906264
	H87	H	0.391986	0.915352	0.904867
	H88	H	0.907579	0.092583	0.602489
	H89	H	0.090816	0.087389	0.377910
	H90	H	0.078799	0.913896	0.596883
	H91	H	0.914039	0.906917	0.377435
	H92	H	0.088176	0.613532	0.896978
	H93	H	0.086797	0.390139	0.077956
	H94	H	0.911598	0.611116	0.075908
	H95	H	0.912503	0.389927	0.897537
	H96	H	0.404070	0.112481	0.574637
	H97	H	0.582672	0.888803	0.583842
	H98	H	0.586866	0.108889	0.407992
	H99	H	0.411351	0.889029	0.399977
	H100	H	0.589009	0.416353	0.099525
	H101	H	0.586710	0.585550	0.880186
	H102	H	0.408738	0.592554	0.103019
	H103	H	0.410713	0.416316	0.880497
	H104	H	0.111406	0.593330	0.398783
	H105	H	0.887035	0.593252	0.580852
	H106	H	0.112150	0.411390	0.586652
	H107	H	0.891223	0.417756	0.403018
	H108	H	0.909980	0.612439	0.077983
	H109	H	0.091933	0.389573	0.078362
	H110	H	0.091274	0.612056	0.903647
	H111	H	0.907370	0.389561	0.903404
	H112	H	0.090084	0.903720	0.606535
	H113	H	0.086256	0.086859	0.379609
	H114	H	0.906933	0.085416	0.600663
	H115	H	0.904943	0.914046	0.376885
	H116	H	0.608502	0.085278	0.902890
	H117	H	0.390590	0.087352	0.074779
	H118	H	0.610592	0.908754	0.076182
	H119	H	0.387881	0.911579	0.896433
	C120	C	0.377822	0.009438	0.612109
	C121	C	0.620577	0.991083	0.611371
	C122	C	0.620129	0.008526	0.369558
	C123	C	0.377591	0.991230	0.369173
	C124	C	0.621191	0.379534	-0.000995
	C125	C	0.621441	0.621948	0.981114
	C126	C	0.379017	0.621243	-0.001761
	C127	C	0.378609	0.379678	0.981277
	C128	C	0.007790	0.622065	0.368553
	C129	C	0.991407	0.621556	0.610873
	C130	C	0.007981	0.378174	0.612386
	C131	C	0.990608	0.379685	0.369100
	C132	C	0.879294	0.509158	0.109909
	C133	C	0.120980	0.492513	0.111440
	C134	C	0.121206	0.509362	0.869112
	C135	C	0.878119	0.491980	0.868137
	C136	C	0.120883	0.879534	0.499216
	C137	C	0.120071	0.121161	0.481372
	C138	C	0.877051	0.122050	0.498433
	C139	C	0.878339	0.879513	0.481323
	C140	C	0.508265	0.121332	0.869822
	C141	C	0.490451	0.122435	0.112358
	C142	C	0.507917	0.879422	0.110900
	C143	C	0.491611	0.878514	0.868587
	C144	C	0.374453	0.893288	0.673110
	C145	C	0.623142	0.108306	0.671503
	C146	C	0.622861	0.892195	0.308388
	C147	C	0.374372	0.107681	0.308294
	C148	C	0.680578	0.376433	0.881669
	C149	C	0.681810	0.624691	0.097894
	C150	C	0.320831	0.622029	0.880301
	C151	C	0.318408	0.377006	0.098227
	C152	C	0.891978	0.683582	0.365149
	C153	C	0.108406	0.681439	0.613200
	C154	C	0.891130	0.319157	0.614175
	C155	C	0.107374	0.319556	0.366853
	C156	C	0.890754	0.377493	0.671393
	C157	C	0.109069	0.622555	0.669709
	C158	C	0.891816	0.625801	0.307244
	C159	C	0.107697	0.377602	0.309323
	C160	C	0.378268	0.679711	0.880446
	C161	C	0.624218	0.682025	0.098106
	C162	C	0.623174	0.318671	0.882069
	C163	C	0.376606	0.320074	0.098655
	C164	C	0.681244	0.892285	0.365357
	C165	C	0.680894	0.108005	0.613949
	C166	C	0.316274	0.893502	0.615971
	C167	C	0.317408	0.108279	0.366578
	C168	C	0.876576	0.392573	0.170556
	C169	C	0.122346	0.609873	0.170693
	C170	C	0.119633	0.390503	0.812418
	C171	C	0.877567	0.609851	0.809385
	C172	C	0.181191	0.876663	0.382149
	C173	C	0.179998	0.124163	0.598623
	C174	C	0.816241	0.125523	0.381714
	C175	C	0.817660	0.876412	0.598252
	C176	C	0.392482	0.183107	0.865311
	C177	C	0.605914	0.184089	0.116932
	C178	C	0.391397	0.819218	0.112511
	C179	C	0.607479	0.817214	0.864434
	C180	C	0.390658	0.877426	0.170094
	C181	C	0.605892	0.125863	0.174243
	C182	C	0.392478	0.125317	0.807613
	C183	C	0.607413	0.875539	0.807320
	C184	C	0.873826	0.183187	0.381965
	C185	C	0.121430	0.180795	0.598947
	C186	C	0.124004	0.818547	0.382453
	C187	C	0.875905	0.819556	0.598408
	C188	C	0.178460	0.390963	0.869180
	C189	C	0.180638	0.609451	0.113612
	C190	C	0.819538	0.392119	0.112055
	C191	C	0.819140	0.609651	0.866269
	C192	C	0.403297	0.090682	0.586234
	C193	C	0.595589	0.909662	0.586183
	C194	C	0.594302	0.089530	0.396158
	C195	C	0.403021	0.910091	0.394594
	C196	C	0.596664	0.405246	0.080502
	C197	C	0.596114	0.596575	0.899557
	C198	C	0.403233	0.597053	0.080566
	C199	C	0.403491	0.404319	0.899629
	C200	C	0.088748	0.596252	0.394335
	C201	C	0.910020	0.597269	0.586379
	C202	C	0.089662	0.402759	0.587695
	C203	C	0.909532	0.405412	0.394368
	C204	C	0.904390	0.590663	0.084697
	C205	C	0.096246	0.410696	0.086556
	C206	C	0.097894	0.591988	0.892626
	C207	C	0.901536	0.409964	0.892344
	C208	C	0.095258	0.905264	0.580388
	C209	C	0.095197	0.095894	0.399452
	C210	C	0.902260	0.096413	0.579881
	C211	C	0.903780	0.905403	0.399954
	C212	C	0.588748	0.095473	0.895999
	C213	C	0.409575	0.096399	0.085742
	C214	C	0.588933	0.904758	0.086044
	C215	C	0.410648	0.903862	0.894535
	Zn216	Zn	0.499250	0.000544	0.740282
	Zn217	Zn	0.498898	0.000118	0.240436
	Zn218	Zn	0.749964	0.501140	-0.010643
	Zn219	Zn	0.250051	0.500858	-0.010128
	Zn220	Zn	-0.000266	0.751176	0.490366
	Zn221	Zn	-0.001113	0.250198	0.489779
	Zn222	Zn	-0.000124	0.500990	0.740076
	Zn223	Zn	-0.000290	0.500752	0.239896
	Zn224	Zn	0.500239	0.749920	-0.010266
	Zn225	Zn	0.499550	0.251021	-0.009562
	Zn226	Zn	0.749419	0.000378	0.489584
	Zn227	Zn	0.248934	0.000820	0.490574
	N228	N	0.411970	0.966447	0.670579
	N229	N	0.586539	0.034491	0.670283
	N230	N	0.585556	0.965676	0.310719
	N231	N	0.410947	0.033884	0.309398
	N232	N	0.679805	0.413646	0.955402
	N233	N	0.680467	0.588046	0.023923
	N234	N	0.320939	0.586444	0.954812
	N235	N	0.319477	0.413510	0.024222
	N236	N	0.965346	0.681681	0.402559
	N237	N	0.034161	0.681243	0.577491
	N238	N	0.965230	0.319281	0.578342
	N239	N	0.033532	0.320514	0.403203
	N240	N	0.964683	0.413451	0.670626
	N241	N	0.035399	0.586043	0.668726
	N242	N	0.964964	0.588331	0.309231
	N243	N	0.033975	0.414096	0.310188
	N244	N	0.413903	0.679388	0.954838
	N245	N	0.587240	0.680431	0.024278
	N246	N	0.587155	0.320058	0.956273
	N247	N	0.413329	0.321527	0.024860
	N248	N	0.679641	0.965808	0.402714
	N249	N	0.679741	0.034011	0.577300
	N250	N	0.318264	0.966894	0.578163
	N251	N	0.319136	0.034756	0.403784
	N252	N	0.913069	0.466421	0.169312
	N253	N	0.085997	0.535984	0.169456
	N254	N	0.085056	0.465316	0.811891
	N255	N	0.913499	0.535624	0.810179
	N256	N	0.179655	0.913618	0.455980
	N257	N	0.179396	0.088063	0.524296
	N258	N	0.818075	0.088092	0.455191
	N259	N	0.818703	0.913029	0.524197
	N260	N	0.465487	0.180993	0.903335
	N261	N	0.532916	0.181811	0.078838
	N262	N	0.465364	0.819931	0.076722
	N263	N	0.534319	0.818852	0.901946
	N264	N	0.464215	0.914231	0.169353
	N265	N	0.532712	0.088312	0.171697
	N266	N	0.465425	0.087552	0.810241
	N267	N	0.534258	0.912836	0.809633
	N268	N	0.910988	0.181258	0.455740
	N269	N	0.084933	0.179468	0.524794
	N270	N	0.087158	0.820169	0.456206
	N271	N	0.912912	0.821367	0.524697
	N272	N	0.179792	0.465991	0.903419
	N273	N	0.180306	0.535280	0.077445
	N274	N	0.820911	0.465885	0.075252
	N275	N	0.818964	0.535189	0.901649
	O276	O	-0.011104	0.781266	-0.018858
	H277	H	0.007742	0.787375	-0.005101
	H278	H	0.001109	0.776642	-0.041302
	O279	O	0.422190	0.681172	0.495573
	H280	H	0.413378	0.681662	0.487181
	H281	H	0.407187	0.677288	0.485929
	O282	O	0.934795	-0.046237	0.848905
	H283	H	0.933634	-0.045971	0.837426
	H284	H	0.940884	-0.065058	0.857870
	O285	O	0.271558	0.482105	0.496529
	H286	H	0.269776	0.495152	0.501801
	H287	H	0.274474	0.488078	0.501445
	O288	O	0.391514	0.568472	0.532262
	H289	H	0.398422	0.578188	0.532817
	H290	H	0.404602	0.573308	0.535324
	O291	O	0.275833	0.278638	0.526308
	H292	H	0.257981	0.262025	0.542212
	H293	H	0.271975	0.277818	0.529473
	O294	O	1.005797	0.119776	1.053191
	H295	H	1.007666	0.107619	1.049015
	H296	H	1.008906	0.114801	1.036469
	O297	O	0.600630	0.477920	0.628846
	H298	H	0.614946	0.458543	0.622769
	H299	H	0.581775	0.468086	0.630942
	O300	O	-0.033545	0.219077	0.767345
	H301	H	-0.060043	0.228840	0.759804
	H302	H	-0.041283	0.225445	0.751076
	O303	O	0.704729	0.704962	0.695260
	H304	H	0.716240	0.711582	0.680359
	H305	H	0.692196	0.683034	0.684036
	O306	O	0.500225	0.540740	0.713293
	H307	H	0.516575	0.538407	0.710010
	H308	H	0.493307	0.548854	0.705477
	O309	O	0.316817	0.688361	0.674908
	H310	H	0.348511	0.688058	0.656205
	H311	H	0.323989	0.654448	0.658962
	O312	O	0.594350	0.658043	0.472582
	H313	H	0.594477	0.671658	0.469153
	H314	H	0.580551	0.645365	0.493668
	O315	O	0.822659	0.817392	0.808203
	H316	H	0.817003	0.805755	0.798553
	H317	H	0.838681	0.818631	0.829052
	O318	O	0.497341	0.684070	0.270071
	H319	H	0.484713	0.682519	0.269629
	H320	H	0.476730	0.690883	0.254232
	O321	O	0.095132	0.812477	0.774348
	H322	H	0.097470	0.803053	0.782859
	H323	H	0.120911	0.796334	0.774287
	O324	O	0.781694	0.966981	0.205500
	H325	H	0.771922	0.966844	0.214076
	H326	H	0.771863	0.965747	0.209140
	O327	O	-0.002605	-0.200784	1.008497
	H328	H	0.002362	-0.196019	1.012836
	H329	H	-0.008783	-0.196734	1.013430
	O330	O	0.568705	0.583970	0.482465
	H331	H	0.565629	0.594007	0.479751
	H332	H	0.563290	0.588267	0.490188
	O333	O	0.471049	0.285265	0.705688
	H334	H	0.468580	0.273014	0.723679
	H335	H	0.458557	0.283861	0.698444
	O336	O	0.714397	0.292412	0.276915
	H337	H	0.735227	0.277889	0.264629
	H338	H	0.707335	0.324234	0.274943
	O339	O	1.051753	0.067906	0.765742
	H340	H	1.045946	0.074959	0.756385
	H341	H	1.027942	0.050022	0.756754
	O342	O	-0.078230	-0.034319	0.018264
	H343	H	-0.081136	-0.037106	0.014107
	H344	H	-0.091839	-0.039152	0.021331
	O345	O	0.228431	0.963341	1.044242
	H346	H	0.220858	0.978348	1.040023
	H347	H	0.231102	0.967418	1.039805
	O348	O	0.405683	0.400738	0.402161
	H349	H	0.406749	0.394584	0.389412
	H350	H	0.400779	0.389578	0.408521
	O351	O	0.691163	0.691745	0.301140
	H352	H	0.696675	0.682461	0.319272
	H353	H	0.659960	0.674023	0.309854
	O354	O	0.185471	-0.187788	1.176436
	H355	H	0.167246	-0.173113	1.159589
	H356	H	0.167955	-0.169323	1.159607
	O357	O	0.279370	0.723643	0.464018
	H358	H	0.263430	0.739393	0.435562
	H359	H	0.271450	0.725270	0.442926
	O360	O	0.191412	0.189509	0.801009
	H361	H	0.174676	0.175475	0.821752
	H362	H	0.173106	0.166538	0.811741
	O363	O	-0.055808	0.218058	0.025553
	H364	H	-0.046339	0.210306	0.020586
	H365	H	-0.063185	0.211064	0.034790
	O366	O	0.291862	0.292350	0.694598
	H367	H	0.270776	0.269553	0.723646
	H368	H	0.299712	0.298949	0.684842
	O369	O	0.809728	0.187771	0.174537
	H370	H	0.825770	0.185485	0.170555
	H371	H	0.817075	0.174414	0.163626
	O372	O	0.775866	0.784853	0.017917
	H373	H	0.767255	0.765957	0.036114
	H374	H	0.782331	0.772835	0.020998
	O375	O	1.004233	-0.004477	0.081395
	H376	H	1.009621	0.003852	0.076641
	H377	H	0.993974	0.004769	0.076958
	O378	O	0.513350	0.276642	0.380245
	H379	H	0.513477	0.270594	0.378058
	H380	H	0.517948	0.267529	0.391074
	O381	O	0.216734	0.783468	0.818429
	H382	H	0.238454	0.786244	0.814435
	H383	H	0.223805	0.776528	0.818399
	O384	O	0.774410	0.036128	0.771091
	H385	H	0.760874	0.026258	0.779853
	H386	H	0.756307	0.031416	0.759127
	O387	O	1.064808	0.975836	0.194389
	H388	H	1.067697	0.975560	0.198238
	H389	H	1.059103	0.976924	0.183386
	O390	O	0.400917	0.464044	0.311704
	H391	H	0.409726	0.462098	0.331198
	H392	H	0.397592	0.460694	0.306807
	O393	O	0.508651	0.604887	0.516989
	H394	H	0.502339	0.599867	0.515024
	H395	H	0.487906	0.612723	0.521590
	O396	O	0.217717	0.981910	0.773270
	H397	H	0.217713	0.968726	0.776564
	H398	H	0.222034	0.982184	0.758336
	O399	O	0.069053	-0.068045	0.975019
	H400	H	0.079920	-0.057481	0.965146
	H401	H	0.065738	-0.068533	0.971992
	O402	O	0.309472	0.498642	0.518207
	H403	H	0.307141	0.483827	0.513475
	H404	H	0.306060	0.489561	0.528375
	O405	O	0.773516	0.216014	0.958911
	H406	H	0.754981	0.242477	0.958024
	H407	H	0.782458	0.208873	0.948693
	O408	O	0.221693	0.215785	0.025328
	H409	H	0.225873	0.222140	0.038866
	H410	H	0.226114	0.230611	0.038680
	O411	O	0.522790	0.717690	0.706088
	H412	H	0.530702	0.738108	0.730149
	H413	H	0.537020	0.716521	0.695893
	O414	O	0.687006	0.312036	0.678228
	H415	H	0.693238	0.302665	0.682654
	H416	H	0.665069	0.316273	0.655879
	O417	O	0.663983	0.497860	0.550279
	H418	H	0.667732	0.486455	0.551745
	H419	H	0.657974	0.507466	0.551120
	O420	O	0.284138	0.601881	0.273362
	H421	H	0.264693	0.601453	0.253281
	H422	H	0.296638	0.578933	0.265146
	O423	O	-0.237157	0.063813	1.050188
	H424	H	-0.237191	0.066043	1.044954
	H425	H	-0.240355	0.069920	1.047464
	O426	O	0.325955	0.348098	0.302403
	H427	H	0.344466	0.371948	0.308278
	H428	H	0.342505	0.342891	0.318697
	O429	O	0.973037	1.033552	0.873528
	H430	H	0.964759	1.033500	0.870263
	H431	H	0.974712	1.018017	0.878363
	O432	O	0.720273	0.718057	0.522924
	H433	H	0.736934	0.734211	0.524375
	H434	H	0.698980	0.731265	0.512689
	O435	O	0.351209	0.711778	0.281222
	H436	H	0.331998	0.732230	0.255569
	H437	H	0.344692	0.680666	0.274242
	O438	O	0.041999	0.217307	0.205817
	H439	H	0.035067	0.236819	0.221735
	H440	H	0.053864	0.212052	0.198287
	O441	O	0.210999	0.205586	0.199190
	H442	H	0.219578	0.189339	0.198076
	H443	H	0.200141	0.221993	0.213791
	O444	O	0.510684	0.347559	0.444935
	H445	H	0.508107	0.360582	0.459282
	H446	H	0.528483	0.350273	0.424625
	O447	O	0.216832	1.028775	1.208648
	H448	H	0.216459	1.038800	1.208656
	H449	H	0.236053	1.024535	1.221776
	O450	O	-0.029193	0.782768	1.211144
	H451	H	-0.040047	0.780163	1.216857
	H452	H	-0.041684	0.769297	1.225200
	O453	O	0.272715	0.459663	0.716996
	H454	H	0.269830	0.447953	0.719385
	H455	H	0.251639	0.452441	0.736039
	O456	O	-0.008500	-0.139547	0.799132
	H457	H	-0.010611	-0.153941	0.791581
	H458	H	-0.009064	-0.137294	0.796506
	O459	O	0.789994	0.793121	0.197975
	H460	H	0.795417	0.802855	0.192047
	H461	H	0.771855	0.781672	0.213544
	O462	O	0.531203	0.451286	0.339881
	H463	H	0.528530	0.461428	0.330123
	H464	H	0.541398	0.445805	0.349007
	O465	O	1.212461	0.053299	-0.064979
	H466	H	1.206441	0.049101	-0.070471
	H467	H	1.209212	0.067404	-0.077808
	O468	O	0.699894	0.462819	0.300225
	H469	H	0.701878	0.480970	0.305595
	H470	H	0.709015	0.468046	0.298533
	O471	O	0.732869	0.497139	0.446704
	H472	H	0.726467	0.467223	0.456826
	H473	H	0.743047	0.498266	0.458146
	O474	O	0.521492	0.511139	0.264559
	H475	H	0.504757	0.501788	0.262440
	H476	H	0.523446	0.514338	0.272371
	O477	O	0.442292	0.388695	1.505595
	H478	H	0.441413	0.392437	1.512818
	H479	H	0.445586	0.379824	1.509627
	O480	O	0.683420	0.300460	0.439992
	H481	H	0.692391	0.307301	0.427192
	H482	H	0.684576	0.288874	0.430082
	O483	O	0.725629	0.535681	0.715192
	H484	H	0.745785	0.532949	0.740447
	H485	H	0.726394	0.542828	0.711526
	O486	O	0.790307	0.202824	0.781917
	H487	H	0.774476	0.205304	0.781884
	H488	H	0.797641	0.176921	0.792962
	O489	O	1.068230	1.221833	-0.068505
	H490	H	1.064257	1.224502	-0.048621
	H491	H	1.052044	1.230287	-0.084287
	O492	O	-0.064043	0.054420	0.215369
	H493	H	-0.068415	0.052761	0.217839
	H494	H	-0.053011	0.056401	0.213045
	O495	O	0.207049	0.806729	0.984863
	H496	H	0.201807	0.809290	0.984924
	H497	H	0.215654	0.812021	0.970196
	O498	O	0.766542	0.949688	0.926578
	H499	H	0.776588	0.940080	0.930822
	H500	H	0.769503	0.942448	0.935713
	O501	O	0.601124	0.273072	0.535070
	H502	H	0.598688	0.277143	0.527684
	H503	H	0.595307	0.265401	0.521289
