data_Molecule from HDF5

_cell_length_a		16.584634
_cell_length_b		16.698514
_cell_length_c		16.337872
_cell_angle_alpha	90.143711
_cell_angle_beta	89.941204
_cell_angle_gamma	89.908431
_symmetry_space_group_name_H-M	'P 1'
_symmetry_Int_Tables_number		1

loop_
	_symmetry_equiv_pos_as_xyz
	x,y,z

loop_
	_atom_site_label
	_atom_site_type_symbol
	_atom_site_fract_x
	_atom_site_fract_y
	_atom_site_fract_z
	H0	H	0.400616	0.845279	0.722164
	H1	H	0.606152	0.157690	0.729568
	H2	H	0.596606	0.844521	0.289858
	H3	H	0.395806	0.158869	0.285308
	H4	H	0.717258	0.399012	0.845892
	H5	H	0.716803	0.603817	0.165835
	H6	H	0.280717	0.604535	0.845347
	H7	H	0.277729	0.398674	0.163834
	H8	H	0.844749	0.723949	0.398391
	H9	H	0.155896	0.722099	0.609899
	H10	H	0.842593	0.279149	0.610923
	H11	H	0.153334	0.276097	0.394152
	H12	H	0.840064	0.401445	0.721428
	H13	H	0.158889	0.598645	0.719172
	H14	H	0.840827	0.601076	0.288984
	H15	H	0.156841	0.399059	0.285577
	H16	H	0.393676	0.722597	0.847485
	H17	H	0.602896	0.721832	0.164484
	H18	H	0.604343	0.280908	0.847090
	H19	H	0.393401	0.281863	0.163688
	H20	H	0.717283	0.845504	0.403311
	H21	H	0.724967	0.155989	0.614079
	H22	H	0.279140	0.847697	0.609987
	H23	H	0.276444	0.158593	0.400186
	H24	H	0.895151	0.345258	0.226211
	H25	H	0.098473	0.658580	0.222900
	H26	H	0.099692	0.344286	0.786252
	H27	H	0.900124	0.660179	0.788663
	H28	H	0.219110	0.900058	0.346686
	H29	H	0.215252	0.103788	0.665454
	H30	H	0.776436	0.107202	0.346369
	H31	H	0.779980	0.898152	0.663754
	H32	H	0.343988	0.223691	0.899916
	H33	H	0.654882	0.225345	0.115230
	H34	H	0.344401	0.777573	0.115224
	H35	H	0.656058	0.779919	0.900519
	H36	H	0.341324	0.900077	0.225016
	H37	H	0.657630	0.102353	0.223673
	H38	H	0.341769	0.102572	0.788323
	H39	H	0.658497	0.900756	0.788479
	H40	H	0.889776	0.224205	0.347277
	H41	H	0.103512	0.224323	0.662122
	H42	H	0.104354	0.782326	0.346145
	H43	H	0.896347	0.782628	0.663814
	H44	H	0.219735	0.345581	0.900719
	H45	H	0.219382	0.657249	0.109077
	H46	H	0.774408	0.347862	0.113394
	H47	H	0.780001	0.658615	0.903275
	H48	H	0.410391	0.114300	0.594535
	H49	H	0.590631	0.891247	0.595990
	H50	H	0.584035	0.112502	0.416600
	H51	H	0.408580	0.891521	0.417362
	H52	H	0.586082	0.411992	0.118903
	H53	H	0.584416	0.587341	0.894355
	H54	H	0.408318	0.586325	0.118320
	H55	H	0.418343	0.409717	0.893385
	H56	H	0.111386	0.589177	0.417727
	H57	H	0.884640	0.594406	0.600023
	H58	H	0.109244	0.417108	0.594928
	H59	H	0.887190	0.410816	0.416629
	H60	H	0.114793	0.404087	0.596879
	H61	H	0.884841	0.599978	0.591357
	H62	H	0.114304	0.592653	0.410957
	H63	H	0.887180	0.411308	0.417812
	H64	H	0.414516	0.591200	0.116447
	H65	H	0.587220	0.599490	0.889101
	H66	H	0.588750	0.413372	0.120340
	H67	H	0.406613	0.407299	0.888354
	H68	H	0.594252	0.114638	0.421593
	H69	H	0.590250	0.892010	0.594078
	H70	H	0.405102	0.115638	0.595257
	H71	H	0.408120	0.892098	0.417017
	H72	H	0.903107	0.614370	0.095897
	H73	H	0.090741	0.388806	0.096195
	H74	H	0.093469	0.616506	0.907607
	H75	H	0.905682	0.388690	0.914274
	H76	H	0.086655	0.910107	0.618433
	H77	H	0.083952	0.090120	0.391907
	H78	H	0.912661	0.082574	0.613258
	H79	H	0.908981	0.915646	0.391753
	H80	H	0.614018	0.090827	0.913292
	H81	H	0.387633	0.091186	0.095638
	H82	H	0.611694	0.910927	0.096574
	H83	H	0.390749	0.913540	0.923467
	H84	H	0.611625	0.908784	0.093241
	H85	H	0.386239	0.095256	0.094272
	H86	H	0.612668	0.097582	0.921860
	H87	H	0.386067	0.914474	0.907356
	H88	H	0.918980	0.092699	0.615840
	H89	H	0.090367	0.091418	0.389853
	H90	H	0.090053	0.909733	0.620551
	H91	H	0.913910	0.909715	0.390918
	H92	H	0.085859	0.612793	0.913590
	H93	H	0.087008	0.390761	0.093173
	H94	H	0.911555	0.612688	0.098948
	H95	H	0.908768	0.389993	0.913314
	H96	H	0.408141	0.115567	0.599749
	H97	H	0.592159	0.891229	0.594416
	H98	H	0.592617	0.117298	0.410611
	H99	H	0.408376	0.891911	0.416663
	H100	H	0.586398	0.414945	0.118775
	H101	H	0.596504	0.590265	0.889462
	H102	H	0.408211	0.593879	0.120759
	H103	H	0.409039	0.419023	0.893826
	H104	H	0.113190	0.596736	0.418411
	H105	H	0.888646	0.590174	0.591647
	H106	H	0.108994	0.408005	0.583940
	H107	H	0.887014	0.411871	0.416861
	H108	H	0.909249	0.611010	0.090282
	H109	H	0.091675	0.389699	0.090583
	H110	H	0.095171	0.614192	0.917352
	H111	H	0.907677	0.390254	0.916458
	H112	H	0.088890	0.912974	0.619403
	H113	H	0.088267	0.085039	0.392728
	H114	H	0.907245	0.091769	0.619690
	H115	H	0.906292	0.908568	0.388924
	H116	H	0.608494	0.087746	0.922158
	H117	H	0.388382	0.092668	0.091505
	H118	H	0.609945	0.912287	0.093557
	H119	H	0.383602	0.900874	0.916060
	C120	C	0.377487	0.011672	0.627686
	C121	C	0.623248	0.993871	0.628374
	C122	C	0.620568	0.011149	0.384758
	C123	C	0.377340	0.994974	0.384691
	C124	C	0.619391	0.381363	0.014316
	C125	C	0.620411	0.623367	0.996657
	C126	C	0.378195	0.622708	0.013759
	C127	C	0.378377	0.380627	0.996624
	C128	C	0.008763	0.623176	0.384042
	C129	C	0.990791	0.624148	0.625741
	C130	C	0.007133	0.378999	0.624930
	C131	C	0.990348	0.379070	0.383082
	C132	C	0.876596	0.509714	0.127379
	C133	C	0.120521	0.492896	0.125482
	C134	C	0.121586	0.510672	0.882071
	C135	C	0.877156	0.493606	0.883912
	C136	C	0.120509	0.880612	0.514253
	C137	C	0.119135	0.122172	0.496420
	C138	C	0.879114	0.121355	0.512138
	C139	C	0.878713	0.880587	0.496180
	C140	C	0.508087	0.122866	0.886398
	C141	C	0.491125	0.124076	0.126929
	C142	C	0.507346	0.880189	0.126764
	C143	C	0.491155	0.879438	0.884425
	C144	C	0.379394	0.892868	0.684248
	C145	C	0.625003	0.110765	0.689290
	C146	C	0.618439	0.892123	0.327471
	C147	C	0.376190	0.112324	0.324897
	C148	C	0.678093	0.380027	0.893997
	C149	C	0.678173	0.623573	0.117496
	C150	C	0.319733	0.623478	0.893644
	C151	C	0.317931	0.379528	0.116017
	C152	C	0.891157	0.682955	0.381128
	C153	C	0.109222	0.681923	0.627692
	C154	C	0.889267	0.319659	0.628264
	C155	C	0.107131	0.317421	0.377859
	C156	C	0.888091	0.380247	0.683475
	C157	C	0.110482	0.620765	0.682254
	C158	C	0.889251	0.621741	0.326784
	C159	C	0.109041	0.378589	0.323835
	C160	C	0.375879	0.682318	0.894646
	C161	C	0.621634	0.682094	0.116932
	C162	C	0.621674	0.321398	0.894594
	C163	C	0.375262	0.321446	0.116191
	C164	C	0.678000	0.892501	0.383954
	C165	C	0.684169	0.110002	0.632069
	C166	C	0.319225	0.894128	0.628520
	C167	C	0.316891	0.111728	0.381887
	C168	C	0.875913	0.392260	0.186647
	C169	C	0.119101	0.611421	0.183841
	C170	C	0.120180	0.391691	0.824792
	C171	C	0.879236	0.612551	0.827107
	C172	C	0.179445	0.880604	0.394231
	C173	C	0.176879	0.123565	0.617044
	C174	C	0.817021	0.124899	0.393795
	C175	C	0.820015	0.879856	0.616108
	C176	C	0.390407	0.182628	0.883090
	C177	C	0.608646	0.183928	0.131116
	C178	C	0.390517	0.819440	0.131252
	C179	C	0.609306	0.820213	0.882490
	C180	C	0.389104	0.880227	0.186210
	C181	C	0.609923	0.122574	0.184944
	C182	C	0.389491	0.122650	0.827257
	C183	C	0.610475	0.880350	0.826922
	C184	C	0.873628	0.183073	0.394177
	C185	C	0.121026	0.182994	0.615413
	C186	C	0.122753	0.822060	0.394013
	C187	C	0.877720	0.822252	0.615995
	C188	C	0.179588	0.392182	0.881742
	C189	C	0.178823	0.610817	0.127206
	C190	C	0.815827	0.393541	0.130729
	C191	C	0.819700	0.611941	0.884291
	C192	C	0.401180	0.093936	0.603521
	C193	C	0.598137	0.912722	0.602283
	C194	C	0.597137	0.093292	0.409195
	C195	C	0.401587	0.913187	0.409595
	C196	C	0.594169	0.406104	0.097644
	C197	C	0.596486	0.599388	0.912875
	C198	C	0.403296	0.597814	0.096924
	C199	C	0.404015	0.405064	0.913482
	C200	C	0.091409	0.599481	0.408605
	C201	C	0.907587	0.601388	0.601287
	C202	C	0.089326	0.402787	0.599356
	C203	C	0.908489	0.404168	0.409536
	C204	C	0.900948	0.591461	0.102105
	C205	C	0.096684	0.410962	0.100471
	C206	C	0.098486	0.592929	0.905982
	C207	C	0.900594	0.411202	0.907741
	C208	C	0.095767	0.904190	0.597693
	C209	C	0.094537	0.096415	0.413214
	C210	C	0.905561	0.096119	0.594757
	C211	C	0.902716	0.904638	0.412221
	C212	C	0.590257	0.098811	0.911866
	C213	C	0.408891	0.100021	0.101073
	C214	C	0.589795	0.904066	0.101593
	C215	C	0.408276	0.902876	0.908682
	Zn216	Zn	0.500393	0.002383	0.756171
	Zn217	Zn	0.498554	0.002891	0.255341
	Zn218	Zn	0.747267	0.501871	0.005745
	Zn219	Zn	0.250484	0.501764	0.004409
	Zn220	Zn	-0.000036	0.752579	0.504508
	Zn221	Zn	-0.001680	0.250823	0.503496
	Zn222	Zn	-0.001379	0.501448	0.753316
	Zn223	Zn	-0.000632	0.500784	0.255725
	Zn224	Zn	0.498979	0.750490	0.005848
	Zn225	Zn	0.499855	0.252860	0.006816
	Zn226	Zn	0.750799	0.001724	0.505069
	Zn227	Zn	0.248143	0.002673	0.505951
	N228	N	0.414855	0.967110	0.684114
	N229	N	0.588007	0.037330	0.687273
	N230	N	0.583745	0.966920	0.327399
	N231	N	0.413022	0.038725	0.326595
	N232	N	0.676939	0.416382	0.969514
	N233	N	0.677657	0.587937	0.041616
	N234	N	0.320810	0.587260	0.968958
	N235	N	0.319711	0.415612	0.040596
	N236	N	0.966681	0.684364	0.415584
	N237	N	0.033580	0.684244	0.593601
	N238	N	0.964531	0.318494	0.593066
	N239	N	0.032076	0.317398	0.413691
	N240	N	0.962441	0.416263	0.681803
	N241	N	0.035536	0.585668	0.681317
	N242	N	0.963603	0.585381	0.328215
	N243	N	0.035314	0.415890	0.326799
	N244	N	0.411638	0.681808	0.970437
	N245	N	0.586508	0.682187	0.040790
	N246	N	0.586273	0.321893	0.970617
	N247	N	0.411992	0.321876	0.040814
	N248	N	0.679801	0.967525	0.418371
	N249	N	0.683073	0.036324	0.594931
	N250	N	0.317755	0.969165	0.594370
	N251	N	0.317596	0.037760	0.418468
	N252	N	0.912979	0.465528	0.184581
	N253	N	0.083737	0.537106	0.183089
	N254	N	0.085199	0.466193	0.824560
	N255	N	0.914001	0.537888	0.826519
	N256	N	0.178338	0.916264	0.470054
	N257	N	0.175946	0.086743	0.541905
	N258	N	0.820204	0.087289	0.468348
	N259	N	0.820507	0.915348	0.540346
	N260	N	0.465273	0.183214	0.918756
	N261	N	0.533476	0.185088	0.095692
	N262	N	0.464963	0.819447	0.094755
	N263	N	0.533782	0.819276	0.917253
	N264	N	0.462765	0.917656	0.183415
	N265	N	0.535940	0.086123	0.182454
	N266	N	0.463766	0.086202	0.828983
	N267	N	0.535963	0.916361	0.827772
	N268	N	0.911783	0.180963	0.468718
	N269	N	0.086043	0.182497	0.539170
	N270	N	0.086918	0.821840	0.469740
	N271	N	0.913464	0.822523	0.540186
	N272	N	0.180871	0.467198	0.916488
	N273	N	0.180069	0.536043	0.092076
	N274	N	0.816001	0.467720	0.094601
	N275	N	0.818071	0.536887	0.918605
	O276	O	0.795288	0.833599	0.009754
	H277	H	0.787751	0.834974	0.010193
	H278	H	0.789391	0.831920	0.029451
	O279	O	0.213799	-0.207831	0.981199
	H280	H	0.209548	-0.219921	0.956953
	H281	H	0.213488	-0.220913	0.978892
	O282	O	0.503043	0.497603	0.684341
	H283	H	0.489024	0.489331	0.683091
	H284	H	0.513002	0.490504	0.695159
	O285	O	0.465754	0.285139	0.719231
	H286	H	0.438887	0.275118	0.734375
	H287	H	0.453449	0.287193	0.737787
	O288	O	0.946663	0.058097	1.168719
	H289	H	0.947001	0.062310	1.154530
	H290	H	0.944899	0.066193	1.178600
	O291	O	0.469507	0.595125	0.518620
	H292	H	0.464467	0.593516	0.521292
	H293	H	0.473488	0.595634	0.545898
	O294	O	0.047542	0.153572	-0.037069
	H295	H	0.040239	0.147331	-0.022070
	H296	H	0.039711	0.157271	-0.046105
	O297	O	0.967502	0.220255	-0.211411
	H298	H	0.967959	0.221040	-0.231350
	H299	H	0.958397	0.218663	-0.223472
	O300	O	-0.018858	0.200907	0.084330
	H301	H	-0.012282	0.203471	0.109750
	H302	H	-0.020601	0.193544	0.098702
	O303	O	0.047797	-0.072671	0.211809
	H304	H	0.029464	-0.096909	0.222962
	H305	H	0.031947	-0.051238	0.207741
	O306	O	0.801038	-0.103911	-0.000793
	H307	H	0.789149	-0.106162	0.007097
	H308	H	0.811203	-0.115681	-0.001993
	O309	O	0.441607	0.461620	0.278379
	H310	H	0.447101	0.463408	0.283891
	H311	H	0.440668	0.474675	0.286444
	O312	O	0.411248	0.296028	0.417383
	H313	H	0.430058	0.287986	0.422720
	H314	H	0.411366	0.301722	0.404380
	O315	O	0.413395	0.566170	0.686665
	H316	H	0.417197	0.549770	0.683803
	H317	H	0.403126	0.536115	0.688684
	O318	O	1.036074	0.782858	-0.208914
	H319	H	1.046245	0.773673	-0.224617
	H320	H	1.055354	0.778362	-0.221923
	O321	O	0.189430	1.192257	0.817010
	H322	H	0.177202	1.170366	0.839605
	H323	H	0.166650	1.181895	0.840784
	O324	O	0.965866	-0.212789	1.213456
	H325	H	0.963987	-0.231182	1.243168
	H326	H	0.930178	-0.212220	1.209807
	O327	O	0.639838	0.662725	0.590131
	H328	H	0.634050	0.680964	0.599155
	H329	H	0.615555	0.665364	0.610160
	O330	O	0.283715	0.539896	0.287063
	H331	H	0.296974	0.549820	0.280356
	H332	H	0.263351	0.549354	0.264161
	O333	O	0.687034	0.609553	0.711316
	H334	H	0.711344	0.626158	0.724489
	H335	H	0.676718	0.622611	0.703406
	O336	O	0.629262	0.395796	0.491740
	H337	H	0.624411	0.408612	0.492719
	H338	H	0.616663	0.404170	0.505095
	O339	O	0.287513	0.720709	0.480011
	H340	H	0.270876	0.709416	0.470790
	H341	H	0.267464	0.722356	0.460055
	O342	O	0.205814	0.792950	-0.200306
	H343	H	0.201473	0.817935	-0.189689
	H344	H	0.239370	0.762736	-0.234060
	O345	O	0.328930	0.592677	0.492679
	H346	H	0.328840	0.576646	0.485416
	H347	H	0.319290	0.585489	0.503936
	O348	O	0.279766	0.459224	0.722746
	H349	H	0.285740	0.409876	0.718173
	H350	H	0.245712	0.458342	0.753248
	O351	O	0.205248	0.208903	1.027299
	H352	H	0.202800	0.200095	1.006000
	H353	H	0.205302	0.227254	1.014879
	O354	O	0.853826	-0.073891	0.976419
	H355	H	0.873955	-0.074281	0.965714
	H356	H	0.857900	-0.060963	0.994666
	O357	O	0.684304	0.697325	0.323775
	H358	H	0.668797	0.674273	0.343769
	H359	H	0.665279	0.688022	0.345950
	O360	O	0.521881	0.427785	0.569147
	H361	H	0.510581	0.425696	0.576799
	H362	H	0.525218	0.435683	0.581012
	O363	O	0.686974	0.570773	0.415299
	H364	H	0.676679	0.584711	0.416502
	H365	H	0.683455	0.582893	0.418395
	O366	O	0.639308	0.491377	0.618238
	H367	H	0.656910	0.496793	0.637526
	H368	H	0.633036	0.484841	0.629625
	O369	O	0.060775	0.199325	1.204043
	H370	H	0.047065	0.220553	1.229709
	H371	H	0.090247	0.200514	1.188702
	O372	O	0.187244	0.813019	1.184676
	H373	H	0.157219	0.838886	1.182299
	H374	H	0.177688	0.820807	1.150007
	O375	O	0.983031	0.000553	-0.013402
	H376	H	0.984679	0.003492	-0.004323
	H377	H	0.968569	-0.004379	-0.028125
	O378	O	0.656871	0.316911	0.330184
	H379	H	0.634793	0.333279	0.339766
	H380	H	0.662236	0.312733	0.361278
	O381	O	0.199652	1.011837	0.182330
	H382	H	0.184511	0.994279	0.185302
	H383	H	0.202969	1.014269	0.178547
	O384	O	0.283139	0.283429	0.545379
	H385	H	0.281878	0.303953	0.522382
	H386	H	0.266144	0.263264	0.531815
	O387	O	-0.135811	0.874906	0.825468
	H388	H	-0.131157	0.883612	0.834996
	H389	H	-0.127327	0.881521	0.842775
	O390	O	0.214199	0.963308	0.792289
	H391	H	0.227974	0.962562	0.792273
	H392	H	0.227266	0.961617	0.786477
	O393	O	1.211305	0.206175	0.209688
	H394	H	1.213877	0.206982	0.169375
	H395	H	1.201906	0.173259	0.204694
	O396	O	0.469857	0.712310	0.355708
	H397	H	0.463667	0.705452	0.370393
	H398	H	0.465348	0.729424	0.327166
	O399	O	0.535116	0.719314	0.719455
	H400	H	0.518949	0.698915	0.734661
	H401	H	0.529218	0.726028	0.736916
	O402	O	0.807532	0.196787	0.811782
	H403	H	0.828631	0.203848	0.817149
	H404	H	0.799618	0.176890	0.839889
	O405	O	0.301783	0.363330	0.363728
	H406	H	0.311102	0.368820	0.343272
	H407	H	0.304381	0.341213	0.349593
	O408	O	0.883320	1.011339	0.796796
	H409	H	0.894452	1.027149	0.805847
	H410	H	0.869879	1.014823	0.777191
	O411	O	0.880807	0.968642	-0.033503
	H412	H	0.874183	0.963799	-0.020596
	H413	H	0.872824	0.977688	-0.043866
	O414	O	0.215224	0.054903	-0.064810
	H415	H	0.218304	0.043557	-0.060803
	H416	H	0.215981	0.035300	-0.041620
	O417	O	0.840050	0.213104	0.203552
	H418	H	0.830553	0.200089	0.202079
	H419	H	0.832752	0.233845	0.229184
	O420	O	0.982907	-0.016130	0.993714
	H421	H	0.972255	-0.007578	1.010009
	H422	H	0.977400	-0.015838	0.969313
	O423	O	1.205640	0.928765	0.046391
	H424	H	1.199050	0.914572	0.047094
	H425	H	1.212208	0.908116	0.055759
	O426	O	0.693710	0.477660	0.508391
	H427	H	0.689210	0.489540	0.519091
	H428	H	0.705578	0.465152	0.518160
	O429	O	0.280679	0.471862	0.493206
	H430	H	0.289464	0.459593	0.482841
	H431	H	0.278270	0.469433	0.469648
	O432	O	0.776129	0.223724	0.975101
	H433	H	0.750661	0.242362	0.977517
	H434	H	0.789415	0.226544	0.991131
	O435	O	0.572101	0.718572	0.459821
	H436	H	0.574496	0.725256	0.443908
	H437	H	0.563657	0.708603	0.476704
	O438	O	0.792811	0.799483	0.208826
	H439	H	0.772286	0.777399	0.234868
	H440	H	0.780813	0.810285	0.192821
	O441	O	0.643520	0.516338	0.651510
	H442	H	0.656398	0.523966	0.657454
	H443	H	0.642235	0.538419	0.650017
	O444	O	0.286864	0.709555	0.296491
	H445	H	0.306234	0.694747	0.300041
	H446	H	0.257208	0.741773	0.263960
	O447	O	0.581188	0.276021	0.584382
	H448	H	0.567668	0.292214	0.601489
	H449	H	0.557153	0.265404	0.586690
	O450	O	0.844605	0.045958	-0.004730
	H451	H	0.815009	0.028015	-0.000133
	H452	H	0.853496	0.031847	-0.005390
	O453	O	0.690469	0.301907	0.599317
	H454	H	0.714188	0.270754	0.620308
	H455	H	0.672202	0.292406	0.589404
	O456	O	0.045550	1.076947	0.835937
	H457	H	0.058443	1.073276	0.819201
	H458	H	0.042236	1.082468	0.843614
	O459	O	0.688312	0.533655	0.386381
	H460	H	0.690130	0.530621	0.393431
	H461	H	0.702183	0.523256	0.397400
	O462	O	0.526795	0.292705	0.296295
	H463	H	0.537444	0.288540	0.304965
	H464	H	0.520072	0.301997	0.273196
	O465	O	0.565616	0.566325	0.305415
	H466	H	0.573423	0.555287	0.300945
	H467	H	0.560021	0.560096	0.347746
	O468	O	0.011704	0.798395	0.031686
	H469	H	-0.002179	0.799846	0.043740
	H470	H	-0.000400	0.795559	0.033961
	O471	O	0.311428	0.698317	0.689495
	H472	H	0.330556	0.674033	0.675396
	H473	H	0.323788	0.685111	0.662229
	O474	O	0.791016	0.995895	0.189128
	H475	H	0.794166	0.978883	0.195292
	H476	H	0.783528	1.004448	0.210880
	O477	O	0.293292	0.291575	0.714795
	H478	H	0.290182	0.282953	0.663482
	H479	H	0.259265	0.257634	0.744217
