data_Molecule from HDF5

_cell_length_a		16.290313
_cell_length_b		16.273839
_cell_length_c		16.280581
_cell_angle_alpha	90.158927
_cell_angle_beta	90.123670
_cell_angle_gamma	89.897821
_symmetry_space_group_name_H-M	'P 1'
_symmetry_Int_Tables_number		1

loop_
	_symmetry_equiv_pos_as_xyz
	x,y,z

loop_
	_atom_site_label
	_atom_site_type_symbol
	_atom_site_fract_x
	_atom_site_fract_y
	_atom_site_fract_z
	H0	H	0.408156	0.833517	0.710113
	H1	H	0.607295	0.160225	0.712611
	H2	H	0.607424	0.834453	0.279475
	H3	H	0.409732	0.161503	0.282361
	H4	H	0.721535	0.397247	0.833010
	H5	H	0.722251	0.595650	0.160566
	H6	H	0.292604	0.595592	0.833406
	H7	H	0.293211	0.398587	0.160245
	H8	H	0.844391	0.713143	0.394849
	H9	H	0.171269	0.710512	0.594126
	H10	H	0.843370	0.283446	0.593889
	H11	H	0.170585	0.280807	0.397363
	H12	H	0.843697	0.398870	0.709904
	H13	H	0.170129	0.597562	0.712327
	H14	H	0.843313	0.594975	0.282007
	H15	H	0.170844	0.397440	0.281184
	H16	H	0.407588	0.711253	0.833454
	H17	H	0.606090	0.712489	0.160157
	H18	H	0.606924	0.280941	0.833043
	H19	H	0.409914	0.283062	0.160305
	H20	H	0.722010	0.833524	0.396474
	H21	H	0.721430	0.160967	0.595156
	H22	H	0.294279	0.833348	0.593467
	H23	H	0.292224	0.160621	0.396870
	H24	H	0.908647	0.333242	0.209644
	H25	H	0.105914	0.660602	0.211874
	H26	H	0.105414	0.333066	0.781473
	H27	H	0.908259	0.661119	0.781513
	H28	H	0.221900	0.899075	0.331317
	H29	H	0.223353	0.096018	0.659801
	H30	H	0.793541	0.093999	0.332731
	H31	H	0.793756	0.897279	0.659548
	H32	H	0.344200	0.212281	0.897496
	H33	H	0.671486	0.211357	0.095995
	H34	H	0.343290	0.783235	0.095164
	H35	H	0.670314	0.781493	0.897260
	H36	H	0.344041	0.899626	0.210518
	H37	H	0.670745	0.095752	0.211613
	H38	H	0.343539	0.096809	0.780732
	H39	H	0.670560	0.897934	0.781803
	H40	H	0.908628	0.210571	0.332709
	H41	H	0.106766	0.212479	0.659701
	H42	H	0.106205	0.782252	0.331472
	H43	H	0.911202	0.783593	0.659468
	H44	H	0.222197	0.333258	0.897306
	H45	H	0.221657	0.661157	0.096083
	H46	H	0.794307	0.332972	0.092636
	H47	H	0.791069	0.660422	0.896709
	H48	H	0.419135	0.113660	0.591729
	H49	H	0.600374	0.882559	0.583699
	H50	H	0.605475	0.113903	0.406759
	H51	H	0.417753	0.882051	0.404185
	H52	H	0.601169	0.413381	0.109785
	H53	H	0.593351	0.583687	0.884472
	H54	H	0.416055	0.590165	0.112969
	H55	H	0.416238	0.403213	0.880462
	H56	H	0.123203	0.587158	0.401789
	H57	H	0.892617	0.585841	0.587343
	H58	H	0.122540	0.407347	0.587804
	H59	H	0.891319	0.403073	0.404173
	H60	H	0.124765	0.403471	0.591975
	H61	H	0.890070	0.592077	0.591090
	H62	H	0.125044	0.592093	0.402530
	H63	H	0.891394	0.405740	0.400719
	H64	H	0.413643	0.592407	0.114279
	H65	H	0.597363	0.597598	0.878997
	H66	H	0.593309	0.398824	0.111891
	H67	H	0.412651	0.403153	0.880017
	H68	H	0.599951	0.115391	0.398467
	H69	H	0.604698	0.879154	0.590044
	H70	H	0.415947	0.111446	0.583062
	H71	H	0.410741	0.879953	0.403568
	H72	H	0.916648	0.612955	0.089447
	H73	H	0.088417	0.381373	0.098998
	H74	H	0.099888	0.611608	0.907086
	H75	H	0.913478	0.380027	0.898673
	H76	H	0.099750	0.907966	0.610506
	H77	H	0.102177	0.085334	0.380341
	H78	H	0.909511	0.087303	0.613045
	H79	H	0.919675	0.897575	0.378864
	H80	H	0.621505	0.087896	0.908989
	H81	H	0.392190	0.098069	0.079163
	H82	H	0.625433	0.899802	0.091325
	H83	H	0.390606	0.894000	0.912052
	H84	H	0.621453	0.903448	0.081286
	H85	H	0.395530	0.079401	0.087699
	H86	H	0.622765	0.083716	0.899707
	H87	H	0.395489	0.917250	0.905764
	H88	H	0.919586	0.087831	0.611792
	H89	H	0.096004	0.088549	0.381479
	H90	H	0.098888	0.899855	0.611949
	H91	H	0.906322	0.902719	0.376223
	H92	H	0.101569	0.614678	0.903173
	H93	H	0.098286	0.386738	0.072743
	H94	H	0.914291	0.612753	0.086071
	H95	H	0.916582	0.381346	0.903018
	H96	H	0.410196	0.115044	0.590010
	H97	H	0.596368	0.881141	0.591105
	H98	H	0.595626	0.111424	0.406942
	H99	H	0.415795	0.879936	0.397965
	H100	H	0.609902	0.400010	0.116592
	H101	H	0.607790	0.586171	0.879093
	H102	H	0.413314	0.589113	0.113596
	H103	H	0.414284	0.405867	0.881261
	H104	H	0.122487	0.589498	0.406191
	H105	H	0.891364	0.592888	0.583969
	H106	H	0.123737	0.400940	0.586642
	H107	H	0.889494	0.401464	0.400351
	H108	H	0.912370	0.614518	0.089928
	H109	H	0.115666	0.375159	0.092632
	H110	H	0.096507	0.613048	0.902504
	H111	H	0.911600	0.380771	0.903985
	H112	H	0.105987	0.903350	0.613063
	H113	H	0.101162	0.092557	0.378929
	H114	H	0.914084	0.096029	0.614658
	H115	H	0.916415	0.911461	0.382392
	H116	H	0.626144	0.093895	0.901278
	H117	H	0.386952	0.094292	0.098682
	H118	H	0.621541	0.910258	0.090586
	H119	H	0.386586	0.901983	0.889601
	C120	C	0.386637	0.005206	0.616712
	C121	C	0.629273	0.988666	0.617834
	C122	C	0.629031	0.005736	0.374665
	C123	C	0.385757	0.988964	0.373541
	C124	C	0.629427	0.375359	0.004884
	C125	C	0.628578	0.618206	0.988515
	C126	C	0.385499	0.618965	0.005388
	C127	C	0.386043	0.375314	0.988448
	C128	C	0.015572	0.618551	0.374145
	C129	C	0.999085	0.618938	0.616988
	C130	C	0.015337	0.375633	0.617097
	C131	C	0.999000	0.374491	0.373507
	C132	C	0.885927	0.505366	0.116951
	C133	C	0.129173	0.488938	0.117815
	C134	C	0.128200	0.505032	0.875056
	C135	C	0.884879	0.488854	0.873637
	C136	C	0.129777	0.875179	0.503743
	C137	C	0.129206	0.118210	0.488100
	C138	C	0.885962	0.118188	0.504686
	C139	C	0.886016	0.875160	0.487388
	C140	C	0.515561	0.117849	0.874465
	C141	C	0.499537	0.118858	0.117809
	C142	C	0.515362	0.875977	0.117269
	C143	C	0.498588	0.875057	0.873956
	C144	C	0.388337	0.882276	0.672122
	C145	C	0.627263	0.111658	0.674024
	C146	C	0.627354	0.882864	0.318347
	C147	C	0.388658	0.112213	0.319318
	C148	C	0.684187	0.377127	0.881698
	C149	C	0.684237	0.616121	0.111595
	C150	C	0.330159	0.616112	0.882299
	C151	C	0.330783	0.377783	0.111281
	C152	C	0.892791	0.674283	0.375738
	C153	C	0.122181	0.673456	0.614821
	C154	C	0.892170	0.321083	0.614114
	C155	C	0.121830	0.318979	0.376476
	C156	C	0.892303	0.378499	0.671950
	C157	C	0.121637	0.617382	0.673734
	C158	C	0.892394	0.615738	0.319241
	C159	C	0.122040	0.376944	0.319051
	C160	C	0.387276	0.673602	0.882317
	C161	C	0.626528	0.673991	0.111538
	C162	C	0.627051	0.319362	0.881714
	C163	C	0.389032	0.320582	0.111372
	C164	C	0.684483	0.882657	0.376431
	C165	C	0.684226	0.111881	0.615980
	C166	C	0.331469	0.882227	0.614305
	C167	C	0.330484	0.112034	0.376395
	C168	C	0.888441	0.382063	0.171623
	C169	C	0.126521	0.611811	0.173968
	C170	C	0.126188	0.382080	0.819282
	C171	C	0.887626	0.612137	0.819056
	C172	C	0.184443	0.877840	0.380256
	C173	C	0.185132	0.116204	0.611021
	C174	C	0.830980	0.114723	0.381586
	C175	C	0.831357	0.877341	0.610573
	C176	C	0.392694	0.173889	0.876957
	C177	C	0.622716	0.173437	0.115848
	C178	C	0.392326	0.820926	0.115549
	C179	C	0.621542	0.819430	0.876660
	C180	C	0.392698	0.878633	0.172917
	C181	C	0.622322	0.116353	0.173564
	C182	C	0.392503	0.116436	0.819066
	C183	C	0.621809	0.877555	0.819514
	C184	C	0.888432	0.172453	0.381348
	C185	C	0.127166	0.173904	0.611107
	C186	C	0.127123	0.819738	0.380504
	C187	C	0.889472	0.820333	0.610390
	C188	C	0.184229	0.382145	0.876916
	C189	C	0.183969	0.612093	0.116231
	C190	C	0.831385	0.381908	0.113902
	C191	C	0.829265	0.611840	0.876238
	C192	C	0.408644	0.091219	0.594711
	C193	C	0.607015	0.903134	0.595111
	C194	C	0.606920	0.091420	0.397384
	C195	C	0.408130	0.902852	0.395569
	C196	C	0.607674	0.397571	0.090622
	C197	C	0.606152	0.595786	0.902998
	C198	C	0.407945	0.597296	0.091369
	C199	C	0.408077	0.397578	0.902580
	C200	C	0.101402	0.596148	0.396795
	C201	C	0.913357	0.596906	0.594281
	C202	C	0.101316	0.397466	0.595125
	C203	C	0.912855	0.396780	0.395328
	C204	C	0.907941	0.591180	0.094884
	C205	C	0.107127	0.403253	0.095106
	C206	C	0.105713	0.590986	0.897558
	C207	C	0.907263	0.402943	0.895444
	C208	C	0.108030	0.897321	0.589577
	C209	C	0.106460	0.095382	0.402535
	C210	C	0.908119	0.096820	0.590935
	C211	C	0.907840	0.897381	0.401279
	C212	C	0.601209	0.095187	0.896892
	C213	C	0.413841	0.097082	0.095077
	C214	C	0.600896	0.897986	0.094391
	C215	C	0.413031	0.897669	0.896102
	Zn216	Zn	0.506973	-0.003088	0.745677
	Zn217	Zn	0.507606	-0.002679	0.245891
	Zn218	Zn	0.757384	0.496666	-0.003772
	Zn219	Zn	0.257644	0.497411	-0.003280
	Zn220	Zn	0.007585	0.747045	0.495412
	Zn221	Zn	0.007258	0.246927	0.496260
	Zn222	Zn	0.006905	0.497548	0.745152
	Zn223	Zn	0.006983	0.496940	0.245558
	Zn224	Zn	0.506763	0.747077	-0.003703
	Zn225	Zn	0.508085	0.246615	-0.003674
	Zn226	Zn	0.757778	-0.003221	0.496570
	Zn227	Zn	0.258146	-0.002924	0.495486
	N228	N	0.422050	0.959733	0.673549
	N229	N	0.593693	0.034131	0.675402
	N230	N	0.593564	0.960327	0.317126
	N231	N	0.422227	0.034644	0.317564
	N232	N	0.685818	0.411034	0.959107
	N233	N	0.685573	0.582081	0.034189
	N234	N	0.328906	0.582909	0.959904
	N235	N	0.329046	0.411378	0.033750
	N236	N	0.970412	0.676074	0.409213
	N237	N	0.045137	0.674382	0.580128
	N238	N	0.969619	0.319531	0.580576
	N239	N	0.044279	0.317567	0.409752
	N240	N	0.969887	0.411643	0.673905
	N241	N	0.044075	0.584014	0.674941
	N242	N	0.969739	0.581737	0.318256
	N243	N	0.044599	0.410886	0.317272
	N244	N	0.421094	0.675305	0.959828
	N245	N	0.592604	0.675586	0.034141
	N246	N	0.593576	0.318152	0.959174
	N247	N	0.422592	0.318900	0.033995
	N248	N	0.685362	0.959873	0.411043
	N249	N	0.685593	0.034494	0.581692
	N250	N	0.330234	0.959632	0.580527
	N251	N	0.328563	0.034272	0.409236
	N252	N	0.921895	0.459575	0.173369
	N253	N	0.093044	0.534359	0.174857
	N254	N	0.092131	0.459489	0.817924
	N255	N	0.921429	0.534603	0.817463
	N256	N	0.186228	0.911591	0.457744
	N257	N	0.186675	0.082480	0.533461
	N258	N	0.829447	0.081765	0.459358
	N259	N	0.829094	0.910543	0.532977
	N260	N	0.470222	0.175084	0.910647
	N261	N	0.545247	0.175227	0.082037
	N262	N	0.469571	0.819149	0.081604
	N263	N	0.543908	0.817823	0.909850
	N264	N	0.470120	0.912125	0.174100
	N265	N	0.544881	0.082891	0.174633
	N266	N	0.469814	0.082428	0.817465
	N267	N	0.544378	0.911077	0.817494
	N268	N	0.922039	0.174667	0.458876
	N269	N	0.093140	0.175278	0.533707
	N270	N	0.093806	0.817959	0.458123
	N271	N	0.922555	0.818851	0.532675
	N272	N	0.185689	0.459661	0.910865
	N273	N	0.185781	0.534687	0.082043
	N274	N	0.829906	0.459462	0.080409
	N275	N	0.827485	0.534223	0.909443
	O276	O	0.991078	1.045123	-0.077875
	H277	H	0.991433	1.052351	-0.079027
	H278	H	0.990913	1.047741	-0.071120
	O279	O	-0.035234	-0.041485	-0.016948
	H280	H	-0.036871	-0.043061	-0.017883
	H281	H	-0.044750	-0.042183	-0.013343
	O282	O	-0.018279	0.025911	0.968011
	H283	H	-0.016479	0.027270	0.963180
	H284	H	-0.008119	0.032118	0.969495
	O285	O	0.551227	0.521672	0.544009
	H286	H	0.554944	0.515341	0.551629
	H287	H	0.548547	0.516052	0.548704
	O288	O	0.474913	0.531722	0.601668
	H289	H	0.494045	0.534274	0.600707
	H290	H	0.472156	0.547422	0.611129
	O291	O	0.501068	0.517301	0.543240
	H292	H	0.504826	0.522317	0.540111
	H293	H	0.510283	0.511398	0.549570
	O294	O	0.071473	0.007982	0.005641
	H295	H	0.074805	0.016189	0.009673
	H296	H	0.072184	0.009990	0.013556
	O297	O	0.507355	0.561775	0.594247
	H298	H	0.513413	0.552926	0.590017
	H299	H	0.508447	0.564253	0.595294
	O300	O	0.014935	1.085440	1.040694
	H301	H	0.016582	1.103300	1.049313
	H302	H	0.029917	1.081423	1.044355
	O303	O	0.520528	0.520357	0.511054
	H304	H	0.522005	0.515248	0.514393
	H305	H	0.517121	0.511772	0.510784
	O306	O	-0.948839	0.021600	1.061821
	H307	H	-0.942865	0.014129	1.064993
	H308	H	-0.945518	0.014052	1.057453
	O309	O	0.945548	0.966574	1.017615
	H310	H	0.942791	0.969041	1.024138
	H311	H	0.942526	0.971567	1.020448
	O312	O	0.478640	0.489499	0.569470
	H313	H	0.464945	0.491140	0.570493
	H314	H	0.467755	0.499823	0.574545
	O315	O	0.461464	0.487956	0.586239
	H316	H	0.459744	0.498498	0.583955
	H317	H	0.455820	0.494377	0.588054
	O318	O	-0.017523	0.916752	0.054906
	H319	H	-0.025544	0.913443	0.053802
	H320	H	-0.020570	0.916975	0.049189
	O321	O	1.036303	0.943061	0.055114
	H322	H	1.034144	0.924608	0.057247
	H323	H	1.030881	0.948285	0.048086
