data_Molecule from HDF5

_cell_length_a		16.670758
_cell_length_b		16.666500
_cell_length_c		16.606317
_cell_angle_alpha	89.884977
_cell_angle_beta	89.889171
_cell_angle_gamma	90.017789
_symmetry_space_group_name_H-M	'P 1'
_symmetry_Int_Tables_number		1

loop_
	_symmetry_equiv_pos_as_xyz
	x,y,z

loop_
	_atom_site_label
	_atom_site_type_symbol
	_atom_site_fract_x
	_atom_site_fract_y
	_atom_site_fract_z
	H0	H	0.383344	0.839973	0.720227
	H1	H	0.591856	0.150073	0.721702
	H2	H	0.590341	0.838764	0.280655
	H3	H	0.377960	0.147935	0.274630
	H4	H	0.709446	0.388978	0.845246
	H5	H	0.706867	0.601066	0.155413
	H6	H	0.262983	0.603842	0.846077
	H7	H	0.265799	0.391774	0.155842
	H8	H	0.832943	0.721068	0.390362
	H9	H	0.139331	0.718678	0.606566
	H10	H	0.831481	0.274484	0.605012
	H11	H	0.139891	0.273101	0.392582
	H12	H	0.831249	0.390890	0.720873
	H13	H	0.140239	0.601140	0.721705
	H14	H	0.832435	0.604880	0.275785
	H15	H	0.140515	0.391542	0.278595
	H16	H	0.381803	0.717042	0.844759
	H17	H	0.590353	0.715958	0.155820
	H18	H	0.595859	0.270833	0.847019
	H19	H	0.380163	0.274630	0.154894
	H20	H	0.705982	0.839075	0.397345
	H21	H	0.707135	0.151077	0.604729
	H22	H	0.265611	0.840554	0.604535
	H23	H	0.261924	0.148499	0.390372
	H24	H	0.879147	0.342503	0.223129
	H25	H	0.092110	0.649625	0.222734
	H26	H	0.092589	0.341159	0.778552
	H27	H	0.882834	0.650955	0.778514
	H28	H	0.207912	0.889171	0.346069
	H29	H	0.208212	0.101918	0.654648
	H30	H	0.768455	0.098130	0.342516
	H31	H	0.767258	0.892930	0.656682
	H32	H	0.332532	0.218121	0.893430
	H33	H	0.639575	0.220254	0.108257
	H34	H	0.328787	0.778655	0.101430
	H35	H	0.642336	0.776482	0.896792
	H36	H	0.329571	0.893825	0.218247
	H37	H	0.641276	0.100561	0.221092
	H38	H	0.331575	0.099986	0.779656
	H39	H	0.642561	0.892413	0.780724
	H40	H	0.883560	0.215074	0.343116
	H41	H	0.091718	0.216853	0.654733
	H42	H	0.092283	0.773335	0.346443
	H43	H	0.882381	0.776647	0.656667
	H44	H	0.211165	0.342993	0.892445
	H45	H	0.206884	0.651317	0.105567
	H46	H	0.761383	0.344145	0.108553
	H47	H	0.767546	0.652477	0.895849
	H48	H	0.393567	0.109027	0.591897
	H49	H	0.580061	0.882260	0.590930
	H50	H	0.573468	0.104078	0.412301
	H51	H	0.396000	0.884289	0.414143
	H52	H	0.576518	0.411216	0.110391
	H53	H	0.576499	0.593818	0.885458
	H54	H	0.395397	0.582881	0.111634
	H55	H	0.396662	0.410596	0.889164
	H56	H	0.097492	0.592855	0.417320
	H57	H	0.874632	0.591278	0.584347
	H58	H	0.099405	0.402939	0.588730
	H59	H	0.875117	0.402947	0.417661
	H60	H	0.096813	0.406714	0.588662
	H61	H	0.878757	0.577724	0.585661
	H62	H	0.091340	0.576557	0.418904
	H63	H	0.877068	0.411811	0.411723
	H64	H	0.398891	0.587103	0.112103
	H65	H	0.581698	0.581818	0.887425
	H66	H	0.570315	0.411176	0.108302
	H67	H	0.401620	0.407988	0.890574
	H68	H	0.579828	0.106990	0.411766
	H69	H	0.574552	0.883876	0.592282
	H70	H	0.401668	0.105799	0.590277
	H71	H	0.398964	0.883988	0.410265
	H72	H	0.897847	0.607917	0.088346
	H73	H	0.071192	0.387432	0.087597
	H74	H	0.072070	0.604900	0.912597
	H75	H	0.897235	0.386649	0.914970
	H76	H	0.075893	0.909726	0.612393
	H77	H	0.078768	0.081432	0.387494
	H78	H	0.888992	0.080872	0.612839
	H79	H	0.893488	0.912048	0.388501
	H80	H	0.596232	0.081670	0.912406
	H81	H	0.378484	0.082146	0.082930
	H82	H	0.599081	0.901484	0.088840
	H83	H	0.373402	0.901545	0.910715
	H84	H	0.597606	0.907012	0.090390
	H85	H	0.375716	0.080167	0.091671
	H86	H	0.598340	0.084761	0.909559
	H87	H	0.375291	0.907041	0.911893
	H88	H	0.902858	0.081954	0.608402
	H89	H	0.070956	0.080654	0.391208
	H90	H	0.071855	0.907675	0.611349
	H91	H	0.902072	0.906477	0.390997
	H92	H	0.076986	0.606878	0.914110
	H93	H	0.078602	0.384681	0.085294
	H94	H	0.897696	0.607032	0.087759
	H95	H	0.892975	0.383116	0.910729
	H96	H	0.395730	0.105707	0.584115
	H97	H	0.577077	0.885255	0.587088
	H98	H	0.575386	0.107344	0.406829
	H99	H	0.400162	0.887081	0.414017
	H100	H	0.572852	0.405829	0.110769
	H101	H	0.569050	0.584005	0.891022
	H102	H	0.393501	0.587618	0.113635
	H103	H	0.397656	0.405370	0.886795
	H104	H	0.098045	0.582335	0.403487
	H105	H	0.872593	0.584284	0.596731
	H106	H	0.098791	0.405563	0.592721
	H107	H	0.871786	0.404008	0.407238
	H108	H	0.896990	0.608253	0.087799
	H109	H	0.075917	0.383210	0.093006
	H110	H	0.074329	0.607423	0.908717
	H111	H	0.899011	0.384704	0.908498
	H112	H	0.075493	0.905492	0.613497
	H113	H	0.073457	0.088671	0.387661
	H114	H	0.896222	0.093638	0.614884
	H115	H	0.894463	0.901387	0.385543
	H116	H	0.596981	0.085746	0.913480
	H117	H	0.374761	0.088519	0.088053
	H118	H	0.599902	0.903587	0.094046
	H119	H	0.372991	0.905308	0.906353
	C120	C	0.364819	0.004245	0.621442
	C121	C	0.608452	0.987052	0.621753
	C122	C	0.607862	0.003286	0.378643
	C123	C	0.364737	0.986633	0.378709
	C124	C	0.607345	0.375642	0.008046
	C125	C	0.607535	0.618009	0.991266
	C126	C	0.364818	0.617331	0.008805
	C127	C	0.365795	0.375538	0.991463
	C128	C	-0.005829	0.617772	0.379161
	C129	C	0.977721	0.616636	0.620932
	C130	C	-0.004581	0.373328	0.622109
	C131	C	0.977052	0.374300	0.379048
	C132	C	0.864606	0.505597	0.121238
	C133	C	0.107088	0.487591	0.120960
	C134	C	0.107866	0.504532	0.878748
	C135	C	0.864925	0.487721	0.878782
	C136	C	0.106619	0.874938	0.509519
	C137	C	0.107368	0.116751	0.491137
	C138	C	0.865146	0.116693	0.508202
	C139	C	0.864787	0.874733	0.491617
	C140	C	0.495028	0.116780	0.879150
	C141	C	0.478005	0.116794	0.121257
	C142	C	0.494992	0.874067	0.121418
	C143	C	0.477597	0.873989	0.878541
	C144	C	0.363890	0.886771	0.680438
	C145	C	0.610073	0.103829	0.681350
	C146	C	0.609232	0.885877	0.320000
	C147	C	0.360482	0.101908	0.315759
	C148	C	0.669031	0.371409	0.891962
	C149	C	0.666961	0.619619	0.108558
	C150	C	0.304216	0.620894	0.892203
	C151	C	0.305741	0.373346	0.108755
	C152	C	0.878978	0.680030	0.373827
	C153	C	0.093489	0.677683	0.623906
	C154	C	0.878343	0.314139	0.623781
	C155	C	0.093552	0.313908	0.375431
	C156	C	0.878191	0.372162	0.681227
	C157	C	0.094033	0.619209	0.681030
	C158	C	0.878926	0.622184	0.316702
	C159	C	0.093739	0.372541	0.318538
	C160	C	0.363070	0.677367	0.891625
	C161	C	0.609407	0.676950	0.108880
	C162	C	0.612352	0.312689	0.892809
	C163	C	0.362663	0.315263	0.108319
	C164	C	0.666714	0.885926	0.378024
	C165	C	0.667525	0.104218	0.623319
	C166	C	0.305584	0.886979	0.623212
	C167	C	0.302812	0.102108	0.373569
	C168	C	0.861168	0.389174	0.182481
	C169	C	0.109929	0.603610	0.182083
	C170	C	0.110907	0.388055	0.818576
	C171	C	0.863923	0.604442	0.818724
	C172	C	0.167600	0.871435	0.392884
	C173	C	0.167819	0.119870	0.608029
	C174	C	0.807654	0.116901	0.389728
	C175	C	0.806344	0.873859	0.609487
	C176	C	0.378818	0.177364	0.876173
	C177	C	0.593797	0.178397	0.125078
	C178	C	0.376315	0.817248	0.121061
	C179	C	0.595393	0.815874	0.878082
	C180	C	0.376672	0.874635	0.179108
	C181	C	0.594379	0.119291	0.181530
	C182	C	0.378289	0.118764	0.819500
	C183	C	0.595405	0.873509	0.820173
	C184	C	0.864754	0.175172	0.389948
	C185	C	0.109906	0.177020	0.607945
	C186	C	0.109910	0.813946	0.393018
	C187	C	0.863571	0.816024	0.609463
	C188	C	0.169932	0.388859	0.874960
	C189	C	0.166907	0.604282	0.123588
	C190	C	0.802893	0.389832	0.125383
	C191	C	0.806630	0.605296	0.876992
	C192	C	0.389874	0.085610	0.596080
	C193	C	0.584254	0.905196	0.597190
	C194	C	0.583235	0.084953	0.403096
	C195	C	0.391054	0.906055	0.405447
	C196	C	0.580770	0.402023	0.088933
	C197	C	0.582755	0.593528	0.909418
	C198	C	0.389162	0.592684	0.091013
	C199	C	0.391367	0.400828	0.909898
	C200	C	0.074641	0.591488	0.405688
	C201	C	0.896378	0.591379	0.595992
	C202	C	0.077152	0.398093	0.597067
	C203	C	0.895738	0.399052	0.404979
	C204	C	0.890277	0.586589	0.095328
	C205	C	0.082300	0.406266	0.095755
	C206	C	0.081943	0.585473	0.904511
	C207	C	0.889483	0.405995	0.904213
	C208	C	0.081550	0.900373	0.591195
	C209	C	0.081925	0.090855	0.409939
	C210	C	0.889205	0.092441	0.590574
	C211	C	0.889667	0.899491	0.409509
	C212	C	0.576103	0.091322	0.904631
	C213	C	0.397249	0.090985	0.095028
	C214	C	0.577527	0.897351	0.097686
	C215	C	0.395333	0.897722	0.902696
	Zn216	Zn	0.486537	-0.003971	0.749788
	Zn217	Zn	0.486486	-0.005047	0.250227
	Zn218	Zn	0.735796	0.497283	-0.000147
	Zn219	Zn	0.236398	0.496021	-0.000079
	Zn220	Zn	-0.014731	0.746091	0.500128
	Zn221	Zn	-0.013691	0.245345	0.499567
	Zn222	Zn	-0.013452	0.495369	0.750008
	Zn223	Zn	-0.014823	0.496426	0.250511
	Zn224	Zn	0.486165	0.745534	0.000394
	Zn225	Zn	0.486558	0.246199	0.000219
	Zn226	Zn	0.736452	-0.004039	0.500041
	Zn227	Zn	0.236196	-0.004002	0.500188
	N228	N	0.399919	0.960886	0.679606
	N229	N	0.574176	0.029799	0.680594
	N230	N	0.573402	0.959940	0.320099
	N231	N	0.398223	0.028827	0.318660
	N232	N	0.666055	0.409952	0.964826
	N233	N	0.666075	0.583744	0.034212
	N234	N	0.305164	0.584302	0.966153
	N235	N	0.307290	0.410154	0.034769
	N236	N	0.951833	0.677484	0.412272
	N237	N	0.020006	0.676086	0.587288
	N238	N	0.952506	0.314473	0.587848
	N239	N	0.019782	0.314830	0.412150
	N240	N	0.952197	0.408009	0.680583
	N241	N	0.020917	0.581916	0.679436
	N242	N	0.951666	0.584000	0.319856
	N243	N	0.020265	0.409648	0.320576
	N244	N	0.400071	0.675290	0.965312
	N245	N	0.573218	0.676232	0.034821
	N246	N	0.574635	0.315152	0.966225
	N247	N	0.399276	0.316334	0.034333
	N248	N	0.665992	0.960165	0.413916
	N249	N	0.666758	0.030436	0.587030
	N250	N	0.305756	0.961268	0.587437
	N251	N	0.305296	0.029249	0.411998
	N252	N	0.898838	0.462276	0.180170
	N253	N	0.073402	0.529904	0.180928
	N254	N	0.072808	0.461080	0.820823
	N255	N	0.899295	0.530186	0.819601
	N256	N	0.165978	0.908554	0.466573
	N257	N	0.166785	0.083187	0.534203
	N258	N	0.807535	0.081601	0.464435
	N259	N	0.806753	0.909364	0.534932
	N260	N	0.452588	0.176463	0.912449
	N261	N	0.520331	0.177030	0.088283
	N262	N	0.451166	0.816315	0.086231
	N263	N	0.520872	0.815696	0.913392
	N264	N	0.451536	0.908872	0.179746
	N265	N	0.521191	0.081745	0.179487
	N266	N	0.451717	0.081750	0.820987
	N267	N	0.520947	0.908639	0.819965
	N268	N	0.899746	0.175401	0.464793
	N269	N	0.073057	0.175162	0.534296
	N270	N	0.072641	0.815904	0.466669
	N271	N	0.899038	0.816046	0.534863
	N272	N	0.168132	0.462393	0.911787
	N273	N	0.165419	0.530999	0.086292
	N274	N	0.804795	0.463283	0.088000
	N275	N	0.806958	0.531474	0.913476
	O276	O	-0.040909	0.914299	-0.171271
	H277	H	-0.025819	0.926552	-0.170342
	H278	H	-0.025646	0.909977	-0.173816
	O279	O	0.263123	0.715544	0.473030
	H280	H	0.267990	0.720816	0.450696
	H281	H	0.246531	0.739098	0.454390
	O282	O	0.769870	0.213351	0.979235
	H283	H	0.763345	0.229714	0.964069
	H284	H	0.765753	0.211863	0.975155
	O285	O	0.338985	0.515385	0.281351
	H286	H	0.334791	0.496799	0.279621
	H287	H	0.322328	0.501925	0.291384
	O288	O	0.277558	0.401645	0.393275
	H289	H	0.293498	0.399163	0.401677
	H290	H	0.274084	0.398024	0.411624
	O291	O	0.266403	0.272645	0.527048
	H292	H	0.246652	0.247289	0.527423
	H293	H	0.290417	0.267997	0.523437
	O294	O	1.355178	0.363562	0.596333
	H295	H	1.364899	0.395341	0.597094
	H296	H	1.355238	0.354335	0.566901
	O297	O	0.371566	0.634581	0.505652
	H298	H	0.377309	0.631575	0.502713
	H299	H	0.374449	0.637466	0.490467
	O300	O	0.029991	0.226468	0.963358
	H301	H	0.026658	0.216659	0.954660
	H302	H	0.028185	0.225748	0.957981
	O303	O	0.692449	0.701428	0.712858
	H304	H	0.697026	0.700989	0.671386
	H305	H	0.723977	0.734468	0.734626
	O306	O	0.467672	0.534747	0.724994
	H307	H	0.468684	0.543451	0.710529
	H308	H	0.497678	0.549828	0.735044
	O309	O	0.356911	0.503614	0.457516
	H310	H	0.362209	0.500585	0.452509
	H311	H	0.361071	0.505654	0.470270
	O312	O	0.968621	0.773979	0.119871
	H313	H	0.975960	0.766615	0.119213
	H314	H	0.961946	0.785267	0.129547
	O315	O	0.796199	0.809338	0.814474
	H316	H	0.807070	0.836201	0.830329
	H317	H	0.824277	0.818278	0.832220
	O318	O	0.452750	0.725480	0.275191
	H319	H	0.430011	0.745941	0.255222
	H320	H	0.441147	0.726072	0.272755
	O321	O	-0.021263	1.061836	0.923425
	H322	H	-0.017213	1.059101	0.913180
	H323	H	-0.026226	1.075031	0.930311
	O324	O	0.903552	0.802184	-0.023417
	H325	H	0.921158	0.792409	-0.042677
	H326	H	0.931339	0.813263	-0.026894
	O327	O	0.195499	-0.214389	0.792508
	H328	H	0.198293	-0.174619	0.794651
	H329	H	0.229184	-0.244007	0.758576
	O330	O	0.542864	0.264071	0.538583
	H331	H	0.561116	0.260174	0.536302
	H332	H	0.545619	0.261068	0.548895
	O333	O	0.480781	0.284558	0.712035
	H334	H	0.476120	0.271733	0.740391
	H335	H	0.475487	0.309492	0.697898
	O336	O	0.697440	0.280977	0.291453
	H337	H	0.729680	0.251783	0.257713
	H338	H	0.694074	0.307314	0.307498
	O339	O	0.774054	0.114342	0.797698
	H340	H	0.795413	0.114344	0.809164
	H341	H	0.753264	0.124908	0.769423
	O342	O	-0.007689	0.142291	0.028666
	H343	H	0.008178	0.150192	0.034892
	H344	H	-0.005721	0.148910	0.025780
	O345	O	0.081822	0.818477	1.004333
	H346	H	0.091337	0.809874	0.994181
	H347	H	0.077396	0.826516	1.003747
	O348	O	0.485398	0.667344	0.727638
	H349	H	0.500717	0.691441	0.742936
	H350	H	0.514588	0.665940	0.726190
	O351	O	0.426052	0.337910	0.365889
	H352	H	0.426609	0.329815	0.353988
	H353	H	0.434611	0.341622	0.364094
	O354	O	0.191876	0.023017	1.213685
	H355	H	0.190780	0.022516	1.190887
	H356	H	0.217812	0.021415	1.230055
	O357	O	0.274784	0.710194	0.293392
	H358	H	0.271782	0.659797	0.286862
	H359	H	0.263572	0.728226	0.275842
	O360	O	0.281757	0.501321	0.546114
	H361	H	0.289263	0.510106	0.553385
	H362	H	0.277913	0.507158	0.553507
	O363	O	-0.033577	0.074339	0.175821
	H364	H	-0.025095	0.074728	0.173354
	H365	H	-0.027092	0.079617	0.177012
	O366	O	0.470726	0.549074	0.327144
	H367	H	0.460184	0.557788	0.321202
	H368	H	0.464459	0.534830	0.333489
	O369	O	1.199588	-0.047401	-0.206654
	H370	H	1.214142	-0.038317	-0.205890
	H371	H	1.200717	-0.044054	-0.220092
	O372	O	0.896318	1.059862	-0.133473
	H373	H	0.898949	1.073398	-0.135113
	H374	H	0.899789	1.067659	-0.147509
	O375	O	0.831753	0.024089	0.024109
	H376	H	0.824036	0.034344	0.015917
	H377	H	0.838732	0.010029	0.029863
	O378	O	0.619765	0.349415	0.412995
	H379	H	0.625207	0.366915	0.414432
	H380	H	0.621566	0.343030	0.417772
	O381	O	0.293611	0.687039	0.691166
	H382	H	0.299381	0.657040	0.679497
	H383	H	0.322899	0.677808	0.665348
	O384	O	1.131110	0.138750	0.805545
	H385	H	1.128523	0.140700	0.821991
	H386	H	1.162022	0.163202	0.787166
	O387	O	0.814708	1.057636	0.151539
	H388	H	0.805462	1.049545	0.134768
	H389	H	0.807828	1.055143	0.162648
	O390	O	0.267271	0.270849	0.279249
	H391	H	0.278675	0.271654	0.297231
	H392	H	0.265955	0.270961	0.278914
	O393	O	0.481733	0.660628	0.503298
	H394	H	0.490076	0.653392	0.521770
	H395	H	0.467697	0.656981	0.492539
	O396	O	0.018525	1.213289	1.213588
	H397	H	0.022399	1.212807	1.210666
	H398	H	0.025028	1.228589	1.227855
	O399	O	-0.125203	-0.135010	1.208820
	H400	H	-0.130034	-0.122235	1.216814
	H401	H	-0.139239	-0.162051	1.215523
	O402	O	0.408374	0.549416	0.534207
	H403	H	0.416285	0.556659	0.540330
	H404	H	0.402040	0.549580	0.536952
	O405	O	0.796880	0.188573	1.187087
	H406	H	0.811398	0.163433	1.170402
	H407	H	0.819481	0.180531	1.165321
	O408	O	0.208440	0.215952	0.031095
	H409	H	0.217656	0.234617	0.031613
	H410	H	0.207321	0.223420	0.043670
	O411	O	0.589148	0.404829	0.717973
	H412	H	0.591874	0.395213	0.725787
	H413	H	0.600489	0.422112	0.727127
	O414	O	0.761032	-0.014511	0.858575
	H415	H	0.767662	0.006491	0.848714
	H416	H	0.756409	-0.018020	0.851863
	O417	O	0.476544	0.543267	0.503169
	H418	H	0.474927	0.527718	0.511764
	H419	H	0.498636	0.545683	0.501216
	O420	O	0.157141	0.146363	0.146402
	H421	H	0.150052	0.131858	0.142464
	H422	H	0.176757	0.161490	0.145190
	O423	O	-0.022613	0.120342	0.999128
	H424	H	-0.025357	0.111783	1.003325
	H425	H	-0.016553	0.122796	0.995935
	O426	O	0.640928	0.530847	0.621697
	H427	H	0.662428	0.529788	0.609839
	H428	H	0.643070	0.550229	0.622712
	O429	O	1.219609	1.047096	0.933803
	H430	H	1.221261	1.047738	0.943225
	H431	H	1.221567	1.058645	0.937511
	O432	O	0.711192	0.714521	0.537552
	H433	H	0.739051	0.738486	0.529436
	H434	H	0.690702	0.705661	0.518804
	O435	O	0.640931	0.653815	0.371514
	H436	H	0.649016	0.662574	0.350489
	H437	H	0.623720	0.646433	0.371520
	O438	O	0.039274	-0.062994	0.233573
	H439	H	0.043203	-0.050122	0.233642
	H440	H	0.042691	-0.048678	0.232074
	O441	O	0.507210	0.271649	0.280605
	H442	H	0.527749	0.263039	0.265976
	H443	H	0.535695	0.260232	0.275752
	O444	O	0.458196	0.408623	0.525273
	H445	H	0.484445	0.394075	0.527701
	H446	H	0.459012	0.429031	0.521421
	O447	O	0.173040	0.806562	1.189486
	H448	H	0.158940	0.810208	1.175843
	H449	H	0.157585	0.816677	1.191037
	O450	O	-0.143981	0.944946	1.053103
	H451	H	-0.150668	0.933236	1.061355
	H452	H	-0.144159	0.950807	1.058363
	O453	O	0.268895	0.477933	0.715788
	H454	H	0.272271	0.479889	0.731289
	H455	H	0.264108	0.479628	0.712285
	O456	O	-0.051584	0.007224	0.899907
	H457	H	-0.044037	0.018921	0.903073
	H458	H	-0.049204	0.011475	0.907547
	O459	O	0.769985	0.779637	0.032301
	H460	H	0.758586	0.759514	0.021668
	H461	H	0.775238	0.787967	0.011976
	O462	O	0.564164	0.462864	0.434795
	H463	H	0.565597	0.470689	0.428133
	H464	H	0.563148	0.450206	0.437295
	O465	O	1.235432	0.249195	-0.247891
	H466	H	1.252850	0.257278	-0.245912
	H467	H	1.257436	0.275295	-0.267472
	O468	O	0.681871	0.482349	0.279228
	H469	H	0.704007	0.488212	0.253971
	H470	H	0.662801	0.468294	0.286869
	O471	O	0.599273	0.303564	0.680540
	H472	H	0.598411	0.312275	0.670226
	H473	H	0.586406	0.317833	0.672409
	O474	O	0.592356	0.670910	0.377339
	H475	H	0.574214	0.667481	0.365394
	H476	H	0.574279	0.663690	0.379698
	O477	O	0.713503	0.543355	1.451849
	H478	H	0.699964	0.547097	1.428725
	H479	H	0.725969	0.541653	1.450010
	O480	O	0.763151	0.777640	0.221077
	H481	H	0.772246	0.790651	0.214463
	H482	H	0.763422	0.771783	0.191713
	O483	O	0.707510	0.528911	0.725690
	H484	H	0.716737	0.551916	0.723382
	H485	H	0.731457	0.545793	0.742438
	O486	O	0.980157	0.002954	0.910548
	H487	H	0.984092	0.009223	0.903550
	H488	H	0.973773	0.004445	0.923333
	O489	O	1.210160	0.938051	0.061546
	H490	H	1.203296	0.907964	0.046551
	H491	H	1.207406	0.936589	0.056716
	O492	O	-0.169568	0.184727	-0.174679
	H493	H	-0.164915	0.164680	-0.169897
	H494	H	-0.173789	0.197824	-0.176605
	O495	O	0.183211	0.778298	0.982106
	H496	H	0.195915	0.752872	0.980650
	H497	H	0.176013	0.773130	0.949241
	O498	O	1.021316	0.775200	0.784244
	H499	H	1.048810	0.771764	0.773319
	H500	H	1.039133	0.767048	0.767266
	O501	O	0.714385	0.331276	0.505804
	H502	H	0.718457	0.336968	0.492433
	H503	H	0.720999	0.318841	0.508915
