data_Molecule from HDF5

_cell_length_a		16.668086
_cell_length_b		16.696561
_cell_length_c		16.588247
_cell_angle_alpha	89.998665
_cell_angle_beta	89.877979
_cell_angle_gamma	90.111800
_symmetry_space_group_name_H-M	'P 1'
_symmetry_Int_Tables_number		1

loop_
	_symmetry_equiv_pos_as_xyz
	x,y,z

loop_
	_atom_site_label
	_atom_site_type_symbol
	_atom_site_fract_x
	_atom_site_fract_y
	_atom_site_fract_z
	H0	H	0.393327	0.846222	0.714326
	H1	H	0.602672	0.155538	0.711539
	H2	H	0.607861	0.847022	0.267187
	H3	H	0.393078	0.153961	0.269069
	H4	H	0.721476	0.397506	0.836726
	H5	H	0.723353	0.609119	0.146319
	H6	H	0.280524	0.604982	0.836702
	H7	H	0.277355	0.392159	0.146292
	H8	H	0.845640	0.720985	0.386743
	H9	H	0.154727	0.721549	0.596879
	H10	H	0.846175	0.279207	0.598679
	H11	H	0.154367	0.278014	0.385816
	H12	H	0.845505	0.396694	0.713678
	H13	H	0.155609	0.606170	0.712996
	H14	H	0.844141	0.601877	0.273995
	H15	H	0.154313	0.394810	0.270502
	H16	H	0.395368	0.721621	0.836423
	H17	H	0.608925	0.726535	0.145729
	H18	H	0.606644	0.280278	0.837285
	H19	H	0.392944	0.276928	0.146324
	H20	H	0.722847	0.846778	0.383515
	H21	H	0.721140	0.154031	0.596386
	H22	H	0.277569	0.846360	0.597702
	H23	H	0.276475	0.153487	0.384583
	H24	H	0.894975	0.345934	0.213495
	H25	H	0.106667	0.653898	0.215344
	H26	H	0.102108	0.344846	0.774295
	H27	H	0.896442	0.655987	0.771321
	H28	H	0.221790	0.894198	0.336883
	H29	H	0.218138	0.103044	0.648723
	H30	H	0.777509	0.105781	0.338310
	H31	H	0.777822	0.893267	0.647594
	H32	H	0.347672	0.224892	0.884782
	H33	H	0.652907	0.226198	0.102267
	H34	H	0.347008	0.775255	0.101493
	H35	H	0.653051	0.777261	0.882952
	H36	H	0.346293	0.892744	0.216304
	H37	H	0.652729	0.109000	0.217642
	H38	H	0.344856	0.104953	0.773016
	H39	H	0.654328	0.895565	0.769577
	H40	H	0.891806	0.223945	0.339474
	H41	H	0.102399	0.218551	0.648807
	H42	H	0.106215	0.777658	0.337371
	H43	H	0.894572	0.778276	0.647510
	H44	H	0.219719	0.344681	0.888913
	H45	H	0.224887	0.652529	0.101163
	H46	H	0.777580	0.347203	0.098518
	H47	H	0.778403	0.654782	0.885502
	H48	H	0.407062	0.113992	0.584407
	H49	H	0.589674	0.888201	0.579741
	H50	H	0.581929	0.108219	0.405422
	H51	H	0.413193	0.889892	0.402520
	H52	H	0.584154	0.407357	0.104189
	H53	H	0.587310	0.590051	0.881338
	H54	H	0.412624	0.587168	0.103556
	H55	H	0.413420	0.414640	0.882267
	H56	H	0.108776	0.586779	0.410418
	H57	H	0.890101	0.583971	0.583137
	H58	H	0.112792	0.407344	0.581853
	H59	H	0.890319	0.413314	0.407214
	H60	H	0.111135	0.411248	0.580734
	H61	H	0.887281	0.591513	0.585034
	H62	H	0.112123	0.584396	0.397573
	H63	H	0.887971	0.411081	0.399545
	H64	H	0.414011	0.587469	0.102496
	H65	H	0.590007	0.589939	0.880512
	H66	H	0.594979	0.413556	0.106175
	H67	H	0.414555	0.409926	0.880332
	H68	H	0.589776	0.108565	0.409888
	H69	H	0.588625	0.887038	0.582841
	H70	H	0.412945	0.111101	0.582888
	H71	H	0.412719	0.891670	0.408705
	H72	H	0.912266	0.611717	0.083896
	H73	H	0.088515	0.390786	0.076999
	H74	H	0.093236	0.612449	0.899896
	H75	H	0.908316	0.391739	0.908718
	H76	H	0.078923	0.917552	0.598078
	H77	H	0.085771	0.086882	0.381905
	H78	H	0.907723	0.087137	0.604630
	H79	H	0.911501	0.902503	0.378287
	H80	H	0.614090	0.099220	0.905350
	H81	H	0.389272	0.089630	0.081775
	H82	H	0.608442	0.910953	0.071989
	H83	H	0.388707	0.909589	0.905484
	H84	H	0.607357	0.920568	0.078395
	H85	H	0.391131	0.089125	0.075438
	H86	H	0.608264	0.085094	0.906812
	H87	H	0.389951	0.913627	0.905655
	H88	H	0.913025	0.085543	0.603628
	H89	H	0.086898	0.091928	0.380620
	H90	H	0.086100	0.897654	0.607492
	H91	H	0.903471	0.916085	0.380379
	H92	H	0.090492	0.612265	0.902915
	H93	H	0.091152	0.387658	0.081674
	H94	H	0.910362	0.612085	0.080960
	H95	H	0.907437	0.386796	0.899666
	H96	H	0.408161	0.111567	0.578432
	H97	H	0.586867	0.889665	0.581254
	H98	H	0.589079	0.111703	0.401467
	H99	H	0.408253	0.888765	0.405558
	H100	H	0.585056	0.419439	0.100160
	H101	H	0.588613	0.587509	0.882038
	H102	H	0.413265	0.588832	0.102993
	H103	H	0.409364	0.411556	0.880722
	H104	H	0.113956	0.597012	0.403246
	H105	H	0.889671	0.590127	0.577554
	H106	H	0.113123	0.410430	0.584548
	H107	H	0.887445	0.405714	0.405717
	H108	H	0.909533	0.612242	0.083737
	H109	H	0.085508	0.390346	0.082149
	H110	H	0.094936	0.612128	0.904029
	H111	H	0.915907	0.391975	0.902670
	H112	H	0.100545	0.915924	0.606197
	H113	H	0.090547	0.088003	0.379479
	H114	H	0.911818	0.091157	0.604747
	H115	H	0.919136	0.914974	0.384184
	H116	H	0.614605	0.089574	0.893403
	H117	H	0.391029	0.083909	0.079163
	H118	H	0.612967	0.911068	0.082531
	H119	H	0.388345	0.912469	0.902088
	C120	C	0.377330	0.009692	0.614177
	C121	C	0.620381	0.991141	0.613031
	C122	C	0.620572	0.008182	0.371126
	C123	C	0.378107	0.991483	0.371128
	C124	C	0.621253	0.380853	0.000782
	C125	C	0.622108	0.623201	0.983425
	C126	C	0.380389	0.620990	0.000427
	C127	C	0.379256	0.378747	0.983341
	C128	C	0.008656	0.620963	0.371661
	C129	C	0.991610	0.620986	0.613610
	C130	C	0.009494	0.378544	0.614344
	C131	C	0.991184	0.377775	0.371235
	C132	C	0.878678	0.509557	0.114597
	C133	C	0.122069	0.491001	0.114183
	C134	C	0.123052	0.509184	0.871036
	C135	C	0.879275	0.492738	0.871301
	C136	C	0.120997	0.878359	0.500880
	C137	C	0.119726	0.120508	0.483780
	C138	C	0.878390	0.120806	0.501597
	C139	C	0.878598	0.878475	0.483793
	C140	C	0.509541	0.122887	0.870472
	C141	C	0.491914	0.121512	0.113095
	C142	C	0.508580	0.879262	0.112761
	C143	C	0.491212	0.879377	0.870705
	C144	C	0.375165	0.892837	0.674113
	C145	C	0.621929	0.108634	0.671943
	C146	C	0.624893	0.893235	0.308351
	C147	C	0.374888	0.107325	0.309390
	C148	C	0.681739	0.378656	0.883717
	C149	C	0.683317	0.627430	0.099605
	C150	C	0.320125	0.623584	0.883493
	C151	C	0.318093	0.375093	0.099964
	C152	C	0.891966	0.680536	0.369030
	C153	C	0.108383	0.681321	0.615226
	C154	C	0.892665	0.319382	0.616729
	C155	C	0.107749	0.318067	0.368092
	C156	C	0.892330	0.377689	0.673882
	C157	C	0.108808	0.623609	0.672831
	C158	C	0.891308	0.621559	0.312842
	C159	C	0.108037	0.376352	0.310985
	C160	C	0.377450	0.681399	0.883395
	C161	C	0.626421	0.685596	0.099291
	C162	C	0.624529	0.320544	0.883931
	C163	C	0.375331	0.317490	0.099696
	C164	C	0.682411	0.893145	0.366202
	C165	C	0.680560	0.107950	0.614987
	C166	C	0.317560	0.892878	0.616378
	C167	C	0.316948	0.107334	0.367049
	C168	C	0.876295	0.392732	0.173823
	C169	C	0.124857	0.607189	0.175106
	C170	C	0.122167	0.391672	0.813101
	C171	C	0.877767	0.609194	0.811146
	C172	C	0.181373	0.876067	0.383789
	C173	C	0.178851	0.121793	0.601462
	C174	C	0.817551	0.124273	0.384974
	C175	C	0.818403	0.875731	0.600817
	C176	C	0.393463	0.183532	0.867724
	C177	C	0.606896	0.184529	0.118816
	C178	C	0.392916	0.816786	0.117929
	C179	C	0.607280	0.818697	0.866475
	C180	C	0.392481	0.874822	0.175230
	C181	C	0.606863	0.126257	0.176154
	C182	C	0.392088	0.124101	0.811843
	C183	C	0.607695	0.877239	0.809659
	C184	C	0.874535	0.182643	0.385580
	C185	C	0.121167	0.179174	0.601717
	C186	C	0.123894	0.818205	0.383825
	C187	C	0.876076	0.818238	0.600854
	C188	C	0.180316	0.391664	0.870346
	C189	C	0.183705	0.606524	0.118346
	C190	C	0.818142	0.393381	0.116550
	C191	C	0.819083	0.608637	0.868041
	C192	C	0.402341	0.091061	0.589009
	C193	C	0.595659	0.909486	0.588281
	C194	C	0.594398	0.088563	0.398121
	C195	C	0.404148	0.911100	0.397930
	C196	C	0.595423	0.406256	0.082276
	C197	C	0.595902	0.596784	0.902326
	C198	C	0.406000	0.595154	0.081814
	C199	C	0.405185	0.404701	0.902277
	C200	C	0.090335	0.596334	0.396536
	C201	C	0.910092	0.595641	0.588921
	C202	C	0.091114	0.402723	0.589618
	C203	C	0.909801	0.402891	0.396794
	C204	C	0.903750	0.590730	0.089914
	C205	C	0.095655	0.410637	0.087861
	C206	C	0.099676	0.590982	0.895319
	C207	C	0.903663	0.411357	0.896587
	C208	C	0.095744	0.903211	0.582684
	C209	C	0.094865	0.095891	0.402001
	C210	C	0.903697	0.095038	0.583025
	C211	C	0.904109	0.903945	0.402218
	C212	C	0.591091	0.098369	0.894907
	C213	C	0.411384	0.094999	0.086452
	C214	C	0.588562	0.906419	0.085506
	C215	C	0.410000	0.904665	0.897004
	Zn216	Zn	0.499397	0.000571	0.742244
	Zn217	Zn	0.499519	0.000235	0.242051
	Zn218	Zn	0.750197	0.501342	-0.007262
	Zn219	Zn	0.251484	0.500201	-0.007483
	Zn220	Zn	-0.000532	0.749494	0.492279
	Zn221	Zn	-0.000224	0.249835	0.492905
	Zn222	Zn	0.001005	0.500349	0.742734
	Zn223	Zn	0.000302	0.499803	0.243271
	Zn224	Zn	0.500116	0.750531	-0.008147
	Zn225	Zn	0.500972	0.251148	-0.007734
	Zn226	Zn	0.750026	-0.000843	0.492363
	Zn227	Zn	0.249115	-0.000009	0.492114
	N228	N	0.411584	0.966653	0.673171
	N229	N	0.585368	0.034851	0.671226
	N230	N	0.587094	0.966055	0.311168
	N231	N	0.412181	0.034218	0.311580
	N232	N	0.680063	0.415249	0.957624
	N233	N	0.680857	0.589155	0.026459
	N234	N	0.321367	0.586811	0.957563
	N235	N	0.320261	0.412531	0.026429
	N236	N	0.966052	0.680337	0.404745
	N237	N	0.034373	0.679947	0.579112
	N238	N	0.966570	0.319764	0.580518
	N239	N	0.033932	0.318880	0.404796
	N240	N	0.966216	0.413769	0.672852
	N241	N	0.035102	0.586822	0.672150
	N242	N	0.965058	0.585175	0.314155
	N243	N	0.034409	0.412955	0.312698
	N244	N	0.414068	0.679946	0.957297
	N245	N	0.589315	0.683343	0.025650
	N246	N	0.587797	0.321490	0.958092
	N247	N	0.412703	0.319465	0.026104
	N248	N	0.680015	0.965829	0.404631
	N249	N	0.679898	0.033693	0.579435
	N250	N	0.318574	0.966669	0.579983
	N251	N	0.318650	0.034228	0.404719
	N252	N	0.913157	0.465963	0.172913
	N253	N	0.087335	0.534103	0.173153
	N254	N	0.087332	0.465962	0.812942
	N255	N	0.914571	0.535887	0.813041
	N256	N	0.179649	0.912718	0.457727
	N257	N	0.178587	0.086440	0.526899
	N258	N	0.819839	0.086468	0.458136
	N259	N	0.819723	0.912423	0.526994
	N260	N	0.467508	0.182876	0.903629
	N261	N	0.534316	0.181638	0.080177
	N262	N	0.466122	0.819262	0.079784
	N263	N	0.533781	0.820023	0.903860
	N264	N	0.465226	0.913368	0.171957
	N265	N	0.534234	0.087718	0.172713
	N266	N	0.465350	0.086983	0.813201
	N267	N	0.534324	0.914347	0.812170
	N268	N	0.911704	0.180762	0.459226
	N269	N	0.085505	0.179070	0.527264
	N270	N	0.086871	0.819291	0.457811
	N271	N	0.912753	0.819620	0.526814
	N272	N	0.181226	0.465992	0.905344
	N273	N	0.182213	0.533298	0.081115
	N274	N	0.819414	0.467126	0.080277
	N275	N	0.820091	0.535297	0.905101
	O276	O	0.035296	0.779779	-0.218614
	H277	H	0.047632	0.776812	-0.216742
	H278	H	0.024829	0.760691	-0.227534
	O279	O	0.397415	0.432363	0.309568
	H280	H	0.400906	0.452743	0.304473
	H281	H	0.388633	0.411858	0.299846
	O282	O	0.996680	0.104064	0.968454
	H283	H	0.988349	0.112994	0.975907
	H284	H	1.006584	0.107133	0.950355
	O285	O	0.433090	0.489285	0.604120
	H286	H	0.429746	0.489832	0.616605
	H287	H	0.426650	0.485312	0.590875
	O288	O	0.581515	0.583162	0.542991
	H289	H	0.580099	0.581529	0.535769
	H290	H	0.577038	0.578896	0.548491
	O291	O	0.273884	0.271715	0.527600
	H292	H	0.256729	0.250871	0.529082
	H293	H	0.260025	0.276663	0.531417
	O294	O	0.824725	0.186845	0.959289
	H295	H	0.824134	0.193560	0.952064
	H296	H	0.817971	0.201438	0.947070
	O297	O	0.548016	0.701720	0.439710
	H298	H	0.550801	0.699685	0.436566
	H299	H	0.560635	0.696984	0.445406
	O300	O	-0.039662	0.221400	0.773270
	H301	H	-0.049471	0.239912	0.757450
	H302	H	-0.061245	0.221614	0.762857
	O303	O	0.704824	0.712634	0.686070
	H304	H	0.721514	0.720678	0.695593
	H305	H	0.704263	0.693516	0.692380
	O306	O	0.697134	0.437653	0.579510
	H307	H	0.694547	0.449040	0.568691
	H308	H	0.684352	0.428744	0.577448
	O309	O	0.314697	0.694282	0.676999
	H310	H	0.300936	0.684491	0.675709
	H311	H	0.334124	0.691319	0.649238
	O312	O	0.450021	0.664985	0.550408
	H313	H	0.471505	0.658090	0.548104
	H314	H	0.459998	0.663355	0.560492
	O315	O	0.906316	0.830061	0.868662
	H316	H	0.908826	0.840993	0.879636
	H317	H	0.905244	0.837084	0.881203
	O318	O	0.477383	0.715999	0.274460
	H319	H	0.462643	0.722655	0.264343
	H320	H	0.485711	0.724955	0.274528
	O321	O	0.210850	0.788310	0.779941
	H322	H	0.198267	0.809279	0.793985
	H323	H	0.219939	0.770587	0.766705
	O324	O	0.965034	0.904349	0.203749
	H325	H	0.974787	0.904341	0.203731
	H326	H	0.960751	0.906005	0.211521
	O327	O	0.080145	-0.075612	1.042626
	H328	H	0.085908	-0.083002	1.020623
	H329	H	0.070002	-0.053678	1.034956
	O330	O	0.525675	0.559153	0.482569
	H331	H	0.526936	0.565830	0.471665
	H332	H	0.520419	0.556697	0.489443
	O333	O	0.500889	0.279617	0.631660
	H334	H	0.511478	0.288002	0.633159
	H335	H	0.489924	0.273575	0.641639
	O336	O	0.711683	0.286915	0.280061
	H337	H	0.695080	0.300925	0.299763
	H338	H	0.703596	0.308701	0.285391
	O339	O	0.999868	-0.012853	0.757941
	H340	H	0.998602	-0.017066	0.750749
	H341	H	0.992565	-0.010665	0.761966
	O342	O	0.007082	-0.133040	0.036340
	H343	H	0.009845	-0.122786	0.021845
	H344	H	0.005644	-0.136306	0.027566
	O345	O	0.222985	1.056954	0.933397
	H346	H	0.221515	1.066830	0.946706
	H347	H	0.222061	1.059623	0.936595
	O348	O	0.273444	0.274153	0.264249
	H349	H	0.265071	0.249459	0.264975
	H350	H	0.267580	0.291232	0.258278
	O351	O	0.681673	0.683221	0.311175
	H352	H	0.695175	0.703727	0.305057
	H353	H	0.669933	0.672451	0.312744
	O354	O	0.237323	-0.053161	1.052377
	H355	H	0.232633	-0.050096	1.065937
	H356	H	0.233475	-0.056286	1.052230
	O357	O	0.303603	0.704533	0.465107
	H358	H	0.295590	0.697396	0.477935
	H359	H	0.301976	0.706336	0.475140
	O360	O	0.241834	0.241501	0.751656
	H361	H	0.246298	0.232521	0.748901
	H362	H	0.217320	0.213855	0.778122
	O363	O	0.018535	0.172581	0.013024
	H364	H	0.022471	0.165518	0.007330
	H365	H	0.017787	0.188558	0.014675
	O366	O	0.377698	0.365537	0.608123
	H367	H	0.359279	0.343601	0.618395
	H368	H	0.382152	0.361372	0.593706
	O369	O	0.813977	0.188702	0.183712
	H370	H	0.787991	0.211462	0.212488
	H371	H	0.820746	0.177699	0.160299
	O372	O	0.778330	0.782413	0.009381
	H373	H	0.757045	0.767184	0.022427
	H374	H	0.783706	0.786628	0.019933
	O375	O	0.805897	-0.026571	0.185575
	H376	H	0.788236	-0.023040	0.188590
	H377	H	0.813121	-0.030242	0.183180
	O378	O	0.515922	0.296460	0.274785
	H379	H	0.512295	0.299704	0.283205
	H380	H	0.516452	0.268994	0.265993
	O381	O	0.213679	0.808545	0.939440
	H382	H	0.226173	0.815957	0.947111
	H383	H	0.212340	0.805585	0.926209
	O384	O	0.780392	0.035272	0.772664
	H385	H	0.772616	0.019374	0.790289
	H386	H	0.760514	0.025560	0.762279
	O387	O	1.110672	0.838930	0.162832
	H388	H	1.124112	0.832615	0.177312
	H389	H	1.109783	0.837555	0.151001
	O390	O	0.582612	0.353218	0.471729
	H391	H	0.587113	0.352122	0.472615
	H392	H	0.576267	0.350866	0.470196
	O393	O	0.499625	0.480466	0.718513
	H394	H	0.480804	0.487633	0.719209
	H395	H	0.481028	0.489173	0.717698
	O396	O	0.216204	0.970209	0.773136
	H397	H	0.221364	0.953935	0.762292
	H398	H	0.233578	0.966569	0.778722
	O399	O	0.058628	-0.036058	0.873043
	H400	H	0.066794	-0.053147	0.865403
	H401	H	0.063485	-0.031311	0.870553
	O402	O	0.456655	0.597324	0.600070
	H403	H	0.443368	0.604375	0.599280
	H404	H	0.451672	0.602136	0.608153
	O405	O	0.868354	0.113288	0.936802
	H406	H	0.863037	0.128883	0.927545
	H407	H	0.873036	0.113250	0.925978
	O408	O	0.222409	0.213185	0.013137
	H409	H	0.228227	0.233511	0.027014
	H410	H	0.227489	0.221147	0.035492
	O411	O	0.540017	0.719055	0.706844
	H412	H	0.531768	0.741015	0.725613
	H413	H	0.565425	0.714929	0.698963
	O414	O	0.691636	0.308591	0.678867
	H415	H	0.688433	0.312964	0.662526
	H416	H	0.667959	0.326444	0.671350
	O417	O	0.613066	0.500451	0.407302
	H418	H	0.624648	0.494771	0.389400
	H419	H	0.610963	0.510914	0.420771
	O420	O	0.284274	0.512316	0.292623
	H421	H	0.301922	0.532613	0.293284
	H422	H	0.256740	0.523949	0.274998
	O423	O	-0.151779	-0.021960	1.064341
	H424	H	-0.151625	-0.014570	1.062227
	H425	H	-0.142792	-0.009869	1.070554
	O426	O	0.280820	0.438422	0.463114
	H427	H	0.278885	0.437141	0.463386
	H428	H	0.286287	0.439470	0.461132
	O429	O	0.881432	0.859229	0.805388
	H430	H	0.887911	0.874557	0.822632
	H431	H	0.895100	0.851814	0.792993
	O432	O	0.706912	0.725117	0.513193
	H433	H	0.714041	0.730837	0.517480
	H434	H	0.719693	0.730225	0.535354
	O435	O	0.270383	0.735054	0.258563
	H436	H	0.274333	0.733961	0.254176
	H437	H	0.271507	0.731976	0.287665
	O438	O	0.019284	0.155877	0.215595
	H439	H	-0.002530	0.165254	0.216429
	H440	H	0.002723	0.152388	0.215962
	O441	O	0.148830	0.206398	0.192009
	H442	H	0.127072	0.206989	0.200306
	H443	H	0.133616	0.195789	0.203400
	O444	O	0.464640	0.292694	0.601289
	H445	H	0.445067	0.290751	0.614253
	H446	H	0.460268	0.293089	0.599782
	O447	O	0.216130	1.036091	1.185288
	H448	H	0.229714	1.034357	1.203460
	H449	H	0.208537	1.028295	1.176440
	O450	O	0.037606	0.779225	1.146083
	H451	H	0.059471	0.761090	1.150827
	H452	H	0.046620	0.792318	1.138282
	O453	O	0.273139	0.470825	0.716856
	H454	H	0.266672	0.439773	0.725750
	H455	H	0.255076	0.456110	0.730701
	O456	O	0.114904	0.112918	0.855273
	H457	H	0.108549	0.108193	0.861511
	H458	H	0.103043	0.100661	0.857495
	O459	O	0.792561	0.790126	0.204558
	H460	H	0.826282	0.786264	0.211557
	H461	H	0.797209	0.806127	0.179117
	O462	O	0.625694	0.451389	0.269587
	H463	H	0.621543	0.469355	0.274102
	H464	H	0.634597	0.436830	0.263381
	O465	O	0.850658	0.131382	0.043118
	H466	H	0.845568	0.137468	0.045171
	H467	H	0.848459	0.139131	0.050110
	O468	O	0.298501	0.560929	0.460391
	H469	H	0.315710	0.555016	0.463691
	H470	H	0.300086	0.543693	0.462952
	O471	O	0.595128	0.465515	0.477617
	H472	H	0.580900	0.472857	0.478740
	H473	H	0.598986	0.465132	0.464129
	O474	O	0.482854	0.589440	0.277049
	H475	H	0.489269	0.593618	0.282677
	H476	H	0.474147	0.585071	0.278564
	O477	O	0.446300	0.325964	1.384969
	H478	H	0.443972	0.327795	1.389673
	H479	H	0.453732	0.316792	1.384185
	O480	O	0.638898	0.283651	0.477995
	H481	H	0.643875	0.280049	0.480605
	H482	H	0.625193	0.289749	0.477483
	O483	O	0.719087	0.535124	0.708608
	H484	H	0.732778	0.539117	0.717502
	H485	H	0.721473	0.514342	0.707074
	O486	O	0.787122	0.209036	0.781118
	H487	H	0.762861	0.229291	0.762464
	H488	H	0.789029	0.163199	0.774227
	O489	O	0.970239	1.139668	-0.001766
	H490	H	0.947888	1.131021	0.004635
	H491	H	0.949104	1.144496	-0.018636
	O492	O	0.001303	0.038276	0.215585
	H493	H	0.017875	0.019091	0.214967
	H494	H	-0.018012	0.049010	0.217106
	O495	O	-0.016942	0.846378	0.994830
	H496	H	-0.013704	0.846366	1.003490
	H497	H	-0.018302	0.844634	0.999987
	O498	O	0.770299	0.947691	0.925285
	H499	H	0.775713	0.946871	0.943633
	H500	H	0.771669	0.943866	0.937418
	O501	O	0.669953	0.488464	0.417769
	H502	H	0.672341	0.505417	0.424334
	H503	H	0.663780	0.482935	0.409708
