data_Molecule from HDF5

_cell_length_a		16.400971
_cell_length_b		16.292542
_cell_length_c		16.398455
_cell_angle_alpha	89.935933
_cell_angle_beta	90.030493
_cell_angle_gamma	89.876224
_symmetry_space_group_name_H-M	'P 1'
_symmetry_Int_Tables_number		1

loop_
	_symmetry_equiv_pos_as_xyz
	x,y,z

loop_
	_atom_site_label
	_atom_site_type_symbol
	_atom_site_fract_x
	_atom_site_fract_y
	_atom_site_fract_z
	H0	H	0.393515	0.821316	0.717011
	H1	H	0.598351	0.143000	0.716233
	H2	H	0.598678	0.821046	0.279647
	H3	H	0.389740	0.143146	0.277914
	H4	H	0.716692	0.379620	0.837734
	H5	H	0.720826	0.587315	0.157765
	H6	H	0.279004	0.586902	0.839541
	H7	H	0.279291	0.378045	0.159023
	H8	H	0.837589	0.700867	0.393187
	H9	H	0.158520	0.698812	0.597874
	H10	H	0.837468	0.262265	0.602314
	H11	H	0.157020	0.259279	0.394212
	H12	H	0.840329	0.375182	0.721616
	H13	H	0.159121	0.583936	0.715931
	H14	H	0.840358	0.589757	0.273733
	H15	H	0.157458	0.375244	0.277764
	H16	H	0.398666	0.699049	0.837640
	H17	H	0.602180	0.700945	0.159702
	H18	H	0.602463	0.261947	0.838861
	H19	H	0.397163	0.264383	0.159705
	H20	H	0.715985	0.821361	0.393245
	H21	H	0.717919	0.140470	0.605394
	H22	H	0.281423	0.818984	0.597806
	H23	H	0.275787	0.142645	0.394565
	H24	H	0.892230	0.322469	0.220264
	H25	H	0.103798	0.642589	0.219943
	H26	H	0.104063	0.320748	0.780473
	H27	H	0.898021	0.642245	0.779184
	H28	H	0.215757	0.877666	0.337012
	H29	H	0.214208	0.082852	0.657962
	H30	H	0.773083	0.087693	0.339988
	H31	H	0.777898	0.877157	0.658742
	H32	H	0.337622	0.202667	0.897190
	H33	H	0.657611	0.200789	0.102950
	H34	H	0.336896	0.763321	0.100666
	H35	H	0.657661	0.762997	0.894424
	H36	H	0.335502	0.879137	0.216857
	H37	H	0.655058	0.088050	0.221592
	H38	H	0.335663	0.084870	0.781964
	H39	H	0.654675	0.876187	0.774284
	H40	H	0.889515	0.203832	0.340309
	H41	H	0.099188	0.199234	0.658444
	H42	H	0.098275	0.762853	0.336656
	H43	H	0.896943	0.763275	0.658921
	H44	H	0.218122	0.321486	0.897383
	H45	H	0.217730	0.643462	0.102465
	H46	H	0.778344	0.322060	0.102770
	H47	H	0.778264	0.641967	0.891100
	H48	H	0.393534	0.100791	0.589938
	H49	H	0.580175	0.870057	0.583555
	H50	H	0.590129	0.097238	0.413384
	H51	H	0.413676	0.871617	0.411743
	H52	H	0.582312	0.394896	0.109885
	H53	H	0.591759	0.568368	0.885649
	H54	H	0.410124	0.570491	0.112579
	H55	H	0.408304	0.391105	0.884194
	H56	H	0.113868	0.576992	0.407475
	H57	H	0.882128	0.569772	0.596143
	H58	H	0.111309	0.394725	0.591300
	H59	H	0.886527	0.396268	0.410122
	H60	H	0.114683	0.386094	0.591675
	H61	H	0.882541	0.576666	0.587922
	H62	H	0.108943	0.569343	0.414009
	H63	H	0.883880	0.394571	0.406514
	H64	H	0.409445	0.576145	0.113976
	H65	H	0.583532	0.572442	0.886334
	H66	H	0.591242	0.385717	0.114900
	H67	H	0.406518	0.394904	0.885268
	H68	H	0.580641	0.096270	0.404053
	H69	H	0.590616	0.866432	0.585349
	H70	H	0.408102	0.098745	0.597669
	H71	H	0.398566	0.866480	0.412887
	H72	H	0.907942	0.596479	0.083427
	H73	H	0.081914	0.371753	0.083902
	H74	H	0.087404	0.597955	0.903605
	H75	H	0.903416	0.365224	0.909826
	H76	H	0.091360	0.883691	0.614221
	H77	H	0.083699	0.068262	0.384773
	H78	H	0.904802	0.070891	0.612361
	H79	H	0.904752	0.894247	0.384703
	H80	H	0.611886	0.071306	0.905152
	H81	H	0.383539	0.072599	0.087570
	H82	H	0.612259	0.894686	0.096659
	H83	H	0.384501	0.888418	0.913291
	H84	H	0.612464	0.886883	0.089245
	H85	H	0.383402	0.072115	0.088614
	H86	H	0.611477	0.073060	0.908065
	H87	H	0.385224	0.898222	0.906905
	H88	H	0.906367	0.069074	0.612469
	H89	H	0.084410	0.071128	0.383440
	H90	H	0.092820	0.895488	0.610827
	H91	H	0.907900	0.889904	0.384129
	H92	H	0.087825	0.595907	0.910017
	H93	H	0.095344	0.367216	0.083070
	H94	H	0.911465	0.596740	0.089259
	H95	H	0.911195	0.365747	0.904277
	H96	H	0.406479	0.094453	0.581298
	H97	H	0.582916	0.865892	0.592947
	H98	H	0.578423	0.091529	0.416027
	H99	H	0.405750	0.864949	0.398430
	H100	H	0.594676	0.398543	0.112777
	H101	H	0.590594	0.576636	0.883087
	H102	H	0.404327	0.573214	0.114455
	H103	H	0.410820	0.393727	0.886591
	H104	H	0.111424	0.566221	0.403968
	H105	H	0.886528	0.566223	0.586689
	H106	H	0.110339	0.389436	0.584025
	H107	H	0.884805	0.392051	0.410201
	H108	H	0.914486	0.592950	0.084160
	H109	H	0.087989	0.365300	0.094904
	H110	H	0.093136	0.598820	0.906571
	H111	H	0.911045	0.369310	0.912995
	H112	H	0.081971	0.889511	0.609810
	H113	H	0.086596	0.069348	0.384544
	H114	H	0.906597	0.071061	0.611959
	H115	H	0.902795	0.889856	0.382293
	H116	H	0.610285	0.069529	0.908479
	H117	H	0.383291	0.073157	0.087774
	H118	H	0.608764	0.897067	0.086409
	H119	H	0.381116	0.889013	0.902949
	C120	C	0.373475	-0.009454	0.619715
	C121	C	0.616536	0.973204	0.619265
	C122	C	0.615909	-0.010236	0.378227
	C123	C	0.373832	0.973658	0.376113
	C124	C	0.620331	0.361030	0.006779
	C125	C	0.620538	0.604419	0.990534
	C126	C	0.377265	0.604046	0.007450
	C127	C	0.377555	0.361292	0.990997
	C128	C	0.006296	0.603395	0.375987
	C129	C	0.989845	0.602018	0.619604
	C130	C	0.006922	0.358377	0.621039
	C131	C	0.989994	0.360817	0.377291
	C132	C	0.878342	0.490100	0.118627
	C133	C	0.120318	0.473888	0.119887
	C134	C	0.120773	0.490791	0.876838
	C135	C	0.877490	0.472782	0.876539
	C136	C	0.119004	0.858807	0.505640
	C137	C	0.116706	0.101305	0.489691
	C138	C	0.873606	0.103057	0.507305
	C139	C	0.875185	0.859870	0.489931
	C140	C	0.505456	0.103259	0.877220
	C141	C	0.488540	0.104326	0.120630
	C142	C	0.505057	0.861376	0.120612
	C143	C	0.488687	0.860523	0.876227
	C144	C	0.374176	0.869266	0.677634
	C145	C	0.617675	0.094370	0.677563
	C146	C	0.617622	0.869350	0.318619
	C147	C	0.371731	0.094706	0.317455
	C148	C	0.678212	0.360045	0.886241
	C149	C	0.680721	0.605817	0.110214
	C150	C	0.318900	0.605056	0.887066
	C151	C	0.318655	0.359911	0.110953
	C152	C	0.886049	0.662446	0.374016
	C153	C	0.110704	0.659789	0.617976
	C154	C	0.886038	0.300739	0.621869
	C155	C	0.109553	0.300032	0.376045
	C156	C	0.887474	0.357006	0.681277
	C157	C	0.111032	0.602622	0.676511
	C158	C	0.887499	0.606670	0.314646
	C159	C	0.109855	0.357604	0.317864
	C160	C	0.377962	0.661310	0.886425
	C161	C	0.621354	0.662409	0.111428
	C162	C	0.620915	0.301723	0.886724
	C163	C	0.377511	0.303018	0.111333
	C164	C	0.676056	0.869476	0.375240
	C165	C	0.677116	0.092989	0.622130
	C166	C	0.318576	0.868177	0.618084
	C167	C	0.314947	0.094613	0.375676
	C168	C	0.874919	0.370107	0.179306
	C169	C	0.122157	0.594491	0.179919
	C170	C	0.122846	0.369317	0.819070
	C171	C	0.877775	0.594011	0.817838
	C172	C	0.176926	0.858288	0.385076
	C173	C	0.175089	0.101837	0.610060
	C174	C	0.813243	0.105902	0.387643
	C175	C	0.817171	0.858620	0.610643
	C176	C	0.385142	0.162851	0.877519
	C177	C	0.609333	0.162228	0.121946
	C178	C	0.384758	0.802626	0.120256
	C179	C	0.609400	0.802113	0.875293
	C180	C	0.384023	0.860473	0.177971
	C181	C	0.607813	0.106280	0.181345
	C182	C	0.384292	0.104432	0.820190
	C183	C	0.607952	0.858525	0.815662
	C184	C	0.871339	0.163531	0.387773
	C185	C	0.117792	0.159801	0.610248
	C186	C	0.118289	0.801240	0.384808
	C187	C	0.876072	0.801604	0.610687
	C188	C	0.179688	0.369732	0.877134
	C189	C	0.179032	0.595024	0.121508
	C190	C	0.818007	0.369946	0.120962
	C191	C	0.818436	0.593649	0.873860
	C192	C	0.396170	0.075895	0.596511
	C193	C	0.591766	0.889271	0.594518
	C194	C	0.590497	0.073364	0.403761
	C195	C	0.398818	0.889506	0.400691
	C196	C	0.596245	0.385755	0.090686
	C197	C	0.595712	0.579831	0.906912
	C198	C	0.401039	0.580197	0.091612
	C199	C	0.401575	0.386172	0.907109
	C200	C	0.089771	0.578029	0.401266
	C201	C	0.905643	0.577999	0.596756
	C202	C	0.090517	0.382904	0.596251
	C203	C	0.906757	0.386814	0.401870
	C204	C	0.904052	0.573501	0.093102
	C205	C	0.095486	0.390201	0.094824
	C206	C	0.096478	0.575376	0.899758
	C207	C	0.901755	0.388707	0.901538
	C208	C	0.095392	0.882543	0.589876
	C209	C	0.092002	0.076745	0.406053
	C210	C	0.898784	0.077675	0.590440
	C211	C	0.898391	0.884392	0.405654
	C212	C	0.589429	0.078310	0.900543
	C213	C	0.405052	0.079864	0.095404
	C214	C	0.589126	0.885669	0.097234
	C215	C	0.405356	0.884748	0.900711
	Zn216	Zn	0.495546	-0.017439	0.747123
	Zn217	Zn	0.496100	-0.017012	0.249088
	Zn218	Zn	0.749338	0.482396	-0.002033
	Zn219	Zn	0.248514	0.482640	-0.001301
	Zn220	Zn	-0.003194	0.730833	0.497743
	Zn221	Zn	-0.003575	0.230765	0.498521
	Zn222	Zn	-0.000231	0.481103	0.748770
	Zn223	Zn	-0.001358	0.481841	0.248073
	Zn224	Zn	0.498631	0.732671	-0.000508
	Zn225	Zn	0.498398	0.232133	-0.001227
	Zn226	Zn	0.745315	-0.019116	0.498601
	Zn227	Zn	0.246272	-0.018907	0.497285
	N228	N	0.407692	0.946517	0.678669
	N229	N	0.580639	0.018741	0.675956
	N230	N	0.580783	0.945243	0.320402
	N231	N	0.407767	0.018611	0.317706
	N232	N	0.677902	0.396337	0.961866
	N233	N	0.680503	0.570781	0.033905
	N234	N	0.318260	0.570258	0.963492
	N235	N	0.318675	0.395488	0.034842
	N236	N	0.960812	0.660194	0.411609
	N237	N	0.034384	0.659547	0.583393
	N238	N	0.961196	0.301780	0.585014
	N239	N	0.033812	0.301661	0.412259
	N240	N	0.963774	0.391956	0.681013
	N241	N	0.034946	0.567479	0.677696
	N242	N	0.963374	0.570764	0.315716
	N243	N	0.034603	0.394654	0.318681
	N244	N	0.413297	0.660990	0.962364
	N245	N	0.584933	0.661809	0.035921
	N246	N	0.585968	0.301898	0.962960
	N247	N	0.413588	0.304026	0.035856
	N248	N	0.675091	0.945323	0.411755
	N249	N	0.676357	0.016699	0.586488
	N250	N	0.317800	0.944714	0.583034
	N251	N	0.316135	0.018245	0.411512
	N252	N	0.911989	0.445668	0.177819
	N253	N	0.086507	0.518113	0.179312
	N254	N	0.086907	0.445668	0.818580
	N255	N	0.913713	0.517685	0.819174
	N256	N	0.177513	0.893279	0.461280
	N257	N	0.174569	0.066341	0.534128
	N258	N	0.814180	0.069346	0.463053
	N259	N	0.816317	0.893757	0.534312
	N260	N	0.461512	0.162435	0.912205
	N261	N	0.534105	0.161132	0.084955
	N262	N	0.460949	0.803230	0.085255
	N263	N	0.534309	0.803326	0.912424
	N264	N	0.459913	0.896354	0.178247
	N265	N	0.531701	0.071121	0.180635
	N266	N	0.460123	0.068324	0.819760
	N267	N	0.532018	0.894080	0.816046
	N268	N	0.907850	0.162219	0.463218
	N269	N	0.082142	0.159651	0.534340
	N270	N	0.082995	0.801382	0.460831
	N271	N	0.911030	0.801937	0.534498
	N272	N	0.178684	0.446294	0.912241
	N273	N	0.178209	0.519116	0.085159
	N274	N	0.820057	0.445548	0.083849
	N275	N	0.818047	0.517292	0.909502
	O276	O	0.842639	0.893494	-0.004503
	H277	H	0.840295	0.889877	-0.001709
	H278	H	0.846822	0.896714	-0.010868
	O279	O	0.684861	0.649355	0.632151
	H280	H	0.674043	0.640850	0.639571
	H281	H	0.668582	0.630188	0.628027
	O282	O	0.436477	0.623440	0.648209
	H283	H	0.440010	0.596891	0.649929
	H284	H	0.437205	0.625870	0.639597
	O285	O	0.952217	-0.107606	-0.140965
	H286	H	0.931170	-0.112057	-0.129640
	H287	H	0.938393	-0.110045	-0.139110
	O288	O	-0.034175	-0.199624	1.106575
	H289	H	-0.019708	-0.204449	1.100470
	H290	H	-0.024537	-0.203417	1.093507
	O291	O	0.132993	0.683928	0.717219
	H292	H	0.129571	0.690493	0.715254
	H293	H	0.145139	0.683136	0.712411
	O294	O	1.250409	0.804641	0.661566
	H295	H	1.235728	0.802400	0.662444
	H296	H	1.258996	0.808993	0.658733
	O297	O	1.123111	1.040057	0.977511
	H298	H	1.119083	1.029792	0.974219
	H299	H	1.107766	1.041470	0.956978
	O300	O	-0.155371	0.094272	-0.154931
	H301	H	-0.167013	0.109373	-0.146826
	H302	H	-0.155419	0.070594	-0.154318
	O303	O	0.695402	0.473092	0.576184
	H304	H	0.700980	0.481479	0.559031
	H305	H	0.688497	0.446662	0.562647
	O306	O	1.044417	-0.090406	-0.011141
	H307	H	1.069084	-0.091390	-0.021582
	H308	H	1.023371	-0.097969	-0.007549
	O309	O	0.411189	0.346494	0.445371
	H310	H	0.408819	0.343396	0.449467
	H311	H	0.403551	0.339975	0.460021
	O312	O	1.113244	1.159301	0.183374
	H313	H	1.139393	1.140166	0.183837
	H314	H	1.120312	1.166023	0.174918
	O315	O	0.327725	0.514502	0.533841
	H316	H	0.310924	0.502911	0.540029
	H317	H	0.331277	0.513830	0.529154
	O318	O	0.647616	0.448197	0.306537
	H319	H	0.653450	0.455114	0.306351
	H320	H	0.646529	0.463171	0.318068
	O321	O	1.128642	-0.138854	0.934492
	H322	H	1.133403	-0.127951	0.919048
	H323	H	1.122365	-0.152004	0.922508
	O324	O	0.437743	0.673076	0.426766
	H325	H	0.447122	0.677331	0.428121
	H326	H	0.439850	0.681713	0.415389
	O327	O	0.813482	1.181805	0.992382
	H328	H	0.807684	1.189498	1.007836
	H329	H	0.798782	1.174585	0.995586
	O330	O	0.554189	0.483348	0.328663
	H331	H	0.542294	0.500334	0.333204
	H332	H	0.543507	0.464954	0.320143
	O333	O	0.955569	1.081823	0.923967
	H334	H	0.946026	1.073438	0.933445
	H335	H	0.946555	1.101183	0.925375
	O336	O	0.572207	0.503006	0.654645
	H337	H	0.594102	0.499440	0.657156
	H338	H	0.580685	0.493169	0.637918
	O339	O	1.032387	0.169987	0.983221
	H340	H	1.012271	0.176174	0.995973
	H341	H	1.020101	0.172438	0.975741
	O342	O	-0.167739	1.016410	1.076522
	H343	H	-0.127375	1.020369	1.091819
	H344	H	-0.181861	1.029434	1.083564
	O345	O	-0.426501	1.553277	1.700880
	H346	H	-0.417237	1.555271	1.699550
	H347	H	-0.407493	1.547162	1.695445
	O348	O	0.564649	0.559159	0.510219
	H349	H	0.554845	0.556547	0.515356
	H350	H	0.572959	0.556978	0.489138
	O351	O	0.464441	-0.416912	-0.485789
	H352	H	0.471405	-0.422872	-0.488160
	H353	H	0.464869	-0.409213	-0.488995
	O354	O	0.926086	1.013142	0.170503
	H355	H	0.942427	0.997235	0.169867
	H356	H	0.944546	1.024107	0.162542
	O357	O	0.166549	0.959319	0.128951
	H358	H	0.181572	0.935737	0.127232
	H359	H	0.171199	0.951247	0.110629
	O360	O	-0.172548	0.905697	1.073290
	H361	H	-0.155291	0.938212	1.077086
	H362	H	-0.160368	0.906623	1.094447
	O363	O	0.475184	0.314222	0.323769
	H364	H	0.470017	0.299006	0.327862
	H365	H	0.459641	0.304053	0.326170
	O366	O	0.008825	0.915174	0.069090
	H367	H	0.015369	0.900120	0.061636
	H368	H	0.019021	0.932038	0.065538
	O369	O	0.655526	0.695453	0.519163
	H370	H	0.659893	0.701153	0.542564
	H371	H	0.664517	0.709685	0.539303
	O372	O	0.377129	0.473686	0.437920
	H373	H	0.364272	0.485853	0.432104
	H374	H	0.375236	0.474846	0.444949
	O375	O	0.329277	0.409235	0.580859
	H376	H	0.325163	0.398582	0.588231
	H377	H	0.324412	0.404596	0.571874
	O378	O	0.429539	0.596019	0.326923
	H379	H	0.444902	0.599945	0.327714
	H380	H	0.425022	0.602850	0.343180
	O381	O	0.660434	0.366183	0.358091
	H382	H	0.661424	0.377352	0.345816
	H383	H	0.643343	0.361672	0.348601
	O384	O	0.127848	0.874170	1.020594
	H385	H	0.134858	0.857938	1.022317
	H386	H	0.113012	0.886889	1.001013
	O387	O	0.797874	1.025421	-0.176414
	H388	H	0.784530	1.025932	-0.176072
	H389	H	0.794719	1.019041	-0.173268
	O390	O	0.463218	0.393275	0.582093
	H391	H	0.475838	0.386492	0.586913
	H392	H	0.467974	0.393804	0.587814
	O393	O	0.973825	0.055907	0.973606
	H394	H	0.975302	0.053093	0.989202
	H395	H	0.972567	0.050552	0.981822
	O396	O	0.180420	1.105722	1.098209
	H397	H	0.191590	1.100107	1.085367
	H398	H	0.173596	1.094745	1.076605
	O399	O	0.457046	0.301017	0.657540
	H400	H	0.470536	0.312447	0.657234
	H401	H	0.458740	0.289921	0.669669
	O402	O	1.387560	0.320863	0.598754
	H403	H	1.375659	0.330335	0.598806
	H404	H	1.376502	0.306875	0.579208
	O405	O	0.108242	0.103603	-0.137671
	H406	H	0.079749	0.092966	-0.148508
	H407	H	0.100461	0.119724	-0.131397
	O408	O	0.306401	1.508557	0.403993
	H409	H	0.287196	1.519631	0.389332
	H410	H	0.309726	1.516387	0.416247
	O411	O	1.001973	1.129533	0.185441
	H412	H	1.012887	1.153508	0.198097
	H413	H	1.038309	1.125040	0.181798
	O414	O	-0.342802	-0.685027	1.426661
	H415	H	-0.343029	-0.704517	1.419558
	H416	H	-0.341710	-0.673793	1.398579
	O417	O	0.690736	0.431536	0.448366
	H418	H	0.704859	0.453352	0.451676
	H419	H	0.684012	0.420768	0.437794
	O420	O	0.093849	0.909989	-0.019560
	H421	H	0.080436	0.916042	-0.019097
	H422	H	0.099741	0.890123	-0.035584
	O423	O	1.027272	-0.153828	-0.181129
	H424	H	1.032920	-0.154137	-0.183460
	H425	H	1.015675	-0.139267	-0.179580
	O426	O	-0.189109	-0.211058	1.056320
	H427	H	-0.206920	-0.214456	1.061317
	H428	H	-0.186858	-0.209568	1.078515
	O429	O	0.402546	0.402080	0.553000
	H430	H	0.416257	0.395924	0.551040
	H431	H	0.411474	0.409008	0.560183
